0:0:0
     RDKit          3D

 94103  0  0  1  0  0  0  0  0999 V2000
  -28.3270  -20.6880   20.6800 C   0  0  0  0  0  2  0  0  0  0  0  0
  -30.5480  -21.5470   20.2420 C   0  0  0  0  0  2  0  0  0  0  0  0
  -27.7100  -22.1050   20.6430 C   0  0  0  0  0  2  0  0  0  0  0  0
  -30.0780  -23.0120   20.1560 C   0  0  0  0  0  2  0  0  0  0  0  0
  -29.4850  -20.5990   19.6950 C   0  0  0  0  0  3  0  0  0  0  0  0
  -28.6370  -23.2850   20.4850 N   0  0  1  0  0  4  0  0  0  0  0  0
  -28.6650  -23.7150   21.4000 H   0  0  0  0  0  0  0  0  0  0  0  0
  -31.4430  -17.9160   17.8540 C   0  0  0  0  0  3  0  0  0  0  0  0
  -30.9180  -19.1400   18.2770 C   0  0  0  0  0  3  0  0  0  0  0  0
  -31.1040  -16.7420   18.5450 C   0  0  0  0  0  3  0  0  0  0  0  0
  -29.6940  -18.0210   20.0740 C   0  0  0  0  0  3  0  0  0  0  0  0
  -30.0320  -19.2090   19.3710 C   0  0  0  0  0  0  0  0  0  0  0  0
  -30.2590  -16.7760   19.6880 C   0  0  0  0  0  0  0  0  0  0  0  0
  -30.7070  -14.4690   20.4410 C   0  0  0  0  0  0  0  0  0  0  0  0
  -30.3730  -12.3090   19.3740 C   0  0  0  0  0  2  0  0  0  0  0  0
  -29.4760  -12.6070   18.1540 C   0  0  0  0  0  2  0  0  0  0  0  0
  -27.9880  -12.4880   18.5410 C   0  0  0  0  0  2  0  0  0  0  0  0
  -27.6370  -13.2890   19.8260 C   0  0  0  0  0  3  0  0  0  0  0  0
  -28.6770  -13.0570   20.9490 C   0  0  0  0  0  2  0  0  0  0  0  0
  -30.0150  -13.3030   20.3910 N   0  0  0  0  0  0  0  0  0  0  0  0
  -31.9160  -14.5410   20.2280 O   0  0  0  0  0  0  0  0  0  0  0  0
  -29.9460  -15.5830   20.4220 N   0  0  0  0  0  0  0  0  0  0  0  0
  -29.0000  -15.4830   20.7530 H   0  0  0  0  0  0  0  0  0  0  0  0
  -25.2280  -13.9020   20.4840 C   0  0  0  0  0  0  0  0  0  0  0  0
  -24.1510  -13.1350   20.8410 C   0  0  0  0  0  0  0  0  0  0  0  0
  -24.6100  -11.7830   20.8360 C   0  0  0  0  0  0  0  0  0  0  0  0
  -26.2750  -13.0170   20.2800 N   0  0  0  0  0  0  0  0  0  0  0  0
  -25.9080  -11.7360   20.5490 N   0  0  0  0  0  0  0  0  0  0  0  0
  -23.8780  -10.5230   21.0290 C   0  0  0  0  0  0  0  0  0  0  0  0
  -24.2920   -9.5600   21.9740 C   0  0  0  0  0  3  0  0  0  0  0  0
  -23.5570   -8.3690   22.1560 C   0  0  0  0  0  3  0  0  0  0  0  0
  -22.3930   -8.1310   21.3850 C   0  0  0  0  0  0  0  0  0  0  0  0
  -21.9950   -9.0820   20.4290 C   0  0  0  0  0  3  0  0  0  0  0  0
  -22.7330  -10.2640   20.2470 C   0  0  0  0  0  3  0  0  0  0  0  0
  -21.6300   -6.9950   21.4720 O   0  0  0  0  0  0  0  0  0  0  0  0
  -21.5660   -6.2540   22.6250 C   0  0  0  0  0  0  0  0  0  0  0  0
  -21.1440   -6.8180   23.8490 C   0  0  0  0  0  3  0  0  0  0  0  0
  -21.0310   -6.0080   24.9970 C   0  0  0  0  0  3  0  0  0  0  0  0
  -21.3280   -4.6340   24.9210 C   0  0  0  0  0  0  0  0  0  0  0  0
  -21.7450   -4.0690   23.7030 C   0  0  0  0  0  3  0  0  0  0  0  0
  -21.8640   -4.8780   22.5590 C   0  0  0  0  0  0  0  0  0  0  0  0
  -22.2450   -4.3250   21.3830 F   0  0  0  0  0  0  0  0  0  0  0  0
  -21.2120   -3.8530   26.0190 F   0  0  0  0  0  0  0  0  0  0  0  0
  -22.7510  -13.6200   21.0770 C   0  0  0  0  0  0  0  0  0  0  0  0
  -22.0010  -12.9370   21.9350 N   0  0  0  0  0  0  0  0  0  0  0  0
  -22.3230  -14.6360   20.5320 O   0  0  0  0  0  0  0  0  0  0  0  0
  -22.3520  -12.1110   22.3950 H   0  0  0  0  0  0  0  0  0  0  0  0
  -21.0620  -13.2510   22.1360 H   0  0  0  0  0  0  0  0  0  0  0  0
  -25.3970  -15.2700   20.2990 N   0  0  0  0  0  0  0  0  0  0  0  0
  -24.6260  -15.9230   20.4020 H   0  0  0  0  0  0  0  0  0  0  0  0
  -26.2370  -15.7080   19.9420 H   0  0  0  0  0  0  0  0  0  0  0  0
  -28.0020  -24.2940   19.5690 C   0  0  0  0  0  2  0  0  0  0  0  0
  -28.7300  -25.6540   19.3170 C   0  0  0  0  0  2  0  0  0  0  0  0
  -28.4570  -26.7290   20.2290 O   0  0  0  0  0  0  0  0  0  0  0  0
  -24.6120  -31.9030   23.2390 C   0  0  0  0  0  0  0  0  0  0  0  0
  -27.2760  -27.4470   20.1580 C   0  0  0  0  0  0  0  0  0  0  0  0
  -23.4150  -30.4920   21.5950 C   0  0  0  0  0  3  0  0  0  0  0  0
  -24.8750  -28.9590   20.1680 C   0  0  0  0  0  0  0  0  0  0  0  0
  -25.9420  -30.8430   21.4170 C   0  0  0  0  0  2  0  0  0  0  0  0
  -26.0260  -29.4700   20.7810 C   0  0  0  0  0  0  0  0  0  0  0  0
  -27.2170  -28.7100   20.7950 C   0  0  0  0  0  3  0  0  0  0  0  0
  -26.1160  -26.9740   19.5040 C   0  0  0  0  0  3  0  0  0  0  0  0
  -24.9160  -27.7110   19.5250 C   0  0  0  0  0  3  0  0  0  0  0  0
  -23.6300  -29.8130   20.2150 C   0  0  0  0  0  2  0  0  0  0  0  0
  -24.6740  -31.0970   22.1410 N   0  0  0  0  0  0  0  0  0  0  0  0
  -23.5270  -32.1720   23.7740 O   0  0  0  0  0  0  0  0  0  0  0  0
  -22.7630  -29.4720   22.5560 C   0  0  0  0  0  0  0  0  0  0  0  0
  -21.4380  -29.2930   22.4320 N   0  0  0  0  0  0  0  0  0  0  0  0
  -23.4470  -28.8460   23.3700 O   0  0  0  0  0  0  0  0  0  0  0  0
  -20.9480  -29.8500   21.7460 H   0  0  0  0  0  0  0  0  0  0  0  0
  -18.0610  -28.1110   22.9500 C   0  0  0  0  0  0  0  0  0  0  0  0
  -20.6220  -28.3580   23.2060 C   0  0  0  0  0  3  0  0  0  0  0  0
  -20.7150  -26.9270   22.6260 C   0  0  0  0  0  2  0  0  0  0  0  0
  -19.6050  -26.6140   21.6180 C   0  0  0  0  0  2  0  0  0  0  0  0
  -18.2260  -26.7640   22.2680 C   0  0  0  0  0  2  0  0  0  0  0  0
  -19.1850  -28.8660   23.3770 C   0  0  0  0  0  0  0  0  0  0  0  0
  -18.9760  -30.1290   23.9720 C   0  0  0  0  0  3  0  0  0  0  0  0
  -17.6750  -30.6380   24.1430 C   0  0  0  0  0  3  0  0  0  0  0  0
  -16.5650  -29.8810   23.7300 C   0  0  0  0  0  3  0  0  0  0  0  0
  -16.7580  -28.6180   23.1430 C   0  0  0  0  0  3  0  0  0  0  0  0
  -25.8950  -32.5370   23.8610 C   0  0  0  0  0  3  0  0  0  0  0  0
  -26.4130  -31.7700   25.1380 C   0  0  1  0  0  0  0  0  0  0  0  0
  -25.3230  -31.5320   26.2080 C   0  0  0  0  0  1  0  0  0  0  0  0
  -27.0020  -30.3950   24.7490 C   0  0  0  0  0  1  0  0  0  0  0  0
  -27.5610  -32.5690   25.7980 C   0  0  0  0  0  1  0  0  0  0  0  0
  -25.5790  -33.9340   24.1880 N   0  0  0  0  0  0  0  0  0  0  0  0
  -25.9120  -34.9870   23.4300 C   0  0  0  0  0  0  0  0  0  0  0  0
  -26.5850  -34.8860   22.4000 O   0  0  0  0  0  0  0  0  0  0  0  0
  -24.9750  -34.0870   24.9820 H   0  0  0  0  0  0  0  0  0  0  0  0
  -24.1790  -36.7770   23.0680 C   0  0  0  0  0  1  0  0  0  0  0  0
  -25.4180  -36.3750   23.8840 C   0  0  0  0  0  3  0  0  0  0  0  0
  -27.5500  -37.2650   24.7180 C   0  0  0  0  0  1  0  0  0  0  0  0
  -26.4490  -37.4310   23.7730 N   0  0  0  0  0  0  0  0  0  0  0  0
  -26.0400  -38.3500   23.9230 H   0  0  0  0  0  0  0  0  0  0  0  0
  3  1  1  0
  4  2  1  0
  4  6  1  0
  5 12  1  0
  5  2  1  0
  5  1  1  0
  6  3  1  0
  6  7  1  1
  8  9  2  0
  8 10  1  0
  9 12  1  0
 10 13  2  0
 12 11  2  0
 13 11  1  0
 13 22  1  0
 15 20  1  0
 16 17  1  0
 16 15  1  0
 18 17  1  0
 18 27  1  0
 18 19  1  0
 20 14  1  0
 20 19  1  0
 21 14  2  0
 22 14  1  0
 22 23  1  0
 24 25  2  0
 25 44  1  0
 26 25  1  0
 26 29  1  0
 27 24  1  0
 27 28  1  0
 28 26  2  0
 29 30  1  0
 30 31  2  0
 32 35  1  0
 32 31  1  0
 33 32  2  0
 34 33  1  0
 34 29  2  0
 35 36  1  0
 36 37  1  0
 37 38  2  0
 39 38  1  0
 39 43  1  0
 40 39  2  0
 41 36  2  0
 41 40  1  0
 42 41  1  0
 44 45  1  0
 45 48  1  0
 45 47  1  0
 46 44  2  0
 49 50  1  0
 49 24  1  0
 51 49  1  0
 52  6  1  0
 53 52  1  0
 53 54  1  0
 55 66  2  0
 56 54  1  0
 56 61  1  0
 57 65  1  0
 57 67  1  0
 58 64  1  0
 58 60  1  0
 59 65  1  0
 60 61  2  0
 60 59  1  0
 62 63  1  0
 62 56  2  0
 63 58  2  0
 64 57  1  0
 65 55  1  0
 67 69  2  0
 68 67  1  0
 70 68  1  0
 71 80  2  0
 71 76  1  0
 72 68  1  0
 72 76  1  0
 73 72  1  0
 74 75  1  0
 74 73  1  0
 75 71  1  0
 76 77  2  0
 77 78  1  0
 79 78  2  0
 80 79  1  0
 81 55  1  0
 81 86  1  0
 81 82  1  0
 82 85  1  1
 82 83  1  0
 84 82  1  0
 86 89  1  0
 87 91  1  0
 87 86  1  0
 88 87  2  0
 91 90  1  0
 93 91  1  0
 93 94  1  0
 93 92  1  0
M  ISO  4  14 100  22 100  53 101  54 101
M  END
>  <TORSDO>  (1) 
F 19

>  <SCORE>  (1) 
-14.381

>  <name>  (1) 
0

>  <ligand_id>  (1) 
0

>  <original_smiles>  (1) 
[H]c1c([H])c([H])c2c(c1[H])C([H])([H])C([H])([H])C([H])([H])C2([H])N([H])C(=O)C1([H])N(C(=O)C([H])(N([H])C(=O)C([H])(N([H])C([H])([H])[H])C([H])([H])[H])C(C([H])([H])[H])(C([H])([H])[H])C([H])([H])[H])C([H])([H])c2c([H])c(OC([H])([H])C([H])([H])[N+]3([H])C([H])([H])C([H])([H])C([H])(c4c([H])c([H])c([H])c(N([H])C(=O)N5C([H])([H])C([H])([H])C([H])([H])C([H])(n6nc(-c7c([H])c([H])c(Oc8c([H])c([H])c(F)c([H])c8F)c([H])c7[H])c(C(=O)N([H])[H])c6N([H])[H])C5([H])[H])c4[H])C([H])([H])C3([H])[H])c([H])c([H])c2C1([H])[H]

>  <smiles>  (1) 
[H]c1c([H])c([H])c2c(c1[H])C([H])([H])C([H])([H])C([H])([H])C2([H])N([H])C(=O)C1([H])N(C(=O)C([H])(N([H])C(=O)C([H])(N([H])C([H])([H])[H])C([H])([H])[H])C(C([H])([H])[H])(C([H])([H])[H])C([H])([H])[H])C([H])([H])c2c([H])c(OC([H])([H])C([H])([H])[N+]3([H])C([H])([H])C([H])([H])C([H])(c4c([H])c([H])c([H])c(N([H])C(=O)N5C([H])([H])C([H])([H])C([H])([H])C([H])(n6nc(-c7c([H])c([H])c(Oc8c([H])c([H])c(F)c([H])c8F)c([H])c7[H])c(C(=O)N([H])[H])c6N([H])[H])C5([H])[H])c4[H])C([H])([H])C3([H])[H])c([H])c([H])c2C1([H])[H]

$$$$
1:0:0
     RDKit          3D

102111  0  0  1  0  0  0  0  0999 V2000
  -29.7710  -21.7320   20.0920 C   0  0  0  0  0  3  0  0  0  0  0  0
  -30.0370  -21.7940   17.5560 C   0  0  0  0  0  3  0  0  0  0  0  0
  -27.9710  -20.8790   18.4790 C   0  0  0  0  0  3  0  0  0  0  0  0
  -28.2960  -20.9660   16.0640 C   0  0  0  0  0  3  0  0  0  0  0  0
  -29.2450  -21.4620   18.6800 C   0  0  0  0  0  0  0  0  0  0  0  0
  -29.5640  -21.5450   16.2540 C   0  0  0  0  0  0  0  0  0  0  0  0
  -27.5040  -20.6280   17.1760 C   0  0  0  0  0  0  0  0  0  0  0  0
  -30.3330  -21.8620   15.1860 F   0  0  0  0  0  0  0  0  0  0  0  0
  -26.2900  -20.0570   16.9930 F   0  0  0  0  0  0  0  0  0  0  0  0
  -28.9660  -22.8090   20.7470 N   0  0  0  0  0  4  0  0  0  0  0  0
  -28.0220  -22.4730   20.8580 H   0  0  0  0  0  0  0  0  0  0  0  0
  -29.3430  -22.9460   21.6720 H   0  0  0  0  0  0  0  0  0  0  0  0
  -28.9420  -24.1400   20.0400 C   0  0  0  0  0  2  0  0  0  0  0  0
  -28.2200  -25.2700   20.8250 C   0  0  0  0  0  2  0  0  0  0  0  0
  -28.2990  -26.5550   20.1640 O   0  0  0  0  0  0  0  0  0  0  0  0
  -24.5720  -31.8080   23.2470 C   0  0  0  0  0  0  0  0  0  0  0  0
  -27.1470  -27.3180   20.1680 C   0  0  0  0  0  0  0  0  0  0  0  0
  -23.3460  -30.4280   21.6010 C   0  0  0  0  0  3  0  0  0  0  0  0
  -24.7750  -28.8660   20.1760 C   0  0  0  0  0  0  0  0  0  0  0  0
  -25.8760  -30.7500   21.3980 C   0  0  0  0  0  2  0  0  0  0  0  0
  -25.9430  -29.3750   20.7590 C   0  0  0  0  0  0  0  0  0  0  0  0
  -27.1340  -28.6090   20.7460 C   0  0  0  0  0  3  0  0  0  0  0  0
  -25.9620  -26.8290   19.5730 C   0  0  0  0  0  3  0  0  0  0  0  0
  -24.7810  -27.5930   19.5790 C   0  0  0  0  0  3  0  0  0  0  0  0
  -23.5460  -29.7440   20.2210 C   0  0  0  0  0  2  0  0  0  0  0  0
  -24.6180  -31.0100   22.1420 N   0  0  0  0  0  0  0  0  0  0  0  0
  -23.4950  -32.0940   23.7890 O   0  0  0  0  0  0  0  0  0  0  0  0
  -22.6770  -29.4170   22.5610 C   0  0  0  0  0  0  0  0  0  0  0  0
  -21.3500  -29.2580   22.4340 N   0  0  0  0  0  0  0  0  0  0  0  0
  -23.3500  -28.7770   23.3730 O   0  0  0  0  0  0  0  0  0  0  0  0
  -20.8690  -29.8210   21.7460 H   0  0  0  0  0  0  0  0  0  0  0  0
  -17.9550  -28.1280   22.9330 C   0  0  0  0  0  0  0  0  0  0  0  0
  -20.5180  -28.3330   23.2040 C   0  0  0  0  0  3  0  0  0  0  0  0
  -20.5910  -26.9030   22.6210 C   0  0  0  0  0  2  0  0  0  0  0  0
  -19.4850  -26.6100   21.6050 C   0  0  0  0  0  2  0  0  0  0  0  0
  -18.1050  -26.7810   22.2460 C   0  0  0  0  0  2  0  0  0  0  0  0
  -19.0900  -28.8640   23.3670 C   0  0  0  0  0  0  0  0  0  0  0  0
  -18.8960  -30.1280   23.9650 C   0  0  0  0  0  3  0  0  0  0  0  0
  -17.6020  -30.6540   24.1370 C   0  0  0  0  0  3  0  0  0  0  0  0
  -16.4820  -29.9140   23.7210 C   0  0  0  0  0  3  0  0  0  0  0  0
  -16.6600  -28.6520   23.1250 C   0  0  0  0  0  3  0  0  0  0  0  0
  -25.8670  -32.4180   23.8680 C   0  0  0  0  0  3  0  0  0  0  0  0
  -25.5870  -33.8230   24.1920 N   0  0  0  0  0  0  0  0  0  0  0  0
  -25.9660  -34.8660   23.4430 C   0  0  0  0  0  0  0  0  0  0  0  0
  -26.6580  -34.7440   22.4270 O   0  0  0  0  0  0  0  0  0  0  0  0
  -24.9830  -33.9940   24.9840 H   0  0  0  0  0  0  0  0  0  0  0  0
  -24.3020  -36.7030   23.0320 C   0  0  0  0  0  1  0  0  0  0  0  0
  -25.5020  -36.2660   23.8860 C   0  0  0  0  0  3  0  0  0  0  0  0
  -27.6310  -37.0880   24.7930 C   0  0  0  0  0  1  0  0  0  0  0  0
  -26.5690  -37.2890   23.8110 N   0  0  0  0  0  0  0  0  0  0  0  0
  -26.1850  -38.2220   23.9420 H   0  0  0  0  0  0  0  0  0  0  0  0
  -26.3680  -31.6420   25.1480 C   0  0  1  0  0  0  0  0  0  0  0  0
  -25.2710  -31.4380   26.2200 C   0  0  0  0  0  1  0  0  0  0  0  0
  -26.9160  -30.2500   24.7570 C   0  0  0  0  0  1  0  0  0  0  0  0
  -27.5440  -32.4090   25.7980 C   0  0  0  0  0  1  0  0  0  0  0  0
  -29.9190  -20.4000   20.9300 C   0  0  0  0  0  2  0  0  0  0  0  0
  -32.7910  -18.5660   19.3560 C   0  0  0  0  0  2  0  0  0  0  0  0
  -32.2660  -19.6820   20.2640 C   0  0  0  0  0  2  0  0  0  0  0  0
  -30.5630  -17.9890   20.1010 C   0  0  0  0  0  3  0  0  0  0  0  0
  -31.5540  -17.7670   18.9130 C   0  0  1  0  0  0  0  0  0  0  0  0
  -30.9620  -18.3480   17.6040 C   0  0  0  0  0  1  0  0  0  0  0  0
  -31.9150  -16.3150   18.5640 C   0  0  0  0  0  1  0  0  0  0  0  0
  -30.8270  -19.4310   20.2810 N   0  0  0  0  0  0  0  0  0  0  0  0
  -30.8200  -17.1660   21.4220 C   0  0  0  0  0  2  0  0  0  0  0  0
  -31.1260  -14.6460   21.2850 C   0  0  0  0  0  0  0  0  0  0  0  0
  -30.9130  -12.4750   20.1350 C   0  0  0  0  0  2  0  0  0  0  0  0
  -30.1250  -12.6660   18.8220 C   0  0  0  0  0  2  0  0  0  0  0  0
  -28.6040  -12.6050   19.0740 C   0  0  0  0  0  2  0  0  0  0  0  0
  -28.1440  -13.4650   20.2830 C   0  0  0  0  0  3  0  0  0  0  0  0
  -29.0560  -13.2290   21.5070 C   0  0  0  0  0  2  0  0  0  0  0  0
  -30.4400  -13.4880   21.0890 N   0  0  0  0  0  0  0  0  0  0  0  0
  -32.3450  -14.7290   21.1220 O   0  0  0  0  0  0  0  0  0  0  0  0
  -30.3640  -15.7530   21.4180 N   0  0  0  0  0  0  0  0  0  0  0  0
  -29.3670  -15.6020   21.4760 H   0  0  0  0  0  0  0  0  0  0  0  0
  -25.7130  -14.1560   20.7750 C   0  0  0  0  0  0  0  0  0  0  0  0
  -24.5790  -13.4220   20.9910 C   0  0  0  0  0  0  0  0  0  0  0  0
  -24.9810  -12.0520   20.9420 C   0  0  0  0  0  0  0  0  0  0  0  0
  -26.7370  -13.2360   20.6070 N   0  0  0  0  0  0  0  0  0  0  0  0
  -26.2930  -11.9640   20.7700 N   0  0  0  0  0  0  0  0  0  0  0  0
  -24.1860  -10.8190   20.9880 C   0  0  0  0  0  0  0  0  0  0  0  0
  -24.5130   -9.7610   21.8640 C   0  0  0  0  0  3  0  0  0  0  0  0
  -23.7230   -8.5910   21.9030 C   0  0  0  0  0  3  0  0  0  0  0  0
  -22.5910   -8.4710   21.0620 C   0  0  0  0  0  0  0  0  0  0  0  0
  -22.2830   -9.5170   20.1740 C   0  0  0  0  0  3  0  0  0  0  0  0
  -23.0720  -10.6790   20.1330 C   0  0  0  0  0  3  0  0  0  0  0  0
  -21.7810   -7.3640   21.0140 O   0  0  0  0  0  0  0  0  0  0  0  0
  -21.6460   -6.5220   22.0890 C   0  0  0  0  0  0  0  0  0  0  0  0
  -21.1980   -6.9840   23.3460 C   0  0  0  0  0  3  0  0  0  0  0  0
  -21.0080   -6.0720   24.4040 C   0  0  0  0  0  3  0  0  0  0  0  0
  -21.2550   -4.7010   24.2060 C   0  0  0  0  0  0  0  0  0  0  0  0
  -21.6960   -4.2390   22.9540 C   0  0  0  0  0  3  0  0  0  0  0  0
  -21.8870   -5.1460   21.8980 C   0  0  0  0  0  0  0  0  0  0  0  0
  -22.2920   -4.6920   20.6870 F   0  0  0  0  0  0  0  0  0  0  0  0
  -21.0650   -3.8250   25.2190 F   0  0  0  0  0  0  0  0  0  0  0  0
  -23.1810  -13.9540   21.1310 C   0  0  0  0  0  0  0  0  0  0  0  0
  -22.3350  -13.2670   21.8920 N   0  0  0  0  0  0  0  0  0  0  0  0
  -22.8430  -15.0120   20.6030 O   0  0  0  0  0  0  0  0  0  0  0  0
  -22.6170  -12.4130   22.3500 H   0  0  0  0  0  0  0  0  0  0  0  0
  -21.3910  -13.6020   22.0220 H   0  0  0  0  0  0  0  0  0  0  0  0
  -25.9590  -15.5230   20.6840 N   0  0  0  0  0  0  0  0  0  0  0  0
  -25.2150  -16.2110   20.7340 H   0  0  0  0  0  0  0  0  0  0  0  0
  -26.8500  -15.9250   20.4240 H   0  0  0  0  0  0  0  0  0  0  0  0
  1 10  1  0
  1 56  1  0
  2  5  1  0
  3  5  2  0
  4  6  1  0
  4  7  2  0
  5  1  1  0
  6  2  2  0
  7  3  1  0
  8  6  1  0
  9  7  1  0
 10 11  1  0
 10 12  1  0
 13 10  1  0
 13 14  1  0
 15 17  1  0
 15 14  1  0
 16 27  2  0
 17 22  1  0
 18 26  1  0
 18 28  1  0
 19 25  1  0
 19 21  1  0
 20 26  1  0
 21 20  1  0
 22 21  2  0
 23 24  1  0
 23 17  2  0
 24 19  2  0
 25 18  1  0
 26 16  1  0
 28 30  2  0
 29 28  1  0
 31 29  1  0
 32 41  2  0
 32 37  1  0
 33 29  1  0
 33 37  1  0
 34 33  1  0
 35 36  1  0
 35 34  1  0
 36 32  1  0
 37 38  2  0
 38 39  1  0
 40 39  2  0
 41 40  1  0
 42 16  1  0
 42 43  1  0
 42 52  1  0
 43 46  1  0
 44 48  1  0
 44 43  1  0
 45 44  2  0
 48 47  1  0
 50 48  1  0
 50 51  1  0
 50 49  1  0
 52 55  1  1
 52 53  1  0
 54 52  1  0
 57 58  1  0
 58 63  1  0
 59 63  1  0
 59 64  1  0
 60 57  1  0
 60 59  1  0
 60 61  1  6
 62 60  1  0
 63 56  1  0
 65 73  1  0
 66 71  1  0
 67 68  1  0
 67 66  1  0
 69 68  1  0
 69 78  1  0
 69 70  1  0
 71 65  1  0
 71 70  1  0
 72 65  2  0
 73 64  1  0
 73 74  1  0
 75 76  2  0
 76 95  1  0
 77 80  1  0
 77 76  1  0
 78 79  1  0
 78 75  1  0
 79 77  2  0
 80 81  1  0
 81 82  2  0
 83 82  1  0
 84 83  2  0
 85 84  1  0
 85 80  2  0
 86 83  1  0
 86 87  1  0
 87 88  1  0
 88 89  2  0
 90 89  1  0
 90 94  1  0
 91 90  2  0
 92 87  2  0
 92 91  1  0
 93 92  1  0
 95 96  1  0
 96 99  1  0
 96 98  1  0
 97 95  2  0
100101  1  0
100 75  1  0
102100  1  0
M  ISO  4  14 101  15 101  65 100  73 100
M  END
>  <TORSDO>  (2) 
F 23

>  <SCORE>  (2) 
-11.438

>  <name>  (2) 
1

>  <ligand_id>  (2) 
1

>  <original_smiles>  (2) 
[H]c1c([H])c([H])c2c(c1[H])C([H])([H])C([H])([H])C([H])([H])C2([H])N([H])C(=O)C1([H])N(C(=O)C([H])(N([H])C(=O)C([H])(N([H])C([H])([H])[H])C([H])([H])[H])C(C([H])([H])[H])(C([H])([H])[H])C([H])([H])[H])C([H])([H])c2c([H])c(OC([H])([H])C([H])([H])[N+]([H])([H])C([H])(c3c([H])c(F)c([H])c(F)c3[H])C([H])([H])N3C([H])([H])C([H])([H])C(C([H])([H])[H])(C([H])([H])[H])C3([H])C([H])([H])N([H])C(=O)N3C([H])([H])C([H])([H])C([H])([H])C([H])(n4nc(-c5c([H])c([H])c(Oc6c([H])c([H])c(F)c([H])c6F)c([H])c5[H])c(C(=O)N([H])[H])c4N([H])[H])C3([H])[H])c([H])c([H])c2C1([H])[H]

>  <smiles>  (2) 
[H]c1c([H])c([H])c2c(c1[H])C([H])([H])C([H])([H])C([H])([H])C2([H])N([H])C(=O)C1([H])N(C(=O)C([H])(N([H])C(=O)C([H])(N([H])C([H])([H])[H])C([H])([H])[H])C(C([H])([H])[H])(C([H])([H])[H])C([H])([H])[H])C([H])([H])c2c([H])c(OC([H])([H])C([H])([H])[N+]([H])([H])C([H])(c3c([H])c(F)c([H])c(F)c3[H])C([H])([H])N3C([H])([H])C([H])([H])C(C([H])([H])[H])(C([H])([H])[H])C3([H])C([H])([H])N([H])C(=O)N3C([H])([H])C([H])([H])C([H])([H])C([H])(n4nc(-c5c([H])c([H])c(Oc6c([H])c([H])c(F)c([H])c6F)c([H])c5[H])c(C(=O)N([H])[H])c4N([H])[H])C3([H])[H])c([H])c([H])c2C1([H])[H]

$$$$
2:0:0
     RDKit          3D

 91 99  0  0  1  0  0  0  0  0999 V2000
  -28.9330  -23.2890   20.2810 C   0  0  0  0  0  0  0  0  0  0  0  0
  -28.6670  -21.8680   20.4380 N   0  0  0  0  0  0  0  0  0  0  0  0
  -30.0910  -23.6530   20.0710 O   0  0  0  0  0  0  0  0  0  0  0  0
  -27.6740  -21.6870   20.3910 H   0  0  0  0  0  0  0  0  0  0  0  0
  -31.5600  -19.4770   21.5900 C   0  0  0  0  0  3  0  0  0  0  0  0
  -31.2130  -18.1700   21.1990 C   0  0  0  0  0  3  0  0  0  0  0  0
  -29.1560  -19.1170   20.3400 C   0  0  0  0  0  3  0  0  0  0  0  0
  -30.7400  -20.6180   21.3990 C   0  0  0  0  0  0  0  0  0  0  0  0
  -29.9770  -17.8690   20.5980 C   0  0  0  0  0  0  0  0  0  0  0  0
  -29.5090  -20.5540   20.6730 C   0  0  0  0  0  0  0  0  0  0  0  0
  -31.2340  -21.8730   22.1020 C   0  0  0  0  0  1  0  0  0  0  0  0
  -30.4590  -15.1360   20.3120 C   0  0  0  0  0  0  0  0  0  0  0  0
  -30.3770  -12.7650   19.3550 C   0  0  0  0  0  2  0  0  0  0  0  0
  -29.4320  -12.6650   18.1360 C   0  0  0  0  0  2  0  0  0  0  0  0
  -27.9830  -12.4120   18.5950 C   0  0  0  0  0  2  0  0  0  0  0  0
  -27.5650  -13.3360   19.7670 C   0  0  0  0  0  3  0  0  0  0  0  0
  -28.6350  -13.4000   20.8760 C   0  0  0  0  0  2  0  0  0  0  0  0
  -29.8740  -13.8630   20.2370 N   0  0  0  0  0  0  0  0  0  0  0  0
  -31.6740  -15.1730   20.0740 O   0  0  0  0  0  0  0  0  0  0  0  0
  -29.6720  -16.3490   20.3880 N   0  0  0  0  0  0  0  0  0  0  0  0
  -28.6850  -16.1470   20.3390 H   0  0  0  0  0  0  0  0  0  0  0  0
  -25.1960  -13.8710   20.5600 C   0  0  0  0  0  0  0  0  0  0  0  0
  -24.1460  -13.0780   20.9320 C   0  0  0  0  0  0  0  0  0  0  0  0
  -24.6260  -11.7330   20.8720 C   0  0  0  0  0  0  0  0  0  0  0  0
  -26.2430  -13.0090   20.2870 N   0  0  0  0  0  0  0  0  0  0  0  0
  -25.9120  -11.7160   20.5420 N   0  0  0  0  0  0  0  0  0  0  0  0
  -23.9130  -10.4600   21.0490 C   0  0  0  0  0  0  0  0  0  0  0  0
  -24.3510   -9.4930   21.9800 C   0  0  0  0  0  3  0  0  0  0  0  0
  -23.6370   -8.2860   22.1470 C   0  0  0  0  0  3  0  0  0  0  0  0
  -22.4710   -8.0390   21.3830 C   0  0  0  0  0  0  0  0  0  0  0  0
  -22.0530   -8.9970   20.4420 C   0  0  0  0  0  3  0  0  0  0  0  0
  -22.7680  -10.1950   20.2730 C   0  0  0  0  0  3  0  0  0  0  0  0
  -21.7280   -6.8860   21.4590 O   0  0  0  0  0  0  0  0  0  0  0  0
  -21.6610   -6.1490   22.6140 C   0  0  0  0  0  0  0  0  0  0  0  0
  -21.1570   -6.6910   23.8160 C   0  0  0  0  0  3  0  0  0  0  0  0
  -21.0400   -5.8770   24.9600 C   0  0  0  0  0  3  0  0  0  0  0  0
  -21.4190   -4.5230   24.9040 C   0  0  0  0  0  0  0  0  0  0  0  0
  -21.9150   -3.9800   23.7060 C   0  0  0  0  0  3  0  0  0  0  0  0
  -22.0330   -4.7900   22.5640 C   0  0  0  0  0  0  0  0  0  0  0  0
  -22.4930   -4.2560   21.4070 F   0  0  0  0  0  0  0  0  0  0  0  0
  -21.3000   -3.7380   26.0010 F   0  0  0  0  0  0  0  0  0  0  0  0
  -22.7480  -13.5370   21.2270 C   0  0  0  0  0  0  0  0  0  0  0  0
  -22.0400  -12.8260   22.0960 N   0  0  0  0  0  0  0  0  0  0  0  0
  -22.2930  -14.5620   20.7210 O   0  0  0  0  0  0  0  0  0  0  0  0
  -22.4210  -11.9970   22.5270 H   0  0  0  0  0  0  0  0  0  0  0  0
  -21.1020  -13.1160   22.3360 H   0  0  0  0  0  0  0  0  0  0  0  0
  -25.3380  -15.2460   20.4010 N   0  0  0  0  0  0  0  0  0  0  0  0
  -24.5580  -15.8820   20.5320 H   0  0  0  0  0  0  0  0  0  0  0  0
  -26.1580  -15.7020   20.0220 H   0  0  0  0  0  0  0  0  0  0  0  0
  -27.8140  -24.5490   20.2470 C   0  0  0  0  0  2  0  0  0  0  0  0
  -28.1720  -26.1020   20.2810 O   0  0  0  0  0  0  0  0  0  0  0  0
  -24.6290  -31.9340   23.2550 C   0  0  0  0  0  0  0  0  0  0  0  0
  -27.1510  -27.1430   20.2240 C   0  0  0  0  0  0  0  0  0  0  0  0
  -23.4190  -30.5520   21.6150 C   0  0  0  0  0  3  0  0  0  0  0  0
  -24.8530  -28.9590   20.1870 C   0  0  0  0  0  0  0  0  0  0  0  0
  -25.9800  -30.7750   21.4570 C   0  0  0  0  0  2  0  0  0  0  0  0
  -26.0400  -29.3780   20.8010 C   0  0  0  0  0  0  0  0  0  0  0  0
  -27.1900  -28.4890   20.8000 C   0  0  0  0  0  3  0  0  0  0  0  0
  -25.9370  -26.8490   19.5640 C   0  0  0  0  0  3  0  0  0  0  0  0
  -24.8180  -27.7100   19.5510 C   0  0  0  0  0  3  0  0  0  0  0  0
  -23.6380  -29.8750   20.2350 C   0  0  0  0  0  2  0  0  0  0  0  0
  -24.6970  -31.1100   22.1640 N   0  0  0  0  0  0  0  0  0  0  0  0
  -23.5450  -32.2290   23.7810 O   0  0  0  0  0  0  0  0  0  0  0  0
  -22.7250  -29.5530   22.5750 C   0  0  0  0  0  0  0  0  0  0  0  0
  -21.3960  -29.3900   22.4440 N   0  0  0  0  0  0  0  0  0  0  0  0
  -23.3880  -28.9240   23.4050 O   0  0  0  0  0  0  0  0  0  0  0  0
  -20.9170  -29.9490   21.7520 H   0  0  0  0  0  0  0  0  0  0  0  0
  -18.0080  -28.2080   22.9460 C   0  0  0  0  0  0  0  0  0  0  0  0
  -20.5680  -28.4590   23.2140 C   0  0  0  0  0  3  0  0  0  0  0  0
  -20.6610  -27.0250   22.6450 C   0  0  0  0  0  2  0  0  0  0  0  0
  -19.5610  -26.7050   21.6290 C   0  0  0  0  0  2  0  0  0  0  0  0
  -18.1790  -26.8570   22.2700 C   0  0  0  0  0  2  0  0  0  0  0  0
  -19.1290  -28.9660   23.3750 C   0  0  0  0  0  0  0  0  0  0  0  0
  -18.9140  -30.2270   23.9710 C   0  0  0  0  0  3  0  0  0  0  0  0
  -17.6110  -30.7340   24.1370 C   0  0  0  0  0  3  0  0  0  0  0  0
  -16.5040  -29.9740   23.7220 C   0  0  0  0  0  3  0  0  0  0  0  0
  -16.7030  -28.7120   23.1330 C   0  0  0  0  0  3  0  0  0  0  0  0
  -25.9110  -32.5610   23.8830 C   0  0  0  0  0  3  0  0  0  0  0  0
  -25.6080  -33.9610   24.2220 N   0  0  0  0  0  0  0  0  0  0  0  0
  -25.9080  -35.0170   23.4550 C   0  0  0  0  0  0  0  0  0  0  0  0
  -26.5360  -34.9160   22.3980 O   0  0  0  0  0  0  0  0  0  0  0  0
  -25.0450  -34.1120   25.0470 H   0  0  0  0  0  0  0  0  0  0  0  0
  -24.1550  -36.8060   23.1930 C   0  0  0  0  0  1  0  0  0  0  0  0
  -25.4410  -36.4070   23.9350 C   0  0  0  0  0  3  0  0  0  0  0  0
  -27.6070  -37.3140   24.6520 C   0  0  0  0  0  1  0  0  0  0  0  0
  -26.4600  -37.4640   23.7610 N   0  0  0  0  0  0  0  0  0  0  0  0
  -26.0560  -38.3840   23.9200 H   0  0  0  0  0  0  0  0  0  0  0  0
  -26.4180  -31.7850   25.1620 C   0  0  1  0  0  0  0  0  0  0  0  0
  -25.3190  -31.5500   26.2260 C   0  0  0  0  0  1  0  0  0  0  0  0
  -26.9950  -30.4040   24.7770 C   0  0  0  0  0  1  0  0  0  0  0  0
  -27.5690  -32.5720   25.8280 C   0  0  0  0  0  1  0  0  0  0  0  0
  1  2  1  0
  2 10  1  0
  3  1  2  0
  4  2  1  0
  6  5  2  0
  7  9  2  0
  7 10  1  0
  8  5  1  0
  8 11  1  0
  9  6  1  0
 10  8  2  0
 12 20  1  0
 13 18  1  0
 14 15  1  0
 14 13  1  0
 16 15  1  0
 16 25  1  0
 16 17  1  0
 18 12  1  0
 18 17  1  0
 19 12  2  0
 20  9  1  0
 21 20  1  0
 22 23  2  0
 23 42  1  0
 24 23  1  0
 24 27  1  0
 25 26  1  0
 25 22  1  0
 26 24  2  0
 27 28  1  0
 28 29  2  0
 30 33  1  0
 30 29  1  0
 31 30  2  0
 32 31  1  0
 32 27  2  0
 33 34  1  0
 34 35  1  0
 35 36  2  0
 37 36  1  0
 37 41  1  0
 38 37  2  0
 39 34  2  0
 39 38  1  0
 40 39  1  0
 42 43  1  0
 43 46  1  0
 43 45  1  0
 44 42  2  0
 47 48  1  0
 47 22  1  0
 49 47  1  0
 50  1  1  0
 50 51  1  0
 52 63  2  0
 53 51  1  0
 53 58  1  0
 54 62  1  0
 54 64  1  0
 55 61  1  0
 55 57  1  0
 56 62  1  0
 57 56  1  0
 58 57  2  0
 59 53  2  0
 60 59  1  0
 60 55  2  0
 61 54  1  0
 62 52  1  0
 64 66  2  0
 65 64  1  0
 67 65  1  0
 68 77  2  0
 68 73  1  0
 69 65  1  0
 69 73  1  0
 70 69  1  0
 71 72  1  0
 71 70  1  0
 72 68  1  0
 73 74  2  0
 74 75  1  0
 76 75  2  0
 77 76  1  0
 78 52  1  0
 78 79  1  0
 78 88  1  0
 79 82  1  0
 80 84  1  0
 80 79  1  0
 81 80  2  0
 84 83  1  0
 86 87  1  0
 86 84  1  0
 86 85  1  0
 88 91  1  1
 88 89  1  0
 90 88  1  0
M  ISO  4  12 100  20 100  50 101  51 101
M  END
>  <TORSDO>  (3) 
F 18

>  <SCORE>  (3) 
-14.874

>  <name>  (3) 
2

>  <ligand_id>  (3) 
2

>  <original_smiles>  (3) 
[H]c1c([H])c([H])c2c(c1[H])C([H])([H])C([H])([H])C([H])([H])C2([H])N([H])C(=O)C1([H])N(C(=O)C([H])(N([H])C(=O)C([H])(N([H])C([H])([H])[H])C([H])([H])[H])C(C([H])([H])[H])(C([H])([H])[H])C([H])([H])[H])C([H])([H])c2c([H])c(OC([H])([H])C(=O)N([H])c3c([H])c(N([H])C(=O)N4C([H])([H])C([H])([H])C([H])([H])C([H])(n5nc(-c6c([H])c([H])c(Oc7c([H])c([H])c(F)c([H])c7F)c([H])c6[H])c(C(=O)N([H])[H])c5N([H])[H])C4([H])[H])c([H])c([H])c3C([H])([H])[H])c([H])c([H])c2C1([H])[H]

>  <smiles>  (3) 
[H]c1c([H])c([H])c2c(c1[H])C([H])([H])C([H])([H])C([H])([H])C2([H])N([H])C(=O)C1([H])N(C(=O)C([H])(N([H])C(=O)C([H])(N([H])C([H])([H])[H])C([H])([H])[H])C(C([H])([H])[H])(C([H])([H])[H])C([H])([H])[H])C([H])([H])c2c([H])c(OC([H])([H])C(=O)N([H])c3c([H])c(N([H])C(=O)N4C([H])([H])C([H])([H])C([H])([H])C([H])(n5nc(-c6c([H])c([H])c(Oc7c([H])c([H])c(F)c([H])c7F)c([H])c6[H])c(C(=O)N([H])[H])c5N([H])[H])C4([H])[H])c([H])c([H])c3C([H])([H])[H])c([H])c([H])c2C1([H])[H]

$$$$
3:0:0
     RDKit          3D

 89 98  0  0  1  0  0  0  0  0999 V2000
  -27.4700  -23.5460   19.0590 C   0  0  0  0  0  2  0  0  0  0  0  0
  -27.4710  -21.9720   19.3250 C   0  0  0  0  0  2  0  0  0  0  0  0
  -29.0300  -23.0000   20.6750 C   0  0  0  0  0  2  0  0  0  0  0  0
  -27.9630  -24.3080   20.3240 C   0  0  0  0  0  3  0  0  0  0  0  0
  -28.6100  -21.5620   20.1670 N   0  0  0  0  0  0  0  0  0  0  0  0
  -30.6540  -18.0370   20.7500 C   0  0  0  0  0  3  0  0  0  0  0  0
  -30.2870  -19.4800   20.7300 C   0  0  0  0  0  3  0  0  0  0  0  0
  -28.2480  -18.9090   19.8590 C   0  0  0  0  0  3  0  0  0  0  0  0
  -29.8580  -16.8770   20.3430 C   0  0  0  0  0  0  0  0  0  0  0  0
  -29.0410  -20.0700   20.2670 C   0  0  0  0  0  0  0  0  0  0  0  0
  -28.6030  -17.4600   19.8820 C   0  0  0  0  0  0  0  0  0  0  0  0
  -27.6670  -16.6110   19.4000 F   0  0  0  0  0  0  0  0  0  0  0  0
  -30.4490  -15.3020   20.2260 C   0  0  0  0  0  0  0  0  0  0  0  0
  -30.3710  -12.8520   19.4040 C   0  0  0  0  0  2  0  0  0  0  0  0
  -29.4570  -12.6450   18.1710 C   0  0  0  0  0  2  0  0  0  0  0  0
  -28.0150  -12.3600   18.6200 C   0  0  0  0  0  2  0  0  0  0  0  0
  -27.5560  -13.3350   19.7310 C   0  0  0  0  0  3  0  0  0  0  0  0
  -28.6020  -13.5390   20.8470 C   0  0  0  0  0  2  0  0  0  0  0  0
  -29.8410  -14.0140   20.2130 N   0  0  0  0  0  0  0  0  0  0  0  0
  -31.6700  -15.2180   20.0140 O   0  0  0  0  0  0  0  0  0  0  0  0
  -25.1970  -13.8730   20.5270 C   0  0  0  0  0  0  0  0  0  0  0  0
  -24.1440  -13.0850   20.8990 C   0  0  0  0  0  0  0  0  0  0  0  0
  -24.6200  -11.7390   20.8490 C   0  0  0  0  0  0  0  0  0  0  0  0
  -26.2400  -13.0060   20.2580 N   0  0  0  0  0  0  0  0  0  0  0  0
  -25.9070  -11.7170   20.5240 N   0  0  0  0  0  0  0  0  0  0  0  0
  -23.9020  -10.4700   21.0350 C   0  0  0  0  0  0  0  0  0  0  0  0
  -24.3320   -9.5080   21.9750 C   0  0  0  0  0  3  0  0  0  0  0  0
  -23.6130   -8.3060   22.1470 C   0  0  0  0  0  3  0  0  0  0  0  0
  -22.4490   -8.0570   21.3800 C   0  0  0  0  0  0  0  0  0  0  0  0
  -22.0400   -9.0080   20.4280 C   0  0  0  0  0  3  0  0  0  0  0  0
  -22.7600  -10.2020   20.2540 C   0  0  0  0  0  3  0  0  0  0  0  0
  -21.7010   -6.9080   21.4620 O   0  0  0  0  0  0  0  0  0  0  0  0
  -21.6200   -6.1840   22.6250 C   0  0  0  0  0  0  0  0  0  0  0  0
  -21.1070   -6.7430   23.8170 C   0  0  0  0  0  3  0  0  0  0  0  0
  -20.9770   -5.9430   24.9700 C   0  0  0  0  0  3  0  0  0  0  0  0
  -21.3500   -4.5860   24.9320 C   0  0  0  0  0  0  0  0  0  0  0  0
  -21.8550   -4.0270   23.7450 C   0  0  0  0  0  3  0  0  0  0  0  0
  -21.9860   -4.8240   22.5940 C   0  0  0  0  0  0  0  0  0  0  0  0
  -22.4540   -4.2740   21.4480 F   0  0  0  0  0  0  0  0  0  0  0  0
  -21.2170   -3.8150   26.0370 F   0  0  0  0  0  0  0  0  0  0  0  0
  -22.7460  -13.5500   21.1820 C   0  0  0  0  0  0  0  0  0  0  0  0
  -22.0310  -12.8460   22.0510 N   0  0  0  0  0  0  0  0  0  0  0  0
  -22.2980  -14.5750   20.6680 O   0  0  0  0  0  0  0  0  0  0  0  0
  -22.4100  -12.0170   22.4890 H   0  0  0  0  0  0  0  0  0  0  0  0
  -21.0920  -13.1360   22.2830 H   0  0  0  0  0  0  0  0  0  0  0  0
  -25.3490  -15.2450   20.3670 N   0  0  0  0  0  0  0  0  0  0  0  0
  -24.5830  -15.8940   20.5040 H   0  0  0  0  0  0  0  0  0  0  0  0
  -26.1960  -15.6950   20.0290 H   0  0  0  0  0  0  0  0  0  0  0  0
  -28.1710  -25.9410   20.2950 O   0  0  0  0  0  0  0  0  0  0  0  0
  -24.6200  -31.8770   23.2910 C   0  0  0  0  0  0  0  0  0  0  0  0
  -27.1450  -27.0140   20.2640 C   0  0  0  0  0  0  0  0  0  0  0  0
  -23.4150  -30.4920   21.6530 C   0  0  0  0  0  3  0  0  0  0  0  0
  -24.8510  -28.8880   20.2270 C   0  0  0  0  0  0  0  0  0  0  0  0
  -25.9810  -30.7000   21.4970 C   0  0  0  0  0  2  0  0  0  0  0  0
  -26.0430  -29.2930   20.8410 C   0  0  0  0  0  0  0  0  0  0  0  0
  -27.1870  -28.3780   20.8310 C   0  0  0  0  0  3  0  0  0  0  0  0
  -25.9210  -26.7550   19.6110 C   0  0  0  0  0  3  0  0  0  0  0  0
  -24.8120  -27.6380   19.5930 C   0  0  0  0  0  3  0  0  0  0  0  0
  -23.6370  -29.8130   20.2750 C   0  0  0  0  0  2  0  0  0  0  0  0
  -24.6940  -31.0490   22.2010 N   0  0  0  0  0  0  0  0  0  0  0  0
  -23.5340  -32.1710   23.8160 O   0  0  0  0  0  0  0  0  0  0  0  0
  -22.7210  -29.4940   22.6170 C   0  0  0  0  0  0  0  0  0  0  0  0
  -21.3920  -29.3230   22.4830 N   0  0  0  0  0  0  0  0  0  0  0  0
  -23.3830  -28.8750   23.4530 O   0  0  0  0  0  0  0  0  0  0  0  0
  -20.9100  -29.8760   21.7880 H   0  0  0  0  0  0  0  0  0  0  0  0
  -18.0120  -28.0970   22.9650 C   0  0  0  0  0  0  0  0  0  0  0  0
  -20.5660  -28.3860   23.2520 C   0  0  0  0  0  3  0  0  0  0  0  0
  -20.6850  -26.9490   22.6910 C   0  0  0  0  0  2  0  0  0  0  0  0
  -19.5950  -26.6100   21.6680 C   0  0  0  0  0  2  0  0  0  0  0  0
  -18.2060  -26.7470   22.2970 C   0  0  0  0  0  2  0  0  0  0  0  0
  -19.1190  -28.8740   23.3980 C   0  0  0  0  0  0  0  0  0  0  0  0
  -18.8810  -30.1360   23.9840 C   0  0  0  0  0  3  0  0  0  0  0  0
  -17.5690  -30.6220   24.1400 C   0  0  0  0  0  3  0  0  0  0  0  0
  -16.4760  -29.8430   23.7210 C   0  0  0  0  0  3  0  0  0  0  0  0
  -16.6980  -28.5830   23.1380 C   0  0  0  0  0  3  0  0  0  0  0  0
  -25.8960  -32.5130   23.9220 C   0  0  0  0  0  3  0  0  0  0  0  0
  -25.5910  -33.9180   24.2460 N   0  0  0  0  0  0  0  0  0  0  0  0
  -25.9100  -34.9690   23.4780 C   0  0  0  0  0  0  0  0  0  0  0  0
  -26.5570  -34.8580   22.4350 O   0  0  0  0  0  0  0  0  0  0  0  0
  -25.0170  -34.0770   25.0610 H   0  0  0  0  0  0  0  0  0  0  0  0
  -24.1780  -36.7710   23.1650 C   0  0  0  0  0  1  0  0  0  0  0  0
  -25.4410  -36.3640   23.9410 C   0  0  0  0  0  3  0  0  0  0  0  0
  -27.5950  -37.2570   24.7120 C   0  0  0  0  0  1  0  0  0  0  0  0
  -26.4730  -37.4120   23.7900 N   0  0  0  0  0  0  0  0  0  0  0  0
  -26.0710  -38.3360   23.9300 H   0  0  0  0  0  0  0  0  0  0  0  0
  -26.3900  -31.7540   25.2150 C   0  0  1  0  0  0  0  0  0  0  0  0
  -25.2840  -31.5400   26.2760 C   0  0  0  0  0  1  0  0  0  0  0  0
  -26.9650  -30.3650   24.8540 C   0  0  0  0  0  1  0  0  0  0  0  0
  -27.5400  -32.5460   25.8790 C   0  0  0  0  0  1  0  0  0  0  0  0
  1  2  1  0
  1  4  1  0
  2  5  1  0
  4 49  1  0
  4  3  1  0
  5 10  1  0
  5  3  1  0
  7  6  1  0
  8 11  2  0
  8 10  1  0
  9  6  2  0
 10  7  2  0
 11  9  1  0
 12 11  1  0
 13  9  1  0
 14 19  1  0
 15 16  1  0
 15 14  1  0
 17 16  1  0
 17 24  1  0
 17 18  1  0
 19 13  1  0
 19 18  1  0
 20 13  2  0
 21 22  2  0
 22 41  1  0
 23 22  1  0
 23 26  1  0
 24 25  1  0
 24 21  1  0
 25 23  2  0
 26 27  1  0
 27 28  2  0
 29 32  1  0
 29 28  1  0
 30 29  2  0
 31 30  1  0
 31 26  2  0
 32 33  1  0
 33 34  1  0
 34 35  2  0
 36 35  1  0
 36 40  1  0
 37 36  2  0
 38 33  2  0
 38 37  1  0
 39 38  1  0
 41 42  1  0
 42 45  1  0
 42 44  1  0
 43 41  2  0
 46 47  1  0
 46 21  1  0
 48 46  1  0
 50 61  2  0
 51 49  1  0
 51 56  1  0
 52 60  1  0
 52 62  1  0
 53 59  1  0
 53 55  1  0
 54 60  1  0
 55 54  1  0
 56 55  2  0
 57 51  2  0
 58 57  1  0
 58 53  2  0
 59 52  1  0
 60 50  1  0
 62 64  2  0
 63 62  1  0
 65 63  1  0
 66 75  2  0
 66 71  1  0
 67 63  1  0
 67 71  1  0
 68 67  1  0
 69 70  1  0
 69 68  1  0
 70 66  1  0
 71 72  2  0
 72 73  1  0
 74 73  2  0
 75 74  1  0
 76 50  1  0
 76 77  1  0
 76 86  1  0
 77 80  1  0
 78 82  1  0
 78 77  1  0
 79 78  2  0
 82 81  1  0
 84 85  1  0
 84 82  1  0
 84 83  1  0
 86 89  1  1
 86 87  1  0
 88 86  1  0
M  ISO  4   4 101   9 100  13 100  49 101
M  END
>  <TORSDO>  (4) 
F 17

>  <SCORE>  (4) 
-15.312

>  <name>  (4) 
3

>  <ligand_id>  (4) 
3

>  <original_smiles>  (4) 
[H]c1c([H])c([H])c2c(c1[H])C([H])([H])C([H])([H])C([H])([H])C2([H])N([H])C(=O)C1([H])N(C(=O)C([H])(N([H])C(=O)C([H])(N([H])C([H])([H])[H])C([H])([H])[H])C(C([H])([H])[H])(C([H])([H])[H])C([H])([H])[H])C([H])([H])c2c([H])c(OC3([H])C([H])([H])N(c4c([H])c([H])c(C(=O)N5C([H])([H])C([H])([H])C([H])([H])C([H])(n6nc(-c7c([H])c([H])c(Oc8c([H])c([H])c(F)c([H])c8F)c([H])c7[H])c(C(=O)N([H])[H])c6N([H])[H])C5([H])[H])c(F)c4[H])C([H])([H])C3([H])[H])c([H])c([H])c2C1([H])[H]

>  <smiles>  (4) 
[H]c1c([H])c([H])c2c(c1[H])C([H])([H])C([H])([H])C([H])([H])C2([H])N([H])C(=O)C1([H])N(C(=O)C([H])(N([H])C(=O)C([H])(N([H])C([H])([H])[H])C([H])([H])[H])C(C([H])([H])[H])(C([H])([H])[H])C([H])([H])[H])C([H])([H])c2c([H])c(OC3([H])C([H])([H])N(c4c([H])c([H])c(C(=O)N5C([H])([H])C([H])([H])C([H])([H])C([H])(n6nc(-c7c([H])c([H])c(Oc8c([H])c([H])c(F)c([H])c8F)c([H])c7[H])c(C(=O)N([H])[H])c6N([H])[H])C5([H])[H])c(F)c4[H])C([H])([H])C3([H])[H])c([H])c([H])c2C1([H])[H]

$$$$
4:0:0
     RDKit          3D

 91100  0  0  1  0  0  0  0  0999 V2000
  -28.5790  -21.9290   20.4870 C   0  0  0  0  0  0  0  0  0  0  0  0
  -29.4450  -20.7920   20.2490 N   0  0  0  0  0  0  0  0  0  0  0  0
  -28.9010  -23.3260   20.2670 N   0  0  0  0  0  0  0  0  0  0  0  0
  -27.4490  -21.6800   20.9180 O   0  0  0  0  0  0  0  0  0  0  0  0
  -30.3700  -21.0420   19.9160 H   0  0  0  0  0  0  0  0  0  0  0  0
  -29.8150  -23.5110   19.8740 H   0  0  0  0  0  0  0  0  0  0  0  0
  -30.5840  -15.2160   20.2350 C   0  0  0  0  0  0  0  0  0  0  0  0
  -30.4240  -12.8160   19.3630 C   0  0  0  0  0  2  0  0  0  0  0  0
  -29.4970  -12.6840   18.1380 C   0  0  0  0  0  2  0  0  0  0  0  0
  -28.0410  -12.4550   18.5830 C   0  0  0  0  0  2  0  0  0  0  0  0
  -27.6180  -13.3990   19.7430 C   0  0  0  0  0  3  0  0  0  0  0  0
  -28.6920  -13.5180   20.8440 C   0  0  0  0  0  2  0  0  0  0  0  0
  -29.9290  -13.9690   20.1830 N   0  0  0  0  0  0  0  0  0  0  0  0
  -31.8100  -15.1410   20.0970 O   0  0  0  0  0  0  0  0  0  0  0  0
  -30.8060  -17.7050   18.2880 C   0  0  0  0  0  2  0  0  0  0  0  0
  -31.5130  -18.2640   19.5320 C   0  0  0  0  0  2  0  0  0  0  0  0
  -28.5800  -18.4170   19.2450 C   0  0  0  0  0  2  0  0  0  0  0  0
  -29.4930  -17.1540   18.9190 C   0  0  0  0  0  3  0  0  0  0  0  0
  -30.4200  -17.9880   20.5900 C   0  0  0  0  0  3  0  0  0  0  0  0
  -29.2420  -19.1810   20.4320 C   0  0  0  0  0  3  0  0  0  0  0  0
  -29.9280  -16.5310   20.2030 N   0  0  0  0  0  0  0  0  0  0  0  0
  -25.2500  -13.9390   20.5460 C   0  0  0  0  0  0  0  0  0  0  0  0
  -24.1940  -13.1520   20.9170 C   0  0  0  0  0  0  0  0  0  0  0  0
  -24.6680  -11.8050   20.8610 C   0  0  0  0  0  0  0  0  0  0  0  0
  -26.2950  -13.0750   20.2760 N   0  0  0  0  0  0  0  0  0  0  0  0
  -25.9580  -11.7840   20.5340 N   0  0  0  0  0  0  0  0  0  0  0  0
  -23.9470  -10.5380   21.0460 C   0  0  0  0  0  0  0  0  0  0  0  0
  -24.3750   -9.5680   21.9800 C   0  0  0  0  0  3  0  0  0  0  0  0
  -23.6500   -8.3680   22.1500 C   0  0  0  0  0  3  0  0  0  0  0  0
  -22.4830   -8.1270   21.3840 C   0  0  0  0  0  0  0  0  0  0  0  0
  -22.0780   -9.0840   20.4370 C   0  0  0  0  0  3  0  0  0  0  0  0
  -22.8050  -10.2760   20.2650 C   0  0  0  0  0  3  0  0  0  0  0  0
  -21.7330   -6.9780   21.4590 O   0  0  0  0  0  0  0  0  0  0  0  0
  -21.6480   -6.2480   22.6180 C   0  0  0  0  0  0  0  0  0  0  0  0
  -21.1490   -6.8070   23.8130 C   0  0  0  0  0  3  0  0  0  0  0  0
  -21.0100   -6.0030   24.9640 C   0  0  0  0  0  3  0  0  0  0  0  0
  -21.3680   -4.6430   24.9200 C   0  0  0  0  0  0  0  0  0  0  0  0
  -21.8600   -4.0830   23.7280 C   0  0  0  0  0  3  0  0  0  0  0  0
  -21.9980   -4.8830   22.5810 C   0  0  0  0  0  0  0  0  0  0  0  0
  -22.4540   -4.3330   21.4310 F   0  0  0  0  0  0  0  0  0  0  0  0
  -21.2310   -3.8690   26.0240 F   0  0  0  0  0  0  0  0  0  0  0  0
  -22.7960  -13.6190   21.2030 C   0  0  0  0  0  0  0  0  0  0  0  0
  -22.0790  -12.9180   22.0730 N   0  0  0  0  0  0  0  0  0  0  0  0
  -22.3500  -14.6440   20.6890 O   0  0  0  0  0  0  0  0  0  0  0  0
  -22.4520  -12.0980   22.5260 H   0  0  0  0  0  0  0  0  0  0  0  0
  -21.1400  -13.2150   22.2970 H   0  0  0  0  0  0  0  0  0  0  0  0
  -25.4020  -15.3150   20.3900 N   0  0  0  0  0  0  0  0  0  0  0  0
  -24.6350  -15.9640   20.5250 H   0  0  0  0  0  0  0  0  0  0  0  0
  -26.2540  -15.7670   20.0810 H   0  0  0  0  0  0  0  0  0  0  0  0
  -27.8790  -24.5730   20.2420 C   0  0  0  0  0  2  0  0  0  0  0  0
  -28.2430  -26.0990   20.2880 O   0  0  0  0  0  0  0  0  0  0  0  0
  -24.6480  -31.9360   23.2640 C   0  0  0  0  0  0  0  0  0  0  0  0
  -27.2050  -27.1450   20.2380 C   0  0  0  0  0  0  0  0  0  0  0  0
  -23.4440  -30.5520   21.6200 C   0  0  0  0  0  3  0  0  0  0  0  0
  -24.8930  -28.9670   20.1950 C   0  0  0  0  0  0  0  0  0  0  0  0
  -26.0070  -30.7810   21.4740 C   0  0  0  0  0  2  0  0  0  0  0  0
  -26.0750  -29.3850   20.8140 C   0  0  0  0  0  0  0  0  0  0  0  0
  -27.2300  -28.4930   20.8170 C   0  0  0  0  0  3  0  0  0  0  0  0
  -25.9930  -26.8590   19.5680 C   0  0  0  0  0  3  0  0  0  0  0  0
  -24.8710  -27.7210   19.5460 C   0  0  0  0  0  3  0  0  0  0  0  0
  -23.6680  -29.8760   20.2400 C   0  0  0  0  0  2  0  0  0  0  0  0
  -24.7190  -31.1150   22.1720 N   0  0  0  0  0  0  0  0  0  0  0  0
  -23.5610  -32.2230   23.7920 O   0  0  0  0  0  0  0  0  0  0  0  0
  -22.7570  -29.5440   22.5790 C   0  0  0  0  0  0  0  0  0  0  0  0
  -21.4290  -29.3720   22.4480 N   0  0  0  0  0  0  0  0  0  0  0  0
  -23.4230  -28.9240   23.4100 O   0  0  0  0  0  0  0  0  0  0  0  0
  -20.9380  -29.9240   21.7590 H   0  0  0  0  0  0  0  0  0  0  0  0
  -18.0540  -28.1600   22.9510 C   0  0  0  0  0  0  0  0  0  0  0  0
  -20.6100  -28.4340   23.2230 C   0  0  0  0  0  3  0  0  0  0  0  0
  -20.7170  -27.0010   22.6520 C   0  0  0  0  0  2  0  0  0  0  0  0
  -19.6190  -26.6740   21.6350 C   0  0  0  0  0  2  0  0  0  0  0  0
  -18.2360  -26.8120   22.2770 C   0  0  0  0  0  2  0  0  0  0  0  0
  -19.1670  -28.9290   23.3820 C   0  0  0  0  0  0  0  0  0  0  0  0
  -18.9350  -30.1890   23.9770 C   0  0  0  0  0  3  0  0  0  0  0  0
  -17.6260  -30.6790   24.1430 C   0  0  0  0  0  3  0  0  0  0  0  0
  -16.5270  -29.9060   23.7280 C   0  0  0  0  0  3  0  0  0  0  0  0
  -16.7440  -28.6490   23.1360 C   0  0  0  0  0  3  0  0  0  0  0  0
  -25.9260  -32.5680   23.8960 C   0  0  0  0  0  3  0  0  0  0  0  0
  -25.6160  -33.9650   24.2330 N   0  0  0  0  0  0  0  0  0  0  0  0
  -25.9210  -35.0250   23.4680 C   0  0  0  0  0  0  0  0  0  0  0  0
  -26.5620  -34.9230   22.4190 O   0  0  0  0  0  0  0  0  0  0  0  0
  -25.0520  -34.1180   25.0560 H   0  0  0  0  0  0  0  0  0  0  0  0
  -24.1750  -36.8130   23.1890 C   0  0  0  0  0  1  0  0  0  0  0  0
  -25.4500  -36.4110   23.9460 C   0  0  0  0  0  3  0  0  0  0  0  0
  -27.6100  -37.3180   24.6900 C   0  0  0  0  0  1  0  0  0  0  0  0
  -26.4720  -37.4710   23.7870 N   0  0  0  0  0  0  0  0  0  0  0  0
  -26.0650  -38.3900   23.9400 H   0  0  0  0  0  0  0  0  0  0  0  0
  -26.4350  -31.7970   25.1770 C   0  0  1  0  0  0  0  0  0  0  0  0
  -25.3360  -31.5650   26.2420 C   0  0  0  0  0  1  0  0  0  0  0  0
  -27.0190  -30.4160   24.8010 C   0  0  0  0  0  1  0  0  0  0  0  0
  -27.5860  -32.5890   25.8400 C   0  0  0  0  0  1  0  0  0  0  0  0
  1  4  2  0
  2  1  1  0
  3  1  1  0
  5  2  1  0
  6  3  1  0
  8 13  1  0
  9 10  1  0
  9  8  1  0
 11 10  1  0
 11 25  1  0
 11 12  1  0
 13  7  1  0
 13 12  1  0
 14  7  2  0
 15 16  1  0
 17 20  1  0
 18 15  1  0
 18 17  1  0
 18 21  1  0
 19 16  1  0
 20  2  1  0
 20 19  1  0
 21  7  1  0
 21 19  1  0
 22 23  2  0
 23 42  1  0
 24 23  1  0
 24 27  1  0
 25 26  1  0
 25 22  1  0
 26 24  2  0
 27 28  1  0
 28 29  2  0
 30 33  1  0
 30 29  1  0
 31 30  2  0
 32 31  1  0
 32 27  2  0
 33 34  1  0
 34 35  1  0
 35 36  2  0
 37 36  1  0
 37 41  1  0
 38 37  2  0
 39 34  2  0
 39 38  1  0
 40 39  1  0
 42 43  1  0
 43 46  1  0
 43 45  1  0
 44 42  2  0
 47 48  1  0
 47 22  1  0
 49 47  1  0
 50  3  1  0
 50 51  1  0
 52 63  2  0
 53 51  1  0
 53 58  1  0
 54 62  1  0
 54 64  1  0
 55 61  1  0
 55 57  1  0
 56 62  1  0
 57 58  2  0
 57 56  1  0
 59 53  2  0
 60 59  1  0
 60 55  2  0
 61 54  1  0
 62 52  1  0
 64 66  2  0
 65 64  1  0
 67 65  1  0
 68 77  2  0
 68 73  1  0
 69 65  1  0
 69 73  1  0
 70 69  1  0
 71 72  1  0
 71 70  1  0
 72 68  1  0
 73 74  2  0
 74 75  1  0
 76 75  2  0
 77 76  1  0
 78 52  1  0
 78 79  1  0
 78 88  1  0
 79 82  1  0
 80 84  1  0
 80 79  1  0
 81 80  2  0
 84 83  1  0
 86 87  1  0
 86 84  1  0
 86 85  1  0
 88 91  1  1
 88 89  1  0
 90 88  1  0
M  ISO  4   7 100  21 100  50 101  51 101
M  END
>  <TORSDO>  (5) 
F 17

>  <SCORE>  (5) 
-15.079

>  <name>  (5) 
4

>  <ligand_id>  (5) 
4

>  <original_smiles>  (5) 
[H]c1c([H])c([H])c2c(c1[H])C([H])([H])C([H])([H])C([H])([H])C2([H])N([H])C(=O)C1([H])N(C(=O)C([H])(N([H])C(=O)C([H])(N([H])C([H])([H])[H])C([H])([H])[H])C(C([H])([H])[H])(C([H])([H])[H])C([H])([H])[H])C([H])([H])c2c([H])c(OC([H])([H])N([H])C(=O)N([H])C3([H])C([H])([H])C4([H])N(C(=O)N5C([H])([H])C([H])([H])C([H])([H])C([H])(n6nc(-c7c([H])c([H])c(Oc8c([H])c([H])c(F)c([H])c8F)c([H])c7[H])c(C(=O)N([H])[H])c6N([H])[H])C5([H])[H])C3([H])C([H])([H])C4([H])[H])c([H])c([H])c2C1([H])[H]

>  <smiles>  (5) 
[H]c1c([H])c([H])c2c(c1[H])C([H])([H])C([H])([H])C([H])([H])C2([H])N([H])C(=O)C1([H])N(C(=O)C([H])(N([H])C(=O)C([H])(N([H])C([H])([H])[H])C([H])([H])[H])C(C([H])([H])[H])(C([H])([H])[H])C([H])([H])[H])C([H])([H])c2c([H])c(OC([H])([H])N([H])C(=O)N([H])C3([H])C([H])([H])C4([H])N(C(=O)N5C([H])([H])C([H])([H])C([H])([H])C([H])(n6nc(-c7c([H])c([H])c(Oc8c([H])c([H])c(F)c([H])c8F)c([H])c7[H])c(C(=O)N([H])[H])c6N([H])[H])C5([H])[H])C3([H])C([H])([H])C4([H])[H])c([H])c([H])c2C1([H])[H]

$$$$
5:0:0
     RDKit          3D

 90 98  0  0  1  0  0  0  0  0999 V2000
  -30.7010  -19.8590   19.6520 C   0  0  0  0  0  3  0  0  0  0  0  0
  -30.8080  -18.4180   19.7880 C   0  0  0  0  0  3  0  0  0  0  0  0
  -28.4390  -19.8110   20.2760 C   0  0  0  0  0  3  0  0  0  0  0  0
  -29.5200  -20.6730   19.8840 C   0  0  0  0  0  0  0  0  0  0  0  0
  -29.7200  -17.5760   20.1580 C   0  0  0  0  0  0  0  0  0  0  0  0
  -28.5320  -18.3590   20.3930 C   0  0  0  0  0  0  0  0  0  0  0  0
  -27.4120  -17.6810   20.7400 F   0  0  0  0  0  0  0  0  0  0  0  0
  -30.5190  -14.9440   19.9530 C   0  0  0  0  0  0  0  0  0  0  0  0
  -30.3550  -12.6220   18.9590 C   0  0  0  0  0  2  0  0  0  0  0  0
  -29.3370  -12.6350   17.7950 C   0  0  0  0  0  2  0  0  0  0  0  0
  -27.9040  -12.4190   18.3170 C   0  0  0  0  0  2  0  0  0  0  0  0
  -27.5860  -13.3070   19.5480 C   0  0  0  0  0  3  0  0  0  0  0  0
  -28.7120  -13.2590   20.6040 C   0  0  0  0  0  2  0  0  0  0  0  0
  -29.9510  -13.6750   19.9320 N   0  0  0  0  0  0  0  0  0  0  0  0
  -31.6810  -15.0640   19.5500 O   0  0  0  0  0  0  0  0  0  0  0  0
  -29.6990  -16.0500   20.2770 N   0  0  0  0  0  0  0  0  0  0  0  0
  -28.8170  -15.7250   20.6420 H   0  0  0  0  0  0  0  0  0  0  0  0
  -25.2560  -13.8770   20.4490 C   0  0  0  0  0  0  0  0  0  0  0  0
  -24.2120  -13.0970   20.8620 C   0  0  0  0  0  0  0  0  0  0  0  0
  -24.6670  -11.7450   20.7670 C   0  0  0  0  0  0  0  0  0  0  0  0
  -26.2780  -13.0030   20.1200 N   0  0  0  0  0  0  0  0  0  0  0  0
  -25.9360  -11.7130   20.3740 N   0  0  0  0  0  0  0  0  0  0  0  0
  -23.9470  -10.4810   20.9670 C   0  0  0  0  0  0  0  0  0  0  0  0
  -24.4000   -9.5090   21.8840 C   0  0  0  0  0  3  0  0  0  0  0  0
  -23.6780   -8.3110   22.0740 C   0  0  0  0  0  3  0  0  0  0  0  0
  -22.4870   -8.0770   21.3450 C   0  0  0  0  0  0  0  0  0  0  0  0
  -22.0530   -9.0380   20.4150 C   0  0  0  0  0  3  0  0  0  0  0  0
  -22.7760  -10.2270   20.2240 C   0  0  0  0  0  3  0  0  0  0  0  0
  -21.7340   -6.9320   21.4440 O   0  0  0  0  0  0  0  0  0  0  0  0
  -21.6830   -6.2030   22.6050 C   0  0  0  0  0  0  0  0  0  0  0  0
  -21.2310   -6.7660   23.8180 C   0  0  0  0  0  3  0  0  0  0  0  0
  -21.1260   -5.9630   24.9720 C   0  0  0  0  0  3  0  0  0  0  0  0
  -21.4660   -4.5990   24.9120 C   0  0  0  0  0  0  0  0  0  0  0  0
  -21.9100   -4.0350   23.7030 C   0  0  0  0  0  3  0  0  0  0  0  0
  -22.0150   -4.8350   22.5520 C   0  0  0  0  0  0  0  0  0  0  0  0
  -22.4250   -4.2820   21.3850 F   0  0  0  0  0  0  0  0  0  0  0  0
  -21.3580   -3.8250   26.0170 F   0  0  0  0  0  0  0  0  0  0  0  0
  -22.8370  -13.5730   21.2330 C   0  0  0  0  0  0  0  0  0  0  0  0
  -22.1590  -12.8520   22.1210 N   0  0  0  0  0  0  0  0  0  0  0  0
  -22.3770  -14.6170   20.7750 O   0  0  0  0  0  0  0  0  0  0  0  0
  -22.5480  -12.0060   22.5100 H   0  0  0  0  0  0  0  0  0  0  0  0
  -21.2410  -13.1530   22.4150 H   0  0  0  0  0  0  0  0  0  0  0  0
  -25.4150  -15.2530   20.3040 N   0  0  0  0  0  0  0  0  0  0  0  0
  -24.6700  -15.9060   20.5160 H   0  0  0  0  0  0  0  0  0  0  0  0
  -26.2560  -15.7130   19.9810 H   0  0  0  0  0  0  0  0  0  0  0  0
  -30.8240  -22.6670   19.3290 C   0  0  0  0  0  1  0  0  0  0  0  0
  -29.4960  -22.1660   19.6910 N   0  0  0  0  0  0  0  0  0  0  0  0
  -28.5840  -23.3240   20.2180 C   0  0  0  0  0  2  0  0  0  0  0  0
  -28.3960  -24.8050   19.4140 C   0  0  0  0  0  2  0  0  0  0  0  0
  -28.3370  -26.2440   19.9960 O   0  0  0  0  0  0  0  0  0  0  0  0
  -24.6440  -31.7830   23.0820 C   0  0  0  0  0  0  0  0  0  0  0  0
  -27.2430  -27.1750   19.9240 C   0  0  0  0  0  0  0  0  0  0  0  0
  -23.4390  -30.4130   21.4230 C   0  0  0  0  0  3  0  0  0  0  0  0
  -24.8880  -28.8830   19.9540 C   0  0  0  0  0  0  0  0  0  0  0  0
  -25.9870  -30.7110   21.2390 C   0  0  0  0  0  2  0  0  0  0  0  0
  -26.0670  -29.3350   20.5580 C   0  0  0  0  0  0  0  0  0  0  0  0
  -27.2390  -28.4950   20.5320 C   0  0  0  0  0  3  0  0  0  0  0  0
  -26.0310  -26.8160   19.2920 C   0  0  0  0  0  3  0  0  0  0  0  0
  -24.8810  -27.6350   19.3130 C   0  0  0  0  0  3  0  0  0  0  0  0
  -23.6540  -29.7670   20.0280 C   0  0  0  0  0  2  0  0  0  0  0  0
  -24.7100  -30.9890   21.9700 N   0  0  0  0  0  0  0  0  0  0  0  0
  -23.5600  -32.0450   23.6270 O   0  0  0  0  0  0  0  0  0  0  0  0
  -22.7810  -29.3790   22.3700 C   0  0  0  0  0  0  0  0  0  0  0  0
  -21.4530  -29.2040   22.2560 N   0  0  0  0  0  0  0  0  0  0  0  0
  -23.4670  -28.7420   23.1730 O   0  0  0  0  0  0  0  0  0  0  0  0
  -20.9570  -29.7770   21.5890 H   0  0  0  0  0  0  0  0  0  0  0  0
  -18.0820  -27.9800   22.7690 C   0  0  0  0  0  0  0  0  0  0  0  0
  -20.6430  -28.2460   23.0150 C   0  0  0  0  0  3  0  0  0  0  0  0
  -20.7420  -26.8260   22.4080 C   0  0  0  0  0  2  0  0  0  0  0  0
  -19.6300  -26.5220   21.3990 C   0  0  0  0  0  2  0  0  0  0  0  0
  -18.2550  -26.6460   22.0620 C   0  0  0  0  0  2  0  0  0  0  0  0
  -19.2030  -28.7370   23.2020 C   0  0  0  0  0  0  0  0  0  0  0  0
  -18.9870  -29.9830   23.8290 C   0  0  0  0  0  3  0  0  0  0  0  0
  -17.6820  -30.4730   24.0250 C   0  0  0  0  0  3  0  0  0  0  0  0
  -16.5760  -29.7130   23.6080 C   0  0  0  0  0  3  0  0  0  0  0  0
  -16.7760  -28.4700   22.9840 C   0  0  0  0  0  3  0  0  0  0  0  0
  -25.9230  -32.4170   23.7090 C   0  0  0  0  0  3  0  0  0  0  0  0
  -26.4550  -31.6220   24.9650 C   0  0  1  0  0  0  0  0  0  0  0  0
  -25.3720  -31.3550   26.0380 C   0  0  0  0  0  1  0  0  0  0  0  0
  -27.0480  -30.2580   24.5430 C   0  0  0  0  0  1  0  0  0  0  0  0
  -27.6030  -32.4120   25.6350 C   0  0  0  0  0  1  0  0  0  0  0  0
  -25.6010  -33.8040   24.0790 N   0  0  0  0  0  0  0  0  0  0  0  0
  -25.9210  -34.8840   23.3530 C   0  0  0  0  0  0  0  0  0  0  0  0
  -26.5850  -34.8160   22.3140 O   0  0  0  0  0  0  0  0  0  0  0  0
  -25.0110  -33.9290   24.8880 H   0  0  0  0  0  0  0  0  0  0  0  0
  -24.1810  -36.6790   23.0600 C   0  0  0  0  0  1  0  0  0  0  0  0
  -25.4270  -36.2560   23.8560 C   0  0  0  0  0  3  0  0  0  0  0  0
  -27.5570  -37.1310   24.7080 C   0  0  0  0  0  1  0  0  0  0  0  0
  -26.4520  -37.3190   23.7720 N   0  0  0  0  0  0  0  0  0  0  0  0
  -26.0400  -38.2320   23.9440 H   0  0  0  0  0  0  0  0  0  0  0  0
  1  2  2  0
  1  4  1  0
  2  5  1  0
  3  6  1  0
  4  3  2  0
  5 16  1  0
  5  6  2  0
  6  7  1  0
  8 16  1  0
  9 14  1  0
 10 11  1  0
 10  9  1  0
 12 11  1  0
 12 21  1  0
 12 13  1  0
 14  8  1  0
 14 13  1  0
 15  8  2  0
 16 17  1  0
 18 19  2  0
 19 38  1  0
 20 19  1  0
 20 23  1  0
 21 22  1  0
 21 18  1  0
 22 20  2  0
 23 24  1  0
 24 25  2  0
 26 29  1  0
 26 25  1  0
 27 26  2  0
 28 27  1  0
 28 23  2  0
 29 30  1  0
 30 31  1  0
 31 32  2  0
 33 32  1  0
 33 37  1  0
 34 33  2  0
 35 30  2  0
 35 34  1  0
 36 35  1  0
 38 39  1  0
 39 42  1  0
 39 41  1  0
 40 38  2  0
 43 18  1  0
 43 44  1  0
 45 43  1  0
 46 47  1  0
 47  4  1  0
 47 48  1  0
 49 50  1  0
 49 48  1  0
 51 62  2  0
 52 50  1  0
 52 57  1  0
 53 61  1  0
 53 63  1  0
 54 60  1  0
 54 56  1  0
 55 61  1  0
 56 55  1  0
 57 56  2  0
 58 59  1  0
 58 52  2  0
 59 54  2  0
 60 53  1  0
 61 51  1  0
 63 65  2  0
 64 63  1  0
 66 64  1  0
 67 76  2  0
 67 72  1  0
 68 64  1  0
 68 72  1  0
 69 68  1  0
 70 71  1  0
 70 69  1  0
 71 67  1  0
 72 73  2  0
 73 74  1  0
 75 74  2  0
 76 75  1  0
 77 51  1  0
 77 82  1  0
 77 78  1  0
 78 81  1  1
 78 79  1  0
 80 78  1  0
 82 85  1  0
 83 87  1  0
 83 82  1  0
 84 83  2  0
 87 86  1  0
 89 87  1  0
 89 90  1  0
 89 88  1  0
M  ISO  4   8 100  16 100  49 101  50 101
M  END
>  <TORSDO>  (6) 
F 19

>  <SCORE>  (6) 
-14.999

>  <name>  (6) 
5

>  <ligand_id>  (6) 
5

>  <original_smiles>  (6) 
[H]c1c([H])c([H])c2c(c1[H])C([H])([H])C([H])([H])C([H])([H])C2([H])N([H])C(=O)C1([H])N(C(=O)C([H])(N([H])C(=O)C([H])(N([H])C([H])([H])[H])C([H])([H])[H])C(C([H])([H])[H])(C([H])([H])[H])C([H])([H])[H])C([H])([H])c2c([H])c(OC([H])([H])C([H])([H])N(c3c([H])c([H])c(N([H])C(=O)N4C([H])([H])C([H])([H])C([H])([H])C([H])(n5nc(-c6c([H])c([H])c(Oc7c([H])c([H])c(F)c([H])c7F)c([H])c6[H])c(C(=O)N([H])[H])c5N([H])[H])C4([H])[H])c(F)c3[H])C([H])([H])[H])c([H])c([H])c2C1([H])[H]

>  <smiles>  (6) 
[H]c1c([H])c([H])c2c(c1[H])C([H])([H])C([H])([H])C([H])([H])C2([H])N([H])C(=O)C1([H])N(C(=O)C([H])(N([H])C(=O)C([H])(N([H])C([H])([H])[H])C([H])([H])[H])C(C([H])([H])[H])(C([H])([H])[H])C([H])([H])[H])C([H])([H])c2c([H])c(OC([H])([H])C([H])([H])N(c3c([H])c([H])c(N([H])C(=O)N4C([H])([H])C([H])([H])C([H])([H])C([H])(n5nc(-c6c([H])c([H])c(Oc7c([H])c([H])c(F)c([H])c7F)c([H])c6[H])c(C(=O)N([H])[H])c5N([H])[H])C4([H])[H])c(F)c3[H])C([H])([H])[H])c([H])c([H])c2C1([H])[H]

$$$$
6:0:0
     RDKit          3D

 91 99  0  0  1  0  0  0  0  0999 V2000
  -30.1170  -20.4410   19.5210 C   0  0  0  0  0  2  0  0  0  0  0  0
  -30.6830  -17.9900   19.6260 C   0  0  0  0  0  0  0  0  0  0  0  0
  -28.4820  -17.4360   21.3330 C   0  0  0  0  0  2  0  0  0  0  0  0
  -28.6850  -16.4400   20.2010 C   0  0  0  0  0  2  0  0  0  0  0  0
  -28.6510  -18.8530   20.7820 C   0  0  0  0  0  2  0  0  0  0  0  0
  -30.0730  -16.5410   19.5200 C   0  0  0  0  0  3  0  0  0  0  0  0
  -29.9150  -19.0510   20.0530 N   0  0  0  0  0  0  0  0  0  0  0  0
  -31.8240  -18.1600   19.1890 O   0  0  0  0  0  0  0  0  0  0  0  0
  -31.3440  -14.3690   19.2080 C   0  0  0  0  0  0  0  0  0  0  0  0
  -30.8900  -12.1200   18.2670 C   0  0  0  0  0  2  0  0  0  0  0  0
  -29.8130  -12.2590   17.1670 C   0  0  0  0  0  2  0  0  0  0  0  0
  -28.3960  -12.1930   17.7670 C   0  0  0  0  0  2  0  0  0  0  0  0
  -28.2310  -13.1230   18.9980 C   0  0  0  0  0  3  0  0  0  0  0  0
  -29.4060  -12.9400   19.9910 C   0  0  0  0  0  2  0  0  0  0  0  0
  -30.6710  -13.1780   19.2700 N   0  0  0  0  0  0  0  0  0  0  0  0
  -32.3160  -14.5420   18.4690 O   0  0  0  0  0  0  0  0  0  0  0  0
  -30.8570  -15.3620   19.9840 N   0  0  0  0  0  0  0  0  0  0  0  0
  -30.4650  -14.9890   20.8340 H   0  0  0  0  0  0  0  0  0  0  0  0
  -25.9950  -13.8800   20.0290 C   0  0  0  0  0  0  0  0  0  0  0  0
  -24.9300  -13.1790   20.5300 C   0  0  0  0  0  0  0  0  0  0  0  0
  -25.2760  -11.7990   20.4050 C   0  0  0  0  0  0  0  0  0  0  0  0
  -26.9330  -12.9320   19.6460 N   0  0  0  0  0  0  0  0  0  0  0  0
  -26.5100  -11.6730   19.9250 N   0  0  0  0  0  0  0  0  0  0  0  0
  -24.4860  -10.5900   20.6650 C   0  0  0  0  0  0  0  0  0  0  0  0
  -24.8820   -9.6430   21.6350 C   0  0  0  0  0  3  0  0  0  0  0  0
  -24.0940   -8.4970   21.8800 C   0  0  0  0  0  3  0  0  0  0  0  0
  -22.8950   -8.2920   21.1570 C   0  0  0  0  0  0  0  0  0  0  0  0
  -22.5170   -9.2270   20.1770 C   0  0  0  0  0  3  0  0  0  0  0  0
  -23.3040  -10.3640   19.9310 C   0  0  0  0  0  3  0  0  0  0  0  0
  -22.0810   -7.1950   21.3090 O   0  0  0  0  0  0  0  0  0  0  0  0
  -21.8970   -6.6000   22.5320 C   0  0  0  0  0  0  0  0  0  0  0  0
  -21.3800   -7.3130   23.6360 C   0  0  0  0  0  3  0  0  0  0  0  0
  -21.1410   -6.6450   24.8540 C   0  0  0  0  0  3  0  0  0  0  0  0
  -21.4070   -5.2670   24.9680 C   0  0  0  0  0  0  0  0  0  0  0  0
  -21.9180   -4.5560   23.8670 C   0  0  0  0  0  3  0  0  0  0  0  0
  -22.1590   -5.2200   22.6520 C   0  0  0  0  0  0  0  0  0  0  0  0
  -22.6300   -4.5260   21.5880 F   0  0  0  0  0  0  0  0  0  0  0  0
  -21.1710   -4.6240   26.1350 F   0  0  0  0  0  0  0  0  0  0  0  0
  -23.6250  -13.7520   21.0020 C   0  0  0  0  0  0  0  0  0  0  0  0
  -22.9880  -13.1060   21.9720 N   0  0  0  0  0  0  0  0  0  0  0  0
  -23.1860  -14.8060   20.5430 O   0  0  0  0  0  0  0  0  0  0  0  0
  -23.3580  -12.2540   22.3650 H   0  0  0  0  0  0  0  0  0  0  0  0
  -22.1170  -13.4720   22.3300 H   0  0  0  0  0  0  0  0  0  0  0  0
  -26.2290  -15.2370   19.8470 N   0  0  0  0  0  0  0  0  0  0  0  0
  -25.5240  -15.9360   20.0540 H   0  0  0  0  0  0  0  0  0  0  0  0
  -27.0390  -15.6160   19.3770 H   0  0  0  0  0  0  0  0  0  0  0  0
  -29.9250  -21.6880   20.4650 C   0  0  0  0  0  2  0  0  0  0  0  0
  -29.4360  -22.8320   19.7320 O   0  0  0  0  0  0  0  0  0  0  0  0
  -29.4200  -24.0920   20.4400 C   0  0  0  0  0  2  0  0  0  0  0  0
  -28.4110  -25.0960   19.8050 C   0  0  0  0  0  2  0  0  0  0  0  0
  -28.5350  -26.4870   20.2140 O   0  0  0  0  0  0  0  0  0  0  0  0
  -24.7800  -31.7540   23.2630 C   0  0  0  0  0  0  0  0  0  0  0  0
  -27.3920  -27.2800   20.1590 C   0  0  0  0  0  0  0  0  0  0  0  0
  -23.5750  -30.3870   21.5940 C   0  0  0  0  0  3  0  0  0  0  0  0
  -25.0230  -28.8540   20.1560 C   0  0  0  0  0  0  0  0  0  0  0  0
  -26.1090  -30.7090   21.4240 C   0  0  0  0  0  2  0  0  0  0  0  0
  -26.1850  -29.3410   20.7690 C   0  0  0  0  0  0  0  0  0  0  0  0
  -27.3690  -28.5600   20.7710 C   0  0  0  0  0  3  0  0  0  0  0  0
  -26.2100  -26.8360   19.5160 C   0  0  0  0  0  3  0  0  0  0  0  0
  -25.0330  -27.6030   19.5260 C   0  0  0  0  0  3  0  0  0  0  0  0
  -23.7900  -29.7280   20.2060 C   0  0  0  0  0  2  0  0  0  0  0  0
  -24.8410  -30.9650   22.1520 N   0  0  0  0  0  0  0  0  0  0  0  0
  -23.6950  -32.0330   23.7940 O   0  0  0  0  0  0  0  0  0  0  0  0
  -22.9020  -29.3600   22.5340 C   0  0  0  0  0  0  0  0  0  0  0  0
  -21.5830  -29.1720   22.3700 N   0  0  0  0  0  0  0  0  0  0  0  0
  -23.5650  -28.7380   23.3670 O   0  0  0  0  0  0  0  0  0  0  0  0
  -21.1060  -29.7280   21.6740 H   0  0  0  0  0  0  0  0  0  0  0  0
  -18.2010  -27.9580   22.7780 C   0  0  0  0  0  0  0  0  0  0  0  0
  -20.7500  -28.2280   23.1180 C   0  0  0  0  0  3  0  0  0  0  0  0
  -20.8740  -26.7980   22.5420 C   0  0  0  0  0  2  0  0  0  0  0  0
  -19.8000  -26.4730   21.4990 C   0  0  0  0  0  2  0  0  0  0  0  0
  -18.4020  -26.6120   22.1060 C   0  0  0  0  0  2  0  0  0  0  0  0
  -19.3050  -28.7240   23.2390 C   0  0  0  0  0  0  0  0  0  0  0  0
  -19.0640  -29.9860   23.8250 C   0  0  0  0  0  3  0  0  0  0  0  0
  -17.7530  -30.4830   23.9530 C   0  0  0  0  0  3  0  0  0  0  0  0
  -16.6640  -29.7150   23.5070 C   0  0  0  0  0  3  0  0  0  0  0  0
  -16.8890  -28.4530   22.9270 C   0  0  0  0  0  3  0  0  0  0  0  0
  -26.0660  -32.3640   23.9020 C   0  0  0  0  0  3  0  0  0  0  0  0
  -25.7680  -33.7600   24.2490 N   0  0  0  0  0  0  0  0  0  0  0  0
  -26.1090  -34.8200   23.5030 C   0  0  0  0  0  0  0  0  0  0  0  0
  -26.7800  -34.7240   22.4710 O   0  0  0  0  0  0  0  0  0  0  0  0
  -25.1770  -33.9080   25.0540 H   0  0  0  0  0  0  0  0  0  0  0  0
  -24.3920  -36.6250   23.1690 C   0  0  0  0  0  1  0  0  0  0  0  0
  -25.6310  -36.2060   23.9750 C   0  0  0  0  0  3  0  0  0  0  0  0
  -27.7700  -37.0690   24.8180 C   0  0  0  0  0  1  0  0  0  0  0  0
  -26.6710  -37.2530   23.8730 N   0  0  0  0  0  0  0  0  0  0  0  0
  -26.2710  -38.1740   24.0260 H   0  0  0  0  0  0  0  0  0  0  0  0
  -26.5660  -31.5690   25.1700 C   0  0  1  0  0  0  0  0  0  0  0  0
  -25.4570  -31.3050   26.2150 C   0  0  0  0  0  1  0  0  0  0  0  0
  -27.1580  -30.2020   24.7510 C   0  0  0  0  0  1  0  0  0  0  0  0
  -27.7020  -32.3530   25.8650 C   0  0  0  0  0  1  0  0  0  0  0  0
  1  7  1  0
  1 47  1  0
  2  7  1  0
  4  3  1  0
  5  3  1  0
  6  2  1  0
  6 17  1  0
  6  4  1  0
  7  5  1  0
  8  2  2  0
  9 15  1  0
  9 17  1  0
 10 15  1  0
 11 12  1  0
 11 10  1  0
 13 12  1  0
 13 22  1  0
 13 14  1  0
 15 14  1  0
 16  9  2  0
 17 18  1  0
 19 20  2  0
 20 39  1  0
 21 20  1  0
 21 24  1  0
 22 23  1  0
 22 19  1  0
 23 21  2  0
 24 25  1  0
 25 26  2  0
 27 30  1  0
 27 26  1  0
 28 27  2  0
 29 28  1  0
 29 24  2  0
 30 31  1  0
 31 36  2  0
 31 32  1  0
 32 33  2  0
 33 34  1  0
 34 38  1  0
 35 34  2  0
 36 35  1  0
 37 36  1  0
 39 40  1  0
 40 43  1  0
 40 42  1  0
 41 39  2  0
 44 19  1  0
 44 45  1  0
 46 44  1  0
 48 49  1  0
 48 47  1  0
 50 51  1  0
 50 49  1  0
 52 63  2  0
 53 51  1  0
 53 58  1  0
 54 62  1  0
 54 64  1  0
 55 61  1  0
 55 57  1  0
 56 62  1  0
 57 58  2  0
 57 56  1  0
 59 60  1  0
 59 53  2  0
 60 55  2  0
 61 54  1  0
 62 52  1  0
 64 66  2  0
 65 64  1  0
 67 65  1  0
 68 77  2  0
 68 73  1  0
 69 65  1  0
 69 73  1  0
 70 69  1  0
 71 72  1  0
 71 70  1  0
 72 68  1  0
 73 74  2  0
 74 75  1  0
 76 75  2  0
 77 76  1  0
 78 52  1  0
 78 79  1  0
 78 88  1  0
 79 82  1  0
 80 84  1  0
 80 79  1  0
 81 80  2  0
 84 83  1  0
 86 84  1  0
 86 87  1  0
 86 85  1  0
 88 91  1  1
 88 89  1  0
 90 88  1  0
M  ISO  4   9 100  17 100  50 101  51 101
M  END
>  <TORSDO>  (7) 
F 21

>  <SCORE>  (7) 
-10.745

>  <name>  (7) 
6

>  <ligand_id>  (7) 
6

>  <original_smiles>  (7) 
[H]c1c([H])c([H])c2c(c1[H])C([H])([H])C([H])([H])C([H])([H])C2([H])N([H])C(=O)C1([H])N(C(=O)C([H])(N([H])C(=O)C([H])(N([H])C([H])([H])[H])C([H])([H])[H])C(C([H])([H])[H])(C([H])([H])[H])C([H])([H])[H])C([H])([H])c2c([H])c(OC([H])([H])C([H])([H])OC([H])([H])C([H])([H])N3C(=O)C([H])(N([H])C(=O)N4C([H])([H])C([H])([H])C([H])([H])C([H])(n5nc(-c6c([H])c([H])c(Oc7c([H])c([H])c(F)c([H])c7F)c([H])c6[H])c(C(=O)N([H])[H])c5N([H])[H])C4([H])[H])C([H])([H])C([H])([H])C3([H])[H])c([H])c([H])c2C1([H])[H]

>  <smiles>  (7) 
[H]c1c([H])c([H])c2c(c1[H])C([H])([H])C([H])([H])C([H])([H])C2([H])N([H])C(=O)C1([H])N(C(=O)C([H])(N([H])C(=O)C([H])(N([H])C([H])([H])[H])C([H])([H])[H])C(C([H])([H])[H])(C([H])([H])[H])C([H])([H])[H])C([H])([H])c2c([H])c(OC([H])([H])C([H])([H])OC([H])([H])C([H])([H])N3C(=O)C([H])(N([H])C(=O)N4C([H])([H])C([H])([H])C([H])([H])C([H])(n5nc(-c6c([H])c([H])c(Oc7c([H])c([H])c(F)c([H])c7F)c([H])c6[H])c(C(=O)N([H])[H])c5N([H])[H])C4([H])[H])C([H])([H])C([H])([H])C3([H])[H])c([H])c([H])c2C1([H])[H]

$$$$
7:0:0
     RDKit          3D

 92100  0  0  1  0  0  0  0  0999 V2000
  -28.7360  -21.0240   19.9680 C   0  0  0  0  0  3  0  0  0  0  0  0
  -29.4850  -18.5710   20.5780 C   0  0  0  0  0  0  0  0  0  0  0  0
  -30.7040  -17.9270   18.6370 C   0  0  0  0  0  2  0  0  0  0  0  0
  -30.3060  -19.4370   18.6150 C   0  0  0  0  0  2  0  0  0  0  0  0
  -30.4110  -17.4100   20.0570 C   0  0  0  0  0  3  0  0  0  0  0  0
  -29.5470  -19.7270   19.8310 N   0  0  0  0  0  0  0  0  0  0  0  0
  -28.7890  -18.4220   21.5880 O   0  0  0  0  0  0  0  0  0  0  0  0
  -30.7750  -14.7980   19.9680 C   0  0  0  0  0  0  0  0  0  0  0  0
  -30.5430  -12.5340   18.9500 C   0  0  0  0  0  2  0  0  0  0  0  0
  -29.5310  -12.6010   17.7860 C   0  0  0  0  0  2  0  0  0  0  0  0
  -28.0900  -12.4120   18.2950 C   0  0  0  0  0  2  0  0  0  0  0  0
  -27.7740  -13.2800   19.5430 C   0  0  0  0  0  3  0  0  0  0  0  0
  -28.8970  -13.2010   20.5990 C   0  0  0  0  0  2  0  0  0  0  0  0
  -30.1480  -13.5730   19.9280 N   0  0  0  0  0  0  0  0  0  0  0  0
  -31.9570  -14.8960   19.6250 O   0  0  0  0  0  0  0  0  0  0  0  0
  -30.0040  -15.9340   20.1570 N   0  0  0  0  0  0  0  0  0  0  0  0
  -29.0300  -15.7740   20.3590 H   0  0  0  0  0  0  0  0  0  0  0  0
  -25.4340  -13.8360   20.4370 C   0  0  0  0  0  0  0  0  0  0  0  0
  -24.3950  -13.0490   20.8510 C   0  0  0  0  0  0  0  0  0  0  0  0
  -24.8610  -11.7010   20.7510 C   0  0  0  0  0  0  0  0  0  0  0  0
  -26.4640  -12.9710   20.1090 N   0  0  0  0  0  0  0  0  0  0  0  0
  -26.1290  -11.6770   20.3600 N   0  0  0  0  0  0  0  0  0  0  0  0
  -24.1490  -10.4300   20.9500 C   0  0  0  0  0  0  0  0  0  0  0  0
  -24.5990   -9.4720   21.8860 C   0  0  0  0  0  3  0  0  0  0  0  0
  -23.8910   -8.2640   22.0690 C   0  0  0  0  0  3  0  0  0  0  0  0
  -22.7210   -8.0030   21.3180 C   0  0  0  0  0  0  0  0  0  0  0  0
  -22.2910   -8.9510   20.3730 C   0  0  0  0  0  3  0  0  0  0  0  0
  -22.9970  -10.1520   20.1860 C   0  0  0  0  0  3  0  0  0  0  0  0
  -21.9830   -6.8470   21.4120 O   0  0  0  0  0  0  0  0  0  0  0  0
  -21.8930   -6.1450   22.5890 C   0  0  0  0  0  0  0  0  0  0  0  0
  -21.3680   -6.7260   23.7630 C   0  0  0  0  0  3  0  0  0  0  0  0
  -21.2280   -5.9490   24.9300 C   0  0  0  0  0  3  0  0  0  0  0  0
  -21.6000   -4.5910   24.9210 C   0  0  0  0  0  0  0  0  0  0  0  0
  -22.1200   -4.0100   23.7510 C   0  0  0  0  0  3  0  0  0  0  0  0
  -22.2650   -4.7860   22.5880 C   0  0  0  0  0  0  0  0  0  0  0  0
  -22.7450   -4.2170   21.4540 F   0  0  0  0  0  0  0  0  0  0  0  0
  -21.4600   -3.8410   26.0400 F   0  0  0  0  0  0  0  0  0  0  0  0
  -23.0130  -13.5130   21.2150 C   0  0  0  0  0  0  0  0  0  0  0  0
  -22.3350  -12.7860   22.0980 N   0  0  0  0  0  0  0  0  0  0  0  0
  -22.5460  -14.5540   20.7560 O   0  0  0  0  0  0  0  0  0  0  0  0
  -22.7220  -11.9450   22.4970 H   0  0  0  0  0  0  0  0  0  0  0  0
  -21.4080  -13.0790   22.3790 H   0  0  0  0  0  0  0  0  0  0  0  0
  -25.5780  -15.2120   20.2880 N   0  0  0  0  0  0  0  0  0  0  0  0
  -24.8080  -15.8470   20.4670 H   0  0  0  0  0  0  0  0  0  0  0  0
  -26.3680  -15.6710   19.8580 H   0  0  0  0  0  0  0  0  0  0  0  0
  -27.5730  -20.9710   18.9490 C   0  0  0  0  0  3  0  0  0  0  0  0
  -26.6840  -21.9340   19.1710 F   0  0  0  0  0  0  0  0  0  0  0  0
  -26.9390  -19.8000   18.9850 F   0  0  0  0  0  0  0  0  0  0  0  0
  -29.4510  -22.4760   19.8470 C   0  0  0  0  0  2  0  0  0  0  0  0
  -28.6920  -23.8030   20.4080 C   0  0  0  0  0  2  0  0  0  0  0  0
  -28.6790  -25.1950   19.5920 C   0  0  0  0  0  2  0  0  0  0  0  0
  -28.4560  -26.5060   20.2770 O   0  0  0  0  0  0  0  0  0  0  0  0
  -24.6150  -31.8620   23.2470 C   0  0  0  0  0  0  0  0  0  0  0  0
  -27.2940  -27.3090   20.1980 C   0  0  0  0  0  0  0  0  0  0  0  0
  -23.4270  -30.4470   21.6040 C   0  0  0  0  0  3  0  0  0  0  0  0
  -24.9000  -28.9010   20.1830 C   0  0  0  0  0  0  0  0  0  0  0  0
  -25.9600  -30.7870   21.4270 C   0  0  0  0  0  2  0  0  0  0  0  0
  -26.0590  -29.4030   20.7850 C   0  0  0  0  0  0  0  0  0  0  0  0
  -27.2520  -28.6160   20.7850 C   0  0  0  0  0  3  0  0  0  0  0  0
  -26.1080  -26.8570   19.5800 C   0  0  0  0  0  3  0  0  0  0  0  0
  -24.9290  -27.6360   19.5700 C   0  0  0  0  0  3  0  0  0  0  0  0
  -23.6460  -29.7520   20.2310 C   0  0  0  0  0  2  0  0  0  0  0  0
  -24.6860  -31.0530   22.1520 N   0  0  0  0  0  0  0  0  0  0  0  0
  -23.5280  -32.1350   23.7790 O   0  0  0  0  0  0  0  0  0  0  0  0
  -22.7640  -29.4380   22.5700 C   0  0  0  0  0  0  0  0  0  0  0  0
  -21.4360  -29.2660   22.4460 N   0  0  0  0  0  0  0  0  0  0  0  0
  -23.4440  -28.8060   23.3820 O   0  0  0  0  0  0  0  0  0  0  0  0
  -20.9460  -29.8320   21.7670 H   0  0  0  0  0  0  0  0  0  0  0  0
  -18.0540  -28.0900   22.9440 C   0  0  0  0  0  0  0  0  0  0  0  0
  -20.6140  -28.3270   23.2090 C   0  0  0  0  0  3  0  0  0  0  0  0
  -20.7040  -26.9000   22.6190 C   0  0  0  0  0  2  0  0  0  0  0  0
  -19.5960  -26.5960   21.6050 C   0  0  0  0  0  2  0  0  0  0  0  0
  -18.2180  -26.7440   22.2580 C   0  0  0  0  0  2  0  0  0  0  0  0
  -19.1790  -28.8400   23.3750 C   0  0  0  0  0  0  0  0  0  0  0  0
  -18.9710  -30.1010   23.9770 C   0  0  0  0  0  3  0  0  0  0  0  0
  -17.6690  -30.6080   24.1540 C   0  0  0  0  0  3  0  0  0  0  0  0
  -16.5580  -29.8510   23.7410 C   0  0  0  0  0  3  0  0  0  0  0  0
  -16.7510  -28.5950   23.1390 C   0  0  0  0  0  3  0  0  0  0  0  0
  -25.8910  -32.5060   23.8770 C   0  0  0  0  0  3  0  0  0  0  0  0
  -25.5780  -33.9070   24.1910 N   0  0  0  0  0  0  0  0  0  0  0  0
  -25.9120  -34.9540   23.4240 C   0  0  0  0  0  0  0  0  0  0  0  0
  -26.5870  -34.8430   22.3960 O   0  0  0  0  0  0  0  0  0  0  0  0
  -24.9870  -34.0690   24.9940 H   0  0  0  0  0  0  0  0  0  0  0  0
  -24.1900  -36.7460   23.0380 C   0  0  0  0  0  1  0  0  0  0  0  0
  -25.4210  -36.3450   23.8670 C   0  0  0  0  0  3  0  0  0  0  0  0
  -27.5460  -37.2390   24.7160 C   0  0  0  0  0  1  0  0  0  0  0  0
  -26.4540  -37.3990   23.7580 N   0  0  0  0  0  0  0  0  0  0  0  0
  -26.0430  -38.3180   23.8970 H   0  0  0  0  0  0  0  0  0  0  0  0
  -26.3930  -31.7510   25.1680 C   0  0  1  0  0  0  0  0  0  0  0  0
  -25.2900  -31.5280   26.2280 C   0  0  0  0  0  1  0  0  0  0  0  0
  -26.9800  -30.3690   24.7990 C   0  0  0  0  0  1  0  0  0  0  0  0
  -27.5310  -32.5560   25.8400 C   0  0  0  0  0  1  0  0  0  0  0  0
  1 49  1  0
  2  7  2  0
  3  5  1  0
  4  3  1  0
  4  6  1  0
  5 16  1  0
  5  2  1  0
  6  1  1  0
  6  2  1  0
  8 16  1  0
  9 14  1  0
 10 11  1  0
 10  9  1  0
 12 11  1  0
 12 21  1  0
 12 13  1  0
 14  8  1  0
 14 13  1  0
 15  8  2  0
 16 17  1  0
 18 19  2  0
 19 38  1  0
 20 19  1  0
 20 23  1  0
 21 22  1  0
 21 18  1  0
 22 20  2  0
 23 24  1  0
 24 25  2  0
 26 29  1  0
 26 25  1  0
 27 26  2  0
 28 27  1  0
 28 23  2  0
 29 30  1  0
 30 31  1  0
 31 32  2  0
 33 32  1  0
 33 37  1  0
 34 33  2  0
 35 30  2  0
 35 34  1  0
 36 35  1  0
 38 39  1  0
 39 42  1  0
 39 41  1  0
 40 38  2  0
 43 18  1  0
 43 44  1  0
 45 43  1  0
 46 48  1  0
 46 47  1  0
 46  1  1  0
 49 50  1  0
 51 52  1  0
 51 50  1  0
 53 64  2  0
 54 52  1  0
 54 59  1  0
 55 63  1  0
 55 65  1  0
 56 62  1  0
 56 58  1  0
 57 63  1  0
 58 57  1  0
 59 58  2  0
 60 54  2  0
 61 60  1  0
 61 56  2  0
 62 55  1  0
 63 53  1  0
 65 67  2  0
 66 65  1  0
 68 66  1  0
 69 78  2  0
 69 74  1  0
 70 66  1  0
 70 74  1  0
 71 70  1  0
 72 73  1  0
 72 71  1  0
 73 69  1  0
 74 75  2  0
 75 76  1  0
 77 76  2  0
 78 77  1  0
 79 53  1  0
 79 80  1  0
 79 89  1  0
 80 83  1  0
 81 85  1  0
 81 80  1  0
 82 81  2  0
 85 84  1  0
 87 85  1  0
 87 88  1  0
 87 86  1  0
 89 92  1  1
 89 90  1  0
 91 89  1  0
M  ISO  4   8 100  16 100  51 101  52 101
M  END
>  <TORSDO>  (8) 
F 21

>  <SCORE>  (8) 
-12.777

>  <name>  (8) 
7

>  <ligand_id>  (8) 
7

>  <original_smiles>  (8) 
[H]c1c([H])c([H])c2c(c1[H])C([H])([H])C([H])([H])C([H])([H])C2([H])N([H])C(=O)C1([H])N(C(=O)C([H])(N([H])C(=O)C([H])(N([H])C([H])([H])[H])C([H])([H])[H])C(C([H])([H])[H])(C([H])([H])[H])C([H])([H])[H])C([H])([H])c2c([H])c(OC([H])([H])C([H])([H])C([H])([H])C([H])(N3C(=O)C([H])(N([H])C(=O)N4C([H])([H])C([H])([H])C([H])([H])C([H])(n5nc(-c6c([H])c([H])c(Oc7c([H])c([H])c(F)c([H])c7F)c([H])c6[H])c(C(=O)N([H])[H])c5N([H])[H])C4([H])[H])C([H])([H])C3([H])[H])C([H])(F)F)c([H])c([H])c2C1([H])[H]

>  <smiles>  (8) 
[H]c1c([H])c([H])c2c(c1[H])C([H])([H])C([H])([H])C([H])([H])C2([H])N([H])C(=O)C1([H])N(C(=O)C([H])(N([H])C(=O)C([H])(N([H])C([H])([H])[H])C([H])([H])[H])C(C([H])([H])[H])(C([H])([H])[H])C([H])([H])[H])C([H])([H])c2c([H])c(OC([H])([H])C([H])([H])C([H])([H])C([H])(N3C(=O)C([H])(N([H])C(=O)N4C([H])([H])C([H])([H])C([H])([H])C([H])(n5nc(-c6c([H])c([H])c(Oc7c([H])c([H])c(F)c([H])c7F)c([H])c6[H])c(C(=O)N([H])[H])c5N([H])[H])C4([H])[H])C([H])([H])C3([H])[H])C([H])(F)F)c([H])c([H])c2C1([H])[H]

$$$$
8:0:0
     RDKit          3D

 92101  0  0  1  0  0  0  0  0999 V2000
  -31.7340  -19.5910   19.7120 C   0  0  0  0  0  2  0  0  0  0  0  0
  -30.0190  -21.5160   19.0220 C   0  0  0  0  0  2  0  0  0  0  0  0
  -28.9610  -20.4730   20.8110 C   0  0  0  0  0  2  0  0  0  0  0  0
  -30.3720  -19.9680   19.0490 C   0  0  0  0  0  3  0  0  0  0  0  0
  -29.3500  -19.1620   19.8770 C   0  0  0  0  0  3  0  0  0  0  0  0
  -30.2440  -17.7440   20.1360 C   0  0  0  0  0  3  0  0  0  0  0  0
  -31.6110  -18.2530   20.3660 N   0  0  0  0  0  4  0  0  0  0  0  0
  -28.9130  -21.7980   19.9810 N   0  0  1  0  0  4  0  0  0  0  0  0
  -31.7960  -18.3460   21.3540 H   0  0  0  0  0  0  0  0  0  0  0  0
  -32.2900  -17.6170   19.9810 H   0  0  0  0  0  0  0  0  0  0  0  0
  -28.0620  -21.7090   19.4430 H   0  0  0  0  0  0  0  0  0  0  0  0
  -30.5380  -15.0060   20.3230 C   0  0  0  0  0  0  0  0  0  0  0  0
  -30.3900  -12.6470   19.4030 C   0  0  0  0  0  2  0  0  0  0  0  0
  -29.4760  -12.5890   18.1570 C   0  0  0  0  0  2  0  0  0  0  0  0
  -28.0070  -12.3800   18.5740 C   0  0  0  0  0  2  0  0  0  0  0  0
  -27.5830  -13.3160   19.7380 C   0  0  0  0  0  3  0  0  0  0  0  0
  -28.6290  -13.3540   20.8750 C   0  0  0  0  0  2  0  0  0  0  0  0
  -29.9090  -13.7590   20.2780 N   0  0  0  0  0  0  0  0  0  0  0  0
  -31.7400  -15.0370   20.0400 O   0  0  0  0  0  0  0  0  0  0  0  0
  -29.8230  -16.2370   20.4590 N   0  0  0  0  0  0  0  0  0  0  0  0
  -28.8470  -16.1200   20.6830 H   0  0  0  0  0  0  0  0  0  0  0  0
  -25.1890  -13.8870   20.4340 C   0  0  0  0  0  0  0  0  0  0  0  0
  -24.1240  -13.1120   20.8010 C   0  0  0  0  0  0  0  0  0  0  0  0
  -24.5970  -11.7640   20.7970 C   0  0  0  0  0  0  0  0  0  0  0  0
  -26.2410  -13.0130   20.2250 N   0  0  0  0  0  0  0  0  0  0  0  0
  -25.8930  -11.7310   20.5090 N   0  0  0  0  0  0  0  0  0  0  0  0
  -23.8730  -10.5010   20.9920 C   0  0  0  0  0  0  0  0  0  0  0  0
  -24.2940   -9.5470   21.9450 C   0  0  0  0  0  3  0  0  0  0  0  0
  -23.5690   -8.3490   22.1270 C   0  0  0  0  0  3  0  0  0  0  0  0
  -22.4080   -8.0950   21.3580 C   0  0  0  0  0  0  0  0  0  0  0  0
  -22.0060   -9.0390   20.3960 C   0  0  0  0  0  3  0  0  0  0  0  0
  -22.7320  -10.2280   20.2110 C   0  0  0  0  0  3  0  0  0  0  0  0
  -21.6550   -6.9490   21.4520 O   0  0  0  0  0  0  0  0  0  0  0  0
  -21.5940   -6.2210   22.6120 C   0  0  0  0  0  0  0  0  0  0  0  0
  -21.1510   -6.7890   23.8280 C   0  0  0  0  0  3  0  0  0  0  0  0
  -21.0380   -5.9860   24.9800 C   0  0  0  0  0  3  0  0  0  0  0  0
  -21.3540   -4.6150   24.9190 C   0  0  0  0  0  0  0  0  0  0  0  0
  -21.7890   -4.0460   23.7090 C   0  0  0  0  0  3  0  0  0  0  0  0
  -21.9050   -4.8470   22.5590 C   0  0  0  0  0  0  0  0  0  0  0  0
  -22.3040   -4.2900   21.3900 F   0  0  0  0  0  0  0  0  0  0  0  0
  -21.2390   -3.8420   26.0230 F   0  0  0  0  0  0  0  0  0  0  0  0
  -22.7200  -13.5860   21.0360 C   0  0  0  0  0  0  0  0  0  0  0  0
  -21.9770  -12.9010   21.8990 N   0  0  0  0  0  0  0  0  0  0  0  0
  -22.2900  -14.6040   20.4940 O   0  0  0  0  0  0  0  0  0  0  0  0
  -22.3350  -12.0800   22.3640 H   0  0  0  0  0  0  0  0  0  0  0  0
  -21.0320  -13.2000   22.0940 H   0  0  0  0  0  0  0  0  0  0  0  0
  -25.3470  -15.2560   20.2360 N   0  0  0  0  0  0  0  0  0  0  0  0
  -24.5670  -15.9000   20.3170 H   0  0  0  0  0  0  0  0  0  0  0  0
  -26.1820  -15.6890   19.8650 H   0  0  0  0  0  0  0  0  0  0  0  0
  -28.8680  -23.2800   20.6030 C   0  0  0  0  0  3  0  0  0  0  0  0
  -28.1560  -24.6400   19.8630 C   0  0  0  0  0  3  0  0  0  0  0  0
  -28.2620  -26.1580   20.2730 O   0  0  0  0  0  0  0  0  0  0  0  0
  -24.6250  -31.8680   23.2300 C   0  0  0  0  0  0  0  0  0  0  0  0
  -27.2020  -27.1430   20.1760 C   0  0  0  0  0  0  0  0  0  0  0  0
  -23.4240  -30.4750   21.5910 C   0  0  0  0  0  3  0  0  0  0  0  0
  -24.8720  -28.9060   20.1520 C   0  0  0  0  0  0  0  0  0  0  0  0
  -25.9800  -30.7310   21.4290 C   0  0  0  0  0  2  0  0  0  0  0  0
  -26.0500  -29.3390   20.7730 C   0  0  0  0  0  0  0  0  0  0  0  0
  -27.2100  -28.4710   20.7740 C   0  0  0  0  0  3  0  0  0  0  0  0
  -26.0030  -26.8270   19.4970 C   0  0  0  0  0  3  0  0  0  0  0  0
  -24.8640  -27.6650   19.4980 C   0  0  0  0  0  3  0  0  0  0  0  0
  -23.6430  -29.8040   20.2070 C   0  0  0  0  0  2  0  0  0  0  0  0
  -24.6960  -31.0470   22.1380 N   0  0  0  0  0  0  0  0  0  0  0  0
  -23.5380  -32.1530   23.7590 O   0  0  0  0  0  0  0  0  0  0  0  0
  -22.7460  -29.4670   22.5520 C   0  0  0  0  0  0  0  0  0  0  0  0
  -21.4180  -29.2960   22.4320 N   0  0  0  0  0  0  0  0  0  0  0  0
  -23.4210  -28.8370   23.3720 O   0  0  0  0  0  0  0  0  0  0  0  0
  -20.9290  -29.8550   21.7470 H   0  0  0  0  0  0  0  0  0  0  0  0
  -18.0400  -28.0880   22.9390 C   0  0  0  0  0  0  0  0  0  0  0  0
  -20.5990  -28.3580   23.2050 C   0  0  0  0  0  3  0  0  0  0  0  0
  -20.7050  -26.9240   22.6350 C   0  0  0  0  0  2  0  0  0  0  0  0
  -19.6040  -26.5960   21.6210 C   0  0  0  0  0  2  0  0  0  0  0  0
  -18.2200  -26.7400   22.2630 C   0  0  0  0  0  2  0  0  0  0  0  0
  -19.1560  -28.8550   23.3670 C   0  0  0  0  0  0  0  0  0  0  0  0
  -18.9300  -30.1160   23.9600 C   0  0  0  0  0  3  0  0  0  0  0  0
  -17.6240  -30.6120   24.1290 C   0  0  0  0  0  3  0  0  0  0  0  0
  -16.5220  -29.8430   23.7130 C   0  0  0  0  0  3  0  0  0  0  0  0
  -16.7310  -28.5830   23.1240 C   0  0  0  0  0  3  0  0  0  0  0  0
  -25.9020  -32.5050   23.8560 C   0  0  0  0  0  3  0  0  0  0  0  0
  -25.5910  -33.9050   24.1870 N   0  0  0  0  0  0  0  0  0  0  0  0
  -25.9200  -34.9610   23.4310 C   0  0  0  0  0  0  0  0  0  0  0  0
  -26.5830  -34.8590   22.3970 O   0  0  0  0  0  0  0  0  0  0  0  0
  -24.9990  -34.0560   24.9920 H   0  0  0  0  0  0  0  0  0  0  0  0
  -24.1890  -36.7580   23.1000 C   0  0  0  0  0  1  0  0  0  0  0  0
  -25.4390  -36.3510   23.8970 C   0  0  0  0  0  3  0  0  0  0  0  0
  -27.5820  -37.2340   24.7050 C   0  0  0  0  0  1  0  0  0  0  0  0
  -26.4690  -37.4030   23.7740 N   0  0  0  0  0  0  0  0  0  0  0  0
  -26.0640  -38.3220   23.9300 H   0  0  0  0  0  0  0  0  0  0  0  0
  -26.4120  -31.7390   25.1390 C   0  0  1  0  0  0  0  0  0  0  0  0
  -25.3150  -31.5140   26.2070 C   0  0  0  0  0  1  0  0  0  0  0  0
  -26.9920  -30.3580   24.7620 C   0  0  0  0  0  1  0  0  0  0  0  0
  -27.5660  -32.5320   25.7980 C   0  0  0  0  0  1  0  0  0  0  0  0
  1  7  1  0
  2  8  1  0
  4  2  1  0
  4  1  1  0
  4  5  1  0
  5  6  1  0
  5  3  1  0
  6  7  1  0
  6 20  1  0
  7  9  1  0
  8 50  1  0
  8  3  1  0
 10  7  1  0
  8 11  1  6
 12 20  1  0
 13 18  1  0
 14 15  1  0
 14 13  1  0
 16 15  1  0
 16 25  1  0
 16 17  1  0
 18 12  1  0
 18 17  1  0
 19 12  2  0
 20 21  1  0
 22 23  2  0
 23 42  1  0
 24 23  1  0
 24 27  1  0
 25 22  1  0
 25 26  1  0
 26 24  2  0
 27 28  1  0
 28 29  2  0
 30 33  1  0
 30 29  1  0
 31 30  2  0
 32 31  1  0
 32 27  2  0
 33 34  1  0
 34 35  1  0
 35 36  2  0
 37 36  1  0
 37 41  1  0
 38 37  2  0
 39 34  2  0
 39 38  1  0
 40 39  1  0
 42 43  1  0
 43 46  1  0
 43 45  1  0
 44 42  2  0
 47 48  1  0
 47 22  1  0
 49 47  1  0
 51 52  1  0
 51 50  2  0
 53 64  2  0
 54 52  1  0
 54 59  1  0
 55 63  1  0
 55 65  1  0
 56 62  1  0
 56 58  1  0
 57 63  1  0
 58 59  2  0
 58 57  1  0
 60 61  1  0
 60 54  2  0
 61 56  2  0
 62 55  1  0
 63 53  1  0
 65 67  2  0
 66 65  1  0
 68 66  1  0
 69 78  2  0
 69 74  1  0
 70 66  1  0
 70 74  1  0
 71 70  1  0
 72 73  1  0
 72 71  1  0
 73 69  1  0
 74 75  2  0
 75 76  1  0
 77 76  2  0
 78 77  1  0
 79 53  1  0
 79 80  1  0
 79 89  1  0
 80 83  1  0
 81 85  1  0
 81 80  1  0
 82 81  2  0
 85 84  1  0
 87 85  1  0
 87 88  1  0
 87 86  1  0
 89 92  1  1
 89 90  1  0
 91 89  1  0
M  ISO  4  12 100  20 100  51 101  52 101
M  END
>  <TORSDO>  (9) 
F 18

>  <SCORE>  (9) 
-15.395

>  <name>  (9) 
8

>  <ligand_id>  (9) 
8

>  <original_smiles>  (9) 
[H]c1c([H])c([H])c2c(c1[H])C([H])([H])C([H])([H])C([H])([H])C2([H])N([H])C(=O)C1([H])N(C(=O)C([H])(N([H])C(=O)C([H])(N([H])C([H])([H])[H])C([H])([H])[H])C(C([H])([H])[H])(C([H])([H])[H])C([H])([H])[H])C([H])([H])c2c([H])c(OC([H])([H])C([H])([H])[N+]3([H])C([H])([H])C4([H])C([H])(C([H])(N([H])C(=O)N5C([H])([H])C([H])([H])C([H])([H])C([H])(n6nc(-c7c([H])c([H])c(Oc8c([H])c([H])c(F)c([H])c8F)c([H])c7[H])c(C(=O)N([H])[H])c6N([H])[H])C5([H])[H])[N+]([H])([H])C4([H])[H])C3([H])[H])c([H])c([H])c2C1([H])[H]

>  <smiles>  (9) 
[H]c1c([H])c([H])c2c(c1[H])C([H])([H])C([H])([H])C([H])([H])C2([H])N([H])C(=O)C1([H])N(C(=O)C([H])(N([H])C(=O)C([H])(N([H])C([H])([H])[H])C([H])([H])[H])C(C([H])([H])[H])(C([H])([H])[H])C([H])([H])[H])C([H])([H])c2c([H])c(OC([H])([H])C([H])([H])[N+]3([H])C([H])([H])C4([H])C([H])(C([H])(N([H])C(=O)N5C([H])([H])C([H])([H])C([H])([H])C([H])(n6nc(-c7c([H])c([H])c(Oc8c([H])c([H])c(F)c([H])c8F)c([H])c7[H])c(C(=O)N([H])[H])c6N([H])[H])C5([H])[H])[N+]([H])([H])C4([H])[H])C3([H])[H])c([H])c([H])c2C1([H])[H]

$$$$
9:0:0
     RDKit          3D

 91 99  0  0  1  0  0  0  0  0999 V2000
  -28.7930  -21.0830   20.0620 C   0  0  0  0  0  0  0  0  0  0  0  0
  -29.0170  -22.3780   20.5100 N   0  0  0  0  0  0  0  0  0  0  0  0
  -27.9230  -20.8740   19.2140 O   0  0  0  0  0  0  0  0  0  0  0  0
  -29.6840  -22.4560   21.2650 H   0  0  0  0  0  0  0  0  0  0  0  0
  -31.7600  -19.0240   21.4770 C   0  0  0  0  0  3  0  0  0  0  0  0
  -30.9110  -20.0940   21.1230 C   0  0  0  0  0  3  0  0  0  0  0  0
  -31.3870  -17.6780   21.2760 C   0  0  0  0  0  3  0  0  0  0  0  0
  -29.2740  -18.4590   20.3660 C   0  0  0  0  0  3  0  0  0  0  0  0
  -29.6390  -19.8630   20.5550 C   0  0  0  0  0  0  0  0  0  0  0  0
  -30.1380  -17.3320   20.7120 C   0  0  0  0  0  0  0  0  0  0  0  0
  -30.5650  -14.7560   20.3870 C   0  0  0  0  0  0  0  0  0  0  0  0
  -30.3540  -12.4850   19.3540 C   0  0  0  0  0  2  0  0  0  0  0  0
  -29.4070  -12.5720   18.1370 C   0  0  0  0  0  2  0  0  0  0  0  0
  -27.9400  -12.4020   18.5770 C   0  0  0  0  0  2  0  0  0  0  0  0
  -27.5760  -13.2730   19.8100 C   0  0  0  0  0  3  0  0  0  0  0  0
  -28.6460  -13.1740   20.9190 C   0  0  0  0  0  2  0  0  0  0  0  0
  -29.9330  -13.5340   20.3110 N   0  0  0  0  0  0  0  0  0  0  0  0
  -31.7560  -14.8410   20.0730 O   0  0  0  0  0  0  0  0  0  0  0  0
  -29.7790  -15.8930   20.5680 N   0  0  0  0  0  0  0  0  0  0  0  0
  -28.7920  -15.6950   20.6010 H   0  0  0  0  0  0  0  0  0  0  0  0
  -25.1940  -13.8540   20.5620 C   0  0  0  0  0  0  0  0  0  0  0  0
  -24.1330  -13.0760   20.9380 C   0  0  0  0  0  0  0  0  0  0  0  0
  -24.6000  -11.7260   20.8980 C   0  0  0  0  0  0  0  0  0  0  0  0
  -26.2380  -12.9790   20.3130 N   0  0  0  0  0  0  0  0  0  0  0  0
  -25.8870  -11.6930   20.5780 N   0  0  0  0  0  0  0  0  0  0  0  0
  -23.8770  -10.4620   21.0890 C   0  0  0  0  0  0  0  0  0  0  0  0
  -24.3260   -9.4830   22.0020 C   0  0  0  0  0  3  0  0  0  0  0  0
  -23.6030   -8.2830   22.1810 C   0  0  0  0  0  3  0  0  0  0  0  0
  -22.4150   -8.0550   21.4460 C   0  0  0  0  0  0  0  0  0  0  0  0
  -21.9840   -9.0230   20.5210 C   0  0  0  0  0  3  0  0  0  0  0  0
  -22.7090  -10.2130   20.3400 C   0  0  0  0  0  3  0  0  0  0  0  0
  -21.6600   -6.9110   21.5350 O   0  0  0  0  0  0  0  0  0  0  0  0
  -21.6450   -6.1470   22.6740 C   0  0  0  0  0  0  0  0  0  0  0  0
  -21.2650   -6.6800   23.9250 C   0  0  0  0  0  3  0  0  0  0  0  0
  -21.1970   -5.8430   25.0570 C   0  0  0  0  0  3  0  0  0  0  0  0
  -21.4980   -4.4730   24.9390 C   0  0  0  0  0  0  0  0  0  0  0  0
  -21.8700   -3.9380   23.6930 C   0  0  0  0  0  3  0  0  0  0  0  0
  -21.9410   -4.7720   22.5630 C   0  0  0  0  0  0  0  0  0  0  0  0
  -22.2800   -4.2490   21.3610 F   0  0  0  0  0  0  0  0  0  0  0  0
  -21.4250   -3.6660   26.0230 F   0  0  0  0  0  0  0  0  0  0  0  0
  -22.7370  -13.5500   21.2210 C   0  0  0  0  0  0  0  0  0  0  0  0
  -22.0160  -12.8490   22.0880 N   0  0  0  0  0  0  0  0  0  0  0  0
  -22.2930  -14.5760   20.7070 O   0  0  0  0  0  0  0  0  0  0  0  0
  -22.3870  -12.0200   22.5280 H   0  0  0  0  0  0  0  0  0  0  0  0
  -21.0790  -13.1470   22.3180 H   0  0  0  0  0  0  0  0  0  0  0  0
  -25.3500  -15.2260   20.3840 N   0  0  0  0  0  0  0  0  0  0  0  0
  -24.5700  -15.8690   20.4770 H   0  0  0  0  0  0  0  0  0  0  0  0
  -26.1750  -15.6650   19.9980 H   0  0  0  0  0  0  0  0  0  0  0  0
  -28.6200  -23.7090   19.8510 C   0  0  0  0  0  2  0  0  0  0  0  0
  -28.2330  -25.0180   20.7310 C   0  0  0  0  0  2  0  0  0  0  0  0
  -28.3410  -26.4230   20.1970 O   0  0  0  0  0  0  0  0  0  0  0  0
  -24.6110  -31.8810   23.2350 C   0  0  0  0  0  0  0  0  0  0  0  0
  -27.2230  -27.2820   20.2030 C   0  0  0  0  0  0  0  0  0  0  0  0
  -23.4070  -30.4730   21.6010 C   0  0  0  0  0  3  0  0  0  0  0  0
  -24.8590  -28.9090   20.1820 C   0  0  0  0  0  0  0  0  0  0  0  0
  -25.9470  -30.7900   21.4110 C   0  0  0  0  0  2  0  0  0  0  0  0
  -26.0300  -29.4030   20.7730 C   0  0  0  0  0  0  0  0  0  0  0  0
  -27.2180  -28.6040   20.7650 C   0  0  0  0  0  3  0  0  0  0  0  0
  -26.0300  -26.8470   19.5930 C   0  0  0  0  0  3  0  0  0  0  0  0
  -24.8630  -27.6400   19.5810 C   0  0  0  0  0  3  0  0  0  0  0  0
  -23.6220  -29.7860   20.2260 C   0  0  0  0  0  2  0  0  0  0  0  0
  -24.6750  -31.0670   22.1390 N   0  0  0  0  0  0  0  0  0  0  0  0
  -23.5280  -32.1590   23.7710 O   0  0  0  0  0  0  0  0  0  0  0  0
  -22.7450  -29.4630   22.5690 C   0  0  0  0  0  0  0  0  0  0  0  0
  -21.4190  -29.2830   22.4440 N   0  0  0  0  0  0  0  0  0  0  0  0
  -23.4240  -28.8420   23.3900 O   0  0  0  0  0  0  0  0  0  0  0  0
  -20.9280  -29.8350   21.7540 H   0  0  0  0  0  0  0  0  0  0  0  0
  -18.0450  -28.0760   22.9460 C   0  0  0  0  0  0  0  0  0  0  0  0
  -20.6030  -28.3460   23.2190 C   0  0  0  0  0  3  0  0  0  0  0  0
  -20.7100  -26.9120   22.6500 C   0  0  0  0  0  2  0  0  0  0  0  0
  -19.6110  -26.5810   21.6360 C   0  0  0  0  0  2  0  0  0  0  0  0
  -18.2280  -26.7240   22.2770 C   0  0  0  0  0  2  0  0  0  0  0  0
  -19.1600  -28.8440   23.3750 C   0  0  0  0  0  0  0  0  0  0  0  0
  -18.9350  -30.1080   23.9600 C   0  0  0  0  0  3  0  0  0  0  0  0
  -17.6280  -30.6050   24.1240 C   0  0  0  0  0  3  0  0  0  0  0  0
  -16.5270  -29.8320   23.7140 C   0  0  0  0  0  3  0  0  0  0  0  0
  -16.7370  -28.5700   23.1310 C   0  0  0  0  0  3  0  0  0  0  0  0
  -25.8930  -32.5190   23.8540 C   0  0  0  0  0  3  0  0  0  0  0  0
  -26.4140  -31.7500   25.1310 C   0  0  1  0  0  0  0  0  0  0  0  0
  -25.3230  -31.5120   26.2020 C   0  0  0  0  0  1  0  0  0  0  0  0
  -26.9960  -30.3730   24.7390 C   0  0  0  0  0  1  0  0  0  0  0  0
  -27.5680  -32.5440   25.7880 C   0  0  0  0  0  1  0  0  0  0  0  0
  -25.5810  -33.9170   24.1860 N   0  0  0  0  0  0  0  0  0  0  0  0
  -25.9090  -34.9720   23.4270 C   0  0  0  0  0  0  0  0  0  0  0  0
  -26.5720  -34.8710   22.3920 O   0  0  0  0  0  0  0  0  0  0  0  0
  -24.9930  -34.0700   24.9920 H   0  0  0  0  0  0  0  0  0  0  0  0
  -24.1760  -36.7620   23.0840 C   0  0  0  0  0  1  0  0  0  0  0  0
  -25.4220  -36.3600   23.8880 C   0  0  0  0  0  3  0  0  0  0  0  0
  -27.5590  -37.2470   24.7080 C   0  0  0  0  0  1  0  0  0  0  0  0
  -26.4520  -37.4150   23.7700 N   0  0  0  0  0  0  0  0  0  0  0  0
  -26.0450  -38.3340   23.9210 H   0  0  0  0  0  0  0  0  0  0  0  0
  1  2  1  0
  1  9  1  0
  2  4  1  0
  3  1  2  0
  6  5  2  0
  7  5  1  0
  8  9  2  0
  8 10  1  0
  9  6  1  0
 10  7  2  0
 11 19  1  0
 12 17  1  0
 13 14  1  0
 13 12  1  0
 15 14  1  0
 15 24  1  0
 15 16  1  0
 17 11  1  0
 17 16  1  0
 18 11  2  0
 19 20  1  0
 19 10  1  0
 21 22  2  0
 22 41  1  0
 23 22  1  0
 23 26  1  0
 24 21  1  0
 24 25  1  0
 25 23  2  0
 26 27  1  0
 27 28  2  0
 29 32  1  0
 29 28  1  0
 30 29  2  0
 31 30  1  0
 31 26  2  0
 32 33  1  0
 33 34  1  0
 34 35  2  0
 36 35  1  0
 36 40  1  0
 37 36  2  0
 38 33  2  0
 38 37  1  0
 39 38  1  0
 41 42  1  0
 42 45  1  0
 42 44  1  0
 43 41  2  0
 46 47  1  0
 46 21  1  0
 48 46  1  0
 49  2  1  0
 49 50  1  0
 51 53  1  0
 51 50  1  0
 52 63  2  0
 53 58  1  0
 54 62  1  0
 54 64  1  0
 55 61  1  0
 55 57  1  0
 56 62  1  0
 57 56  1  0
 58 57  2  0
 59 53  2  0
 60 59  1  0
 60 55  2  0
 61 54  1  0
 62 52  1  0
 64 66  2  0
 65 64  1  0
 67 65  1  0
 68 77  2  0
 68 73  1  0
 69 65  1  0
 69 73  1  0
 70 69  1  0
 71 72  1  0
 71 70  1  0
 72 68  1  0
 73 74  2  0
 74 75  1  0
 76 75  2  0
 77 76  1  0
 78 52  1  0
 78 83  1  0
 78 79  1  0
 79 82  1  1
 79 80  1  0
 81 79  1  0
 83 86  1  0
 84 88  1  0
 84 83  1  0
 85 84  2  0
 88 87  1  0
 90 88  1  0
 90 91  1  0
 90 89  1  0
M  ISO  4  11 100  19 100  50 101  51 101
M  END
>  <TORSDO>  (10) 
F 19

>  <SCORE>  (10) 
-14.451

>  <name>  (10) 
9

>  <ligand_id>  (10) 
9

>  <original_smiles>  (10) 
[H]c1c([H])c(C(=O)N([H])C([H])([H])C([H])([H])Oc2c([H])c([H])c3c(c2[H])C([H])([H])N(C(=O)C([H])(N([H])C(=O)C([H])(N([H])C([H])([H])[H])C([H])([H])[H])C(C([H])([H])[H])(C([H])([H])[H])C([H])([H])[H])C([H])(C(=O)N([H])C2([H])c4c([H])c([H])c([H])c([H])c4C([H])([H])C([H])([H])C2([H])[H])C3([H])[H])c([H])c(N([H])C(=O)N2C([H])([H])C([H])([H])C([H])([H])C([H])(n3nc(-c4c([H])c([H])c(Oc5c([H])c([H])c(F)c([H])c5F)c([H])c4[H])c(C(=O)N([H])[H])c3N([H])[H])C2([H])[H])c1[H]

>  <smiles>  (10) 
[H]c1c([H])c(C(=O)N([H])C([H])([H])C([H])([H])Oc2c([H])c([H])c3c(c2[H])C([H])([H])N(C(=O)C([H])(N([H])C(=O)C([H])(N([H])C([H])([H])[H])C([H])([H])[H])C(C([H])([H])[H])(C([H])([H])[H])C([H])([H])[H])C([H])(C(=O)N([H])C2([H])c4c([H])c([H])c([H])c([H])c4C([H])([H])C([H])([H])C2([H])[H])C3([H])[H])c([H])c(N([H])C(=O)N2C([H])([H])C([H])([H])C([H])([H])C([H])(n3nc(-c4c([H])c([H])c(Oc5c([H])c([H])c(F)c([H])c5F)c([H])c4[H])c(C(=O)N([H])[H])c3N([H])[H])C2([H])[H])c1[H]

$$$$
10:0:0
     RDKit          3D

 97105  0  0  1  0  0  0  0  0999 V2000
  -28.7920  -19.8940   18.9500 C   0  0  0  0  0  3  0  0  0  0  0  0
  -28.3780  -21.2730   18.7180 C   0  0  0  0  0  3  0  0  0  0  0  0
  -29.7260  -19.4800   19.9620 C   0  0  0  0  0  0  0  0  0  0  0  0
  -28.8470  -22.4100   19.4620 C   0  0  0  0  0  0  0  0  0  0  0  0
  -30.1430  -20.6250   20.7480 C   0  0  0  0  0  0  0  0  0  0  0  0
  -29.7370  -22.0010   20.5040 C   0  0  0  0  0  0  0  0  0  0  0  0
  -30.2890  -22.9760   21.2670 F   0  0  0  0  0  0  0  0  0  0  0  0
  -30.8550  -20.5410   23.0700 C   0  0  0  0  0  0  0  0  0  0  0  0
  -31.1180  -20.4710   21.7610 N   0  0  0  0  0  0  0  0  0  0  0  0
  -29.7280  -20.3720   23.5420 O   0  0  0  0  0  0  0  0  0  0  0  0
  -32.0720  -20.6710   21.4920 H   0  0  0  0  0  0  0  0  0  0  0  0
  -31.9660  -22.2270   24.6060 C   0  0  0  0  0  1  0  0  0  0  0  0
  -32.1570  -19.7350   25.0920 C   0  0  0  0  0  1  0  0  0  0  0  0
  -32.0490  -20.8120   24.0010 C   0  0  0  0  0  3  0  0  0  0  0  0
  -30.5000  -18.0140   20.0170 C   0  0  0  0  0  2  0  0  0  0  0  0
  -30.7680  -15.3460   20.1010 C   0  0  0  0  0  0  0  0  0  0  0  0
  -30.7330  -12.9210   19.3770 C   0  0  0  0  0  2  0  0  0  0  0  0
  -29.8260  -12.7030   18.1450 C   0  0  0  0  0  2  0  0  0  0  0  0
  -28.3710  -12.4610   18.5780 C   0  0  0  0  0  2  0  0  0  0  0  0
  -27.8950  -13.4840   19.6460 C   0  0  0  0  0  3  0  0  0  0  0  0
  -28.9300  -13.6820   20.7760 C   0  0  0  0  0  2  0  0  0  0  0  0
  -30.1930  -14.0790   20.1410 N   0  0  0  0  0  0  0  0  0  0  0  0
  -31.9750  -15.4120   19.8480 O   0  0  0  0  0  0  0  0  0  0  0  0
  -29.9930  -16.5320   20.1320 N   0  0  0  0  0  0  0  0  0  0  0  0
  -29.0000  -16.4070   20.2350 H   0  0  0  0  0  0  0  0  0  0  0  0
  -25.5410  -14.0320   20.4820 C   0  0  0  0  0  0  0  0  0  0  0  0
  -24.4800  -13.2400   20.8300 C   0  0  0  0  0  0  0  0  0  0  0  0
  -24.9350  -11.8910   20.7110 C   0  0  0  0  0  0  0  0  0  0  0  0
  -26.5700  -13.1630   20.1620 N   0  0  0  0  0  0  0  0  0  0  0  0
  -26.2180  -11.8680   20.3670 N   0  0  0  0  0  0  0  0  0  0  0  0
  -24.2060  -10.6230   20.8430 C   0  0  0  0  0  0  0  0  0  0  0  0
  -24.6040   -9.6320   21.7680 C   0  0  0  0  0  3  0  0  0  0  0  0
  -23.8750   -8.4300   21.8900 C   0  0  0  0  0  3  0  0  0  0  0  0
  -22.7310   -8.2090   21.0870 C   0  0  0  0  0  0  0  0  0  0  0  0
  -22.3500   -9.1860   20.1510 C   0  0  0  0  0  3  0  0  0  0  0  0
  -23.0810  -10.3800   20.0270 C   0  0  0  0  0  3  0  0  0  0  0  0
  -21.9760   -7.0620   21.1210 O   0  0  0  0  0  0  0  0  0  0  0  0
  -21.7840   -6.3570   22.2830 C   0  0  0  0  0  0  0  0  0  0  0  0
  -21.1960   -6.9460   23.4230 C   0  0  0  0  0  3  0  0  0  0  0  0
  -20.9550   -6.1680   24.5720 C   0  0  0  0  0  3  0  0  0  0  0  0
  -21.2910   -4.8010   24.5810 C   0  0  0  0  0  0  0  0  0  0  0  0
  -21.8710   -4.2110   23.4450 C   0  0  0  0  0  3  0  0  0  0  0  0
  -22.1150   -4.9880   22.2980 C   0  0  0  0  0  0  0  0  0  0  0  0
  -22.6550   -4.4080   21.1980 F   0  0  0  0  0  0  0  0  0  0  0  0
  -21.0510   -4.0520   25.6830 F   0  0  0  0  0  0  0  0  0  0  0  0
  -23.0900  -13.7060   21.1560 C   0  0  0  0  0  0  0  0  0  0  0  0
  -22.3770  -12.9720   22.0040 N   0  0  0  0  0  0  0  0  0  0  0  0
  -22.6430  -14.7550   20.6940 O   0  0  0  0  0  0  0  0  0  0  0  0
  -22.7510  -12.1240   22.4010 H   0  0  0  0  0  0  0  0  0  0  0  0
  -21.4440  -13.2650   22.2590 H   0  0  0  0  0  0  0  0  0  0  0  0
  -25.7120  -15.4100   20.3840 N   0  0  0  0  0  0  0  0  0  0  0  0
  -24.9680  -16.0690   20.5890 H   0  0  0  0  0  0  0  0  0  0  0  0
  -26.5560  -15.8530   20.0450 H   0  0  0  0  0  0  0  0  0  0  0  0
  -28.6450  -23.9720   18.9890 C   0  0  0  0  0  2  0  0  0  0  0  0
  -27.6720  -25.0220   19.5620 N   0  0  0  0  0  0  0  0  0  0  0  0
  -26.7360  -24.8070   19.2350 H   0  0  0  0  0  0  0  0  0  0  0  0
  -27.9430  -26.4960   19.0690 O   0  0  0  0  0  0  0  0  0  0  0  0
  -24.8120  -31.7530   23.1500 C   0  0  0  0  0  0  0  0  0  0  0  0
  -26.9070  -27.4570   19.2980 C   0  0  0  0  0  0  0  0  0  0  0  0
  -23.4160  -30.6580   21.4390 C   0  0  0  0  0  3  0  0  0  0  0  0
  -24.6620  -29.2420   19.6990 C   0  0  0  0  0  0  0  0  0  0  0  0
  -25.9540  -30.8550   21.0960 C   0  0  0  0  0  2  0  0  0  0  0  0
  -25.9040  -29.5640   20.2630 C   0  0  0  0  0  0  0  0  0  0  0  0
  -27.0250  -28.6850   20.0540 C   0  0  0  0  0  3  0  0  0  0  0  0
  -25.6470  -27.2270   18.7090 C   0  0  0  0  0  3  0  0  0  0  0  0
  -24.5430  -28.0840   18.9120 C   0  0  0  0  0  3  0  0  0  0  0  0
  -23.4870  -30.1670   19.9680 C   0  0  0  0  0  2  0  0  0  0  0  0
  -24.7530  -31.1010   21.9490 N   0  0  0  0  0  0  0  0  0  0  0  0
  -23.7870  -32.0030   23.8020 O   0  0  0  0  0  0  0  0  0  0  0  0
  -22.7600  -29.5550   22.3060 C   0  0  0  0  0  0  0  0  0  0  0  0
  -21.4240  -29.4290   22.2250 N   0  0  0  0  0  0  0  0  0  0  0  0
  -23.4530  -28.8190   23.0140 O   0  0  0  0  0  0  0  0  0  0  0  0
  -20.9210  -30.0720   21.6310 H   0  0  0  0  0  0  0  0  0  0  0  0
  -18.0430  -28.2290   22.7210 C   0  0  0  0  0  0  0  0  0  0  0  0
  -20.6140  -28.4230   22.9160 C   0  0  0  0  0  3  0  0  0  0  0  0
  -20.6670  -27.0640   22.1780 C   0  0  0  0  0  2  0  0  0  0  0  0
  -19.5220  -26.8760   21.1780 C   0  0  0  0  0  2  0  0  0  0  0  0
  -18.1680  -26.9660   21.8860 C   0  0  0  0  0  2  0  0  0  0  0  0
  -19.1890  -28.9220   23.1890 C   0  0  0  0  0  0  0  0  0  0  0  0
  -19.0140  -30.1110   23.9310 C   0  0  0  0  0  3  0  0  0  0  0  0
  -17.7250  -30.6050   24.2080 C   0  0  0  0  0  3  0  0  0  0  0  0
  -16.5930  -29.9070   23.7530 C   0  0  0  0  0  3  0  0  0  0  0  0
  -16.7520  -28.7210   23.0140 C   0  0  0  0  0  3  0  0  0  0  0  0
  -26.1680  -32.2350   23.7520 C   0  0  0  0  0  3  0  0  0  0  0  0
  -25.9480  -33.5650   24.3390 N   0  0  0  0  0  0  0  0  0  0  0  0
  -26.2800  -34.7250   23.7530 C   0  0  0  0  0  0  0  0  0  0  0  0
  -26.8700  -34.7780   22.6710 O   0  0  0  0  0  0  0  0  0  0  0  0
  -25.4140  -33.6000   25.1940 H   0  0  0  0  0  0  0  0  0  0  0  0
  -24.6350  -36.6280   23.8460 C   0  0  0  0  0  1  0  0  0  0  0  0
  -25.8990  -36.0290   24.4830 C   0  0  0  0  0  3  0  0  0  0  0  0
  -28.1260  -36.6620   25.3050 C   0  0  0  0  0  1  0  0  0  0  0  0
  -26.9800  -37.0420   24.4840 N   0  0  0  0  0  0  0  0  0  0  0  0
  -26.6330  -37.9390   24.8150 H   0  0  0  0  0  0  0  0  0  0  0  0
  -26.7500  -31.2460   24.8360 C   0  0  1  0  0  0  0  0  0  0  0  0
  -25.7420  -30.8760   25.9500 C   0  0  0  0  0  1  0  0  0  0  0  0
  -27.2250  -29.9290   24.1820 C   0  0  0  0  0  1  0  0  0  0  0  0
  -27.9930  -31.8780   25.5050 C   0  0  0  0  0  1  0  0  0  0  0  0
  1  3  1  0
  2  1  2  0
  2  4  1  0
  3 15  1  0
  3  5  2  0
  4  6  2  0
  5  9  1  0
  6  5  1  0
  6  7  1  0
  8 10  2  0
  8 14  1  0
  9  8  1  0
 11  9  1  0
 14 12  1  0
 14 13  1  0
 15 24  1  0
 16 24  1  0
 16 22  1  0
 17 22  1  0
 18 19  1  0
 18 17  1  0
 20 19  1  0
 20 29  1  0
 20 21  1  0
 22 21  1  0
 23 16  2  0
 24 25  1  0
 26 27  2  0
 27 46  1  0
 28 27  1  0
 28 31  1  0
 29 30  1  0
 29 26  1  0
 30 28  2  0
 31 32  1  0
 32 33  2  0
 34 37  1  0
 34 33  1  0
 35 34  2  0
 36 35  1  0
 36 31  2  0
 37 38  1  0
 38 43  2  0
 38 39  1  0
 39 40  2  0
 40 41  1  0
 41 45  1  0
 42 41  2  0
 43 42  1  0
 44 43  1  0
 46 47  1  0
 47 50  1  0
 47 49  1  0
 48 46  2  0
 51 26  1  0
 51 52  1  0
 53 51  1  0
 54  4  1  0
 54 55  1  0
 56 55  1  0
 57 59  1  0
 57 55  1  0
 58 69  2  0
 59 64  1  0
 60 68  1  0
 60 70  1  0
 61 67  1  0
 61 63  1  0
 62 68  1  0
 63 62  1  0
 64 63  2  0
 65 66  1  0
 65 59  2  0
 66 61  2  0
 67 60  1  0
 68 58  1  0
 70 72  2  0
 71 70  1  0
 73 71  1  0
 74 83  2  0
 74 79  1  0
 75 71  1  0
 75 79  1  0
 76 75  1  0
 77 78  1  0
 77 76  1  0
 78 74  1  0
 79 80  2  0
 80 81  1  0
 82 81  2  0
 83 82  1  0
 84 58  1  0
 84 85  1  0
 84 94  1  0
 85 88  1  0
 86 85  1  0
 86 90  1  0
 87 86  2  0
 90 89  1  0
 90 92  1  0
 92 93  1  0
 92 91  1  0
 94 97  1  1
 94 95  1  0
 96 94  1  0
M  ISO  4  16 100  24 100  55 101  57 101
M  END
>  <TORSDO>  (11) 
F 21

>  <SCORE>  (11) 
-7.487

>  <name>  (11) 
10

>  <ligand_id>  (11) 
10

>  <original_smiles>  (11) 
[H]c1c([H])c([H])c2c(c1[H])C([H])([H])C([H])([H])C([H])([H])C2([H])N([H])C(=O)C1([H])N(C(=O)C([H])(N([H])C(=O)C([H])(N([H])C([H])([H])[H])C([H])([H])[H])C(C([H])([H])[H])(C([H])([H])[H])C([H])([H])[H])C([H])([H])c2c([H])c(ON([H])C([H])([H])c3c([H])c([H])c(C([H])([H])N([H])C(=O)N4C([H])([H])C([H])([H])C([H])([H])C([H])(n5nc(-c6c([H])c([H])c(Oc7c([H])c([H])c(F)c([H])c7F)c([H])c6[H])c(C(=O)N([H])[H])c5N([H])[H])C4([H])[H])c(N([H])C(=O)C([H])(C([H])([H])[H])C([H])([H])[H])c3F)c([H])c([H])c2C1([H])[H]

>  <smiles>  (11) 
[H]c1c([H])c([H])c2c(c1[H])C([H])([H])C([H])([H])C([H])([H])C2([H])N([H])C(=O)C1([H])N(C(=O)C([H])(N([H])C(=O)C([H])(N([H])C([H])([H])[H])C([H])([H])[H])C(C([H])([H])[H])(C([H])([H])[H])C([H])([H])[H])C([H])([H])c2c([H])c(ON([H])C([H])([H])c3c([H])c([H])c(C([H])([H])N([H])C(=O)N4C([H])([H])C([H])([H])C([H])([H])C([H])(n5nc(-c6c([H])c([H])c(Oc7c([H])c([H])c(F)c([H])c7F)c([H])c6[H])c(C(=O)N([H])[H])c5N([H])[H])C4([H])[H])c(N([H])C(=O)C([H])(C([H])([H])[H])C([H])([H])[H])c3F)c([H])c([H])c2C1([H])[H]

$$$$
11:0:0
     RDKit          3D

 92100  0  0  1  0  0  0  0  0999 V2000
  -30.1570  -19.8030   19.7470 C   0  0  0  0  0  0  0  0  0  0  0  0
  -29.4470  -21.0680   20.1140 N   0  0  0  0  0  0  0  0  0  0  0  0
  -31.1760  -19.9330   19.0690 O   0  0  0  0  0  0  0  0  0  0  0  0
  -28.6120  -20.8660   20.6480 H   0  0  0  0  0  0  0  0  0  0  0  0
  -30.8870  -15.3570   19.2970 C   0  0  0  0  0  0  0  0  0  0  0  0
  -30.6330  -13.0060   18.1690 C   0  0  0  0  0  2  0  0  0  0  0  0
  -29.4860  -12.9290   17.1210 C   0  0  0  0  0  2  0  0  0  0  0  0
  -28.1420  -12.6020   17.7970 C   0  0  0  0  0  2  0  0  0  0  0  0
  -27.9430  -13.4430   19.0780 C   0  0  0  0  0  3  0  0  0  0  0  0
  -29.1850  -13.4440   19.9890 C   0  0  0  0  0  2  0  0  0  0  0  0
  -30.3050  -14.0410   19.2280 N   0  0  0  0  0  0  0  0  0  0  0  0
  -31.9150  -15.4470   18.6100 O   0  0  0  0  0  0  0  0  0  0  0  0
  -29.6320  -18.3660   21.6940 C   0  0  0  0  0  2  0  0  0  0  0  0
  -30.5020  -16.1350   21.5050 C   0  0  0  0  0  2  0  0  0  0  0  0
  -29.7760  -18.1370   20.1720 C   0  0  0  0  0  3  0  0  0  0  0  0
  -29.5830  -17.0130   22.3420 C   0  0  0  0  0  3  0  0  0  0  0  0
  -30.3540  -16.5140   20.0850 N   0  0  0  0  0  0  0  0  0  0  0  0
  -25.8050  -13.9410   20.3770 C   0  0  0  0  0  0  0  0  0  0  0  0
  -24.8120  -13.1430   20.8700 C   0  0  0  0  0  0  0  0  0  0  0  0
  -25.2050  -11.7990   20.5810 C   0  0  0  0  0  0  0  0  0  0  0  0
  -26.7320  -13.0870   19.8080 N   0  0  0  0  0  0  0  0  0  0  0  0
  -26.4000  -11.7830   19.9970 N   0  0  0  0  0  0  0  0  0  0  0  0
  -24.4820  -10.5350   20.7720 C   0  0  0  0  0  0  0  0  0  0  0  0
  -24.9640   -9.5280   21.6360 C   0  0  0  0  0  3  0  0  0  0  0  0
  -24.2380   -8.3320   21.8180 C   0  0  0  0  0  3  0  0  0  0  0  0
  -23.0140   -8.1330   21.1370 C   0  0  0  0  0  0  0  0  0  0  0  0
  -22.5480   -9.1300   20.2620 C   0  0  0  0  0  3  0  0  0  0  0  0
  -23.2750  -10.3180   20.0780 C   0  0  0  0  0  3  0  0  0  0  0  0
  -22.2550   -6.9920   21.2320 O   0  0  0  0  0  0  0  0  0  0  0  0
  -22.1520   -6.2900   22.4060 C   0  0  0  0  0  0  0  0  0  0  0  0
  -21.6730   -6.8900   23.5920 C   0  0  0  0  0  3  0  0  0  0  0  0
  -21.5150   -6.1150   24.7590 C   0  0  0  0  0  3  0  0  0  0  0  0
  -21.8300   -4.7420   24.7410 C   0  0  0  0  0  0  0  0  0  0  0  0
  -22.3050   -4.1440   23.5610 C   0  0  0  0  0  3  0  0  0  0  0  0
  -22.4620   -4.9160   22.3970 C   0  0  0  0  0  0  0  0  0  0  0  0
  -22.9000   -4.3280   21.2560 F   0  0  0  0  0  0  0  0  0  0  0  0
  -21.6730   -3.9970   25.8590 F   0  0  0  0  0  0  0  0  0  0  0  0
  -23.5220  -13.6070   21.4820 C   0  0  0  0  0  0  0  0  0  0  0  0
  -22.9880  -12.8520   22.4350 N   0  0  0  0  0  0  0  0  0  0  0  0
  -23.0080  -14.6730   21.1510 O   0  0  0  0  0  0  0  0  0  0  0  0
  -23.4210  -11.9870   22.7230 H   0  0  0  0  0  0  0  0  0  0  0  0
  -22.1330  -13.1450   22.8850 H   0  0  0  0  0  0  0  0  0  0  0  0
  -25.9880  -15.3210   20.3390 N   0  0  0  0  0  0  0  0  0  0  0  0
  -25.2730  -15.9620   20.6690 H   0  0  0  0  0  0  0  0  0  0  0  0
  -26.7430  -15.7840   19.8510 H   0  0  0  0  0  0  0  0  0  0  0  0
  -29.9050  -17.0060   23.7840 N   0  0  0  0  0  4  0  0  0  0  0  0
  -30.8370  -17.3350   23.9590 H   0  0  0  0  0  0  0  0  0  0  0  0
  -29.8250  -16.0770   24.1580 H   0  0  0  0  0  0  0  0  0  0  0  0
  -29.2650  -17.5920   24.2900 H   0  0  0  0  0  0  0  0  0  0  0  0
  -29.6680  -22.7350   19.9830 C   0  0  0  0  0  3  0  0  0  0  0  0
  -28.5960  -24.1920   20.2060 C   0  0  0  0  0  3  0  0  0  0  0  0
  -28.8150  -25.8390   20.2960 O   0  0  0  0  0  0  0  0  0  0  0  0
  -25.0730  -31.6710   23.3650 C   0  0  0  0  0  0  0  0  0  0  0  0
  -27.7910  -26.9320   20.2570 C   0  0  0  0  0  0  0  0  0  0  0  0
  -23.9620  -30.3510   21.6090 C   0  0  0  0  0  3  0  0  0  0  0  0
  -25.4840  -28.8140   20.1870 C   0  0  0  0  0  0  0  0  0  0  0  0
  -26.5330  -30.5720   21.5940 C   0  0  0  0  0  2  0  0  0  0  0  0
  -26.6400  -29.1920   20.8800 C   0  0  0  0  0  0  0  0  0  0  0  0
  -27.7890  -28.2760   20.8850 C   0  0  0  0  0  3  0  0  0  0  0  0
  -26.6020  -26.7100   19.5250 C   0  0  0  0  0  3  0  0  0  0  0  0
  -25.4910  -27.5950   19.4910 C   0  0  0  0  0  3  0  0  0  0  0  0
  -24.2610  -29.7310   20.2170 C   0  0  0  0  0  2  0  0  0  0  0  0
  -25.2090  -30.8900   22.2450 N   0  0  0  0  0  0  0  0  0  0  0  0
  -23.9580  -31.9340   23.8470 O   0  0  0  0  0  0  0  0  0  0  0  0
  -23.2260  -29.3120   22.4960 C   0  0  0  0  0  0  0  0  0  0  0  0
  -21.8980  -29.1770   22.3270 N   0  0  0  0  0  0  0  0  0  0  0  0
  -23.8590  -28.6270   23.3040 O   0  0  0  0  0  0  0  0  0  0  0  0
  -21.4410  -29.7800   21.6570 H   0  0  0  0  0  0  0  0  0  0  0  0
  -18.4830  -28.0020   22.6840 C   0  0  0  0  0  0  0  0  0  0  0  0
  -21.0410  -28.2070   23.0180 C   0  0  0  0  0  3  0  0  0  0  0  0
  -21.1310  -26.8130   22.3550 C   0  0  0  0  0  2  0  0  0  0  0  0
  -20.0460  -26.5750   21.2980 C   0  0  0  0  0  2  0  0  0  0  0  0
  -18.6530  -26.6990   21.9220 C   0  0  0  0  0  2  0  0  0  0  0  0
  -19.6030  -28.7180   23.1850 C   0  0  0  0  0  0  0  0  0  0  0  0
  -19.3880  -29.9380   23.8610 C   0  0  0  0  0  3  0  0  0  0  0  0
  -18.0860  -30.4450   24.0380 C   0  0  0  0  0  3  0  0  0  0  0  0
  -16.9800  -29.7260   23.5510 C   0  0  0  0  0  3  0  0  0  0  0  0
  -17.1790  -28.5060   22.8810 C   0  0  0  0  0  3  0  0  0  0  0  0
  -26.3090  -32.2870   24.0870 C   0  0  0  0  0  3  0  0  0  0  0  0
  -26.8110  -31.4150   25.3040 C   0  0  1  0  0  0  0  0  0  0  0  0
  -25.6910  -31.0310   26.3020 C   0  0  0  0  0  1  0  0  0  0  0  0
  -27.4670  -30.1050   24.8120 C   0  0  0  0  0  1  0  0  0  0  0  0
  -27.9000  -32.1870   26.0850 C   0  0  0  0  0  1  0  0  0  0  0  0
  -25.9380  -33.6360   24.5510 N   0  0  0  0  0  0  0  0  0  0  0  0
  -26.2730  -34.7790   23.9370 C   0  0  0  0  0  0  0  0  0  0  0  0
  -26.9870  -34.8080   22.9320 O   0  0  0  0  0  0  0  0  0  0  0  0
  -25.3060  -33.6840   25.3370 H   0  0  0  0  0  0  0  0  0  0  0  0
  -24.5110  -36.5670   23.7240 C   0  0  0  0  0  1  0  0  0  0  0  0
  -25.7340  -36.0980   24.5300 C   0  0  0  0  0  3  0  0  0  0  0  0
  -27.8150  -36.9350   25.5300 C   0  0  0  0  0  1  0  0  0  0  0  0
  -26.7410  -37.1800   24.5720 N   0  0  0  0  0  0  0  0  0  0  0  0
  -26.3060  -38.0700   24.8010 H   0  0  0  0  0  0  0  0  0  0  0  0
  1  2  1  0
  2  4  1  0
  3  1  2  0
  5 17  1  0
  6 11  1  0
  7  8  1  0
  7  6  1  0
  9  8  1  0
  9 21  1  0
  9 10  1  0
 11  5  1  0
 11 10  1  0
 12  5  2  0
 13 16  1  0
 14 16  1  0
 15  1  1  0
 15 13  1  0
 16 46  1  0
 17 15  1  0
 17 14  1  0
 18 19  2  0
 19 38  1  0
 20 23  1  0
 20 19  1  0
 21 22  1  0
 21 18  1  0
 22 20  2  0
 23 24  1  0
 24 25  2  0
 26 29  1  0
 26 25  1  0
 27 26  2  0
 28 27  1  0
 28 23  2  0
 29 30  1  0
 30 31  1  0
 31 32  2  0
 33 32  1  0
 33 37  1  0
 34 33  2  0
 35 30  2  0
 35 34  1  0
 36 35  1  0
 38 39  1  0
 39 41  1  0
 39 42  1  0
 40 38  2  0
 43 18  1  0
 43 44  1  0
 45 43  1  0
 46 47  1  0
 46 48  1  0
 46 49  1  0
 50  2  1  0
 50 51  2  0
 51 52  1  0
 53 64  2  0
 54 52  1  0
 54 59  1  0
 55 63  1  0
 55 65  1  0
 56 62  1  0
 56 58  1  0
 57 63  1  0
 58 59  2  0
 58 57  1  0
 60 54  2  0
 61 60  1  0
 61 56  2  0
 62 55  1  0
 63 53  1  0
 65 67  2  0
 66 65  1  0
 68 66  1  0
 69 78  2  0
 69 74  1  0
 70 66  1  0
 70 74  1  0
 71 70  1  0
 72 73  1  0
 72 71  1  0
 73 69  1  0
 74 75  2  0
 75 76  1  0
 77 76  2  0
 78 77  1  0
 79 53  1  0
 79 84  1  0
 79 80  1  0
 80 83  1  1
 80 81  1  0
 82 80  1  0
 84 87  1  0
 85 89  1  0
 85 84  1  0
 86 85  2  0
 89 88  1  0
 89 91  1  0
 91 92  1  0
 91 90  1  0
M  ISO  4   5 100  17 100  51 101  52 101
M  END
>  <TORSDO>  (12) 
F 19

>  <SCORE>  (12) 
-9.248

>  <name>  (12) 
11

>  <ligand_id>  (12) 
11

>  <original_smiles>  (12) 
[H]c1c([H])c([H])c2c(c1[H])C([H])([H])C([H])([H])C([H])([H])C2([H])N([H])C(=O)C1([H])N(C(=O)C([H])(N([H])C(=O)C([H])(N([H])C([H])([H])[H])C([H])([H])[H])C(C([H])([H])[H])(C([H])([H])[H])C([H])([H])[H])C([H])([H])c2c([H])c(OC([H])([H])C([H])([H])N([H])C(=O)C3([H])N(C(=O)N4C([H])([H])C([H])([H])C([H])([H])C([H])(n5nc(-c6c([H])c([H])c(Oc7c([H])c([H])c(F)c([H])c7F)c([H])c6[H])c(C(=O)N([H])[H])c5N([H])[H])C4([H])[H])C([H])([H])C([H])([N+]([H])([H])[H])C3([H])[H])c([H])c([H])c2C1([H])[H]

>  <smiles>  (12) 
[H]c1c([H])c([H])c2c(c1[H])C([H])([H])C([H])([H])C([H])([H])C2([H])N([H])C(=O)C1([H])N(C(=O)C([H])(N([H])C(=O)C([H])(N([H])C([H])([H])[H])C([H])([H])[H])C(C([H])([H])[H])(C([H])([H])[H])C([H])([H])[H])C([H])([H])c2c([H])c(OC([H])([H])C([H])([H])N([H])C(=O)C3([H])N(C(=O)N4C([H])([H])C([H])([H])C([H])([H])C([H])(n5nc(-c6c([H])c([H])c(Oc7c([H])c([H])c(F)c([H])c7F)c([H])c6[H])c(C(=O)N([H])[H])c5N([H])[H])C4([H])[H])C([H])([H])C([H])([N+]([H])([H])[H])C3([H])[H])c([H])c([H])c2C1([H])[H]

$$$$
12:0:0
     RDKit          3D

 81 85  0  0  1  0  0  0  0  0999 V2000
  -28.1090  -24.6470   20.3000 O   0  0  0  0  0  1  0  0  0  0  0  0
  -24.7100  -31.7810   23.1610 C   0  0  0  0  0  0  0  0  0  0  0  0
  -27.2070  -26.1440   20.2640 C   0  0  0  0  0  0  0  0  0  0  0  0
  -23.5560  -30.3680   21.5220 C   0  0  0  0  0  3  0  0  0  0  0  0
  -25.0090  -28.5810   20.1690 C   0  0  0  0  0  0  0  0  0  0  0  0
  -26.1560  -30.3130   21.5020 C   0  0  0  0  0  2  0  0  0  0  0  0
  -26.2110  -28.8120   20.8490 C   0  0  0  0  0  0  0  0  0  0  0  0
  -27.2590  -27.6460   20.8460 C   0  0  0  0  0  3  0  0  0  0  0  0
  -25.9680  -26.2870   19.5230 C   0  0  0  0  0  3  0  0  0  0  0  0
  -24.9660  -27.3480   19.4800 C   0  0  0  0  0  3  0  0  0  0  0  0
  -23.8360  -29.6140   20.1780 C   0  0  0  0  0  2  0  0  0  0  0  0
  -24.8390  -30.8700   22.1140 N   0  0  0  0  0  0  0  0  0  0  0  0
  -23.6010  -32.1150   23.6230 O   0  0  0  0  0  0  0  0  0  0  0  0
  -22.7620  -29.4580   22.5040 C   0  0  0  0  0  0  0  0  0  0  0  0
  -21.4220  -29.3560   22.3730 N   0  0  0  0  0  0  0  0  0  0  0  0
  -23.3780  -28.8290   23.3670 O   0  0  0  0  0  0  0  0  0  0  0  0
  -20.9670  -29.9120   21.6630 H   0  0  0  0  0  0  0  0  0  0  0  0
  -17.9970  -28.2130   22.9010 C   0  0  0  0  0  0  0  0  0  0  0  0
  -20.5670  -28.4380   23.1430 C   0  0  0  0  0  3  0  0  0  0  0  0
  -20.6330  -27.0060   22.5600 C   0  0  0  0  0  2  0  0  0  0  0  0
  -19.5210  -26.7160   21.5460 C   0  0  0  0  0  2  0  0  0  0  0  0
  -18.1460  -26.8740   22.1990 C   0  0  0  0  0  2  0  0  0  0  0  0
  -19.1320  -28.9550   23.3290 C   0  0  0  0  0  0  0  0  0  0  0  0
  -18.9320  -30.2040   23.9560 C   0  0  0  0  0  3  0  0  0  0  0  0
  -17.6350  -30.7130   24.1530 C   0  0  0  0  0  3  0  0  0  0  0  0
  -16.5160  -29.9710   23.7350 C   0  0  0  0  0  3  0  0  0  0  0  0
  -16.6980  -28.7220   23.1160 C   0  0  0  0  0  3  0  0  0  0  0  0
  -25.9400  -32.4590   23.8420 C   0  0  0  0  0  3  0  0  0  0  0  0
  -25.5980  -33.8650   24.1720 N   0  0  0  0  0  0  0  0  0  0  0  0
  -25.9200  -34.9450   23.4450 C   0  0  0  0  0  0  0  0  0  0  0  0
  -26.5760  -34.8640   22.4040 O   0  0  0  0  0  0  0  0  0  0  0  0
  -25.0070  -33.9990   24.9800 H   0  0  0  0  0  0  0  0  0  0  0  0
  -24.1680  -36.7480   23.1980 C   0  0  0  0  0  1  0  0  0  0  0  0
  -25.4480  -36.3330   23.9420 C   0  0  0  0  0  3  0  0  0  0  0  0
  -27.6060  -37.2470   24.6880 C   0  0  0  0  0  1  0  0  0  0  0  0
  -26.4650  -37.3980   23.7880 N   0  0  0  0  0  0  0  0  0  0  0  0
  -26.0550  -38.3150   23.9480 H   0  0  0  0  0  0  0  0  0  0  0  0
  -26.3960  -31.7200   25.1620 C   0  0  1  0  0  0  0  0  0  0  0  0
  -25.2580  -31.5140   26.1910 C   0  0  0  0  0  1  0  0  0  0  0  0
  -26.9880  -30.3300   24.8490 C   0  0  0  0  0  1  0  0  0  0  0  0
  -27.5230  -32.5250   25.8520 C   0  0  0  0  0  1  0  0  0  0  0  0
  -28.1400  -22.5480   20.1630 C   0  0  0  0  0 15  0  0  0  0  0  0
  -29.1420  -20.4180   20.2160 C   0  0  0  0  0 15  0  0  0  0  0  0
  -29.9010  -16.6470   20.0860 C   0  0  0  0  0  0  0  0  0  0  0  0
  -30.2300  -13.8900   19.2940 C   0  0  0  0  0  2  0  0  0  0  0  0
  -29.4480  -13.0530   18.1990 C   0  0  0  0  0  2  0  0  0  0  0  0
  -28.1340  -12.4820   18.7300 C   0  0  0  0  0  2  0  0  0  0  0  0
  -27.5010  -13.5140   19.6750 C   0  0  0  0  0  3  0  0  0  0  0  0
  -28.4750  -14.2100   20.6950 C   0  0  0  0  0  2  0  0  0  0  0  0
  -29.4550  -15.1290   19.9600 N   0  0  0  0  0  0  0  0  0  0  0  0
  -31.1430  -16.3980   20.0040 O   0  0  0  0  0  0  0  0  0  0  0  0
  -29.2570  -18.3100   20.1340 N   0  0  0  0  0  2  0  0  0  0  0  0
  -30.2580  -18.4710   20.1320 H   0  0  0  0  0  0  0  0  0  0  0  0
  -25.1600  -13.9200   20.5080 C   0  0  0  0  0  0  0  0  0  0  0  0
  -24.1280  -13.1120   20.8810 C   0  0  0  0  0  0  0  0  0  0  0  0
  -24.6260  -11.7720   20.8220 C   0  0  0  0  0  0  0  0  0  0  0  0
  -26.2240  -13.0860   20.2420 N   0  0  0  0  0  0  0  0  0  0  0  0
  -25.9190  -11.7780   20.4820 N   0  0  0  0  0  0  0  0  0  0  0  0
  -23.9140  -10.4950   21.0120 C   0  0  0  0  0  0  0  0  0  0  0  0
  -24.3570   -9.5290   21.9420 C   0  0  0  0  0  3  0  0  0  0  0  0
  -23.6350   -8.3280   22.1300 C   0  0  0  0  0  3  0  0  0  0  0  0
  -22.4560   -8.0830   21.3870 C   0  0  0  0  0  0  0  0  0  0  0  0
  -22.0290   -9.0390   20.4470 C   0  0  0  0  0  3  0  0  0  0  0  0
  -22.7510  -10.2310   20.2590 C   0  0  0  0  0  3  0  0  0  0  0  0
  -21.7070   -6.9350   21.4820 O   0  0  0  0  0  0  0  0  0  0  0  0
  -21.6700   -6.1910   22.6350 C   0  0  0  0  0  0  0  0  0  0  0  0
  -21.2140   -6.7320   23.8560 C   0  0  0  0  0  3  0  0  0  0  0  0
  -21.1260   -5.9140   25.0000 C   0  0  0  0  0  3  0  0  0  0  0  0
  -21.4850   -4.5540   24.9250 C   0  0  0  0  0  0  0  0  0  0  0  0
  -21.9340   -4.0110   23.7070 C   0  0  0  0  0  3  0  0  0  0  0  0
  -22.0220   -4.8270   22.5660 C   0  0  0  0  0  0  0  0  0  0  0  0
  -22.4340   -4.2930   21.3900 F   0  0  0  0  0  0  0  0  0  0  0  0
  -21.3950   -3.7660   26.0220 F   0  0  0  0  0  0  0  0  0  0  0  0
  -22.7270  -13.5620   21.1730 C   0  0  0  0  0  0  0  0  0  0  0  0
  -22.0260  -12.8570   22.0520 N   0  0  0  0  0  0  0  0  0  0  0  0
  -22.2670  -14.5820   20.6590 O   0  0  0  0  0  0  0  0  0  0  0  0
  -22.4140  -12.0340   22.4890 H   0  0  0  0  0  0  0  0  0  0  0  0
  -21.0880  -13.1430   22.2910 H   0  0  0  0  0  0  0  0  0  0  0  0
  -25.2790  -15.2960   20.3350 N   0  0  0  0  0  0  0  0  0  0  0  0
  -24.4980  -15.9290   20.4650 H   0  0  0  0  0  0  0  0  0  0  0  0
  -26.1180  -15.7610   20.0090 H   0  0  0  0  0  0  0  0  0  0  0  0
  2 13  2  0
  3  1  1  0
  3  8  1  0
  4 12  1  0
  4 14  1  0
  5 11  1  0
  5  7  1  0
  6 12  1  0
  7  6  1  0
  8  7  2  0
  9  3  2  0
 10  9  1  0
 10  5  2  0
 11  4  1  0
 12  2  1  0
 14 16  2  0
 15 14  1  0
 17 15  1  0
 18 27  2  0
 18 23  1  0
 19 15  1  0
 19 23  1  0
 20 19  1  0
 21 22  1  0
 21 20  1  0
 22 18  1  0
 23 24  2  0
 24 25  1  0
 26 25  2  0
 27 26  1  0
 28  2  1  0
 28 29  1  0
 28 38  1  0
 29 32  1  0
 30 34  1  0
 30 29  1  0
 31 30  2  0
 34 33  1  0
 36 34  1  0
 36 37  1  0
 36 35  1  0
 38 41  1  1
 38 39  1  0
 40 38  1  0
 44 52  1  0
 45 50  1  0
 46 47  1  0
 46 45  1  0
 48 47  1  0
 48 57  1  0
 48 49  1  0
 50 44  1  0
 50 49  1  0
 51 44  2  0
 53 52  1  0
 54 55  2  0
 55 74  1  0
 56 55  1  0
 56 59  1  0
 57 58  1  0
 57 54  1  0
 58 56  2  0
 59 60  1  0
 60 61  2  0
 62 65  1  0
 62 61  1  0
 63 62  2  0
 64 63  1  0
 64 59  2  0
 65 66  1  0
 66 67  1  0
 67 68  2  0
 69 68  1  0
 69 73  1  0
 70 69  2  0
 71 66  2  0
 71 70  1  0
 72 71  1  0
 74 75  1  0
 75 78  1  0
 75 77  1  0
 76 74  2  0
 79 80  1  0
 79 54  1  0
 81 79  1  0
M  ISO  4   1 101  42 101  44 100  52 100
M  END
>  <TORSDO>  (13) 
F 17

>  <SCORE>  (13) 
-16.141

>  <name>  (13) 
12

>  <ligand_id>  (13) 
12

>  <original_smiles>  (13) 
[H]c1c([H])c([H])c2c(c1[H])C([H])([H])C([H])([H])C([H])([H])C2([H])N([H])C(=O)C1([H])N(C(=O)C([H])(N([H])C(=O)C([H])(N([H])C([H])([H])[H])C([H])([H])[H])C(C([H])([H])[H])(C([H])([H])[H])C([H])([H])[H])C([H])([H])c2c([H])c(OC([H])([H])C([H])([H])N([H])C(=O)N3C([H])([H])C([H])([H])C([H])([H])C([H])(n4nc(-c5c([H])c([H])c(Oc6c([H])c([H])c(F)c([H])c6F)c([H])c5[H])c(C(=O)N([H])[H])c4N([H])[H])C3([H])[H])c([H])c([H])c2C1([H])[H]

>  <smiles>  (13) 
[H]c1c([H])c([H])c2c(c1[H])C([H])([H])C([H])([H])C([H])([H])C2([H])N([H])C(=O)C1([H])N(C(=O)C([H])(N([H])C(=O)C([H])(N([H])C([H])([H])[H])C([H])([H])[H])C(C([H])([H])[H])(C([H])([H])[H])C([H])([H])[H])C([H])([H])c2c([H])c(OC([H])([H])C([H])([H])N([H])C(=O)N3C([H])([H])C([H])([H])C([H])([H])C([H])(n4nc(-c5c([H])c([H])c(Oc6c([H])c([H])c(F)c([H])c6F)c([H])c5[H])c(C(=O)N([H])[H])c4N([H])[H])C3([H])[H])c([H])c([H])c2C1([H])[H]

$$$$
13:0:0
     RDKit          3D

 96105  0  0  1  0  0  0  0  0999 V2000
  -31.4430  -22.3750   20.7390 C   0  0  0  0  0  2  0  0  0  0  0  0
  -29.3710  -21.7820   19.5350 C   0  0  0  0  0  2  0  0  0  0  0  0
  -31.4790  -23.7280   20.0010 C   0  0  0  0  0  2  0  0  0  0  0  0
  -29.4170  -23.1320   18.7900 C   0  0  0  0  0  2  0  0  0  0  0  0
  -30.7040  -21.3700   19.9730 N   0  0  0  0  0  0  0  0  0  0  0  0
  -30.1250  -24.1820   19.5780 N   0  0  2  0  0  4  0  0  0  0  0  0
  -29.5970  -24.3090   20.4290 H   0  0  0  0  0  0  0  0  0  0  0  0
  -32.4560  -18.1630   20.7510 C   0  0  0  0  0  3  0  0  0  0  0  0
  -32.2150  -19.4930   20.3580 C   0  0  0  0  0  3  0  0  0  0  0  0
  -29.8360  -19.1780   20.7390 C   0  0  0  0  0  3  0  0  0  0  0  0
  -31.3890  -17.3330   21.1520 C   0  0  0  0  0  0  0  0  0  0  0  0
  -30.9060  -20.0250   20.3560 C   0  0  0  0  0  0  0  0  0  0  0  0
  -30.0750  -17.8460   21.1370 C   0  0  0  0  0  0  0  0  0  0  0  0
  -29.0360  -17.0670   21.5230 F   0  0  0  0  0  0  0  0  0  0  0  0
  -31.6770  -15.9170   21.6370 C   0  0  0  0  0  2  0  0  0  0  0  0
  -31.0230  -14.2210   19.9350 C   0  0  0  0  0  0  0  0  0  0  0  0
  -30.4360  -12.2160   18.6240 C   0  0  0  0  0  2  0  0  0  0  0  0
  -29.4070  -12.5110   17.5190 C   0  0  0  0  0  2  0  0  0  0  0  0
  -27.9720  -12.4190   18.0710 C   0  0  0  0  0  2  0  0  0  0  0  0
  -27.7850  -13.2340   19.3770 C   0  0  0  0  0  3  0  0  0  0  0  0
  -28.9090  -12.9180   20.3890 C   0  0  0  0  0  2  0  0  0  0  0  0
  -30.2120  -13.1510   19.7360 N   0  0  0  0  0  0  0  0  0  0  0  0
  -31.9620  -14.5110   19.1860 O   0  0  0  0  0  0  0  0  0  0  0  0
  -30.8080  -14.8870   21.0740 N   0  0  0  0  0  0  0  0  0  0  0  0
  -30.0410  -14.5700   21.6470 H   0  0  0  0  0  0  0  0  0  0  0  0
  -25.4780  -13.9330   20.2850 C   0  0  0  0  0  0  0  0  0  0  0  0
  -24.4060  -13.2010   20.7220 C   0  0  0  0  0  0  0  0  0  0  0  0
  -24.8010  -11.8320   20.6280 C   0  0  0  0  0  0  0  0  0  0  0  0
  -26.4610  -13.0120   19.9550 N   0  0  0  0  0  0  0  0  0  0  0  0
  -26.0580  -11.7410   20.2150 N   0  0  0  0  0  0  0  0  0  0  0  0
  -24.0330  -10.5990   20.8510 C   0  0  0  0  0  0  0  0  0  0  0  0
  -24.4500   -9.6300   21.7900 C   0  0  0  0  0  3  0  0  0  0  0  0
  -23.6860   -8.4610   21.9990 C   0  0  0  0  0  3  0  0  0  0  0  0
  -22.4910   -8.2540   21.2700 C   0  0  0  0  0  0  0  0  0  0  0  0
  -22.0930   -9.2120   20.3200 C   0  0  0  0  0  3  0  0  0  0  0  0
  -22.8570  -10.3710   20.1090 C   0  0  0  0  0  3  0  0  0  0  0  0
  -21.6990   -7.1380   21.3890 O   0  0  0  0  0  0  0  0  0  0  0  0
  -21.5970   -6.4500   22.5710 C   0  0  0  0  0  0  0  0  0  0  0  0
  -21.1620   -7.0720   23.7610 C   0  0  0  0  0  3  0  0  0  0  0  0
  -21.0050   -6.3120   24.9360 C   0  0  0  0  0  3  0  0  0  0  0  0
  -21.2750   -4.9310   24.9240 C   0  0  0  0  0  0  0  0  0  0  0  0
  -21.7030   -4.3080   23.7390 C   0  0  0  0  0  3  0  0  0  0  0  0
  -21.8610   -5.0650   22.5650 C   0  0  0  0  0  0  0  0  0  0  0  0
  -22.2530   -4.4560   21.4200 F   0  0  0  0  0  0  0  0  0  0  0  0
  -21.1170   -4.1980   26.0510 F   0  0  0  0  0  0  0  0  0  0  0  0
  -23.0590  -13.7340   21.1180 C   0  0  0  0  0  0  0  0  0  0  0  0
  -22.3740  -13.0550   22.0320 N   0  0  0  0  0  0  0  0  0  0  0  0
  -22.6260  -14.7870   20.6510 O   0  0  0  0  0  0  0  0  0  0  0  0
  -22.7370  -12.2010   22.4290 H   0  0  0  0  0  0  0  0  0  0  0  0
  -21.4730  -13.3940   22.3370 H   0  0  0  0  0  0  0  0  0  0  0  0
  -25.6930  -15.2990   20.1210 N   0  0  0  0  0  0  0  0  0  0  0  0
  -24.9770  -15.9910   20.3120 H   0  0  0  0  0  0  0  0  0  0  0  0
  -26.5520  -15.7040   19.7710 H   0  0  0  0  0  0  0  0  0  0  0  0
  -30.1890  -25.5090   18.9000 C   0  0  0  0  0  2  0  0  0  0  0  0
  -28.8340  -26.2270   18.7660 C   0  0  0  0  0  2  0  0  0  0  0  0
  -28.4010  -26.6860   20.0470 O   0  0  0  0  0  0  0  0  0  0  0  0
  -24.5260  -31.7730   23.1640 C   0  0  0  0  0  0  0  0  0  0  0  0
  -27.2110  -27.3770   20.0620 C   0  0  0  0  0  0  0  0  0  0  0  0
  -23.3320  -30.3760   21.5080 C   0  0  0  0  0  3  0  0  0  0  0  0
  -24.8000  -28.8500   20.0880 C   0  0  0  0  0  0  0  0  0  0  0  0
  -25.8570  -30.7450   21.3290 C   0  0  0  0  0  2  0  0  0  0  0  0
  -25.9500  -29.3770   20.6880 C   0  0  0  0  0  0  0  0  0  0  0  0
  -27.1540  -28.6410   20.6880 C   0  0  0  0  0  3  0  0  0  0  0  0
  -26.0370  -26.8470   19.4800 C   0  0  0  0  0  3  0  0  0  0  0  0
  -24.8360  -27.5780   19.4890 C   0  0  0  0  0  3  0  0  0  0  0  0
  -23.5510  -29.7020   20.1270 C   0  0  0  0  0  2  0  0  0  0  0  0
  -24.5900  -30.9780   22.0590 N   0  0  0  0  0  0  0  0  0  0  0  0
  -23.4410  -32.0410   23.7000 O   0  0  0  0  0  0  0  0  0  0  0  0
  -22.6790  -29.3480   22.4580 C   0  0  0  0  0  0  0  0  0  0  0  0
  -21.3580  -29.1550   22.3120 N   0  0  0  0  0  0  0  0  0  0  0  0
  -23.3560  -28.7270   23.2810 O   0  0  0  0  0  0  0  0  0  0  0  0
  -20.8730  -29.7100   21.6200 H   0  0  0  0  0  0  0  0  0  0  0  0
  -17.9890  -27.9310   22.7530 C   0  0  0  0  0  0  0  0  0  0  0  0
  -20.5380  -28.2100   23.0680 C   0  0  0  0  0  3  0  0  0  0  0  0
  -20.6620  -26.7800   22.4940 C   0  0  0  0  0  2  0  0  0  0  0  0
  -19.5810  -26.4480   21.4620 C   0  0  0  0  0  2  0  0  0  0  0  0
  -18.1870  -26.5830   22.0810 C   0  0  0  0  0  2  0  0  0  0  0  0
  -19.0930  -28.7020   23.2010 C   0  0  0  0  0  0  0  0  0  0  0  0
  -18.8550  -29.9660   23.7870 C   0  0  0  0  0  3  0  0  0  0  0  0
  -17.5440  -30.4570   23.9270 C   0  0  0  0  0  3  0  0  0  0  0  0
  -16.4530  -29.6820   23.4960 C   0  0  0  0  0  3  0  0  0  0  0  0
  -16.6760  -28.4220   22.9160 C   0  0  0  0  0  3  0  0  0  0  0  0
  -25.8070  -32.4020   23.7960 C   0  0  0  0  0  3  0  0  0  0  0  0
  -26.3250  -31.6200   25.0660 C   0  0  1  0  0  0  0  0  0  0  0  0
  -25.2280  -31.3570   26.1250 C   0  0  0  0  0  1  0  0  0  0  0  0
  -26.9210  -30.2530   24.6580 C   0  0  0  0  0  1  0  0  0  0  0  0
  -27.4660  -32.4160   25.7440 C   0  0  0  0  0  1  0  0  0  0  0  0
  -25.4930  -33.7960   24.1350 N   0  0  0  0  0  0  0  0  0  0  0  0
  -25.8380  -34.8550   23.3900 C   0  0  0  0  0  0  0  0  0  0  0  0
  -26.5270  -34.7620   22.3700 O   0  0  0  0  0  0  0  0  0  0  0  0
  -24.8840  -33.9430   24.9250 H   0  0  0  0  0  0  0  0  0  0  0  0
  -24.1250  -36.6570   23.0110 C   0  0  0  0  0  1  0  0  0  0  0  0
  -25.3410  -36.2380   23.8520 C   0  0  0  0  0  3  0  0  0  0  0  0
  -27.4510  -37.1050   24.7570 C   0  0  0  0  0  1  0  0  0  0  0  0
  -26.3780  -37.2900   23.7840 N   0  0  0  0  0  0  0  0  0  0  0  0
  -25.9680  -38.2090   23.9340 H   0  0  0  0  0  0  0  0  0  0  0  0
  2  5  1  0
  3  1  1  0
  4  2  1  0
  4  6  1  0
  5 12  1  0
  5  1  1  0
  6  3  1  0
  6  7  1  1
  8 11  1  0
  9  8  2  0
 10 13  1  0
 11 15  1  0
 12  9  1  0
 12 10  2  0
 13 11  2  0
 13 14  1  0
 16 24  1  0
 17 22  1  0
 18 19  1  0
 18 17  1  0
 20 19  1  0
 20 29  1  0
 20 21  1  0
 22 16  1  0
 22 21  1  0
 23 16  2  0
 24 15  1  0
 24 25  1  0
 26 27  2  0
 27 46  1  0
 28 27  1  0
 28 31  1  0
 29 30  1  0
 29 26  1  0
 30 28  2  0
 31 32  1  0
 32 33  2  0
 34 37  1  0
 34 33  1  0
 35 34  2  0
 36 35  1  0
 36 31  2  0
 37 38  1  0
 38 39  1  0
 39 40  2  0
 41 40  1  0
 41 45  1  0
 42 41  2  0
 43 38  2  0
 43 42  1  0
 44 43  1  0
 46 47  1  0
 47 50  1  0
 47 49  1  0
 48 46  2  0
 51 26  1  0
 51 52  1  0
 53 51  1  0
 54  6  1  0
 55 54  1  0
 55 56  1  0
 56 58  1  0
 57 68  2  0
 58 63  1  0
 59 67  1  0
 59 69  1  0
 60 66  1  0
 60 62  1  0
 61 67  1  0
 62 63  2  0
 62 61  1  0
 64 65  1  0
 64 58  2  0
 65 60  2  0
 66 59  1  0
 67 57  1  0
 69 71  2  0
 70 69  1  0
 72 70  1  0
 73 82  2  0
 73 78  1  0
 74 70  1  0
 74 78  1  0
 75 74  1  0
 76 77  1  0
 76 75  1  0
 77 73  1  0
 78 79  2  0
 79 80  1  0
 81 80  2  0
 82 81  1  0
 83 57  1  0
 83 88  1  0
 83 84  1  0
 84 87  1  1
 84 85  1  0
 86 84  1  0
 88 91  1  0
 89 93  1  0
 89 88  1  0
 90 89  2  0
 93 92  1  0
 95 93  1  0
 95 96  1  0
 95 94  1  0
M  ISO  4  16 100  24 100  55 101  56 101
M  END
>  <TORSDO>  (14) 
F 20

>  <SCORE>  (14) 
-13.314

>  <name>  (14) 
13

>  <ligand_id>  (14) 
13

>  <original_smiles>  (14) 
[H]c1c([H])c([H])c2c(c1[H])C([H])([H])C([H])([H])C([H])([H])C2([H])N([H])C(=O)C1([H])N(C(=O)C([H])(N([H])C(=O)C([H])(N([H])C([H])([H])[H])C([H])([H])[H])C(C([H])([H])[H])(C([H])([H])[H])C([H])([H])[H])C([H])([H])c2c([H])c(OC([H])([H])C([H])([H])[N+]3([H])C([H])([H])C([H])([H])N(c4c([H])c([H])c(C([H])([H])N([H])C(=O)N5C([H])([H])C([H])([H])C([H])([H])C([H])(n6nc(-c7c([H])c([H])c(Oc8c([H])c([H])c(F)c([H])c8F)c([H])c7[H])c(C(=O)N([H])[H])c6N([H])[H])C5([H])[H])c(F)c4[H])C([H])([H])C3([H])[H])c([H])c([H])c2C1([H])[H]

>  <smiles>  (14) 
[H]c1c([H])c([H])c2c(c1[H])C([H])([H])C([H])([H])C([H])([H])C2([H])N([H])C(=O)C1([H])N(C(=O)C([H])(N([H])C(=O)C([H])(N([H])C([H])([H])[H])C([H])([H])[H])C(C([H])([H])[H])(C([H])([H])[H])C([H])([H])[H])C([H])([H])c2c([H])c(OC([H])([H])C([H])([H])[N+]3([H])C([H])([H])C([H])([H])N(c4c([H])c([H])c(C([H])([H])N([H])C(=O)N5C([H])([H])C([H])([H])C([H])([H])C([H])(n6nc(-c7c([H])c([H])c(Oc8c([H])c([H])c(F)c([H])c8F)c([H])c7[H])c(C(=O)N([H])[H])c6N([H])[H])C5([H])[H])c(F)c4[H])C([H])([H])C3([H])[H])c([H])c([H])c2C1([H])[H]

$$$$
14:0:0
     RDKit          3D

 84 88  0  0  1  0  0  0  0  0999 V2000
  -28.3930  -23.3790   19.8880 C   0  0  0  0  0 15  0  0  0  0  0  0
  -30.0310  -21.6830   21.4170 C   0  0  0  0  0  1  0  0  0  0  0  0
  -27.6180  -21.0420   21.2730 C   0  0  0  0  0  1  0  0  0  0  0  0
  -28.8670  -21.3980   20.4560 C   0  0  0  0  0  2  0  0  0  0  0  0
  -29.4560  -19.4750   19.8290 C   0  0  0  0  0  1  0  0  0  0  0  0
  -30.2070  -16.1150   20.0280 C   0  0  0  0  0  0  0  0  0  0  0  0
  -30.3640  -13.4810   19.2300 C   0  0  0  0  0  2  0  0  0  0  0  0
  -29.4800  -12.9230   18.0630 C   0  0  0  0  0  2  0  0  0  0  0  0
  -28.0950  -12.4960   18.5650 C   0  0  0  0  0  2  0  0  0  0  0  0
  -27.5700  -13.5120   19.5980 C   0  0  0  0  0  3  0  0  0  0  0  0
  -28.6050  -13.9520   20.6720 C   0  0  0  0  0  2  0  0  0  0  0  0
  -29.7120  -14.6880   19.9790 N   0  0  0  0  0  0  0  0  0  0  0  0
  -31.4310  -15.9810   19.7820 O   0  0  0  0  0  0  0  0  0  0  0  0
  -29.4850  -17.5910   20.1660 N   0  0  0  0  0  0  0  0  0  0  0  0
  -28.5490  -17.3600   20.4680 H   0  0  0  0  0  0  0  0  0  0  0  0
  -25.2340  -14.0180   20.4290 C   0  0  0  0  0  0  0  0  0  0  0  0
  -24.1850  -13.2370   20.8160 C   0  0  0  0  0  0  0  0  0  0  0  0
  -24.6540  -11.8870   20.7660 C   0  0  0  0  0  0  0  0  0  0  0  0
  -26.2730  -13.1520   20.1550 N   0  0  0  0  0  0  0  0  0  0  0  0
  -25.9410  -11.8590   20.4230 N   0  0  0  0  0  0  0  0  0  0  0  0
  -23.9260  -10.6250   20.9680 C   0  0  0  0  0  0  0  0  0  0  0  0
  -24.3690   -9.6540   21.8950 C   0  0  0  0  0  3  0  0  0  0  0  0
  -23.6340   -8.4640   22.0920 C   0  0  0  0  0  3  0  0  0  0  0  0
  -22.4440   -8.2350   21.3610 C   0  0  0  0  0  0  0  0  0  0  0  0
  -22.0190   -9.1950   20.4250 C   0  0  0  0  0  3  0  0  0  0  0  0
  -22.7530  -10.3760   20.2260 C   0  0  0  0  0  3  0  0  0  0  0  0
  -21.6810   -7.0960   21.4650 O   0  0  0  0  0  0  0  0  0  0  0  0
  -21.6450   -6.3560   22.6190 C   0  0  0  0  0  0  0  0  0  0  0  0
  -21.2390   -6.9140   23.8500 C   0  0  0  0  0  3  0  0  0  0  0  0
  -21.1520   -6.1010   24.9970 C   0  0  0  0  0  3  0  0  0  0  0  0
  -21.4600   -4.7300   24.9150 C   0  0  0  0  0  0  0  0  0  0  0  0
  -21.8580   -4.1710   23.6880 C   0  0  0  0  0  3  0  0  0  0  0  0
  -21.9490   -4.9810   22.5430 C   0  0  0  0  0  0  0  0  0  0  0  0
  -22.3130   -4.4320   21.3580 F   0  0  0  0  0  0  0  0  0  0  0  0
  -21.3680   -3.9470   26.0160 F   0  0  0  0  0  0  0  0  0  0  0  0
  -22.7950  -13.7160   21.1110 C   0  0  0  0  0  0  0  0  0  0  0  0
  -22.0850  -13.0310   21.9980 N   0  0  0  0  0  0  0  0  0  0  0  0
  -22.3500  -14.7400   20.5910 O   0  0  0  0  0  0  0  0  0  0  0  0
  -22.4620  -12.2080   22.4430 H   0  0  0  0  0  0  0  0  0  0  0  0
  -21.1530  -13.3370   22.2370 H   0  0  0  0  0  0  0  0  0  0  0  0
  -25.3910  -15.3880   20.2500 N   0  0  0  0  0  0  0  0  0  0  0  0
  -24.6260  -16.0420   20.3740 H   0  0  0  0  0  0  0  0  0  0  0  0
  -26.2260  -15.8190   19.8760 H   0  0  0  0  0  0  0  0  0  0  0  0
  -28.2260  -25.2270   20.3080 O   0  0  0  0  0  1  0  0  0  0  0  0
  -24.7120  -31.8280   23.1410 C   0  0  0  0  0  0  0  0  0  0  0  0
  -27.2760  -26.5470   20.1900 C   0  0  0  0  0  0  0  0  0  0  0  0
  -23.5420  -30.4050   21.5170 C   0  0  0  0  0  3  0  0  0  0  0  0
  -25.0060  -28.7140   20.1230 C   0  0  0  0  0  0  0  0  0  0  0  0
  -26.1300  -30.4980   21.4210 C   0  0  0  0  0  2  0  0  0  0  0  0
  -26.2030  -29.0370   20.7690 C   0  0  0  0  0  0  0  0  0  0  0  0
  -27.3030  -27.9880   20.7700 C   0  0  0  0  0  3  0  0  0  0  0  0
  -26.0430  -26.5040   19.4680 C   0  0  0  0  0  3  0  0  0  0  0  0
  -24.9800  -27.4770   19.4470 C   0  0  0  0  0  3  0  0  0  0  0  0
  -23.7980  -29.6820   20.1590 C   0  0  0  0  0  2  0  0  0  0  0  0
  -24.8210  -30.9510   22.0760 N   0  0  0  0  0  0  0  0  0  0  0  0
  -23.6130  -32.1310   23.6400 O   0  0  0  0  0  0  0  0  0  0  0  0
  -22.8120  -29.4500   22.5020 C   0  0  0  0  0  0  0  0  0  0  0  0
  -21.4760  -29.3040   22.3900 N   0  0  0  0  0  0  0  0  0  0  0  0
  -23.4660  -28.8330   23.3460 O   0  0  0  0  0  0  0  0  0  0  0  0
  -20.9930  -29.8530   21.6920 H   0  0  0  0  0  0  0  0  0  0  0  0
  -18.0920  -28.0800   22.9390 C   0  0  0  0  0  0  0  0  0  0  0  0
  -20.6540  -28.3700   23.1740 C   0  0  0  0  0  3  0  0  0  0  0  0
  -20.7580  -26.9340   22.6090 C   0  0  0  0  0  2  0  0  0  0  0  0
  -19.6510  -26.6010   21.6030 C   0  0  0  0  0  2  0  0  0  0  0  0
  -18.2740  -26.7340   22.2580 C   0  0  0  0  0  2  0  0  0  0  0  0
  -19.2090  -28.8560   23.3540 C   0  0  0  0  0  0  0  0  0  0  0  0
  -18.9800  -30.1110   23.9600 C   0  0  0  0  0  3  0  0  0  0  0  0
  -17.6700  -30.5930   24.1470 C   0  0  0  0  0  3  0  0  0  0  0  0
  -16.5700  -29.8170   23.7420 C   0  0  0  0  0  3  0  0  0  0  0  0
  -16.7820  -28.5600   23.1460 C   0  0  0  0  0  3  0  0  0  0  0  0
  -25.9590  -32.5060   23.7860 C   0  0  0  0  0  3  0  0  0  0  0  0
  -25.6110  -33.9030   24.1290 N   0  0  0  0  0  0  0  0  0  0  0  0
  -25.9300  -34.9840   23.4050 C   0  0  0  0  0  0  0  0  0  0  0  0
  -26.5950  -34.9120   22.3700 O   0  0  0  0  0  0  0  0  0  0  0  0
  -25.0140  -34.0310   24.9330 H   0  0  0  0  0  0  0  0  0  0  0  0
  -24.1730  -36.7730   23.1230 C   0  0  0  0  0  1  0  0  0  0  0  0
  -25.4350  -36.3620   23.8990 C   0  0  0  0  0  3  0  0  0  0  0  0
  -27.5710  -37.2690   24.7100 C   0  0  0  0  0  1  0  0  0  0  0  0
  -26.4520  -37.4330   23.7870 N   0  0  0  0  0  0  0  0  0  0  0  0
  -26.0360  -38.3460   23.9520 H   0  0  0  0  0  0  0  0  0  0  0  0
  -26.4680  -31.7590   25.0820 C   0  0  1  0  0  0  0  0  0  0  0  0
  -25.3620  -31.5250   26.1400 C   0  0  0  0  0  1  0  0  0  0  0  0
  -27.0660  -30.3780   24.7330 C   0  0  0  0  0  1  0  0  0  0  0  0
  -27.6060  -32.5710   25.7450 C   0  0  0  0  0  1  0  0  0  0  0  0
  4  3  1  0
  4  2  1  0
  5 14  1  0
  6 14  1  0
  7 12  1  0
  8  9  1  0
  8  7  1  0
 10  9  1  0
 10 19  1  0
 10 11  1  0
 12  6  1  0
 12 11  1  0
 13  6  2  0
 14 15  1  0
 16 17  2  0
 17 36  1  0
 18 17  1  0
 18 21  1  0
 19 20  1  0
 19 16  1  0
 20 18  2  0
 21 22  1  0
 22 23  2  0
 24 27  1  0
 24 23  1  0
 25 24  2  0
 26 25  1  0
 26 21  2  0
 27 28  1  0
 28 29  1  0
 29 30  2  0
 31 30  1  0
 31 35  1  0
 32 31  2  0
 33 28  2  0
 33 32  1  0
 34 33  1  0
 36 37  1  0
 37 40  1  0
 37 39  1  0
 38 36  2  0
 41 42  1  0
 41 16  1  0
 43 41  1  0
 45 56  2  0
 46 44  1  0
 46 51  1  0
 47 55  1  0
 47 57  1  0
 48 54  1  0
 48 50  1  0
 49 55  1  0
 50 51  2  0
 50 49  1  0
 52 46  2  0
 53 52  1  0
 53 48  2  0
 54 47  1  0
 55 45  1  0
 57 59  2  0
 58 57  1  0
 60 58  1  0
 61 70  2  0
 61 66  1  0
 62 58  1  0
 62 66  1  0
 63 62  1  0
 64 65  1  0
 64 63  1  0
 65 61  1  0
 66 67  2  0
 67 68  1  0
 69 68  2  0
 70 69  1  0
 71 45  1  0
 71 72  1  0
 71 81  1  0
 72 75  1  0
 73 77  1  0
 73 72  1  0
 74 73  2  0
 77 76  1  0
 79 77  1  0
 79 80  1  0
 79 78  1  0
 81 84  1  1
 81 82  1  0
 83 81  1  0
M  ISO  4   1 101   6 100  14 100  44 101
M  END
>  <TORSDO>  (15) 
F 18

>  <SCORE>  (15) 
-15.543

>  <name>  (15) 
14

>  <ligand_id>  (15) 
14

>  <original_smiles>  (15) 
[H]c1c([H])c([H])c2c(c1[H])C([H])([H])C([H])([H])C([H])([H])C2([H])N([H])C(=O)C1([H])N(C(=O)C([H])(N([H])C(=O)C([H])(N([H])C([H])([H])[H])C([H])([H])[H])C(C([H])([H])[H])(C([H])([H])[H])C([H])([H])[H])C([H])([H])c2c([H])c(OC([H])([H])C(C([H])([H])[H])(C([H])([H])[H])C([H])([H])N([H])C(=O)N3C([H])([H])C([H])([H])C([H])([H])C([H])(n4nc(-c5c([H])c([H])c(Oc6c([H])c([H])c(F)c([H])c6F)c([H])c5[H])c(C(=O)N([H])[H])c4N([H])[H])C3([H])[H])c([H])c([H])c2C1([H])[H]

>  <smiles>  (15) 
[H]c1c([H])c([H])c2c(c1[H])C([H])([H])C([H])([H])C([H])([H])C2([H])N([H])C(=O)C1([H])N(C(=O)C([H])(N([H])C(=O)C([H])(N([H])C([H])([H])[H])C([H])([H])[H])C(C([H])([H])[H])(C([H])([H])[H])C([H])([H])[H])C([H])([H])c2c([H])c(OC([H])([H])C(C([H])([H])[H])(C([H])([H])[H])C([H])([H])N([H])C(=O)N3C([H])([H])C([H])([H])C([H])([H])C([H])(n4nc(-c5c([H])c([H])c(Oc6c([H])c([H])c(F)c([H])c6F)c([H])c5[H])c(C(=O)N([H])[H])c4N([H])[H])C3([H])[H])c([H])c([H])c2C1([H])[H]

$$$$
15:0:0
     RDKit          3D

 88 96  0  0  1  0  0  0  0  0999 V2000
  -30.2120  -20.5900   22.2360 C   0  0  0  0  0  2  0  0  0  0  0  0
  -29.0440  -19.6670   21.7860 C   0  0  0  0  0  2  0  0  0  0  0  0
  -30.6130  -21.4320   21.0000 C   0  0  0  0  0  2  0  0  0  0  0  0
  -29.0840  -19.7430   20.2620 C   0  0  0  0  0  3  0  0  0  0  0  0
  -29.3950  -21.3780   20.1880 N   0  0  2  0  0  4  0  0  0  0  0  0
  -28.8380  -21.2830   21.0240 H   0  0  0  0  0  0  0  0  0  0  0  0
  -30.1060  -18.3100   19.8690 C   0  0  0  0  0  2  0  0  0  0  0  0
  -30.6740  -15.4390   20.0140 C   0  0  0  0  0  0  0  0  0  0  0  0
  -30.6470  -13.0330   19.0820 C   0  0  0  0  0  2  0  0  0  0  0  0
  -29.6680  -12.7940   17.9040 C   0  0  0  0  0  2  0  0  0  0  0  0
  -28.2340  -12.5470   18.4000 C   0  0  0  0  0  2  0  0  0  0  0  0
  -27.8350  -13.4930   19.5590 C   0  0  0  0  0  3  0  0  0  0  0  0
  -28.9320  -13.6120   20.6440 C   0  0  0  0  0  2  0  0  0  0  0  0
  -30.1220  -14.1350   19.9600 N   0  0  0  0  0  0  0  0  0  0  0  0
  -31.8840  -15.4730   19.7470 O   0  0  0  0  0  0  0  0  0  0  0  0
  -29.8920  -16.6830   20.1470 N   0  0  0  0  0  0  0  0  0  0  0  0
  -28.9360  -16.4630   20.3880 H   0  0  0  0  0  0  0  0  0  0  0  0
  -25.4850  -14.0470   20.3830 C   0  0  0  0  0  0  0  0  0  0  0  0
  -24.4310  -13.2640   20.7690 C   0  0  0  0  0  0  0  0  0  0  0  0
  -24.8950  -11.9170   20.7080 C   0  0  0  0  0  0  0  0  0  0  0  0
  -26.5200  -13.1720   20.1040 N   0  0  0  0  0  0  0  0  0  0  0  0
  -26.1810  -11.8840   20.3690 N   0  0  0  0  0  0  0  0  0  0  0  0
  -24.1710  -10.6540   20.9030 C   0  0  0  0  0  0  0  0  0  0  0  0
  -24.5760   -9.7150   21.8780 C   0  0  0  0  0  3  0  0  0  0  0  0
  -23.8520   -8.5190   22.0640 C   0  0  0  0  0  3  0  0  0  0  0  0
  -22.7100   -8.2500   21.2720 C   0  0  0  0  0  0  0  0  0  0  0  0
  -22.3250   -9.1770   20.2850 C   0  0  0  0  0  3  0  0  0  0  0  0
  -23.0490  -10.3660   20.0980 C   0  0  0  0  0  3  0  0  0  0  0  0
  -21.9630   -7.1010   21.3590 O   0  0  0  0  0  0  0  0  0  0  0  0
  -21.8040   -6.4340   22.5500 C   0  0  0  0  0  0  0  0  0  0  0  0
  -21.2310   -7.0560   23.6790 C   0  0  0  0  0  3  0  0  0  0  0  0
  -21.0230   -6.3140   24.8600 C   0  0  0  0  0  3  0  0  0  0  0  0
  -21.3780   -4.9530   24.9100 C   0  0  0  0  0  0  0  0  0  0  0  0
  -21.9420   -4.3310   23.7820 C   0  0  0  0  0  3  0  0  0  0  0  0
  -22.1510   -5.0690   22.6040 C   0  0  0  0  0  0  0  0  0  0  0  0
  -22.6750   -4.4590   21.5140 F   0  0  0  0  0  0  0  0  0  0  0  0
  -21.1710   -4.2380   26.0410 F   0  0  0  0  0  0  0  0  0  0  0  0
  -23.0430  -13.7440   21.0670 C   0  0  0  0  0  0  0  0  0  0  0  0
  -22.3330  -13.0520   21.9490 N   0  0  0  0  0  0  0  0  0  0  0  0
  -22.5960  -14.7670   20.5520 O   0  0  0  0  0  0  0  0  0  0  0  0
  -22.7140  -12.2280   22.3870 H   0  0  0  0  0  0  0  0  0  0  0  0
  -21.4010  -13.3620   22.1870 H   0  0  0  0  0  0  0  0  0  0  0  0
  -25.6310  -15.4210   20.2250 N   0  0  0  0  0  0  0  0  0  0  0  0
  -24.8510  -16.0460   20.4000 H   0  0  0  0  0  0  0  0  0  0  0  0
  -26.4250  -15.8880   19.8070 H   0  0  0  0  0  0  0  0  0  0  0  0
  -28.4740  -22.7890   20.2930 C   0  0  0  0  0  2  0  0  0  0  0  0
  -28.6730  -24.4880   19.7110 C   0  0  0  0  0  2  0  0  0  0  0  0
  -28.4630  -26.0480   20.2510 O   0  0  0  0  0  0  0  0  0  0  0  0
  -24.6800  -31.8690   23.1500 C   0  0  0  0  0  0  0  0  0  0  0  0
  -27.4140  -27.1020   20.1130 C   0  0  0  0  0  0  0  0  0  0  0  0
  -23.5420  -30.4600   21.4800 C   0  0  0  0  0  3  0  0  0  0  0  0
  -25.0580  -28.9160   20.0440 C   0  0  0  0  0  0  0  0  0  0  0  0
  -26.1010  -30.7420   21.3740 C   0  0  0  0  0  2  0  0  0  0  0  0
  -26.2170  -29.3460   20.6950 C   0  0  0  0  0  0  0  0  0  0  0  0
  -27.3790  -28.4530   20.7200 C   0  0  0  0  0  3  0  0  0  0  0  0
  -26.2230  -26.8230   19.4070 C   0  0  0  0  0  3  0  0  0  0  0  0
  -25.0840  -27.6740   19.3840 C   0  0  0  0  0  3  0  0  0  0  0  0
  -23.8050  -29.8010   20.0950 C   0  0  0  0  0  2  0  0  0  0  0  0
  -24.7930  -31.0520   22.0550 N   0  0  0  0  0  0  0  0  0  0  0  0
  -23.5790  -32.1220   23.6680 O   0  0  0  0  0  0  0  0  0  0  0  0
  -22.8710  -29.4300   22.4240 C   0  0  0  0  0  0  0  0  0  0  0  0
  -21.5440  -29.2460   22.3050 N   0  0  0  0  0  0  0  0  0  0  0  0
  -23.5540  -28.7970   23.2330 O   0  0  0  0  0  0  0  0  0  0  0  0
  -21.0410  -29.8120   21.6340 H   0  0  0  0  0  0  0  0  0  0  0  0
  -18.1850  -27.9950   22.8340 C   0  0  0  0  0  0  0  0  0  0  0  0
  -20.7460  -28.2760   23.0610 C   0  0  0  0  0  3  0  0  0  0  0  0
  -20.8490  -26.8630   22.4420 C   0  0  0  0  0  2  0  0  0  0  0  0
  -19.7350  -26.5620   21.4350 C   0  0  0  0  0  2  0  0  0  0  0  0
  -18.3630  -26.6710   22.1070 C   0  0  0  0  0  2  0  0  0  0  0  0
  -19.3040  -28.7560   23.2670 C   0  0  0  0  0  0  0  0  0  0  0  0
  -19.0810  -29.9930   23.9090 C   0  0  0  0  0  3  0  0  0  0  0  0
  -17.7760  -30.4700   24.1210 C   0  0  0  0  0  3  0  0  0  0  0  0
  -16.6720  -29.7060   23.7040 C   0  0  0  0  0  3  0  0  0  0  0  0
  -16.8780  -28.4710   23.0650 C   0  0  0  0  0  3  0  0  0  0  0  0
  -25.9310  -32.5400   23.7960 C   0  0  0  0  0  3  0  0  0  0  0  0
  -26.4400  -31.7860   25.0880 C   0  0  1  0  0  0  0  0  0  0  0  0
  -25.3280  -31.5190   26.1270 C   0  0  0  0  0  1  0  0  0  0  0  0
  -27.0780  -30.4250   24.7290 C   0  0  0  0  0  1  0  0  0  0  0  0
  -27.5460  -32.6160   25.7780 C   0  0  0  0  0  1  0  0  0  0  0  0
  -25.5760  -33.9300   24.1290 N   0  0  0  0  0  0  0  0  0  0  0  0
  -25.8790  -35.0010   23.3850 C   0  0  0  0  0  0  0  0  0  0  0  0
  -26.5510  -34.9270   22.3530 O   0  0  0  0  0  0  0  0  0  0  0  0
  -24.9760  -34.0590   24.9300 H   0  0  0  0  0  0  0  0  0  0  0  0
  -24.0960  -36.7500   23.0610 C   0  0  0  0  0  1  0  0  0  0  0  0
  -25.3540  -36.3720   23.8580 C   0  0  0  0  0  3  0  0  0  0  0  0
  -27.4580  -37.3260   24.6890 C   0  0  0  0  0  1  0  0  0  0  0  0
  -26.3520  -37.4590   23.7450 N   0  0  0  0  0  0  0  0  0  0  0  0
  -25.9140  -38.3640   23.8970 H   0  0  0  0  0  0  0  0  0  0  0  0
  2  1  1  0
  3  1  1  0
  4  7  1  0
  4  2  1  0
  5  4  1  0
  5 46  1  0
  5  3  1  0
  5  6  1  6
  7 16  1  0
  8 16  1  0
  9 14  1  0
 10 11  1  0
 10  9  1  0
 12 11  1  0
 12 21  1  0
 12 13  1  0
 14  8  1  0
 14 13  1  0
 15  8  2  0
 16 17  1  0
 18 19  2  0
 19 38  1  0
 20 19  1  0
 20 23  1  0
 21 22  1  0
 21 18  1  0
 22 20  2  0
 23 24  1  0
 24 25  2  0
 26 29  1  0
 26 25  1  0
 27 26  2  0
 28 27  1  0
 28 23  2  0
 29 30  1  0
 30 35  2  0
 30 31  1  0
 31 32  2  0
 32 33  1  0
 33 37  1  0
 34 33  2  0
 35 34  1  0
 36 35  1  0
 38 39  1  0
 39 42  1  0
 39 41  1  0
 40 38  2  0
 43 18  1  0
 43 44  1  0
 45 43  1  0
 47 48  1  0
 47 46  1  0
 49 60  2  0
 50 48  1  0
 50 55  1  0
 51 59  1  0
 51 61  1  0
 52 58  1  0
 52 54  1  0
 53 59  1  0
 54 55  2  0
 54 53  1  0
 56 50  2  0
 57 56  1  0
 57 52  2  0
 58 51  1  0
 59 49  1  0
 61 63  2  0
 62 61  1  0
 64 62  1  0
 65 74  2  0
 65 70  1  0
 66 62  1  0
 66 70  1  0
 67 66  1  0
 68 69  1  0
 68 67  1  0
 69 65  1  0
 70 71  2  0
 71 72  1  0
 73 72  2  0
 74 73  1  0
 75 49  1  0
 75 80  1  0
 75 76  1  0
 76 79  1  1
 76 77  1  0
 78 76  1  0
 80 83  1  0
 81 85  1  0
 81 80  1  0
 82 81  2  0
 85 84  1  0
 87 85  1  0
 87 88  1  0
 87 86  1  0
M  ISO  4   8 100  16 100  47 101  48 101
M  END
>  <TORSDO>  (16) 
F 19

>  <SCORE>  (16) 
-14.834

>  <name>  (16) 
15

>  <ligand_id>  (16) 
15

>  <original_smiles>  (16) 
[H]c1c([H])c([H])c2c(c1[H])C([H])([H])C([H])([H])C([H])([H])C2([H])N([H])C(=O)C1([H])N(C(=O)C([H])(N([H])C(=O)C([H])(N([H])C([H])([H])[H])C([H])([H])[H])C(C([H])([H])[H])(C([H])([H])[H])C([H])([H])[H])C([H])([H])c2c([H])c(OC([H])([H])C([H])([H])[N+]3([H])C([H])([H])C([H])([H])C([H])([H])C3([H])C([H])([H])N([H])C(=O)N3C([H])([H])C([H])([H])C([H])([H])C([H])(n4nc(-c5c([H])c([H])c(Oc6c([H])c([H])c(F)c([H])c6F)c([H])c5[H])c(C(=O)N([H])[H])c4N([H])[H])C3([H])[H])c([H])c([H])c2C1([H])[H]

>  <smiles>  (16) 
[H]c1c([H])c([H])c2c(c1[H])C([H])([H])C([H])([H])C([H])([H])C2([H])N([H])C(=O)C1([H])N(C(=O)C([H])(N([H])C(=O)C([H])(N([H])C([H])([H])[H])C([H])([H])[H])C(C([H])([H])[H])(C([H])([H])[H])C([H])([H])[H])C([H])([H])c2c([H])c(OC([H])([H])C([H])([H])[N+]3([H])C([H])([H])C([H])([H])C([H])([H])C3([H])C([H])([H])N([H])C(=O)N3C([H])([H])C([H])([H])C([H])([H])C([H])(n4nc(-c5c([H])c([H])c(Oc6c([H])c([H])c(F)c([H])c6F)c([H])c5[H])c(C(=O)N([H])[H])c4N([H])[H])C3([H])[H])c([H])c([H])c2C1([H])[H]

$$$$
16:0:0
     RDKit          3D

 92101  0  0  1  0  0  0  0  0999 V2000
  -29.2130  -23.4810   19.7250 C   0  0  0  0  0  0  0  0  0  0  0  0
  -27.0210  -24.0500   20.4250 C   0  0  0  0  0  2  0  0  0  0  0  0
  -27.2800  -22.5120   20.4230 C   0  0  0  0  0  2  0  0  0  0  0  0
  -28.1330  -24.7030   19.6050 C   0  0  0  0  0  3  0  0  0  0  0  0
  -28.6690  -22.2130   20.0240 N   0  0  0  0  0  0  0  0  0  0  0  0
  -30.4170  -23.6750   19.5260 O   0  0  0  0  0  0  0  0  0  0  0  0
  -30.3420  -20.1350   19.4570 C   0  0  0  0  0  3  0  0  0  0  0  0
  -30.6300  -18.6910   19.4210 C   0  0  0  0  0  3  0  0  0  0  0  0
  -28.3240  -19.6890   20.5610 C   0  0  0  0  0  3  0  0  0  0  0  0
  -28.6070  -18.2670   20.5500 C   0  0  0  0  0  0  0  0  0  0  0  0
  -29.1460  -20.7320   20.0110 C   0  0  0  0  0  0  0  0  0  0  0  0
  -29.7640  -17.6610   19.9450 C   0  0  0  0  0  0  0  0  0  0  0  0
  -27.5940  -17.3670   21.2390 C   0  0  0  0  0  1  0  0  0  0  0  0
  -30.6230  -15.0630   19.3150 C   0  0  0  0  0  0  0  0  0  0  0  0
  -30.3850  -12.7670   18.2400 C   0  0  0  0  0  2  0  0  0  0  0  0
  -29.2320  -12.7760   17.2060 C   0  0  0  0  0  2  0  0  0  0  0  0
  -27.8790  -12.5050   17.8900 C   0  0  0  0  0  2  0  0  0  0  0  0
  -27.6920  -13.3450   19.1770 C   0  0  0  0  0  3  0  0  0  0  0  0
  -28.9370  -13.2900   20.0880 C   0  0  0  0  0  2  0  0  0  0  0  0
  -30.0790  -13.7760   19.2960 N   0  0  0  0  0  0  0  0  0  0  0  0
  -31.7030  -15.2350   18.7400 O   0  0  0  0  0  0  0  0  0  0  0  0
  -29.8580  -16.1190   19.8800 N   0  0  0  0  0  0  0  0  0  0  0  0
  -29.0900  -15.7000   20.3810 H   0  0  0  0  0  0  0  0  0  0  0  0
  -25.5120  -13.8350   20.4270 C   0  0  0  0  0  0  0  0  0  0  0  0
  -24.5270  -13.0230   20.9180 C   0  0  0  0  0  0  0  0  0  0  0  0
  -24.9470  -11.6850   20.6470 C   0  0  0  0  0  0  0  0  0  0  0  0
  -26.4690  -12.9910   19.8910 N   0  0  0  0  0  0  0  0  0  0  0  0
  -26.1500  -11.6850   20.0810 N   0  0  0  0  0  0  0  0  0  0  0  0
  -24.2450  -10.4090   20.8370 C   0  0  0  0  0  0  0  0  0  0  0  0
  -24.7150   -9.4360   21.7470 C   0  0  0  0  0  3  0  0  0  0  0  0
  -24.0110   -8.2260   21.9260 C   0  0  0  0  0  3  0  0  0  0  0  0
  -22.8230   -7.9800   21.1970 C   0  0  0  0  0  0  0  0  0  0  0  0
  -22.3710   -8.9430   20.2780 C   0  0  0  0  0  3  0  0  0  0  0  0
  -23.0780  -10.1440   20.0950 C   0  0  0  0  0  3  0  0  0  0  0  0
  -22.0870   -6.8250   21.2890 O   0  0  0  0  0  0  0  0  0  0  0  0
  -21.9010   -6.1820   22.4880 C   0  0  0  0  0  0  0  0  0  0  0  0
  -21.2960   -6.8240   23.5900 C   0  0  0  0  0  3  0  0  0  0  0  0
  -21.0610   -6.1060   24.7800 C   0  0  0  0  0  3  0  0  0  0  0  0
  -21.4190   -4.7480   24.8660 C   0  0  0  0  0  0  0  0  0  0  0  0
  -22.0170   -4.1060   23.7670 C   0  0  0  0  0  3  0  0  0  0  0  0
  -22.2550   -4.8210   22.5810 C   0  0  0  0  0  0  0  0  0  0  0  0
  -22.8110   -4.1930   21.5180 F   0  0  0  0  0  0  0  0  0  0  0  0
  -21.1860   -4.0560   26.0070 F   0  0  0  0  0  0  0  0  0  0  0  0
  -23.2220  -13.4670   21.5120 C   0  0  0  0  0  0  0  0  0  0  0  0
  -22.6860  -12.7020   22.4550 N   0  0  0  0  0  0  0  0  0  0  0  0
  -22.6950  -14.5280   21.1760 O   0  0  0  0  0  0  0  0  0  0  0  0
  -23.1290  -11.8430   22.7450 H   0  0  0  0  0  0  0  0  0  0  0  0
  -21.8190  -12.9790   22.8930 H   0  0  0  0  0  0  0  0  0  0  0  0
  -25.6610  -15.2150   20.3660 N   0  0  0  0  0  0  0  0  0  0  0  0
  -24.9430  -15.8480   20.7010 H   0  0  0  0  0  0  0  0  0  0  0  0
  -26.4100  -15.6890   19.8810 H   0  0  0  0  0  0  0  0  0  0  0  0
  -28.4030  -26.2120   19.9220 O   0  0  0  0  0  0  0  0  0  0  0  0
  -24.7230  -31.7650   23.0910 C   0  0  0  0  0  0  0  0  0  0  0  0
  -27.3390  -27.1920   19.8830 C   0  0  0  0  0  0  0  0  0  0  0  0
  -23.5280  -30.4130   21.4140 C   0  0  0  0  0  3  0  0  0  0  0  0
  -24.9860  -28.9110   19.9250 C   0  0  0  0  0  0  0  0  0  0  0  0
  -26.0780  -30.7180   21.2400 C   0  0  0  0  0  2  0  0  0  0  0  0
  -26.1660  -29.3510   20.5390 C   0  0  0  0  0  0  0  0  0  0  0  0
  -27.3410  -28.5080   20.5030 C   0  0  0  0  0  3  0  0  0  0  0  0
  -26.1310  -26.8620   19.2270 C   0  0  0  0  0  3  0  0  0  0  0  0
  -24.9810  -27.6790   19.2560 C   0  0  0  0  0  3  0  0  0  0  0  0
  -23.7470  -29.7890   20.0110 C   0  0  0  0  0  2  0  0  0  0  0  0
  -24.7960  -30.9850   21.9710 N   0  0  0  0  0  0  0  0  0  0  0  0
  -23.6370  -32.0180   23.6370 O   0  0  0  0  0  0  0  0  0  0  0  0
  -22.8690  -29.3640   22.3460 C   0  0  0  0  0  0  0  0  0  0  0  0
  -21.5440  -29.1750   22.2170 N   0  0  0  0  0  0  0  0  0  0  0  0
  -23.5550  -28.7230   23.1470 O   0  0  0  0  0  0  0  0  0  0  0  0
  -21.0460  -29.7450   21.5480 H   0  0  0  0  0  0  0  0  0  0  0  0
  -18.1760  -27.9420   22.7330 C   0  0  0  0  0  0  0  0  0  0  0  0
  -20.7400  -28.2020   22.9610 C   0  0  0  0  0  3  0  0  0  0  0  0
  -20.8350  -26.7960   22.3230 C   0  0  0  0  0  2  0  0  0  0  0  0
  -19.7130  -26.5160   21.3170 C   0  0  0  0  0  2  0  0  0  0  0  0
  -18.3440  -26.6250   21.9930 C   0  0  0  0  0  2  0  0  0  0  0  0
  -19.3010  -28.6890   23.1730 C   0  0  0  0  0  0  0  0  0  0  0  0
  -19.0880  -29.9220   23.8290 C   0  0  0  0  0  3  0  0  0  0  0  0
  -17.7840  -30.4080   24.0420 C   0  0  0  0  0  3  0  0  0  0  0  0
  -16.6750  -29.6580   23.6150 C   0  0  0  0  0  3  0  0  0  0  0  0
  -16.8730  -28.4250   22.9680 C   0  0  0  0  0  3  0  0  0  0  0  0
  -25.9980  -32.3960   23.7300 C   0  0  0  0  0  3  0  0  0  0  0  0
  -25.6810  -33.7900   24.0800 N   0  0  0  0  0  0  0  0  0  0  0  0
  -25.9760  -34.8550   23.3210 C   0  0  0  0  0  0  0  0  0  0  0  0
  -26.6100  -34.7670   22.2670 O   0  0  0  0  0  0  0  0  0  0  0  0
  -25.1150  -33.9300   24.9040 H   0  0  0  0  0  0  0  0  0  0  0  0
  -24.2180  -36.6340   23.0490 C   0  0  0  0  0  1  0  0  0  0  0  0
  -25.4920  -36.2350   23.8090 C   0  0  0  0  0  3  0  0  0  0  0  0
  -27.6440  -37.1400   24.5750 C   0  0  0  0  0  1  0  0  0  0  0  0
  -26.5090  -37.3010   23.6690 N   0  0  0  0  0  0  0  0  0  0  0  0
  -26.0980  -38.2140   23.8370 H   0  0  0  0  0  0  0  0  0  0  0  0
  -26.5060  -31.6110   25.0020 C   0  0  1  0  0  0  0  0  0  0  0  0
  -25.4030  -31.3520   26.0550 C   0  0  0  0  0  1  0  0  0  0  0  0
  -27.1040  -30.2430   24.6020 C   0  0  0  0  0  1  0  0  0  0  0  0
  -27.6440  -32.4050   25.6870 C   0  0  0  0  0  1  0  0  0  0  0  0
  1  5  1  0
  3  2  1  0
  4  1  1  0
  4 52  1  0
  4  2  1  0
  5  3  1  0
  6  1  2  0
  7 11  1  0
  8  7  2  0
  8 12  1  0
 10  9  1  0
 10 13  1  0
 11  5  1  0
 11  9  2  0
 12 10  2  0
 14 22  1  0
 15 20  1  0
 16 17  1  0
 16 15  1  0
 18 17  1  0
 18 27  1  0
 18 19  1  0
 20 14  1  0
 20 19  1  0
 21 14  2  0
 22 12  1  0
 22 23  1  0
 24 25  2  0
 25 44  1  0
 26 29  1  0
 26 25  1  0
 27 28  1  0
 27 24  1  0
 28 26  2  0
 29 30  1  0
 30 31  2  0
 32 35  1  0
 32 31  1  0
 33 32  2  0
 34 33  1  0
 34 29  2  0
 35 36  1  0
 36 41  2  0
 36 37  1  0
 37 38  2  0
 38 39  1  0
 39 43  1  0
 40 39  2  0
 41 40  1  0
 42 41  1  0
 44 45  1  0
 45 47  1  0
 45 48  1  0
 46 44  2  0
 49 24  1  0
 49 50  1  0
 51 49  1  0
 53 64  2  0
 54 52  1  0
 54 59  1  0
 55 63  1  0
 55 65  1  0
 56 62  1  0
 56 58  1  0
 57 63  1  0
 58 57  1  0
 59 58  2  0
 60 61  1  0
 60 54  2  0
 61 56  2  0
 62 55  1  0
 63 53  1  0
 65 67  2  0
 66 65  1  0
 68 66  1  0
 69 78  2  0
 69 74  1  0
 70 66  1  0
 70 74  1  0
 71 70  1  0
 72 73  1  0
 72 71  1  0
 73 69  1  0
 74 75  2  0
 75 76  1  0
 77 76  2  0
 78 77  1  0
 79 53  1  0
 79 80  1  0
 79 89  1  0
 80 83  1  0
 81 85  1  0
 81 80  1  0
 82 81  2  0
 85 84  1  0
 87 85  1  0
 87 88  1  0
 87 86  1  0
 89 92  1  1
 89 90  1  0
 91 89  1  0
M  ISO  4   4 101  14 100  22 100  52 101
M  END
>  <TORSDO>  (17) 
F 17

>  <SCORE>  (17) 
-11.511

>  <name>  (17) 
16

>  <ligand_id>  (17) 
16

>  <original_smiles>  (17) 
[H]c1c([H])c([H])c2c(c1[H])C([H])([H])C([H])([H])C([H])([H])C2([H])N([H])C(=O)C1([H])N(C(=O)C([H])(N([H])C(=O)C([H])(N([H])C([H])([H])[H])C([H])([H])[H])C(C([H])([H])[H])(C([H])([H])[H])C([H])([H])[H])C([H])([H])c2c([H])c(OC3([H])C(=O)N(c4c([H])c([H])c(N([H])C(=O)N5C([H])([H])C([H])([H])C([H])([H])C([H])(n6nc(-c7c([H])c([H])c(Oc8c([H])c([H])c(F)c([H])c8F)c([H])c7[H])c(C(=O)N([H])[H])c6N([H])[H])C5([H])[H])c(C([H])([H])[H])c4[H])C([H])([H])C3([H])[H])c([H])c([H])c2C1([H])[H]

>  <smiles>  (17) 
[H]c1c([H])c([H])c2c(c1[H])C([H])([H])C([H])([H])C([H])([H])C2([H])N([H])C(=O)C1([H])N(C(=O)C([H])(N([H])C(=O)C([H])(N([H])C([H])([H])[H])C([H])([H])[H])C(C([H])([H])[H])(C([H])([H])[H])C([H])([H])[H])C([H])([H])c2c([H])c(OC3([H])C(=O)N(c4c([H])c([H])c(N([H])C(=O)N5C([H])([H])C([H])([H])C([H])([H])C([H])(n6nc(-c7c([H])c([H])c(Oc8c([H])c([H])c(F)c([H])c8F)c([H])c7[H])c(C(=O)N([H])[H])c6N([H])[H])C5([H])[H])c(C([H])([H])[H])c4[H])C([H])([H])C3([H])[H])c([H])c([H])c2C1([H])[H]

$$$$
17:0:0
     RDKit          3D

 86 94  0  0  1  0  0  0  0  0999 V2000
  -28.9280  -22.4220   20.4370 C   0  0  0  0  0  3  0  0  0  0  0  0
  -30.3970  -15.6130   20.0550 C   0  0  0  0  0  0  0  0  0  0  0  0
  -30.3460  -13.1130   19.2130 C   0  0  0  0  0  2  0  0  0  0  0  0
  -29.4130  -12.7660   18.0250 C   0  0  0  0  0  2  0  0  0  0  0  0
  -28.0010  -12.4430   18.5290 C   0  0  0  0  0  2  0  0  0  0  0  0
  -27.5450  -13.4400   19.6210 C   0  0  0  0  0  3  0  0  0  0  0  0
  -28.6170  -13.7290   20.6970 C   0  0  0  0  0  2  0  0  0  0  0  0
  -29.7790  -14.3040   19.9890 N   0  0  0  0  0  0  0  0  0  0  0  0
  -31.6150  -15.4720   19.8380 O   0  0  0  0  0  0  0  0  0  0  0  0
  -28.5110  -17.8360   20.4010 C   0  0  0  0  0  2  0  0  0  0  0  0
  -30.5540  -18.3250   19.5020 C   0  0  0  0  0  2  0  0  0  0  0  0
  -28.2930  -19.5360   20.7270 C   0  0  0  0  0  2  0  0  0  0  0  0
  -30.3320  -19.9820   19.8790 C   0  0  0  0  0  2  0  0  0  0  0  0
  -29.8290  -17.0540   20.0570 N   0  0  0  0  0  0  0  0  0  0  0  0
  -28.9680  -20.7400   19.9630 N   0  0  2  0  0  4  0  0  0  0  0  0
  -28.5950  -20.7230   19.0250 H   0  0  0  0  0  0  0  0  0  0  0  0
  -25.2180  -13.9680   20.4890 C   0  0  0  0  0  0  0  0  0  0  0  0
  -24.1710  -13.1820   20.8780 C   0  0  0  0  0  0  0  0  0  0  0  0
  -24.6360  -11.8320   20.8020 C   0  0  0  0  0  0  0  0  0  0  0  0
  -26.2490  -13.0990   20.1870 N   0  0  0  0  0  0  0  0  0  0  0  0
  -25.9160  -11.8060   20.4430 N   0  0  0  0  0  0  0  0  0  0  0  0
  -23.9130  -10.5670   20.9900 C   0  0  0  0  0  0  0  0  0  0  0  0
  -24.3460   -9.5980   21.9220 C   0  0  0  0  0  3  0  0  0  0  0  0
  -23.6190   -8.4010   22.1010 C   0  0  0  0  0  3  0  0  0  0  0  0
  -22.4440   -8.1650   21.3490 C   0  0  0  0  0  0  0  0  0  0  0  0
  -22.0300   -9.1220   20.4060 C   0  0  0  0  0  3  0  0  0  0  0  0
  -22.7580  -10.3100   20.2250 C   0  0  0  0  0  3  0  0  0  0  0  0
  -21.6880   -7.0210   21.4370 O   0  0  0  0  0  0  0  0  0  0  0  0
  -21.6050   -6.3010   22.6030 C   0  0  0  0  0  0  0  0  0  0  0  0
  -21.1020   -6.8690   23.7940 C   0  0  0  0  0  3  0  0  0  0  0  0
  -20.9680   -6.0750   24.9510 C   0  0  0  0  0  3  0  0  0  0  0  0
  -21.3280   -4.7150   24.9160 C   0  0  0  0  0  0  0  0  0  0  0  0
  -21.8230   -4.1460   23.7300 C   0  0  0  0  0  3  0  0  0  0  0  0
  -21.9580   -4.9380   22.5760 C   0  0  0  0  0  0  0  0  0  0  0  0
  -22.4170   -4.3790   21.4300 F   0  0  0  0  0  0  0  0  0  0  0  0
  -21.1910   -3.9490   26.0250 F   0  0  0  0  0  0  0  0  0  0  0  0
  -22.7840  -13.6550   21.2010 C   0  0  0  0  0  0  0  0  0  0  0  0
  -22.0860  -12.9480   22.0810 N   0  0  0  0  0  0  0  0  0  0  0  0
  -22.3330  -14.6880   20.7090 O   0  0  0  0  0  0  0  0  0  0  0  0
  -22.4670  -12.1120   22.4990 H   0  0  0  0  0  0  0  0  0  0  0  0
  -21.1570  -13.2480   22.3420 H   0  0  0  0  0  0  0  0  0  0  0  0
  -25.3760  -15.3420   20.3330 N   0  0  0  0  0  0  0  0  0  0  0  0
  -24.6110  -15.9920   20.4820 H   0  0  0  0  0  0  0  0  0  0  0  0
  -26.2090  -15.7840   19.9680 H   0  0  0  0  0  0  0  0  0  0  0  0
  -28.0550  -24.0330   19.9590 C   0  0  0  0  0  3  0  0  0  0  0  0
  -28.1800  -25.7260   20.2860 O   0  0  0  0  0  0  0  0  0  0  0  0
  -24.6740  -31.8880   23.2420 C   0  0  0  0  0  0  0  0  0  0  0  0
  -27.1960  -26.8980   20.2060 C   0  0  0  0  0  0  0  0  0  0  0  0
  -23.4770  -30.4990   21.6020 C   0  0  0  0  0  3  0  0  0  0  0  0
  -24.9190  -28.8760   20.1690 C   0  0  0  0  0  0  0  0  0  0  0  0
  -26.0500  -30.6680   21.4620 C   0  0  0  0  0  2  0  0  0  0  0  0
  -26.1130  -29.2480   20.7980 C   0  0  0  0  0  0  0  0  0  0  0  0
  -27.2390  -28.2830   20.7890 C   0  0  0  0  0  3  0  0  0  0  0  0
  -25.9730  -26.7190   19.5190 C   0  0  0  0  0  3  0  0  0  0  0  0
  -24.8830  -27.6370   19.5060 C   0  0  0  0  0  3  0  0  0  0  0  0
  -23.7080  -29.8150   20.2250 C   0  0  0  0  0  2  0  0  0  0  0  0
  -24.7570  -31.0490   22.1550 N   0  0  0  0  0  0  0  0  0  0  0  0
  -23.5840  -32.1810   23.7630 O   0  0  0  0  0  0  0  0  0  0  0  0
  -22.7740  -29.5100   22.5700 C   0  0  0  0  0  0  0  0  0  0  0  0
  -21.4440  -29.3430   22.4430 N   0  0  0  0  0  0  0  0  0  0  0  0
  -23.4360  -28.8900   23.4060 O   0  0  0  0  0  0  0  0  0  0  0  0
  -20.9600  -29.8950   21.7470 H   0  0  0  0  0  0  0  0  0  0  0  0
  -18.0650  -28.1090   22.9460 C   0  0  0  0  0  0  0  0  0  0  0  0
  -20.6230  -28.4010   23.2130 C   0  0  0  0  0  3  0  0  0  0  0  0
  -20.7360  -26.9690   22.6400 C   0  0  0  0  0  2  0  0  0  0  0  0
  -19.6390  -26.6360   21.6240 C   0  0  0  0  0  2  0  0  0  0  0  0
  -18.2550  -26.7640   22.2660 C   0  0  0  0  0  2  0  0  0  0  0  0
  -19.1750  -28.8860   23.3760 C   0  0  0  0  0  0  0  0  0  0  0  0
  -18.9390  -30.1400   23.9780 C   0  0  0  0  0  3  0  0  0  0  0  0
  -17.6280  -30.6220   24.1490 C   0  0  0  0  0  3  0  0  0  0  0  0
  -16.5330  -29.8460   23.7320 C   0  0  0  0  0  3  0  0  0  0  0  0
  -16.7530  -28.5910   23.1370 C   0  0  0  0  0  3  0  0  0  0  0  0
  -25.9430  -32.5330   23.8780 C   0  0  0  0  0  3  0  0  0  0  0  0
  -25.6300  -33.9390   24.1990 N   0  0  0  0  0  0  0  0  0  0  0  0
  -25.9440  -34.9920   23.4330 C   0  0  0  0  0  0  0  0  0  0  0  0
  -26.5850  -34.8830   22.3850 O   0  0  0  0  0  0  0  0  0  0  0  0
  -25.0550  -34.0960   25.0140 H   0  0  0  0  0  0  0  0  0  0  0  0
  -24.1960  -36.7850   23.1450 C   0  0  0  0  0  1  0  0  0  0  0  0
  -25.4750  -36.3870   23.9000 C   0  0  0  0  0  3  0  0  0  0  0  0
  -27.6370  -37.3000   24.6290 C   0  0  0  0  0  1  0  0  0  0  0  0
  -26.4980  -37.4430   23.7260 N   0  0  0  0  0  0  0  0  0  0  0  0
  -26.0940  -38.3640   23.8700 H   0  0  0  0  0  0  0  0  0  0  0  0
  -26.4300  -31.7820   25.1810 C   0  0  1  0  0  0  0  0  0  0  0  0
  -25.3170  -31.5720   26.2340 C   0  0  0  0  0  1  0  0  0  0  0  0
  -27.0110  -30.3920   24.8340 C   0  0  0  0  0  1  0  0  0  0  0  0
  -27.5750  -32.5810   25.8470 C   0  0  0  0  0  1  0  0  0  0  0  0
  2 14  1  0
  3  8  1  0
  4  5  1  0
  4  3  1  0
  6  5  1  0
  6 20  1  0
  6  7  1  0
  8  2  1  0
  8  7  1  0
  9  2  2  0
 10 12  1  0
 11 13  1  0
 11 14  1  0
 13 15  1  0
 14 10  1  0
 15  1  1  0
 15 12  1  0
 15 16  1  6
 17 18  2  0
 18 37  1  0
 19 18  1  0
 19 22  1  0
 20 21  1  0
 20 17  1  0
 21 19  2  0
 22 23  1  0
 23 24  2  0
 25 28  1  0
 25 24  1  0
 26 25  2  0
 27 26  1  0
 27 22  2  0
 28 29  1  0
 29 30  1  0
 30 31  2  0
 32 31  1  0
 32 36  1  0
 33 32  2  0
 34 29  2  0
 34 33  1  0
 35 34  1  0
 37 38  1  0
 38 41  1  0
 38 40  1  0
 39 37  2  0
 42 43  1  0
 42 17  1  0
 44 42  1  0
 45 46  1  0
 45  1  2  0
 47 58  2  0
 48 46  1  0
 48 53  1  0
 49 57  1  0
 49 59  1  0
 50 56  1  0
 50 52  1  0
 51 57  1  0
 52 51  1  0
 53 52  2  0
 54 48  2  0
 55 54  1  0
 55 50  2  0
 56 49  1  0
 57 47  1  0
 59 61  2  0
 60 59  1  0
 62 60  1  0
 63 72  2  0
 63 68  1  0
 64 60  1  0
 64 68  1  0
 65 64  1  0
 66 67  1  0
 66 65  1  0
 67 63  1  0
 68 69  2  0
 69 70  1  0
 71 70  2  0
 72 71  1  0
 73 47  1  0
 73 74  1  0
 73 83  1  0
 74 77  1  0
 75 79  1  0
 75 74  1  0
 76 75  2  0
 79 78  1  0
 81 82  1  0
 81 79  1  0
 81 80  1  0
 83 86  1  1
 83 84  1  0
 85 83  1  0
M  ISO  4   2 100  14 100  45 101  46 101
M  END
>  <TORSDO>  (18) 
F 17

>  <SCORE>  (18) 
-16.400

>  <name>  (18) 
17

>  <ligand_id>  (18) 
17

>  <original_smiles>  (18) 
[H]c1c([H])c([H])c2c(c1[H])C([H])([H])C([H])([H])C([H])([H])C2([H])N([H])C(=O)C1([H])N(C(=O)C([H])(N([H])C(=O)C([H])(N([H])C([H])([H])[H])C([H])([H])[H])C(C([H])([H])[H])(C([H])([H])[H])C([H])([H])[H])C([H])([H])c2c([H])c(OC([H])([H])C([H])([H])[N+]3([H])C([H])([H])C([H])([H])N(C(=O)N4C([H])([H])C([H])([H])C([H])([H])C([H])(n5nc(-c6c([H])c([H])c(Oc7c([H])c([H])c(F)c([H])c7F)c([H])c6[H])c(C(=O)N([H])[H])c5N([H])[H])C4([H])[H])C([H])([H])C3([H])[H])c([H])c([H])c2C1([H])[H]

>  <smiles>  (18) 
[H]c1c([H])c([H])c2c(c1[H])C([H])([H])C([H])([H])C([H])([H])C2([H])N([H])C(=O)C1([H])N(C(=O)C([H])(N([H])C(=O)C([H])(N([H])C([H])([H])[H])C([H])([H])[H])C(C([H])([H])[H])(C([H])([H])[H])C([H])([H])[H])C([H])([H])c2c([H])c(OC([H])([H])C([H])([H])[N+]3([H])C([H])([H])C([H])([H])N(C(=O)N4C([H])([H])C([H])([H])C([H])([H])C([H])(n5nc(-c6c([H])c([H])c(Oc7c([H])c([H])c(F)c([H])c7F)c([H])c6[H])c(C(=O)N([H])[H])c5N([H])[H])C4([H])[H])C([H])([H])C3([H])[H])c([H])c([H])c2C1([H])[H]

$$$$
18:0:0
     RDKit          3D

 92100  0  0  1  0  0  0  0  0999 V2000
  -29.2800  -21.1060   19.9250 C   0  0  0  0  0  2  0  0  0  0  0  0
  -31.1390  -18.7770   22.4360 C   0  0  0  0  0  3  0  0  0  0  0  0
  -30.5640  -19.9060   21.8160 C   0  0  0  0  0  3  0  0  0  0  0  0
  -30.9500  -17.4770   21.9170 C   0  0  0  0  0  3  0  0  0  0  0  0
  -29.7600  -19.7790   20.6630 C   0  0  0  0  0  0  0  0  0  0  0  0
  -30.1490  -17.2490   20.7750 C   0  0  0  0  0  0  0  0  0  0  0  0
  -29.5430  -18.4250   20.1720 C   0  0  0  0  0  0  0  0  0  0  0  0
  -28.7480  -18.2500   19.0890 F   0  0  0  0  0  0  0  0  0  0  0  0
  -30.6450  -14.7440   20.1520 C   0  0  0  0  0  0  0  0  0  0  0  0
  -30.3880  -12.5010   19.0540 C   0  0  0  0  0  2  0  0  0  0  0  0
  -29.3890  -12.6020   17.8790 C   0  0  0  0  0  2  0  0  0  0  0  0
  -27.9430  -12.4230   18.3750 C   0  0  0  0  0  2  0  0  0  0  0  0
  -27.6290  -13.3040   19.6090 C   0  0  0  0  0  3  0  0  0  0  0  0
  -28.7310  -13.1730   20.6850 C   0  0  0  0  0  2  0  0  0  0  0  0
  -30.0050  -13.5300   20.0480 N   0  0  0  0  0  0  0  0  0  0  0  0
  -31.8230  -14.8570   19.8010 O   0  0  0  0  0  0  0  0  0  0  0  0
  -29.8490  -15.8520   20.3830 N   0  0  0  0  0  0  0  0  0  0  0  0
  -28.8630  -15.6460   20.3700 H   0  0  0  0  0  0  0  0  0  0  0  0
  -25.2780  -13.9210   20.4230 C   0  0  0  0  0  0  0  0  0  0  0  0
  -24.2170  -13.1560   20.8280 C   0  0  0  0  0  0  0  0  0  0  0  0
  -24.6620  -11.8000   20.7740 C   0  0  0  0  0  0  0  0  0  0  0  0
  -26.3020  -13.0310   20.1460 N   0  0  0  0  0  0  0  0  0  0  0  0
  -25.9410  -11.7510   20.4200 N   0  0  0  0  0  0  0  0  0  0  0  0
  -23.9330  -10.5440   20.9770 C   0  0  0  0  0  0  0  0  0  0  0  0
  -24.3810   -9.5670   21.8940 C   0  0  0  0  0  3  0  0  0  0  0  0
  -23.6450   -8.3780   22.0880 C   0  0  0  0  0  3  0  0  0  0  0  0
  -22.4480   -8.1580   21.3660 C   0  0  0  0  0  0  0  0  0  0  0  0
  -22.0220   -9.1230   20.4380 C   0  0  0  0  0  3  0  0  0  0  0  0
  -22.7570  -10.3030   20.2400 C   0  0  0  0  0  3  0  0  0  0  0  0
  -21.6860   -7.0190   21.4680 O   0  0  0  0  0  0  0  0  0  0  0  0
  -21.6550   -6.2760   22.6200 C   0  0  0  0  0  0  0  0  0  0  0  0
  -21.2500   -6.8300   23.8540 C   0  0  0  0  0  3  0  0  0  0  0  0
  -21.1650   -6.0160   25.0000 C   0  0  0  0  0  3  0  0  0  0  0  0
  -21.4750   -4.6440   24.9150 C   0  0  0  0  0  0  0  0  0  0  0  0
  -21.8760   -4.0890   23.6880 C   0  0  0  0  0  3  0  0  0  0  0  0
  -21.9630   -4.9020   22.5430 C   0  0  0  0  0  0  0  0  0  0  0  0
  -22.3280   -4.3580   21.3570 F   0  0  0  0  0  0  0  0  0  0  0  0
  -21.3920   -3.8570   26.0130 F   0  0  0  0  0  0  0  0  0  0  0  0
  -22.8360  -13.6470   21.1530 C   0  0  0  0  0  0  0  0  0  0  0  0
  -22.1350  -12.9480   22.0390 N   0  0  0  0  0  0  0  0  0  0  0  0
  -22.3900  -14.6810   20.6610 O   0  0  0  0  0  0  0  0  0  0  0  0
  -22.5130  -12.1070   22.4520 H   0  0  0  0  0  0  0  0  0  0  0  0
  -21.2120  -13.2570   22.3120 H   0  0  0  0  0  0  0  0  0  0  0  0
  -25.4450  -15.2890   20.2360 N   0  0  0  0  0  0  0  0  0  0  0  0
  -24.6670  -15.9330   20.3210 H   0  0  0  0  0  0  0  0  0  0  0  0
  -26.2530  -15.7020   19.7840 H   0  0  0  0  0  0  0  0  0  0  0  0
  -28.7840  -22.3250   20.7140 N   0  0  0  0  0  4  0  0  0  0  0  0
  -27.7940  -22.1830   20.8370 H   0  0  0  0  0  0  0  0  0  0  0  0
  -29.1950  -22.2820   21.6320 H   0  0  0  0  0  0  0  0  0  0  0  0
  -29.0250  -23.7480   20.1580 C   0  0  0  0  0  3  0  0  0  0  0  0
  -28.1140  -24.9620   20.7100 C   0  0  0  0  0  3  0  0  0  0  0  0
  -28.4010  -26.4020   20.3750 O   0  0  0  0  0  0  0  0  0  0  0  0
  -24.6230  -31.8830   23.2570 C   0  0  0  0  0  0  0  0  0  0  0  0
  -27.3130  -27.2930   20.3050 C   0  0  0  0  0  0  0  0  0  0  0  0
  -23.4650  -30.4720   21.5970 C   0  0  0  0  0  3  0  0  0  0  0  0
  -24.9560  -28.9220   20.2110 C   0  0  0  0  0  0  0  0  0  0  0  0
  -26.0080  -30.7990   21.4670 C   0  0  0  0  0  2  0  0  0  0  0  0
  -26.1080  -29.4090   20.8450 C   0  0  0  0  0  0  0  0  0  0  0  0
  -27.2890  -28.6040   20.8890 C   0  0  0  0  0  3  0  0  0  0  0  0
  -26.1500  -26.8870   19.6150 C   0  0  0  0  0  3  0  0  0  0  0  0
  -24.9830  -27.6680   19.5860 C   0  0  0  0  0  3  0  0  0  0  0  0
  -23.7160  -29.7930   20.2230 C   0  0  0  0  0  2  0  0  0  0  0  0
  -24.7170  -31.0700   22.1630 N   0  0  0  0  0  0  0  0  0  0  0  0
  -23.5270  -32.1540   23.7650 O   0  0  0  0  0  0  0  0  0  0  0  0
  -22.7870  -29.4580   22.5460 C   0  0  0  0  0  0  0  0  0  0  0  0
  -21.4640  -29.2730   22.3940 N   0  0  0  0  0  0  0  0  0  0  0  0
  -23.4510  -28.8370   23.3800 O   0  0  0  0  0  0  0  0  0  0  0  0
  -20.9810  -29.8250   21.6980 H   0  0  0  0  0  0  0  0  0  0  0  0
  -18.0870  -28.0560   22.8310 C   0  0  0  0  0  0  0  0  0  0  0  0
  -20.6370  -28.3350   23.1590 C   0  0  0  0  0  3  0  0  0  0  0  0
  -20.7630  -26.8980   22.6010 C   0  0  0  0  0  2  0  0  0  0  0  0
  -19.6890  -26.5550   21.5630 C   0  0  0  0  0  2  0  0  0  0  0  0
  -18.2900  -26.7020   22.1740 C   0  0  0  0  0  2  0  0  0  0  0  0
  -19.1910  -28.8270   23.2840 C   0  0  0  0  0  0  0  0  0  0  0  0
  -18.9490  -30.0930   23.8640 C   0  0  0  0  0  3  0  0  0  0  0  0
  -17.6380  -30.5870   23.9960 C   0  0  0  0  0  3  0  0  0  0  0  0
  -16.5490  -29.8110   23.5640 C   0  0  0  0  0  3  0  0  0  0  0  0
  -16.7740  -28.5480   22.9860 C   0  0  0  0  0  3  0  0  0  0  0  0
  -25.8860  -32.5310   23.9030 C   0  0  0  0  0  3  0  0  0  0  0  0
  -26.3730  -31.7770   25.2030 C   0  0  1  0  0  0  0  0  0  0  0  0
  -25.2550  -31.5480   26.2440 C   0  0  0  0  0  1  0  0  0  0  0  0
  -26.9700  -30.3980   24.8410 C   0  0  0  0  0  1  0  0  0  0  0  0
  -27.5060  -32.5810   25.8840 C   0  0  0  0  0  1  0  0  0  0  0  0
  -25.5620  -33.9310   24.2080 N   0  0  0  0  0  0  0  0  0  0  0  0
  -25.9070  -34.9780   23.4460 C   0  0  0  0  0  0  0  0  0  0  0  0
  -26.6030  -34.8650   22.4320 O   0  0  0  0  0  0  0  0  0  0  0  0
  -24.9430  -34.0950   24.9890 H   0  0  0  0  0  0  0  0  0  0  0  0
  -24.1820  -36.7630   23.0340 C   0  0  0  0  0  1  0  0  0  0  0  0
  -25.4050  -36.3700   23.8760 C   0  0  0  0  0  3  0  0  0  0  0  0
  -27.5150  -37.2770   24.7460 C   0  0  0  0  0  1  0  0  0  0  0  0
  -26.4350  -37.4260   23.7740 N   0  0  0  0  0  0  0  0  0  0  0  0
  -26.0220  -38.3480   23.8960 H   0  0  0  0  0  0  0  0  0  0  0  0
  1  5  1  0
  1 47  1  0
  3  2  2  0
  4  2  1  0
  5  3  1  0
  6  4  2  0
  7  5  2  0
  7  6  1  0
  8  7  1  0
  9 17  1  0
 10 15  1  0
 11 12  1  0
 11 10  1  0
 13 12  1  0
 13 22  1  0
 13 14  1  0
 15  9  1  0
 15 14  1  0
 16  9  2  0
 17  6  1  0
 18 17  1  0
 19 20  2  0
 20 39  1  0
 21 20  1  0
 21 24  1  0
 22 23  1  0
 22 19  1  0
 23 21  2  0
 24 25  1  0
 25 26  2  0
 27 30  1  0
 27 26  1  0
 28 27  2  0
 29 28  1  0
 29 24  2  0
 30 31  1  0
 31 32  1  0
 32 33  2  0
 34 33  1  0
 34 38  1  0
 35 34  2  0
 36 31  2  0
 36 35  1  0
 37 36  1  0
 39 40  1  0
 40 43  1  0
 40 42  1  0
 41 39  2  0
 44 45  1  0
 44 19  1  0
 46 44  1  0
 47 48  1  0
 47 49  1  0
 50 51  2  0
 50 47  1  0
 52 51  1  0
 53 64  2  0
 54 52  1  0
 54 59  1  0
 55 63  1  0
 55 65  1  0
 56 62  1  0
 56 58  1  0
 57 63  1  0
 58 59  2  0
 58 57  1  0
 60 54  2  0
 61 60  1  0
 61 56  2  0
 62 55  1  0
 63 53  1  0
 65 67  2  0
 66 65  1  0
 68 66  1  0
 69 78  2  0
 69 74  1  0
 70 66  1  0
 70 74  1  0
 71 70  1  0
 72 73  1  0
 72 71  1  0
 73 69  1  0
 74 75  2  0
 75 76  1  0
 77 76  2  0
 78 77  1  0
 79 53  1  0
 79 84  1  0
 79 80  1  0
 80 83  1  1
 80 81  1  0
 82 80  1  0
 84 87  1  0
 85 89  1  0
 85 84  1  0
 86 85  2  0
 89 88  1  0
 91 89  1  0
 91 92  1  0
 91 90  1  0
M  ISO  4   9 100  17 100  51 101  52 101
M  END
>  <TORSDO>  (19) 
F 20

>  <SCORE>  (19) 
-13.888

>  <name>  (19) 
18

>  <ligand_id>  (19) 
18

>  <original_smiles>  (19) 
[H]c1c([H])c([H])c2c(c1[H])C([H])([H])C([H])([H])C([H])([H])C2([H])N([H])C(=O)C1([H])N(C(=O)C([H])(N([H])C(=O)C([H])(N([H])C([H])([H])[H])C([H])([H])[H])C(C([H])([H])[H])(C([H])([H])[H])C([H])([H])[H])C([H])([H])c2c([H])c(OC([H])([H])C([H])([H])[N+]([H])([H])C([H])([H])c3c([H])c([H])c([H])c(N([H])C(=O)N4C([H])([H])C([H])([H])C([H])([H])C([H])(n5nc(-c6c([H])c([H])c(Oc7c([H])c([H])c(F)c([H])c7F)c([H])c6[H])c(C(=O)N([H])[H])c5N([H])[H])C4([H])[H])c3F)c([H])c([H])c2C1([H])[H]

>  <smiles>  (19) 
[H]c1c([H])c([H])c2c(c1[H])C([H])([H])C([H])([H])C([H])([H])C2([H])N([H])C(=O)C1([H])N(C(=O)C([H])(N([H])C(=O)C([H])(N([H])C([H])([H])[H])C([H])([H])[H])C(C([H])([H])[H])(C([H])([H])[H])C([H])([H])[H])C([H])([H])c2c([H])c(OC([H])([H])C([H])([H])[N+]([H])([H])C([H])([H])c3c([H])c([H])c([H])c(N([H])C(=O)N4C([H])([H])C([H])([H])C([H])([H])C([H])(n5nc(-c6c([H])c([H])c(Oc7c([H])c([H])c(F)c([H])c7F)c([H])c6[H])c(C(=O)N([H])[H])c5N([H])[H])C4([H])[H])c3F)c([H])c([H])c2C1([H])[H]

$$$$
19:0:0
     RDKit          3D

 83 90  0  0  1  0  0  0  0  0999 V2000
  -27.9490  -23.9120   20.2000 C   0  0  0  0  0  3  0  0  0  0  0  0
  -28.1500  -25.6420   20.2980 O   0  0  0  0  0  0  0  0  0  0  0  0
  -24.6720  -31.8880   23.2420 C   0  0  0  0  0  0  0  0  0  0  0  0
  -27.1710  -26.8340   20.2470 C   0  0  0  0  0  0  0  0  0  0  0  0
  -23.4710  -30.4970   21.6080 C   0  0  0  0  0  3  0  0  0  0  0  0
  -24.9060  -28.8480   20.1930 C   0  0  0  0  0  0  0  0  0  0  0  0
  -26.0490  -30.6390   21.4750 C   0  0  0  0  0  2  0  0  0  0  0  0
  -26.1040  -29.2100   20.8200 C   0  0  0  0  0  0  0  0  0  0  0  0
  -27.2230  -28.2300   20.8150 C   0  0  0  0  0  3  0  0  0  0  0  0
  -25.9390  -26.6690   19.5680 C   0  0  0  0  0  3  0  0  0  0  0  0
  -24.8600  -27.6020   19.5430 C   0  0  0  0  0  3  0  0  0  0  0  0
  -23.7020  -29.8000   20.2370 C   0  0  0  0  0  2  0  0  0  0  0  0
  -24.7550  -31.0400   22.1610 N   0  0  0  0  0  0  0  0  0  0  0  0
  -23.5830  -32.1920   23.7560 O   0  0  0  0  0  0  0  0  0  0  0  0
  -22.7560  -29.5220   22.5800 C   0  0  0  0  0  0  0  0  0  0  0  0
  -21.4230  -29.3690   22.4550 N   0  0  0  0  0  0  0  0  0  0  0  0
  -23.4110  -28.8980   23.4200 O   0  0  0  0  0  0  0  0  0  0  0  0
  -20.9460  -29.9220   21.7570 H   0  0  0  0  0  0  0  0  0  0  0  0
  -18.0330  -28.1690   22.9680 C   0  0  0  0  0  0  0  0  0  0  0  0
  -20.5930  -28.4390   23.2300 C   0  0  0  0  0  3  0  0  0  0  0  0
  -20.6940  -27.0020   22.6640 C   0  0  0  0  0  2  0  0  0  0  0  0
  -19.5940  -26.6750   21.6500 C   0  0  0  0  0  2  0  0  0  0  0  0
  -18.2110  -26.8200   22.2910 C   0  0  0  0  0  2  0  0  0  0  0  0
  -19.1500  -28.9350   23.3940 C   0  0  0  0  0  0  0  0  0  0  0  0
  -18.9270  -30.1950   23.9910 C   0  0  0  0  0  3  0  0  0  0  0  0
  -17.6200  -30.6890   24.1620 C   0  0  0  0  0  3  0  0  0  0  0  0
  -16.5170  -29.9210   23.7490 C   0  0  0  0  0  3  0  0  0  0  0  0
  -16.7250  -28.6620   23.1580 C   0  0  0  0  0  3  0  0  0  0  0  0
  -25.9420  -32.5310   23.8780 C   0  0  0  0  0  3  0  0  0  0  0  0
  -26.4400  -31.7670   25.1680 C   0  0  1  0  0  0  0  0  0  0  0  0
  -25.3350  -31.5460   26.2290 C   0  0  0  0  0  1  0  0  0  0  0  0
  -27.0170  -30.3800   24.8050 C   0  0  0  0  0  1  0  0  0  0  0  0
  -27.5910  -32.5580   25.8350 C   0  0  0  0  0  1  0  0  0  0  0  0
  -25.6270  -33.9320   24.2180 N   0  0  0  0  0  0  0  0  0  0  0  0
  -25.9330  -34.9970   23.4640 C   0  0  0  0  0  0  0  0  0  0  0  0
  -26.5690  -34.9020   22.4100 O   0  0  0  0  0  0  0  0  0  0  0  0
  -25.0570  -34.0770   25.0370 H   0  0  0  0  0  0  0  0  0  0  0  0
  -24.1800  -36.7890   23.2110 C   0  0  0  0  0  1  0  0  0  0  0  0
  -25.4650  -36.3850   23.9520 C   0  0  0  0  0  3  0  0  0  0  0  0
  -27.6320  -37.2910   24.6730 C   0  0  0  0  0  1  0  0  0  0  0  0
  -26.4840  -37.4450   23.7830 N   0  0  0  0  0  0  0  0  0  0  0  0
  -26.0790  -38.3630   23.9460 H   0  0  0  0  0  0  0  0  0  0  0  0
  -28.9470  -22.2690   20.2790 C   0  0  0  0  0  3  0  0  0  0  0  0
  -28.7110  -20.3580   20.2370 C   0  0  0  0  0  3  0  0  0  0  0  0
  -29.7530  -18.7430   20.2450 C   0  0  0  0  0  3  0  0  0  0  0  0
  -30.2820  -15.6460   20.1480 C   0  0  0  0  0  0  0  0  0  0  0  0
  -30.3500  -13.1330   19.2860 C   0  0  0  0  0  2  0  0  0  0  0  0
  -29.4300  -12.7740   18.0850 C   0  0  0  0  0  2  0  0  0  0  0  0
  -28.0130  -12.4240   18.5630 C   0  0  0  0  0  2  0  0  0  0  0  0
  -27.5300  -13.4030   19.6600 C   0  0  0  0  0  3  0  0  0  0  0  0
  -28.5860  -13.6800   20.7550 C   0  0  0  0  0  2  0  0  0  0  0  0
  -29.7510  -14.2930   20.0790 N   0  0  0  0  0  0  0  0  0  0  0  0
  -31.5110  -15.5990   19.9480 O   0  0  0  0  0  0  0  0  0  0  0  0
  -29.5270  -16.9940   20.2480 N   0  0  0  0  0  0  0  0  0  0  0  0
  -28.5450  -16.7820   20.3500 H   0  0  0  0  0  0  0  0  0  0  0  0
  -25.1770  -13.9060   20.4730 C   0  0  0  0  0  0  0  0  0  0  0  0
  -24.1340  -13.1120   20.8550 C   0  0  0  0  0  0  0  0  0  0  0  0
  -24.6200  -11.7680   20.8040 C   0  0  0  0  0  0  0  0  0  0  0  0
  -26.2270  -13.0500   20.2020 N   0  0  0  0  0  0  0  0  0  0  0  0
  -25.9070  -11.7560   20.4690 N   0  0  0  0  0  0  0  0  0  0  0  0
  -23.9110  -10.4960   20.9970 C   0  0  0  0  0  0  0  0  0  0  0  0
  -24.3510   -9.5380   21.9370 C   0  0  0  0  0  3  0  0  0  0  0  0
  -23.6360   -8.3340   22.1190 C   0  0  0  0  0  3  0  0  0  0  0  0
  -22.4690   -8.0770   21.3610 C   0  0  0  0  0  0  0  0  0  0  0  0
  -22.0480   -9.0240   20.4100 C   0  0  0  0  0  3  0  0  0  0  0  0
  -22.7630  -10.2200   20.2260 C   0  0  0  0  0  3  0  0  0  0  0  0
  -21.7270   -6.9240   21.4530 O   0  0  0  0  0  0  0  0  0  0  0  0
  -21.6590   -6.2030   22.6170 C   0  0  0  0  0  0  0  0  0  0  0  0
  -21.1670   -6.7650   23.8150 C   0  0  0  0  0  3  0  0  0  0  0  0
  -21.0490   -5.9670   24.9700 C   0  0  0  0  0  3  0  0  0  0  0  0
  -21.4130   -4.6090   24.9290 C   0  0  0  0  0  0  0  0  0  0  0  0
  -21.8990   -4.0450   23.7360 C   0  0  0  0  0  3  0  0  0  0  0  0
  -22.0180   -4.8400   22.5820 C   0  0  0  0  0  0  0  0  0  0  0  0
  -22.4660   -4.2870   21.4300 F   0  0  0  0  0  0  0  0  0  0  0  0
  -21.2940   -3.8400   26.0380 F   0  0  0  0  0  0  0  0  0  0  0  0
  -22.7360  -13.5700   21.1460 C   0  0  0  0  0  0  0  0  0  0  0  0
  -22.0320  -12.8660   22.0240 N   0  0  0  0  0  0  0  0  0  0  0  0
  -22.2780  -14.5880   20.6300 O   0  0  0  0  0  0  0  0  0  0  0  0
  -22.4170  -12.0420   22.4630 H   0  0  0  0  0  0  0  0  0  0  0  0
  -21.0930  -13.1550   22.2630 H   0  0  0  0  0  0  0  0  0  0  0  0
  -25.3150  -15.2810   20.3020 N   0  0  0  0  0  0  0  0  0  0  0  0
  -24.5370  -15.9190   20.4270 H   0  0  0  0  0  0  0  0  0  0  0  0
  -26.1390  -15.7310   19.9280 H   0  0  0  0  0  0  0  0  0  0  0  0
  1 43  2  0
  1  2  1  0
  3 14  2  0
  4  2  1  0
  4  9  1  0
  5 13  1  0
  5 15  1  0
  6 12  1  0
  6  8  1  0
  7 13  1  0
  8  7  1  0
  9  8  2  0
 10  4  2  0
 11 10  1  0
 11  6  2  0
 12  5  1  0
 13  3  1  0
 15 17  2  0
 16 15  1  0
 18 16  1  0
 19 28  2  0
 19 24  1  0
 20 16  1  0
 20 24  1  0
 21 20  1  0
 22 23  1  0
 22 21  1  0
 23 19  1  0
 24 25  2  0
 25 26  1  0
 27 26  2  0
 28 27  1  0
 29  3  1  0
 29 34  1  0
 29 30  1  0
 30 33  1  1
 30 31  1  0
 32 30  1  0
 34 37  1  0
 35 39  1  0
 35 34  1  0
 36 35  2  0
 39 38  1  0
 41 42  1  0
 41 39  1  0
 41 40  1  0
 44 45  2  0
 44 43  1  0
 45 54  1  0
 46 54  1  0
 47 52  1  0
 48 49  1  0
 48 47  1  0
 50 49  1  0
 50 59  1  0
 50 51  1  0
 52 46  1  0
 52 51  1  0
 53 46  2  0
 54 55  1  0
 56 57  2  0
 57 76  1  0
 58 57  1  0
 58 61  1  0
 59 60  1  0
 59 56  1  0
 60 58  2  0
 61 62  1  0
 62 63  2  0
 64 67  1  0
 64 63  1  0
 65 64  2  0
 66 65  1  0
 66 61  2  0
 67 68  1  0
 68 69  1  0
 69 70  2  0
 71 70  1  0
 71 75  1  0
 72 71  2  0
 73 68  2  0
 73 72  1  0
 74 73  1  0
 76 77  1  0
 77 80  1  0
 77 79  1  0
 78 76  2  0
 81 82  1  0
 81 56  1  0
 83 81  1  0
M  ISO  4   1 101   2 101  46 100  54 100
M  END
>  <TORSDO>  (20) 
F 19

>  <SCORE>  (20) 
-16.287

>  <name>  (20) 
19

>  <ligand_id>  (20) 
19

>  <original_smiles>  (20) 
[H]c1c([H])c([H])c2c(c1[H])C([H])([H])C([H])([H])C([H])([H])C2([H])N([H])C(=O)C1([H])N(C(=O)C([H])(N([H])C(=O)C([H])(N([H])C([H])([H])[H])C([H])([H])[H])C(C([H])([H])[H])(C([H])([H])[H])C([H])([H])[H])C([H])([H])c2c([H])c(OC([H])([H])C([H])([H])C([H])([H])C([H])([H])N([H])C(=O)N3C([H])([H])C([H])([H])C([H])([H])C([H])(n4nc(-c5c([H])c([H])c(Oc6c([H])c([H])c(F)c([H])c6F)c([H])c5[H])c(C(=O)N([H])[H])c4N([H])[H])C3([H])[H])c([H])c([H])c2C1([H])[H]

>  <smiles>  (20) 
[H]c1c([H])c([H])c2c(c1[H])C([H])([H])C([H])([H])C([H])([H])C2([H])N([H])C(=O)C1([H])N(C(=O)C([H])(N([H])C(=O)C([H])(N([H])C([H])([H])[H])C([H])([H])[H])C(C([H])([H])[H])(C([H])([H])[H])C([H])([H])[H])C([H])([H])c2c([H])c(OC([H])([H])C([H])([H])C([H])([H])C([H])([H])N([H])C(=O)N3C([H])([H])C([H])([H])C([H])([H])C([H])(n4nc(-c5c([H])c([H])c(Oc6c([H])c([H])c(F)c([H])c6F)c([H])c5[H])c(C(=O)N([H])[H])c4N([H])[H])C3([H])[H])c([H])c([H])c2C1([H])[H]

$$$$
20:0:0
     RDKit          3D

 88 96  0  0  1  0  0  0  0  0999 V2000
  -30.5810  -19.2010   20.7390 C   0  0  0  0  0  2  0  0  0  0  0  0
  -28.5630  -18.9160   19.4600 C   0  0  0  0  0  2  0  0  0  0  0  0
  -30.0840  -20.7350   21.1300 C   0  0  0  0  0  2  0  0  0  0  0  0
  -28.1050  -20.4830   19.7770 C   0  0  0  0  0  2  0  0  0  0  0  0
  -29.4620  -18.0610   20.5000 C   0  0  0  0  0  3  0  0  0  0  0  0
  -29.1430  -21.5440   20.2000 N   0  0  1  0  0  4  0  0  0  0  0  0
  -29.7000  -21.7290   19.3740 H   0  0  0  0  0  0  0  0  0  0  0  0
  -30.4360  -15.2140   20.2770 C   0  0  0  0  0  0  0  0  0  0  0  0
  -30.4010  -12.7930   19.3720 C   0  0  0  0  0  2  0  0  0  0  0  0
  -29.4660  -12.6360   18.1460 C   0  0  0  0  0  2  0  0  0  0  0  0
  -28.0210  -12.3660   18.6090 C   0  0  0  0  0  2  0  0  0  0  0  0
  -27.5830  -13.3360   19.7360 C   0  0  0  0  0  3  0  0  0  0  0  0
  -28.6410  -13.4250   20.8590 C   0  0  0  0  0  2  0  0  0  0  0  0
  -29.8800  -13.9150   20.2280 N   0  0  0  0  0  0  0  0  0  0  0  0
  -31.6460  -15.2680   20.0270 O   0  0  0  0  0  0  0  0  0  0  0  0
  -29.6000  -16.4080   20.4150 N   0  0  0  0  0  0  0  0  0  0  0  0
  -28.6760  -16.0330   20.5670 H   0  0  0  0  0  0  0  0  0  0  0  0
  -25.1970  -13.9060   20.4680 C   0  0  0  0  0  0  0  0  0  0  0  0
  -24.1370  -13.1320   20.8400 C   0  0  0  0  0  0  0  0  0  0  0  0
  -24.6030  -11.7780   20.8170 C   0  0  0  0  0  0  0  0  0  0  0  0
  -26.2470  -13.0310   20.2370 N   0  0  0  0  0  0  0  0  0  0  0  0
  -25.8990  -11.7460   20.5160 N   0  0  0  0  0  0  0  0  0  0  0  0
  -23.8790  -10.5160   21.0110 C   0  0  0  0  0  0  0  0  0  0  0  0
  -24.3130   -9.5540   21.9510 C   0  0  0  0  0  3  0  0  0  0  0  0
  -23.5890   -8.3560   22.1340 C   0  0  0  0  0  3  0  0  0  0  0  0
  -22.4200   -8.1100   21.3790 C   0  0  0  0  0  0  0  0  0  0  0  0
  -22.0020   -9.0600   20.4300 C   0  0  0  0  0  3  0  0  0  0  0  0
  -22.7250  -10.2500   20.2450 C   0  0  0  0  0  3  0  0  0  0  0  0
  -21.6710   -6.9600   21.4690 O   0  0  0  0  0  0  0  0  0  0  0  0
  -21.6260   -6.2210   22.6240 C   0  0  0  0  0  0  0  0  0  0  0  0
  -21.1950   -6.7780   23.8480 C   0  0  0  0  0  3  0  0  0  0  0  0
  -21.0980   -5.9660   24.9950 C   0  0  0  0  0  3  0  0  0  0  0  0
  -21.4210   -4.5970   24.9200 C   0  0  0  0  0  0  0  0  0  0  0  0
  -21.8440   -4.0390   23.6990 C   0  0  0  0  0  3  0  0  0  0  0  0
  -21.9420   -4.8490   22.5550 C   0  0  0  0  0  0  0  0  0  0  0  0
  -22.3310   -4.3030   21.3780 F   0  0  0  0  0  0  0  0  0  0  0  0
  -21.3200   -3.8150   26.0190 F   0  0  0  0  0  0  0  0  0  0  0  0
  -22.7350  -13.6010   21.1050 C   0  0  0  0  0  0  0  0  0  0  0  0
  -22.0090  -12.9080   21.9680 N   0  0  0  0  0  0  0  0  0  0  0  0
  -22.2960  -14.6240   20.5750 O   0  0  0  0  0  0  0  0  0  0  0  0
  -22.3780  -12.0790   22.4140 H   0  0  0  0  0  0  0  0  0  0  0  0
  -21.0720  -13.2090   22.1940 H   0  0  0  0  0  0  0  0  0  0  0  0
  -25.3590  -15.2770   20.2760 N   0  0  0  0  0  0  0  0  0  0  0  0
  -24.5800  -15.9260   20.3700 H   0  0  0  0  0  0  0  0  0  0  0  0
  -26.1730  -15.6910   19.8440 H   0  0  0  0  0  0  0  0  0  0  0  0
  -28.6640  -23.0240   20.7570 C   0  0  0  0  0  2  0  0  0  0  0  0
  -28.2830  -24.5010   19.9140 C   0  0  0  0  0  2  0  0  0  0  0  0
  -28.2590  -26.0460   20.3910 O   0  0  0  0  0  0  0  0  0  0  0  0
  -24.6190  -31.8780   23.2640 C   0  0  0  0  0  0  0  0  0  0  0  0
  -27.2130  -27.0730   20.2620 C   0  0  0  0  0  0  0  0  0  0  0  0
  -23.4290  -30.4760   21.6160 C   0  0  0  0  0  3  0  0  0  0  0  0
  -24.8930  -28.8870   20.2020 C   0  0  0  0  0  0  0  0  0  0  0  0
  -26.0050  -30.7060   21.4950 C   0  0  0  0  0  2  0  0  0  0  0  0
  -26.0740  -29.3200   20.8150 C   0  0  0  0  0  0  0  0  0  0  0  0
  -27.2340  -28.4380   20.8090 C   0  0  0  0  0  3  0  0  0  0  0  0
  -25.9950  -26.7590   19.6240 C   0  0  0  0  0  3  0  0  0  0  0  0
  -24.8750  -27.6260   19.5830 C   0  0  0  0  0  3  0  0  0  0  0  0
  -23.6620  -29.7830   20.2450 C   0  0  0  0  0  2  0  0  0  0  0  0
  -24.7020  -31.0520   22.1710 N   0  0  0  0  0  0  0  0  0  0  0  0
  -23.5300  -32.1690   23.7820 O   0  0  0  0  0  0  0  0  0  0  0  0
  -22.7430  -29.4810   22.5840 C   0  0  0  0  0  0  0  0  0  0  0  0
  -21.4160  -29.3080   22.4490 N   0  0  0  0  0  0  0  0  0  0  0  0
  -23.4070  -28.8660   23.4220 O   0  0  0  0  0  0  0  0  0  0  0  0
  -20.9500  -29.8460   21.7320 H   0  0  0  0  0  0  0  0  0  0  0  0
  -18.0170  -28.1240   22.9470 C   0  0  0  0  0  0  0  0  0  0  0  0
  -20.5780  -28.3780   23.2130 C   0  0  0  0  0  3  0  0  0  0  0  0
  -20.6650  -26.9440   22.6390 C   0  0  0  0  0  2  0  0  0  0  0  0
  -19.5670  -26.6350   21.6170 C   0  0  0  0  0  2  0  0  0  0  0  0
  -18.1860  -26.7770   22.2640 C   0  0  0  0  0  2  0  0  0  0  0  0
  -19.1390  -28.8880   23.3720 C   0  0  0  0  0  0  0  0  0  0  0  0
  -18.9210  -30.1480   23.9660 C   0  0  0  0  0  3  0  0  0  0  0  0
  -17.6150  -30.6500   24.1330 C   0  0  0  0  0  3  0  0  0  0  0  0
  -16.5100  -29.8830   23.7240 C   0  0  0  0  0  3  0  0  0  0  0  0
  -16.7120  -28.6190   23.1420 C   0  0  0  0  0  3  0  0  0  0  0  0
  -25.8920  -32.5100   23.9040 C   0  0  0  0  0  3  0  0  0  0  0  0
  -25.5790  -33.9160   24.2150 N   0  0  0  0  0  0  0  0  0  0  0  0
  -25.9130  -34.9660   23.4500 C   0  0  0  0  0  0  0  0  0  0  0  0
  -26.5890  -34.8540   22.4240 O   0  0  0  0  0  0  0  0  0  0  0  0
  -24.9700  -34.0740   25.0030 H   0  0  0  0  0  0  0  0  0  0  0  0
  -24.1830  -36.7540   23.0740 C   0  0  0  0  0  1  0  0  0  0  0  0
  -25.4220  -36.3590   23.8930 C   0  0  0  0  0  3  0  0  0  0  0  0
  -27.5550  -37.2570   24.7170 C   0  0  0  0  0  1  0  0  0  0  0  0
  -26.4530  -37.4150   23.7710 N   0  0  0  0  0  0  0  0  0  0  0  0
  -26.0420  -38.3350   23.9120 H   0  0  0  0  0  0  0  0  0  0  0  0
  -26.3880  -31.7550   25.2050 C   0  0  1  0  0  0  0  0  0  0  0  0
  -25.2980  -31.5220   26.2760 C   0  0  0  0  0  1  0  0  0  0  0  0
  -26.9740  -30.3620   24.8700 C   0  0  0  0  0  1  0  0  0  0  0  0
  -27.5340  -32.5600   25.8620 C   0  0  0  0  0  1  0  0  0  0  0  0
  1  3  1  0
  2  4  1  0
  2  5  1  0
  4  6  1  0
  5 16  1  0
  5  1  1  0
  6 46  1  0
  6  3  1  0
  6  7  1  6
  8 16  1  0
  9 14  1  0
 10 11  1  0
 10  9  1  0
 12 11  1  0
 12 21  1  0
 12 13  1  0
 14  8  1  0
 14 13  1  0
 15  8  2  0
 16 17  1  0
 18 19  2  0
 19 38  1  0
 20 19  1  0
 20 23  1  0
 21 18  1  0
 21 22  1  0
 22 20  2  0
 23 24  1  0
 24 25  2  0
 26 29  1  0
 26 25  1  0
 27 26  2  0
 28 27  1  0
 28 23  2  0
 29 30  1  0
 30 31  1  0
 31 32  2  0
 33 32  1  0
 33 37  1  0
 34 33  2  0
 35 30  2  0
 35 34  1  0
 36 35  1  0
 38 39  1  0
 39 42  1  0
 39 41  1  0
 40 38  2  0
 43 44  1  0
 43 18  1  0
 45 43  1  0
 47 48  1  0
 47 46  1  0
 49 60  2  0
 50 48  1  0
 50 55  1  0
 51 59  1  0
 51 61  1  0
 52 58  1  0
 52 54  1  0
 53 59  1  0
 54 53  1  0
 55 54  2  0
 56 50  2  0
 57 56  1  0
 57 52  2  0
 58 51  1  0
 59 49  1  0
 61 63  2  0
 62 61  1  0
 64 62  1  0
 65 74  2  0
 65 70  1  0
 66 62  1  0
 66 70  1  0
 67 66  1  0
 68 69  1  0
 68 67  1  0
 69 65  1  0
 70 71  2  0
 71 72  1  0
 73 72  2  0
 74 73  1  0
 75 49  1  0
 75 76  1  0
 75 85  1  0
 76 79  1  0
 77 81  1  0
 77 76  1  0
 78 77  2  0
 81 80  1  0
 83 81  1  0
 83 84  1  0
 83 82  1  0
 85 88  1  1
 85 86  1  0
 87 85  1  0
M  ISO  4   8 100  16 100  47 101  48 101
M  END
>  <TORSDO>  (21) 
F 18

>  <SCORE>  (21) 
-15.423

>  <name>  (21) 
20

>  <ligand_id>  (21) 
20

>  <original_smiles>  (21) 
[H]c1c([H])c([H])c2c(c1[H])C([H])([H])C([H])([H])C([H])([H])C2([H])N([H])C(=O)C1([H])N(C(=O)C([H])(N([H])C(=O)C([H])(N([H])C([H])([H])[H])C([H])([H])[H])C(C([H])([H])[H])(C([H])([H])[H])C([H])([H])[H])C([H])([H])c2c([H])c(OC([H])([H])C([H])([H])[N+]3([H])C([H])([H])C([H])([H])C([H])(N([H])C(=O)N4C([H])([H])C([H])([H])C([H])([H])C([H])(n5nc(-c6c([H])c([H])c(Oc7c([H])c([H])c(F)c([H])c7F)c([H])c6[H])c(C(=O)N([H])[H])c5N([H])[H])C4([H])[H])C([H])([H])C3([H])[H])c([H])c([H])c2C1([H])[H]

>  <smiles>  (21) 
[H]c1c([H])c([H])c2c(c1[H])C([H])([H])C([H])([H])C([H])([H])C2([H])N([H])C(=O)C1([H])N(C(=O)C([H])(N([H])C(=O)C([H])(N([H])C([H])([H])[H])C([H])([H])[H])C(C([H])([H])[H])(C([H])([H])[H])C([H])([H])[H])C([H])([H])c2c([H])c(OC([H])([H])C([H])([H])[N+]3([H])C([H])([H])C([H])([H])C([H])(N([H])C(=O)N4C([H])([H])C([H])([H])C([H])([H])C([H])(n5nc(-c6c([H])c([H])c(Oc7c([H])c([H])c(F)c([H])c7F)c([H])c6[H])c(C(=O)N([H])[H])c5N([H])[H])C4([H])[H])C([H])([H])C3([H])[H])c([H])c([H])c2C1([H])[H]

$$$$
21:0:0
     RDKit          3D

 89 97  0  0  1  0  0  0  0  0999 V2000
  -30.6180  -18.5840   20.2340 C   0  0  0  0  0  3  0  0  0  0  0  0
  -30.3220  -20.0210   20.1180 C   0  0  0  0  0  3  0  0  0  0  0  0
  -28.3230  -18.1100   19.9970 C   0  0  0  0  0  3  0  0  0  0  0  0
  -29.6220  -17.5390   20.1790 C   0  0  0  0  0  0  0  0  0  0  0  0
  -28.9990  -20.5680   19.9200 C   0  0  0  0  0  0  0  0  0  0  0  0
  -28.0300  -19.5160   19.8660 C   0  0  0  0  0  0  0  0  0  0  0  0
  -26.7350  -19.8670   19.6790 F   0  0  0  0  0  0  0  0  0  0  0  0
  -30.5800  -14.9230   20.0660 C   0  0  0  0  0  0  0  0  0  0  0  0
  -30.4510  -12.5660   19.1460 C   0  0  0  0  0  2  0  0  0  0  0  0
  -29.4680  -12.5400   17.9490 C   0  0  0  0  0  2  0  0  0  0  0  0
  -28.0140  -12.3550   18.4280 C   0  0  0  0  0  2  0  0  0  0  0  0
  -27.6620  -13.2860   19.6170 C   0  0  0  0  0  3  0  0  0  0  0  0
  -28.7540  -13.2570   20.7090 C   0  0  0  0  0  2  0  0  0  0  0  0
  -30.0190  -13.6500   20.0680 N   0  0  0  0  0  0  0  0  0  0  0  0
  -31.7560  -15.0460   19.7010 O   0  0  0  0  0  0  0  0  0  0  0  0
  -29.7160  -16.0150   20.3160 N   0  0  0  0  0  0  0  0  0  0  0  0
  -28.8300  -15.6250   20.5980 H   0  0  0  0  0  0  0  0  0  0  0  0
  -25.3230  -13.9140   20.4530 C   0  0  0  0  0  0  0  0  0  0  0  0
  -24.2550  -13.1600   20.8530 C   0  0  0  0  0  0  0  0  0  0  0  0
  -24.6820  -11.7990   20.7750 C   0  0  0  0  0  0  0  0  0  0  0  0
  -26.3340  -13.0150   20.1560 N   0  0  0  0  0  0  0  0  0  0  0  0
  -25.9580  -11.7360   20.4130 N   0  0  0  0  0  0  0  0  0  0  0  0
  -23.9310  -10.5510   20.9660 C   0  0  0  0  0  0  0  0  0  0  0  0
  -24.3600   -9.5610   21.8760 C   0  0  0  0  0  3  0  0  0  0  0  0
  -23.6090   -8.3800   22.0560 C   0  0  0  0  0  3  0  0  0  0  0  0
  -22.4150   -8.1800   21.3260 C   0  0  0  0  0  0  0  0  0  0  0  0
  -22.0020   -9.1580   20.4040 C   0  0  0  0  0  3  0  0  0  0  0  0
  -22.7540  -10.3310   20.2210 C   0  0  0  0  0  3  0  0  0  0  0  0
  -21.6350   -7.0520   21.4170 O   0  0  0  0  0  0  0  0  0  0  0  0
  -21.5790   -6.3060   22.5670 C   0  0  0  0  0  0  0  0  0  0  0  0
  -21.1440   -6.8560   23.7920 C   0  0  0  0  0  3  0  0  0  0  0  0
  -21.0370   -6.0370   24.9340 C   0  0  0  0  0  3  0  0  0  0  0  0
  -21.3540   -4.6680   24.8510 C   0  0  0  0  0  0  0  0  0  0  0  0
  -21.7830   -4.1170   23.6300 C   0  0  0  0  0  3  0  0  0  0  0  0
  -21.8920   -4.9330   22.4910 C   0  0  0  0  0  0  0  0  0  0  0  0
  -22.2850   -4.3930   21.3120 F   0  0  0  0  0  0  0  0  0  0  0  0
  -21.2440   -3.8790   25.9450 F   0  0  0  0  0  0  0  0  0  0  0  0
  -22.8820  -13.6670   21.1860 C   0  0  0  0  0  0  0  0  0  0  0  0
  -22.1720  -12.9770   22.0720 N   0  0  0  0  0  0  0  0  0  0  0  0
  -22.4480  -14.7080   20.6950 O   0  0  0  0  0  0  0  0  0  0  0  0
  -22.5360  -12.1340   22.4910 H   0  0  0  0  0  0  0  0  0  0  0  0
  -21.2520  -13.2980   22.3390 H   0  0  0  0  0  0  0  0  0  0  0  0
  -25.5110  -15.2840   20.2900 N   0  0  0  0  0  0  0  0  0  0  0  0
  -24.7430  -15.9360   20.4050 H   0  0  0  0  0  0  0  0  0  0  0  0
  -26.3000  -15.6870   19.8030 H   0  0  0  0  0  0  0  0  0  0  0  0
  -28.5040  -21.9350   19.7320 O   0  0  0  0  0  0  0  0  0  0  0  0
  -29.0950  -23.3350   19.9090 C   0  0  0  0  0  3  0  0  0  0  0  0
  -28.1160  -24.6810   19.6400 C   0  0  0  0  0  3  0  0  0  0  0  0
  -28.3620  -26.1910   19.9150 O   0  0  0  0  0  0  0  0  0  0  0  0
  -24.5360  -31.6270   23.0850 C   0  0  0  0  0  0  0  0  0  0  0  0
  -27.2770  -27.1420   19.8750 C   0  0  0  0  0  0  0  0  0  0  0  0
  -23.3960  -30.2890   21.3560 C   0  0  0  0  0  3  0  0  0  0  0  0
  -24.9060  -28.8230   19.8830 C   0  0  0  0  0  0  0  0  0  0  0  0
  -25.9460  -30.6220   21.2520 C   0  0  0  0  0  2  0  0  0  0  0  0
  -26.0640  -29.2680   20.5340 C   0  0  0  0  0  0  0  0  0  0  0  0
  -27.2500  -28.4450   20.5130 C   0  0  0  0  0  3  0  0  0  0  0  0
  -26.0890  -26.7970   19.1910 C   0  0  0  0  0  3  0  0  0  0  0  0
  -24.9310  -27.6010   19.1980 C   0  0  0  0  0  3  0  0  0  0  0  0
  -23.6570  -29.6880   19.9500 C   0  0  0  0  0  2  0  0  0  0  0  0
  -24.6450  -30.8640   21.9540 N   0  0  0  0  0  0  0  0  0  0  0  0
  -23.4340  -31.8620   23.6050 O   0  0  0  0  0  0  0  0  0  0  0  0
  -22.7240  -29.2200   22.2530 C   0  0  0  0  0  0  0  0  0  0  0  0
  -21.3950  -29.0550   22.1190 N   0  0  0  0  0  0  0  0  0  0  0  0
  -23.3990  -28.5440   23.0340 O   0  0  0  0  0  0  0  0  0  0  0  0
  -20.9070  -29.6540   21.4680 H   0  0  0  0  0  0  0  0  0  0  0  0
  -18.0080  -27.8640   22.6020 C   0  0  0  0  0  0  0  0  0  0  0  0
  -20.5770  -28.0710   22.8320 C   0  0  0  0  0  3  0  0  0  0  0  0
  -20.6440  -26.6870   22.1430 C   0  0  0  0  0  2  0  0  0  0  0  0
  -19.5160  -26.4610   21.1320 C   0  0  0  0  0  2  0  0  0  0  0  0
  -18.1500  -26.5720   21.8170 C   0  0  0  0  0  2  0  0  0  0  0  0
  -19.1480  -28.5760   23.0650 C   0  0  0  0  0  0  0  0  0  0  0  0
  -18.9590  -29.7890   23.7640 C   0  0  0  0  0  3  0  0  0  0  0  0
  -17.6650  -30.2900   24.0000 C   0  0  0  0  0  3  0  0  0  0  0  0
  -16.5420  -29.5740   23.5510 C   0  0  0  0  0  3  0  0  0  0  0  0
  -16.7140  -28.3630   22.8590 C   0  0  0  0  0  3  0  0  0  0  0  0
  -25.7880  -32.2560   23.7670 C   0  0  0  0  0  3  0  0  0  0  0  0
  -26.2640  -31.4600   25.0450 C   0  0  1  0  0  0  0  0  0  0  0  0
  -25.1360  -31.1940   26.0690 C   0  0  0  0  0  1  0  0  0  0  0  0
  -26.8680  -30.0930   24.6470 C   0  0  0  0  0  1  0  0  0  0  0  0
  -27.3860  -32.2460   25.7630 C   0  0  0  0  0  1  0  0  0  0  0  0
  -25.4530  -33.6440   24.1230 N   0  0  0  0  0  0  0  0  0  0  0  0
  -25.7720  -34.7190   23.3900 C   0  0  0  0  0  0  0  0  0  0  0  0
  -26.4450  -34.6480   22.3590 O   0  0  0  0  0  0  0  0  0  0  0  0
  -24.8550  -33.7720   24.9260 H   0  0  0  0  0  0  0  0  0  0  0  0
  -24.0050  -36.4870   23.0910 C   0  0  0  0  0  1  0  0  0  0  0  0
  -25.2650  -36.0920   23.8780 C   0  0  0  0  0  3  0  0  0  0  0  0
  -27.3890  -37.0120   24.7010 C   0  0  0  0  0  1  0  0  0  0  0  0
  -26.2770  -37.1660   23.7680 N   0  0  0  0  0  0  0  0  0  0  0  0
  -25.8530  -38.0770   23.9260 H   0  0  0  0  0  0  0  0  0  0  0  0
  2  1  2  0
  3  4  2  0
  4  1  1  0
  4 16  1  0
  5  2  1  0
  6  5  2  0
  6  3  1  0
  7  6  1  0
  8 14  1  0
  8 16  1  0
  9 14  1  0
 10 11  1  0
 10  9  1  0
 12 11  1  0
 12 21  1  0
 12 13  1  0
 14 13  1  0
 15  8  2  0
 16 17  1  0
 18 19  2  0
 19 38  1  0
 20 19  1  0
 20 23  1  0
 21 22  1  0
 21 18  1  0
 22 20  2  0
 23 24  1  0
 24 25  2  0
 26 29  1  0
 26 25  1  0
 27 26  2  0
 28 27  1  0
 28 23  2  0
 29 30  1  0
 30 31  1  0
 31 32  2  0
 33 32  1  0
 33 37  1  0
 34 33  2  0
 35 30  2  0
 35 34  1  0
 36 35  1  0
 38 39  1  0
 39 42  1  0
 39 41  1  0
 40 38  2  0
 43 44  1  0
 43 18  1  0
 45 43  1  0
 46 47  1  0
 46  5  1  0
 48 47  2  0
 48 49  1  0
 50 61  2  0
 51 49  1  0
 51 56  1  0
 52 60  1  0
 52 62  1  0
 53 59  1  0
 53 55  1  0
 54 60  1  0
 55 54  1  0
 56 55  2  0
 57 58  1  0
 57 51  2  0
 58 53  2  0
 59 52  1  0
 60 50  1  0
 62 64  2  0
 63 62  1  0
 65 63  1  0
 66 75  2  0
 66 71  1  0
 67 63  1  0
 67 71  1  0
 68 67  1  0
 69 70  1  0
 69 68  1  0
 70 66  1  0
 71 72  2  0
 72 73  1  0
 74 73  2  0
 75 74  1  0
 76 50  1  0
 76 81  1  0
 76 77  1  0
 77 80  1  1
 77 78  1  0
 79 77  1  0
 81 84  1  0
 82 86  1  0
 82 81  1  0
 83 82  2  0
 86 85  1  0
 88 86  1  0
 88 89  1  0
 88 87  1  0
M  ISO  4   8 100  16 100  48 101  49 101
M  END
>  <TORSDO>  (22) 
F 19

>  <SCORE>  (22) 
-13.742

>  <name>  (22) 
21

>  <ligand_id>  (22) 
21

>  <original_smiles>  (22) 
[H]c1c([H])c([H])c2c(c1[H])C([H])([H])C([H])([H])C([H])([H])C2([H])N([H])C(=O)C1([H])N(C(=O)C([H])(N([H])C(=O)C([H])(N([H])C([H])([H])[H])C([H])([H])[H])C(C([H])([H])[H])(C([H])([H])[H])C([H])([H])[H])C([H])([H])c2c([H])c(OC([H])([H])C([H])([H])Oc3c([H])c([H])c(N([H])C(=O)N4C([H])([H])C([H])([H])C([H])([H])C([H])(n5nc(-c6c([H])c([H])c(Oc7c([H])c([H])c(F)c([H])c7F)c([H])c6[H])c(C(=O)N([H])[H])c5N([H])[H])C4([H])[H])c([H])c3F)c([H])c([H])c2C1([H])[H]

>  <smiles>  (22) 
[H]c1c([H])c([H])c2c(c1[H])C([H])([H])C([H])([H])C([H])([H])C2([H])N([H])C(=O)C1([H])N(C(=O)C([H])(N([H])C(=O)C([H])(N([H])C([H])([H])[H])C([H])([H])[H])C(C([H])([H])[H])(C([H])([H])[H])C([H])([H])[H])C([H])([H])c2c([H])c(OC([H])([H])C([H])([H])Oc3c([H])c([H])c(N([H])C(=O)N4C([H])([H])C([H])([H])C([H])([H])C([H])(n5nc(-c6c([H])c([H])c(Oc7c([H])c([H])c(F)c([H])c7F)c([H])c6[H])c(C(=O)N([H])[H])c5N([H])[H])C4([H])[H])c([H])c3F)c([H])c([H])c2C1([H])[H]

$$$$
22:0:0
     RDKit          3D

 91100  0  0  1  0  0  0  0  0999 V2000
  -30.6910  -14.7700   20.4110 C   0  0  0  0  0  0  0  0  0  0  0  0
  -30.4330  -12.4740   19.4620 C   0  0  0  0  0  2  0  0  0  0  0  0
  -29.5280  -12.4750   18.2140 C   0  0  0  0  0  2  0  0  0  0  0  0
  -28.0500  -12.3260   18.6210 C   0  0  0  0  0  2  0  0  0  0  0  0
  -27.6510  -13.2660   19.7920 C   0  0  0  0  0  3  0  0  0  0  0  0
  -28.6900  -13.2200   20.9340 C   0  0  0  0  0  2  0  0  0  0  0  0
  -29.9760  -13.5900   20.3300 N   0  0  0  0  0  0  0  0  0  0  0  0
  -31.9040  -14.7020   20.1880 O   0  0  0  0  0  0  0  0  0  0  0  0
  -30.3210  -18.5080   19.4110 C   0  0  0  0  0  2  0  0  0  0  0  0
  -28.2010  -17.8350   20.3930 C   0  0  0  0  0  2  0  0  0  0  0  0
  -28.2370  -20.0710   19.1020 C   0  0  0  0  0  2  0  0  0  0  0  0
  -29.3120  -20.0440   21.3150 C   0  0  0  0  0  2  0  0  0  0  0  0
  -30.9680  -17.2530   20.1150 C   0  0  0  0  0  2  0  0  0  0  0  0
  -28.8900  -16.5730   21.0550 C   0  0  0  0  0  2  0  0  0  0  0  0
  -28.7130  -21.5630   18.8970 C   0  0  0  0  0  2  0  0  0  0  0  0
  -29.7450  -21.5460   21.0550 C   0  0  0  0  0  2  0  0  0  0  0  0
  -29.0500  -19.1250   20.0700 C   0  0  2  0  0  0  0  0  0  0  0  0
  -30.0980  -16.0520   20.3630 N   0  0  0  0  0  0  0  0  0  0  0  0
  -28.8280  -22.3460   20.1670 N   0  0  1  0  0  4  0  0  0  0  0  0
  -27.9220  -22.3240   20.6140 H   0  0  0  0  0  0  0  0  0  0  0  0
  -25.2540  -13.8880   20.4520 C   0  0  0  0  0  0  0  0  0  0  0  0
  -24.1740  -13.1290   20.8080 C   0  0  0  0  0  0  0  0  0  0  0  0
  -24.6260  -11.7740   20.8130 C   0  0  0  0  0  0  0  0  0  0  0  0
  -26.2970  -12.9970   20.2610 N   0  0  0  0  0  0  0  0  0  0  0  0
  -25.9250  -11.7210   20.5400 N   0  0  0  0  0  0  0  0  0  0  0  0
  -23.8850  -10.5210   21.0050 C   0  0  0  0  0  0  0  0  0  0  0  0
  -24.3010   -9.5530   21.9440 C   0  0  0  0  0  3  0  0  0  0  0  0
  -23.5580   -8.3650   22.1250 C   0  0  0  0  0  3  0  0  0  0  0  0
  -22.3860   -8.1390   21.3650 C   0  0  0  0  0  0  0  0  0  0  0  0
  -21.9890   -9.0950   20.4150 C   0  0  0  0  0  3  0  0  0  0  0  0
  -22.7320  -10.2730   20.2320 C   0  0  0  0  0  3  0  0  0  0  0  0
  -21.6160   -7.0040   21.4550 O   0  0  0  0  0  0  0  0  0  0  0  0
  -21.5650   -6.2580   22.6050 C   0  0  0  0  0  0  0  0  0  0  0  0
  -21.1740   -6.8190   23.8400 C   0  0  0  0  0  3  0  0  0  0  0  0
  -21.0690   -6.0010   24.9840 C   0  0  0  0  0  3  0  0  0  0  0  0
  -21.3450   -4.6240   24.8920 C   0  0  0  0  0  0  0  0  0  0  0  0
  -21.7290   -4.0620   23.6620 C   0  0  0  0  0  3  0  0  0  0  0  0
  -21.8360   -4.8770   22.5210 C   0  0  0  0  0  0  0  0  0  0  0  0
  -22.1860   -4.3280   21.3330 F   0  0  0  0  0  0  0  0  0  0  0  0
  -21.2360   -3.8360   25.9870 F   0  0  0  0  0  0  0  0  0  0  0  0
  -22.7750  -13.6230   21.0340 C   0  0  0  0  0  0  0  0  0  0  0  0
  -22.0230  -12.9560   21.9020 N   0  0  0  0  0  0  0  0  0  0  0  0
  -22.3570  -14.6370   20.4760 O   0  0  0  0  0  0  0  0  0  0  0  0
  -22.3730  -12.1360   22.3750 H   0  0  0  0  0  0  0  0  0  0  0  0
  -21.0820  -13.2700   22.0970 H   0  0  0  0  0  0  0  0  0  0  0  0
  -25.4310  -15.2530   20.2500 N   0  0  0  0  0  0  0  0  0  0  0  0
  -24.6660  -15.9130   20.3290 H   0  0  0  0  0  0  0  0  0  0  0  0
  -26.2920  -15.6790   19.9330 H   0  0  0  0  0  0  0  0  0  0  0  0
  -29.2110  -23.8420   20.0340 C   0  0  0  0  0  3  0  0  0  0  0  0
  -28.0860  -24.9380   19.6800 C   0  0  0  0  0  3  0  0  0  0  0  0
  -28.3500  -26.4130   19.8280 O   0  0  0  0  0  0  0  0  0  0  0  0
  -24.6960  -31.7440   23.1280 C   0  0  0  0  0  0  0  0  0  0  0  0
  -27.2500  -27.3010   19.8250 C   0  0  0  0  0  0  0  0  0  0  0  0
  -23.4680  -30.4200   21.4480 C   0  0  0  0  0  3  0  0  0  0  0  0
  -24.8940  -28.9400   19.9260 C   0  0  0  0  0  0  0  0  0  0  0  0
  -26.0080  -30.7420   21.2400 C   0  0  0  0  0  2  0  0  0  0  0  0
  -26.0770  -29.3930   20.5260 C   0  0  0  0  0  0  0  0  0  0  0  0
  -27.2590  -28.5870   20.4640 C   0  0  0  0  0  3  0  0  0  0  0  0
  -26.0410  -26.9190   19.1980 C   0  0  0  0  0  3  0  0  0  0  0  0
  -24.8820  -27.7120   19.2510 C   0  0  0  0  0  3  0  0  0  0  0  0
  -23.6600  -29.8120   20.0350 C   0  0  0  0  0  2  0  0  0  0  0  0
  -24.7440  -30.9830   21.9950 N   0  0  0  0  0  0  0  0  0  0  0  0
  -23.6210  -31.9960   23.6910 O   0  0  0  0  0  0  0  0  0  0  0  0
  -22.8220  -29.3580   22.3710 C   0  0  0  0  0  0  0  0  0  0  0  0
  -21.4910  -29.1980   22.2720 N   0  0  0  0  0  0  0  0  0  0  0  0
  -23.5160  -28.6850   23.1370 O   0  0  0  0  0  0  0  0  0  0  0  0
  -20.9890  -29.7940   21.6280 H   0  0  0  0  0  0  0  0  0  0  0  0
  -18.1160  -28.0080   22.8100 C   0  0  0  0  0  0  0  0  0  0  0  0
  -20.6840  -28.2290   23.0160 C   0  0  0  0  0  3  0  0  0  0  0  0
  -20.7530  -26.8290   22.3620 C   0  0  0  0  0  2  0  0  0  0  0  0
  -19.6170  -26.5720   21.3660 C   0  0  0  0  0  2  0  0  0  0  0  0
  -18.2580  -26.6950   22.0580 C   0  0  0  0  0  2  0  0  0  0  0  0
  -19.2550  -28.7350   23.2450 C   0  0  0  0  0  0  0  0  0  0  0  0
  -19.0680  -29.9660   23.9110 C   0  0  0  0  0  3  0  0  0  0  0  0
  -17.7730  -30.4690   24.1430 C   0  0  0  0  0  3  0  0  0  0  0  0
  -16.6500  -29.7390   23.7220 C   0  0  0  0  0  3  0  0  0  0  0  0
  -16.8220  -28.5080   23.0610 C   0  0  0  0  0  3  0  0  0  0  0  0
  -25.9870  -32.3510   23.7570 C   0  0  0  0  0  3  0  0  0  0  0  0
  -25.6730  -33.7250   24.1750 N   0  0  0  0  0  0  0  0  0  0  0  0
  -25.9670  -34.8240   23.4680 C   0  0  0  0  0  0  0  0  0  0  0  0
  -26.6010  -34.7880   22.4090 O   0  0  0  0  0  0  0  0  0  0  0  0
  -25.1050  -33.8260   25.0050 H   0  0  0  0  0  0  0  0  0  0  0  0
  -24.2020  -36.6080   23.2850 C   0  0  0  0  0  1  0  0  0  0  0  0
  -25.4820  -36.1780   24.0210 C   0  0  0  0  0  3  0  0  0  0  0  0
  -27.6400  -37.0480   24.8070 C   0  0  0  0  0  1  0  0  0  0  0  0
  -26.4950  -37.2510   23.9220 N   0  0  0  0  0  0  0  0  0  0  0  0
  -26.0850  -38.1560   24.1380 H   0  0  0  0  0  0  0  0  0  0  0  0
  -26.5360  -31.5140   24.9760 C   0  0  1  0  0  0  0  0  0  0  0  0
  -25.4700  -31.2110   26.0560 C   0  0  0  0  0  1  0  0  0  0  0  0
  -27.1150  -30.1620   24.4960 C   0  0  0  0  0  1  0  0  0  0  0  0
  -27.7000  -32.2760   25.6530 C   0  0  0  0  0  1  0  0  0  0  0  0
  2  7  1  0
  3  4  1  0
  3  2  1  0
  5  4  1  0
  5 24  1  0
  5  6  1  0
  7  1  1  0
  7  6  1  0
  8  1  2  0
 17  9  1  6
  9 13  1  0
 10 14  1  0
 13 18  1  0
 15 11  1  0
 15 19  1  0
 16 12  1  0
 17 11  1  0
 17 10  1  0
 17 12  1  0
 18  1  1  0
 18 14  1  0
 19 20  1  1
 19 16  1  0
 21 22  2  0
 22 23  1  0
 22 41  1  0
 23 26  1  0
 24 21  1  0
 24 25  1  0
 25 23  2  0
 26 27  1  0
 27 28  2  0
 29 32  1  0
 29 28  1  0
 30 29  2  0
 31 30  1  0
 31 26  2  0
 32 33  1  0
 33 34  1  0
 34 35  2  0
 36 35  1  0
 36 40  1  0
 37 36  2  0
 38 33  2  0
 38 37  1  0
 39 38  1  0
 41 42  1  0
 42 45  1  0
 42 44  1  0
 43 41  2  0
 46 47  1  0
 46 21  1  0
 48 46  1  0
 49 19  1  0
 50 51  1  0
 50 49  2  0
 52 63  2  0
 53 51  1  0
 53 58  1  0
 54 62  1  0
 54 64  1  0
 55 61  1  0
 55 57  1  0
 56 62  1  0
 57 56  1  0
 58 57  2  0
 59 60  1  0
 59 53  2  0
 60 55  2  0
 61 54  1  0
 62 52  1  0
 64 66  2  0
 65 64  1  0
 67 65  1  0
 68 77  2  0
 68 73  1  0
 69 65  1  0
 69 73  1  0
 70 69  1  0
 71 72  1  0
 71 70  1  0
 72 68  1  0
 73 74  2  0
 74 75  1  0
 76 75  2  0
 77 76  1  0
 78 52  1  0
 78 79  1  0
 78 88  1  0
 79 82  1  0
 80 84  1  0
 80 79  1  0
 81 80  2  0
 84 83  1  0
 86 84  1  0
 86 87  1  0
 86 85  1  0
 88 91  1  1
 88 89  1  0
 90 88  1  0
M  ISO  4   1 100  18 100  50 101  51 101
M  END
>  <TORSDO>  (23) 
F 17

>  <SCORE>  (23) 
-14.641

>  <name>  (23) 
22

>  <ligand_id>  (23) 
22

>  <original_smiles>  (23) 
[H]c1c([H])c([H])c2c(c1[H])C([H])([H])C([H])([H])C([H])([H])C2([H])N([H])C(=O)C1([H])N(C(=O)C([H])(N([H])C(=O)C([H])(N([H])C([H])([H])[H])C([H])([H])[H])C(C([H])([H])[H])(C([H])([H])[H])C([H])([H])[H])C([H])([H])c2c([H])c(OC([H])([H])C([H])([H])[N+]3([H])C([H])([H])C([H])([H])C4(C([H])([H])C([H])([H])N(C(=O)N5C([H])([H])C([H])([H])C([H])([H])C([H])(n6nc(-c7c([H])c([H])c(Oc8c([H])c([H])c(F)c([H])c8F)c([H])c7[H])c(C(=O)N([H])[H])c6N([H])[H])C5([H])[H])C([H])([H])C4([H])[H])C([H])([H])C3([H])[H])c([H])c([H])c2C1([H])[H]

>  <smiles>  (23) 
[H]c1c([H])c([H])c2c(c1[H])C([H])([H])C([H])([H])C([H])([H])C2([H])N([H])C(=O)C1([H])N(C(=O)C([H])(N([H])C(=O)C([H])(N([H])C([H])([H])[H])C([H])([H])[H])C(C([H])([H])[H])(C([H])([H])[H])C([H])([H])[H])C([H])([H])c2c([H])c(OC([H])([H])C([H])([H])[N+]3([H])C([H])([H])C([H])([H])C4(C([H])([H])C([H])([H])N(C(=O)N5C([H])([H])C([H])([H])C([H])([H])C([H])(n6nc(-c7c([H])c([H])c(Oc8c([H])c([H])c(F)c([H])c8F)c([H])c7[H])c(C(=O)N([H])[H])c6N([H])[H])C5([H])[H])C([H])([H])C4([H])[H])C([H])([H])C3([H])[H])c([H])c([H])c2C1([H])[H]

$$$$
23:0:0
     RDKit          3D

 89 97  0  0  1  0  0  0  0  0999 V2000
  -30.8220  -19.9750   18.6380 C   0  0  0  0  0  3  0  0  0  0  0  0
  -30.6550  -18.6590   19.1510 C   0  0  0  0  0  3  0  0  0  0  0  0
  -28.9610  -19.6400   20.5550 C   0  0  0  0  0  3  0  0  0  0  0  0
  -30.1000  -21.1390   19.0380 C   0  0  0  0  0  0  0  0  0  0  0  0
  -29.1180  -21.1250   20.0660 C   0  0  0  0  0  0  0  0  0  0  0  0
  -29.6940  -18.3200   20.1250 C   0  0  0  0  0  0  0  0  0  0  0  0
  -30.4380  -22.4420   18.3310 C   0  0  0  0  0  1  0  0  0  0  0  0
  -30.3410  -15.4150   20.2880 C   0  0  0  0  0  0  0  0  0  0  0  0
  -30.3760  -12.9260   19.4720 C   0  0  0  0  0  2  0  0  0  0  0  0
  -29.4780  -12.6460   18.2360 C   0  0  0  0  0  2  0  0  0  0  0  0
  -28.0370  -12.3390   18.6680 C   0  0  0  0  0  2  0  0  0  0  0  0
  -27.5460  -13.3350   19.7430 C   0  0  0  0  0  3  0  0  0  0  0  0
  -28.5700  -13.5510   20.8820 C   0  0  0  0  0  2  0  0  0  0  0  0
  -29.7990  -14.0840   20.2670 N   0  0  0  0  0  0  0  0  0  0  0  0
  -31.5560  -15.3990   20.0320 O   0  0  0  0  0  0  0  0  0  0  0  0
  -29.5760  -16.7070   20.4660 N   0  0  0  0  0  0  0  0  0  0  0  0
  -28.6650  -16.4870   20.8410 H   0  0  0  0  0  0  0  0  0  0  0  0
  -25.1650  -13.8870   20.4560 C   0  0  0  0  0  0  0  0  0  0  0  0
  -24.1020  -13.1090   20.8180 C   0  0  0  0  0  0  0  0  0  0  0  0
  -24.5770  -11.7610   20.8120 C   0  0  0  0  0  0  0  0  0  0  0  0
  -26.2150  -13.0140   20.2380 N   0  0  0  0  0  0  0  0  0  0  0  0
  -25.8730  -11.7290   20.5220 N   0  0  0  0  0  0  0  0  0  0  0  0
  -23.8510  -10.4970   21.0020 C   0  0  0  0  0  0  0  0  0  0  0  0
  -24.2670   -9.5410   21.9550 C   0  0  0  0  0  3  0  0  0  0  0  0
  -23.5390   -8.3450   22.1360 C   0  0  0  0  0  3  0  0  0  0  0  0
  -22.3790   -8.0970   21.3640 C   0  0  0  0  0  0  0  0  0  0  0  0
  -21.9810   -9.0410   20.4020 C   0  0  0  0  0  3  0  0  0  0  0  0
  -22.7090  -10.2280   20.2190 C   0  0  0  0  0  3  0  0  0  0  0  0
  -21.6240   -6.9530   21.4540 O   0  0  0  0  0  0  0  0  0  0  0  0
  -21.5580   -6.2210   22.6130 C   0  0  0  0  0  0  0  0  0  0  0  0
  -21.1110   -6.7910   23.8260 C   0  0  0  0  0  3  0  0  0  0  0  0
  -20.9920   -5.9870   24.9770 C   0  0  0  0  0  3  0  0  0  0  0  0
  -21.3110   -4.6170   24.9180 C   0  0  0  0  0  0  0  0  0  0  0  0
  -21.7500   -4.0480   23.7100 C   0  0  0  0  0  3  0  0  0  0  0  0
  -21.8700   -4.8480   22.5600 C   0  0  0  0  0  0  0  0  0  0  0  0
  -22.2740   -4.2910   21.3930 F   0  0  0  0  0  0  0  0  0  0  0  0
  -21.1890   -3.8430   26.0210 F   0  0  0  0  0  0  0  0  0  0  0  0
  -22.6980  -13.5820   21.0530 C   0  0  0  0  0  0  0  0  0  0  0  0
  -21.9540  -12.8930   21.9100 N   0  0  0  0  0  0  0  0  0  0  0  0
  -22.2680  -14.6010   20.5120 O   0  0  0  0  0  0  0  0  0  0  0  0
  -22.3120  -12.0680   22.3690 H   0  0  0  0  0  0  0  0  0  0  0  0
  -21.0100  -13.1940   22.1120 H   0  0  0  0  0  0  0  0  0  0  0  0
  -25.3220  -15.2570   20.2600 N   0  0  0  0  0  0  0  0  0  0  0  0
  -24.5490  -15.9060   20.3480 H   0  0  0  0  0  0  0  0  0  0  0  0
  -26.1580  -15.6870   19.8840 H   0  0  0  0  0  0  0  0  0  0  0  0
  -28.5240  -22.7350   20.5960 C   0  0  0  0  0  2  0  0  0  0  0  0
  -27.9600  -24.1030   19.8260 N   0  0  0  0  0  0  0  0  0  0  0  0
  -28.1340  -24.0580   18.8270 H   0  0  0  0  0  0  0  0  0  0  0  0
  -28.1850  -25.7620   20.2980 O   0  0  0  0  0  0  0  0  0  0  0  0
  -24.6250  -31.8260   23.1650 C   0  0  0  0  0  0  0  0  0  0  0  0
  -27.1770  -26.8790   20.1770 C   0  0  0  0  0  0  0  0  0  0  0  0
  -23.4400  -30.4230   21.5300 C   0  0  0  0  0  3  0  0  0  0  0  0
  -24.8880  -28.8010   20.1160 C   0  0  0  0  0  0  0  0  0  0  0  0
  -26.0080  -30.6160   21.3930 C   0  0  0  0  0  2  0  0  0  0  0  0
  -26.0750  -29.1950   20.7450 C   0  0  0  0  0  0  0  0  0  0  0  0
  -27.2060  -28.2520   20.7540 C   0  0  0  0  0  3  0  0  0  0  0  0
  -25.9650  -26.6540   19.4840 C   0  0  0  0  0  3  0  0  0  0  0  0
  -24.8610  -27.5540   19.4670 C   0  0  0  0  0  3  0  0  0  0  0  0
  -23.6740  -29.7310   20.1570 C   0  0  0  0  0  2  0  0  0  0  0  0
  -24.7140  -30.9840   22.0840 N   0  0  0  0  0  0  0  0  0  0  0  0
  -23.5320  -32.1180   23.6800 O   0  0  0  0  0  0  0  0  0  0  0  0
  -22.7380  -29.4330   22.4990 C   0  0  0  0  0  0  0  0  0  0  0  0
  -21.4050  -29.2840   22.3870 N   0  0  0  0  0  0  0  0  0  0  0  0
  -23.4000  -28.8000   23.3260 O   0  0  0  0  0  0  0  0  0  0  0  0
  -20.9200  -29.8440   21.7000 H   0  0  0  0  0  0  0  0  0  0  0  0
  -18.0150  -28.1010   22.9270 C   0  0  0  0  0  0  0  0  0  0  0  0
  -20.5800  -28.3490   23.1630 C   0  0  0  0  0  3  0  0  0  0  0  0
  -20.6640  -26.9180   22.5820 C   0  0  0  0  0  2  0  0  0  0  0  0
  -19.5490  -26.6100   21.5790 C   0  0  0  0  0  2  0  0  0  0  0  0
  -18.1750  -26.7570   22.2380 C   0  0  0  0  0  2  0  0  0  0  0  0
  -19.1430  -28.8560   23.3490 C   0  0  0  0  0  0  0  0  0  0  0  0
  -18.9350  -30.1120   23.9590 C   0  0  0  0  0  3  0  0  0  0  0  0
  -17.6330  -30.6140   24.1490 C   0  0  0  0  0  3  0  0  0  0  0  0
  -16.5210  -29.8580   23.7400 C   0  0  0  0  0  3  0  0  0  0  0  0
  -16.7130  -28.6020   23.1360 C   0  0  0  0  0  3  0  0  0  0  0  0
  -25.8880  -32.4770   23.8030 C   0  0  0  0  0  3  0  0  0  0  0  0
  -25.5620  -33.8760   24.1410 N   0  0  0  0  0  0  0  0  0  0  0  0
  -25.8940  -34.9440   23.4020 C   0  0  0  0  0  0  0  0  0  0  0  0
  -26.5650  -34.8550   22.3710 O   0  0  0  0  0  0  0  0  0  0  0  0
  -24.9700  -34.0170   24.9460 H   0  0  0  0  0  0  0  0  0  0  0  0
  -24.1630  -36.7440   23.0690 C   0  0  0  0  0  1  0  0  0  0  0  0
  -25.4040  -36.3290   23.8770 C   0  0  0  0  0  3  0  0  0  0  0  0
  -27.5390  -37.2090   24.7150 C   0  0  0  0  0  1  0  0  0  0  0  0
  -26.4340  -37.3860   23.7760 N   0  0  0  0  0  0  0  0  0  0  0  0
  -26.0260  -38.3040   23.9370 H   0  0  0  0  0  0  0  0  0  0  0  0
  -26.3950  -31.7180   25.0930 C   0  0  1  0  0  0  0  0  0  0  0  0
  -25.2930  -31.4890   26.1560 C   0  0  0  0  0  1  0  0  0  0  0  0
  -26.9820  -30.3370   24.7240 C   0  0  0  0  0  1  0  0  0  0  0  0
  -27.5410  -32.5180   25.7560 C   0  0  0  0  0  1  0  0  0  0  0  0
  1  4  2  0
  1  2  1  0
  2  6  2  0
  4  5  1  0
  5  3  2  0
  5 46  1  0
  6 16  1  0
  6  3  1  0
  7  4  1  0
  8 16  1  0
  9 14  1  0
 10 11  1  0
 10  9  1  0
 12 11  1  0
 12 21  1  0
 12 13  1  0
 14  8  1  0
 14 13  1  0
 15  8  2  0
 16 17  1  0
 18 19  2  0
 19 38  1  0
 20 19  1  0
 20 23  1  0
 21 18  1  0
 21 22  1  0
 22 20  2  0
 23 24  1  0
 24 25  2  0
 26 29  1  0
 26 25  1  0
 27 26  2  0
 28 27  1  0
 28 23  2  0
 29 30  1  0
 30 31  1  0
 31 32  2  0
 33 32  1  0
 33 37  1  0
 34 33  2  0
 35 30  2  0
 35 34  1  0
 36 35  1  0
 38 39  1  0
 39 42  1  0
 39 41  1  0
 40 38  2  0
 43 44  1  0
 43 18  1  0
 45 43  1  0
 47 49  1  0
 47 46  1  0
 48 47  1  0
 50 61  2  0
 51 49  1  0
 51 56  1  0
 52 60  1  0
 52 62  1  0
 53 59  1  0
 53 55  1  0
 54 60  1  0
 55 56  2  0
 55 54  1  0
 57 51  2  0
 58 57  1  0
 58 53  2  0
 59 52  1  0
 60 50  1  0
 62 64  2  0
 63 62  1  0
 65 63  1  0
 66 75  2  0
 66 71  1  0
 67 63  1  0
 67 71  1  0
 68 67  1  0
 69 70  1  0
 69 68  1  0
 70 66  1  0
 71 72  2  0
 72 73  1  0
 74 73  2  0
 75 74  1  0
 76 50  1  0
 76 77  1  0
 76 86  1  0
 77 80  1  0
 78 82  1  0
 78 77  1  0
 79 78  2  0
 82 81  1  0
 84 82  1  0
 84 85  1  0
 84 83  1  0
 86 89  1  1
 86 87  1  0
 88 86  1  0
M  ISO  4   8 100  16 100  47 101  49 101
M  END
>  <TORSDO>  (24) 
F 18

>  <SCORE>  (24) 
-15.944

>  <name>  (24) 
23

>  <ligand_id>  (24) 
23

>  <original_smiles>  (24) 
[H]c1c([H])c([H])c2c(c1[H])C([H])([H])C([H])([H])C([H])([H])C2([H])N([H])C(=O)C1([H])N(C(=O)C([H])(N([H])C(=O)C([H])(N([H])C([H])([H])[H])C([H])([H])[H])C(C([H])([H])[H])(C([H])([H])[H])C([H])([H])[H])C([H])([H])c2c([H])c(ON([H])C([H])([H])c3c([H])c(N([H])C(=O)N4C([H])([H])C([H])([H])C([H])([H])C([H])(n5nc(-c6c([H])c([H])c(Oc7c([H])c([H])c(F)c([H])c7F)c([H])c6[H])c(C(=O)N([H])[H])c5N([H])[H])C4([H])[H])c([H])c([H])c3C([H])([H])[H])c([H])c([H])c2C1([H])[H]

>  <smiles>  (24) 
[H]c1c([H])c([H])c2c(c1[H])C([H])([H])C([H])([H])C([H])([H])C2([H])N([H])C(=O)C1([H])N(C(=O)C([H])(N([H])C(=O)C([H])(N([H])C([H])([H])[H])C([H])([H])[H])C(C([H])([H])[H])(C([H])([H])[H])C([H])([H])[H])C([H])([H])c2c([H])c(ON([H])C([H])([H])c3c([H])c(N([H])C(=O)N4C([H])([H])C([H])([H])C([H])([H])C([H])(n5nc(-c6c([H])c([H])c(Oc7c([H])c([H])c(F)c([H])c7F)c([H])c6[H])c(C(=O)N([H])[H])c5N([H])[H])C4([H])[H])c([H])c([H])c3C([H])([H])[H])c([H])c([H])c2C1([H])[H]

$$$$
24:0:0
     RDKit          3D

 82 86  0  0  1  0  0  0  0  0999 V2000
  -28.2030  -25.2140   20.1870 O   0  0  0  0  0  1  0  0  0  0  0  0
  -24.6590  -31.8230   23.1160 C   0  0  0  0  0  0  0  0  0  0  0  0
  -27.2270  -26.5180   20.2190 C   0  0  0  0  0  0  0  0  0  0  0  0
  -23.5030  -30.4040   21.4840 C   0  0  0  0  0  3  0  0  0  0  0  0
  -24.9680  -28.6960   20.1210 C   0  0  0  0  0  0  0  0  0  0  0  0
  -26.0920  -30.4850   21.4080 C   0  0  0  0  0  2  0  0  0  0  0  0
  -26.1660  -29.0180   20.7700 C   0  0  0  0  0  0  0  0  0  0  0  0
  -27.2690  -27.9690   20.7710 C   0  0  0  0  0  3  0  0  0  0  0  0
  -25.9850  -26.4690   19.5130 C   0  0  0  0  0  3  0  0  0  0  0  0
  -24.9320  -27.4500   19.4670 C   0  0  0  0  0  3  0  0  0  0  0  0
  -23.7680  -29.6710   20.1330 C   0  0  0  0  0  2  0  0  0  0  0  0
  -24.7790  -30.9440   22.0540 N   0  0  0  0  0  0  0  0  0  0  0  0
  -23.5550  -32.1300   23.6020 O   0  0  0  0  0  0  0  0  0  0  0  0
  -22.7610  -29.4600   22.4680 C   0  0  0  0  0  0  0  0  0  0  0  0
  -21.4220  -29.3490   22.3610 N   0  0  0  0  0  0  0  0  0  0  0  0
  -23.4040  -28.8170   23.3000 O   0  0  0  0  0  0  0  0  0  0  0  0
  -20.9470  -29.9240   21.6780 H   0  0  0  0  0  0  0  0  0  0  0  0
  -18.0030  -28.1330   22.8590 C   0  0  0  0  0  0  0  0  0  0  0  0
  -20.5950  -28.3830   23.0970 C   0  0  0  0  0  0  0  0  0  0  0  0
  -20.7720  -26.9760   22.4620 C   0  0  0  0  0  3  0  0  0  0  0  0
  -19.5380  -26.4150   21.7220 C   0  0  0  0  0  3  0  0  0  0  0  0
  -18.0990  -26.8440   22.0560 C   0  0  0  0  0  3  0  0  0  0  0  0
  -19.1450  -28.8670   23.2920 C   0  0  0  0  0  0  0  0  0  0  0  0
  -18.9400  -30.1130   23.9270 C   0  0  0  0  0  3  0  0  0  0  0  0
  -17.6430  -30.6230   24.1300 C   0  0  0  0  0  3  0  0  0  0  0  0
  -16.5250  -29.8800   23.7210 C   0  0  0  0  0  3  0  0  0  0  0  0
  -16.7080  -28.6360   23.0960 C   0  0  0  0  0  3  0  0  0  0  0  0
  -25.9010  -32.4970   23.7720 C   0  0  0  0  0  3  0  0  0  0  0  0
  -25.5540  -33.8960   24.1020 N   0  0  0  0  0  0  0  0  0  0  0  0
  -25.8860  -34.9730   23.3740 C   0  0  0  0  0  0  0  0  0  0  0  0
  -26.5670  -34.8910   22.3500 O   0  0  0  0  0  0  0  0  0  0  0  0
  -24.9460  -34.0310   24.8960 H   0  0  0  0  0  0  0  0  0  0  0  0
  -24.1500  -36.7720   23.0460 C   0  0  0  0  0  1  0  0  0  0  0  0
  -25.3900  -36.3550   23.8530 C   0  0  0  0  0  3  0  0  0  0  0  0
  -27.5120  -37.2520   24.7100 C   0  0  0  0  0  1  0  0  0  0  0  0
  -26.4160  -37.4190   23.7590 N   0  0  0  0  0  0  0  0  0  0  0  0
  -26.0000  -38.3340   23.9110 H   0  0  0  0  0  0  0  0  0  0  0  0
  -26.3860  -31.7540   25.0790 C   0  0  1  0  0  0  0  0  0  0  0  0
  -25.2660  -31.5290   26.1240 C   0  0  0  0  0  1  0  0  0  0  0  0
  -26.9880  -30.3730   24.7440 C   0  0  0  0  0  1  0  0  0  0  0  0
  -27.5140  -32.5680   25.7560 C   0  0  0  0  0  1  0  0  0  0  0  0
  -28.2300  -23.3320   20.4390 C   0  0  0  0  0 15  0  0  0  0  0  0
  -28.7870  -21.3790   19.8640 C   0  0  0  0  0 15  0  0  0  0  0  0
  -29.3980  -19.4400   20.4120 C   0  0  0  0  0  1  0  0  0  0  0  0
  -30.1690  -16.0920   20.0360 C   0  0  0  0  0  0  0  0  0  0  0  0
  -30.3590  -13.4710   19.1990 C   0  0  0  0  0  2  0  0  0  0  0  0
  -29.4770  -12.8700   18.0550 C   0  0  0  0  0  2  0  0  0  0  0  0
  -28.1030  -12.4290   18.5740 C   0  0  0  0  0  2  0  0  0  0  0  0
  -27.5630  -13.4490   19.5940 C   0  0  0  0  0  3  0  0  0  0  0  0
  -28.6020  -13.9210   20.6470 C   0  0  0  0  0  2  0  0  0  0  0  0
  -29.6750  -14.6720   19.9180 N   0  0  0  0  0  0  0  0  0  0  0  0
  -31.4150  -15.9560   19.9590 O   0  0  0  0  0  0  0  0  0  0  0  0
  -29.4220  -17.5600   20.0550 N   0  0  0  0  0  0  0  0  0  0  0  0
  -28.4530  -17.3130   19.9040 H   0  0  0  0  0  0  0  0  0  0  0  0
  -25.2310  -13.9310   20.4500 C   0  0  0  0  0  0  0  0  0  0  0  0
  -24.1900  -13.1380   20.8360 C   0  0  0  0  0  0  0  0  0  0  0  0
  -24.6710  -11.7930   20.7770 C   0  0  0  0  0  0  0  0  0  0  0  0
  -26.2760  -13.0750   20.1660 N   0  0  0  0  0  0  0  0  0  0  0  0
  -25.9570  -11.7790   20.4270 N   0  0  0  0  0  0  0  0  0  0  0  0
  -23.9560  -10.5240   20.9740 C   0  0  0  0  0  0  0  0  0  0  0  0
  -24.4050   -9.5560   21.8990 C   0  0  0  0  0  3  0  0  0  0  0  0
  -23.6830   -8.3560   22.0890 C   0  0  0  0  0  3  0  0  0  0  0  0
  -22.4960   -8.1180   21.3550 C   0  0  0  0  0  0  0  0  0  0  0  0
  -22.0660   -9.0740   20.4200 C   0  0  0  0  0  3  0  0  0  0  0  0
  -22.7890  -10.2650   20.2280 C   0  0  0  0  0  3  0  0  0  0  0  0
  -21.7460   -6.9710   21.4550 O   0  0  0  0  0  0  0  0  0  0  0  0
  -21.7090   -6.2310   22.6100 C   0  0  0  0  0  0  0  0  0  0  0  0
  -21.2840   -6.7860   23.8360 C   0  0  0  0  0  3  0  0  0  0  0  0
  -21.1960   -5.9730   24.9840 C   0  0  0  0  0  3  0  0  0  0  0  0
  -21.5230   -4.6050   24.9060 C   0  0  0  0  0  0  0  0  0  0  0  0
  -21.9420   -4.0500   23.6840 C   0  0  0  0  0  3  0  0  0  0  0  0
  -22.0320   -4.8600   22.5390 C   0  0  0  0  0  0  0  0  0  0  0  0
  -22.4140   -4.3150   21.3590 F   0  0  0  0  0  0  0  0  0  0  0  0
  -21.4320   -3.8220   26.0060 F   0  0  0  0  0  0  0  0  0  0  0  0
  -22.7960  -13.6030   21.1400 C   0  0  0  0  0  0  0  0  0  0  0  0
  -22.0920  -12.8960   22.0160 N   0  0  0  0  0  0  0  0  0  0  0  0
  -22.3430  -14.6300   20.6380 O   0  0  0  0  0  0  0  0  0  0  0  0
  -22.4740  -12.0650   22.4440 H   0  0  0  0  0  0  0  0  0  0  0  0
  -21.1580  -13.1890   22.2630 H   0  0  0  0  0  0  0  0  0  0  0  0
  -25.3710  -15.3060   20.2780 N   0  0  0  0  0  0  0  0  0  0  0  0
  -24.5980  -15.9490   20.4140 H   0  0  0  0  0  0  0  0  0  0  0  0
  -26.2020  -15.7550   19.9170 H   0  0  0  0  0  0  0  0  0  0  0  0
  1  3  1  0
  2 13  2  0
  3  8  1  0
  4 12  1  0
  4 14  1  0
  5 11  1  0
  5  7  1  0
  6 12  1  0
  7  8  2  0
  7  6  1  0
  9  3  2  0
 10  9  1  0
 10  5  2  0
 11  4  1  0
 12  2  1  0
 14 16  2  0
 15 14  1  0
 15 19  1  0
 17 15  1  0
 18 27  2  0
 18 23  1  0
 19 23  1  0
 20 19  2  0
 21 22  2  0
 21 20  1  0
 22 18  1  0
 23 24  2  0
 24 25  1  0
 26 25  2  0
 27 26  1  0
 28  2  1  0
 28 29  1  0
 28 38  1  0
 29 32  1  0
 30 34  1  0
 30 29  1  0
 31 30  2  0
 34 33  1  0
 36 34  1  0
 36 37  1  0
 36 35  1  0
 38 41  1  1
 38 39  1  0
 40 38  1  0
 45 53  1  0
 46 51  1  0
 47 48  1  0
 47 46  1  0
 49 48  1  0
 49 58  1  0
 49 50  1  0
 51 45  1  0
 51 50  1  0
 52 45  2  0
 53 44  1  0
 54 53  1  0
 55 56  2  0
 56 75  1  0
 57 56  1  0
 57 60  1  0
 58 59  1  0
 58 55  1  0
 59 57  2  0
 60 61  1  0
 61 62  2  0
 63 66  1  0
 63 62  1  0
 64 63  2  0
 65 64  1  0
 65 60  2  0
 66 67  1  0
 67 68  1  0
 68 69  2  0
 70 69  1  0
 70 74  1  0
 71 70  2  0
 72 67  2  0
 72 71  1  0
 73 72  1  0
 75 76  1  0
 76 79  1  0
 76 78  1  0
 77 75  2  0
 80 81  1  0
 80 55  1  0
 82 80  1  0
M  ISO  4   1 101  42 101  45 100  53 100
M  END
>  <TORSDO>  (25) 
F 18

>  <SCORE>  (25) 
-16.165

>  <name>  (25) 
24

>  <ligand_id>  (25) 
24

>  <original_smiles>  (25) 
[H]c1c([H])c([H])c2c(c1[H])C([H])([H])C([H])([H])C([H])([H])C2([H])N([H])C(=O)C1([H])N(C(=O)C([H])(N([H])C(=O)C([H])(N([H])C([H])([H])[H])C([H])([H])[H])C(C([H])([H])[H])(C([H])([H])[H])C([H])([H])[H])C([H])([H])c2c([H])c(OC([H])([H])C([H])([H])C([H])([H])N([H])C(=O)N3C([H])([H])C([H])([H])C([H])([H])C([H])(n4nc(-c5c([H])c([H])c(Oc6c([H])c([H])c(F)c([H])c6F)c([H])c5[H])c(C(=O)N([H])[H])c4N([H])[H])C3([H])[H])c([H])c([H])c2C1([H])[H]

>  <smiles>  (25) 
[H]c1c([H])c([H])c2c(c1[H])C([H])([H])C([H])([H])C([H])([H])C2([H])N([H])C(=O)C1([H])N(C(=O)C([H])(N([H])C(=O)C([H])(N([H])C([H])([H])[H])C([H])([H])[H])C(C([H])([H])[H])(C([H])([H])[H])C([H])([H])[H])C([H])([H])c2c([H])c(OC([H])([H])C([H])([H])C([H])([H])N([H])C(=O)N3C([H])([H])C([H])([H])C([H])([H])C([H])(n4nc(-c5c([H])c([H])c(Oc6c([H])c([H])c(F)c([H])c6F)c([H])c5[H])c(C(=O)N([H])[H])c4N([H])[H])C3([H])[H])c([H])c([H])c2C1([H])[H]

$$$$
25:0:0
     RDKit          3D

 93101  0  0  1  0  0  0  0  0999 V2000
  -30.2040  -18.4530   21.5000 C   0  0  0  0  0  3  0  0  0  0  0  0
  -30.3110  -19.8160   21.8670 C   0  0  0  0  0  3  0  0  0  0  0  0
  -30.0100  -18.0990   20.1460 C   0  0  0  0  0  0  0  0  0  0  0  0
  -30.2110  -20.8430   20.9010 C   0  0  0  0  0  0  0  0  0  0  0  0
  -29.9330  -19.1230   19.1770 C   0  0  0  0  0  0  0  0  0  0  0  0
  -30.0360  -20.4800   19.5440 C   0  0  0  0  0  0  0  0  0  0  0  0
  -29.7580  -18.8020   17.8700 F   0  0  0  0  0  0  0  0  0  0  0  0
  -29.9800  -21.4290   18.5760 F   0  0  0  0  0  0  0  0  0  0  0  0
  -30.3000  -22.1920   21.3050 N   0  0  0  0  0  0  0  0  0  0  0  0
  -30.6180  -22.3050   22.2640 H   0  0  0  0  0  0  0  0  0  0  0  0
  -29.1380  -23.0250   20.9820 C   0  0  0  0  0  2  0  0  0  0  0  0
  -29.4700  -24.5240   20.8060 C   0  0  0  0  0  2  0  0  0  0  0  0
  -28.2300  -25.2910   20.3110 C   0  0  0  0  0  2  0  0  0  0  0  0
  -28.4060  -26.7130   20.2590 O   0  0  0  0  0  0  0  0  0  0  0  0
  -24.5920  -31.9120   23.2420 C   0  0  0  0  0  0  0  0  0  0  0  0
  -27.2390  -27.4510   20.2030 C   0  0  0  0  0  0  0  0  0  0  0  0
  -23.3870  -30.5020   21.6050 C   0  0  0  0  0  3  0  0  0  0  0  0
  -24.8440  -28.9610   20.1920 C   0  0  0  0  0  0  0  0  0  0  0  0
  -25.9130  -30.8630   21.4070 C   0  0  0  0  0  2  0  0  0  0  0  0
  -26.0020  -29.4890   20.7750 C   0  0  0  0  0  0  0  0  0  0  0  0
  -27.2040  -28.7430   20.7740 C   0  0  0  0  0  3  0  0  0  0  0  0
  -26.0600  -26.9420   19.6040 C   0  0  0  0  0  3  0  0  0  0  0  0
  -24.8680  -27.6870   19.6020 C   0  0  0  0  0  3  0  0  0  0  0  0
  -23.6000  -29.8160   20.2300 C   0  0  0  0  0  2  0  0  0  0  0  0
  -24.6490  -31.1060   22.1440 N   0  0  0  0  0  0  0  0  0  0  0  0
  -23.5090  -32.1890   23.7770 O   0  0  0  0  0  0  0  0  0  0  0  0
  -22.7340  -29.4860   22.5680 C   0  0  0  0  0  0  0  0  0  0  0  0
  -21.4110  -29.2970   22.4310 N   0  0  0  0  0  0  0  0  0  0  0  0
  -23.4130  -28.8700   23.3920 O   0  0  0  0  0  0  0  0  0  0  0  0
  -20.9260  -29.8440   21.7330 H   0  0  0  0  0  0  0  0  0  0  0  0
  -18.0370  -28.1000   22.9030 C   0  0  0  0  0  0  0  0  0  0  0  0
  -20.5890  -28.3650   23.2020 C   0  0  0  0  0  3  0  0  0  0  0  0
  -20.7030  -26.9290   22.6410 C   0  0  0  0  0  2  0  0  0  0  0  0
  -19.6130  -26.5950   21.6170 C   0  0  0  0  0  2  0  0  0  0  0  0
  -18.2240  -26.7430   22.2450 C   0  0  0  0  0  2  0  0  0  0  0  0
  -19.1480  -28.8690   23.3390 C   0  0  0  0  0  0  0  0  0  0  0  0
  -18.9200  -30.1380   23.9130 C   0  0  0  0  0  3  0  0  0  0  0  0
  -17.6120  -30.6380   24.0560 C   0  0  0  0  0  3  0  0  0  0  0  0
  -16.5150  -29.8650   23.6390 C   0  0  0  0  0  3  0  0  0  0  0  0
  -16.7280  -28.5980   23.0680 C   0  0  0  0  0  3  0  0  0  0  0  0
  -25.8780  -32.5440   23.8610 C   0  0  0  0  0  3  0  0  0  0  0  0
  -25.5720  -33.9440   24.1800 N   0  0  0  0  0  0  0  0  0  0  0  0
  -25.9110  -34.9880   23.4130 C   0  0  0  0  0  0  0  0  0  0  0  0
  -26.5860  -34.8760   22.3850 O   0  0  0  0  0  0  0  0  0  0  0  0
  -24.9750  -34.1080   24.9780 H   0  0  0  0  0  0  0  0  0  0  0  0
  -24.1900  -36.7810   23.0320 C   0  0  0  0  0  1  0  0  0  0  0  0
  -25.4240  -36.3810   23.8560 C   0  0  0  0  0  3  0  0  0  0  0  0
  -27.5550  -37.2650   24.6970 C   0  0  0  0  0  1  0  0  0  0  0  0
  -26.4610  -37.4300   23.7440 N   0  0  0  0  0  0  0  0  0  0  0  0
  -26.0570  -38.3510   23.8840 H   0  0  0  0  0  0  0  0  0  0  0  0
  -26.3930  -31.7780   25.1400 C   0  0  1  0  0  0  0  0  0  0  0  0
  -25.2970  -31.5440   26.2070 C   0  0  0  0  0  1  0  0  0  0  0  0
  -26.9730  -30.3980   24.7490 C   0  0  0  0  0  1  0  0  0  0  0  0
  -27.5450  -32.5720   25.7990 C   0  0  0  0  0  1  0  0  0  0  0  0
  -29.8840  -16.6580   19.6550 C   0  0  0  0  0  2  0  0  0  0  0  0
  -30.6840  -14.4860   20.4280 C   0  0  0  0  0  0  0  0  0  0  0  0
  -30.3770  -12.3170   19.3340 C   0  0  0  0  0  2  0  0  0  0  0  0
  -29.4540  -12.5470   18.1180 C   0  0  0  0  0  2  0  0  0  0  0  0
  -27.9750  -12.4240   18.5310 C   0  0  0  0  0  2  0  0  0  0  0  0
  -27.6300  -13.2650   19.7870 C   0  0  0  0  0  3  0  0  0  0  0  0
  -28.6740  -13.0490   20.9130 C   0  0  0  0  0  2  0  0  0  0  0  0
  -30.0140  -13.3060   20.3590 N   0  0  0  0  0  0  0  0  0  0  0  0
  -31.8410  -14.6320   20.0270 O   0  0  0  0  0  0  0  0  0  0  0  0
  -29.8930  -15.5530   20.6280 N   0  0  0  0  0  0  0  0  0  0  0  0
  -28.9980  -15.3400   21.0390 H   0  0  0  0  0  0  0  0  0  0  0  0
  -25.2250  -13.8920   20.4540 C   0  0  0  0  0  0  0  0  0  0  0  0
  -24.1490  -13.1290   20.8190 C   0  0  0  0  0  0  0  0  0  0  0  0
  -24.6050  -11.7750   20.8140 C   0  0  0  0  0  0  0  0  0  0  0  0
  -26.2690  -13.0030   20.2510 N   0  0  0  0  0  0  0  0  0  0  0  0
  -25.8990  -11.7270   20.5250 N   0  0  0  0  0  0  0  0  0  0  0  0
  -23.8710  -10.5190   21.0100 C   0  0  0  0  0  0  0  0  0  0  0  0
  -24.2940   -9.5560   21.9520 C   0  0  0  0  0  3  0  0  0  0  0  0
  -23.5630   -8.3630   22.1340 C   0  0  0  0  0  3  0  0  0  0  0  0
  -22.3930   -8.1240   21.3740 C   0  0  0  0  0  0  0  0  0  0  0  0
  -21.9900   -9.0750   20.4200 C   0  0  0  0  0  3  0  0  0  0  0  0
  -22.7230  -10.2600   20.2360 C   0  0  0  0  0  3  0  0  0  0  0  0
  -21.6340   -6.9830   21.4650 O   0  0  0  0  0  0  0  0  0  0  0  0
  -21.5810   -6.2440   22.6200 C   0  0  0  0  0  0  0  0  0  0  0  0
  -21.1610   -6.8070   23.8460 C   0  0  0  0  0  3  0  0  0  0  0  0
  -21.0550   -5.9950   24.9930 C   0  0  0  0  0  3  0  0  0  0  0  0
  -21.3570   -4.6220   24.9150 C   0  0  0  0  0  0  0  0  0  0  0  0
  -21.7700   -4.0600   23.6960 C   0  0  0  0  0  3  0  0  0  0  0  0
  -21.8780   -4.8680   22.5500 C   0  0  0  0  0  0  0  0  0  0  0  0
  -22.2550   -4.3170   21.3720 F   0  0  0  0  0  0  0  0  0  0  0  0
  -21.2480   -3.8410   26.0160 F   0  0  0  0  0  0  0  0  0  0  0  0
  -22.7490  -13.6160   21.0660 C   0  0  0  0  0  0  0  0  0  0  0  0
  -22.0070  -12.9330   21.9310 N   0  0  0  0  0  0  0  0  0  0  0  0
  -22.3220  -14.6360   20.5270 O   0  0  0  0  0  0  0  0  0  0  0  0
  -22.3650  -12.1080   22.3890 H   0  0  0  0  0  0  0  0  0  0  0  0
  -21.0680  -13.2400   22.1390 H   0  0  0  0  0  0  0  0  0  0  0  0
  -25.3980  -15.2600   20.2590 N   0  0  0  0  0  0  0  0  0  0  0  0
  -24.6300  -15.9170   20.3410 H   0  0  0  0  0  0  0  0  0  0  0  0
  -26.2480  -15.6890   19.9180 H   0  0  0  0  0  0  0  0  0  0  0  0
  1  2  1  0
  3  1  2  0
  4  9  1  0
  4  2  2  0
  5  6  2  0
  5  3  1  0
  6  4  1  0
  7  5  1  0
  8  6  1  0
  9 10  1  0
 11  9  1  0
 12 11  1  0
 13 12  1  0
 14 13  1  0
 15 26  2  0
 16 14  1  0
 16 21  1  0
 17 25  1  0
 17 27  1  0
 18 24  1  0
 18 20  1  0
 19 25  1  0
 20 19  1  0
 21 20  2  0
 22 16  2  0
 23 22  1  0
 23 18  2  0
 24 17  1  0
 25 15  1  0
 27 29  2  0
 28 27  1  0
 30 28  1  0
 31 40  2  0
 31 36  1  0
 32 28  1  0
 32 36  1  0
 33 32  1  0
 34 35  1  0
 34 33  1  0
 35 31  1  0
 36 37  2  0
 37 38  1  0
 39 38  2  0
 40 39  1  0
 41 15  1  0
 41 42  1  0
 41 51  1  0
 42 45  1  0
 43 47  1  0
 43 42  1  0
 44 43  2  0
 47 46  1  0
 49 47  1  0
 49 50  1  0
 49 48  1  0
 51 54  1  1
 51 52  1  0
 53 51  1  0
 55  3  1  0
 55 64  1  0
 56 64  1  0
 57 62  1  0
 58 59  1  0
 58 57  1  0
 60 59  1  0
 60 69  1  0
 60 61  1  0
 62 56  1  0
 62 61  1  0
 63 56  2  0
 64 65  1  0
 66 67  2  0
 67 86  1  0
 68 67  1  0
 68 71  1  0
 69 66  1  0
 69 70  1  0
 70 68  2  0
 71 72  1  0
 72 73  2  0
 74 77  1  0
 74 73  1  0
 75 74  2  0
 76 75  1  0
 76 71  2  0
 77 78  1  0
 78 79  1  0
 79 80  2  0
 81 80  1  0
 81 85  1  0
 82 81  2  0
 83 78  2  0
 83 82  1  0
 84 83  1  0
 86 87  1  0
 87 90  1  0
 87 89  1  0
 88 86  2  0
 91 92  1  0
 91 66  1  0
 93 91  1  0
M  ISO  4  13 101  14 101  56 100  64 100
M  END
>  <TORSDO>  (26) 
F 21

>  <SCORE>  (26) 
-13.342

>  <name>  (26) 
25

>  <ligand_id>  (26) 
25

>  <original_smiles>  (26) 
[H]c1c([H])c([H])c2c(c1[H])C([H])([H])C([H])([H])C([H])([H])C2([H])N([H])C(=O)C1([H])N(C(=O)C([H])(N([H])C(=O)C([H])(N([H])C([H])([H])[H])C([H])([H])[H])C(C([H])([H])[H])(C([H])([H])[H])C([H])([H])[H])C([H])([H])c2c([H])c(OC([H])([H])C([H])([H])C([H])([H])N([H])c3c([H])c([H])c(C([H])([H])N([H])C(=O)N4C([H])([H])C([H])([H])C([H])([H])C([H])(n5nc(-c6c([H])c([H])c(Oc7c([H])c([H])c(F)c([H])c7F)c([H])c6[H])c(C(=O)N([H])[H])c5N([H])[H])C4([H])[H])c(F)c3F)c([H])c([H])c2C1([H])[H]

>  <smiles>  (26) 
[H]c1c([H])c([H])c2c(c1[H])C([H])([H])C([H])([H])C([H])([H])C2([H])N([H])C(=O)C1([H])N(C(=O)C([H])(N([H])C(=O)C([H])(N([H])C([H])([H])[H])C([H])([H])[H])C(C([H])([H])[H])(C([H])([H])[H])C([H])([H])[H])C([H])([H])c2c([H])c(OC([H])([H])C([H])([H])C([H])([H])N([H])c3c([H])c([H])c(C([H])([H])N([H])C(=O)N4C([H])([H])C([H])([H])C([H])([H])C([H])(n5nc(-c6c([H])c([H])c(Oc7c([H])c([H])c(F)c([H])c7F)c([H])c6[H])c(C(=O)N([H])[H])c5N([H])[H])C4([H])[H])c(F)c3F)c([H])c([H])c2C1([H])[H]

$$$$
26:0:0
     RDKit          3D

 95104  0  0  1  0  0  0  0  0999 V2000
  -26.9880  -19.3280   20.5410 C   0  0  0  0  0  2  0  0  0  0  0  0
  -28.1960  -19.5690   21.2210 C   0  0  0  0  0  2  0  0  0  0  0  0
  -28.2910  -18.2910   18.7060 C   0  0  0  0  0  3  0  0  0  0  0  0
  -27.1010  -18.9270   19.1680 C   0  0  0  0  0  0  0  0  0  0  0  0
  -29.2930  -19.6950   20.3530 C   0  0  0  0  0  3  0  0  0  0  0  0
  -29.4560  -18.3160   19.5580 C   0  0  0  0  0  3  0  0  0  0  0  0
  -31.0970  -15.6450   19.4240 C   0  0  0  0  0  0  0  0  0  0  0  0
  -31.4180  -13.1170   18.7690 C   0  0  0  0  0  2  0  0  0  0  0  0
  -30.3960  -12.4160   17.8090 C   0  0  0  0  0  2  0  0  0  0  0  0
  -29.0730  -12.0740   18.5100 C   0  0  0  0  0  2  0  0  0  0  0  0
  -28.5850  -13.2460   19.3940 C   0  0  0  0  0  3  0  0  0  0  0  0
  -29.6950  -13.6550   20.3770 C   0  0  0  0  0  2  0  0  0  0  0  0
  -30.7460  -14.2530   19.5720 N   0  0  0  0  0  0  0  0  0  0  0  0
  -32.2460  -15.6530   18.9370 O   0  0  0  0  0  0  0  0  0  0  0  0
  -30.4250  -16.9800   19.8390 N   0  0  0  0  0  0  0  0  0  0  0  0
  -31.2790  -17.5040   19.9030 H   0  0  0  0  0  0  0  0  0  0  0  0
  -26.3710  -13.8680   20.4760 C   0  0  0  0  0  0  0  0  0  0  0  0
  -25.3160  -13.1260   20.9240 C   0  0  0  0  0  0  0  0  0  0  0  0
  -25.6910  -11.7620   20.7380 C   0  0  0  0  0  0  0  0  0  0  0  0
  -27.3120  -12.9600   20.0380 N   0  0  0  0  0  0  0  0  0  0  0  0
  -26.9280  -11.6790   20.2640 N   0  0  0  0  0  0  0  0  0  0  0  0
  -24.9130  -10.5300   20.9160 C   0  0  0  0  0  0  0  0  0  0  0  0
  -25.2780   -9.5640   21.8790 C   0  0  0  0  0  3  0  0  0  0  0  0
  -24.5080   -8.3930   22.0500 C   0  0  0  0  0  3  0  0  0  0  0  0
  -23.3550   -8.1780   21.2590 C   0  0  0  0  0  0  0  0  0  0  0  0
  -23.0100   -9.1270   20.2810 C   0  0  0  0  0  3  0  0  0  0  0  0
  -23.7830  -10.2910   20.1070 C   0  0  0  0  0  3  0  0  0  0  0  0
  -22.5650   -7.0560   21.3380 O   0  0  0  0  0  0  0  0  0  0  0  0
  -22.2630   -6.4730   22.5420 C   0  0  0  0  0  0  0  0  0  0  0  0
  -21.5680   -7.1720   23.5530 C   0  0  0  0  0  3  0  0  0  0  0  0
  -21.2180   -6.5140   24.7500 C   0  0  0  0  0  3  0  0  0  0  0  0
  -21.5500   -5.1570   24.9320 C   0  0  0  0  0  0  0  0  0  0  0  0
  -22.2330   -4.4580   23.9220 C   0  0  0  0  0  3  0  0  0  0  0  0
  -22.5870   -5.1150   22.7290 C   0  0  0  0  0  0  0  0  0  0  0  0
  -23.2280   -4.4310   21.7510 F   0  0  0  0  0  0  0  0  0  0  0  0
  -21.2040   -4.5220   26.0760 F   0  0  0  0  0  0  0  0  0  0  0  0
  -23.9950  -13.6510   21.4010 C   0  0  0  0  0  0  0  0  0  0  0  0
  -23.3310  -12.9380   22.3030 N   0  0  0  0  0  0  0  0  0  0  0  0
  -23.5660  -14.7310   21.0010 O   0  0  0  0  0  0  0  0  0  0  0  0
  -23.6900  -12.0630   22.6500 H   0  0  0  0  0  0  0  0  0  0  0  0
  -22.4480  -13.2790   22.6550 H   0  0  0  0  0  0  0  0  0  0  0  0
  -26.5960  -15.2370   20.3660 N   0  0  0  0  0  0  0  0  0  0  0  0
  -25.8540  -15.8950   20.5820 H   0  0  0  0  0  0  0  0  0  0  0  0
  -27.3790  -15.6430   19.8760 H   0  0  0  0  0  0  0  0  0  0  0  0
  -28.6310  -23.5540   18.5570 C   0  0  0  0  0  3  0  0  0  0  0  0
  -28.4700  -23.8580   20.9630 C   0  0  0  0  0  2  0  0  0  0  0  0
  -28.3950  -21.9450   18.9560 C   0  0  0  0  0  2  0  0  0  0  0  0
  -28.8960  -22.2500   21.1530 C   0  0  0  0  0  2  0  0  0  0  0  0
  -28.7960  -24.6770   19.6600 C   0  0  0  0  0  0  0  0  0  0  0  0
  -29.2360  -21.2380   20.0140 N   0  0  0  0  0  0  0  0  0  0  0  0
  -28.7330  -26.2420   19.4620 O   0  0  0  0  0  0  0  0  0  0  0  0
  -24.9700  -31.2630   23.1570 C   0  0  0  0  0  0  0  0  0  0  0  0
  -27.6530  -27.1800   19.4930 C   0  0  0  0  0  0  0  0  0  0  0  0
  -23.8070  -30.1510   21.3010 C   0  0  0  0  0  3  0  0  0  0  0  0
  -25.2920  -28.8580   19.6430 C   0  0  0  0  0  0  0  0  0  0  0  0
  -26.3510  -30.5150   21.1980 C   0  0  0  0  0  2  0  0  0  0  0  0
  -26.4530  -29.2470   20.3240 C   0  0  0  0  0  0  0  0  0  0  0  0
  -27.6410  -28.4280   20.2240 C   0  0  0  0  0  3  0  0  0  0  0  0
  -26.4780  -26.8960   18.7900 C   0  0  0  0  0  3  0  0  0  0  0  0
  -25.3230  -27.7110   18.8370 C   0  0  0  0  0  3  0  0  0  0  0  0
  -24.0570  -29.7050   19.8340 C   0  0  0  0  0  2  0  0  0  0  0  0
  -25.0680  -30.6440   21.9480 N   0  0  0  0  0  0  0  0  0  0  0  0
  -23.8780  -31.4120   23.7270 O   0  0  0  0  0  0  0  0  0  0  0  0
  -23.1150  -28.9900   22.0720 C   0  0  0  0  0  0  0  0  0  0  0  0
  -21.8070  -28.8270   21.9040 N   0  0  0  0  0  0  0  0  0  0  0  0
  -23.8010  -28.2500   22.7920 O   0  0  0  0  0  0  0  0  0  0  0  0
  -21.2800  -29.5860   21.4710 H   0  0  0  0  0  0  0  0  0  0  0  0
  -18.4690  -27.3700   22.0740 C   0  0  0  0  0  0  0  0  0  0  0  0
  -21.0140  -27.7110   22.4090 C   0  0  0  0  0  0  0  0  0  0  0  0
  -21.2130  -26.4300   21.5700 C   0  0  0  0  0  3  0  0  0  0  0  0
  -20.0530  -25.8810   20.7460 C   0  0  0  0  0  3  0  0  0  0  0  0
  -18.6400  -26.3410   21.0360 C   0  0  0  0  0  3  0  0  0  0  0  0
  -19.5660  -28.0870   22.6330 C   0  0  0  0  0  0  0  0  0  0  0  0
  -19.3130  -29.2000   23.3950 C   0  0  0  0  0  3  0  0  0  0  0  0
  -17.9920  -29.5260   23.7440 C   0  0  0  0  0  3  0  0  0  0  0  0
  -16.9110  -28.7940   23.2190 C   0  0  0  0  0  3  0  0  0  0  0  0
  -17.1780  -27.7170   22.3590 C   0  0  0  0  0  3  0  0  0  0  0  0
  -26.2290  -31.7940   23.9070 C   0  0  0  0  0  3  0  0  0  0  0  0
  -26.6880  -30.8660   25.1020 C   0  0  1  0  0  0  0  0  0  0  0  0
  -25.5580  -30.5230   26.1040 C   0  0  0  0  0  1  0  0  0  0  0  0
  -27.2550  -29.5300   24.5620 C   0  0  0  0  0  1  0  0  0  0  0  0
  -27.8300  -31.5560   25.8810 C   0  0  0  0  0  1  0  0  0  0  0  0
  -25.9030  -33.1400   24.4010 N   0  0  0  0  0  0  0  0  0  0  0  0
  -26.2880  -34.2750   23.8050 C   0  0  0  0  0  0  0  0  0  0  0  0
  -27.0030  -34.2980   22.7970 O   0  0  0  0  0  0  0  0  0  0  0  0
  -25.2630  -33.2010   25.1800 H   0  0  0  0  0  0  0  0  0  0  0  0
  -24.6020  -36.1410   23.6050 C   0  0  0  0  0  1  0  0  0  0  0  0
  -25.7910  -35.6040   24.4170 C   0  0  0  0  0  3  0  0  0  0  0  0
  -27.8830  -36.3330   25.4750 C   0  0  0  0  0  1  0  0  0  0  0  0
  -26.8430  -36.6420   24.4980 N   0  0  0  0  0  0  0  0  0  0  0  0
  -26.4440  -37.5490   24.7320 H   0  0  0  0  0  0  0  0  0  0  0  0
  -25.9680  -19.1960   18.1800 C   0  0  2  0  0  0  0  0  0  0  0  0
  -24.9840  -18.4010   18.3810 F   0  0  0  0  0  0  0  0  0  0  0  0
  -26.4440  -19.1080   16.8970 F   0  0  0  0  0  0  0  0  0  0  0  0
  -25.5090  -20.4270   18.2900 F   0  0  0  0  0  0  0  0  0  0  0  0
  1  2  1  0
  3  4  2  0
  3  6  1  0
  4  1  1  0
  5  2  1  0
  6 15  1  0
  6  5  1  0
  7 13  1  0
  7 15  1  0
  8 13  1  0
  9 10  1  0
  9  8  1  0
 11 10  1  0
 11 20  1  0
 11 12  1  0
 13 12  1  0
 14  7  2  0
 15 16  1  0
 17 18  2  0
 18 37  1  0
 19 22  1  0
 19 18  1  0
 20 21  1  0
 20 17  1  0
 21 19  2  0
 22 23  1  0
 23 24  2  0
 25 28  1  0
 25 24  1  0
 26 25  2  0
 27 26  1  0
 27 22  2  0
 28 29  1  0
 29 34  2  0
 29 30  1  0
 30 31  2  0
 31 32  1  0
 32 36  1  0
 33 32  2  0
 34 33  1  0
 35 34  1  0
 37 38  1  0
 38 40  1  0
 38 41  1  0
 39 37  2  0
 42 17  1  0
 42 43  1  0
 44 42  1  0
 45 47  1  0
 45 49  2  0
 46 48  1  0
 49 46  1  0
 50 47  1  0
 50  5  1  0
 50 48  1  0
 51 53  1  0
 51 49  1  0
 52 63  2  0
 53 58  1  0
 54 62  1  0
 54 64  1  0
 55 61  1  0
 55 57  1  0
 56 62  1  0
 57 56  1  0
 58 57  2  0
 59 60  1  0
 59 53  2  0
 60 55  2  0
 61 54  1  0
 62 52  1  0
 64 66  2  0
 65 64  1  0
 65 69  1  0
 67 65  1  0
 68 77  2  0
 68 73  1  0
 69 73  1  0
 70 69  2  0
 71 72  2  0
 71 70  1  0
 72 68  1  0
 73 74  2  0
 74 75  1  0
 76 75  2  0
 77 76  1  0
 78 52  1  0
 78 83  1  0
 78 79  1  0
 79 82  1  1
 79 80  1  0
 81 79  1  0
 83 86  1  0
 84 83  1  0
 84 88  1  0
 85 84  2  0
 88 87  1  0
 88 90  1  0
 90 91  1  0
 90 89  1  0
 92 95  1  1
 92 93  1  0
 92  4  1  0
 94 92  1  0
M  ISO  4   7 100  15 100  49 101  51 101
M  END
>  <TORSDO>  (27) 
F 18

>  <SCORE>  (27) 
-8.146

>  <name>  (27) 
26

>  <ligand_id>  (27) 
26

>  <original_smiles>  (27) 
[H]c1c([H])c([H])c2c(c1[H])C([H])([H])C([H])([H])C([H])([H])C2([H])N([H])C(=O)C1([H])N(C(=O)C([H])(N([H])C(=O)C([H])(N([H])C([H])([H])[H])C([H])([H])[H])C(C([H])([H])[H])(C([H])([H])[H])C([H])([H])[H])C([H])([H])c2c([H])c(OC3([H])C([H])([H])C([H])([H])N(c4c([H])c([H])c(C(F)(F)F)c([H])c4N([H])C(=O)N4C([H])([H])C([H])([H])C([H])([H])C([H])(n5nc(-c6c([H])c([H])c(Oc7c([H])c([H])c(F)c([H])c7F)c([H])c6[H])c(C(=O)N([H])[H])c5N([H])[H])C4([H])[H])C([H])([H])C3([H])[H])c([H])c([H])c2C1([H])[H]

>  <smiles>  (27) 
[H]c1c([H])c([H])c2c(c1[H])C([H])([H])C([H])([H])C([H])([H])C2([H])N([H])C(=O)C1([H])N(C(=O)C([H])(N([H])C(=O)C([H])(N([H])C([H])([H])[H])C([H])([H])[H])C(C([H])([H])[H])(C([H])([H])[H])C([H])([H])[H])C([H])([H])c2c([H])c(OC3([H])C([H])([H])C([H])([H])N(c4c([H])c([H])c(C(F)(F)F)c([H])c4N([H])C(=O)N4C([H])([H])C([H])([H])C([H])([H])C([H])(n5nc(-c6c([H])c([H])c(Oc7c([H])c([H])c(F)c([H])c7F)c([H])c6[H])c(C(=O)N([H])[H])c5N([H])[H])C4([H])[H])C([H])([H])C3([H])[H])c([H])c([H])c2C1([H])[H]

$$$$
27:0:0
     RDKit          3D

 93102  0  0  1  0  0  0  0  0999 V2000
  -29.3520  -24.1090   20.0450 C   0  0  0  0  0  0  0  0  0  0  0  0
  -27.2880  -24.2990   21.1330 C   0  0  0  0  0  2  0  0  0  0  0  0
  -27.7420  -22.8110   21.0530 C   0  0  0  0  0  2  0  0  0  0  0  0
  -28.0940  -25.0290   20.0480 C   0  0  0  0  0  3  0  0  0  0  0  0
  -29.0830  -22.8320   20.4670 N   0  0  0  0  0  0  0  0  0  0  0  0
  -30.4630  -24.5210   19.6960 O   0  0  0  0  0  0  0  0  0  0  0  0
  -28.3040  -26.4920   20.2440 O   0  0  0  0  0  0  0  0  0  0  0  0
  -24.6030  -31.8730   23.3050 C   0  0  0  0  0  0  0  0  0  0  0  0
  -27.1880  -27.3460   20.1860 C   0  0  0  0  0  0  0  0  0  0  0  0
  -23.3890  -30.5040   21.6490 C   0  0  0  0  0  3  0  0  0  0  0  0
  -24.8300  -28.9750   20.1900 C   0  0  0  0  0  0  0  0  0  0  0  0
  -25.9290  -30.8150   21.4610 C   0  0  0  0  0  2  0  0  0  0  0  0
  -26.0000  -29.4450   20.7990 C   0  0  0  0  0  0  0  0  0  0  0  0
  -27.1800  -28.6430   20.7890 C   0  0  0  0  0  3  0  0  0  0  0  0
  -25.9940  -26.9370   19.5420 C   0  0  0  0  0  3  0  0  0  0  0  0
  -24.8310  -27.7270   19.5490 C   0  0  0  0  0  3  0  0  0  0  0  0
  -23.5940  -29.8480   20.2580 C   0  0  0  0  0  2  0  0  0  0  0  0
  -24.6610  -31.0790   22.1960 N   0  0  0  0  0  0  0  0  0  0  0  0
  -23.5210  -32.1510   23.8420 O   0  0  0  0  0  0  0  0  0  0  0  0
  -22.7220  -29.4780   22.5940 C   0  0  0  0  0  0  0  0  0  0  0  0
  -21.3980  -29.2990   22.4570 N   0  0  0  0  0  0  0  0  0  0  0  0
  -23.3980  -28.8450   23.4100 O   0  0  0  0  0  0  0  0  0  0  0  0
  -20.9130  -29.8600   21.7710 H   0  0  0  0  0  0  0  0  0  0  0  0
  -18.0170  -28.1010   22.9200 C   0  0  0  0  0  0  0  0  0  0  0  0
  -20.5730  -28.3550   23.2120 C   0  0  0  0  0  3  0  0  0  0  0  0
  -20.6780  -26.9300   22.6220 C   0  0  0  0  0  2  0  0  0  0  0  0
  -19.5840  -26.6190   21.5970 C   0  0  0  0  0  2  0  0  0  0  0  0
  -18.1980  -26.7590   22.2330 C   0  0  0  0  0  2  0  0  0  0  0  0
  -19.1340  -28.8590   23.3650 C   0  0  0  0  0  0  0  0  0  0  0  0
  -18.9120  -30.1180   23.9660 C   0  0  0  0  0  3  0  0  0  0  0  0
  -17.6060  -30.6160   24.1310 C   0  0  0  0  0  3  0  0  0  0  0  0
  -16.5040  -29.8550   23.7030 C   0  0  0  0  0  3  0  0  0  0  0  0
  -16.7110  -28.6000   23.1030 C   0  0  0  0  0  3  0  0  0  0  0  0
  -25.8890  -32.4880   23.9340 C   0  0  0  0  0  3  0  0  0  0  0  0
  -25.5970  -33.8910   24.2620 N   0  0  0  0  0  0  0  0  0  0  0  0
  -25.9130  -34.9370   23.4870 C   0  0  0  0  0  0  0  0  0  0  0  0
  -26.5540  -34.8220   22.4380 O   0  0  0  0  0  0  0  0  0  0  0  0
  -25.0250  -34.0520   25.0780 H   0  0  0  0  0  0  0  0  0  0  0  0
  -24.1700  -36.7290   23.1860 C   0  0  0  0  0  1  0  0  0  0  0  0
  -25.4450  -36.3330   23.9470 C   0  0  0  0  0  3  0  0  0  0  0  0
  -27.6120  -37.2320   24.6740 C   0  0  0  0  0  1  0  0  0  0  0  0
  -26.4710  -37.3840   23.7760 N   0  0  0  0  0  0  0  0  0  0  0  0
  -26.0700  -38.3060   23.9230 H   0  0  0  0  0  0  0  0  0  0  0  0
  -26.3870  -31.7100   25.2130 C   0  0  1  0  0  0  0  0  0  0  0  0
  -25.2840  -31.4850   26.2750 C   0  0  0  0  0  1  0  0  0  0  0  0
  -26.9530  -30.3250   24.8240 C   0  0  0  0  0  1  0  0  0  0  0  0
  -27.5440  -32.4880   25.8820 C   0  0  0  0  0  1  0  0  0  0  0  0
  -30.1170  -21.7490   20.6900 C   0  0  0  0  0  2  0  0  0  0  0  0
  -28.7150  -19.4570   20.4830 C   0  0  0  0  0  3  0  0  0  0  0  0
  -28.6900  -18.0230   20.4780 C   0  0  0  0  0  3  0  0  0  0  0  0
  -31.0840  -17.9430   20.5980 C   0  0  0  0  0  3  0  0  0  0  0  0
  -29.9360  -20.1780   20.5710 C   0  0  0  0  0  0  0  0  0  0  0  0
  -29.8660  -17.2160   20.5390 C   0  0  0  0  0  0  0  0  0  0  0  0
  -31.1130  -19.3700   20.6150 C   0  0  0  0  0  0  0  0  0  0  0  0
  -32.3190  -19.9820   20.7000 F   0  0  0  0  0  0  0  0  0  0  0  0
  -30.5760  -14.7040   20.2410 C   0  0  0  0  0  0  0  0  0  0  0  0
  -30.3820  -12.4670   19.1590 C   0  0  0  0  0  2  0  0  0  0  0  0
  -29.4210  -12.6110   17.9570 C   0  0  0  0  0  2  0  0  0  0  0  0
  -27.9510  -12.4320   18.3980 C   0  0  0  0  0  2  0  0  0  0  0  0
  -27.6030  -13.2750   19.6530 C   0  0  0  0  0  3  0  0  0  0  0  0
  -28.6780  -13.1080   20.7520 C   0  0  0  0  0  2  0  0  0  0  0  0
  -29.9780  -13.4720   20.1620 N   0  0  0  0  0  0  0  0  0  0  0  0
  -31.7400  -14.8730   19.8600 O   0  0  0  0  0  0  0  0  0  0  0  0
  -29.7450  -15.7480   20.5800 N   0  0  0  0  0  0  0  0  0  0  0  0
  -28.8190  -15.4190   20.8070 H   0  0  0  0  0  0  0  0  0  0  0  0
  -25.2150  -13.8640   20.4060 C   0  0  0  0  0  0  0  0  0  0  0  0
  -24.1580  -13.0860   20.7980 C   0  0  0  0  0  0  0  0  0  0  0  0
  -24.6260  -11.7360   20.7580 C   0  0  0  0  0  0  0  0  0  0  0  0
  -26.2610  -12.9880   20.1560 N   0  0  0  0  0  0  0  0  0  0  0  0
  -25.9130  -11.7050   20.4270 N   0  0  0  0  0  0  0  0  0  0  0  0
  -23.9090  -10.4710   20.9610 C   0  0  0  0  0  0  0  0  0  0  0  0
  -24.3450   -9.5170   21.9070 C   0  0  0  0  0  3  0  0  0  0  0  0
  -23.6280   -8.3140   22.0960 C   0  0  0  0  0  3  0  0  0  0  0  0
  -22.4600   -8.0580   21.3390 C   0  0  0  0  0  0  0  0  0  0  0  0
  -22.0410   -9.0030   20.3870 C   0  0  0  0  0  3  0  0  0  0  0  0
  -22.7570  -10.1970   20.1970 C   0  0  0  0  0  3  0  0  0  0  0  0
  -21.7150   -6.9080   21.4350 O   0  0  0  0  0  0  0  0  0  0  0  0
  -21.6530   -6.1870   22.6010 C   0  0  0  0  0  0  0  0  0  0  0  0
  -21.1730   -6.7520   23.8040 C   0  0  0  0  0  3  0  0  0  0  0  0
  -21.0590   -5.9550   24.9600 C   0  0  0  0  0  3  0  0  0  0  0  0
  -21.4170   -4.5950   24.9160 C   0  0  0  0  0  0  0  0  0  0  0  0
  -21.8900   -4.0290   23.7190 C   0  0  0  0  0  3  0  0  0  0  0  0
  -22.0030   -4.8220   22.5640 C   0  0  0  0  0  0  0  0  0  0  0  0
  -22.4410   -4.2680   21.4080 F   0  0  0  0  0  0  0  0  0  0  0  0
  -21.3010   -3.8280   26.0250 F   0  0  0  0  0  0  0  0  0  0  0  0
  -22.7610  -13.5560   21.0900 C   0  0  0  0  0  0  0  0  0  0  0  0
  -22.0500  -12.8630   21.9720 N   0  0  0  0  0  0  0  0  0  0  0  0
  -22.3090  -14.5740   20.5680 O   0  0  0  0  0  0  0  0  0  0  0  0
  -22.4300  -12.0450   22.4260 H   0  0  0  0  0  0  0  0  0  0  0  0
  -21.1110  -13.1600   22.2010 H   0  0  0  0  0  0  0  0  0  0  0  0
  -25.3700  -15.2330   20.2180 N   0  0  0  0  0  0  0  0  0  0  0  0
  -24.5900  -15.8750   20.3000 H   0  0  0  0  0  0  0  0  0  0  0  0
  -26.1880  -15.6500   19.7920 H   0  0  0  0  0  0  0  0  0  0  0  0
  1  4  1  0
  1  5  1  0
  3  2  1  0
  4  7  1  0
  4  2  1  0
  5 48  1  0
  5  3  1  0
  6  1  2  0
  8 19  2  0
  9  7  1  0
  9 14  1  0
 10 18  1  0
 10 20  1  0
 11 17  1  0
 11 13  1  0
 12 18  1  0
 13 12  1  0
 14 13  2  0
 15 16  1  0
 15  9  2  0
 16 11  2  0
 17 10  1  0
 18  8  1  0
 20 22  2  0
 21 20  1  0
 23 21  1  0
 24 33  2  0
 24 29  1  0
 25 21  1  0
 25 29  1  0
 26 25  1  0
 27 28  1  0
 27 26  1  0
 28 24  1  0
 29 30  2  0
 30 31  1  0
 32 31  2  0
 33 32  1  0
 34  8  1  0
 34 35  1  0
 34 44  1  0
 35 38  1  0
 36 40  1  0
 36 35  1  0
 37 36  2  0
 40 39  1  0
 42 43  1  0
 42 40  1  0
 42 41  1  0
 44 47  1  1
 44 45  1  0
 46 44  1  0
 49 52  1  0
 50 49  2  0
 50 53  1  0
 51 54  1  0
 52 54  2  0
 52 48  1  0
 53 64  1  0
 53 51  2  0
 54 55  1  0
 56 64  1  0
 57 62  1  0
 58 59  1  0
 58 57  1  0
 60 59  1  0
 60 69  1  0
 60 61  1  0
 62 56  1  0
 62 61  1  0
 63 56  2  0
 64 65  1  0
 66 67  2  0
 67 86  1  0
 68 67  1  0
 68 71  1  0
 69 66  1  0
 69 70  1  0
 70 68  2  0
 71 72  1  0
 72 73  2  0
 74 77  1  0
 74 73  1  0
 75 74  2  0
 76 75  1  0
 76 71  2  0
 77 78  1  0
 78 79  1  0
 79 80  2  0
 81 80  1  0
 81 85  1  0
 82 81  2  0
 83 78  2  0
 83 82  1  0
 84 83  1  0
 86 87  1  0
 87 90  1  0
 87 89  1  0
 88 86  2  0
 91 92  1  0
 91 66  1  0
 93 91  1  0
M  ISO  4   4 101   7 101  56 100  64 100
M  END
>  <TORSDO>  (28) 
F 18

>  <SCORE>  (28) 
-14.988

>  <name>  (28) 
27

>  <ligand_id>  (28) 
27

>  <original_smiles>  (28) 
[H]c1c([H])c([H])c2c(c1[H])C([H])([H])C([H])([H])C([H])([H])C2([H])N([H])C(=O)C1([H])N(C(=O)C([H])(N([H])C(=O)C([H])(N([H])C([H])([H])[H])C([H])([H])[H])C(C([H])([H])[H])(C([H])([H])[H])C([H])([H])[H])C([H])([H])c2c([H])c(OC3([H])C(=O)N(C([H])([H])c4c([H])c([H])c(N([H])C(=O)N5C([H])([H])C([H])([H])C([H])([H])C([H])(n6nc(-c7c([H])c([H])c(Oc8c([H])c([H])c(F)c([H])c8F)c([H])c7[H])c(C(=O)N([H])[H])c6N([H])[H])C5([H])[H])c([H])c4F)C([H])([H])C3([H])[H])c([H])c([H])c2C1([H])[H]

>  <smiles>  (28) 
[H]c1c([H])c([H])c2c(c1[H])C([H])([H])C([H])([H])C([H])([H])C2([H])N([H])C(=O)C1([H])N(C(=O)C([H])(N([H])C(=O)C([H])(N([H])C([H])([H])[H])C([H])([H])[H])C(C([H])([H])[H])(C([H])([H])[H])C([H])([H])[H])C([H])([H])c2c([H])c(OC3([H])C(=O)N(C([H])([H])c4c([H])c([H])c(N([H])C(=O)N5C([H])([H])C([H])([H])C([H])([H])C([H])(n6nc(-c7c([H])c([H])c(Oc8c([H])c([H])c(F)c([H])c8F)c([H])c7[H])c(C(=O)N([H])[H])c6N([H])[H])C5([H])[H])c([H])c4F)C([H])([H])C3([H])[H])c([H])c([H])c2C1([H])[H]

$$$$
28:0:0
     RDKit          3D

 86 94  0  0  1  0  0  0  0  0999 V2000
  -29.0460  -22.7890   20.1140 C   0  0  0  0  0  3  0  0  0  0  0  0
  -28.0360  -24.2840   19.9560 C   0  0  0  0  0  3  0  0  0  0  0  0
  -28.2020  -25.8810   20.3350 O   0  0  0  0  0  0  0  0  0  0  0  0
  -24.5470  -31.7830   23.2890 C   0  0  0  0  0  0  0  0  0  0  0  0
  -27.1790  -26.9640   20.2560 C   0  0  0  0  0  0  0  0  0  0  0  0
  -23.3850  -30.4000   21.6150 C   0  0  0  0  0  3  0  0  0  0  0  0
  -24.8640  -28.8210   20.1960 C   0  0  0  0  0  0  0  0  0  0  0  0
  -25.9500  -30.6300   21.5090 C   0  0  0  0  0  2  0  0  0  0  0  0
  -26.0390  -29.2290   20.8380 C   0  0  0  0  0  0  0  0  0  0  0  0
  -27.1910  -28.3220   20.8430 C   0  0  0  0  0  3  0  0  0  0  0  0
  -25.9730  -26.7020   19.5670 C   0  0  0  0  0  3  0  0  0  0  0  0
  -24.8560  -27.5780   19.5400 C   0  0  0  0  0  3  0  0  0  0  0  0
  -23.6380  -29.7320   20.2350 C   0  0  0  0  0  2  0  0  0  0  0  0
  -24.6480  -30.9640   22.1920 N   0  0  0  0  0  0  0  0  0  0  0  0
  -23.4480  -32.0600   23.7970 O   0  0  0  0  0  0  0  0  0  0  0  0
  -22.6810  -29.3900   22.5590 C   0  0  0  0  0  0  0  0  0  0  0  0
  -21.3580  -29.2030   22.3970 N   0  0  0  0  0  0  0  0  0  0  0  0
  -23.3330  -28.7750   23.4060 O   0  0  0  0  0  0  0  0  0  0  0  0
  -20.8850  -29.7510   21.6920 H   0  0  0  0  0  0  0  0  0  0  0  0
  -17.9850  -27.9300   22.8020 C   0  0  0  0  0  0  0  0  0  0  0  0
  -20.5300  -28.2490   23.1430 C   0  0  0  0  0  3  0  0  0  0  0  0
  -20.6780  -26.8190   22.5720 C   0  0  0  0  0  2  0  0  0  0  0  0
  -19.6140  -26.4750   21.5240 C   0  0  0  0  0  2  0  0  0  0  0  0
  -18.2110  -26.5870   22.1270 C   0  0  0  0  0  2  0  0  0  0  0  0
  -19.0730  -28.7170   23.2650 C   0  0  0  0  0  0  0  0  0  0  0  0
  -18.8060  -29.9700   23.8570 C   0  0  0  0  0  3  0  0  0  0  0  0
  -17.4860  -30.4380   23.9890 C   0  0  0  0  0  3  0  0  0  0  0  0
  -16.4120  -29.6490   23.5410 C   0  0  0  0  0  3  0  0  0  0  0  0
  -16.6620  -28.3960   22.9540 C   0  0  0  0  0  3  0  0  0  0  0  0
  -25.8050  -32.4240   23.9490 C   0  0  0  0  0  3  0  0  0  0  0  0
  -26.2380  -31.7030   25.2860 C   0  0  1  0  0  0  0  0  0  0  0  0
  -25.0860  -31.5370   26.3060 C   0  0  0  0  0  1  0  0  0  0  0  0
  -26.8100  -30.2970   24.9960 C   0  0  0  0  0  1  0  0  0  0  0  0
  -27.3700  -32.5050   25.9710 C   0  0  0  0  0  1  0  0  0  0  0  0
  -25.5060  -33.8420   24.2130 N   0  0  0  0  0  0  0  0  0  0  0  0
  -25.8670  -34.8630   23.4240 C   0  0  0  0  0  0  0  0  0  0  0  0
  -26.5490  -34.7100   22.4070 O   0  0  0  0  0  0  0  0  0  0  0  0
  -24.9020  -34.0360   24.9990 H   0  0  0  0  0  0  0  0  0  0  0  0
  -24.1680  -36.6730   22.9940 C   0  0  0  0  0  1  0  0  0  0  0  0
  -25.4000  -36.2790   23.8240 C   0  0  0  0  0  3  0  0  0  0  0  0
  -27.5410  -37.1750   24.6320 C   0  0  0  0  0  1  0  0  0  0  0  0
  -26.4500  -37.3110   23.6710 N   0  0  0  0  0  0  0  0  0  0  0  0
  -26.0560  -38.2430   23.7690 H   0  0  0  0  0  0  0  0  0  0  0  0
  -28.9150  -21.2410   19.5690 O   0  0  0  0  0  0  0  0  0  0  0  0
  -29.8640  -19.9010   19.6700 C   0  0  0  0  0  2  0  0  0  0  0  0
  -30.7020  -15.4020   19.5410 C   0  0  0  0  0  0  0  0  0  0  0  0
  -30.5730  -12.9350   18.7190 C   0  0  0  0  0  2  0  0  0  0  0  0
  -29.5660  -12.7190   17.5580 C   0  0  0  0  0  2  0  0  0  0  0  0
  -28.1490  -12.4700   18.0990 C   0  0  0  0  0  2  0  0  0  0  0  0
  -27.7930  -13.4530   19.2390 C   0  0  0  0  0  3  0  0  0  0  0  0
  -28.9190  -13.5880   20.2850 C   0  0  0  0  0  2  0  0  0  0  0  0
  -30.1160  -14.0950   19.5820 N   0  0  0  0  0  0  0  0  0  0  0  0
  -31.8320  -15.3880   19.0300 O   0  0  0  0  0  0  0  0  0  0  0  0
  -28.1660  -17.5060   21.1330 C   0  0  0  0  0  2  0  0  0  0  0  0
  -28.0870  -18.0130   19.6850 C   0  0  0  0  0  2  0  0  0  0  0  0
  -29.5460  -16.8440   21.2680 C   0  0  0  0  0  2  0  0  0  0  0  0
  -29.5520  -18.1670   19.2770 C   0  0  0  0  0  3  0  0  0  0  0  0
  -30.0510  -16.7000   19.9070 N   0  0  0  0  0  0  0  0  0  0  0  0
  -25.5050  -14.0500   20.1970 C   0  0  0  0  0  0  0  0  0  0  0  0
  -24.4610  -13.2950   20.6480 C   0  0  0  0  0  0  0  0  0  0  0  0
  -24.8880  -11.9350   20.5490 C   0  0  0  0  0  0  0  0  0  0  0  0
  -26.5020  -13.1580   19.8490 N   0  0  0  0  0  0  0  0  0  0  0  0
  -26.1470  -11.8760   20.1260 N   0  0  0  0  0  0  0  0  0  0  0  0
  -24.1440  -10.6900   20.7740 C   0  0  0  0  0  0  0  0  0  0  0  0
  -24.5640   -9.7390   21.7290 C   0  0  0  0  0  3  0  0  0  0  0  0
  -23.8170   -8.5600   21.9420 C   0  0  0  0  0  3  0  0  0  0  0  0
  -22.6360   -8.3240   21.1990 C   0  0  0  0  0  0  0  0  0  0  0  0
  -22.2340   -9.2640   20.2330 C   0  0  0  0  0  3  0  0  0  0  0  0
  -22.9810  -10.4340   20.0180 C   0  0  0  0  0  3  0  0  0  0  0  0
  -21.8610   -7.1960   21.3180 O   0  0  0  0  0  0  0  0  0  0  0  0
  -21.7220   -6.5430   22.5170 C   0  0  0  0  0  0  0  0  0  0  0  0
  -21.2040   -7.1890   23.6610 C   0  0  0  0  0  3  0  0  0  0  0  0
  -21.0130   -6.4620   24.8530 C   0  0  0  0  0  3  0  0  0  0  0  0
  -21.3290   -5.0900   24.9020 C   0  0  0  0  0  0  0  0  0  0  0  0
  -21.8390   -4.4450   23.7620 C   0  0  0  0  0  3  0  0  0  0  0  0
  -22.0320   -5.1690   22.5720 C   0  0  0  0  0  0  0  0  0  0  0  0
  -22.5040   -4.5380   21.4700 F   0  0  0  0  0  0  0  0  0  0  0  0
  -21.1380   -4.3910   26.0440 F   0  0  0  0  0  0  0  0  0  0  0  0
  -23.1090  -13.8040   21.0490 C   0  0  0  0  0  0  0  0  0  0  0  0
  -22.4440  -13.1190   21.9720 N   0  0  0  0  0  0  0  0  0  0  0  0
  -22.6540  -14.8480   20.5820 O   0  0  0  0  0  0  0  0  0  0  0  0
  -22.8280  -12.2750   22.3720 H   0  0  0  0  0  0  0  0  0  0  0  0
  -21.5410  -13.4420   22.2850 H   0  0  0  0  0  0  0  0  0  0  0  0
  -25.6750  -15.4170   20.0220 N   0  0  0  0  0  0  0  0  0  0  0  0
  -24.9360  -16.0830   20.2180 H   0  0  0  0  0  0  0  0  0  0  0  0
  -26.5100  -15.8490   19.6490 H   0  0  0  0  0  0  0  0  0  0  0  0
  2  1  2  0
  2  3  1  0
  4 15  2  0
  5  3  1  0
  5 10  1  0
  6 14  1  0
  6 16  1  0
  7 13  1  0
  7  9  1  0
  8 14  1  0
  9 10  2  0
  9  8  1  0
 11  5  2  0
 12 11  1  0
 12  7  2  0
 13  6  1  0
 14  4  1  0
 16 18  2  0
 17 16  1  0
 19 17  1  0
 20 29  2  0
 20 25  1  0
 21 17  1  0
 21 25  1  0
 22 21  1  0
 23 24  1  0
 23 22  1  0
 24 20  1  0
 25 26  2  0
 26 27  1  0
 28 27  2  0
 29 28  1  0
 30  4  1  0
 30 35  1  0
 30 31  1  0
 31 34  1  1
 31 32  1  0
 33 31  1  0
 35 38  1  0
 36 40  1  0
 36 35  1  0
 37 36  2  0
 40 39  1  0
 42 43  1  0
 42 40  1  0
 42 41  1  0
 44 45  1  0
 44  1  1  0
 46 52  1  0
 46 58  1  0
 47 52  1  0
 48 49  1  0
 48 47  1  0
 50 49  1  0
 50 62  1  0
 50 51  1  0
 52 51  1  0
 53 46  2  0
 54 56  1  0
 55 54  1  0
 57 45  1  0
 57 55  1  0
 57 58  1  0
 58 56  1  0
 59 60  2  0
 60 79  1  0
 61 60  1  0
 61 64  1  0
 62 63  1  0
 62 59  1  0
 63 61  2  0
 64 65  1  0
 65 66  2  0
 67 70  1  0
 67 66  1  0
 68 67  2  0
 69 68  1  0
 69 64  2  0
 70 71  1  0
 71 76  2  0
 71 72  1  0
 72 73  2  0
 73 74  1  0
 74 78  1  0
 75 74  2  0
 76 75  1  0
 77 76  1  0
 79 80  1  0
 80 83  1  0
 80 82  1  0
 81 79  2  0
 84 59  1  0
 84 85  1  0
 86 84  1  0
M  ISO  4   2 101   3 101  46 100  58 100
M  END
>  <TORSDO>  (29) 
F 19

>  <SCORE>  (29) 
-14.507

>  <name>  (29) 
28

>  <ligand_id>  (29) 
28

>  <original_smiles>  (29) 
[H]c1c([H])c([H])c2c(c1[H])C([H])([H])C([H])([H])C([H])([H])C2([H])N([H])C(=O)C1([H])N(C(=O)C([H])(N([H])C(=O)C([H])(N([H])C([H])([H])[H])C([H])([H])[H])C(C([H])([H])[H])(C([H])([H])[H])C([H])([H])[H])C([H])([H])c2c([H])c(OC([H])([H])C([H])([H])OC([H])([H])C3([H])N(C(=O)N4C([H])([H])C([H])([H])C([H])([H])C([H])(n5nc(-c6c([H])c([H])c(Oc7c([H])c([H])c(F)c([H])c7F)c([H])c6[H])c(C(=O)N([H])[H])c5N([H])[H])C4([H])[H])C([H])([H])C([H])([H])C3([H])[H])c([H])c([H])c2C1([H])[H]

>  <smiles>  (29) 
[H]c1c([H])c([H])c2c(c1[H])C([H])([H])C([H])([H])C([H])([H])C2([H])N([H])C(=O)C1([H])N(C(=O)C([H])(N([H])C(=O)C([H])(N([H])C([H])([H])[H])C([H])([H])[H])C(C([H])([H])[H])(C([H])([H])[H])C([H])([H])[H])C([H])([H])c2c([H])c(OC([H])([H])C([H])([H])OC([H])([H])C3([H])N(C(=O)N4C([H])([H])C([H])([H])C([H])([H])C([H])(n5nc(-c6c([H])c([H])c(Oc7c([H])c([H])c(F)c([H])c7F)c([H])c6[H])c(C(=O)N([H])[H])c5N([H])[H])C4([H])[H])C([H])([H])C([H])([H])C3([H])[H])c([H])c([H])c2C1([H])[H]

$$$$
29:0:0
     RDKit          3D

 89 97  0  0  1  0  0  0  0  0999 V2000
  -30.6180  -18.5840   20.2340 C   0  0  0  0  0  3  0  0  0  0  0  0
  -30.3220  -20.0210   20.1180 C   0  0  0  0  0  3  0  0  0  0  0  0
  -28.3230  -18.1100   19.9970 C   0  0  0  0  0  3  0  0  0  0  0  0
  -29.6220  -17.5390   20.1790 C   0  0  0  0  0  0  0  0  0  0  0  0
  -28.9990  -20.5680   19.9200 C   0  0  0  0  0  0  0  0  0  0  0  0
  -28.0300  -19.5160   19.8660 C   0  0  0  0  0  0  0  0  0  0  0  0
  -26.7350  -19.8670   19.6790 F   0  0  0  0  0  0  0  0  0  0  0  0
  -30.5800  -14.9230   20.0660 C   0  0  0  0  0  0  0  0  0  0  0  0
  -30.4510  -12.5660   19.1460 C   0  0  0  0  0  2  0  0  0  0  0  0
  -29.4680  -12.5400   17.9490 C   0  0  0  0  0  2  0  0  0  0  0  0
  -28.0140  -12.3550   18.4280 C   0  0  0  0  0  2  0  0  0  0  0  0
  -27.6620  -13.2860   19.6170 C   0  0  0  0  0  3  0  0  0  0  0  0
  -28.7540  -13.2570   20.7090 C   0  0  0  0  0  2  0  0  0  0  0  0
  -30.0190  -13.6500   20.0680 N   0  0  0  0  0  0  0  0  0  0  0  0
  -31.7560  -15.0460   19.7010 O   0  0  0  0  0  0  0  0  0  0  0  0
  -29.7160  -16.0150   20.3160 N   0  0  0  0  0  0  0  0  0  0  0  0
  -28.8300  -15.6250   20.5980 H   0  0  0  0  0  0  0  0  0  0  0  0
  -25.3230  -13.9140   20.4530 C   0  0  0  0  0  0  0  0  0  0  0  0
  -24.2550  -13.1600   20.8530 C   0  0  0  0  0  0  0  0  0  0  0  0
  -24.6820  -11.7990   20.7750 C   0  0  0  0  0  0  0  0  0  0  0  0
  -26.3340  -13.0150   20.1560 N   0  0  0  0  0  0  0  0  0  0  0  0
  -25.9580  -11.7360   20.4130 N   0  0  0  0  0  0  0  0  0  0  0  0
  -23.9310  -10.5510   20.9660 C   0  0  0  0  0  0  0  0  0  0  0  0
  -24.3600   -9.5610   21.8760 C   0  0  0  0  0  3  0  0  0  0  0  0
  -23.6090   -8.3800   22.0560 C   0  0  0  0  0  3  0  0  0  0  0  0
  -22.4150   -8.1800   21.3260 C   0  0  0  0  0  0  0  0  0  0  0  0
  -22.0020   -9.1580   20.4040 C   0  0  0  0  0  3  0  0  0  0  0  0
  -22.7540  -10.3310   20.2210 C   0  0  0  0  0  3  0  0  0  0  0  0
  -21.6350   -7.0520   21.4170 O   0  0  0  0  0  0  0  0  0  0  0  0
  -21.5790   -6.3060   22.5670 C   0  0  0  0  0  0  0  0  0  0  0  0
  -21.1440   -6.8560   23.7920 C   0  0  0  0  0  3  0  0  0  0  0  0
  -21.0370   -6.0370   24.9340 C   0  0  0  0  0  3  0  0  0  0  0  0
  -21.3540   -4.6680   24.8510 C   0  0  0  0  0  0  0  0  0  0  0  0
  -21.7830   -4.1170   23.6300 C   0  0  0  0  0  3  0  0  0  0  0  0
  -21.8920   -4.9330   22.4910 C   0  0  0  0  0  0  0  0  0  0  0  0
  -22.2850   -4.3930   21.3120 F   0  0  0  0  0  0  0  0  0  0  0  0
  -21.2440   -3.8790   25.9450 F   0  0  0  0  0  0  0  0  0  0  0  0
  -22.8820  -13.6670   21.1860 C   0  0  0  0  0  0  0  0  0  0  0  0
  -22.1720  -12.9770   22.0720 N   0  0  0  0  0  0  0  0  0  0  0  0
  -22.4480  -14.7080   20.6950 O   0  0  0  0  0  0  0  0  0  0  0  0
  -22.5360  -12.1340   22.4910 H   0  0  0  0  0  0  0  0  0  0  0  0
  -21.2520  -13.2980   22.3390 H   0  0  0  0  0  0  0  0  0  0  0  0
  -25.5110  -15.2840   20.2900 N   0  0  0  0  0  0  0  0  0  0  0  0
  -24.7430  -15.9360   20.4050 H   0  0  0  0  0  0  0  0  0  0  0  0
  -26.3000  -15.6870   19.8030 H   0  0  0  0  0  0  0  0  0  0  0  0
  -28.5040  -21.9350   19.7320 O   0  0  0  0  0  0  0  0  0  0  0  0
  -29.0950  -23.3350   19.9090 C   0  0  0  0  0  3  0  0  0  0  0  0
  -28.1160  -24.6810   19.6400 C   0  0  0  0  0  3  0  0  0  0  0  0
  -28.3620  -26.1910   19.9150 O   0  0  0  0  0  0  0  0  0  0  0  0
  -24.5360  -31.6270   23.0850 C   0  0  0  0  0  0  0  0  0  0  0  0
  -27.2770  -27.1420   19.8750 C   0  0  0  0  0  0  0  0  0  0  0  0
  -23.3960  -30.2890   21.3560 C   0  0  0  0  0  3  0  0  0  0  0  0
  -24.9060  -28.8230   19.8830 C   0  0  0  0  0  0  0  0  0  0  0  0
  -25.9460  -30.6220   21.2520 C   0  0  0  0  0  2  0  0  0  0  0  0
  -26.0640  -29.2680   20.5340 C   0  0  0  0  0  0  0  0  0  0  0  0
  -27.2500  -28.4450   20.5130 C   0  0  0  0  0  3  0  0  0  0  0  0
  -26.0890  -26.7970   19.1910 C   0  0  0  0  0  3  0  0  0  0  0  0
  -24.9310  -27.6010   19.1980 C   0  0  0  0  0  3  0  0  0  0  0  0
  -23.6570  -29.6880   19.9500 C   0  0  0  0  0  2  0  0  0  0  0  0
  -24.6450  -30.8640   21.9540 N   0  0  0  0  0  0  0  0  0  0  0  0
  -23.4340  -31.8620   23.6050 O   0  0  0  0  0  0  0  0  0  0  0  0
  -22.7240  -29.2200   22.2530 C   0  0  0  0  0  0  0  0  0  0  0  0
  -21.3950  -29.0550   22.1190 N   0  0  0  0  0  0  0  0  0  0  0  0
  -23.3990  -28.5440   23.0340 O   0  0  0  0  0  0  0  0  0  0  0  0
  -20.9070  -29.6540   21.4680 H   0  0  0  0  0  0  0  0  0  0  0  0
  -18.0080  -27.8640   22.6020 C   0  0  0  0  0  0  0  0  0  0  0  0
  -20.5770  -28.0710   22.8320 C   0  0  0  0  0  3  0  0  0  0  0  0
  -20.6440  -26.6870   22.1430 C   0  0  0  0  0  2  0  0  0  0  0  0
  -19.5160  -26.4610   21.1320 C   0  0  0  0  0  2  0  0  0  0  0  0
  -18.1500  -26.5720   21.8170 C   0  0  0  0  0  2  0  0  0  0  0  0
  -19.1480  -28.5760   23.0650 C   0  0  0  0  0  0  0  0  0  0  0  0
  -18.9590  -29.7890   23.7640 C   0  0  0  0  0  3  0  0  0  0  0  0
  -17.6650  -30.2900   24.0000 C   0  0  0  0  0  3  0  0  0  0  0  0
  -16.5420  -29.5740   23.5510 C   0  0  0  0  0  3  0  0  0  0  0  0
  -16.7140  -28.3630   22.8590 C   0  0  0  0  0  3  0  0  0  0  0  0
  -25.7880  -32.2560   23.7670 C   0  0  0  0  0  3  0  0  0  0  0  0
  -26.2640  -31.4600   25.0450 C   0  0  1  0  0  0  0  0  0  0  0  0
  -25.1360  -31.1940   26.0690 C   0  0  0  0  0  1  0  0  0  0  0  0
  -26.8680  -30.0930   24.6470 C   0  0  0  0  0  1  0  0  0  0  0  0
  -27.3860  -32.2460   25.7630 C   0  0  0  0  0  1  0  0  0  0  0  0
  -25.4530  -33.6440   24.1230 N   0  0  0  0  0  0  0  0  0  0  0  0
  -25.7720  -34.7190   23.3900 C   0  0  0  0  0  0  0  0  0  0  0  0
  -26.4450  -34.6480   22.3590 O   0  0  0  0  0  0  0  0  0  0  0  0
  -24.8550  -33.7720   24.9260 H   0  0  0  0  0  0  0  0  0  0  0  0
  -24.0050  -36.4870   23.0910 C   0  0  0  0  0  1  0  0  0  0  0  0
  -25.2650  -36.0920   23.8780 C   0  0  0  0  0  3  0  0  0  0  0  0
  -27.3890  -37.0120   24.7010 C   0  0  0  0  0  1  0  0  0  0  0  0
  -26.2770  -37.1660   23.7680 N   0  0  0  0  0  0  0  0  0  0  0  0
  -25.8530  -38.0770   23.9260 H   0  0  0  0  0  0  0  0  0  0  0  0
  2  1  2  0
  3  4  2  0
  4  1  1  0
  4 16  1  0
  5  2  1  0
  6  5  2  0
  6  3  1  0
  7  6  1  0
  8 14  1  0
  8 16  1  0
  9 14  1  0
 10 11  1  0
 10  9  1  0
 12 11  1  0
 12 21  1  0
 12 13  1  0
 14 13  1  0
 15  8  2  0
 16 17  1  0
 18 19  2  0
 19 38  1  0
 20 19  1  0
 20 23  1  0
 21 22  1  0
 21 18  1  0
 22 20  2  0
 23 24  1  0
 24 25  2  0
 26 29  1  0
 26 25  1  0
 27 26  2  0
 28 27  1  0
 28 23  2  0
 29 30  1  0
 30 31  1  0
 31 32  2  0
 33 32  1  0
 33 37  1  0
 34 33  2  0
 35 30  2  0
 35 34  1  0
 36 35  1  0
 38 39  1  0
 39 42  1  0
 39 41  1  0
 40 38  2  0
 43 44  1  0
 43 18  1  0
 45 43  1  0
 46 47  1  0
 46  5  1  0
 48 47  2  0
 48 49  1  0
 50 61  2  0
 51 49  1  0
 51 56  1  0
 52 60  1  0
 52 62  1  0
 53 59  1  0
 53 55  1  0
 54 60  1  0
 55 54  1  0
 56 55  2  0
 57 58  1  0
 57 51  2  0
 58 53  2  0
 59 52  1  0
 60 50  1  0
 62 64  2  0
 63 62  1  0
 65 63  1  0
 66 75  2  0
 66 71  1  0
 67 63  1  0
 67 71  1  0
 68 67  1  0
 69 70  1  0
 69 68  1  0
 70 66  1  0
 71 72  2  0
 72 73  1  0
 74 73  2  0
 75 74  1  0
 76 50  1  0
 76 81  1  0
 76 77  1  0
 77 80  1  1
 77 78  1  0
 79 77  1  0
 81 84  1  0
 82 86  1  0
 82 81  1  0
 83 82  2  0
 86 85  1  0
 88 86  1  0
 88 89  1  0
 88 87  1  0
M  ISO  4   8 100  16 100  48 101  49 101
M  END
>  <TORSDO>  (30) 
F 19

>  <SCORE>  (30) 
-13.742

>  <name>  (30) 
29

>  <ligand_id>  (30) 
29

>  <original_smiles>  (30) 
[H]c1c([H])c([H])c2c(c1[H])C([H])([H])C([H])([H])C([H])([H])C2([H])N([H])C(=O)C1([H])N(C(=O)C([H])(N([H])C(=O)C([H])(N([H])C([H])([H])[H])C([H])([H])[H])C(C([H])([H])[H])(C([H])([H])[H])C([H])([H])[H])C([H])([H])c2c([H])c(OC([H])([H])C([H])([H])Oc3c([H])c([H])c(N([H])C(=O)N4C([H])([H])C([H])([H])C([H])([H])C([H])(n5nc(-c6c([H])c([H])c(Oc7c([H])c([H])c(F)c([H])c7F)c([H])c6[H])c(C(=O)N([H])[H])c5N([H])[H])C4([H])[H])c([H])c3F)c([H])c([H])c2C1([H])[H]

>  <smiles>  (30) 
[H]c1c([H])c([H])c2c(c1[H])C([H])([H])C([H])([H])C([H])([H])C2([H])N([H])C(=O)C1([H])N(C(=O)C([H])(N([H])C(=O)C([H])(N([H])C([H])([H])[H])C([H])([H])[H])C(C([H])([H])[H])(C([H])([H])[H])C([H])([H])[H])C([H])([H])c2c([H])c(OC([H])([H])C([H])([H])Oc3c([H])c([H])c(N([H])C(=O)N4C([H])([H])C([H])([H])C([H])([H])C([H])(n5nc(-c6c([H])c([H])c(Oc7c([H])c([H])c(F)c([H])c7F)c([H])c6[H])c(C(=O)N([H])[H])c5N([H])[H])C4([H])[H])c([H])c3F)c([H])c([H])c2C1([H])[H]

$$$$
30:0:0
     RDKit          3D

 90 98  0  0  1  0  0  0  0  0999 V2000
  -29.3570  -21.8190   20.2330 N   0  0  0  0  0  4  0  0  0  0  0  0
  -30.0720  -22.0990   19.5810 H   0  0  0  0  0  0  0  0  0  0  0  0
  -29.8120  -21.8350   21.1320 H   0  0  0  0  0  0  0  0  0  0  0  0
  -29.0900  -20.2780   19.9210 C   0  0  0  0  0  2  0  0  0  0  0  0
  -30.2330  -17.6250   19.8760 C   0  0  0  0  0  3  0  0  0  0  0  0
  -30.8430  -16.5650   21.9690 C   0  0  0  0  0  3  0  0  0  0  0  0
  -30.0670  -18.9200   21.9210 C   0  0  0  0  0  3  0  0  0  0  0  0
  -30.7130  -16.3880   20.5750 C   0  0  0  0  0  0  0  0  0  0  0  0
  -29.8710  -18.9320   20.5240 C   0  0  0  0  0  0  0  0  0  0  0  0
  -30.5390  -17.7830   22.6170 C   0  0  0  0  0  0  0  0  0  0  0  0
  -30.7010  -17.8640   23.9580 F   0  0  0  0  0  0  0  0  0  0  0  0
  -31.2570  -14.9940   19.9600 C   0  0  0  0  0  0  0  0  0  0  0  0
  -30.9150  -12.7100   18.8940 C   0  0  0  0  0  2  0  0  0  0  0  0
  -29.9370  -12.8260   17.7000 C   0  0  0  0  0  2  0  0  0  0  0  0
  -28.4800  -12.6930   18.1780 C   0  0  0  0  0  2  0  0  0  0  0  0
  -28.1970  -13.5580   19.4340 C   0  0  0  0  0  3  0  0  0  0  0  0
  -29.2910  -13.4100   20.5110 C   0  0  0  0  0  2  0  0  0  0  0  0
  -30.5730  -13.7730   19.8920 N   0  0  0  0  0  0  0  0  0  0  0  0
  -32.3940  -14.9990   19.4750 O   0  0  0  0  0  0  0  0  0  0  0  0
  -25.8810  -14.2490   20.2700 C   0  0  0  0  0  0  0  0  0  0  0  0
  -24.7900  -13.5270   20.6690 C   0  0  0  0  0  0  0  0  0  0  0  0
  -25.1780  -12.1530   20.6010 C   0  0  0  0  0  0  0  0  0  0  0  0
  -26.8630  -13.3210   19.9750 N   0  0  0  0  0  0  0  0  0  0  0  0
  -26.4540  -12.0520   20.2410 N   0  0  0  0  0  0  0  0  0  0  0  0
  -24.3890  -10.9290   20.8000 C   0  0  0  0  0  0  0  0  0  0  0  0
  -24.7650   -9.9540   21.7490 C   0  0  0  0  0  3  0  0  0  0  0  0
  -23.9790   -8.7960   21.9380 C   0  0  0  0  0  3  0  0  0  0  0  0
  -22.8000   -8.6070   21.1760 C   0  0  0  0  0  0  0  0  0  0  0  0
  -22.4430   -9.5710   20.2160 C   0  0  0  0  0  3  0  0  0  0  0  0
  -23.2300  -10.7190   20.0280 C   0  0  0  0  0  3  0  0  0  0  0  0
  -21.9890   -7.5020   21.2720 O   0  0  0  0  0  0  0  0  0  0  0  0
  -21.8580   -6.8060   22.4470 C   0  0  0  0  0  0  0  0  0  0  0  0
  -21.4390   -7.4310   23.6410 C   0  0  0  0  0  3  0  0  0  0  0  0
  -21.2480   -6.6650   24.8090 C   0  0  0  0  0  3  0  0  0  0  0  0
  -21.4670   -5.2750   24.7820 C   0  0  0  0  0  0  0  0  0  0  0  0
  -21.8800   -4.6480   23.5930 C   0  0  0  0  0  3  0  0  0  0  0  0
  -22.0710   -5.4120   22.4270 C   0  0  0  0  0  0  0  0  0  0  0  0
  -22.4470   -4.8000   21.2780 F   0  0  0  0  0  0  0  0  0  0  0  0
  -21.2780   -4.5370   25.9010 F   0  0  0  0  0  0  0  0  0  0  0  0
  -23.4330  -14.0750   21.0010 C   0  0  0  0  0  0  0  0  0  0  0  0
  -22.7190  -13.4330   21.9190 N   0  0  0  0  0  0  0  0  0  0  0  0
  -23.0170  -15.1090   20.4780 O   0  0  0  0  0  0  0  0  0  0  0  0
  -23.0680  -12.5980   22.3640 H   0  0  0  0  0  0  0  0  0  0  0  0
  -21.8110  -13.7860   22.1850 H   0  0  0  0  0  0  0  0  0  0  0  0
  -26.1160  -15.6120   20.1090 N   0  0  0  0  0  0  0  0  0  0  0  0
  -25.3990  -16.3090   20.2770 H   0  0  0  0  0  0  0  0  0  0  0  0
  -26.9870  -16.0090   19.7830 H   0  0  0  0  0  0  0  0  0  0  0  0
  -28.2670  -22.9980   20.2770 C   0  0  0  0  0  2  0  0  0  0  0  0
  -28.4170  -24.5360   19.5620 C   0  0  0  0  0  2  0  0  0  0  0  0
  -28.2690  -26.0020   20.1090 O   0  0  0  0  0  0  0  0  0  0  0  0
  -24.6260  -31.6830   23.0250 C   0  0  0  0  0  0  0  0  0  0  0  0
  -27.1900  -26.9540   19.9810 C   0  0  0  0  0  0  0  0  0  0  0  0
  -23.4170  -30.2830   21.3920 C   0  0  0  0  0  3  0  0  0  0  0  0
  -24.8570  -28.7000   19.9550 C   0  0  0  0  0  0  0  0  0  0  0  0
  -25.9670  -30.5460   21.2130 C   0  0  0  0  0  2  0  0  0  0  0  0
  -26.0360  -29.1510   20.5620 C   0  0  0  0  0  0  0  0  0  0  0  0
  -27.1950  -28.2900   20.5610 C   0  0  0  0  0  3  0  0  0  0  0  0
  -25.9880  -26.6040   19.3300 C   0  0  0  0  0  3  0  0  0  0  0  0
  -24.8480  -27.4440   19.3240 C   0  0  0  0  0  3  0  0  0  0  0  0
  -23.6280  -29.5970   20.0140 C   0  0  0  0  0  2  0  0  0  0  0  0
  -24.6910  -30.8620   21.9320 N   0  0  0  0  0  0  0  0  0  0  0  0
  -23.5440  -31.9680   23.5600 O   0  0  0  0  0  0  0  0  0  0  0  0
  -22.7440  -29.2820   22.3630 C   0  0  0  0  0  0  0  0  0  0  0  0
  -21.4130  -29.1220   22.2520 N   0  0  0  0  0  0  0  0  0  0  0  0
  -23.4210  -28.6490   23.1770 O   0  0  0  0  0  0  0  0  0  0  0  0
  -20.9250  -29.6870   21.5720 H   0  0  0  0  0  0  0  0  0  0  0  0
  -18.0340  -27.9220   22.7720 C   0  0  0  0  0  0  0  0  0  0  0  0
  -20.5950  -28.1850   23.0260 C   0  0  0  0  0  3  0  0  0  0  0  0
  -20.6950  -26.7520   22.4530 C   0  0  0  0  0  2  0  0  0  0  0  0
  -19.5860  -26.4230   21.4490 C   0  0  0  0  0  2  0  0  0  0  0  0
  -18.2070  -26.5710   22.0990 C   0  0  0  0  0  2  0  0  0  0  0  0
  -19.1550  -28.6860   23.1940 C   0  0  0  0  0  0  0  0  0  0  0  0
  -18.9370  -29.9480   23.7890 C   0  0  0  0  0  3  0  0  0  0  0  0
  -17.6330  -30.4470   23.9620 C   0  0  0  0  0  3  0  0  0  0  0  0
  -16.5270  -29.6830   23.5540 C   0  0  0  0  0  3  0  0  0  0  0  0
  -16.7290  -28.4220   22.9650 C   0  0  0  0  0  3  0  0  0  0  0  0
  -25.9080  -32.3180   23.6450 C   0  0  0  0  0  3  0  0  0  0  0  0
  -26.4600  -31.5140   24.8870 C   0  0  1  0  0  0  0  0  0  0  0  0
  -25.3920  -31.2300   25.9690 C   0  0  0  0  0  1  0  0  0  0  0  0
  -27.0530  -30.1570   24.4460 C   0  0  0  0  0  1  0  0  0  0  0  0
  -27.6140  -32.3040   25.5520 C   0  0  0  0  0  1  0  0  0  0  0  0
  -25.5820  -33.7000   24.0340 N   0  0  0  0  0  0  0  0  0  0  0  0
  -25.9050  -34.7910   23.3270 C   0  0  0  0  0  0  0  0  0  0  0  0
  -26.5760  -34.7400   22.2920 O   0  0  0  0  0  0  0  0  0  0  0  0
  -24.9840  -33.8110   24.8390 H   0  0  0  0  0  0  0  0  0  0  0  0
  -24.1600  -36.5840   23.0590 C   0  0  0  0  0  1  0  0  0  0  0  0
  -25.4070  -36.1530   23.8470 C   0  0  0  0  0  3  0  0  0  0  0  0
  -27.5360  -37.0220   24.7110 C   0  0  0  0  0  1  0  0  0  0  0  0
  -26.4290  -37.2200   23.7790 N   0  0  0  0  0  0  0  0  0  0  0  0
  -26.0160  -38.1290   23.9680 H   0  0  0  0  0  0  0  0  0  0  0  0
  1 48  1  0
  1  3  1  0
  2  1  1  0
  4  1  1  0
  4  9  1  0
  5  9  2  0
  5  8  1  0
  6 10  1  0
  7 10  2  0
  8  6  2  0
  9  7  1  0
 10 11  1  0
 12  8  1  0
 13 18  1  0
 14 15  1  0
 14 13  1  0
 16 15  1  0
 16 23  1  0
 16 17  1  0
 18 12  1  0
 18 17  1  0
 19 12  2  0
 20 21  2  0
 21 40  1  0
 22 21  1  0
 22 25  1  0
 23 24  1  0
 23 20  1  0
 24 22  2  0
 25 26  1  0
 26 27  2  0
 28 31  1  0
 28 27  1  0
 29 28  2  0
 30 29  1  0
 30 25  2  0
 31 32  1  0
 32 33  1  0
 33 34  2  0
 35 34  1  0
 35 39  1  0
 36 35  2  0
 37 32  2  0
 37 36  1  0
 38 37  1  0
 40 41  1  0
 41 44  1  0
 41 43  1  0
 42 40  2  0
 45 20  1  0
 45 46  1  0
 47 45  1  0
 49 50  1  0
 49 48  1  0
 51 62  2  0
 52 50  1  0
 52 57  1  0
 53 61  1  0
 53 63  1  0
 54 60  1  0
 54 56  1  0
 55 61  1  0
 56 55  1  0
 57 56  2  0
 58 52  2  0
 59 58  1  0
 59 54  2  0
 60 53  1  0
 61 51  1  0
 63 65  2  0
 64 63  1  0
 66 64  1  0
 67 76  2  0
 67 72  1  0
 68 64  1  0
 68 72  1  0
 69 68  1  0
 70 71  1  0
 70 69  1  0
 71 67  1  0
 72 73  2  0
 73 74  1  0
 75 74  2  0
 76 75  1  0
 77 51  1  0
 77 82  1  0
 77 78  1  0
 78 81  1  1
 78 79  1  0
 80 78  1  0
 82 85  1  0
 83 87  1  0
 83 82  1  0
 84 83  2  0
 87 86  1  0
 89 87  1  0
 89 90  1  0
 89 88  1  0
M  ISO  4   8 100  12 100  49 101  50 101
M  END
>  <TORSDO>  (31) 
F 20

>  <SCORE>  (31) 
-13.031

>  <name>  (31) 
30

>  <ligand_id>  (31) 
30

>  <original_smiles>  (31) 
[H]c1c([H])c([H])c2c(c1[H])C([H])([H])C([H])([H])C([H])([H])C2([H])N([H])C(=O)C1([H])N(C(=O)C([H])(N([H])C(=O)C([H])(N([H])C([H])([H])[H])C([H])([H])[H])C(C([H])([H])[H])(C([H])([H])[H])C([H])([H])[H])C([H])([H])c2c([H])c(OC([H])([H])C([H])([H])[N+]([H])([H])C([H])([H])c3c([H])c(F)c([H])c(C(=O)N4C([H])([H])C([H])([H])C([H])([H])C([H])(n5nc(-c6c([H])c([H])c(Oc7c([H])c([H])c(F)c([H])c7F)c([H])c6[H])c(C(=O)N([H])[H])c5N([H])[H])C4([H])[H])c3[H])c([H])c([H])c2C1([H])[H]

>  <smiles>  (31) 
[H]c1c([H])c([H])c2c(c1[H])C([H])([H])C([H])([H])C([H])([H])C2([H])N([H])C(=O)C1([H])N(C(=O)C([H])(N([H])C(=O)C([H])(N([H])C([H])([H])[H])C([H])([H])[H])C(C([H])([H])[H])(C([H])([H])[H])C([H])([H])[H])C([H])([H])c2c([H])c(OC([H])([H])C([H])([H])[N+]([H])([H])C([H])([H])c3c([H])c(F)c([H])c(C(=O)N4C([H])([H])C([H])([H])C([H])([H])C([H])(n5nc(-c6c([H])c([H])c(Oc7c([H])c([H])c(F)c([H])c7F)c([H])c6[H])c(C(=O)N([H])[H])c5N([H])[H])C4([H])[H])c3[H])c([H])c([H])c2C1([H])[H]

$$$$
31:0:0
     RDKit          3D

 96105  0  0  1  0  0  0  0  0999 V2000
  -30.4610  -21.7960   21.4710 C   0  0  0  0  0  2  0  0  0  0  0  0
  -28.8020  -21.4350   19.6680 C   0  0  0  0  0  2  0  0  0  0  0  0
  -30.8520  -23.1490   20.8270 C   0  0  0  0  0  2  0  0  0  0  0  0
  -29.2280  -22.7640   19.0150 C   0  0  0  0  0  2  0  0  0  0  0  0
  -29.8820  -20.8830   20.4840 N   0  0  0  0  0  0  0  0  0  0  0  0
  -29.7510  -23.7420   20.0130 N   0  0  2  0  0  4  0  0  0  0  0  0
  -29.0020  -23.9280   20.6640 H   0  0  0  0  0  0  0  0  0  0  0  0
  -31.1980  -18.8750   20.9430 C   0  0  0  0  0  3  0  0  0  0  0  0
  -28.9060  -17.2620   20.8700 C   0  0  0  0  0  3  0  0  0  0  0  0
  -29.9420  -19.4870   20.7210 C   0  0  0  0  0  0  0  0  0  0  0  0
  -30.1690  -16.6550   21.0240 C   0  0  0  0  0  0  0  0  0  0  0  0
  -31.3170  -17.4770   21.1000 C   0  0  0  0  0  0  0  0  0  0  0  0
  -28.7880  -18.6570   20.7140 C   0  0  0  0  0  0  0  0  0  0  0  0
  -32.5380  -16.9410   21.3370 F   0  0  0  0  0  0  0  0  0  0  0  0
  -27.5470  -19.1800   20.5610 F   0  0  0  0  0  0  0  0  0  0  0  0
  -30.7100  -14.4190   20.1830 C   0  0  0  0  0  0  0  0  0  0  0  0
  -30.2860  -12.3520   18.9000 C   0  0  0  0  0  2  0  0  0  0  0  0
  -29.2740  -12.6340   17.7720 C   0  0  0  0  0  2  0  0  0  0  0  0
  -27.8270  -12.4970   18.2830 C   0  0  0  0  0  2  0  0  0  0  0  0
  -27.5850  -13.2770   19.6020 C   0  0  0  0  0  3  0  0  0  0  0  0
  -28.6950  -12.9650   20.6310 C   0  0  0  0  0  2  0  0  0  0  0  0
  -30.0020  -13.2700   20.0150 N   0  0  0  0  0  0  0  0  0  0  0  0
  -31.7120  -14.6940   19.5170 O   0  0  0  0  0  0  0  0  0  0  0  0
  -30.2230  -15.2390   21.1280 N   0  0  0  0  0  0  0  0  0  0  0  0
  -29.4680  -14.8190   21.6470 H   0  0  0  0  0  0  0  0  0  0  0  0
  -25.2330  -13.8930   20.4540 C   0  0  0  0  0  0  0  0  0  0  0  0
  -24.1790  -13.1220   20.8680 C   0  0  0  0  0  0  0  0  0  0  0  0
  -24.6210  -11.7680   20.7750 C   0  0  0  0  0  0  0  0  0  0  0  0
  -26.2540  -13.0070   20.1440 N   0  0  0  0  0  0  0  0  0  0  0  0
  -25.8910  -11.7230   20.3910 N   0  0  0  0  0  0  0  0  0  0  0  0
  -23.8940  -10.5080   20.9770 C   0  0  0  0  0  0  0  0  0  0  0  0
  -24.3460   -9.5310   21.8920 C   0  0  0  0  0  3  0  0  0  0  0  0
  -23.6200   -8.3360   22.0800 C   0  0  0  0  0  3  0  0  0  0  0  0
  -22.4270   -8.1070   21.3520 C   0  0  0  0  0  0  0  0  0  0  0  0
  -21.9950   -9.0730   20.4260 C   0  0  0  0  0  3  0  0  0  0  0  0
  -22.7210  -10.2600   20.2370 C   0  0  0  0  0  3  0  0  0  0  0  0
  -21.6710   -6.9650   21.4510 O   0  0  0  0  0  0  0  0  0  0  0  0
  -21.6190   -6.2330   22.6100 C   0  0  0  0  0  0  0  0  0  0  0  0
  -21.1990   -6.8040   23.8320 C   0  0  0  0  0  3  0  0  0  0  0  0
  -21.0920   -6.0000   24.9840 C   0  0  0  0  0  3  0  0  0  0  0  0
  -21.3950   -4.6270   24.9170 C   0  0  0  0  0  0  0  0  0  0  0  0
  -21.8090   -4.0560   23.7000 C   0  0  0  0  0  3  0  0  0  0  0  0
  -21.9170   -4.8570   22.5500 C   0  0  0  0  0  0  0  0  0  0  0  0
  -22.2950   -4.2970   21.3760 F   0  0  0  0  0  0  0  0  0  0  0  0
  -21.2860   -3.8530   26.0210 F   0  0  0  0  0  0  0  0  0  0  0  0
  -22.8050  -13.6050   21.2350 C   0  0  0  0  0  0  0  0  0  0  0  0
  -22.1230  -12.8950   22.1280 N   0  0  0  0  0  0  0  0  0  0  0  0
  -22.3460  -14.6470   20.7670 O   0  0  0  0  0  0  0  0  0  0  0  0
  -22.5080  -12.0530   22.5290 H   0  0  0  0  0  0  0  0  0  0  0  0
  -21.2050  -13.2010   22.4160 H   0  0  0  0  0  0  0  0  0  0  0  0
  -25.4020  -15.2650   20.2980 N   0  0  0  0  0  0  0  0  0  0  0  0
  -24.6440  -15.9210   20.4540 H   0  0  0  0  0  0  0  0  0  0  0  0
  -26.2140  -15.6940   19.8740 H   0  0  0  0  0  0  0  0  0  0  0  0
  -30.1510  -25.0470   19.4020 C   0  0  0  0  0  2  0  0  0  0  0  0
  -28.9700  -25.9550   18.9890 C   0  0  0  0  0  2  0  0  0  0  0  0
  -28.6090  -26.8040   20.0800 O   0  0  0  0  0  0  0  0  0  0  0  0
  -24.6490  -31.8260   23.1640 C   0  0  0  0  0  0  0  0  0  0  0  0
  -27.4070  -27.4820   20.0380 C   0  0  0  0  0  0  0  0  0  0  0  0
  -23.4820  -30.4260   21.4920 C   0  0  0  0  0  3  0  0  0  0  0  0
  -24.9750  -28.9340   20.0610 C   0  0  0  0  0  0  0  0  0  0  0  0
  -26.0020  -30.8310   21.3250 C   0  0  0  0  0  2  0  0  0  0  0  0
  -26.1160  -29.4700   20.6700 C   0  0  0  0  0  0  0  0  0  0  0  0
  -27.3280  -28.7450   20.6680 C   0  0  0  0  0  3  0  0  0  0  0  0
  -26.2400  -26.9530   19.4360 C   0  0  0  0  0  3  0  0  0  0  0  0
  -25.0310  -27.6730   19.4480 C   0  0  0  0  0  3  0  0  0  0  0  0
  -23.7160  -29.7700   20.1050 C   0  0  0  0  0  2  0  0  0  0  0  0
  -24.7280  -31.0420   22.0520 N   0  0  0  0  0  0  0  0  0  0  0  0
  -23.5580  -32.0720   23.6980 O   0  0  0  0  0  0  0  0  0  0  0  0
  -22.8410  -29.3790   22.4320 C   0  0  0  0  0  0  0  0  0  0  0  0
  -21.5170  -29.1920   22.3030 N   0  0  0  0  0  0  0  0  0  0  0  0
  -23.5300  -28.7420   23.2320 O   0  0  0  0  0  0  0  0  0  0  0  0
  -21.0210  -29.7600   21.6300 H   0  0  0  0  0  0  0  0  0  0  0  0
  -18.1470  -27.9920   22.8030 C   0  0  0  0  0  0  0  0  0  0  0  0
  -20.7080  -28.2340   23.0550 C   0  0  0  0  0  3  0  0  0  0  0  0
  -20.8000  -26.8200   22.4370 C   0  0  0  0  0  2  0  0  0  0  0  0
  -19.6870  -26.5310   21.4260 C   0  0  0  0  0  2  0  0  0  0  0  0
  -18.3120  -26.6620   22.0880 C   0  0  0  0  0  2  0  0  0  0  0  0
  -19.2720  -28.7380   23.2440 C   0  0  0  0  0  0  0  0  0  0  0  0
  -19.0640  -29.9850   23.8710 C   0  0  0  0  0  3  0  0  0  0  0  0
  -17.7630  -30.4870   24.0640 C   0  0  0  0  0  3  0  0  0  0  0  0
  -16.6520  -29.7370   23.6400 C   0  0  0  0  0  3  0  0  0  0  0  0
  -16.8450  -28.4920   23.0160 C   0  0  0  0  0  3  0  0  0  0  0  0
  -25.9190  -32.4700   23.8030 C   0  0  0  0  0  3  0  0  0  0  0  0
  -26.4380  -31.6930   25.0750 C   0  0  1  0  0  0  0  0  0  0  0  0
  -25.3390  -31.4240   26.1280 C   0  0  0  0  0  1  0  0  0  0  0  0
  -27.0490  -30.3310   24.6700 C   0  0  0  0  0  1  0  0  0  0  0  0
  -27.5680  -32.4990   25.7570 C   0  0  0  0  0  1  0  0  0  0  0  0
  -25.5860  -33.8600   24.1430 N   0  0  0  0  0  0  0  0  0  0  0  0
  -25.9200  -34.9240   23.4010 C   0  0  0  0  0  0  0  0  0  0  0  0
  -26.6120  -34.8400   22.3810 O   0  0  0  0  0  0  0  0  0  0  0  0
  -24.9740  -33.9980   24.9340 H   0  0  0  0  0  0  0  0  0  0  0  0
  -24.1820  -36.7010   23.0210 C   0  0  0  0  0  1  0  0  0  0  0  0
  -25.4050  -36.3010   23.8610 C   0  0  0  0  0  3  0  0  0  0  0  0
  -27.5060  -37.1960   24.7600 C   0  0  0  0  0  1  0  0  0  0  0  0
  -26.4290  -37.3660   23.7900 N   0  0  0  0  0  0  0  0  0  0  0  0
  -26.0080  -38.2790   23.9380 H   0  0  0  0  0  0  0  0  0  0  0  0
  2  5  1  0
  3  1  1  0
  4  2  1  0
  4  6  1  0
  5 10  1  0
  5  1  1  0
  6  7  1  1
  6  3  1  0
  8 12  1  0
  9 11  1  0
 10  8  2  0
 11 12  2  0
 11 24  1  0
 12 14  1  0
 13 10  1  0
 13  9  2  0
 15 13  1  0
 16 24  1  0
 17 22  1  0
 18 19  1  0
 18 17  1  0
 20 19  1  0
 20 29  1  0
 20 21  1  0
 22 16  1  0
 22 21  1  0
 23 16  2  0
 24 25  1  0
 26 27  2  0
 27 46  1  0
 28 27  1  0
 28 31  1  0
 29 30  1  0
 29 26  1  0
 30 28  2  0
 31 32  1  0
 32 33  2  0
 34 37  1  0
 34 33  1  0
 35 34  2  0
 36 35  1  0
 36 31  2  0
 37 38  1  0
 38 39  1  0
 39 40  2  0
 41 40  1  0
 41 45  1  0
 42 41  2  0
 43 38  2  0
 43 42  1  0
 44 43  1  0
 46 47  1  0
 47 50  1  0
 47 49  1  0
 48 46  2  0
 51 26  1  0
 51 52  1  0
 53 51  1  0
 54  6  1  0
 55 54  1  0
 55 56  1  0
 57 68  2  0
 58 56  1  0
 58 63  1  0
 59 67  1  0
 59 69  1  0
 60 66  1  0
 60 62  1  0
 61 67  1  0
 62 61  1  0
 63 62  2  0
 64 65  1  0
 64 58  2  0
 65 60  2  0
 66 59  1  0
 67 57  1  0
 69 71  2  0
 70 69  1  0
 72 70  1  0
 73 82  2  0
 73 78  1  0
 74 70  1  0
 74 78  1  0
 75 74  1  0
 76 77  1  0
 76 75  1  0
 77 73  1  0
 78 79  2  0
 79 80  1  0
 81 80  2  0
 82 81  1  0
 83 57  1  0
 83 88  1  0
 83 84  1  0
 84 87  1  1
 84 85  1  0
 86 84  1  0
 88 91  1  0
 89 93  1  0
 89 88  1  0
 90 89  2  0
 93 92  1  0
 95 93  1  0
 95 96  1  0
 95 94  1  0
M  ISO  4  16 100  24 100  55 101  56 101
M  END
>  <TORSDO>  (32) 
F 19

>  <SCORE>  (32) 
-14.099

>  <name>  (32) 
31

>  <ligand_id>  (32) 
31

>  <original_smiles>  (32) 
[H]c1c([H])c([H])c2c(c1[H])C([H])([H])C([H])([H])C([H])([H])C2([H])N([H])C(=O)C1([H])N(C(=O)C([H])(N([H])C(=O)C([H])(N([H])C([H])([H])[H])C([H])([H])[H])C(C([H])([H])[H])(C([H])([H])[H])C([H])([H])[H])C([H])([H])c2c([H])c(OC([H])([H])C([H])([H])[N+]3([H])C([H])([H])C([H])([H])N(c4c([H])c(F)c(N([H])C(=O)N5C([H])([H])C([H])([H])C([H])([H])C([H])(n6nc(-c7c([H])c([H])c(Oc8c([H])c([H])c(F)c([H])c8F)c([H])c7[H])c(C(=O)N([H])[H])c6N([H])[H])C5([H])[H])c([H])c4F)C([H])([H])C3([H])[H])c([H])c([H])c2C1([H])[H]

>  <smiles>  (32) 
[H]c1c([H])c([H])c2c(c1[H])C([H])([H])C([H])([H])C([H])([H])C2([H])N([H])C(=O)C1([H])N(C(=O)C([H])(N([H])C(=O)C([H])(N([H])C([H])([H])[H])C([H])([H])[H])C(C([H])([H])[H])(C([H])([H])[H])C([H])([H])[H])C([H])([H])c2c([H])c(OC([H])([H])C([H])([H])[N+]3([H])C([H])([H])C([H])([H])N(c4c([H])c(F)c(N([H])C(=O)N5C([H])([H])C([H])([H])C([H])([H])C([H])(n6nc(-c7c([H])c([H])c(Oc8c([H])c([H])c(F)c([H])c8F)c([H])c7[H])c(C(=O)N([H])[H])c6N([H])[H])C5([H])[H])c([H])c4F)C([H])([H])C3([H])[H])c([H])c([H])c2C1([H])[H]

$$$$
32:0:0
     RDKit          3D

 92101  0  0  1  0  0  0  0  0999 V2000
  -29.6510  -23.1330   21.5080 C   0  0  0  0  0  0  0  0  0  0  0  0
  -29.2760  -24.6160   21.7070 C   0  0  0  0  0  2  0  0  0  0  0  0
  -28.6950  -23.7980   19.5580 C   0  0  0  0  0  2  0  0  0  0  0  0
  -28.3520  -25.0040   20.5430 C   0  0  0  0  0  3  0  0  0  0  0  0
  -29.1940  -22.6100   20.3510 N   0  0  0  0  0  0  0  0  0  0  0  0
  -30.3410  -22.5490   22.3460 O   0  0  0  0  0  0  0  0  0  0  0  0
  -28.4990  -26.4600   20.1900 O   0  0  0  0  0  0  0  0  0  0  0  0
  -24.5900  -31.8120   23.1490 C   0  0  0  0  0  0  0  0  0  0  0  0
  -27.3680  -27.2990   20.1560 C   0  0  0  0  0  0  0  0  0  0  0  0
  -23.4540  -30.3940   21.4740 C   0  0  0  0  0  3  0  0  0  0  0  0
  -24.9740  -28.8780   20.0770 C   0  0  0  0  0  0  0  0  0  0  0  0
  -25.9920  -30.7660   21.3530 C   0  0  0  0  0  2  0  0  0  0  0  0
  -26.1180  -29.3900   20.7030 C   0  0  0  0  0  0  0  0  0  0  0  0
  -27.3180  -28.6140   20.7280 C   0  0  0  0  0  3  0  0  0  0  0  0
  -26.2000  -26.8440   19.5100 C   0  0  0  0  0  3  0  0  0  0  0  0
  -25.0190  -27.6130   19.4690 C   0  0  0  0  0  3  0  0  0  0  0  0
  -23.7190  -29.7320   20.0950 C   0  0  0  0  0  2  0  0  0  0  0  0
  -24.6960  -31.0070   22.0490 N   0  0  0  0  0  0  0  0  0  0  0  0
  -23.4880  -32.0650   23.6590 O   0  0  0  0  0  0  0  0  0  0  0  0
  -22.7910  -29.3590   22.4140 C   0  0  0  0  0  0  0  0  0  0  0  0
  -21.4680  -29.1720   22.2760 N   0  0  0  0  0  0  0  0  0  0  0  0
  -23.4670  -28.7320   23.2330 O   0  0  0  0  0  0  0  0  0  0  0  0
  -20.9780  -29.7330   21.5950 H   0  0  0  0  0  0  0  0  0  0  0  0
  -18.0980  -27.9340   22.7250 C   0  0  0  0  0  0  0  0  0  0  0  0
  -20.6520  -28.2160   23.0250 C   0  0  0  0  0  3  0  0  0  0  0  0
  -20.7750  -26.7940   22.4310 C   0  0  0  0  0  2  0  0  0  0  0  0
  -19.6860  -26.4740   21.4020 C   0  0  0  0  0  2  0  0  0  0  0  0
  -18.2950  -26.5960   22.0340 C   0  0  0  0  0  2  0  0  0  0  0  0
  -19.2050  -28.7010   23.1780 C   0  0  0  0  0  0  0  0  0  0  0  0
  -18.9670  -29.9540   23.7830 C   0  0  0  0  0  3  0  0  0  0  0  0
  -17.6560  -30.4400   23.9440 C   0  0  0  0  0  3  0  0  0  0  0  0
  -16.5640  -29.6690   23.5090 C   0  0  0  0  0  3  0  0  0  0  0  0
  -16.7860  -28.4180   22.9050 C   0  0  0  0  0  3  0  0  0  0  0  0
  -25.8460  -32.4700   23.8020 C   0  0  0  0  0  3  0  0  0  0  0  0
  -25.4960  -33.8590   24.1390 N   0  0  0  0  0  0  0  0  0  0  0  0
  -25.8250  -34.9260   23.4010 C   0  0  0  0  0  0  0  0  0  0  0  0
  -26.5190  -34.8480   22.3840 O   0  0  0  0  0  0  0  0  0  0  0  0
  -24.8740  -33.9900   24.9240 H   0  0  0  0  0  0  0  0  0  0  0  0
  -24.0630  -36.6850   23.0300 C   0  0  0  0  0  1  0  0  0  0  0  0
  -25.2980  -36.2990   23.8620 C   0  0  0  0  0  3  0  0  0  0  0  0
  -27.3970  -37.2200   24.7420 C   0  0  0  0  0  1  0  0  0  0  0  0
  -26.3090  -37.3760   23.7790 N   0  0  0  0  0  0  0  0  0  0  0  0
  -25.8800  -38.2850   23.9300 H   0  0  0  0  0  0  0  0  0  0  0  0
  -26.3510  -31.7000   25.0830 C   0  0  1  0  0  0  0  0  0  0  0  0
  -25.2390  -31.4270   26.1230 C   0  0  0  0  0  1  0  0  0  0  0  0
  -26.9800  -30.3390   24.6990 C   0  0  0  0  0  1  0  0  0  0  0  0
  -27.4630  -32.5180   25.7810 C   0  0  0  0  0  1  0  0  0  0  0  0
  -29.4610  -21.2210   19.7200 C   0  0  0  0  0  2  0  0  0  0  0  0
  -30.6830  -18.7030   22.4950 C   0  0  0  0  0  3  0  0  0  0  0  0
  -30.2140  -19.8600   21.8420 C   0  0  0  0  0  3  0  0  0  0  0  0
  -30.8340  -17.4740   21.8170 C   0  0  0  0  0  3  0  0  0  0  0  0
  -30.0620  -18.5780   19.7910 C   0  0  0  0  0  3  0  0  0  0  0  0
  -29.9350  -19.8740   20.4580 C   0  0  0  0  0  0  0  0  0  0  0  0
  -30.4990  -17.3540   20.4520 C   0  0  0  0  0  0  0  0  0  0  0  0
  -31.1960  -14.8530   19.9650 C   0  0  0  0  0  0  0  0  0  0  0  0
  -30.9070  -12.5640   18.9740 C   0  0  0  0  0  2  0  0  0  0  0  0
  -29.9460  -12.6620   17.7700 C   0  0  0  0  0  2  0  0  0  0  0  0
  -28.4720  -12.5710   18.2300 C   0  0  0  0  0  2  0  0  0  0  0  0
  -28.1650  -13.4810   19.4550 C   0  0  0  0  0  3  0  0  0  0  0  0
  -29.2470  -13.3550   20.5460 C   0  0  0  0  0  2  0  0  0  0  0  0
  -30.5340  -13.6490   19.9060 N   0  0  0  0  0  0  0  0  0  0  0  0
  -32.4040  -14.9120   19.7240 O   0  0  0  0  0  0  0  0  0  0  0  0
  -30.3980  -15.9870   19.8930 N   0  0  0  0  0  0  0  0  0  0  0  0
  -29.4580  -15.7520   19.6160 H   0  0  0  0  0  0  0  0  0  0  0  0
  -25.8480  -14.2020   20.2820 C   0  0  0  0  0  0  0  0  0  0  0  0
  -24.7510  -13.4870   20.6740 C   0  0  0  0  0  0  0  0  0  0  0  0
  -25.1300  -12.1100   20.6030 C   0  0  0  0  0  0  0  0  0  0  0  0
  -26.8270  -13.2660   19.9890 N   0  0  0  0  0  0  0  0  0  0  0  0
  -26.4050  -12.0020   20.2490 N   0  0  0  0  0  0  0  0  0  0  0  0
  -24.3330  -10.8920   20.7970 C   0  0  0  0  0  0  0  0  0  0  0  0
  -24.7130   -9.9040   21.7320 C   0  0  0  0  0  3  0  0  0  0  0  0
  -23.9220   -8.7500   21.9160 C   0  0  0  0  0  3  0  0  0  0  0  0
  -22.7350   -8.5770   21.1650 C   0  0  0  0  0  0  0  0  0  0  0  0
  -22.3720   -9.5530   20.2190 C   0  0  0  0  0  3  0  0  0  0  0  0
  -23.1640  -10.6980   20.0340 C   0  0  0  0  0  3  0  0  0  0  0  0
  -21.9170   -7.4770   21.2540 O   0  0  0  0  0  0  0  0  0  0  0  0
  -21.7870   -6.7720   22.4220 C   0  0  0  0  0  0  0  0  0  0  0  0
  -21.3650   -7.3850   23.6220 C   0  0  0  0  0  3  0  0  0  0  0  0
  -21.1790   -6.6090   24.7840 C   0  0  0  0  0  3  0  0  0  0  0  0
  -21.4020   -5.2190   24.7450 C   0  0  0  0  0  0  0  0  0  0  0  0
  -21.8170   -4.6050   23.5510 C   0  0  0  0  0  3  0  0  0  0  0  0
  -22.0060   -5.3790   22.3920 C   0  0  0  0  0  0  0  0  0  0  0  0
  -22.3860   -4.7800   21.2390 F   0  0  0  0  0  0  0  0  0  0  0  0
  -21.2160   -4.4690   25.8570 F   0  0  0  0  0  0  0  0  0  0  0  0
  -23.3950  -14.0420   20.9970 C   0  0  0  0  0  0  0  0  0  0  0  0
  -22.6580  -13.3910   21.8860 N   0  0  0  0  0  0  0  0  0  0  0  0
  -23.0000  -15.0950   20.4940 O   0  0  0  0  0  0  0  0  0  0  0  0
  -22.9890  -12.5420   22.3210 H   0  0  0  0  0  0  0  0  0  0  0  0
  -21.7470  -13.7470   22.1370 H   0  0  0  0  0  0  0  0  0  0  0  0
  -26.0790  -15.5660   20.1320 N   0  0  0  0  0  0  0  0  0  0  0  0
  -25.3410  -16.2400   20.3110 H   0  0  0  0  0  0  0  0  0  0  0  0
  -26.9380  -15.9990   19.8210 H   0  0  0  0  0  0  0  0  0  0  0  0
  1  2  1  0
  1  6  2  0
  3  5  1  0
  3  4  1  0
  4  7  1  0
  4  2  1  0
  5  1  1  0
  8 19  2  0
  9  7  1  0
  9 14  1  0
 10 18  1  0
 10 20  1  0
 11 17  1  0
 11 13  1  0
 12 18  1  0
 13 14  2  0
 13 12  1  0
 15  9  2  0
 16 15  1  0
 16 11  2  0
 17 10  1  0
 18  8  1  0
 20 22  2  0
 21 20  1  0
 23 21  1  0
 24 33  2  0
 24 29  1  0
 25 21  1  0
 25 29  1  0
 26 25  1  0
 27 28  1  0
 27 26  1  0
 28 24  1  0
 29 30  2  0
 30 31  1  0
 32 31  2  0
 33 32  1  0
 34  8  1  0
 34 35  1  0
 34 44  1  0
 35 38  1  0
 36 40  1  0
 36 35  1  0
 37 36  2  0
 40 39  1  0
 42 40  1  0
 42 43  1  0
 42 41  1  0
 44 47  1  1
 44 45  1  0
 46 44  1  0
 48  5  1  0
 48 53  1  0
 50 49  1  0
 51 49  2  0
 52 54  2  0
 52 53  1  0
 53 50  2  0
 54 51  1  0
 56 61  1  0
 57 58  1  0
 57 56  1  0
 59 58  1  0
 59 68  1  0
 59 60  1  0
 61 55  1  0
 61 60  1  0
 62 55  2  0
 63 55  1  0
 63 54  1  0
 64 63  1  0
 65 66  2  0
 66 85  1  0
 67 66  1  0
 67 70  1  0
 68 69  1  0
 68 65  1  0
 69 67  2  0
 70 71  1  0
 71 72  2  0
 73 76  1  0
 73 72  1  0
 74 73  2  0
 75 74  1  0
 75 70  2  0
 76 77  1  0
 77 78  1  0
 78 79  2  0
 80 79  1  0
 80 84  1  0
 81 80  2  0
 82 77  2  0
 82 81  1  0
 83 82  1  0
 85 86  1  0
 86 89  1  0
 86 88  1  0
 87 85  2  0
 90 65  1  0
 90 91  1  0
 92 90  1  0
M  ISO  4   4 101   7 101  55 100  63 100
M  END
>  <TORSDO>  (33) 
F 18

>  <SCORE>  (33) 
-13.988

>  <name>  (33) 
32

>  <ligand_id>  (33) 
32

>  <original_smiles>  (33) 
[H]c1c([H])c(N([H])C(=O)N2C([H])([H])C([H])([H])C([H])([H])C([H])(n3nc(-c4c([H])c([H])c(Oc5c([H])c([H])c(F)c([H])c5F)c([H])c4[H])c(C(=O)N([H])[H])c3N([H])[H])C2([H])[H])c([H])c(C([H])([H])N2C(=O)C([H])([H])C([H])(Oc3c([H])c([H])c4c(c3[H])C([H])([H])N(C(=O)C([H])(N([H])C(=O)C([H])(N([H])C([H])([H])[H])C([H])([H])[H])C(C([H])([H])[H])(C([H])([H])[H])C([H])([H])[H])C([H])(C(=O)N([H])C3([H])c5c([H])c([H])c([H])c([H])c5C([H])([H])C([H])([H])C3([H])[H])C4([H])[H])C2([H])[H])c1[H]

>  <smiles>  (33) 
[H]c1c([H])c(N([H])C(=O)N2C([H])([H])C([H])([H])C([H])([H])C([H])(n3nc(-c4c([H])c([H])c(Oc5c([H])c([H])c(F)c([H])c5F)c([H])c4[H])c(C(=O)N([H])[H])c3N([H])[H])C2([H])[H])c([H])c(C([H])([H])N2C(=O)C([H])([H])C([H])(Oc3c([H])c([H])c4c(c3[H])C([H])([H])N(C(=O)C([H])(N([H])C(=O)C([H])(N([H])C([H])([H])[H])C([H])([H])[H])C(C([H])([H])[H])(C([H])([H])[H])C([H])([H])[H])C([H])(C(=O)N([H])C3([H])c5c([H])c([H])c([H])c([H])c5C([H])([H])C([H])([H])C3([H])[H])C4([H])[H])C2([H])[H])c1[H]

$$$$
33:0:0
     RDKit          3D

 95103  0  0  1  0  0  0  0  0999 V2000
  -30.5780  -22.4190   23.0420 C   0  0  0  0  0  2  0  0  0  0  0  0
  -31.0080  -21.9600   21.7170 N   0  0  0  0  0  0  0  0  0  0  0  0
  -31.9700  -22.2260   21.5060 H   0  0  0  0  0  0  0  0  0  0  0  0
  -31.6140  -18.4990   20.5150 C   0  0  0  0  0  3  0  0  0  0  0  0
  -29.2190  -18.7860   20.8690 C   0  0  0  0  0  3  0  0  0  0  0  0
  -31.8390  -19.8090   20.9850 C   0  0  0  0  0  3  0  0  0  0  0  0
  -29.4470  -20.0890   21.3530 C   0  0  0  0  0  3  0  0  0  0  0  0
  -30.2990  -18.0030   20.4150 C   0  0  0  0  0  0  0  0  0  0  0  0
  -30.7560  -20.6220   21.3800 C   0  0  0  0  0  0  0  0  0  0  0  0
  -30.0390  -16.6850   19.7190 C   0  0  0  0  0  2  0  0  0  0  0  0
  -30.9530  -14.4800   20.1920 C   0  0  0  0  0  0  0  0  0  0  0  0
  -30.6040  -12.3400   19.0500 C   0  0  0  0  0  2  0  0  0  0  0  0
  -29.6460  -12.6090   17.8680 C   0  0  0  0  0  2  0  0  0  0  0  0
  -28.1750  -12.5160   18.3230 C   0  0  0  0  0  2  0  0  0  0  0  0
  -27.8890  -13.3470   19.6010 C   0  0  0  0  0  3  0  0  0  0  0  0
  -28.9510  -13.0430   20.6870 C   0  0  0  0  0  2  0  0  0  0  0  0
  -30.2830  -13.3030   20.1120 N   0  0  0  0  0  0  0  0  0  0  0  0
  -32.0720  -14.6700   19.7050 O   0  0  0  0  0  0  0  0  0  0  0  0
  -30.1750  -15.5010   20.5580 N   0  0  0  0  0  0  0  0  0  0  0  0
  -29.3290  -15.2260   21.0320 H   0  0  0  0  0  0  0  0  0  0  0  0
  -25.5070  -14.0320   20.3120 C   0  0  0  0  0  0  0  0  0  0  0  0
  -24.4250  -13.2920   20.7090 C   0  0  0  0  0  0  0  0  0  0  0  0
  -24.8570  -11.9300   20.7030 C   0  0  0  0  0  0  0  0  0  0  0  0
  -26.5300  -13.1210   20.0930 N   0  0  0  0  0  0  0  0  0  0  0  0
  -26.1410  -11.8530   20.3820 N   0  0  0  0  0  0  0  0  0  0  0  0
  -24.1080  -10.6890   20.9270 C   0  0  0  0  0  0  0  0  0  0  0  0
  -24.5320   -9.7330   21.8770 C   0  0  0  0  0  3  0  0  0  0  0  0
  -23.7880   -8.5520   22.0870 C   0  0  0  0  0  3  0  0  0  0  0  0
  -22.6050   -8.3180   21.3460 C   0  0  0  0  0  0  0  0  0  0  0  0
  -22.1980   -9.2610   20.3860 C   0  0  0  0  0  3  0  0  0  0  0  0
  -22.9430  -10.4330   20.1740 C   0  0  0  0  0  3  0  0  0  0  0  0
  -21.8320   -7.1890   21.4640 O   0  0  0  0  0  0  0  0  0  0  0  0
  -21.7770   -6.4730   22.6330 C   0  0  0  0  0  0  0  0  0  0  0  0
  -21.3790   -7.0680   23.8510 C   0  0  0  0  0  3  0  0  0  0  0  0
  -21.2670   -6.2810   25.0150 C   0  0  0  0  0  3  0  0  0  0  0  0
  -21.5450   -4.9010   24.9630 C   0  0  0  0  0  0  0  0  0  0  0  0
  -21.9400   -4.3080   23.7520 C   0  0  0  0  0  3  0  0  0  0  0  0
  -22.0520   -5.0920   22.5900 C   0  0  0  0  0  0  0  0  0  0  0  0
  -22.4100   -4.5100   21.4200 F   0  0  0  0  0  0  0  0  0  0  0  0
  -21.4330   -4.1440   26.0810 F   0  0  0  0  0  0  0  0  0  0  0  0
  -23.0400  -13.8040   20.9850 C   0  0  0  0  0  0  0  0  0  0  0  0
  -22.3090  -13.1450   21.8800 N   0  0  0  0  0  0  0  0  0  0  0  0
  -22.6130  -14.8240   20.4460 O   0  0  0  0  0  0  0  0  0  0  0  0
  -22.6600  -12.3180   22.3390 H   0  0  0  0  0  0  0  0  0  0  0  0
  -21.3830  -13.4760   22.1120 H   0  0  0  0  0  0  0  0  0  0  0  0
  -25.7020  -15.3940   20.1080 N   0  0  0  0  0  0  0  0  0  0  0  0
  -24.9580  -16.0750   20.2270 H   0  0  0  0  0  0  0  0  0  0  0  0
  -26.5580  -15.8010   19.7530 H   0  0  0  0  0  0  0  0  0  0  0  0
  -29.1710  -23.0480   23.0610 C   0  0  0  0  0  2  0  0  0  0  0  0
  -28.8420  -23.5510   21.7150 N   0  0  0  0  0  4  0  0  0  0  0  0
  -28.0910  -23.0030   21.3330 H   0  0  0  0  0  0  0  0  0  0  0  0
  -29.6850  -23.3000   21.2070 H   0  0  0  0  0  0  0  0  0  0  0  0
  -28.5350  -24.9980   21.6000 C   0  0  0  0  0  2  0  0  0  0  0  0
  -28.6390  -25.4760   20.1370 C   0  0  0  0  0  2  0  0  0  0  0  0
  -28.5570  -26.8990   20.0700 O   0  0  0  0  0  0  0  0  0  0  0  0
  -24.6470  -31.8880   23.2360 C   0  0  0  0  0  0  0  0  0  0  0  0
  -27.3300  -27.5250   20.1120 C   0  0  0  0  0  0  0  0  0  0  0  0
  -23.4420  -30.4900   21.5840 C   0  0  0  0  0  3  0  0  0  0  0  0
  -24.9060  -28.9800   20.1500 C   0  0  0  0  0  0  0  0  0  0  0  0
  -25.9590  -30.8900   21.3730 C   0  0  0  0  0  2  0  0  0  0  0  0
  -26.0590  -29.5260   20.7240 C   0  0  0  0  0  0  0  0  0  0  0  0
  -27.2730  -28.8090   20.6970 C   0  0  0  0  0  3  0  0  0  0  0  0
  -26.1550  -26.9790   19.5480 C   0  0  0  0  0  3  0  0  0  0  0  0
  -24.9470  -27.7030   19.5630 C   0  0  0  0  0  3  0  0  0  0  0  0
  -23.6530  -29.8190   20.2000 C   0  0  0  0  0  2  0  0  0  0  0  0
  -24.7000  -31.1030   22.1230 N   0  0  0  0  0  0  0  0  0  0  0  0
  -23.5660  -32.1470   23.7850 O   0  0  0  0  0  0  0  0  0  0  0  0
  -22.8050  -29.4580   22.5390 C   0  0  0  0  0  0  0  0  0  0  0  0
  -21.4800  -29.2740   22.4220 N   0  0  0  0  0  0  0  0  0  0  0  0
  -23.4990  -28.8240   23.3390 O   0  0  0  0  0  0  0  0  0  0  0  0
  -20.9830  -29.8330   21.7430 H   0  0  0  0  0  0  0  0  0  0  0  0
  -18.1150  -28.0780   22.9390 C   0  0  0  0  0  0  0  0  0  0  0  0
  -20.6740  -28.3280   23.1880 C   0  0  0  0  0  3  0  0  0  0  0  0
  -20.7700  -26.9060   22.5870 C   0  0  0  0  0  2  0  0  0  0  0  0
  -19.6560  -26.6020   21.5810 C   0  0  0  0  0  2  0  0  0  0  0  0
  -18.2810  -26.7390   22.2410 C   0  0  0  0  0  2  0  0  0  0  0  0
  -19.2380  -28.8320   23.3690 C   0  0  0  0  0  0  0  0  0  0  0  0
  -19.0270  -30.0870   23.9810 C   0  0  0  0  0  3  0  0  0  0  0  0
  -17.7250  -30.5880   24.1660 C   0  0  0  0  0  3  0  0  0  0  0  0
  -16.6160  -29.8310   23.7520 C   0  0  0  0  0  3  0  0  0  0  0  0
  -16.8110  -28.5780   23.1460 C   0  0  0  0  0  3  0  0  0  0  0  0
  -25.9360  -32.5170   23.8560 C   0  0  0  0  0  3  0  0  0  0  0  0
  -25.6250  -33.9110   24.1980 N   0  0  0  0  0  0  0  0  0  0  0  0
  -25.9570  -34.9690   23.4450 C   0  0  0  0  0  0  0  0  0  0  0  0
  -26.6270  -34.8730   22.4130 O   0  0  0  0  0  0  0  0  0  0  0  0
  -25.0290  -34.0630   24.9980 H   0  0  0  0  0  0  0  0  0  0  0  0
  -24.2260  -36.7570   23.0960 C   0  0  0  0  0  1  0  0  0  0  0  0
  -25.4650  -36.3510   23.9090 C   0  0  0  0  0  3  0  0  0  0  0  0
  -27.5930  -37.2350   24.7570 C   0  0  0  0  0  1  0  0  0  0  0  0
  -26.4960  -37.4070   23.8080 N   0  0  0  0  0  0  0  0  0  0  0  0
  -26.0860  -38.3240   23.9600 H   0  0  0  0  0  0  0  0  0  0  0  0
  -26.4690  -31.7350   25.1210 C   0  0  1  0  0  0  0  0  0  0  0  0
  -25.3800  -31.4840   26.1900 C   0  0  0  0  0  1  0  0  0  0  0  0
  -27.0530  -30.3620   24.7100 C   0  0  0  0  0  1  0  0  0  0  0  0
  -27.6200  -32.5290   25.7840 C   0  0  0  0  0  1  0  0  0  0  0  0
  1 49  1  0
  2  1  1  0
  3  2  1  0
  4  6  1  0
  5  7  2  0
  6  9  2  0
  7  9  1  0
  8  4  2  0
  8  5  1  0
  9  2  1  0
 10  8  1  0
 10 19  1  0
 11 19  1  0
 12 17  1  0
 13 14  1  0
 13 12  1  0
 15 14  1  0
 15 24  1  0
 15 16  1  0
 17 11  1  0
 17 16  1  0
 18 11  2  0
 19 20  1  0
 21 22  2  0
 22 41  1  0
 23 22  1  0
 23 26  1  0
 24 21  1  0
 24 25  1  0
 25 23  2  0
 26 27  1  0
 27 28  2  0
 29 32  1  0
 29 28  1  0
 30 29  2  0
 31 30  1  0
 31 26  2  0
 32 33  1  0
 33 34  1  0
 34 35  2  0
 36 35  1  0
 36 40  1  0
 37 36  2  0
 38 33  2  0
 38 37  1  0
 39 38  1  0
 41 42  1  0
 42 45  1  0
 42 44  1  0
 43 41  2  0
 46 47  1  0
 46 21  1  0
 48 46  1  0
 50 49  1  0
 51 50  1  0
 52 50  1  0
 53 50  1  0
 54 53  1  0
 55 57  1  0
 55 54  1  0
 56 67  2  0
 57 62  1  0
 58 66  1  0
 58 68  1  0
 59 65  1  0
 59 61  1  0
 60 66  1  0
 61 60  1  0
 62 61  2  0
 63 64  1  0
 63 57  2  0
 64 59  2  0
 65 58  1  0
 66 56  1  0
 68 70  2  0
 69 68  1  0
 71 69  1  0
 72 81  2  0
 72 77  1  0
 73 69  1  0
 73 77  1  0
 74 73  1  0
 75 76  1  0
 75 74  1  0
 76 72  1  0
 77 78  2  0
 78 79  1  0
 80 79  2  0
 81 80  1  0
 82 56  1  0
 82 83  1  0
 82 92  1  0
 83 86  1  0
 84 88  1  0
 84 83  1  0
 85 84  2  0
 88 87  1  0
 90 88  1  0
 90 91  1  0
 90 89  1  0
 92 95  1  1
 92 93  1  0
 94 92  1  0
M  ISO  4  11 100  19 100  54 101  55 101
M  END
>  <TORSDO>  (34) 
F 23

>  <SCORE>  (34) 
-12.405

>  <name>  (34) 
33

>  <ligand_id>  (34) 
33

>  <original_smiles>  (34) 
[H]c1c([H])c([H])c2c(c1[H])C([H])([H])C([H])([H])C([H])([H])C2([H])N([H])C(=O)C1([H])N(C(=O)C([H])(N([H])C(=O)C([H])(N([H])C([H])([H])[H])C([H])([H])[H])C(C([H])([H])[H])(C([H])([H])[H])C([H])([H])[H])C([H])([H])c2c([H])c(OC([H])([H])C([H])([H])[N+]([H])([H])C([H])([H])C([H])([H])N([H])c3c([H])c([H])c(C([H])([H])N([H])C(=O)N4C([H])([H])C([H])([H])C([H])([H])C([H])(n5nc(-c6c([H])c([H])c(Oc7c([H])c([H])c(F)c([H])c7F)c([H])c6[H])c(C(=O)N([H])[H])c5N([H])[H])C4([H])[H])c([H])c3[H])c([H])c([H])c2C1([H])[H]

>  <smiles>  (34) 
[H]c1c([H])c([H])c2c(c1[H])C([H])([H])C([H])([H])C([H])([H])C2([H])N([H])C(=O)C1([H])N(C(=O)C([H])(N([H])C(=O)C([H])(N([H])C([H])([H])[H])C([H])([H])[H])C(C([H])([H])[H])(C([H])([H])[H])C([H])([H])[H])C([H])([H])c2c([H])c(OC([H])([H])C([H])([H])[N+]([H])([H])C([H])([H])C([H])([H])N([H])c3c([H])c([H])c(C([H])([H])N([H])C(=O)N4C([H])([H])C([H])([H])C([H])([H])C([H])(n5nc(-c6c([H])c([H])c(Oc7c([H])c([H])c(F)c([H])c7F)c([H])c6[H])c(C(=O)N([H])[H])c5N([H])[H])C4([H])[H])c([H])c3[H])c([H])c([H])c2C1([H])[H]

$$$$
34:0:0
     RDKit          3D

 94102  0  0  1  0  0  0  0  0999 V2000
  -28.9940  -20.3270   19.5210 C   0  0  0  0  0  2  0  0  0  0  0  0
  -28.6660  -18.5970   21.2250 C   0  0  0  0  0  2  0  0  0  0  0  0
  -30.4840  -18.4090   19.6720 C   0  0  0  0  0  2  0  0  0  0  0  0
  -29.3660  -17.7460   22.3120 C   0  0  0  0  0  2  0  0  0  0  0  0
  -30.9070  -17.1330   20.4650 C   0  0  0  0  0  3  0  0  0  0  0  0
  -29.6290  -19.3560   20.4200 N   0  0  0  0  0  0  0  0  0  0  0  0
  -30.7470  -17.3680   21.9180 N   0  0  0  0  0  4  0  0  0  0  0  0
  -31.0390  -16.5720   22.4560 H   0  0  0  0  0  0  0  0  0  0  0  0
  -31.3360  -18.1490   22.1560 H   0  0  0  0  0  0  0  0  0  0  0  0
  -32.3360  -16.6360   20.1170 C   0  0  0  0  0  2  0  0  0  0  0  0
  -32.9570  -14.6280   18.7950 C   0  0  0  0  0  0  0  0  0  0  0  0
  -32.2940  -12.3340   18.2170 C   0  0  0  0  0  2  0  0  0  0  0  0
  -31.1750  -12.3940   17.1560 C   0  0  0  0  0  2  0  0  0  0  0  0
  -29.7910  -12.5270   17.8230 C   0  0  0  0  0  2  0  0  0  0  0  0
  -29.7490  -13.6390   18.9050 C   0  0  0  0  0  3  0  0  0  0  0  0
  -30.9550  -13.5150   19.8610 C   0  0  0  0  0  2  0  0  0  0  0  0
  -32.1810  -13.5420   19.0470 N   0  0  0  0  0  0  0  0  0  0  0  0
  -33.9980  -14.5850   18.1390 O   0  0  0  0  0  0  0  0  0  0  0  0
  -32.3360  -15.8070   18.9120 N   0  0  0  0  0  0  0  0  0  0  0  0
  -32.5490  -16.3660   18.0990 H   0  0  0  0  0  0  0  0  0  0  0  0
  -27.8010  -14.6980   20.2120 C   0  0  0  0  0  0  0  0  0  0  0  0
  -26.6370  -14.1700   20.7060 C   0  0  0  0  0  0  0  0  0  0  0  0
  -26.6670  -12.7790   20.3820 C   0  0  0  0  0  0  0  0  0  0  0  0
  -28.4820  -13.6400   19.6310 N   0  0  0  0  0  0  0  0  0  0  0  0
  -27.8120  -12.4690   19.7850 N   0  0  0  0  0  0  0  0  0  0  0  0
  -25.6520  -11.7330   20.5520 C   0  0  0  0  0  0  0  0  0  0  0  0
  -25.8960  -10.5900   21.3460 C   0  0  0  0  0  3  0  0  0  0  0  0
  -24.8980   -9.6070   21.5110 C   0  0  0  0  0  3  0  0  0  0  0  0
  -23.6400   -9.7620   20.8810 C   0  0  0  0  0  0  0  0  0  0  0  0
  -23.4100  -10.8900   20.0740 C   0  0  0  0  0  3  0  0  0  0  0  0
  -24.4070  -11.8650   19.9070 C   0  0  0  0  0  3  0  0  0  0  0  0
  -22.6200   -8.8430   20.9600 O   0  0  0  0  0  0  0  0  0  0  0  0
  -22.3900   -8.1190   22.1030 C   0  0  0  0  0  0  0  0  0  0  0  0
  -22.1210   -8.7480   23.3390 C   0  0  0  0  0  3  0  0  0  0  0  0
  -21.8200   -7.9690   24.4740 C   0  0  0  0  0  3  0  0  0  0  0  0
  -21.7790   -6.5650   24.3740 C   0  0  0  0  0  0  0  0  0  0  0  0
  -22.0410   -5.9380   23.1420 C   0  0  0  0  0  3  0  0  0  0  0  0
  -22.3420   -6.7140   22.0090 C   0  0  0  0  0  0  0  0  0  0  0  0
  -22.5720   -6.1060   20.8200 F   0  0  0  0  0  0  0  0  0  0  0  0
  -21.4840   -5.8160   25.4610 F   0  0  0  0  0  0  0  0  0  0  0  0
  -25.5130  -14.9270   21.3500 C   0  0  0  0  0  0  0  0  0  0  0  0
  -24.8220  -14.3070   22.3000 N   0  0  0  0  0  0  0  0  0  0  0  0
  -25.2700  -16.0940   21.0460 O   0  0  0  0  0  0  0  0  0  0  0  0
  -25.0320  -13.3540   22.5590 H   0  0  0  0  0  0  0  0  0  0  0  0
  -24.0700  -14.7910   22.7700 H   0  0  0  0  0  0  0  0  0  0  0  0
  -28.3270  -15.9870   20.1880 N   0  0  0  0  0  0  0  0  0  0  0  0
  -27.7730  -16.7830   20.4880 H   0  0  0  0  0  0  0  0  0  0  0  0
  -29.0970  -16.2460   19.5860 H   0  0  0  0  0  0  0  0  0  0  0  0
  -28.5460  -21.6510   20.1900 C   0  0  0  0  0  2  0  0  0  0  0  0
  -26.9550  -22.5200   18.5960 C   0  0  0  0  0  1  0  0  0  0  0  0
  -28.2450  -22.7410   19.2540 N   0  0  0  0  0  0  0  0  0  0  0  0
  -28.2530  -24.0450   19.9400 C   0  0  0  0  0  2  0  0  0  0  0  0
  -28.5460  -25.2660   19.0370 C   0  0  0  0  0  2  0  0  0  0  0  0
  -28.4650  -26.4940   19.7640 O   0  0  0  0  0  0  0  0  0  0  0  0
  -24.7590  -31.5850   23.0590 C   0  0  0  0  0  0  0  0  0  0  0  0
  -27.2690  -27.1820   19.8170 C   0  0  0  0  0  0  0  0  0  0  0  0
  -23.4930  -30.2290   21.4270 C   0  0  0  0  0  3  0  0  0  0  0  0
  -24.8860  -28.7050   19.9370 C   0  0  0  0  0  0  0  0  0  0  0  0
  -26.0150  -30.5650   21.1650 C   0  0  0  0  0  2  0  0  0  0  0  0
  -26.0650  -29.2070   20.4980 C   0  0  0  0  0  0  0  0  0  0  0  0
  -27.2580  -28.4530   20.4350 C   0  0  0  0  0  3  0  0  0  0  0  0
  -26.0620  -26.6850   19.2700 C   0  0  0  0  0  3  0  0  0  0  0  0
  -24.8770  -27.4400   19.3260 C   0  0  0  0  0  3  0  0  0  0  0  0
  -23.6550  -29.5780   20.0290 C   0  0  0  0  0  2  0  0  0  0  0  0
  -24.7770  -30.8050   21.9420 N   0  0  0  0  0  0  0  0  0  0  0  0
  -23.6960  -31.8580   23.6340 O   0  0  0  0  0  0  0  0  0  0  0  0
  -22.8570  -29.1930   22.3840 C   0  0  0  0  0  0  0  0  0  0  0  0
  -21.5390  -28.9770   22.2410 N   0  0  0  0  0  0  0  0  0  0  0  0
  -23.5460  -28.5870   23.2080 O   0  0  0  0  0  0  0  0  0  0  0  0
  -21.0390  -29.5200   21.5520 H   0  0  0  0  0  0  0  0  0  0  0  0
  -18.1960  -27.6890   22.6830 C   0  0  0  0  0  0  0  0  0  0  0  0
  -20.7370  -28.0260   23.0100 C   0  0  0  0  0  3  0  0  0  0  0  0
  -20.8950  -26.5900   22.4580 C   0  0  0  0  0  2  0  0  0  0  0  0
  -19.8280  -26.2230   21.4230 C   0  0  0  0  0  2  0  0  0  0  0  0
  -18.4280  -26.3360   22.0330 C   0  0  0  0  0  2  0  0  0  0  0  0
  -19.2810  -28.4910   23.1280 C   0  0  0  0  0  0  0  0  0  0  0  0
  -19.0100  -29.7550   23.6940 C   0  0  0  0  0  3  0  0  0  0  0  0
  -17.6870  -30.2180   23.8240 C   0  0  0  0  0  3  0  0  0  0  0  0
  -16.6170  -29.4150   23.3950 C   0  0  0  0  0  3  0  0  0  0  0  0
  -16.8720  -28.1520   22.8300 C   0  0  0  0  0  3  0  0  0  0  0  0
  -26.0690  -32.1890   23.6550 C   0  0  0  0  0  3  0  0  0  0  0  0
  -25.7710  -33.5670   24.0670 N   0  0  0  0  0  0  0  0  0  0  0  0
  -26.0810  -34.6580   23.3550 C   0  0  0  0  0  0  0  0  0  0  0  0
  -26.7210  -34.6100   22.3010 O   0  0  0  0  0  0  0  0  0  0  0  0
  -25.2030  -33.6790   24.8940 H   0  0  0  0  0  0  0  0  0  0  0  0
  -24.3500  -36.4680   23.1320 C   0  0  0  0  0  1  0  0  0  0  0  0
  -25.6050  -36.0180   23.8970 C   0  0  0  0  0  3  0  0  0  0  0  0
  -27.7580  -36.8510   24.7320 C   0  0  0  0  0  1  0  0  0  0  0  0
  -26.6380  -37.0740   23.8230 N   0  0  0  0  0  0  0  0  0  0  0  0
  -26.2380  -37.9850   24.0320 H   0  0  0  0  0  0  0  0  0  0  0  0
  -26.6440  -31.3560   24.8650 C   0  0  1  0  0  0  0  0  0  0  0  0
  -25.5880  -31.0150   25.9420 C   0  0  0  0  0  1  0  0  0  0  0  0
  -27.2590  -30.0270   24.3690 C   0  0  0  0  0  1  0  0  0  0  0  0
  -27.7860  -32.1450   25.5490 C   0  0  0  0  0  1  0  0  0  0  0  0
  1 49  1  0
  1  6  1  0
  2  4  1  0
  3  6  1  0
  3  5  1  0
  5 10  1  0
  5  7  1  0
  6  2  1  0
  7  9  1  0
  7  4  1  0
  7  8  1  0
 11 19  1  0
 11 17  1  0
 12 17  1  0
 13 14  1  0
 13 12  1  0
 15 14  1  0
 15 24  1  0
 15 16  1  0
 17 16  1  0
 18 11  2  0
 19 10  1  0
 20 19  1  0
 21 22  2  0
 22 41  1  0
 23 26  1  0
 23 22  1  0
 24 25  1  0
 24 21  1  0
 25 23  2  0
 26 27  1  0
 27 28  2  0
 29 32  1  0
 29 28  1  0
 30 29  2  0
 31 30  1  0
 31 26  2  0
 32 33  1  0
 33 34  1  0
 34 35  2  0
 36 35  1  0
 36 40  1  0
 37 36  2  0
 38 33  2  0
 38 37  1  0
 39 38  1  0
 41 42  1  0
 42 44  1  0
 42 45  1  0
 43 41  2  0
 46 21  1  0
 46 47  1  0
 48 46  1  0
 50 51  1  0
 51 52  1  0
 51 49  1  0
 53 54  1  0
 53 52  1  0
 54 56  1  0
 55 66  2  0
 56 61  1  0
 57 65  1  0
 57 67  1  0
 58 64  1  0
 58 60  1  0
 59 65  1  0
 60 59  1  0
 61 60  2  0
 62 63  1  0
 62 56  2  0
 63 58  2  0
 64 57  1  0
 65 55  1  0
 67 69  2  0
 68 67  1  0
 70 68  1  0
 71 80  2  0
 71 76  1  0
 72 68  1  0
 72 76  1  0
 73 72  1  0
 74 75  1  0
 74 73  1  0
 75 71  1  0
 76 77  2  0
 77 78  1  0
 79 78  2  0
 80 79  1  0
 81 55  1  0
 81 82  1  0
 81 91  1  0
 82 85  1  0
 83 87  1  0
 83 82  1  0
 84 83  2  0
 87 86  1  0
 89 87  1  0
 89 90  1  0
 89 88  1  0
 91 94  1  1
 91 92  1  0
 93 91  1  0
M  ISO  4  11 100  19 100  53 101  54 101
M  END
>  <TORSDO>  (35) 
F 22

>  <SCORE>  (35) 
-7.142

>  <name>  (35) 
34

>  <ligand_id>  (35) 
34

>  <original_smiles>  (35) 
[H]c1c([H])c([H])c2c(c1[H])C([H])([H])C([H])([H])C([H])([H])C2([H])N([H])C(=O)C1([H])N(C(=O)C([H])(N([H])C(=O)C([H])(N([H])C([H])([H])[H])C([H])([H])[H])C(C([H])([H])[H])(C([H])([H])[H])C([H])([H])[H])C([H])([H])c2c([H])c(OC([H])([H])C([H])([H])N(C([H])([H])[H])C([H])([H])C([H])([H])N3C([H])([H])C([H])([H])[N+]([H])([H])C([H])(C([H])([H])N([H])C(=O)N4C([H])([H])C([H])([H])C([H])([H])C([H])(n5nc(-c6c([H])c([H])c(Oc7c([H])c([H])c(F)c([H])c7F)c([H])c6[H])c(C(=O)N([H])[H])c5N([H])[H])C4([H])[H])C3([H])[H])c([H])c([H])c2C1([H])[H]

>  <smiles>  (35) 
[H]c1c([H])c([H])c2c(c1[H])C([H])([H])C([H])([H])C([H])([H])C2([H])N([H])C(=O)C1([H])N(C(=O)C([H])(N([H])C(=O)C([H])(N([H])C([H])([H])[H])C([H])([H])[H])C(C([H])([H])[H])(C([H])([H])[H])C([H])([H])[H])C([H])([H])c2c([H])c(OC([H])([H])C([H])([H])N(C([H])([H])[H])C([H])([H])C([H])([H])N3C([H])([H])C([H])([H])[N+]([H])([H])C([H])(C([H])([H])N([H])C(=O)N4C([H])([H])C([H])([H])C([H])([H])C([H])(n5nc(-c6c([H])c([H])c(Oc7c([H])c([H])c(F)c([H])c7F)c([H])c6[H])c(C(=O)N([H])[H])c5N([H])[H])C4([H])[H])C3([H])[H])c([H])c([H])c2C1([H])[H]

$$$$
35:0:0
     RDKit          3D

 94102  0  0  1  0  0  0  0  0999 V2000
  -29.9420  -24.1210   20.3930 C   0  0  0  0  0  3  0  0  0  0  0  0
  -27.5400  -23.7220   20.3620 C   0  0  0  0  0  3  0  0  0  0  0  0
  -30.1720  -22.7820   20.0070 C   0  0  0  0  0  0  0  0  0  0  0  0
  -27.7590  -22.3890   19.9540 C   0  0  0  0  0  0  0  0  0  0  0  0
  -28.6280  -24.5850   20.5970 C   0  0  0  0  0  0  0  0  0  0  0  0
  -29.0840  -21.9020   19.8210 C   0  0  0  0  0  0  0  0  0  0  0  0
  -31.5950  -22.2900   19.8190 C   0  0  0  0  0  1  0  0  0  0  0  0
  -26.5650  -21.4940   19.6690 C   0  0  0  0  0  1  0  0  0  0  0  0
  -28.4030  -25.8810   21.0650 N   0  0  0  0  0  0  0  0  0  0  0  0
  -27.4850  -25.9890   21.4900 H   0  0  0  0  0  0  0  0  0  0  0  0
  -28.4730  -26.8570   20.0310 O   0  0  0  0  0  0  0  0  0  0  0  0
  -24.6000  -31.8620   23.2700 C   0  0  0  0  0  0  0  0  0  0  0  0
  -27.3180  -27.5900   20.0490 C   0  0  0  0  0  0  0  0  0  0  0  0
  -23.4230  -30.5150   21.5590 C   0  0  0  0  0  3  0  0  0  0  0  0
  -24.9060  -29.0440   20.0940 C   0  0  0  0  0  0  0  0  0  0  0  0
  -25.9420  -30.9100   21.3990 C   0  0  0  0  0  2  0  0  0  0  0  0
  -26.0490  -29.5640   20.7160 C   0  0  0  0  0  0  0  0  0  0  0  0
  -27.2600  -28.8410   20.6960 C   0  0  0  0  0  3  0  0  0  0  0  0
  -26.1650  -27.0700   19.4300 C   0  0  0  0  0  3  0  0  0  0  0  0
  -24.9550  -27.7920   19.4520 C   0  0  0  0  0  3  0  0  0  0  0  0
  -23.6530  -29.8890   20.1560 C   0  0  0  0  0  2  0  0  0  0  0  0
  -24.6720  -31.1080   22.1360 N   0  0  0  0  0  0  0  0  0  0  0  0
  -23.5120  -32.1050   23.8100 O   0  0  0  0  0  0  0  0  0  0  0  0
  -22.7690  -29.4540   22.4730 C   0  0  0  0  0  0  0  0  0  0  0  0
  -21.4440  -29.2860   22.3390 N   0  0  0  0  0  0  0  0  0  0  0  0
  -23.4510  -28.7870   23.2570 O   0  0  0  0  0  0  0  0  0  0  0  0
  -20.9580  -29.8780   21.6800 H   0  0  0  0  0  0  0  0  0  0  0  0
  -18.0570  -28.1230   22.8090 C   0  0  0  0  0  0  0  0  0  0  0  0
  -20.6210  -28.3190   23.0650 C   0  0  0  0  0  3  0  0  0  0  0  0
  -20.6910  -26.9220   22.4050 C   0  0  0  0  0  2  0  0  0  0  0  0
  -19.5720  -26.6790   21.3880 C   0  0  0  0  0  2  0  0  0  0  0  0
  -18.2010  -26.8110   22.0570 C   0  0  0  0  0  2  0  0  0  0  0  0
  -19.1940  -28.8390   23.2690 C   0  0  0  0  0  0  0  0  0  0  0  0
  -19.0060  -30.0710   23.9310 C   0  0  0  0  0  3  0  0  0  0  0  0
  -17.7130  -30.5860   24.1410 C   0  0  0  0  0  3  0  0  0  0  0  0
  -16.5890  -29.8660   23.6990 C   0  0  0  0  0  3  0  0  0  0  0  0
  -16.7620  -28.6370   23.0380 C   0  0  0  0  0  3  0  0  0  0  0  0
  -25.8760  -32.4750   23.9270 C   0  0  0  0  0  3  0  0  0  0  0  0
  -25.5730  -33.8720   24.2640 N   0  0  0  0  0  0  0  0  0  0  0  0
  -25.9320  -34.9270   23.5190 C   0  0  0  0  0  0  0  0  0  0  0  0
  -26.6240  -34.8240   22.5020 O   0  0  0  0  0  0  0  0  0  0  0  0
  -24.9610  -34.0250   25.0520 H   0  0  0  0  0  0  0  0  0  0  0  0
  -24.2270  -36.7350   23.1350 C   0  0  0  0  0  1  0  0  0  0  0  0
  -25.4440  -36.3150   23.9750 C   0  0  0  0  0  3  0  0  0  0  0  0
  -27.5670  -37.1720   24.8610 C   0  0  0  0  0  1  0  0  0  0  0  0
  -26.4870  -37.3610   23.8960 N   0  0  0  0  0  0  0  0  0  0  0  0
  -26.0860  -38.2830   24.0450 H   0  0  0  0  0  0  0  0  0  0  0  0
  -26.3580  -31.6860   25.2050 C   0  0  1  0  0  0  0  0  0  0  0  0
  -25.2380  -31.4380   26.2420 C   0  0  0  0  0  1  0  0  0  0  0  0
  -26.9460  -30.3130   24.8060 C   0  0  0  0  0  1  0  0  0  0  0  0
  -27.4930  -32.4680   25.9080 C   0  0  0  0  0  1  0  0  0  0  0  0
  -29.3170  -20.5790   19.5330 O   0  0  0  0  0  0  0  0  0  0  0  0
  -29.4360  -19.7740   20.7050 C   0  0  0  0  0  2  0  0  0  0  0  0
  -29.0340  -18.3150   20.4330 C   0  0  0  0  0  2  0  0  0  0  0  0
  -30.2070  -17.3570   20.1510 C   0  0  0  0  0  2  0  0  0  0  0  0
  -29.8180  -15.8990   20.4820 C   0  0  0  0  0  2  0  0  0  0  0  0
  -31.1570  -14.0920   19.4370 C   0  0  0  0  0  0  0  0  0  0  0  0
  -30.7100  -11.8100   18.5950 C   0  0  0  0  0  2  0  0  0  0  0  0
  -29.6680  -11.8090   17.4620 C   0  0  0  0  0  2  0  0  0  0  0  0
  -28.2370  -11.7600   18.0320 C   0  0  0  0  0  2  0  0  0  0  0  0
  -28.0060  -12.8170   19.1430 C   0  0  0  0  0  3  0  0  0  0  0  0
  -29.1420  -12.7530   20.1870 C   0  0  0  0  0  2  0  0  0  0  0  0
  -30.4260  -12.9450   19.4870 N   0  0  0  0  0  0  0  0  0  0  0  0
  -32.1160  -14.2400   18.6680 O   0  0  0  0  0  0  0  0  0  0  0  0
  -32.0650  -15.3110   21.3370 C   0  0  0  0  0  1  0  0  0  0  0  0
  -30.9520  -14.9610   20.4510 N   0  0  0  0  0  0  0  0  0  0  0  0
  -25.7500  -13.6310   20.0850 C   0  0  0  0  0  0  0  0  0  0  0  0
  -24.6680  -12.9520   20.5760 C   0  0  0  0  0  0  0  0  0  0  0  0
  -25.0110  -11.5670   20.5180 C   0  0  0  0  0  0  0  0  0  0  0  0
  -26.6920  -12.6650   19.7610 N   0  0  0  0  0  0  0  0  0  0  0  0
  -26.2530  -11.4180   20.0740 N   0  0  0  0  0  0  0  0  0  0  0  0
  -24.2120  -10.3690   20.8030 C   0  0  0  0  0  0  0  0  0  0  0  0
  -24.6060   -9.4340   21.7840 C   0  0  0  0  0  3  0  0  0  0  0  0
  -23.8100   -8.2990   22.0510 C   0  0  0  0  0  3  0  0  0  0  0  0
  -22.6050   -8.0930   21.3390 C   0  0  0  0  0  0  0  0  0  0  0  0
  -22.2280   -9.0170   20.3470 C   0  0  0  0  0  3  0  0  0  0  0  0
  -23.0240  -10.1420   20.0780 C   0  0  0  0  0  3  0  0  0  0  0  0
  -21.7820   -7.0070   21.5140 O   0  0  0  0  0  0  0  0  0  0  0  0
  -21.6600   -6.3850   22.7290 C   0  0  0  0  0  0  0  0  0  0  0  0
  -21.2320   -7.0800   23.8830 C   0  0  0  0  0  3  0  0  0  0  0  0
  -21.0530   -6.3870   25.0960 C   0  0  0  0  0  3  0  0  0  0  0  0
  -21.2910   -5.0010   25.1580 C   0  0  0  0  0  0  0  0  0  0  0  0
  -21.7120   -4.3060   24.0110 C   0  0  0  0  0  3  0  0  0  0  0  0
  -21.8930   -4.9960   22.7990 C   0  0  0  0  0  0  0  0  0  0  0  0
  -22.2780   -4.3180   21.6920 F   0  0  0  0  0  0  0  0  0  0  0  0
  -21.1120   -4.3340   26.3230 F   0  0  0  0  0  0  0  0  0  0  0  0
  -23.3510  -13.5440   20.9880 C   0  0  0  0  0  0  0  0  0  0  0  0
  -22.6710  -12.9210   21.9450 N   0  0  0  0  0  0  0  0  0  0  0  0
  -22.9380  -14.5930   20.4960 O   0  0  0  0  0  0  0  0  0  0  0  0
  -23.0190  -12.0720   22.3650 H   0  0  0  0  0  0  0  0  0  0  0  0
  -21.7900  -13.3010   22.2630 H   0  0  0  0  0  0  0  0  0  0  0  0
  -26.0060  -14.9820   19.8710 N   0  0  0  0  0  0  0  0  0  0  0  0
  -25.3110  -15.6980   20.0470 H   0  0  0  0  0  0  0  0  0  0  0  0
  -26.8490  -15.3470   19.4470 H   0  0  0  0  0  0  0  0  0  0  0  0
  1  5  1  0
  2  5  2  0
  3  1  2  0
  4  2  1  0
  5  9  1  0
  6  4  2  0
  6  3  1  0
  7  3  1  0
  8  4  1  0
  9 10  1  0
 11 13  1  0
 11  9  1  0
 12 23  2  0
 13 18  1  0
 14 22  1  0
 14 24  1  0
 15 21  1  0
 15 17  1  0
 16 22  1  0
 17 16  1  0
 18 17  2  0
 19 20  1  0
 19 13  2  0
 20 15  2  0
 21 14  1  0
 22 12  1  0
 24 26  2  0
 25 24  1  0
 27 25  1  0
 28 37  2  0
 28 33  1  0
 29 25  1  0
 29 33  1  0
 30 29  1  0
 31 32  1  0
 31 30  1  0
 32 28  1  0
 33 34  2  0
 34 35  1  0
 36 35  2  0
 37 36  1  0
 38 12  1  0
 38 39  1  0
 38 48  1  0
 39 42  1  0
 40 44  1  0
 40 39  1  0
 41 40  2  0
 44 43  1  0
 46 44  1  0
 46 47  1  0
 46 45  1  0
 48 51  1  1
 48 49  1  0
 50 48  1  0
 52  6  1  0
 52 53  1  0
 54 53  1  0
 55 54  1  0
 55 56  1  0
 57 63  1  0
 57 66  1  0
 58 63  1  0
 59 60  1  0
 59 58  1  0
 61 60  1  0
 61 70  1  0
 61 62  1  0
 63 62  1  0
 64 57  2  0
 66 56  1  0
 66 65  1  0
 67 68  2  0
 68 87  1  0
 69 68  1  0
 69 72  1  0
 70 71  1  0
 70 67  1  0
 71 69  2  0
 72 73  1  0
 73 74  2  0
 75 78  1  0
 75 74  1  0
 76 75  2  0
 77 76  1  0
 77 72  2  0
 78 79  1  0
 79 84  2  0
 79 80  1  0
 80 81  2  0
 81 82  1  0
 82 86  1  0
 83 82  2  0
 84 83  1  0
 85 84  1  0
 87 88  1  0
 88 91  1  0
 88 90  1  0
 89 87  2  0
 92 93  1  0
 92 67  1  0
 94 92  1  0
M  ISO  4   9 101  11 101  57 100  66 100
M  END
>  <TORSDO>  (36) 
F 22

>  <SCORE>  (36) 
-11.478

>  <name>  (36) 
35

>  <ligand_id>  (36) 
35

>  <original_smiles>  (36) 
[H]c1c([H])c([H])c2c(c1[H])C([H])([H])C([H])([H])C([H])([H])C2([H])N([H])C(=O)C1([H])N(C(=O)C([H])(N([H])C(=O)C([H])(N([H])C([H])([H])[H])C([H])([H])[H])C(C([H])([H])[H])(C([H])([H])[H])C([H])([H])[H])C([H])([H])c2c([H])c(ON([H])c3c([H])c(C([H])([H])[H])c(OC([H])([H])C([H])([H])C([H])([H])C([H])([H])N(C(=O)N4C([H])([H])C([H])([H])C([H])([H])C([H])(n5nc(-c6c([H])c([H])c(Oc7c([H])c([H])c(F)c([H])c7F)c([H])c6[H])c(C(=O)N([H])[H])c5N([H])[H])C4([H])[H])C([H])([H])[H])c(C([H])([H])[H])c3[H])c([H])c([H])c2C1([H])[H]

>  <smiles>  (36) 
[H]c1c([H])c([H])c2c(c1[H])C([H])([H])C([H])([H])C([H])([H])C2([H])N([H])C(=O)C1([H])N(C(=O)C([H])(N([H])C(=O)C([H])(N([H])C([H])([H])[H])C([H])([H])[H])C(C([H])([H])[H])(C([H])([H])[H])C([H])([H])[H])C([H])([H])c2c([H])c(ON([H])c3c([H])c(C([H])([H])[H])c(OC([H])([H])C([H])([H])C([H])([H])C([H])([H])N(C(=O)N4C([H])([H])C([H])([H])C([H])([H])C([H])(n5nc(-c6c([H])c([H])c(Oc7c([H])c([H])c(F)c([H])c7F)c([H])c6[H])c(C(=O)N([H])[H])c5N([H])[H])C4([H])[H])C([H])([H])[H])c(C([H])([H])[H])c3[H])c([H])c([H])c2C1([H])[H]

$$$$
36:0:0
     RDKit          3D

 87 94  0  0  1  0  0  0  0  0999 V2000
  -30.1790  -16.2970   20.1640 C   0  0  0  0  0  0  0  0  0  0  0  0
  -30.5040  -13.5800   19.5170 C   0  0  0  0  0  2  0  0  0  0  0  0
  -29.7220  -12.8320   18.3750 C   0  0  0  0  0  2  0  0  0  0  0  0
  -28.3410  -12.3590   18.8430 C   0  0  0  0  0  2  0  0  0  0  0  0
  -27.7040  -13.4340   19.7410 C   0  0  0  0  0  3  0  0  0  0  0  0
  -28.6570  -14.0440   20.8160 C   0  0  0  0  0  2  0  0  0  0  0  0
  -29.7430  -14.8220   20.1160 N   0  0  0  0  0  0  0  0  0  0  0  0
  -31.4320  -16.1570   20.1160 O   0  0  0  0  0  0  0  0  0  0  0  0
  -27.1630  -19.2580   19.6900 C   0  0  0  0  0  2  0  0  0  0  0  0
  -26.9010  -20.6440   20.5260 C   0  0  0  0  0  2  0  0  0  0  0  0
  -27.8630  -17.8750   20.2050 C   0  0  0  0  0  3  0  0  0  0  0  0
  -29.1920  -20.7140   21.3090 C   0  0  0  0  0  2  0  0  0  0  0  0
  -29.3520  -21.4570   19.2550 C   0  0  0  0  0  2  0  0  0  0  0  0
  -28.0070  -21.7730   20.8970 C   0  0  0  0  0  3  0  0  0  0  0  0
  -28.3390  -23.0220   19.7880 C   0  0  0  0  0  2  0  0  0  0  0  0
  -29.3440  -17.7690   20.0690 N   0  0  0  0  0  0  0  0  0  0  0  0
  -29.7300  -19.9500   20.1180 N   0  0  0  0  0  0  0  0  0  0  0  0
  -30.7340  -19.9870   20.2230 H   0  0  0  0  0  0  0  0  0  0  0  0
  -25.3200  -13.9160   20.4280 C   0  0  0  0  0  0  0  0  0  0  0  0
  -24.2640  -13.1330   20.7910 C   0  0  0  0  0  0  0  0  0  0  0  0
  -24.7590  -11.7920   20.8260 C   0  0  0  0  0  0  0  0  0  0  0  0
  -26.3900  -13.0620   20.2530 N   0  0  0  0  0  0  0  0  0  0  0  0
  -26.0650  -11.7730   20.5530 N   0  0  0  0  0  0  0  0  0  0  0  0
  -24.0370  -10.5270   21.0400 C   0  0  0  0  0  0  0  0  0  0  0  0
  -24.4490   -9.5940   22.0170 C   0  0  0  0  0  3  0  0  0  0  0  0
  -23.7180   -8.4030   22.2230 C   0  0  0  0  0  3  0  0  0  0  0  0
  -22.5620   -8.1360   21.4530 C   0  0  0  0  0  0  0  0  0  0  0  0
  -22.1680   -9.0580   20.4670 C   0  0  0  0  0  3  0  0  0  0  0  0
  -22.8990  -10.2390   20.2590 C   0  0  0  0  0  3  0  0  0  0  0  0
  -21.8070   -6.9920   21.5660 O   0  0  0  0  0  0  0  0  0  0  0  0
  -21.7440   -6.2830   22.7390 C   0  0  0  0  0  0  0  0  0  0  0  0
  -21.3050   -6.8730   23.9430 C   0  0  0  0  0  3  0  0  0  0  0  0
  -21.1900   -6.0910   25.1100 C   0  0  0  0  0  3  0  0  0  0  0  0
  -21.5020   -4.7190   25.0720 C   0  0  0  0  0  0  0  0  0  0  0  0
  -21.9330   -4.1280   23.8720 C   0  0  0  0  0  3  0  0  0  0  0  0
  -22.0510   -4.9070   22.7080 C   0  0  0  0  0  0  0  0  0  0  0  0
  -22.4460   -4.3270   21.5480 F   0  0  0  0  0  0  0  0  0  0  0  0
  -21.3840   -3.9650   26.1910 F   0  0  0  0  0  0  0  0  0  0  0  0
  -22.8530  -13.6000   20.9880 C   0  0  0  0  0  0  0  0  0  0  0  0
  -22.1070  -12.9430   21.8670 N   0  0  0  0  0  0  0  0  0  0  0  0
  -22.4220  -14.5910   20.3960 O   0  0  0  0  0  0  0  0  0  0  0  0
  -22.4700  -12.1450   22.3660 H   0  0  0  0  0  0  0  0  0  0  0  0
  -21.1590  -13.2420   22.0430 H   0  0  0  0  0  0  0  0  0  0  0  0
  -25.4540  -15.2790   20.1920 N   0  0  0  0  0  0  0  0  0  0  0  0
  -24.6570  -15.9060   20.2280 H   0  0  0  0  0  0  0  0  0  0  0  0
  -26.2820  -15.7070   19.8080 H   0  0  0  0  0  0  0  0  0  0  0  0
  -28.2890  -25.0010   19.8320 O   0  0  0  0  0  1  0  0  0  0  0  0
  -24.8690  -31.7300   22.9220 C   0  0  0  0  0  0  0  0  0  0  0  0
  -27.3340  -26.3730   19.8370 C   0  0  0  0  0  0  0  0  0  0  0  0
  -23.6610  -30.3380   21.3010 C   0  0  0  0  0  3  0  0  0  0  0  0
  -25.0840  -28.6370   19.8570 C   0  0  0  0  0  0  0  0  0  0  0  0
  -26.2520  -30.3850   21.1580 C   0  0  0  0  0  2  0  0  0  0  0  0
  -26.3030  -28.9190   20.4840 C   0  0  0  0  0  0  0  0  0  0  0  0
  -27.3880  -27.8300   20.4310 C   0  0  0  0  0  3  0  0  0  0  0  0
  -26.0700  -26.4030   19.1540 C   0  0  0  0  0  3  0  0  0  0  0  0
  -25.0290  -27.4090   19.1660 C   0  0  0  0  0  3  0  0  0  0  0  0
  -23.8900  -29.6270   19.9290 C   0  0  0  0  0  2  0  0  0  0  0  0
  -24.9580  -30.8600   21.8450 N   0  0  0  0  0  0  0  0  0  0  0  0
  -23.7790  -32.0330   23.4450 O   0  0  0  0  0  0  0  0  0  0  0  0
  -22.9390  -29.3790   22.2890 C   0  0  0  0  0  0  0  0  0  0  0  0
  -21.5970  -29.2510   22.2070 N   0  0  0  0  0  0  0  0  0  0  0  0
  -23.6030  -28.7410   23.1080 O   0  0  0  0  0  0  0  0  0  0  0  0
  -21.1040  -29.8130   21.5280 H   0  0  0  0  0  0  0  0  0  0  0  0
  -18.2130  -28.0610   22.8400 C   0  0  0  0  0  0  0  0  0  0  0  0
  -20.7860  -28.3060   22.9920 C   0  0  0  0  0  3  0  0  0  0  0  0
  -20.8470  -26.8870   22.3810 C   0  0  0  0  0  2  0  0  0  0  0  0
  -19.7010  -26.6010   21.4070 C   0  0  0  0  0  2  0  0  0  0  0  0
  -18.3490  -26.7340   22.1120 C   0  0  0  0  0  2  0  0  0  0  0  0
  -19.3550  -28.8080   23.2380 C   0  0  0  0  0  0  0  0  0  0  0  0
  -19.1680  -30.0460   23.8880 C   0  0  0  0  0  3  0  0  0  0  0  0
  -17.8740  -30.5410   24.1390 C   0  0  0  0  0  3  0  0  0  0  0  0
  -16.7480  -29.7940   23.7510 C   0  0  0  0  0  3  0  0  0  0  0  0
  -16.9180  -28.5540   23.1090 C   0  0  0  0  0  3  0  0  0  0  0  0
  -26.1270  -32.3980   23.5560 C   0  0  0  0  0  3  0  0  0  0  0  0
  -25.7650  -33.7570   24.0180 N   0  0  0  0  0  0  0  0  0  0  0  0
  -26.0210  -34.8970   23.3620 C   0  0  0  0  0  0  0  0  0  0  0  0
  -26.6340  -34.9190   22.2930 O   0  0  0  0  0  0  0  0  0  0  0  0
  -25.2100  -33.8080   24.8600 H   0  0  0  0  0  0  0  0  0  0  0  0
  -24.2150  -36.6580   23.3040 C   0  0  0  0  0  1  0  0  0  0  0  0
  -25.5240  -36.2230   23.9830 C   0  0  0  0  0  3  0  0  0  0  0  0
  -27.6770  -37.1270   24.7480 C   0  0  0  0  0  1  0  0  0  0  0  0
  -26.5090  -37.3250   23.8950 N   0  0  0  0  0  0  0  0  0  0  0  0
  -26.0800  -38.2130   24.1460 H   0  0  0  0  0  0  0  0  0  0  0  0
  -26.7120  -31.5760   24.7730 C   0  0  1  0  0  0  0  0  0  0  0  0
  -25.6680  -31.2520   25.8690 C   0  0  0  0  0  1  0  0  0  0  0  0
  -27.3160  -30.2350   24.3030 C   0  0  0  0  0  1  0  0  0  0  0  0
  -27.8690  -32.3630   25.4320 C   0  0  0  0  0  1  0  0  0  0  0  0
  2  7  1  0
  3  4  1  0
  3  2  1  0
  5  4  1  0
  5 22  1  0
  5  6  1  0
  7  1  1  0
  7  6  1  0
  8  1  2  0
  9 11  1  0
  9 10  1  0
 13 15  1  0
 13 17  1  0
 14 10  1  0
 14 12  1  0
 15 14  1  0
 16  1  1  0
 16 11  2  0
 17 18  1  0
 17 12  1  0
 19 20  2  0
 20 21  1  0
 20 39  1  0
 21 24  1  0
 22 19  1  0
 22 23  1  0
 23 21  2  0
 24 25  1  0
 25 26  2  0
 27 30  1  0
 27 26  1  0
 28 27  2  0
 29 28  1  0
 29 24  2  0
 30 31  1  0
 31 32  1  0
 32 33  2  0
 34 33  1  0
 34 38  1  0
 35 34  2  0
 36 31  2  0
 36 35  1  0
 37 36  1  0
 39 40  1  0
 40 43  1  0
 40 42  1  0
 41 39  2  0
 44 45  1  0
 44 19  1  0
 46 44  1  0
 47 49  1  0
 48 59  2  0
 49 54  1  0
 50 58  1  0
 50 60  1  0
 51 57  1  0
 51 53  1  0
 52 58  1  0
 53 52  1  0
 54 53  2  0
 55 56  1  0
 55 49  2  0
 56 51  2  0
 57 50  1  0
 58 48  1  0
 60 62  2  0
 61 60  1  0
 63 61  1  0
 64 73  2  0
 64 69  1  0
 65 61  1  0
 65 69  1  0
 66 65  1  0
 67 68  1  0
 67 66  1  0
 68 64  1  0
 69 70  2  0
 70 71  1  0
 72 71  2  0
 73 72  1  0
 74 48  1  0
 74 75  1  0
 74 84  1  0
 75 78  1  0
 76 80  1  0
 76 75  1  0
 77 76  2  0
 80 79  1  0
 82 80  1  0
 82 83  1  0
 82 81  1  0
 84 87  1  1
 84 85  1  0
 86 84  1  0
M  ISO  4   1 100  15 101  16 100  47 101
M  END
>  <TORSDO>  (37) 
F 15

>  <SCORE>  (37) 
-14.750

>  <name>  (37) 
36

>  <ligand_id>  (37) 
36

>  <original_smiles>  (37) 
[H]c1c([H])c([H])c2c(c1[H])C([H])([H])C([H])([H])C([H])([H])C2([H])N([H])C(=O)C1([H])N(C(=O)C([H])(N([H])C(=O)C([H])(N([H])C([H])([H])[H])C([H])([H])[H])C(C([H])([H])[H])(C([H])([H])[H])C([H])([H])[H])C([H])([H])c2c([H])c(OC3([H])C4([H])C([H])([H])C([H])([H])C([H])([H])N(C(=O)N5C([H])([H])C([H])([H])C([H])([H])C([H])(n6nc(-c7c([H])c([H])c(Oc8c([H])c([H])c(F)c([H])c8F)c([H])c7[H])c(C(=O)N([H])[H])c6N([H])[H])C5([H])[H])[N+]([H])(C3([H])[H])C4([H])[H])c([H])c([H])c2C1([H])[H]

>  <smiles>  (37) 
[H]c1c([H])c([H])c2c(c1[H])C([H])([H])C([H])([H])C([H])([H])C2([H])N([H])C(=O)C1([H])N(C(=O)C([H])(N([H])C(=O)C([H])(N([H])C([H])([H])[H])C([H])([H])[H])C(C([H])([H])[H])(C([H])([H])[H])C([H])([H])[H])C([H])([H])c2c([H])c(OC3([H])C4([H])C([H])([H])C([H])([H])C([H])([H])N(C(=O)N5C([H])([H])C([H])([H])C([H])([H])C([H])(n6nc(-c7c([H])c([H])c(Oc8c([H])c([H])c(F)c([H])c8F)c([H])c7[H])c(C(=O)N([H])[H])c6N([H])[H])C5([H])[H])[N+]([H])(C3([H])[H])C4([H])[H])c([H])c([H])c2C1([H])[H]

$$$$
37:0:0
     RDKit          3D

 93102  0  0  1  0  0  0  0  0999 V2000
  -28.6470  -23.9300   19.5560 C   0  0  0  0  0  0  0  0  0  0  0  0
  -28.8810  -24.5930   21.8010 C   0  0  0  0  0  2  0  0  0  0  0  0
  -29.1510  -23.0700   21.6320 C   0  0  0  0  0  2  0  0  0  0  0  0
  -28.1360  -25.0360   20.5340 C   0  0  0  0  0  3  0  0  0  0  0  0
  -29.0980  -22.8050   20.1970 N   0  0  0  0  0  0  0  0  0  0  0  0
  -28.6350  -24.0860   18.3300 O   0  0  0  0  0  0  0  0  0  0  0  0
  -28.3550  -26.4620   20.1510 O   0  0  0  0  0  0  0  0  0  0  0  0
  -24.6280  -31.8690   23.1790 C   0  0  0  0  0  0  0  0  0  0  0  0
  -27.2370  -27.3120   20.1250 C   0  0  0  0  0  0  0  0  0  0  0  0
  -23.4190  -30.4620   21.5510 C   0  0  0  0  0  3  0  0  0  0  0  0
  -24.8660  -28.9120   20.1190 C   0  0  0  0  0  0  0  0  0  0  0  0
  -25.9550  -30.7910   21.3490 C   0  0  0  0  0  2  0  0  0  0  0  0
  -26.0370  -29.4100   20.7060 C   0  0  0  0  0  0  0  0  0  0  0  0
  -27.2270  -28.6230   20.6970 C   0  0  0  0  0  3  0  0  0  0  0  0
  -26.0490  -26.8700   19.5050 C   0  0  0  0  0  3  0  0  0  0  0  0
  -24.8740  -27.6480   19.5080 C   0  0  0  0  0  3  0  0  0  0  0  0
  -23.6250  -29.7810   20.1720 C   0  0  0  0  0  2  0  0  0  0  0  0
  -24.6860  -31.0570   22.0830 N   0  0  0  0  0  0  0  0  0  0  0  0
  -23.5470  -32.1440   23.7200 O   0  0  0  0  0  0  0  0  0  0  0  0
  -22.7660  -29.4450   22.5200 C   0  0  0  0  0  0  0  0  0  0  0  0
  -21.4390  -29.2670   22.4060 N   0  0  0  0  0  0  0  0  0  0  0  0
  -23.4530  -28.8210   23.3310 O   0  0  0  0  0  0  0  0  0  0  0  0
  -20.9430  -29.8220   21.7240 H   0  0  0  0  0  0  0  0  0  0  0  0
  -18.0680  -28.0650   22.9370 C   0  0  0  0  0  0  0  0  0  0  0  0
  -20.6290  -28.3310   23.1870 C   0  0  0  0  0  3  0  0  0  0  0  0
  -20.7300  -26.8970   22.6160 C   0  0  0  0  0  2  0  0  0  0  0  0
  -19.6210  -26.5690   21.6120 C   0  0  0  0  0  2  0  0  0  0  0  0
  -18.2430  -26.7140   22.2640 C   0  0  0  0  0  2  0  0  0  0  0  0
  -19.1890  -28.8310   23.3550 C   0  0  0  0  0  0  0  0  0  0  0  0
  -18.9730  -30.0950   23.9450 C   0  0  0  0  0  3  0  0  0  0  0  0
  -17.6680  -30.5950   24.1190 C   0  0  0  0  0  3  0  0  0  0  0  0
  -16.5610  -29.8270   23.7150 C   0  0  0  0  0  3  0  0  0  0  0  0
  -16.7630  -28.5640   23.1300 C   0  0  0  0  0  3  0  0  0  0  0  0
  -25.9130  -32.5090   23.7890 C   0  0  0  0  0  3  0  0  0  0  0  0
  -25.5950  -33.9030   24.1330 N   0  0  0  0  0  0  0  0  0  0  0  0
  -25.9100  -34.9640   23.3800 C   0  0  0  0  0  0  0  0  0  0  0  0
  -26.5690  -34.8740   22.3410 O   0  0  0  0  0  0  0  0  0  0  0  0
  -25.0080  -34.0470   24.9420 H   0  0  0  0  0  0  0  0  0  0  0  0
  -24.1630  -36.7440   23.0600 C   0  0  0  0  0  1  0  0  0  0  0  0
  -25.4170  -36.3440   23.8530 C   0  0  0  0  0  3  0  0  0  0  0  0
  -27.5590  -37.2360   24.6580 C   0  0  0  0  0  1  0  0  0  0  0  0
  -26.4370  -37.4090   23.7380 N   0  0  0  0  0  0  0  0  0  0  0  0
  -26.0250  -38.3230   23.9110 H   0  0  0  0  0  0  0  0  0  0  0  0
  -26.4500  -31.7350   25.0560 C   0  0  1  0  0  0  0  0  0  0  0  0
  -25.3710  -31.4850   26.1360 C   0  0  0  0  0  1  0  0  0  0  0  0
  -27.0370  -30.3630   24.6490 C   0  0  0  0  0  1  0  0  0  0  0  0
  -27.6040  -32.5340   25.7080 C   0  0  0  0  0  1  0  0  0  0  0  0
  -29.8310  -21.6440   19.5600 C   0  0  0  0  0  2  0  0  0  0  0  0
  -30.9700  -19.3500   19.9860 C   0  0  0  0  0  3  0  0  0  0  0  0
  -31.0040  -17.9350   20.1810 C   0  0  0  0  0  3  0  0  0  0  0  0
  -28.6280  -17.9620   20.4960 C   0  0  0  0  0  3  0  0  0  0  0  0
  -29.7720  -20.1240   20.0150 C   0  0  0  0  0  0  0  0  0  0  0  0
  -28.5850  -19.3800   20.2800 C   0  0  0  0  0  0  0  0  0  0  0  0
  -29.8230  -17.1880   20.4270 C   0  0  0  0  0  0  0  0  0  0  0  0
  -27.2350  -20.0750   20.2820 C   0  0  0  0  0  1  0  0  0  0  0  0
  -30.5590  -14.6760   20.2480 C   0  0  0  0  0  0  0  0  0  0  0  0
  -30.3330  -12.4420   19.1670 C   0  0  0  0  0  2  0  0  0  0  0  0
  -29.3690  -12.5880   17.9680 C   0  0  0  0  0  2  0  0  0  0  0  0
  -27.9000  -12.4320   18.4170 C   0  0  0  0  0  2  0  0  0  0  0  0
  -27.5690  -13.2810   19.6730 C   0  0  0  0  0  3  0  0  0  0  0  0
  -28.6440  -13.1020   20.7690 C   0  0  0  0  0  2  0  0  0  0  0  0
  -29.9450  -13.4490   20.1760 N   0  0  0  0  0  0  0  0  0  0  0  0
  -31.7190  -14.8270   19.8530 O   0  0  0  0  0  0  0  0  0  0  0  0
  -29.7510  -15.7280   20.6150 N   0  0  0  0  0  0  0  0  0  0  0  0
  -28.8520  -15.4040   20.9360 H   0  0  0  0  0  0  0  0  0  0  0  0
  -25.1870  -13.8920   20.4140 C   0  0  0  0  0  0  0  0  0  0  0  0
  -24.1220  -13.1240   20.8020 C   0  0  0  0  0  0  0  0  0  0  0  0
  -24.5790  -11.7720   20.7730 C   0  0  0  0  0  0  0  0  0  0  0  0
  -26.2260  -13.0060   20.1740 N   0  0  0  0  0  0  0  0  0  0  0  0
  -25.8660  -11.7270   20.4500 N   0  0  0  0  0  0  0  0  0  0  0  0
  -23.8500  -10.5130   20.9770 C   0  0  0  0  0  0  0  0  0  0  0  0
  -24.2920   -9.5460   21.9080 C   0  0  0  0  0  3  0  0  0  0  0  0
  -23.5640   -8.3530   22.0990 C   0  0  0  0  0  3  0  0  0  0  0  0
  -22.3780   -8.1170   21.3620 C   0  0  0  0  0  0  0  0  0  0  0  0
  -21.9560   -9.0720   20.4190 C   0  0  0  0  0  3  0  0  0  0  0  0
  -22.6850  -10.2570   20.2260 C   0  0  0  0  0  3  0  0  0  0  0  0
  -21.6210   -6.9760   21.4630 O   0  0  0  0  0  0  0  0  0  0  0  0
  -21.5830   -6.2380   22.6190 C   0  0  0  0  0  0  0  0  0  0  0  0
  -21.1870   -6.8020   23.8520 C   0  0  0  0  0  3  0  0  0  0  0  0
  -21.0960   -5.9910   25.0000 C   0  0  0  0  0  3  0  0  0  0  0  0
  -21.3900   -4.6170   24.9180 C   0  0  0  0  0  0  0  0  0  0  0  0
  -21.7800   -4.0520   23.6900 C   0  0  0  0  0  3  0  0  0  0  0  0
  -21.8730   -4.8600   22.5440 C   0  0  0  0  0  0  0  0  0  0  0  0
  -22.2280   -4.3060   21.3600 F   0  0  0  0  0  0  0  0  0  0  0  0
  -21.2950   -3.8360   26.0200 F   0  0  0  0  0  0  0  0  0  0  0  0
  -22.7290  -13.6090   21.0860 C   0  0  0  0  0  0  0  0  0  0  0  0
  -22.0100  -12.9220   21.9680 N   0  0  0  0  0  0  0  0  0  0  0  0
  -22.2870  -14.6310   20.5620 O   0  0  0  0  0  0  0  0  0  0  0  0
  -22.3800  -12.0960   22.4130 H   0  0  0  0  0  0  0  0  0  0  0  0
  -21.0760  -13.2280   22.2000 H   0  0  0  0  0  0  0  0  0  0  0  0
  -25.3520  -15.2600   20.2210 N   0  0  0  0  0  0  0  0  0  0  0  0
  -24.5770  -15.9070   20.3090 H   0  0  0  0  0  0  0  0  0  0  0  0
  -26.1710  -15.6790   19.8010 H   0  0  0  0  0  0  0  0  0  0  0  0
  1  5  1  0
  1  4  1  0
  3  2  1  0
  4  7  1  0
  4  2  1  0
  5  3  1  0
  6  1  2  0
  8 19  2  0
  9  7  1  0
  9 14  1  0
 10 18  1  0
 10 20  1  0
 11 17  1  0
 11 13  1  0
 12 18  1  0
 13 12  1  0
 14 13  2  0
 15 16  1  0
 15  9  2  0
 16 11  2  0
 17 10  1  0
 18  8  1  0
 20 22  2  0
 21 20  1  0
 23 21  1  0
 24 33  2  0
 24 29  1  0
 25 21  1  0
 25 29  1  0
 26 25  1  0
 27 28  1  0
 27 26  1  0
 28 24  1  0
 29 30  2  0
 30 31  1  0
 32 31  2  0
 33 32  1  0
 34  8  1  0
 34 35  1  0
 34 44  1  0
 35 38  1  0
 36 40  1  0
 36 35  1  0
 37 36  2  0
 40 39  1  0
 42 40  1  0
 42 43  1  0
 42 41  1  0
 44 47  1  1
 44 45  1  0
 46 44  1  0
 48 52  1  0
 48  5  1  0
 49 52  2  0
 49 50  1  0
 50 54  2  0
 52 53  1  0
 53 55  1  0
 53 51  2  0
 54 51  1  0
 54 64  1  0
 56 64  1  0
 57 62  1  0
 58 59  1  0
 58 57  1  0
 60 59  1  0
 60 69  1  0
 60 61  1  0
 62 56  1  0
 62 61  1  0
 63 56  2  0
 64 65  1  0
 66 67  2  0
 67 86  1  0
 68 67  1  0
 68 71  1  0
 69 66  1  0
 69 70  1  0
 70 68  2  0
 71 72  1  0
 72 73  2  0
 74 77  1  0
 74 73  1  0
 75 74  2  0
 76 75  1  0
 76 71  2  0
 77 78  1  0
 78 79  1  0
 79 80  2  0
 81 80  1  0
 81 85  1  0
 82 81  2  0
 83 78  2  0
 83 82  1  0
 84 83  1  0
 86 87  1  0
 87 90  1  0
 87 89  1  0
 88 86  2  0
 91 92  1  0
 91 66  1  0
 93 91  1  0
M  ISO  4   4 101   7 101  56 100  64 100
M  END
>  <TORSDO>  (38) 
F 18

>  <SCORE>  (38) 
-14.354

>  <name>  (38) 
37

>  <ligand_id>  (38) 
37

>  <original_smiles>  (38) 
[H]c1c([H])c([H])c2c(c1[H])C([H])([H])C([H])([H])C([H])([H])C2([H])N([H])C(=O)C1([H])N(C(=O)C([H])(N([H])C(=O)C([H])(N([H])C([H])([H])[H])C([H])([H])[H])C(C([H])([H])[H])(C([H])([H])[H])C([H])([H])[H])C([H])([H])c2c([H])c(OC3([H])C(=O)N(C([H])([H])c4c([H])c([H])c(N([H])C(=O)N5C([H])([H])C([H])([H])C([H])([H])C([H])(n6nc(-c7c([H])c([H])c(Oc8c([H])c([H])c(F)c([H])c8F)c([H])c7[H])c(C(=O)N([H])[H])c6N([H])[H])C5([H])[H])c([H])c4C([H])([H])[H])C([H])([H])C3([H])[H])c([H])c([H])c2C1([H])[H]

>  <smiles>  (38) 
[H]c1c([H])c([H])c2c(c1[H])C([H])([H])C([H])([H])C([H])([H])C2([H])N([H])C(=O)C1([H])N(C(=O)C([H])(N([H])C(=O)C([H])(N([H])C([H])([H])[H])C([H])([H])[H])C(C([H])([H])[H])(C([H])([H])[H])C([H])([H])[H])C([H])([H])c2c([H])c(OC3([H])C(=O)N(C([H])([H])c4c([H])c([H])c(N([H])C(=O)N5C([H])([H])C([H])([H])C([H])([H])C([H])(n6nc(-c7c([H])c([H])c(Oc8c([H])c([H])c(F)c([H])c8F)c([H])c7[H])c(C(=O)N([H])[H])c6N([H])[H])C5([H])[H])c([H])c4C([H])([H])[H])C([H])([H])C3([H])[H])c([H])c([H])c2C1([H])[H]

$$$$
38:0:0
     RDKit          3D

 98107  0  0  1  0  0  0  0  0999 V2000
  -30.6780  -20.3940   22.0230 C   0  0  0  0  0  3  0  0  0  0  0  0
  -29.7810  -21.4500   21.7800 C   0  0  0  0  0  3  0  0  0  0  0  0
  -28.5920  -20.0270   20.2050 C   0  0  0  0  0  3  0  0  0  0  0  0
  -30.6040  -19.1940   21.2830 C   0  0  0  0  0  0  0  0  0  0  0  0
  -29.5060  -18.9210   20.4440 C   0  0  0  0  0  0  0  0  0  0  0  0
  -28.7620  -21.3400   20.8050 C   0  0  0  0  0  0  0  0  0  0  0  0
  -31.8370  -18.3420   21.1520 C   0  0  0  0  0  0  0  0  0  0  0  0
  -31.0440  -17.8460   18.8750 C   0  0  0  0  0  2  0  0  0  0  0  0
  -29.6580  -17.6160   19.5530 C   0  0  0  0  0  3  0  0  0  0  0  0
  -32.1570  -18.0650   19.8520 N   0  0  0  0  0  0  0  0  0  0  0  0
  -32.5410  -18.1250   22.1410 O   0  0  0  0  0  0  0  0  0  0  0  0
  -30.3070  -15.0410   19.9610 C   0  0  0  0  0  0  0  0  0  0  0  0
  -30.1450  -12.7510   18.9890 C   0  0  0  0  0  2  0  0  0  0  0  0
  -29.1400  -12.7640   17.8170 C   0  0  0  0  0  2  0  0  0  0  0  0
  -27.7150  -12.5010   18.3360 C   0  0  0  0  0  2  0  0  0  0  0  0
  -27.3560  -13.3760   19.5690 C   0  0  0  0  0  3  0  0  0  0  0  0
  -28.4800  -13.3840   20.6240 C   0  0  0  0  0  2  0  0  0  0  0  0
  -29.7170  -13.7960   19.9490 N   0  0  0  0  0  0  0  0  0  0  0  0
  -31.4830  -15.1270   19.6080 O   0  0  0  0  0  0  0  0  0  0  0  0
  -29.5110  -16.1780   20.1110 N   0  0  0  0  0  0  0  0  0  0  0  0
  -28.5750  -15.9650   20.4230 H   0  0  0  0  0  0  0  0  0  0  0  0
  -25.0230  -13.8160   20.5260 C   0  0  0  0  0  0  0  0  0  0  0  0
  -24.0250  -12.9730   20.9360 C   0  0  0  0  0  0  0  0  0  0  0  0
  -24.5380  -11.6490   20.7870 C   0  0  0  0  0  0  0  0  0  0  0  0
  -26.0740  -12.9960   20.1510 N   0  0  0  0  0  0  0  0  0  0  0  0
  -25.7970  -11.6870   20.3720 N   0  0  0  0  0  0  0  0  0  0  0  0
  -23.8820  -10.3450   20.9580 C   0  0  0  0  0  0  0  0  0  0  0  0
  -24.3310   -9.4140   21.9200 C   0  0  0  0  0  3  0  0  0  0  0  0
  -23.6720   -8.1750   22.0780 C   0  0  0  0  0  3  0  0  0  0  0  0
  -22.5490   -7.8600   21.2730 C   0  0  0  0  0  0  0  0  0  0  0  0
  -22.1240   -8.7820   20.3000 C   0  0  0  0  0  3  0  0  0  0  0  0
  -22.7850  -10.0110   20.1420 C   0  0  0  0  0  3  0  0  0  0  0  0
  -21.8640   -6.6740   21.3380 O   0  0  0  0  0  0  0  0  0  0  0  0
  -21.6650   -6.0220   22.5290 C   0  0  0  0  0  0  0  0  0  0  0  0
  -20.9800   -6.6250   23.6070 C   0  0  0  0  0  3  0  0  0  0  0  0
  -20.7390   -5.8930   24.7860 C   0  0  0  0  0  3  0  0  0  0  0  0
  -21.1690   -4.5570   24.8880 C   0  0  0  0  0  0  0  0  0  0  0  0
  -21.8430   -3.9510   23.8120 C   0  0  0  0  0  3  0  0  0  0  0  0
  -22.0860   -4.6800   22.6360 C   0  0  0  0  0  0  0  0  0  0  0  0
  -22.7190   -4.0840   21.5970 F   0  0  0  0  0  0  0  0  0  0  0  0
  -20.9270   -3.8520   26.0170 F   0  0  0  0  0  0  0  0  0  0  0  0
  -22.6360  -13.3690   21.3440 C   0  0  0  0  0  0  0  0  0  0  0  0
  -22.0210  -12.6100   22.2470 N   0  0  0  0  0  0  0  0  0  0  0  0
  -22.1060  -14.3860   20.9020 O   0  0  0  0  0  0  0  0  0  0  0  0
  -22.4680  -11.7920   22.6340 H   0  0  0  0  0  0  0  0  0  0  0  0
  -21.0880  -12.8540   22.5550 H   0  0  0  0  0  0  0  0  0  0  0  0
  -25.1170  -15.2000   20.4200 N   0  0  0  0  0  0  0  0  0  0  0  0
  -24.3270  -15.8080   20.6080 H   0  0  0  0  0  0  0  0  0  0  0  0
  -25.9150  -15.6980   20.0500 H   0  0  0  0  0  0  0  0  0  0  0  0
  -34.6720  -18.2790   20.2880 C   0  0  0  0  0  1  0  0  0  0  0  0
  -33.8780  -17.2830   18.1740 C   0  0  0  0  0  1  0  0  0  0  0  0
  -33.5100  -19.7290   18.6180 C   0  0  0  0  0  1  0  0  0  0  0  0
  -33.5140  -18.3210   19.2590 C   0  0  1  0  0  0  0  0  0  0  0  0
  -27.9950  -22.5180   20.4690 N   0  0  0  0  0  0  0  0  0  0  0  0
  -27.1740  -22.3900   19.8820 H   0  0  0  0  0  0  0  0  0  0  0  0
  -28.4660  -23.9530   20.6390 C   0  0  0  0  0  3  0  0  0  0  0  0
  -27.4950  -25.1280   20.1190 C   0  0  0  0  0  3  0  0  0  0  0  0
  -27.8640  -26.5860   20.1390 O   0  0  0  0  0  0  0  0  0  0  0  0
  -24.5420  -32.1170   23.3920 C   0  0  0  0  0  0  0  0  0  0  0  0
  -26.8110  -27.5270   20.1160 C   0  0  0  0  0  0  0  0  0  0  0  0
  -23.1960  -30.7840   21.8070 C   0  0  0  0  0  3  0  0  0  0  0  0
  -24.5130  -29.2390   20.2500 C   0  0  0  0  0  0  0  0  0  0  0  0
  -25.7290  -31.0380   21.4710 C   0  0  0  0  0  2  0  0  0  0  0  0
  -25.7310  -29.6710   20.7880 C   0  0  0  0  0  0  0  0  0  0  0  0
  -26.8840  -28.8300   20.7090 C   0  0  0  0  0  3  0  0  0  0  0  0
  -25.5740  -27.1680   19.5350 C   0  0  0  0  0  3  0  0  0  0  0  0
  -24.4380  -27.9950   19.6080 C   0  0  0  0  0  3  0  0  0  0  0  0
  -23.3020  -30.1390   20.4000 C   0  0  0  0  0  2  0  0  0  0  0  0
  -24.5110  -31.3260   22.2810 N   0  0  0  0  0  0  0  0  0  0  0  0
  -23.5040  -32.4110   24.0020 O   0  0  0  0  0  0  0  0  0  0  0  0
  -22.5730  -29.7600   22.7890 C   0  0  0  0  0  0  0  0  0  0  0  0
  -21.2740  -29.4630   22.6180 N   0  0  0  0  0  0  0  0  0  0  0  0
  -23.2610  -29.2360   23.6700 O   0  0  0  0  0  0  0  0  0  0  0  0
  -20.7690  -29.9380   21.8810 H   0  0  0  0  0  0  0  0  0  0  0  0
  -18.0440  -27.8670   22.9200 C   0  0  0  0  0  0  0  0  0  0  0  0
  -20.5030  -28.5010   23.4070 C   0  0  0  0  0  3  0  0  0  0  0  0
  -20.8510  -27.0470   23.0090 C   0  0  0  0  0  2  0  0  0  0  0  0
  -19.9180  -26.4770   21.9360 C   0  0  0  0  0  2  0  0  0  0  0  0
  -18.4640  -26.4960   22.4190 C   0  0  0  0  0  2  0  0  0  0  0  0
  -19.0020  -28.8140   23.3720 C   0  0  0  0  0  0  0  0  0  0  0  0
  -18.5600  -30.0850   23.7950 C   0  0  0  0  0  3  0  0  0  0  0  0
  -17.1910  -30.4150   23.7800 C   0  0  0  0  0  3  0  0  0  0  0  0
  -16.2470  -29.4690   23.3460 C   0  0  0  0  0  3  0  0  0  0  0  0
  -16.6730  -28.1980   22.9200 C   0  0  0  0  0  3  0  0  0  0  0  0
  -25.8790  -32.7100   23.9350 C   0  0  0  0  0  3  0  0  0  0  0  0
  -26.4470  -31.9230   25.1790 C   0  0  1  0  0  0  0  0  0  0  0  0
  -25.3920  -31.6690   26.2810 C   0  0  0  0  0  1  0  0  0  0  0  0
  -27.0230  -30.5530   24.7490 C   0  0  0  0  0  1  0  0  0  0  0  0
  -27.6140  -32.7170   25.8120 C   0  0  0  0  0  1  0  0  0  0  0  0
  -25.6300  -34.1160   24.2850 N   0  0  0  0  0  0  0  0  0  0  0  0
  -25.9200  -35.1600   23.4970 C   0  0  0  0  0  0  0  0  0  0  0  0
  -26.4920  -35.0420   22.4120 O   0  0  0  0  0  0  0  0  0  0  0  0
  -25.1170  -34.2840   25.1370 H   0  0  0  0  0  0  0  0  0  0  0  0
  -24.1970  -36.9840   23.3100 C   0  0  0  0  0  1  0  0  0  0  0  0
  -25.5060  -36.5590   23.9930 C   0  0  0  0  0  3  0  0  0  0  0  0
  -27.7250  -37.4160   24.6030 C   0  0  0  0  0  1  0  0  0  0  0  0
  -26.5400  -37.5920   23.7670 N   0  0  0  0  0  0  0  0  0  0  0  0
  -26.1660  -38.5190   23.9460 H   0  0  0  0  0  0  0  0  0  0  0  0
  2  1  1  0
  3  5  2  0
  3  6  1  0
  4  1  2  0
  5  4  1  0
  6  2  2  0
  7  4  1  0
  7 11  2  0
  8  9  1  0
  8 10  1  0
  9 20  1  0
  9  5  1  0
 10  7  1  0
 12 20  1  0
 13 18  1  0
 14 15  1  0
 14 13  1  0
 16 15  1  0
 16 25  1  0
 16 17  1  0
 18 12  1  0
 18 17  1  0
 19 12  2  0
 20 21  1  0
 22 23  2  0
 23 42  1  0
 24 23  1  0
 24 27  1  0
 25 26  1  0
 25 22  1  0
 26 24  2  0
 27 28  1  0
 28 29  2  0
 30 33  1  0
 30 29  1  0
 31 30  2  0
 32 31  1  0
 32 27  2  0
 33 34  1  0
 34 39  2  0
 34 35  1  0
 35 36  2  0
 36 37  1  0
 37 41  1  0
 38 37  2  0
 39 38  1  0
 40 39  1  0
 42 43  1  0
 43 46  1  0
 43 45  1  0
 44 42  2  0
 47 22  1  0
 47 48  1  0
 49 47  1  0
 53 51  1  6
 52 53  1  0
 53 10  1  0
 53 50  1  0
 54 56  1  0
 54  6  1  0
 55 54  1  0
 57 58  1  0
 57 56  2  0
 59 70  2  0
 60 58  1  0
 60 65  1  0
 61 69  1  0
 61 71  1  0
 62 68  1  0
 62 64  1  0
 63 69  1  0
 64 63  1  0
 65 64  2  0
 66 67  1  0
 66 60  2  0
 67 62  2  0
 68 61  1  0
 69 59  1  0
 71 73  2  0
 72 71  1  0
 74 72  1  0
 75 80  1  0
 76 72  1  0
 77 76  1  0
 78 79  1  0
 78 77  1  0
 79 75  1  0
 80 76  1  0
 80 81  2  0
 82 81  1  0
 83 82  2  0
 84 75  2  0
 84 83  1  0
 85 59  1  0
 85 90  1  0
 85 86  1  0
 86 89  1  1
 86 87  1  0
 88 86  1  0
 90 93  1  0
 91 95  1  0
 91 90  1  0
 92 91  2  0
 95 94  1  0
 97 98  1  0
 97 95  1  0
 97 96  1  0
M  ISO  4  12 100  20 100  57 101  58 101
M  END
>  <TORSDO>  (39) 
F 20

>  <SCORE>  (39) 
-12.932

>  <name>  (39) 
38

>  <ligand_id>  (39) 
38

>  <original_smiles>  (39) 
[H]c1c([H])c([H])c2c(c1[H])C([H])([H])C([H])([H])C([H])([H])C2([H])N([H])C(=O)C1([H])N(C(=O)C([H])(N([H])C(=O)C([H])(N([H])C([H])([H])[H])C([H])([H])[H])C(C([H])([H])[H])(C([H])([H])[H])C([H])([H])[H])C([H])([H])c2c([H])c(OC([H])([H])C([H])([H])N([H])c3c([H])c([H])c4c(c3[H])C([H])(N([H])C(=O)N3C([H])([H])C([H])([H])C([H])([H])C([H])(n5nc(-c6c([H])c([H])c(Oc7c([H])c([H])c(F)c([H])c7F)c([H])c6[H])c(C(=O)N([H])[H])c5N([H])[H])C3([H])[H])C([H])([H])N(C(C([H])([H])[H])(C([H])([H])[H])C([H])([H])[H])C4=O)c([H])c([H])c2C1([H])[H]

>  <smiles>  (39) 
[H]c1c([H])c([H])c2c(c1[H])C([H])([H])C([H])([H])C([H])([H])C2([H])N([H])C(=O)C1([H])N(C(=O)C([H])(N([H])C(=O)C([H])(N([H])C([H])([H])[H])C([H])([H])[H])C(C([H])([H])[H])(C([H])([H])[H])C([H])([H])[H])C([H])([H])c2c([H])c(OC([H])([H])C([H])([H])N([H])c3c([H])c([H])c4c(c3[H])C([H])(N([H])C(=O)N3C([H])([H])C([H])([H])C([H])([H])C([H])(n5nc(-c6c([H])c([H])c(Oc7c([H])c([H])c(F)c([H])c7F)c([H])c6[H])c(C(=O)N([H])[H])c5N([H])[H])C3([H])[H])C([H])([H])N(C(C([H])([H])[H])(C([H])([H])[H])C([H])([H])[H])C4=O)c([H])c([H])c2C1([H])[H]

$$$$
39:0:0
     RDKit          3D

 93102  0  0  1  0  0  0  0  0999 V2000
  -28.8500  -18.9340   20.4470 C   0  0  0  0  0  3  0  0  0  0  0  0
  -30.2870  -21.1300   19.4280 C   0  0  0  0  0  3  0  0  0  0  0  0
  -30.1440  -18.6760   19.9310 C   0  0  0  0  0  0  0  0  0  0  0  0
  -29.0080  -21.3960   19.9750 C   0  0  0  0  0  0  0  0  0  0  0  0
  -28.3010  -20.2540   20.4630 C   0  0  0  0  0  0  0  0  0  0  0  0
  -30.8260  -19.8110   19.3950 C   0  0  0  0  0  0  0  0  0  0  0  0
  -27.0650  -20.4280   20.9850 F   0  0  0  0  0  0  0  0  0  0  0  0
  -32.0610  -19.6430   18.8610 F   0  0  0  0  0  0  0  0  0  0  0  0
  -30.7970  -14.7850   19.8410 C   0  0  0  0  0  0  0  0  0  0  0  0
  -30.3860  -12.5530   18.8120 C   0  0  0  0  0  2  0  0  0  0  0  0
  -29.3700  -12.6620   17.6580 C   0  0  0  0  0  2  0  0  0  0  0  0
  -27.9350  -12.5120   18.1920 C   0  0  0  0  0  2  0  0  0  0  0  0
  -27.6650  -13.3880   19.4450 C   0  0  0  0  0  3  0  0  0  0  0  0
  -28.8060  -13.2850   20.4830 C   0  0  0  0  0  2  0  0  0  0  0  0
  -30.0670  -13.6150   19.8000 N   0  0  0  0  0  0  0  0  0  0  0  0
  -31.8720  -14.8320   19.2360 O   0  0  0  0  0  0  0  0  0  0  0  0
  -31.1390  -17.0620   22.3920 C   0  0  0  0  0  2  0  0  0  0  0  0
  -31.9410  -17.4720   21.1670 C   0  0  0  0  0  2  0  0  0  0  0  0
  -30.1920  -15.9680   21.8710 C   0  0  0  0  0  2  0  0  0  0  0  0
  -30.9200  -17.3000   20.0370 C   0  0  0  0  0  3  0  0  0  0  0  0
  -30.2880  -15.9560   20.3970 N   0  0  0  0  0  0  0  0  0  0  0  0
  -25.3500  -13.9640   20.3900 C   0  0  0  0  0  0  0  0  0  0  0  0
  -24.3080  -13.1850   20.8120 C   0  0  0  0  0  0  0  0  0  0  0  0
  -24.7490  -11.8310   20.6820 C   0  0  0  0  0  0  0  0  0  0  0  0
  -26.3610  -13.0890   20.0310 N   0  0  0  0  0  0  0  0  0  0  0  0
  -26.0090  -11.7970   20.2660 N   0  0  0  0  0  0  0  0  0  0  0  0
  -24.0220  -10.5680   20.8750 C   0  0  0  0  0  0  0  0  0  0  0  0
  -24.4370   -9.6130   21.8290 C   0  0  0  0  0  3  0  0  0  0  0  0
  -23.7090   -8.4180   22.0100 C   0  0  0  0  0  3  0  0  0  0  0  0
  -22.5490   -8.1670   21.2370 C   0  0  0  0  0  0  0  0  0  0  0  0
  -22.1530   -9.1110   20.2730 C   0  0  0  0  0  3  0  0  0  0  0  0
  -22.8820  -10.2990   20.0900 C   0  0  0  0  0  3  0  0  0  0  0  0
  -21.7950   -7.0230   21.3260 O   0  0  0  0  0  0  0  0  0  0  0  0
  -21.6150   -6.3710   22.5190 C   0  0  0  0  0  0  0  0  0  0  0  0
  -21.0250   -7.0060   23.6340 C   0  0  0  0  0  3  0  0  0  0  0  0
  -20.7940   -6.2790   24.8190 C   0  0  0  0  0  3  0  0  0  0  0  0
  -21.1450   -4.9160   24.8880 C   0  0  0  0  0  0  0  0  0  0  0  0
  -21.7270   -4.2820   23.7770 C   0  0  0  0  0  3  0  0  0  0  0  0
  -21.9580   -5.0070   22.5960 C   0  0  0  0  0  0  0  0  0  0  0  0
  -22.5010   -4.3840   21.5210 F   0  0  0  0  0  0  0  0  0  0  0  0
  -20.9170   -4.2160   26.0240 F   0  0  0  0  0  0  0  0  0  0  0  0
  -22.9440  -13.6620   21.2200 C   0  0  0  0  0  0  0  0  0  0  0  0
  -22.2820  -12.9400   22.1160 N   0  0  0  0  0  0  0  0  0  0  0  0
  -22.4770  -14.7120   20.7790 O   0  0  0  0  0  0  0  0  0  0  0  0
  -22.6740  -12.0910   22.4950 H   0  0  0  0  0  0  0  0  0  0  0  0
  -21.3700  -13.2400   22.4280 H   0  0  0  0  0  0  0  0  0  0  0  0
  -25.5140  -15.3410   20.2620 N   0  0  0  0  0  0  0  0  0  0  0  0
  -24.7680  -15.9930   20.4840 H   0  0  0  0  0  0  0  0  0  0  0  0
  -26.3320  -15.7920   19.8720 H   0  0  0  0  0  0  0  0  0  0  0  0
  -28.3950  -22.6680   20.0440 O   0  0  0  0  0  0  0  0  0  0  0  0
  -29.0660  -23.9460   19.7700 C   0  0  0  0  0  2  0  0  0  0  0  0
  -28.0150  -25.1070   19.4800 C   0  0  0  0  0  2  0  0  0  0  0  0
  -28.2770  -26.5560   19.6810 O   0  0  0  0  0  0  0  0  0  0  0  0
  -24.5240  -31.7040   23.0990 C   0  0  0  0  0  0  0  0  0  0  0  0
  -27.1520  -27.4050   19.6990 C   0  0  0  0  0  0  0  0  0  0  0  0
  -23.3070  -30.3790   21.4110 C   0  0  0  0  0  3  0  0  0  0  0  0
  -24.7540  -28.9630   19.8530 C   0  0  0  0  0  0  0  0  0  0  0  0
  -25.8360  -30.7700   21.1810 C   0  0  0  0  0  2  0  0  0  0  0  0
  -25.9300  -29.4390   20.4480 C   0  0  0  0  0  0  0  0  0  0  0  0
  -27.1320  -28.6710   20.3630 C   0  0  0  0  0  3  0  0  0  0  0  0
  -25.9480  -26.9960   19.0770 C   0  0  0  0  0  3  0  0  0  0  0  0
  -24.7660  -27.7480   19.1600 C   0  0  0  0  0  3  0  0  0  0  0  0
  -23.4980  -29.7960   19.9880 C   0  0  0  0  0  2  0  0  0  0  0  0
  -24.5760  -30.9650   21.9540 N   0  0  0  0  0  0  0  0  0  0  0  0
  -23.4500  -31.9200   23.6800 O   0  0  0  0  0  0  0  0  0  0  0  0
  -22.6980  -29.2860   22.3230 C   0  0  0  0  0  0  0  0  0  0  0  0
  -21.3790  -29.0580   22.1980 N   0  0  0  0  0  0  0  0  0  0  0  0
  -23.4100  -28.6510   23.1060 O   0  0  0  0  0  0  0  0  0  0  0  0
  -20.8630  -29.6260   21.5410 H   0  0  0  0  0  0  0  0  0  0  0  0
  -18.0620  -27.6870   22.6460 C   0  0  0  0  0  0  0  0  0  0  0  0
  -20.6070  -28.0500   22.9260 C   0  0  0  0  0  3  0  0  0  0  0  0
  -20.7720  -26.6500   22.2870 C   0  0  0  0  0  2  0  0  0  0  0  0
  -19.6830  -26.3230   21.2620 C   0  0  0  0  0  2  0  0  0  0  0  0
  -18.2960  -26.3790   21.9110 C   0  0  0  0  0  2  0  0  0  0  0  0
  -19.1460  -28.4800   23.1080 C   0  0  0  0  0  0  0  0  0  0  0  0
  -18.8730  -29.7060   23.7540 C   0  0  0  0  0  3  0  0  0  0  0  0
  -17.5470  -30.1380   23.9470 C   0  0  0  0  0  3  0  0  0  0  0  0
  -16.4770  -29.3420   23.5030 C   0  0  0  0  0  3  0  0  0  0  0  0
  -16.7350  -28.1200   22.8560 C   0  0  0  0  0  3  0  0  0  0  0  0
  -25.8080  -32.3310   23.7240 C   0  0  0  0  0  3  0  0  0  0  0  0
  -26.3620  -31.5150   24.9550 C   0  0  1  0  0  0  0  0  0  0  0  0
  -25.2930  -31.2130   26.0320 C   0  0  0  0  0  1  0  0  0  0  0  0
  -26.9640  -30.1660   24.4940 C   0  0  0  0  0  1  0  0  0  0  0  0
  -27.5100  -32.3020   25.6310 C   0  0  0  0  0  1  0  0  0  0  0  0
  -25.4830  -33.7080   24.1210 N   0  0  0  0  0  0  0  0  0  0  0  0
  -25.7550  -34.7970   23.3900 C   0  0  0  0  0  0  0  0  0  0  0  0
  -26.3800  -34.7510   22.3280 O   0  0  0  0  0  0  0  0  0  0  0  0
  -24.9310  -33.8190   24.9600 H   0  0  0  0  0  0  0  0  0  0  0  0
  -23.9600  -36.5500   23.2020 C   0  0  0  0  0  1  0  0  0  0  0  0
  -25.2590  -36.1550   23.9240 C   0  0  0  0  0  3  0  0  0  0  0  0
  -27.4100  -37.0800   24.6650 C   0  0  0  0  0  1  0  0  0  0  0  0
  -26.2530  -37.2420   23.7880 N   0  0  0  0  0  0  0  0  0  0  0  0
  -25.8290  -38.1430   23.9890 H   0  0  0  0  0  0  0  0  0  0  0  0
  1  5  1  0
  2  4  1  0
  3  1  2  0
  4 50  1  0
  4  5  2  0
  5  7  1  0
  6  2  2  0
  6  3  1  0
  8  6  1  0
  9 21  1  0
 10 15  1  0
 11 12  1  0
 11 10  1  0
 13 12  1  0
 13 25  1  0
 13 14  1  0
 15  9  1  0
 15 14  1  0
 16  9  2  0
 18 17  1  0
 19 17  1  0
 20  3  1  0
 20 21  1  0
 20 18  1  0
 21 19  1  0
 22 23  2  0
 23 42  1  0
 24 23  1  0
 24 27  1  0
 25 26  1  0
 25 22  1  0
 26 24  2  0
 27 28  1  0
 28 29  2  0
 30 33  1  0
 30 29  1  0
 31 30  2  0
 32 31  1  0
 32 27  2  0
 33 34  1  0
 34 39  2  0
 34 35  1  0
 35 36  2  0
 36 37  1  0
 37 41  1  0
 38 37  2  0
 39 38  1  0
 40 39  1  0
 42 43  1  0
 43 46  1  0
 43 45  1  0
 44 42  2  0
 47 22  1  0
 47 48  1  0
 49 47  1  0
 51 50  1  0
 52 53  1  0
 52 51  1  0
 53 55  1  0
 54 65  2  0
 55 60  1  0
 56 64  1  0
 56 66  1  0
 57 63  1  0
 57 59  1  0
 58 64  1  0
 59 58  1  0
 60 59  2  0
 61 62  1  0
 61 55  2  0
 62 57  2  0
 63 56  1  0
 64 54  1  0
 66 68  2  0
 67 66  1  0
 69 67  1  0
 70 79  2  0
 70 75  1  0
 71 67  1  0
 71 75  1  0
 72 71  1  0
 73 74  1  0
 73 72  1  0
 74 70  1  0
 75 76  2  0
 76 77  1  0
 78 77  2  0
 79 78  1  0
 80 54  1  0
 80 85  1  0
 80 81  1  0
 81 84  1  1
 81 82  1  0
 83 81  1  0
 85 88  1  0
 86 90  1  0
 86 85  1  0
 87 86  2  0
 90 89  1  0
 92 90  1  0
 92 93  1  0
 92 91  1  0
M  ISO  4   9 100  21 100  52 101  53 101
M  END
>  <TORSDO>  (40) 
F 19

>  <SCORE>  (40) 
-12.787

>  <name>  (40) 
39

>  <ligand_id>  (40) 
39

>  <original_smiles>  (40) 
[H]c1c([H])c([H])c2c(c1[H])C([H])([H])C([H])([H])C([H])([H])C2([H])N([H])C(=O)C1([H])N(C(=O)C([H])(N([H])C(=O)C([H])(N([H])C([H])([H])[H])C([H])([H])[H])C(C([H])([H])[H])(C([H])([H])[H])C([H])([H])[H])C([H])([H])c2c([H])c(OC([H])([H])C([H])([H])Oc3c([H])c(F)c(C4([H])N(C(=O)N5C([H])([H])C([H])([H])C([H])([H])C([H])(n6nc(-c7c([H])c([H])c(Oc8c([H])c([H])c(F)c([H])c8F)c([H])c7[H])c(C(=O)N([H])[H])c6N([H])[H])C5([H])[H])C([H])([H])C([H])([H])C4([H])[H])c([H])c3F)c([H])c([H])c2C1([H])[H]

>  <smiles>  (40) 
[H]c1c([H])c([H])c2c(c1[H])C([H])([H])C([H])([H])C([H])([H])C2([H])N([H])C(=O)C1([H])N(C(=O)C([H])(N([H])C(=O)C([H])(N([H])C([H])([H])[H])C([H])([H])[H])C(C([H])([H])[H])(C([H])([H])[H])C([H])([H])[H])C([H])([H])c2c([H])c(OC([H])([H])C([H])([H])Oc3c([H])c(F)c(C4([H])N(C(=O)N5C([H])([H])C([H])([H])C([H])([H])C([H])(n6nc(-c7c([H])c([H])c(Oc8c([H])c([H])c(F)c([H])c8F)c([H])c7[H])c(C(=O)N([H])[H])c6N([H])[H])C5([H])[H])C([H])([H])C([H])([H])C4([H])[H])c([H])c3F)c([H])c([H])c2C1([H])[H]

$$$$
40:0:0
     RDKit          3D

 93102  0  0  1  0  0  0  0  0999 V2000
  -29.7120  -18.7190   22.4090 C   0  0  0  0  0  3  0  0  0  0  0  0
  -29.6390  -20.0330   21.9150 C   0  0  0  0  0  3  0  0  0  0  0  0
  -31.2860  -19.6850   18.5930 C   0  0  0  0  0  3  0  0  0  0  0  0
  -30.3010  -17.7050   21.6330 C   0  0  0  0  0  3  0  0  0  0  0  0
  -31.2030  -21.0120   18.1260 C   0  0  0  0  0  3  0  0  0  0  0  0
  -30.0830  -21.6780   20.1700 C   0  0  0  0  0  3  0  0  0  0  0  0
  -30.1610  -20.3450   20.6440 C   0  0  0  0  0  0  0  0  0  0  0  0
  -30.7610  -19.3250   19.8550 C   0  0  0  0  0  0  0  0  0  0  0  0
  -30.8260  -17.9870   20.3500 C   0  0  0  0  0  0  0  0  0  0  0  0
  -30.6060  -22.0230   18.9010 C   0  0  0  0  0  0  0  0  0  0  0  0
  -31.4890  -16.8710   19.5330 C   0  0  0  0  0  2  0  0  0  0  0  0
  -31.8450  -14.4320   19.4300 C   0  0  0  0  0  0  0  0  0  0  0  0
  -31.2960  -12.2630   18.4120 C   0  0  0  0  0  2  0  0  0  0  0  0
  -30.1930  -12.4880   17.3560 C   0  0  0  0  0  2  0  0  0  0  0  0
  -28.7970  -12.4200   18.0050 C   0  0  0  0  0  2  0  0  0  0  0  0
  -28.6880  -13.3080   19.2730 C   0  0  0  0  0  3  0  0  0  0  0  0
  -29.8830  -13.0660   20.2230 C   0  0  0  0  0  2  0  0  0  0  0  0
  -31.1240  -13.2820   19.4580 N   0  0  0  0  0  0  0  0  0  0  0  0
  -32.8890  -14.5630   18.7850 O   0  0  0  0  0  0  0  0  0  0  0  0
  -31.2300  -15.4950   19.9690 N   0  0  0  0  0  0  0  0  0  0  0  0
  -30.3680  -15.3140   20.4580 H   0  0  0  0  0  0  0  0  0  0  0  0
  -26.5510  -14.0480   20.5040 C   0  0  0  0  0  0  0  0  0  0  0  0
  -25.4670  -13.3450   20.9530 C   0  0  0  0  0  0  0  0  0  0  0  0
  -25.7270  -11.9760   20.6420 C   0  0  0  0  0  0  0  0  0  0  0  0
  -27.4110  -13.1100   19.9560 N   0  0  0  0  0  0  0  0  0  0  0  0
  -26.9280  -11.8480   20.0930 N   0  0  0  0  0  0  0  0  0  0  0  0
  -24.8820  -10.7840   20.7840 C   0  0  0  0  0  0  0  0  0  0  0  0
  -25.2200   -9.7440   21.6780 C   0  0  0  0  0  3  0  0  0  0  0  0
  -24.3810   -8.6150   21.8120 C   0  0  0  0  0  3  0  0  0  0  0  0
  -23.1920   -8.5210   21.0510 C   0  0  0  0  0  0  0  0  0  0  0  0
  -22.8740   -9.5490   20.1450 C   0  0  0  0  0  3  0  0  0  0  0  0
  -23.7120  -10.6690   20.0100 C   0  0  0  0  0  3  0  0  0  0  0  0
  -22.3310   -7.4510   21.0940 O   0  0  0  0  0  0  0  0  0  0  0  0
  -21.9610   -6.8730   22.2830 C   0  0  0  0  0  0  0  0  0  0  0  0
  -21.2830   -7.6010   23.2850 C   0  0  0  0  0  3  0  0  0  0  0  0
  -20.8550   -6.9510   24.4600 C   0  0  0  0  0  3  0  0  0  0  0  0
  -21.0970   -5.5740   24.6310 C   0  0  0  0  0  0  0  0  0  0  0  0
  -21.7680   -4.8480   23.6320 C   0  0  0  0  0  3  0  0  0  0  0  0
  -22.1960   -5.4950   22.4600 C   0  0  0  0  0  0  0  0  0  0  0  0
  -22.8210   -4.7850   21.4910 F   0  0  0  0  0  0  0  0  0  0  0  0
  -20.6820   -4.9480   25.7560 F   0  0  0  0  0  0  0  0  0  0  0  0
  -24.2140  -13.9160   21.5520 C   0  0  0  0  0  0  0  0  0  0  0  0
  -23.5840  -13.1860   22.4650 N   0  0  0  0  0  0  0  0  0  0  0  0
  -23.8130  -15.0390   21.2470 O   0  0  0  0  0  0  0  0  0  0  0  0
  -23.9250  -12.2740   22.7300 H   0  0  0  0  0  0  0  0  0  0  0  0
  -22.7480  -13.5460   22.9050 H   0  0  0  0  0  0  0  0  0  0  0  0
  -26.8690  -15.4040   20.5020 N   0  0  0  0  0  0  0  0  0  0  0  0
  -26.2380  -16.1080   20.8700 H   0  0  0  0  0  0  0  0  0  0  0  0
  -27.7190  -15.7990   20.1190 H   0  0  0  0  0  0  0  0  0  0  0  0
  -30.5780  -23.2830   18.3430 O   0  0  0  0  0  0  0  0  0  0  0  0
  -29.9690  -24.3660   19.0460 C   0  0  0  0  0  2  0  0  0  0  0  0
  -30.0850  -25.6130   18.1430 C   0  0  0  0  0  2  0  0  0  0  0  0
  -29.7700  -26.8360   18.8120 O   0  0  0  0  0  0  0  0  0  0  0  0
  -25.2310  -30.3830   22.9510 C   0  0  0  0  0  0  0  0  0  0  0  0
  -28.4590  -27.2380   18.9670 C   0  0  0  0  0  0  0  0  0  0  0  0
  -24.2020  -29.1140   21.0930 C   0  0  0  0  0  3  0  0  0  0  0  0
  -25.8200  -28.1940   19.3500 C   0  0  0  0  0  0  0  0  0  0  0  0
  -26.5940  -29.9990   20.9010 C   0  0  0  0  0  2  0  0  0  0  0  0
  -26.8910  -28.8180   20.0000 C   0  0  0  0  0  0  0  0  0  0  0  0
  -28.2060  -28.3430   19.8120 C   0  0  0  0  0  3  0  0  0  0  0  0
  -27.3620  -26.6090   18.3300 C   0  0  0  0  0  3  0  0  0  0  0  0
  -26.0490  -27.0820   18.5190 C   0  0  0  0  0  3  0  0  0  0  0  0
  -24.4430  -28.7660   19.6010 C   0  0  0  0  0  2  0  0  0  0  0  0
  -25.3610  -29.8380   21.7090 N   0  0  0  0  0  0  0  0  0  0  0  0
  -24.1560  -30.3280   23.5660 O   0  0  0  0  0  0  0  0  0  0  0  0
  -23.8210  -27.8200   21.8460 C   0  0  0  0  0  0  0  0  0  0  0  0
  -22.5780  -27.3540   21.6420 N   0  0  0  0  0  0  0  0  0  0  0  0
  -24.6390  -27.2420   22.5660 O   0  0  0  0  0  0  0  0  0  0  0  0
  -21.9630  -27.8860   21.0420 H   0  0  0  0  0  0  0  0  0  0  0  0
  -19.6280  -25.2720   21.7210 C   0  0  0  0  0  0  0  0  0  0  0  0
  -22.0150  -26.1300   22.2110 C   0  0  0  0  0  3  0  0  0  0  0  0
  -22.5110  -24.8800   21.4470 C   0  0  0  0  0  2  0  0  0  0  0  0
  -21.5660  -24.4440   20.3230 C   0  0  0  0  0  2  0  0  0  0  0  0
  -20.1750  -24.1300   20.8800 C   0  0  0  0  0  2  0  0  0  0  0  0
  -20.4890  -26.2190   22.3330 C   0  0  0  0  0  0  0  0  0  0  0  0
  -19.9270  -27.2770   23.0780 C   0  0  0  0  0  3  0  0  0  0  0  0
  -18.5320  -27.3980   23.2170 C   0  0  0  0  0  3  0  0  0  0  0  0
  -17.6840  -26.4500   22.6210 C   0  0  0  0  0  3  0  0  0  0  0  0
  -18.2320  -25.3890   21.8790 C   0  0  0  0  0  3  0  0  0  0  0  0
  -26.4150  -31.1250   23.6480 C   0  0  0  0  0  3  0  0  0  0  0  0
  -27.0680  -30.2900   24.8170 C   0  0  1  0  0  0  0  0  0  0  0  0
  -26.0450  -29.7650   25.8520 C   0  0  0  0  0  1  0  0  0  0  0  0
  -27.8380  -29.0720   24.2550 C   0  0  0  0  0  1  0  0  0  0  0  0
  -28.1050  -31.1600   25.5670 C   0  0  0  0  0  1  0  0  0  0  0  0
  -25.9010  -32.4060   24.1480 N   0  0  0  0  0  0  0  0  0  0  0  0
  -26.0950  -33.5890   23.5490 C   0  0  0  0  0  0  0  0  0  0  0  0
  -26.7960  -33.7230   22.5410 O   0  0  0  0  0  0  0  0  0  0  0  0
  -25.2750  -32.3650   24.9380 H   0  0  0  0  0  0  0  0  0  0  0  0
  -24.1360  -35.1520   23.3570 C   0  0  0  0  0  1  0  0  0  0  0  0
  -25.4010  -34.8180   24.1640 C   0  0  0  0  0  3  0  0  0  0  0  0
  -27.3520  -35.8740   25.2150 C   0  0  0  0  0  1  0  0  0  0  0  0
  -26.2730  -36.0100   24.2400 N   0  0  0  0  0  0  0  0  0  0  0  0
  -25.7330  -36.8360   24.4800 H   0  0  0  0  0  0  0  0  0  0  0  0
  2  1  1  0
  3  8  1  0
  4  1  2  0
  5  3  2  0
  5 10  1  0
  6  7  1  0
  7  2  2  0
  8  9  2  0
  8  7  1  0
  9  4  1  0
 10  6  2  0
 11 20  1  0
 11  9  1  0
 12 18  1  0
 12 20  1  0
 13 18  1  0
 14 15  1  0
 14 13  1  0
 16 15  1  0
 16 25  1  0
 16 17  1  0
 18 17  1  0
 19 12  2  0
 20 21  1  0
 22 23  2  0
 23 42  1  0
 24 27  1  0
 24 23  1  0
 25 26  1  0
 25 22  1  0
 26 24  2  0
 27 28  1  0
 28 29  2  0
 30 33  1  0
 30 29  1  0
 31 30  2  0
 32 31  1  0
 32 27  2  0
 33 34  1  0
 34 39  2  0
 34 35  1  0
 35 36  2  0
 36 37  1  0
 37 41  1  0
 38 37  2  0
 39 38  1  0
 40 39  1  0
 42 43  1  0
 43 45  1  0
 43 46  1  0
 44 42  2  0
 47 22  1  0
 47 48  1  0
 49 47  1  0
 50 10  1  0
 50 51  1  0
 52 53  1  0
 52 51  1  0
 53 55  1  0
 54 65  2  0
 55 60  1  0
 56 64  1  0
 56 66  1  0
 57 63  1  0
 57 59  1  0
 58 64  1  0
 59 58  1  0
 60 59  2  0
 61 62  1  0
 61 55  2  0
 62 57  2  0
 63 56  1  0
 64 54  1  0
 66 68  2  0
 67 66  1  0
 69 67  1  0
 70 79  2  0
 70 75  1  0
 71 67  1  0
 71 75  1  0
 72 71  1  0
 73 74  1  0
 73 72  1  0
 74 70  1  0
 75 76  2  0
 76 77  1  0
 78 77  2  0
 79 78  1  0
 80 54  1  0
 80 85  1  0
 80 81  1  0
 81 84  1  1
 81 82  1  0
 83 81  1  0
 85 88  1  0
 86 85  1  0
 86 90  1  0
 87 86  2  0
 90 89  1  0
 90 92  1  0
 92 93  1  0
 92 91  1  0
M  ISO  4  12 100  20 100  52 101  53 101
M  END
>  <TORSDO>  (41) 
F 20

>  <SCORE>  (41) 
-6.451

>  <name>  (41) 
40

>  <ligand_id>  (41) 
40

>  <original_smiles>  (41) 
[H]c1c([H])c([H])c2c(c1[H])C([H])([H])C([H])([H])C([H])([H])C2([H])N([H])C(=O)C1([H])N(C(=O)C([H])(N([H])C(=O)C([H])(N([H])C([H])([H])[H])C([H])([H])[H])C(C([H])([H])[H])(C([H])([H])[H])C([H])([H])[H])C([H])([H])c2c([H])c(OC([H])([H])C([H])([H])Oc3c([H])c([H])c4c(C([H])([H])N([H])C(=O)N5C([H])([H])C([H])([H])C([H])([H])C([H])(n6nc(-c7c([H])c([H])c(Oc8c([H])c([H])c(F)c([H])c8F)c([H])c7[H])c(C(=O)N([H])[H])c6N([H])[H])C5([H])[H])c([H])c([H])c([H])c4c3[H])c([H])c([H])c2C1([H])[H]

>  <smiles>  (41) 
[H]c1c([H])c([H])c2c(c1[H])C([H])([H])C([H])([H])C([H])([H])C2([H])N([H])C(=O)C1([H])N(C(=O)C([H])(N([H])C(=O)C([H])(N([H])C([H])([H])[H])C([H])([H])[H])C(C([H])([H])[H])(C([H])([H])[H])C([H])([H])[H])C([H])([H])c2c([H])c(OC([H])([H])C([H])([H])Oc3c([H])c([H])c4c(C([H])([H])N([H])C(=O)N5C([H])([H])C([H])([H])C([H])([H])C([H])(n6nc(-c7c([H])c([H])c(Oc8c([H])c([H])c(F)c([H])c8F)c([H])c7[H])c(C(=O)N([H])[H])c6N([H])[H])C5([H])[H])c([H])c([H])c([H])c4c3[H])c([H])c([H])c2C1([H])[H]

$$$$
41:0:0
     RDKit          3D

 91100  0  0  1  0  0  0  0  0999 V2000
  -29.2050  -24.4170   21.7210 C   0  0  0  0  0  2  0  0  0  0  0  0
  -29.2820  -22.8660   21.9110 C   0  0  0  0  0  2  0  0  0  0  0  0
  -28.3910  -23.3450   19.7840 C   0  0  0  0  0  2  0  0  0  0  0  0
  -28.1520  -24.7430   20.6430 C   0  0  0  0  0  3  0  0  0  0  0  0
  -29.0020  -22.2120   20.6290 N   0  0  0  0  0  0  0  0  0  0  0  0
  -30.2590  -19.9940   21.1420 C   0  0  0  0  0  3  0  0  0  0  0  0
  -30.4600  -18.5490   21.0980 C   0  0  0  0  0  3  0  0  0  0  0  0
  -28.3690  -19.8120   19.7630 C   0  0  0  0  0  3  0  0  0  0  0  0
  -29.2010  -20.7310   20.4880 C   0  0  0  0  0  0  0  0  0  0  0  0
  -29.5960  -17.6370   20.4060 C   0  0  0  0  0  0  0  0  0  0  0  0
  -28.5380  -18.3620   19.7470 C   0  0  0  0  0  0  0  0  0  0  0  0
  -27.6120  -17.6270   19.0850 F   0  0  0  0  0  0  0  0  0  0  0  0
  -30.4690  -14.9960   20.3510 C   0  0  0  0  0  0  0  0  0  0  0  0
  -30.4100  -12.6450   19.3920 C   0  0  0  0  0  2  0  0  0  0  0  0
  -29.4690  -12.5940   18.1640 C   0  0  0  0  0  2  0  0  0  0  0  0
  -28.0060  -12.3710   18.5980 C   0  0  0  0  0  2  0  0  0  0  0  0
  -27.5930  -13.2920   19.7760 C   0  0  0  0  0  3  0  0  0  0  0  0
  -28.6470  -13.2890   20.9030 C   0  0  0  0  0  2  0  0  0  0  0  0
  -29.9180  -13.7170   20.3000 N   0  0  0  0  0  0  0  0  0  0  0  0
  -31.6730  -15.1150   20.0920 O   0  0  0  0  0  0  0  0  0  0  0  0
  -29.5860  -16.1010   20.4670 N   0  0  0  0  0  0  0  0  0  0  0  0
  -28.6400  -15.7530   20.4890 H   0  0  0  0  0  0  0  0  0  0  0  0
  -25.2090  -13.8650   20.5130 C   0  0  0  0  0  0  0  0  0  0  0  0
  -24.1460  -13.0850   20.8780 C   0  0  0  0  0  0  0  0  0  0  0  0
  -24.6150  -11.7350   20.8430 C   0  0  0  0  0  0  0  0  0  0  0  0
  -26.2540  -12.9900   20.2690 N   0  0  0  0  0  0  0  0  0  0  0  0
  -25.9060  -11.7050   20.5350 N   0  0  0  0  0  0  0  0  0  0  0  0
  -23.8920  -10.4700   21.0270 C   0  0  0  0  0  0  0  0  0  0  0  0
  -24.3130   -9.5080   21.9710 C   0  0  0  0  0  3  0  0  0  0  0  0
  -23.5890   -8.3090   22.1420 C   0  0  0  0  0  3  0  0  0  0  0  0
  -22.4300   -8.0620   21.3690 C   0  0  0  0  0  0  0  0  0  0  0  0
  -22.0290   -9.0130   20.4130 C   0  0  0  0  0  3  0  0  0  0  0  0
  -22.7530  -10.2030   20.2400 C   0  0  0  0  0  3  0  0  0  0  0  0
  -21.6790   -6.9150   21.4480 O   0  0  0  0  0  0  0  0  0  0  0  0
  -21.6000   -6.1860   22.6080 C   0  0  0  0  0  0  0  0  0  0  0  0
  -21.1170   -6.7480   23.8110 C   0  0  0  0  0  3  0  0  0  0  0  0
  -20.9880   -5.9440   24.9600 C   0  0  0  0  0  3  0  0  0  0  0  0
  -21.3290   -4.5800   24.9090 C   0  0  0  0  0  0  0  0  0  0  0  0
  -21.8050   -4.0170   23.7110 C   0  0  0  0  0  3  0  0  0  0  0  0
  -21.9360   -4.8180   22.5630 C   0  0  0  0  0  0  0  0  0  0  0  0
  -22.3740   -4.2660   21.4060 F   0  0  0  0  0  0  0  0  0  0  0  0
  -21.1980   -3.8060   26.0110 F   0  0  0  0  0  0  0  0  0  0  0  0
  -22.7460  -13.5560   21.1450 C   0  0  0  0  0  0  0  0  0  0  0  0
  -22.0150  -12.8540   22.0020 N   0  0  0  0  0  0  0  0  0  0  0  0
  -22.3080  -14.5840   20.6290 O   0  0  0  0  0  0  0  0  0  0  0  0
  -22.3810  -12.0210   22.4410 H   0  0  0  0  0  0  0  0  0  0  0  0
  -21.0750  -13.1510   22.2240 H   0  0  0  0  0  0  0  0  0  0  0  0
  -25.3640  -15.2380   20.3410 N   0  0  0  0  0  0  0  0  0  0  0  0
  -24.5860  -15.8770   20.4650 H   0  0  0  0  0  0  0  0  0  0  0  0
  -26.1810  -15.6920   19.9530 H   0  0  0  0  0  0  0  0  0  0  0  0
  -28.2810  -26.2390   20.2200 O   0  0  0  0  0  0  0  0  0  0  0  0
  -24.6120  -31.8920   23.2410 C   0  0  0  0  0  0  0  0  0  0  0  0
  -27.1940  -27.1820   20.2270 C   0  0  0  0  0  0  0  0  0  0  0  0
  -23.4100  -30.4920   21.6040 C   0  0  0  0  0  3  0  0  0  0  0  0
  -24.8560  -28.9070   20.1890 C   0  0  0  0  0  0  0  0  0  0  0  0
  -25.9600  -30.7650   21.4290 C   0  0  0  0  0  2  0  0  0  0  0  0
  -26.0360  -29.3680   20.7870 C   0  0  0  0  0  0  0  0  0  0  0  0
  -27.2090  -28.5240   20.7820 C   0  0  0  0  0  3  0  0  0  0  0  0
  -25.9860  -26.8080   19.6040 C   0  0  0  0  0  3  0  0  0  0  0  0
  -24.8430  -27.6410   19.5820 C   0  0  0  0  0  3  0  0  0  0  0  0
  -23.6290  -29.8040   20.2290 C   0  0  0  0  0  2  0  0  0  0  0  0
  -24.6820  -31.0710   22.1480 N   0  0  0  0  0  0  0  0  0  0  0  0
  -23.5260  -32.1740   23.7700 O   0  0  0  0  0  0  0  0  0  0  0  0
  -22.7320  -29.4890   22.5720 C   0  0  0  0  0  0  0  0  0  0  0  0
  -21.4050  -29.3160   22.4440 N   0  0  0  0  0  0  0  0  0  0  0  0
  -23.4040  -28.8670   23.3990 O   0  0  0  0  0  0  0  0  0  0  0  0
  -20.9180  -29.8710   21.7540 H   0  0  0  0  0  0  0  0  0  0  0  0
  -18.0250  -28.1110   22.9460 C   0  0  0  0  0  0  0  0  0  0  0  0
  -20.5820  -28.3800   23.2170 C   0  0  0  0  0  3  0  0  0  0  0  0
  -20.6880  -26.9450   22.6490 C   0  0  0  0  0  2  0  0  0  0  0  0
  -19.5880  -26.6170   21.6340 C   0  0  0  0  0  2  0  0  0  0  0  0
  -18.2060  -26.7620   22.2740 C   0  0  0  0  0  2  0  0  0  0  0  0
  -19.1410  -28.8780   23.3750 C   0  0  0  0  0  0  0  0  0  0  0  0
  -18.9170  -30.1420   23.9650 C   0  0  0  0  0  3  0  0  0  0  0  0
  -17.6100  -30.6380   24.1290 C   0  0  0  0  0  3  0  0  0  0  0  0
  -16.5090  -29.8690   23.7150 C   0  0  0  0  0  3  0  0  0  0  0  0
  -16.7170  -28.6080   23.1300 C   0  0  0  0  0  3  0  0  0  0  0  0
  -25.8910  -32.5290   23.8660 C   0  0  0  0  0  3  0  0  0  0  0  0
  -25.5810  -33.9290   24.1950 N   0  0  0  0  0  0  0  0  0  0  0  0
  -25.9110  -34.9840   23.4370 C   0  0  0  0  0  0  0  0  0  0  0  0
  -26.5750  -34.8790   22.4020 O   0  0  0  0  0  0  0  0  0  0  0  0
  -24.9910  -34.0840   25.0000 H   0  0  0  0  0  0  0  0  0  0  0  0
  -24.1820  -36.7800   23.0960 C   0  0  0  0  0  1  0  0  0  0  0  0
  -25.4290  -36.3740   23.8980 C   0  0  0  0  0  3  0  0  0  0  0  0
  -27.5700  -37.2570   24.7130 C   0  0  0  0  0  1  0  0  0  0  0  0
  -26.4620  -37.4260   23.7780 N   0  0  0  0  0  0  0  0  0  0  0  0
  -26.0570  -38.3460   23.9310 H   0  0  0  0  0  0  0  0  0  0  0  0
  -26.3990  -31.7640   25.1500 C   0  0  1  0  0  0  0  0  0  0  0  0
  -25.3020  -31.5380   26.2170 C   0  0  0  0  0  1  0  0  0  0  0  0
  -26.9790  -30.3820   24.7710 C   0  0  0  0  0  1  0  0  0  0  0  0
  -27.5500  -32.5580   25.8120 C   0  0  0  0  0  1  0  0  0  0  0  0
  1  2  1  0
  3  5  1  0
  3  4  1  0
  4 51  1  0
  4  1  1  0
  5  2  1  0
  7  6  1  0
  8  9  1  0
  9  5  1  0
  9  6  2  0
 10 21  1  0
 10  7  2  0
 11  8  2  0
 11 10  1  0
 12 11  1  0
 13 21  1  0
 14 19  1  0
 15 16  1  0
 15 14  1  0
 17 16  1  0
 17 26  1  0
 17 18  1  0
 19 13  1  0
 19 18  1  0
 20 13  2  0
 21 22  1  0
 23 24  2  0
 24 43  1  0
 25 24  1  0
 25 28  1  0
 26 23  1  0
 26 27  1  0
 27 25  2  0
 28 29  1  0
 29 30  2  0
 31 34  1  0
 31 30  1  0
 32 31  2  0
 33 32  1  0
 33 28  2  0
 34 35  1  0
 35 36  1  0
 36 37  2  0
 38 37  1  0
 38 42  1  0
 39 38  2  0
 40 35  2  0
 40 39  1  0
 41 40  1  0
 43 44  1  0
 44 47  1  0
 44 46  1  0
 45 43  2  0
 48 49  1  0
 48 23  1  0
 50 48  1  0
 51 53  1  0
 52 63  2  0
 53 58  1  0
 54 62  1  0
 54 64  1  0
 55 61  1  0
 55 57  1  0
 56 62  1  0
 57 56  1  0
 58 57  2  0
 59 53  2  0
 60 59  1  0
 60 55  2  0
 61 54  1  0
 62 52  1  0
 64 66  2  0
 65 64  1  0
 67 65  1  0
 68 77  2  0
 68 73  1  0
 69 65  1  0
 69 73  1  0
 70 69  1  0
 71 72  1  0
 71 70  1  0
 72 68  1  0
 73 74  2  0
 74 75  1  0
 76 75  2  0
 77 76  1  0
 78 52  1  0
 78 79  1  0
 78 88  1  0
 79 82  1  0
 80 84  1  0
 80 79  1  0
 81 80  2  0
 84 83  1  0
 86 84  1  0
 86 87  1  0
 86 85  1  0
 88 91  1  1
 88 89  1  0
 90 88  1  0
M  ISO  4   4 101  13 100  21 100  51 101
M  END
>  <TORSDO>  (42) 
F 17

>  <SCORE>  (42) 
-15.443

>  <name>  (42) 
41

>  <ligand_id>  (42) 
41

>  <original_smiles>  (42) 
[H]c1c([H])c([H])c2c(c1[H])C([H])([H])C([H])([H])C([H])([H])C2([H])N([H])C(=O)C1([H])N(C(=O)C([H])(N([H])C(=O)C([H])(N([H])C([H])([H])[H])C([H])([H])[H])C(C([H])([H])[H])(C([H])([H])[H])C([H])([H])[H])C([H])([H])c2c([H])c(OC3([H])C([H])([H])N(c4c([H])c([H])c(N([H])C(=O)N5C([H])([H])C([H])([H])C([H])([H])C([H])(n6nc(-c7c([H])c([H])c(Oc8c([H])c([H])c(F)c([H])c8F)c([H])c7[H])c(C(=O)N([H])[H])c6N([H])[H])C5([H])[H])c(F)c4[H])C([H])([H])C3([H])[H])c([H])c([H])c2C1([H])[H]

>  <smiles>  (42) 
[H]c1c([H])c([H])c2c(c1[H])C([H])([H])C([H])([H])C([H])([H])C2([H])N([H])C(=O)C1([H])N(C(=O)C([H])(N([H])C(=O)C([H])(N([H])C([H])([H])[H])C([H])([H])[H])C(C([H])([H])[H])(C([H])([H])[H])C([H])([H])[H])C([H])([H])c2c([H])c(OC3([H])C([H])([H])N(c4c([H])c([H])c(N([H])C(=O)N5C([H])([H])C([H])([H])C([H])([H])C([H])(n6nc(-c7c([H])c([H])c(Oc8c([H])c([H])c(F)c([H])c8F)c([H])c7[H])c(C(=O)N([H])[H])c6N([H])[H])C5([H])[H])c(F)c4[H])C([H])([H])C3([H])[H])c([H])c([H])c2C1([H])[H]

$$$$
42:0:0
     RDKit          3D

 84 89  0  0  1  0  0  0  0  0999 V2000
  -28.6050  -21.8500   20.2500 C   0  0  0  0  0  1  0  0  0  0  0  0
  -28.2870  -23.2380   20.2710 C   0  0  0  0  0  2  0  0  0  0  0  0
  -30.3240  -20.1740   21.4270 C   0  0  0  0  0  1  0  0  0  0  0  0
  -30.2400  -20.2020   18.9380 C   0  0  0  0  0  1  0  0  0  0  0  0
  -29.3910  -20.0320   20.2100 C   0  0  0  0  0  2  0  0  0  0  0  0
  -29.9930  -16.4410   20.1280 C   0  0  0  0  0  0  0  0  0  0  0  0
  -30.2850  -13.7370   19.3230 C   0  0  0  0  0  2  0  0  0  0  0  0
  -29.4710  -12.9990   18.1920 C   0  0  0  0  0  2  0  0  0  0  0  0
  -28.1280  -12.4730   18.7030 C   0  0  0  0  0  2  0  0  0  0  0  0
  -27.5220  -13.4970   19.6760 C   0  0  0  0  0  3  0  0  0  0  0  0
  -28.5130  -14.0990   20.7270 C   0  0  0  0  0  2  0  0  0  0  0  0
  -29.5420  -14.9570   20.0140 N   0  0  0  0  0  0  0  0  0  0  0  0
  -31.2370  -16.2500   20.0150 O   0  0  0  0  0  0  0  0  0  0  0  0
  -29.2690  -18.0110   20.1930 N   0  0  0  0  0  2  0  0  0  0  0  0
  -28.2810  -17.8020   20.2280 H   0  0  0  0  0  0  0  0  0  0  0  0
  -25.1760  -13.9290   20.4950 C   0  0  0  0  0  0  0  0  0  0  0  0
  -24.1390  -13.1250   20.8640 C   0  0  0  0  0  0  0  0  0  0  0  0
  -24.6340  -11.7850   20.8090 C   0  0  0  0  0  0  0  0  0  0  0  0
  -26.2370  -13.0890   20.2310 N   0  0  0  0  0  0  0  0  0  0  0  0
  -25.9260  -11.7840   20.4770 N   0  0  0  0  0  0  0  0  0  0  0  0
  -23.9230  -10.5090   20.9960 C   0  0  0  0  0  0  0  0  0  0  0  0
  -24.3560   -9.5480   21.9350 C   0  0  0  0  0  3  0  0  0  0  0  0
  -23.6360   -8.3460   22.1160 C   0  0  0  0  0  3  0  0  0  0  0  0
  -22.4670   -8.0960   21.3580 C   0  0  0  0  0  0  0  0  0  0  0  0
  -22.0520   -9.0460   20.4090 C   0  0  0  0  0  3  0  0  0  0  0  0
  -22.7730  -10.2390   20.2260 C   0  0  0  0  0  3  0  0  0  0  0  0
  -21.7210   -6.9440   21.4480 O   0  0  0  0  0  0  0  0  0  0  0  0
  -21.6510   -6.2190   22.6100 C   0  0  0  0  0  0  0  0  0  0  0  0
  -21.1590   -6.7770   23.8090 C   0  0  0  0  0  3  0  0  0  0  0  0
  -21.0390   -5.9770   24.9620 C   0  0  0  0  0  3  0  0  0  0  0  0
  -21.4020   -4.6170   24.9180 C   0  0  0  0  0  0  0  0  0  0  0  0
  -21.8860   -4.0570   23.7230 C   0  0  0  0  0  3  0  0  0  0  0  0
  -22.0070   -4.8550   22.5720 C   0  0  0  0  0  0  0  0  0  0  0  0
  -22.4540   -4.3040   21.4160 F   0  0  0  0  0  0  0  0  0  0  0  0
  -21.2800   -3.8450   26.0230 F   0  0  0  0  0  0  0  0  0  0  0  0
  -22.7380  -13.5780   21.1480 C   0  0  0  0  0  0  0  0  0  0  0  0
  -22.0310  -12.8720   22.0230 N   0  0  0  0  0  0  0  0  0  0  0  0
  -22.2810  -14.5970   20.6320 O   0  0  0  0  0  0  0  0  0  0  0  0
  -22.4170  -12.0500   22.4630 H   0  0  0  0  0  0  0  0  0  0  0  0
  -21.0920  -13.1590   22.2580 H   0  0  0  0  0  0  0  0  0  0  0  0
  -25.3040  -15.3050   20.3230 N   0  0  0  0  0  0  0  0  0  0  0  0
  -24.5230  -15.9410   20.4450 H   0  0  0  0  0  0  0  0  0  0  0  0
  -26.1410  -15.7620   19.9850 H   0  0  0  0  0  0  0  0  0  0  0  0
  -28.1540  -24.8900   20.2920 O   0  0  0  0  0  0  0  0  0  0  0  0
  -24.7320  -31.8420   23.1670 C   0  0  0  0  0  0  0  0  0  0  0  0
  -27.2150  -26.3070   20.2930 C   0  0  0  0  0  0  0  0  0  0  0  0
  -23.5590  -30.4200   21.5480 C   0  0  0  0  0  3  0  0  0  0  0  0
  -25.0050  -28.6520   20.1920 C   0  0  0  0  0  0  0  0  0  0  0  0
  -26.1560  -30.4060   21.4950 C   0  0  0  0  0  2  0  0  0  0  0  0
  -26.2050  -28.9140   20.8600 C   0  0  0  0  0  0  0  0  0  0  0  0
  -27.2650  -27.7840   20.8710 C   0  0  0  0  0  3  0  0  0  0  0  0
  -25.9840  -26.3860   19.5470 C   0  0  0  0  0  3  0  0  0  0  0  0
  -24.9620  -27.4170   19.5100 C   0  0  0  0  0  3  0  0  0  0  0  0
  -23.8240  -29.6670   20.2030 C   0  0  0  0  0  2  0  0  0  0  0  0
  -24.8460  -30.9350   22.1200 N   0  0  0  0  0  0  0  0  0  0  0  0
  -23.6300  -32.1740   23.6450 O   0  0  0  0  0  0  0  0  0  0  0  0
  -22.7900  -29.5020   22.5400 C   0  0  0  0  0  0  0  0  0  0  0  0
  -21.4510  -29.3830   22.4170 N   0  0  0  0  0  0  0  0  0  0  0  0
  -23.4190  -28.8840   23.4010 O   0  0  0  0  0  0  0  0  0  0  0  0
  -20.9860  -29.9310   21.7060 H   0  0  0  0  0  0  0  0  0  0  0  0
  -18.0410  -28.2170   22.9610 C   0  0  0  0  0  0  0  0  0  0  0  0
  -20.6070  -28.4670   23.2010 C   0  0  0  0  0  3  0  0  0  0  0  0
  -20.6880  -27.0270   22.6400 C   0  0  0  0  0  2  0  0  0  0  0  0
  -19.5790  -26.7100   21.6320 C   0  0  0  0  0  2  0  0  0  0  0  0
  -18.2020  -26.8660   22.2820 C   0  0  0  0  0  2  0  0  0  0  0  0
  -19.1690  -28.9750   23.3780 C   0  0  0  0  0  0  0  0  0  0  0  0
  -18.9570  -30.2330   23.9820 C   0  0  0  0  0  3  0  0  0  0  0  0
  -17.6560  -30.7340   24.1690 C   0  0  0  0  0  3  0  0  0  0  0  0
  -16.5440  -29.9750   23.7630 C   0  0  0  0  0  3  0  0  0  0  0  0
  -16.7380  -28.7170   23.1660 C   0  0  0  0  0  3  0  0  0  0  0  0
  -25.9750  -32.5190   23.8250 C   0  0  0  0  0  3  0  0  0  0  0  0
  -25.6390  -33.9250   24.1490 N   0  0  0  0  0  0  0  0  0  0  0  0
  -25.9600  -34.9980   23.4100 C   0  0  0  0  0  0  0  0  0  0  0  0
  -26.6130  -34.9070   22.3690 O   0  0  0  0  0  0  0  0  0  0  0  0
  -25.0510  -34.0670   24.9570 H   0  0  0  0  0  0  0  0  0  0  0  0
  -24.2150  -36.8030   23.1410 C   0  0  0  0  0  1  0  0  0  0  0  0
  -25.4890  -36.3890   23.8970 C   0  0  0  0  0  3  0  0  0  0  0  0
  -27.6440  -37.2980   24.6520 C   0  0  0  0  0  1  0  0  0  0  0  0
  -26.5110  -37.4480   23.7430 N   0  0  0  0  0  0  0  0  0  0  0  0
  -26.1040  -38.3670   23.8940 H   0  0  0  0  0  0  0  0  0  0  0  0
  -26.4500  -31.7850   25.1410 C   0  0  1  0  0  0  0  0  0  0  0  0
  -25.3260  -31.5820   26.1860 C   0  0  0  0  0  1  0  0  0  0  0  0
  -27.0390  -30.3940   24.8260 C   0  0  0  0  0  1  0  0  0  0  0  0
  -27.5850  -32.5940   25.8130 C   0  0  0  0  0  1  0  0  0  0  0  0
  1  2  1  0
  2 44  1  0
  4  5  1  0
  5  3  1  0
  6 14  1  0
  7 12  1  0
  8  9  1  0
  8  7  1  0
 10  9  1  0
 10 19  1  0
 10 11  1  0
 12  6  1  0
 12 11  1  0
 13  6  2  0
 14 15  1  0
 16 17  2  0
 17 36  1  0
 18 17  1  0
 18 21  1  0
 19 20  1  0
 19 16  1  0
 20 18  2  0
 21 22  1  0
 22 23  2  0
 24 27  1  0
 24 23  1  0
 25 24  2  0
 26 25  1  0
 26 21  2  0
 27 28  1  0
 28 29  1  0
 29 30  2  0
 31 30  1  0
 31 35  1  0
 32 31  2  0
 33 28  2  0
 33 32  1  0
 34 33  1  0
 36 37  1  0
 37 40  1  0
 37 39  1  0
 38 36  2  0
 41 42  1  0
 41 16  1  0
 43 41  1  0
 44 46  1  0
 45 56  2  0
 46 51  1  0
 47 55  1  0
 47 57  1  0
 48 54  1  0
 48 50  1  0
 49 55  1  0
 50 51  2  0
 50 49  1  0
 52 46  2  0
 53 52  1  0
 53 48  2  0
 54 47  1  0
 55 45  1  0
 57 59  2  0
 58 57  1  0
 60 58  1  0
 61 70  2  0
 61 66  1  0
 62 58  1  0
 62 66  1  0
 63 62  1  0
 64 65  1  0
 64 63  1  0
 65 61  1  0
 66 67  2  0
 67 68  1  0
 69 68  2  0
 70 69  1  0
 71 45  1  0
 71 72  1  0
 71 81  1  0
 72 75  1  0
 73 77  1  0
 73 72  1  0
 74 73  2  0
 77 76  1  0
 79 80  1  0
 79 77  1  0
 79 78  1  0
 81 84  1  1
 81 82  1  0
 83 81  1  0
M  ISO  4   2 101   6 100  14 100  44 101
M  END
>  <TORSDO>  (43) 
F 17

>  <SCORE>  (43) 
-16.456

>  <name>  (43) 
42

>  <ligand_id>  (43) 
42

>  <original_smiles>  (43) 
[H]c1c([H])c([H])c2c(c1[H])C([H])([H])C([H])([H])C([H])([H])C2([H])N([H])C(=O)C1([H])N(C(=O)C([H])(N([H])C(=O)C([H])(N([H])C([H])([H])[H])C([H])([H])[H])C(C([H])([H])[H])(C([H])([H])[H])C([H])([H])[H])C([H])([H])c2c([H])c(OC#CC(N([H])C(=O)N3C([H])([H])C([H])([H])C([H])([H])C([H])(n4nc(-c5c([H])c([H])c(Oc6c([H])c([H])c(F)c([H])c6F)c([H])c5[H])c(C(=O)N([H])[H])c4N([H])[H])C3([H])[H])(C([H])([H])[H])C([H])([H])[H])c([H])c([H])c2C1([H])[H]

>  <smiles>  (43) 
[H]c1c([H])c([H])c2c(c1[H])C([H])([H])C([H])([H])C([H])([H])C2([H])N([H])C(=O)C1([H])N(C(=O)C([H])(N([H])C(=O)C([H])(N([H])C([H])([H])[H])C([H])([H])[H])C(C([H])([H])[H])(C([H])([H])[H])C([H])([H])[H])C([H])([H])c2c([H])c(OC#CC(N([H])C(=O)N3C([H])([H])C([H])([H])C([H])([H])C([H])(n4nc(-c5c([H])c([H])c(Oc6c([H])c([H])c(F)c([H])c6F)c([H])c5[H])c(C(=O)N([H])[H])c4N([H])[H])C3([H])[H])(C([H])([H])[H])C([H])([H])[H])c([H])c([H])c2C1([H])[H]

$$$$
43:0:0
     RDKit          3D

 81 85  0  0  1  0  0  0  0  0999 V2000
  -28.1090  -24.6470   20.3000 O   0  0  0  0  0  1  0  0  0  0  0  0
  -24.7100  -31.7810   23.1610 C   0  0  0  0  0  0  0  0  0  0  0  0
  -27.2070  -26.1440   20.2640 C   0  0  0  0  0  0  0  0  0  0  0  0
  -23.5560  -30.3680   21.5220 C   0  0  0  0  0  3  0  0  0  0  0  0
  -25.0090  -28.5810   20.1690 C   0  0  0  0  0  0  0  0  0  0  0  0
  -26.1560  -30.3130   21.5020 C   0  0  0  0  0  2  0  0  0  0  0  0
  -26.2110  -28.8120   20.8490 C   0  0  0  0  0  0  0  0  0  0  0  0
  -27.2590  -27.6460   20.8460 C   0  0  0  0  0  3  0  0  0  0  0  0
  -25.9680  -26.2870   19.5230 C   0  0  0  0  0  3  0  0  0  0  0  0
  -24.9660  -27.3480   19.4800 C   0  0  0  0  0  3  0  0  0  0  0  0
  -23.8360  -29.6140   20.1780 C   0  0  0  0  0  2  0  0  0  0  0  0
  -24.8390  -30.8700   22.1140 N   0  0  0  0  0  0  0  0  0  0  0  0
  -23.6010  -32.1150   23.6230 O   0  0  0  0  0  0  0  0  0  0  0  0
  -22.7620  -29.4580   22.5040 C   0  0  0  0  0  0  0  0  0  0  0  0
  -21.4220  -29.3560   22.3730 N   0  0  0  0  0  0  0  0  0  0  0  0
  -23.3780  -28.8290   23.3670 O   0  0  0  0  0  0  0  0  0  0  0  0
  -20.9670  -29.9120   21.6630 H   0  0  0  0  0  0  0  0  0  0  0  0
  -17.9970  -28.2130   22.9010 C   0  0  0  0  0  0  0  0  0  0  0  0
  -20.5670  -28.4380   23.1430 C   0  0  0  0  0  3  0  0  0  0  0  0
  -20.6330  -27.0060   22.5600 C   0  0  0  0  0  2  0  0  0  0  0  0
  -19.5210  -26.7160   21.5460 C   0  0  0  0  0  2  0  0  0  0  0  0
  -18.1460  -26.8740   22.1990 C   0  0  0  0  0  2  0  0  0  0  0  0
  -19.1320  -28.9550   23.3290 C   0  0  0  0  0  0  0  0  0  0  0  0
  -18.9320  -30.2040   23.9560 C   0  0  0  0  0  3  0  0  0  0  0  0
  -17.6350  -30.7130   24.1530 C   0  0  0  0  0  3  0  0  0  0  0  0
  -16.5160  -29.9710   23.7350 C   0  0  0  0  0  3  0  0  0  0  0  0
  -16.6980  -28.7220   23.1160 C   0  0  0  0  0  3  0  0  0  0  0  0
  -25.9400  -32.4590   23.8420 C   0  0  0  0  0  3  0  0  0  0  0  0
  -25.5980  -33.8650   24.1720 N   0  0  0  0  0  0  0  0  0  0  0  0
  -25.9200  -34.9450   23.4450 C   0  0  0  0  0  0  0  0  0  0  0  0
  -26.5760  -34.8640   22.4040 O   0  0  0  0  0  0  0  0  0  0  0  0
  -25.0070  -33.9990   24.9800 H   0  0  0  0  0  0  0  0  0  0  0  0
  -24.1680  -36.7480   23.1980 C   0  0  0  0  0  1  0  0  0  0  0  0
  -25.4480  -36.3330   23.9420 C   0  0  0  0  0  3  0  0  0  0  0  0
  -27.6060  -37.2470   24.6880 C   0  0  0  0  0  1  0  0  0  0  0  0
  -26.4650  -37.3980   23.7880 N   0  0  0  0  0  0  0  0  0  0  0  0
  -26.0550  -38.3150   23.9480 H   0  0  0  0  0  0  0  0  0  0  0  0
  -26.3960  -31.7200   25.1620 C   0  0  1  0  0  0  0  0  0  0  0  0
  -25.2580  -31.5140   26.1910 C   0  0  0  0  0  1  0  0  0  0  0  0
  -26.9880  -30.3300   24.8490 C   0  0  0  0  0  1  0  0  0  0  0  0
  -27.5230  -32.5250   25.8520 C   0  0  0  0  0  1  0  0  0  0  0  0
  -28.1400  -22.5480   20.1630 C   0  0  0  0  0 15  0  0  0  0  0  0
  -29.1420  -20.4180   20.2160 C   0  0  0  0  0 15  0  0  0  0  0  0
  -29.9010  -16.6470   20.0860 C   0  0  0  0  0  0  0  0  0  0  0  0
  -30.2300  -13.8900   19.2940 C   0  0  0  0  0  2  0  0  0  0  0  0
  -29.4480  -13.0530   18.1990 C   0  0  0  0  0  2  0  0  0  0  0  0
  -28.1340  -12.4820   18.7300 C   0  0  0  0  0  2  0  0  0  0  0  0
  -27.5010  -13.5140   19.6750 C   0  0  0  0  0  3  0  0  0  0  0  0
  -28.4750  -14.2100   20.6950 C   0  0  0  0  0  2  0  0  0  0  0  0
  -29.4550  -15.1290   19.9600 N   0  0  0  0  0  0  0  0  0  0  0  0
  -31.1430  -16.3980   20.0040 O   0  0  0  0  0  0  0  0  0  0  0  0
  -29.2570  -18.3100   20.1340 N   0  0  0  0  0  2  0  0  0  0  0  0
  -30.2580  -18.4710   20.1320 H   0  0  0  0  0  0  0  0  0  0  0  0
  -25.1600  -13.9200   20.5080 C   0  0  0  0  0  0  0  0  0  0  0  0
  -24.1280  -13.1120   20.8810 C   0  0  0  0  0  0  0  0  0  0  0  0
  -24.6260  -11.7720   20.8220 C   0  0  0  0  0  0  0  0  0  0  0  0
  -26.2240  -13.0860   20.2420 N   0  0  0  0  0  0  0  0  0  0  0  0
  -25.9190  -11.7780   20.4820 N   0  0  0  0  0  0  0  0  0  0  0  0
  -23.9140  -10.4950   21.0120 C   0  0  0  0  0  0  0  0  0  0  0  0
  -24.3570   -9.5290   21.9420 C   0  0  0  0  0  3  0  0  0  0  0  0
  -23.6350   -8.3280   22.1300 C   0  0  0  0  0  3  0  0  0  0  0  0
  -22.4560   -8.0830   21.3870 C   0  0  0  0  0  0  0  0  0  0  0  0
  -22.0290   -9.0390   20.4470 C   0  0  0  0  0  3  0  0  0  0  0  0
  -22.7510  -10.2310   20.2590 C   0  0  0  0  0  3  0  0  0  0  0  0
  -21.7070   -6.9350   21.4820 O   0  0  0  0  0  0  0  0  0  0  0  0
  -21.6700   -6.1910   22.6350 C   0  0  0  0  0  0  0  0  0  0  0  0
  -21.2140   -6.7320   23.8560 C   0  0  0  0  0  3  0  0  0  0  0  0
  -21.1260   -5.9140   25.0000 C   0  0  0  0  0  3  0  0  0  0  0  0
  -21.4850   -4.5540   24.9250 C   0  0  0  0  0  0  0  0  0  0  0  0
  -21.9340   -4.0110   23.7070 C   0  0  0  0  0  3  0  0  0  0  0  0
  -22.0220   -4.8270   22.5660 C   0  0  0  0  0  0  0  0  0  0  0  0
  -22.4340   -4.2930   21.3900 F   0  0  0  0  0  0  0  0  0  0  0  0
  -21.3950   -3.7660   26.0220 F   0  0  0  0  0  0  0  0  0  0  0  0
  -22.7270  -13.5620   21.1730 C   0  0  0  0  0  0  0  0  0  0  0  0
  -22.0260  -12.8570   22.0520 N   0  0  0  0  0  0  0  0  0  0  0  0
  -22.2670  -14.5820   20.6590 O   0  0  0  0  0  0  0  0  0  0  0  0
  -22.4140  -12.0340   22.4890 H   0  0  0  0  0  0  0  0  0  0  0  0
  -21.0880  -13.1430   22.2910 H   0  0  0  0  0  0  0  0  0  0  0  0
  -25.2790  -15.2960   20.3350 N   0  0  0  0  0  0  0  0  0  0  0  0
  -24.4980  -15.9290   20.4650 H   0  0  0  0  0  0  0  0  0  0  0  0
  -26.1180  -15.7610   20.0090 H   0  0  0  0  0  0  0  0  0  0  0  0
  2 13  2  0
  3  1  1  0
  3  8  1  0
  4 12  1  0
  4 14  1  0
  5 11  1  0
  5  7  1  0
  6 12  1  0
  7  6  1  0
  8  7  2  0
  9  3  2  0
 10  9  1  0
 10  5  2  0
 11  4  1  0
 12  2  1  0
 14 16  2  0
 15 14  1  0
 17 15  1  0
 18 27  2  0
 18 23  1  0
 19 15  1  0
 19 23  1  0
 20 19  1  0
 21 22  1  0
 21 20  1  0
 22 18  1  0
 23 24  2  0
 24 25  1  0
 26 25  2  0
 27 26  1  0
 28  2  1  0
 28 29  1  0
 28 38  1  0
 29 32  1  0
 30 34  1  0
 30 29  1  0
 31 30  2  0
 34 33  1  0
 36 34  1  0
 36 37  1  0
 36 35  1  0
 38 41  1  1
 38 39  1  0
 40 38  1  0
 44 52  1  0
 45 50  1  0
 46 47  1  0
 46 45  1  0
 48 47  1  0
 48 57  1  0
 48 49  1  0
 50 44  1  0
 50 49  1  0
 51 44  2  0
 53 52  1  0
 54 55  2  0
 55 74  1  0
 56 55  1  0
 56 59  1  0
 57 58  1  0
 57 54  1  0
 58 56  2  0
 59 60  1  0
 60 61  2  0
 62 65  1  0
 62 61  1  0
 63 62  2  0
 64 63  1  0
 64 59  2  0
 65 66  1  0
 66 67  1  0
 67 68  2  0
 69 68  1  0
 69 73  1  0
 70 69  2  0
 71 66  2  0
 71 70  1  0
 72 71  1  0
 74 75  1  0
 75 78  1  0
 75 77  1  0
 76 74  2  0
 79 80  1  0
 79 54  1  0
 81 79  1  0
M  ISO  4   1 101  42 101  44 100  52 100
M  END
>  <TORSDO>  (44) 
F 17

>  <SCORE>  (44) 
-16.141

>  <name>  (44) 
43

>  <ligand_id>  (44) 
43

>  <original_smiles>  (44) 
[H]c1c([H])c([H])c2c(c1[H])C([H])([H])C([H])([H])C([H])([H])C2([H])N([H])C(=O)C1([H])N(C(=O)C([H])(N([H])C(=O)C([H])(N([H])C([H])([H])[H])C([H])([H])[H])C(C([H])([H])[H])(C([H])([H])[H])C([H])([H])[H])C([H])([H])c2c([H])c(OC([H])([H])C([H])([H])N([H])C(=O)N3C([H])([H])C([H])([H])C([H])([H])C([H])(n4nc(-c5c([H])c([H])c(Oc6c([H])c([H])c(F)c([H])c6F)c([H])c5[H])c(C(=O)N([H])[H])c4N([H])[H])C3([H])[H])c([H])c([H])c2C1([H])[H]

>  <smiles>  (44) 
[H]c1c([H])c([H])c2c(c1[H])C([H])([H])C([H])([H])C([H])([H])C2([H])N([H])C(=O)C1([H])N(C(=O)C([H])(N([H])C(=O)C([H])(N([H])C([H])([H])[H])C([H])([H])[H])C(C([H])([H])[H])(C([H])([H])[H])C([H])([H])[H])C([H])([H])c2c([H])c(OC([H])([H])C([H])([H])N([H])C(=O)N3C([H])([H])C([H])([H])C([H])([H])C([H])(n4nc(-c5c([H])c([H])c(Oc6c([H])c([H])c(F)c([H])c6F)c([H])c5[H])c(C(=O)N([H])[H])c4N([H])[H])C3([H])[H])c([H])c([H])c2C1([H])[H]

$$$$
44:0:0
     RDKit          3D

 89 98  0  0  1  0  0  0  0  0999 V2000
  -30.4860  -15.1280   20.3460 C   0  0  0  0  0  0  0  0  0  0  0  0
  -30.3880  -12.7430   19.4400 C   0  0  0  0  0  2  0  0  0  0  0  0
  -29.4670  -12.6120   18.2080 C   0  0  0  0  0  2  0  0  0  0  0  0
  -28.0080  -12.3710   18.6440 C   0  0  0  0  0  2  0  0  0  0  0  0
  -27.5670  -13.3170   19.7890 C   0  0  0  0  0  3  0  0  0  0  0  0
  -28.6200  -13.4280   20.9090 C   0  0  0  0  0  2  0  0  0  0  0  0
  -29.8680  -13.8710   20.2690 N   0  0  0  0  0  0  0  0  0  0  0  0
  -31.7210  -15.1150   20.2530 O   0  0  0  0  0  0  0  0  0  0  0  0
  -28.6800  -18.0160   18.7220 C   0  0  0  0  0  3  0  0  0  0  0  0
  -29.0010  -16.7530   19.1690 C   0  0  0  0  0  3  0  0  0  0  0  0
  -29.9910  -17.6830   21.1750 C   0  0  0  0  0  2  0  0  0  0  0  0
  -28.3830  -20.7440   19.2170 C   0  0  0  0  0  2  0  0  0  0  0  0
  -29.5600  -20.6330   21.2660 C   0  0  0  0  0  2  0  0  0  0  0  0
  -29.2390  -19.3770   19.2090 C   0  0  0  0  0  3  0  0  0  0  0  0
  -29.9630  -19.2260   20.5260 C   0  0  0  0  0  3  0  0  0  0  0  0
  -29.7730  -16.3960   20.3140 N   0  0  0  0  0  0  0  0  0  0  0  0
  -28.7030  -21.6150   20.4180 N   0  0  1  0  0  4  0  0  0  0  0  0
  -27.8280  -21.6160   20.9230 H   0  0  0  0  0  0  0  0  0  0  0  0
  -25.1900  -13.8840   20.5280 C   0  0  0  0  0  0  0  0  0  0  0  0
  -24.1270  -13.1030   20.8850 C   0  0  0  0  0  0  0  0  0  0  0  0
  -24.6010  -11.7550   20.8580 C   0  0  0  0  0  0  0  0  0  0  0  0
  -26.2370  -13.0090   20.2940 N   0  0  0  0  0  0  0  0  0  0  0  0
  -25.8950  -11.7240   20.5600 N   0  0  0  0  0  0  0  0  0  0  0  0
  -23.8800  -10.4880   21.0390 C   0  0  0  0  0  0  0  0  0  0  0  0
  -24.3010   -9.5270   21.9830 C   0  0  0  0  0  3  0  0  0  0  0  0
  -23.5800   -8.3260   22.1490 C   0  0  0  0  0  3  0  0  0  0  0  0
  -22.4240   -8.0780   21.3720 C   0  0  0  0  0  0  0  0  0  0  0  0
  -22.0240   -9.0260   20.4150 C   0  0  0  0  0  3  0  0  0  0  0  0
  -22.7470  -10.2200   20.2460 C   0  0  0  0  0  3  0  0  0  0  0  0
  -21.6760   -6.9270   21.4490 O   0  0  0  0  0  0  0  0  0  0  0  0
  -21.5880   -6.2030   22.6100 C   0  0  0  0  0  0  0  0  0  0  0  0
  -21.1040   -6.7690   23.8100 C   0  0  0  0  0  3  0  0  0  0  0  0
  -20.9670   -5.9670   24.9610 C   0  0  0  0  0  3  0  0  0  0  0  0
  -21.3040   -4.6020   24.9150 C   0  0  0  0  0  0  0  0  0  0  0  0
  -21.7820   -4.0350   23.7190 C   0  0  0  0  0  3  0  0  0  0  0  0
  -21.9200   -4.8340   22.5700 C   0  0  0  0  0  0  0  0  0  0  0  0
  -22.3610   -4.2770   21.4160 F   0  0  0  0  0  0  0  0  0  0  0  0
  -21.1650   -3.8300   26.0180 F   0  0  0  0  0  0  0  0  0  0  0  0
  -22.7240  -13.5710   21.1370 C   0  0  0  0  0  0  0  0  0  0  0  0
  -21.9900  -12.8770   22.0000 N   0  0  0  0  0  0  0  0  0  0  0  0
  -22.2860  -14.5910   20.6040 O   0  0  0  0  0  0  0  0  0  0  0  0
  -22.3550  -12.0540   22.4570 H   0  0  0  0  0  0  0  0  0  0  0  0
  -21.0480  -13.1740   22.2080 H   0  0  0  0  0  0  0  0  0  0  0  0
  -25.3490  -15.2570   20.3550 N   0  0  0  0  0  0  0  0  0  0  0  0
  -24.5790  -15.9070   20.4720 H   0  0  0  0  0  0  0  0  0  0  0  0
  -26.2100  -15.7090   20.0730 H   0  0  0  0  0  0  0  0  0  0  0  0
  -29.0450  -23.2010   20.2980 C   0  0  0  0  0  3  0  0  0  0  0  0
  -27.9450  -24.5320   20.2250 C   0  0  0  0  0  3  0  0  0  0  0  0
  -28.2130  -26.1040   20.2970 O   0  0  0  0  0  0  0  0  0  0  0  0
  -24.6290  -31.9200   23.2620 C   0  0  0  0  0  0  0  0  0  0  0  0
  -27.1710  -27.1280   20.2450 C   0  0  0  0  0  0  0  0  0  0  0  0
  -23.4230  -30.5270   21.6260 C   0  0  0  0  0  3  0  0  0  0  0  0
  -24.8620  -28.9320   20.2060 C   0  0  0  0  0  0  0  0  0  0  0  0
  -25.9830  -30.7590   21.4680 C   0  0  0  0  0  2  0  0  0  0  0  0
  -26.0470  -29.3600   20.8150 C   0  0  0  0  0  0  0  0  0  0  0  0
  -27.2020  -28.4770   20.8110 C   0  0  0  0  0  3  0  0  0  0  0  0
  -25.9540  -26.8180   19.5980 C   0  0  0  0  0  3  0  0  0  0  0  0
  -24.8310  -27.6770   19.5810 C   0  0  0  0  0  3  0  0  0  0  0  0
  -23.6430  -29.8450   20.2500 C   0  0  0  0  0  2  0  0  0  0  0  0
  -24.6990  -31.0930   22.1720 N   0  0  0  0  0  0  0  0  0  0  0  0
  -23.5410  -32.2140   23.7850 O   0  0  0  0  0  0  0  0  0  0  0  0
  -22.7330  -29.5300   22.5920 C   0  0  0  0  0  0  0  0  0  0  0  0
  -21.4040  -29.3660   22.4610 N   0  0  0  0  0  0  0  0  0  0  0  0
  -23.3980  -28.9050   23.4220 O   0  0  0  0  0  0  0  0  0  0  0  0
  -20.9230  -29.9240   21.7690 H   0  0  0  0  0  0  0  0  0  0  0  0
  -18.0170  -28.1730   22.9540 C   0  0  0  0  0  0  0  0  0  0  0  0
  -20.5740  -28.4350   23.2330 C   0  0  0  0  0  3  0  0  0  0  0  0
  -20.6770  -26.9990   22.6680 C   0  0  0  0  0  2  0  0  0  0  0  0
  -19.5800  -26.6710   21.6500 C   0  0  0  0  0  2  0  0  0  0  0  0
  -18.1950  -26.8200   22.2860 C   0  0  0  0  0  2  0  0  0  0  0  0
  -19.1330  -28.9370   23.3840 C   0  0  0  0  0  0  0  0  0  0  0  0
  -18.9100  -30.2020   23.9710 C   0  0  0  0  0  3  0  0  0  0  0  0
  -17.6030  -30.7000   24.1330 C   0  0  0  0  0  3  0  0  0  0  0  0
  -16.5010  -29.9330   23.7160 C   0  0  0  0  0  3  0  0  0  0  0  0
  -16.7090  -28.6710   23.1320 C   0  0  0  0  0  3  0  0  0  0  0  0
  -25.9070  -32.5520   23.8910 C   0  0  0  0  0  3  0  0  0  0  0  0
  -25.6000  -33.9540   24.2220 N   0  0  0  0  0  0  0  0  0  0  0  0
  -25.9180  -35.0080   23.4590 C   0  0  0  0  0  0  0  0  0  0  0  0
  -26.5680  -34.9020   22.4160 O   0  0  0  0  0  0  0  0  0  0  0  0
  -25.0220  -34.1090   25.0350 H   0  0  0  0  0  0  0  0  0  0  0  0
  -24.1780  -36.8020   23.1550 C   0  0  0  0  0  1  0  0  0  0  0  0
  -25.4460  -36.3990   23.9270 C   0  0  0  0  0  3  0  0  0  0  0  0
  -27.6020  -37.2960   24.6870 C   0  0  0  0  0  1  0  0  0  0  0  0
  -26.4720  -37.4540   23.7760 N   0  0  0  0  0  0  0  0  0  0  0  0
  -26.0680  -38.3750   23.9260 H   0  0  0  0  0  0  0  0  0  0  0  0
  -26.4080  -31.7860   25.1780 C   0  0  1  0  0  0  0  0  0  0  0  0
  -25.3070  -31.5670   26.2420 C   0  0  0  0  0  1  0  0  0  0  0  0
  -26.9820  -30.3990   24.8040 C   0  0  0  0  0  1  0  0  0  0  0  0
  -27.5590  -32.5760   25.8420 C   0  0  0  0  0  1  0  0  0  0  0  0
  2  7  1  0
  3  4  1  0
  3  2  1  0
  5  4  1  0
  5 22  1  0
  5  6  1  0
  7  1  1  0
  7  6  1  0
  8  1  2  0
  9 10  2  0
 10 16  1  0
 12 17  1  0
 14  9  1  0
 14 12  1  0
 14 15  1  0
 15 11  1  0
 15 13  1  0
 16  1  1  0
 16 11  1  0
 17 18  1  1
 17 13  1  0
 19 20  2  0
 20 39  1  0
 21 20  1  0
 21 24  1  0
 22 19  1  0
 22 23  1  0
 23 21  2  0
 24 25  1  0
 25 26  2  0
 27 30  1  0
 27 26  1  0
 28 27  2  0
 29 28  1  0
 29 24  2  0
 30 31  1  0
 31 32  1  0
 32 33  2  0
 34 33  1  0
 34 38  1  0
 35 34  2  0
 36 31  2  0
 36 35  1  0
 37 36  1  0
 39 40  1  0
 40 43  1  0
 40 42  1  0
 41 39  2  0
 44 45  1  0
 44 19  1  0
 46 44  1  0
 47 17  1  0
 48 49  1  0
 48 47  2  0
 50 61  2  0
 51 49  1  0
 51 56  1  0
 52 60  1  0
 52 62  1  0
 53 59  1  0
 53 55  1  0
 54 60  1  0
 55 54  1  0
 56 55  2  0
 57 51  2  0
 58 57  1  0
 58 53  2  0
 59 52  1  0
 60 50  1  0
 62 64  2  0
 63 62  1  0
 65 63  1  0
 66 75  2  0
 66 71  1  0
 67 63  1  0
 67 71  1  0
 68 67  1  0
 69 70  1  0
 69 68  1  0
 70 66  1  0
 71 72  2  0
 72 73  1  0
 74 73  2  0
 75 74  1  0
 76 50  1  0
 76 77  1  0
 76 86  1  0
 77 80  1  0
 78 82  1  0
 78 77  1  0
 79 78  2  0
 82 81  1  0
 84 85  1  0
 84 82  1  0
 84 83  1  0
 86 89  1  1
 86 87  1  0
 88 86  1  0
M  ISO  4   1 100  16 100  48 101  49 101
M  END
>  <TORSDO>  (45) 
F 17

>  <SCORE>  (45) 
-16.027

>  <name>  (45) 
44

>  <ligand_id>  (45) 
44

>  <original_smiles>  (45) 
[H]C1=C([H])C2([H])C([H])(C([H])([H])N1C(=O)N1C([H])([H])C([H])([H])C([H])([H])C([H])(n3nc(-c4c([H])c([H])c(Oc5c([H])c([H])c(F)c([H])c5F)c([H])c4[H])c(C(=O)N([H])[H])c3N([H])[H])C1([H])[H])C([H])([H])[N+]([H])(C([H])([H])C([H])([H])Oc1c([H])c([H])c3c(c1[H])C([H])([H])N(C(=O)C([H])(N([H])C(=O)C([H])(N([H])C([H])([H])[H])C([H])([H])[H])C(C([H])([H])[H])(C([H])([H])[H])C([H])([H])[H])C([H])(C(=O)N([H])C1([H])c4c([H])c([H])c([H])c([H])c4C([H])([H])C([H])([H])C1([H])[H])C3([H])[H])C2([H])[H]

>  <smiles>  (45) 
[H]C1=C([H])C2([H])C([H])(C([H])([H])N1C(=O)N1C([H])([H])C([H])([H])C([H])([H])C([H])(n3nc(-c4c([H])c([H])c(Oc5c([H])c([H])c(F)c([H])c5F)c([H])c4[H])c(C(=O)N([H])[H])c3N([H])[H])C1([H])[H])C([H])([H])[N+]([H])(C([H])([H])C([H])([H])Oc1c([H])c([H])c3c(c1[H])C([H])([H])N(C(=O)C([H])(N([H])C(=O)C([H])(N([H])C([H])([H])[H])C([H])([H])[H])C(C([H])([H])[H])(C([H])([H])[H])C([H])([H])[H])C([H])(C(=O)N([H])C1([H])c4c([H])c([H])c([H])c([H])c4C([H])([H])C([H])([H])C1([H])[H])C3([H])[H])C2([H])[H]

$$$$
45:0:0
     RDKit          3D

 91100  0  0  1  0  0  0  0  0999 V2000
  -29.0650  -23.4420   19.9850 C   0  0  0  0  0  0  0  0  0  0  0  0
  -26.8740  -24.0050   20.6420 C   0  0  0  0  0  2  0  0  0  0  0  0
  -27.0820  -22.4690   20.4900 C   0  0  0  0  0  2  0  0  0  0  0  0
  -27.9960  -24.6770   19.8480 C   0  0  0  0  0  3  0  0  0  0  0  0
  -28.4980  -22.1700   20.2160 N   0  0  0  0  0  0  0  0  0  0  0  0
  -30.2790  -23.6360   19.8590 O   0  0  0  0  0  0  0  0  0  0  0  0
  -30.2290  -20.0960   19.8300 C   0  0  0  0  0  3  0  0  0  0  0  0
  -28.0690  -19.6340   20.6210 C   0  0  0  0  0  3  0  0  0  0  0  0
  -30.5340  -18.6540   19.8370 C   0  0  0  0  0  3  0  0  0  0  0  0
  -28.3680  -18.2210   20.6340 C   0  0  0  0  0  3  0  0  0  0  0  0
  -28.9650  -20.6850   20.2210 C   0  0  0  0  0  0  0  0  0  0  0  0
  -29.6060  -17.6230   20.2430 C   0  0  0  0  0  0  0  0  0  0  0  0
  -30.5750  -15.0090   19.9780 C   0  0  0  0  0  0  0  0  0  0  0  0
  -30.4620  -12.6760   18.9870 C   0  0  0  0  0  2  0  0  0  0  0  0
  -29.4540  -12.6670   17.8120 C   0  0  0  0  0  2  0  0  0  0  0  0
  -28.0190  -12.4340   18.3210 C   0  0  0  0  0  2  0  0  0  0  0  0
  -27.6760  -13.3210   19.5440 C   0  0  0  0  0  3  0  0  0  0  0  0
  -28.7930  -13.2870   20.6110 C   0  0  0  0  0  2  0  0  0  0  0  0
  -30.0330  -13.7260   19.9520 N   0  0  0  0  0  0  0  0  0  0  0  0
  -31.7420  -15.1530   19.5920 O   0  0  0  0  0  0  0  0  0  0  0  0
  -29.7100  -16.0890   20.2880 N   0  0  0  0  0  0  0  0  0  0  0  0
  -28.8430  -15.6860   20.6100 H   0  0  0  0  0  0  0  0  0  0  0  0
  -25.3310  -13.8710   20.4180 C   0  0  0  0  0  0  0  0  0  0  0  0
  -24.2920  -13.0810   20.8260 C   0  0  0  0  0  0  0  0  0  0  0  0
  -24.7610  -11.7350   20.7400 C   0  0  0  0  0  0  0  0  0  0  0  0
  -26.3650  -13.0050   20.1040 N   0  0  0  0  0  0  0  0  0  0  0  0
  -26.0340  -11.7130   20.3610 N   0  0  0  0  0  0  0  0  0  0  0  0
  -24.0530  -10.4630   20.9380 C   0  0  0  0  0  0  0  0  0  0  0  0
  -24.5020   -9.5050   21.8740 C   0  0  0  0  0  3  0  0  0  0  0  0
  -23.7920   -8.2990   22.0600 C   0  0  0  0  0  3  0  0  0  0  0  0
  -22.6200   -8.0410   21.3110 C   0  0  0  0  0  0  0  0  0  0  0  0
  -22.1900   -8.9880   20.3630 C   0  0  0  0  0  3  0  0  0  0  0  0
  -22.9010  -10.1860   20.1750 C   0  0  0  0  0  3  0  0  0  0  0  0
  -21.8820   -6.8860   21.4060 O   0  0  0  0  0  0  0  0  0  0  0  0
  -21.7960   -6.1800   22.5810 C   0  0  0  0  0  0  0  0  0  0  0  0
  -21.3040   -6.7680   23.7660 C   0  0  0  0  0  3  0  0  0  0  0  0
  -21.1680   -5.9890   24.9330 C   0  0  0  0  0  3  0  0  0  0  0  0
  -21.5110   -4.6230   24.9140 C   0  0  0  0  0  0  0  0  0  0  0  0
  -21.9950   -4.0360   23.7320 C   0  0  0  0  0  3  0  0  0  0  0  0
  -22.1350   -4.8120   22.5680 C   0  0  0  0  0  0  0  0  0  0  0  0
  -22.5820   -4.2350   21.4260 F   0  0  0  0  0  0  0  0  0  0  0  0
  -21.3720   -3.8740   26.0330 F   0  0  0  0  0  0  0  0  0  0  0  0
  -22.9070  -13.5420   21.1800 C   0  0  0  0  0  0  0  0  0  0  0  0
  -22.2290  -12.8260   22.0690 N   0  0  0  0  0  0  0  0  0  0  0  0
  -22.4370  -14.5740   20.7020 O   0  0  0  0  0  0  0  0  0  0  0  0
  -22.6220  -11.9910   22.4790 H   0  0  0  0  0  0  0  0  0  0  0  0
  -21.3030  -13.1180   22.3480 H   0  0  0  0  0  0  0  0  0  0  0  0
  -25.4740  -15.2470   20.2610 N   0  0  0  0  0  0  0  0  0  0  0  0
  -24.6970  -15.8820   20.4030 H   0  0  0  0  0  0  0  0  0  0  0  0
  -26.2690  -15.6930   19.8220 H   0  0  0  0  0  0  0  0  0  0  0  0
  -28.2720  -26.1830   20.1820 O   0  0  0  0  0  0  0  0  0  0  0  0
  -24.6220  -31.8490   23.2130 C   0  0  0  0  0  0  0  0  0  0  0  0
  -27.2270  -27.1830   20.1110 C   0  0  0  0  0  0  0  0  0  0  0  0
  -23.4340  -30.4750   21.5490 C   0  0  0  0  0  3  0  0  0  0  0  0
  -24.8940  -28.9330   20.1000 C   0  0  0  0  0  0  0  0  0  0  0  0
  -25.9900  -30.7440   21.4050 C   0  0  0  0  0  2  0  0  0  0  0  0
  -26.0690  -29.3630   20.7300 C   0  0  0  0  0  0  0  0  0  0  0  0
  -27.2330  -28.5020   20.7250 C   0  0  0  0  0  3  0  0  0  0  0  0
  -26.0310  -26.8740   19.4240 C   0  0  0  0  0  3  0  0  0  0  0  0
  -24.8880  -27.7000   19.4320 C   0  0  0  0  0  3  0  0  0  0  0  0
  -23.6630  -29.8250   20.1580 C   0  0  0  0  0  2  0  0  0  0  0  0
  -24.7010  -31.0440   22.1100 N   0  0  0  0  0  0  0  0  0  0  0  0
  -23.5320  -32.1230   23.7390 O   0  0  0  0  0  0  0  0  0  0  0  0
  -22.7520  -29.4510   22.4900 C   0  0  0  0  0  0  0  0  0  0  0  0
  -21.4230  -29.2890   22.3640 N   0  0  0  0  0  0  0  0  0  0  0  0
  -23.4230  -28.8060   23.3010 O   0  0  0  0  0  0  0  0  0  0  0  0
  -20.9380  -29.8600   21.6880 H   0  0  0  0  0  0  0  0  0  0  0  0
  -18.0330  -28.1120   22.8710 C   0  0  0  0  0  0  0  0  0  0  0  0
  -20.5980  -28.3420   23.1190 C   0  0  0  0  0  3  0  0  0  0  0  0
  -20.6790  -26.9220   22.5090 C   0  0  0  0  0  2  0  0  0  0  0  0
  -19.5630  -26.6380   21.4980 C   0  0  0  0  0  2  0  0  0  0  0  0
  -18.1890  -26.7790   22.1590 C   0  0  0  0  0  2  0  0  0  0  0  0
  -19.1640  -28.8530   23.3090 C   0  0  0  0  0  0  0  0  0  0  0  0
  -18.9630  -30.1010   23.9370 C   0  0  0  0  0  3  0  0  0  0  0  0
  -17.6640  -30.6090   24.1290 C   0  0  0  0  0  3  0  0  0  0  0  0
  -16.5480  -29.8650   23.7070 C   0  0  0  0  0  3  0  0  0  0  0  0
  -16.7340  -28.6180   23.0840 C   0  0  0  0  0  3  0  0  0  0  0  0
  -25.8950  -32.4790   23.8560 C   0  0  0  0  0  3  0  0  0  0  0  0
  -25.5810  -33.8760   24.1950 N   0  0  0  0  0  0  0  0  0  0  0  0
  -25.8990  -34.9360   23.4400 C   0  0  0  0  0  0  0  0  0  0  0  0
  -26.5540  -34.8410   22.3990 O   0  0  0  0  0  0  0  0  0  0  0  0
  -24.9970  -34.0220   25.0060 H   0  0  0  0  0  0  0  0  0  0  0  0
  -24.1460  -36.7180   23.1430 C   0  0  0  0  0  1  0  0  0  0  0  0
  -25.4160  -36.3220   23.9140 C   0  0  0  0  0  3  0  0  0  0  0  0
  -27.5690  -37.2260   24.6780 C   0  0  0  0  0  1  0  0  0  0  0  0
  -26.4370  -37.3830   23.7680 N   0  0  0  0  0  0  0  0  0  0  0  0
  -26.0280  -38.3010   23.9260 H   0  0  0  0  0  0  0  0  0  0  0  0
  -26.3900  -31.7010   25.1380 C   0  0  1  0  0  0  0  0  0  0  0  0
  -25.2830  -31.4660   26.1920 C   0  0  0  0  0  1  0  0  0  0  0  0
  -26.9720  -30.3230   24.7550 C   0  0  0  0  0  1  0  0  0  0  0  0
  -27.5370  -32.4880   25.8160 C   0  0  0  0  0  1  0  0  0  0  0  0
  1  5  1  0
  3  2  1  0
  4  1  1  0
  4 51  1  0
  4  2  1  0
  5 11  1  0
  5  3  1  0
  6  1  2  0
  7  9  2  0
  7 11  1  0
  8 10  1  0
  9 12  1  0
 11  8  2  0
 12 21  1  0
 12 10  2  0
 13 21  1  0
 14 19  1  0
 15 16  1  0
 15 14  1  0
 17 16  1  0
 17 26  1  0
 17 18  1  0
 19 13  1  0
 19 18  1  0
 20 13  2  0
 21 22  1  0
 23 24  2  0
 24 43  1  0
 25 24  1  0
 25 28  1  0
 26 27  1  0
 26 23  1  0
 27 25  2  0
 28 29  1  0
 29 30  2  0
 31 34  1  0
 31 30  1  0
 32 31  2  0
 33 32  1  0
 33 28  2  0
 34 35  1  0
 35 36  1  0
 36 37  2  0
 38 37  1  0
 38 42  1  0
 39 38  2  0
 40 35  2  0
 40 39  1  0
 41 40  1  0
 43 44  1  0
 44 47  1  0
 44 46  1  0
 45 43  2  0
 48 49  1  0
 48 23  1  0
 50 48  1  0
 52 63  2  0
 53 51  1  0
 53 58  1  0
 54 62  1  0
 54 64  1  0
 55 61  1  0
 55 57  1  0
 56 62  1  0
 57 56  1  0
 58 57  2  0
 59 60  1  0
 59 53  2  0
 60 55  2  0
 61 54  1  0
 62 52  1  0
 64 66  2  0
 65 64  1  0
 67 65  1  0
 68 77  2  0
 68 73  1  0
 69 65  1  0
 69 73  1  0
 70 69  1  0
 71 72  1  0
 71 70  1  0
 72 68  1  0
 73 74  2  0
 74 75  1  0
 76 75  2  0
 77 76  1  0
 78 52  1  0
 78 79  1  0
 78 88  1  0
 79 82  1  0
 80 84  1  0
 80 79  1  0
 81 80  2  0
 84 83  1  0
 86 84  1  0
 86 87  1  0
 86 85  1  0
 88 91  1  1
 88 89  1  0
 90 88  1  0
M  ISO  4   4 101  13 100  21 100  51 101
M  END
>  <TORSDO>  (46) 
F 17

>  <SCORE>  (46) 
-14.746

>  <name>  (46) 
45

>  <ligand_id>  (46) 
45

>  <original_smiles>  (46) 
[H]c1c([H])c([H])c2c(c1[H])C([H])([H])C([H])([H])C([H])([H])C2([H])N([H])C(=O)C1([H])N(C(=O)C([H])(N([H])C(=O)C([H])(N([H])C([H])([H])[H])C([H])([H])[H])C(C([H])([H])[H])(C([H])([H])[H])C([H])([H])[H])C([H])([H])c2c([H])c(OC3([H])C(=O)N(c4c([H])c([H])c(N([H])C(=O)N5C([H])([H])C([H])([H])C([H])([H])C([H])(n6nc(-c7c([H])c([H])c(Oc8c([H])c([H])c(F)c([H])c8F)c([H])c7[H])c(C(=O)N([H])[H])c6N([H])[H])C5([H])[H])c([H])c4[H])C([H])([H])C3([H])[H])c([H])c([H])c2C1([H])[H]

>  <smiles>  (46) 
[H]c1c([H])c([H])c2c(c1[H])C([H])([H])C([H])([H])C([H])([H])C2([H])N([H])C(=O)C1([H])N(C(=O)C([H])(N([H])C(=O)C([H])(N([H])C([H])([H])[H])C([H])([H])[H])C(C([H])([H])[H])(C([H])([H])[H])C([H])([H])[H])C([H])([H])c2c([H])c(OC3([H])C(=O)N(c4c([H])c([H])c(N([H])C(=O)N5C([H])([H])C([H])([H])C([H])([H])C([H])(n6nc(-c7c([H])c([H])c(Oc8c([H])c([H])c(F)c([H])c8F)c([H])c7[H])c(C(=O)N([H])[H])c6N([H])[H])C5([H])[H])c([H])c4[H])C([H])([H])C3([H])[H])c([H])c([H])c2C1([H])[H]

$$$$
46:0:0
     RDKit          3D

 95104  0  0  1  0  0  0  0  0999 V2000
  -29.2000  -24.0410   19.9550 C   0  0  0  0  0  0  0  0  0  0  0  0
  -29.4930  -22.7820   20.4880 N   0  0  0  0  0  0  0  0  0  0  0  0
  -29.4720  -24.2720   18.7720 O   0  0  0  0  0  0  0  0  0  0  0  0
  -30.1540  -22.2640   23.8490 C   0  0  0  0  0  2  0  0  0  0  0  0
  -29.5190  -23.3790   23.0180 C   0  0  0  0  0  2  0  0  0  0  0  0
  -30.5780  -21.6620   22.5100 C   0  0  0  0  0  2  0  0  0  0  0  0
  -29.3280  -22.3350   21.8930 C   0  0  0  0  0  3  0  0  0  0  0  0
  -29.9140  -21.6470   19.5670 C   0  0  0  0  0  2  0  0  0  0  0  0
  -31.1460  -19.3610   19.9300 C   0  0  0  0  0  3  0  0  0  0  0  0
  -31.1880  -17.9460   20.1270 C   0  0  0  0  0  3  0  0  0  0  0  0
  -28.7560  -19.3510   20.1750 C   0  0  0  0  0  3  0  0  0  0  0  0
  -29.9320  -20.1090   19.9420 C   0  0  0  0  0  0  0  0  0  0  0  0
  -30.0040  -17.1950   20.3510 C   0  0  0  0  0  0  0  0  0  0  0  0
  -28.7960  -17.9400   20.3780 C   0  0  0  0  0  0  0  0  0  0  0  0
  -27.6350  -17.2720   20.5790 F   0  0  0  0  0  0  0  0  0  0  0  0
  -30.7160  -14.6920   20.2480 C   0  0  0  0  0  0  0  0  0  0  0  0
  -30.4850  -12.4460   19.2120 C   0  0  0  0  0  2  0  0  0  0  0  0
  -29.5310  -12.5720   18.0030 C   0  0  0  0  0  2  0  0  0  0  0  0
  -28.0600  -12.4270   18.4460 C   0  0  0  0  0  2  0  0  0  0  0  0
  -27.7160  -13.3010   19.6810 C   0  0  0  0  0  3  0  0  0  0  0  0
  -28.7840  -13.1470   20.7880 C   0  0  0  0  0  2  0  0  0  0  0  0
  -30.0920  -13.4720   20.1970 N   0  0  0  0  0  0  0  0  0  0  0  0
  -31.8800  -14.8360   19.8620 O   0  0  0  0  0  0  0  0  0  0  0  0
  -29.9150  -15.7510   20.5780 N   0  0  0  0  0  0  0  0  0  0  0  0
  -28.9930  -15.4580   20.8620 H   0  0  0  0  0  0  0  0  0  0  0  0
  -25.3270  -13.9180   20.4020 C   0  0  0  0  0  0  0  0  0  0  0  0
  -24.2570  -13.1550   20.7820 C   0  0  0  0  0  0  0  0  0  0  0  0
  -24.7130  -11.8020   20.7650 C   0  0  0  0  0  0  0  0  0  0  0  0
  -26.3680  -13.0310   20.1770 N   0  0  0  0  0  0  0  0  0  0  0  0
  -26.0030  -11.7530   20.4530 N   0  0  0  0  0  0  0  0  0  0  0  0
  -23.9810  -10.5450   20.9710 C   0  0  0  0  0  0  0  0  0  0  0  0
  -24.4100   -9.5860   21.9130 C   0  0  0  0  0  3  0  0  0  0  0  0
  -23.6790   -8.3930   22.1060 C   0  0  0  0  0  3  0  0  0  0  0  0
  -22.5030   -8.1530   21.3550 C   0  0  0  0  0  0  0  0  0  0  0  0
  -22.0920   -9.1010   20.4010 C   0  0  0  0  0  3  0  0  0  0  0  0
  -22.8260  -10.2840   20.2070 C   0  0  0  0  0  3  0  0  0  0  0  0
  -21.7430   -7.0130   21.4560 O   0  0  0  0  0  0  0  0  0  0  0  0
  -21.6930   -6.2820   22.6160 C   0  0  0  0  0  0  0  0  0  0  0  0
  -21.2750   -6.8510   23.8380 C   0  0  0  0  0  3  0  0  0  0  0  0
  -21.1730   -6.0460   24.9900 C   0  0  0  0  0  3  0  0  0  0  0  0
  -21.4780   -4.6740   24.9210 C   0  0  0  0  0  0  0  0  0  0  0  0
  -21.8890   -4.1050   23.7030 C   0  0  0  0  0  3  0  0  0  0  0  0
  -21.9930   -4.9070   22.5530 C   0  0  0  0  0  0  0  0  0  0  0  0
  -22.3690   -4.3490   21.3770 F   0  0  0  0  0  0  0  0  0  0  0  0
  -21.3720   -3.8990   26.0250 F   0  0  0  0  0  0  0  0  0  0  0  0
  -22.8630  -13.6410   21.0550 C   0  0  0  0  0  0  0  0  0  0  0  0
  -22.1360  -12.9580   21.9330 N   0  0  0  0  0  0  0  0  0  0  0  0
  -22.4280  -14.6650   20.5290 O   0  0  0  0  0  0  0  0  0  0  0  0
  -22.5000  -12.1300   22.3800 H   0  0  0  0  0  0  0  0  0  0  0  0
  -21.2010  -13.2670   22.1580 H   0  0  0  0  0  0  0  0  0  0  0  0
  -25.4910  -15.2870   20.2160 N   0  0  0  0  0  0  0  0  0  0  0  0
  -24.7300  -15.9400   20.3570 H   0  0  0  0  0  0  0  0  0  0  0  0
  -26.3630  -15.7540   19.9890 H   0  0  0  0  0  0  0  0  0  0  0  0
  -28.4810  -25.2200   20.7420 C   0  0  0  0  0  2  0  0  0  0  0  0
  -28.5710  -26.5640   20.1300 O   0  0  0  0  0  0  0  0  0  0  0  0
  -24.6890  -31.8100   23.2340 C   0  0  0  0  0  0  0  0  0  0  0  0
  -27.4200  -27.3590   20.1520 C   0  0  0  0  0  0  0  0  0  0  0  0
  -23.5200  -30.4000   21.5750 C   0  0  0  0  0  3  0  0  0  0  0  0
  -25.0100  -28.8890   20.1480 C   0  0  0  0  0  0  0  0  0  0  0  0
  -26.0480  -30.7860   21.3960 C   0  0  0  0  0  2  0  0  0  0  0  0
  -26.1640  -29.4120   20.7480 C   0  0  0  0  0  0  0  0  0  0  0  0
  -27.3740  -28.6590   20.7370 C   0  0  0  0  0  3  0  0  0  0  0  0
  -26.2450  -26.8770   19.5390 C   0  0  0  0  0  3  0  0  0  0  0  0
  -25.0510  -27.6240   19.5380 C   0  0  0  0  0  3  0  0  0  0  0  0
  -23.7520  -29.7340   20.1930 C   0  0  0  0  0  2  0  0  0  0  0  0
  -24.7710  -31.0150   22.1270 N   0  0  0  0  0  0  0  0  0  0  0  0
  -23.5990  -32.0600   23.7670 O   0  0  0  0  0  0  0  0  0  0  0  0
  -22.8760  -29.3640   22.5270 C   0  0  0  0  0  0  0  0  0  0  0  0
  -21.5600  -29.1360   22.3720 N   0  0  0  0  0  0  0  0  0  0  0  0
  -23.5600  -28.7650   23.3610 O   0  0  0  0  0  0  0  0  0  0  0  0
  -21.0650  -29.6710   21.6730 H   0  0  0  0  0  0  0  0  0  0  0  0
  -18.2320  -27.7760   22.7550 C   0  0  0  0  0  0  0  0  0  0  0  0
  -20.7590  -28.1720   23.1270 C   0  0  0  0  0  3  0  0  0  0  0  0
  -20.9590  -26.7370   22.5850 C   0  0  0  0  0  2  0  0  0  0  0  0
  -19.9190  -26.3400   21.5330 C   0  0  0  0  0  2  0  0  0  0  0  0
  -18.5050  -26.4250   22.1150 C   0  0  0  0  0  2  0  0  0  0  0  0
  -19.2910  -28.6010   23.2170 C   0  0  0  0  0  0  0  0  0  0  0  0
  -18.9830  -29.8630   23.7720 C   0  0  0  0  0  3  0  0  0  0  0  0
  -17.6490  -30.2990   23.8720 C   0  0  0  0  0  3  0  0  0  0  0  0
  -16.6030  -29.4700   23.4290 C   0  0  0  0  0  3  0  0  0  0  0  0
  -16.8950  -28.2100   22.8760 C   0  0  0  0  0  3  0  0  0  0  0  0
  -25.9570  -32.4630   23.8670 C   0  0  0  0  0  3  0  0  0  0  0  0
  -26.4700  -31.7040   25.1520 C   0  0  1  0  0  0  0  0  0  0  0  0
  -25.3700  -31.4580   26.2100 C   0  0  0  0  0  1  0  0  0  0  0  0
  -27.0730  -30.3320   24.7700 C   0  0  0  0  0  1  0  0  0  0  0  0
  -27.6040  -32.5140   25.8220 C   0  0  0  0  0  1  0  0  0  0  0  0
  -25.6250  -33.8590   24.1890 N   0  0  0  0  0  0  0  0  0  0  0  0
  -25.9540  -34.9130   23.4290 C   0  0  0  0  0  0  0  0  0  0  0  0
  -26.6390  -34.8140   22.4080 O   0  0  0  0  0  0  0  0  0  0  0  0
  -25.0190  -34.0110   24.9810 H   0  0  0  0  0  0  0  0  0  0  0  0
  -24.2080  -36.6820   23.0490 C   0  0  0  0  0  1  0  0  0  0  0  0
  -25.4450  -36.2980   23.8750 C   0  0  0  0  0  3  0  0  0  0  0  0
  -27.5600  -37.2130   24.7250 C   0  0  0  0  0  1  0  0  0  0  0  0
  -26.4660  -37.3630   23.7680 N   0  0  0  0  0  0  0  0  0  0  0  0
  -26.0460  -38.2780   23.9070 H   0  0  0  0  0  0  0  0  0  0  0  0
  1  2  1  0
  1 54  1  0
  2  7  1  0
  3  1  2  0
  5  4  1  0
  6  4  1  0
  7  6  1  0
  7  5  1  0
  8 12  1  0
  8  2  1  0
  9 12  2  0
  9 10  1  0
 10 13  2  0
 11 14  2  0
 12 11  1  0
 13 14  1  0
 13 24  1  0
 14 15  1  0
 16 24  1  0
 17 22  1  0
 18 19  1  0
 18 17  1  0
 20 19  1  0
 20 29  1  0
 20 21  1  0
 22 16  1  0
 22 21  1  0
 23 16  2  0
 24 25  1  0
 26 27  2  0
 27 46  1  0
 28 27  1  0
 28 31  1  0
 29 26  1  0
 29 30  1  0
 30 28  2  0
 31 32  1  0
 32 33  2  0
 34 37  1  0
 34 33  1  0
 35 34  2  0
 36 35  1  0
 36 31  2  0
 37 38  1  0
 38 39  1  0
 39 40  2  0
 41 40  1  0
 41 45  1  0
 42 41  2  0
 43 38  2  0
 43 42  1  0
 44 43  1  0
 46 47  1  0
 47 50  1  0
 47 49  1  0
 48 46  2  0
 51 52  1  0
 51 26  1  0
 53 51  1  0
 55 57  1  0
 55 54  1  0
 56 67  2  0
 57 62  1  0
 58 66  1  0
 58 68  1  0
 59 65  1  0
 59 61  1  0
 60 66  1  0
 61 60  1  0
 62 61  2  0
 63 57  2  0
 64 63  1  0
 64 59  2  0
 65 58  1  0
 66 56  1  0
 68 70  2  0
 69 68  1  0
 71 69  1  0
 72 81  2  0
 72 77  1  0
 73 69  1  0
 73 77  1  0
 74 73  1  0
 75 76  1  0
 75 74  1  0
 76 72  1  0
 77 78  2  0
 78 79  1  0
 80 79  2  0
 81 80  1  0
 82 56  1  0
 82 87  1  0
 82 83  1  0
 83 86  1  1
 83 84  1  0
 85 83  1  0
 87 90  1  0
 88 92  1  0
 88 87  1  0
 89 88  2  0
 92 91  1  0
 94 92  1  0
 94 95  1  0
 94 93  1  0
M  ISO  4  16 100  24 100  54 101  55 101
M  END
>  <TORSDO>  (47) 
F 20

>  <SCORE>  (47) 
-14.383

>  <name>  (47) 
46

>  <ligand_id>  (47) 
46

>  <original_smiles>  (47) 
[H]c1c([H])c([H])c2c(c1[H])C([H])([H])C([H])([H])C([H])([H])C2([H])N([H])C(=O)C1([H])N(C(=O)C([H])(N([H])C(=O)C([H])(N([H])C([H])([H])[H])C([H])([H])[H])C(C([H])([H])[H])(C([H])([H])[H])C([H])([H])[H])C([H])([H])c2c([H])c(OC([H])([H])C(=O)N(C([H])([H])c3c([H])c([H])c(N([H])C(=O)N4C([H])([H])C([H])([H])C([H])([H])C([H])(n5nc(-c6c([H])c([H])c(Oc7c([H])c([H])c(F)c([H])c7F)c([H])c6[H])c(C(=O)N([H])[H])c5N([H])[H])C4([H])[H])c(F)c3[H])C3([H])C([H])([H])C([H])([H])C3([H])[H])c([H])c([H])c2C1([H])[H]

>  <smiles>  (47) 
[H]c1c([H])c([H])c2c(c1[H])C([H])([H])C([H])([H])C([H])([H])C2([H])N([H])C(=O)C1([H])N(C(=O)C([H])(N([H])C(=O)C([H])(N([H])C([H])([H])[H])C([H])([H])[H])C(C([H])([H])[H])(C([H])([H])[H])C([H])([H])[H])C([H])([H])c2c([H])c(OC([H])([H])C(=O)N(C([H])([H])c3c([H])c([H])c(N([H])C(=O)N4C([H])([H])C([H])([H])C([H])([H])C([H])(n5nc(-c6c([H])c([H])c(Oc7c([H])c([H])c(F)c([H])c7F)c([H])c6[H])c(C(=O)N([H])[H])c5N([H])[H])C4([H])[H])c(F)c3[H])C3([H])C([H])([H])C([H])([H])C3([H])[H])c([H])c([H])c2C1([H])[H]

$$$$
47:0:0
     RDKit          3D

 88 96  0  0  1  0  0  0  0  0999 V2000
  -30.5260  -19.9010   18.3980 C   0  0  0  0  0  3  0  0  0  0  0  0
  -29.9060  -21.0800   18.9020 C   0  0  0  0  0  3  0  0  0  0  0  0
  -30.4240  -18.6000   18.9690 C   0  0  0  0  0  3  0  0  0  0  0  0
  -29.0170  -19.6480   20.6240 C   0  0  0  0  0  3  0  0  0  0  0  0
  -29.1060  -21.1130   20.0650 C   0  0  0  0  0  0  0  0  0  0  0  0
  -29.6580  -18.3050   20.1180 C   0  0  0  0  0  0  0  0  0  0  0  0
  -30.3360  -15.4090   20.3300 C   0  0  0  0  0  0  0  0  0  0  0  0
  -30.3650  -12.9110   19.5370 C   0  0  0  0  0  2  0  0  0  0  0  0
  -29.4720  -12.6420   18.2960 C   0  0  0  0  0  2  0  0  0  0  0  0
  -28.0240  -12.3530   18.7210 C   0  0  0  0  0  2  0  0  0  0  0  0
  -27.5430  -13.3390   19.8130 C   0  0  0  0  0  3  0  0  0  0  0  0
  -28.5680  -13.5460   20.9500 C   0  0  0  0  0  2  0  0  0  0  0  0
  -29.7960  -14.0760   20.3300 N   0  0  0  0  0  0  0  0  0  0  0  0
  -31.5470  -15.3920   20.0530 O   0  0  0  0  0  0  0  0  0  0  0  0
  -29.5810  -16.7040   20.5240 N   0  0  0  0  0  0  0  0  0  0  0  0
  -28.6980  -16.4890   20.9650 H   0  0  0  0  0  0  0  0  0  0  0  0
  -25.1670  -13.8950   20.5380 C   0  0  0  0  0  0  0  0  0  0  0  0
  -24.1010  -13.1200   20.9000 C   0  0  0  0  0  0  0  0  0  0  0  0
  -24.5680  -11.7690   20.8810 C   0  0  0  0  0  0  0  0  0  0  0  0
  -26.2110  -13.0180   20.3090 N   0  0  0  0  0  0  0  0  0  0  0  0
  -25.8630  -11.7330   20.5850 N   0  0  0  0  0  0  0  0  0  0  0  0
  -23.8360  -10.5100   21.0690 C   0  0  0  0  0  0  0  0  0  0  0  0
  -24.2640   -9.5360   21.9990 C   0  0  0  0  0  3  0  0  0  0  0  0
  -23.5300   -8.3440   22.1780 C   0  0  0  0  0  3  0  0  0  0  0  0
  -22.3530   -8.1160   21.4260 C   0  0  0  0  0  0  0  0  0  0  0  0
  -21.9430   -9.0770   20.4860 C   0  0  0  0  0  3  0  0  0  0  0  0
  -22.6780  -10.2600   20.3050 C   0  0  0  0  0  3  0  0  0  0  0  0
  -21.5900   -6.9760   21.5140 O   0  0  0  0  0  0  0  0  0  0  0  0
  -21.5520   -6.2220   22.6600 C   0  0  0  0  0  0  0  0  0  0  0  0
  -21.1620   -6.7700   23.9000 C   0  0  0  0  0  3  0  0  0  0  0  0
  -21.0700   -5.9430   25.0380 C   0  0  0  0  0  3  0  0  0  0  0  0
  -21.3570   -4.5700   24.9350 C   0  0  0  0  0  0  0  0  0  0  0  0
  -21.7410   -4.0200   23.6990 C   0  0  0  0  0  3  0  0  0  0  0  0
  -21.8340   -4.8440   22.5640 C   0  0  0  0  0  0  0  0  0  0  0  0
  -22.1830   -4.3050   21.3710 F   0  0  0  0  0  0  0  0  0  0  0  0
  -21.2620   -3.7730   26.0270 F   0  0  0  0  0  0  0  0  0  0  0  0
  -22.7010  -13.6000   21.1470 C   0  0  0  0  0  0  0  0  0  0  0  0
  -21.9600  -12.9120   22.0070 N   0  0  0  0  0  0  0  0  0  0  0  0
  -22.2750  -14.6230   20.6130 O   0  0  0  0  0  0  0  0  0  0  0  0
  -22.3190  -12.0850   22.4600 H   0  0  0  0  0  0  0  0  0  0  0  0
  -21.0200  -13.2170   22.2150 H   0  0  0  0  0  0  0  0  0  0  0  0
  -25.3300  -15.2650   20.3540 N   0  0  0  0  0  0  0  0  0  0  0  0
  -24.5590  -15.9160   20.4480 H   0  0  0  0  0  0  0  0  0  0  0  0
  -26.1720  -15.6990   19.9980 H   0  0  0  0  0  0  0  0  0  0  0  0
  -28.6240  -22.7550   20.5990 C   0  0  0  0  0  2  0  0  0  0  0  0
  -27.9900  -24.0970   19.8380 N   0  0  0  0  0  0  0  0  0  0  0  0
  -26.9830  -23.9740   19.8680 H   0  0  0  0  0  0  0  0  0  0  0  0
  -28.2170  -25.7650   20.2920 O   0  0  0  0  0  0  0  0  0  0  0  0
  -24.6540  -31.8390   23.1650 C   0  0  0  0  0  0  0  0  0  0  0  0
  -27.2020  -26.8820   20.1800 C   0  0  0  0  0  0  0  0  0  0  0  0
  -23.4590  -30.4300   21.5380 C   0  0  0  0  0  3  0  0  0  0  0  0
  -24.9070  -28.8050   20.1190 C   0  0  0  0  0  0  0  0  0  0  0  0
  -26.0270  -30.6210   21.3940 C   0  0  0  0  0  2  0  0  0  0  0  0
  -26.0940  -29.2000   20.7480 C   0  0  0  0  0  0  0  0  0  0  0  0
  -27.2260  -28.2570   20.7570 C   0  0  0  0  0  3  0  0  0  0  0  0
  -25.9890  -26.6600   19.4860 C   0  0  0  0  0  3  0  0  0  0  0  0
  -24.8840  -27.5580   19.4680 C   0  0  0  0  0  3  0  0  0  0  0  0
  -23.6900  -29.7340   20.1660 C   0  0  0  0  0  2  0  0  0  0  0  0
  -24.7350  -30.9930   22.0850 N   0  0  0  0  0  0  0  0  0  0  0  0
  -23.5640  -32.1340   23.6850 O   0  0  0  0  0  0  0  0  0  0  0  0
  -22.7620  -29.4470   22.5140 C   0  0  0  0  0  0  0  0  0  0  0  0
  -21.4300  -29.2880   22.3980 N   0  0  0  0  0  0  0  0  0  0  0  0
  -23.4280  -28.8240   23.3450 O   0  0  0  0  0  0  0  0  0  0  0  0
  -20.9450  -29.8400   21.7050 H   0  0  0  0  0  0  0  0  0  0  0  0
  -18.0480  -28.0790   22.9260 C   0  0  0  0  0  0  0  0  0  0  0  0
  -20.6080  -28.3550   23.1780 C   0  0  0  0  0  3  0  0  0  0  0  0
  -20.7110  -26.9190   22.6150 C   0  0  0  0  0  2  0  0  0  0  0  0
  -19.6070  -26.5860   21.6060 C   0  0  0  0  0  2  0  0  0  0  0  0
  -18.2260  -26.7280   22.2530 C   0  0  0  0  0  2  0  0  0  0  0  0
  -19.1660  -28.8500   23.3460 C   0  0  0  0  0  0  0  0  0  0  0  0
  -18.9410  -30.1110   23.9390 C   0  0  0  0  0  3  0  0  0  0  0  0
  -17.6340  -30.6030   24.1140 C   0  0  0  0  0  3  0  0  0  0  0  0
  -16.5320  -29.8320   23.7070 C   0  0  0  0  0  3  0  0  0  0  0  0
  -16.7400  -28.5710   23.1200 C   0  0  0  0  0  3  0  0  0  0  0  0
  -25.9230  -32.4890   23.7940 C   0  0  0  0  0  3  0  0  0  0  0  0
  -25.5960  -33.8840   24.1430 N   0  0  0  0  0  0  0  0  0  0  0  0
  -25.9170  -34.9570   23.4090 C   0  0  0  0  0  0  0  0  0  0  0  0
  -26.5790  -34.8790   22.3710 O   0  0  0  0  0  0  0  0  0  0  0  0
  -25.0030  -34.0170   24.9500 H   0  0  0  0  0  0  0  0  0  0  0  0
  -24.1730  -36.7530   23.1140 C   0  0  0  0  0  1  0  0  0  0  0  0
  -25.4280  -36.3370   23.8990 C   0  0  0  0  0  3  0  0  0  0  0  0
  -27.5690  -37.2240   24.7150 C   0  0  0  0  0  1  0  0  0  0  0  0
  -26.4520  -37.4000   23.7900 N   0  0  0  0  0  0  0  0  0  0  0  0
  -26.0420  -38.3150   23.9590 H   0  0  0  0  0  0  0  0  0  0  0  0
  -26.4430  -31.7220   25.0730 C   0  0  1  0  0  0  0  0  0  0  0  0
  -25.3520  -31.4840   26.1440 C   0  0  0  0  0  1  0  0  0  0  0  0
  -27.0300  -30.3440   24.6930 C   0  0  0  0  0  1  0  0  0  0  0  0
  -27.5930  -32.5210   25.7320 C   0  0  0  0  0  1  0  0  0  0  0  0
  1  2  2  0
  1  3  1  0
  2  5  1  0
  3  6  2  0
  5 45  1  0
  5  4  2  0
  6 15  1  0
  6  4  1  0
  7 13  1  0
  7 15  1  0
  8 13  1  0
  9 10  1  0
  9  8  1  0
 11 10  1  0
 11 20  1  0
 11 12  1  0
 13 12  1  0
 14  7  2  0
 15 16  1  0
 17 18  2  0
 18 37  1  0
 19 18  1  0
 19 22  1  0
 20 17  1  0
 20 21  1  0
 21 19  2  0
 22 23  1  0
 23 24  2  0
 25 28  1  0
 25 24  1  0
 26 25  2  0
 27 26  1  0
 27 22  2  0
 28 29  1  0
 29 30  1  0
 30 31  2  0
 32 31  1  0
 32 36  1  0
 33 32  2  0
 34 29  2  0
 34 33  1  0
 35 34  1  0
 37 38  1  0
 38 41  1  0
 38 40  1  0
 39 37  2  0
 42 43  1  0
 42 17  1  0
 44 42  1  0
 46 47  1  0
 46 48  1  0
 46 45  1  0
 49 60  2  0
 50 48  1  0
 50 55  1  0
 51 59  1  0
 51 61  1  0
 52 58  1  0
 52 54  1  0
 53 59  1  0
 54 55  2  0
 54 53  1  0
 56 50  2  0
 57 56  1  0
 57 52  2  0
 58 51  1  0
 59 49  1  0
 61 63  2  0
 62 61  1  0
 64 62  1  0
 65 74  2  0
 65 70  1  0
 66 62  1  0
 66 70  1  0
 67 66  1  0
 68 69  1  0
 68 67  1  0
 69 65  1  0
 70 71  2  0
 71 72  1  0
 73 72  2  0
 74 73  1  0
 75 49  1  0
 75 76  1  0
 75 85  1  0
 76 79  1  0
 77 81  1  0
 77 76  1  0
 78 77  2  0
 81 80  1  0
 83 81  1  0
 83 84  1  0
 83 82  1  0
 85 88  1  1
 85 86  1  0
 87 85  1  0
M  ISO  4   7 100  15 100  46 101  48 101
M  END
>  <TORSDO>  (48) 
F 18

>  <SCORE>  (48) 
-15.936

>  <name>  (48) 
47

>  <ligand_id>  (48) 
47

>  <original_smiles>  (48) 
[H]c1c([H])c(N([H])C(=O)N2C([H])([H])C([H])([H])C([H])([H])C([H])(n3nc(-c4c([H])c([H])c(Oc5c([H])c([H])c(F)c([H])c5F)c([H])c4[H])c(C(=O)N([H])[H])c3N([H])[H])C2([H])[H])c([H])c(C([H])([H])N([H])Oc2c([H])c([H])c3c(c2[H])C([H])([H])N(C(=O)C([H])(N([H])C(=O)C([H])(N([H])C([H])([H])[H])C([H])([H])[H])C(C([H])([H])[H])(C([H])([H])[H])C([H])([H])[H])C([H])(C(=O)N([H])C2([H])c4c([H])c([H])c([H])c([H])c4C([H])([H])C([H])([H])C2([H])[H])C3([H])[H])c1[H]

>  <smiles>  (48) 
[H]c1c([H])c(N([H])C(=O)N2C([H])([H])C([H])([H])C([H])([H])C([H])(n3nc(-c4c([H])c([H])c(Oc5c([H])c([H])c(F)c([H])c5F)c([H])c4[H])c(C(=O)N([H])[H])c3N([H])[H])C2([H])[H])c([H])c(C([H])([H])N([H])Oc2c([H])c([H])c3c(c2[H])C([H])([H])N(C(=O)C([H])(N([H])C(=O)C([H])(N([H])C([H])([H])[H])C([H])([H])[H])C(C([H])([H])[H])(C([H])([H])[H])C([H])([H])[H])C([H])(C(=O)N([H])C2([H])c4c([H])c([H])c([H])c([H])c4C([H])([H])C([H])([H])C2([H])[H])C3([H])[H])c1[H]

$$$$
48:0:0
     RDKit          3D

 90 98  0  0  1  0  0  0  0  0999 V2000
  -28.5200  -19.3860   20.8850 C   0  0  0  0  0  3  0  0  0  0  0  0
  -27.6960  -20.4670   21.2710 C   0  0  0  0  0  3  0  0  0  0  0  0
  -29.6830  -20.9630   19.4580 C   0  0  0  0  0  3  0  0  0  0  0  0
  -29.5620  -19.5470   19.9570 C   0  0  0  0  0  0  0  0  0  0  0  0
  -28.8390  -22.1510   19.8400 C   0  0  0  0  0  0  0  0  0  0  0  0
  -27.8390  -21.7930   20.7910 C   0  0  0  0  0  0  0  0  0  0  0  0
  -26.7370  -22.9410   21.4650 Cl  0  0  0  0  0  0  0  0  0  0  0  0
  -30.4880  -18.1970   19.6180 C   0  0  0  0  0  2  0  0  0  0  0  0
  -30.9150  -15.4450   19.7240 C   0  0  0  0  0  0  0  0  0  0  0  0
  -30.7510  -13.0580   18.8450 C   0  0  0  0  0  2  0  0  0  0  0  0
  -29.7490  -12.9760   17.6690 C   0  0  0  0  0  2  0  0  0  0  0  0
  -28.3210  -12.7420   18.1930 C   0  0  0  0  0  2  0  0  0  0  0  0
  -27.9710  -13.6750   19.3840 C   0  0  0  0  0  3  0  0  0  0  0  0
  -29.0970  -13.7510   20.4390 C   0  0  0  0  0  2  0  0  0  0  0  0
  -30.3190  -14.1770   19.7400 N   0  0  0  0  0  0  0  0  0  0  0  0
  -32.0900  -15.4910   19.3460 O   0  0  0  0  0  0  0  0  0  0  0  0
  -30.1680  -16.6560   19.9180 N   0  0  0  0  0  0  0  0  0  0  0  0
  -29.2140  -16.4940   20.1980 H   0  0  0  0  0  0  0  0  0  0  0  0
  -25.6780  -14.2290   20.3660 C   0  0  0  0  0  0  0  0  0  0  0  0
  -24.6370  -13.4460   20.7810 C   0  0  0  0  0  0  0  0  0  0  0  0
  -25.0750  -12.0930   20.6320 C   0  0  0  0  0  0  0  0  0  0  0  0
  -26.6800  -13.3560   19.9810 N   0  0  0  0  0  0  0  0  0  0  0  0
  -26.3320  -12.0610   20.2050 N   0  0  0  0  0  0  0  0  0  0  0  0
  -24.3450  -10.8320   20.8150 C   0  0  0  0  0  0  0  0  0  0  0  0
  -24.7770   -9.8570   21.7420 C   0  0  0  0  0  3  0  0  0  0  0  0
  -24.0470   -8.6620   21.9130 C   0  0  0  0  0  3  0  0  0  0  0  0
  -22.8720   -8.4310   21.1590 C   0  0  0  0  0  0  0  0  0  0  0  0
  -22.4610   -9.3940   20.2210 C   0  0  0  0  0  3  0  0  0  0  0  0
  -23.1900  -10.5820   20.0460 C   0  0  0  0  0  3  0  0  0  0  0  0
  -22.1140   -7.2890   21.2410 O   0  0  0  0  0  0  0  0  0  0  0  0
  -21.9640   -6.6070   22.4220 C   0  0  0  0  0  0  0  0  0  0  0  0
  -21.3930   -7.2110   23.5630 C   0  0  0  0  0  3  0  0  0  0  0  0
  -21.1910   -6.4540   24.7340 C   0  0  0  0  0  3  0  0  0  0  0  0
  -21.5490   -5.0930   24.7650 C   0  0  0  0  0  0  0  0  0  0  0  0
  -22.1100   -4.4870   23.6270 C   0  0  0  0  0  3  0  0  0  0  0  0
  -22.3130   -5.2410   22.4590 C   0  0  0  0  0  0  0  0  0  0  0  0
  -22.8350   -4.6460   21.3580 F   0  0  0  0  0  0  0  0  0  0  0  0
  -21.3490   -4.3640   25.8880 F   0  0  0  0  0  0  0  0  0  0  0  0
  -23.2750  -13.9220   21.1970 C   0  0  0  0  0  0  0  0  0  0  0  0
  -22.6150  -13.1910   22.0870 N   0  0  0  0  0  0  0  0  0  0  0  0
  -22.8130  -14.9790   20.7690 O   0  0  0  0  0  0  0  0  0  0  0  0
  -23.0060  -12.3370   22.4550 H   0  0  0  0  0  0  0  0  0  0  0  0
  -21.7030  -13.4900   22.4030 H   0  0  0  0  0  0  0  0  0  0  0  0
  -25.8490  -15.6060   20.2570 N   0  0  0  0  0  0  0  0  0  0  0  0
  -25.1040  -16.2600   20.4730 H   0  0  0  0  0  0  0  0  0  0  0  0
  -26.6710  -16.0570   19.8790 H   0  0  0  0  0  0  0  0  0  0  0  0
  -28.9940  -23.7540   19.3320 C   0  0  0  0  0  2  0  0  0  0  0  0
  -27.9430  -24.9130   19.5310 N   0  0  0  0  0  0  0  0  0  0  0  0
  -27.1710  -24.7380   18.8970 H   0  0  0  0  0  0  0  0  0  0  0  0
  -28.3520  -26.4500   19.2650 O   0  0  0  0  0  0  0  0  0  0  0  0
  -24.9160  -31.7530   23.1760 C   0  0  0  0  0  0  0  0  0  0  0  0
  -27.3130  -27.4480   19.4350 C   0  0  0  0  0  0  0  0  0  0  0  0
  -23.6380  -30.6060   21.4090 C   0  0  0  0  0  3  0  0  0  0  0  0
  -25.0110  -29.2190   19.7310 C   0  0  0  0  0  0  0  0  0  0  0  0
  -26.1900  -30.8570   21.1880 C   0  0  0  0  0  2  0  0  0  0  0  0
  -26.2180  -29.5580   20.3580 C   0  0  0  0  0  0  0  0  0  0  0  0
  -27.3640  -28.6860   20.2020 C   0  0  0  0  0  3  0  0  0  0  0  0
  -26.0840  -27.2310   18.7720 C   0  0  0  0  0  3  0  0  0  0  0  0
  -24.9580  -28.0710   18.9260 C   0  0  0  0  0  3  0  0  0  0  0  0
  -23.8020  -30.1200   19.9430 C   0  0  0  0  0  2  0  0  0  0  0  0
  -24.9370  -31.0880   21.9800 N   0  0  0  0  0  0  0  0  0  0  0  0
  -23.8540  -31.9740   23.7770 O   0  0  0  0  0  0  0  0  0  0  0  0
  -22.9790  -29.4840   22.2510 C   0  0  0  0  0  0  0  0  0  0  0  0
  -21.6460  -29.3370   22.1450 N   0  0  0  0  0  0  0  0  0  0  0  0
  -23.6700  -28.7550   22.9660 O   0  0  0  0  0  0  0  0  0  0  0  0
  -21.1450  -29.9830   21.5510 H   0  0  0  0  0  0  0  0  0  0  0  0
  -18.2660  -28.1270   22.6350 C   0  0  0  0  0  0  0  0  0  0  0  0
  -20.8400  -28.3100   22.8110 C   0  0  0  0  0  3  0  0  0  0  0  0
  -20.8840  -26.9750   22.0310 C   0  0  0  0  0  2  0  0  0  0  0  0
  -19.7280  -26.8200   21.0360 C   0  0  0  0  0  2  0  0  0  0  0  0
  -18.3820  -26.8890   21.7610 C   0  0  0  0  0  2  0  0  0  0  0  0
  -19.4190  -28.8020   23.1150 C   0  0  0  0  0  0  0  0  0  0  0  0
  -19.2530  -29.9650   23.8970 C   0  0  0  0  0  3  0  0  0  0  0  0
  -17.9680  -30.4510   24.2010 C   0  0  0  0  0  3  0  0  0  0  0  0
  -16.8310  -29.7710   23.7330 C   0  0  0  0  0  3  0  0  0  0  0  0
  -16.9800  -28.6100   22.9550 C   0  0  0  0  0  3  0  0  0  0  0  0
  -26.2250  -32.2870   23.8350 C   0  0  0  0  0  3  0  0  0  0  0  0
  -26.7740  -31.3420   24.9760 C   0  0  1  0  0  0  0  0  0  0  0  0
  -25.7150  -30.9760   26.0430 C   0  0  0  0  0  1  0  0  0  0  0  0
  -27.3150  -30.0220   24.3830 C   0  0  0  0  0  1  0  0  0  0  0  0
  -27.9640  -32.0220   25.6930 C   0  0  0  0  0  1  0  0  0  0  0  0
  -25.9440  -33.6270   24.3750 N   0  0  0  0  0  0  0  0  0  0  0  0
  -26.2320  -34.7780   23.7510 C   0  0  0  0  0  0  0  0  0  0  0  0
  -26.8290  -34.8200   22.6720 O   0  0  0  0  0  0  0  0  0  0  0  0
  -25.4070  -33.6690   25.2280 H   0  0  0  0  0  0  0  0  0  0  0  0
  -24.4890  -36.5930   23.7830 C   0  0  0  0  0  1  0  0  0  0  0  0
  -25.7890  -36.0900   24.4310 C   0  0  0  0  0  3  0  0  0  0  0  0
  -27.9820  -36.8730   25.2120 C   0  0  0  0  0  1  0  0  0  0  0  0
  -26.8140  -37.1540   24.3820 N   0  0  0  0  0  0  0  0  0  0  0  0
  -26.4230  -38.0450   24.6770 H   0  0  0  0  0  0  0  0  0  0  0  0
  1  2  1  0
  3  5  2  0
  3  4  1  0
  4  1  2  0
  5  6  1  0
  6  2  2  0
  6  7  1  0
  8 17  1  0
  8  4  1  0
  9 15  1  0
  9 17  1  0
 10 15  1  0
 11 12  1  0
 11 10  1  0
 13 12  1  0
 13 22  1  0
 13 14  1  0
 15 14  1  0
 16  9  2  0
 17 18  1  0
 19 20  2  0
 20 39  1  0
 21 20  1  0
 21 24  1  0
 22 23  1  0
 22 19  1  0
 23 21  2  0
 24 25  1  0
 25 26  2  0
 27 30  1  0
 27 26  1  0
 28 27  2  0
 29 28  1  0
 29 24  2  0
 30 31  1  0
 31 36  2  0
 31 32  1  0
 32 33  2  0
 33 34  1  0
 34 38  1  0
 35 34  2  0
 36 35  1  0
 37 36  1  0
 39 40  1  0
 40 43  1  0
 40 42  1  0
 41 39  2  0
 44 19  1  0
 44 45  1  0
 46 44  1  0
 47 48  1  0
 47  5  1  0
 49 48  1  0
 50 52  1  0
 50 48  1  0
 51 62  2  0
 52 57  1  0
 53 61  1  0
 53 63  1  0
 54 60  1  0
 54 56  1  0
 55 61  1  0
 56 55  1  0
 57 56  2  0
 58 59  1  0
 58 52  2  0
 59 54  2  0
 60 53  1  0
 61 51  1  0
 63 65  2  0
 64 63  1  0
 66 64  1  0
 67 76  2  0
 67 72  1  0
 68 64  1  0
 68 72  1  0
 69 68  1  0
 70 71  1  0
 70 69  1  0
 71 67  1  0
 72 73  2  0
 73 74  1  0
 75 74  2  0
 76 75  1  0
 77 51  1  0
 77 82  1  0
 77 78  1  0
 78 81  1  1
 78 79  1  0
 80 78  1  0
 82 85  1  0
 83 82  1  0
 83 87  1  0
 84 83  2  0
 87 86  1  0
 89 87  1  0
 89 90  1  0
 89 88  1  0
M  ISO  4   9 100  17 100  48 101  50 101
M  END
>  <TORSDO>  (49) 
F 19

>  <SCORE>  (49) 
-11.233

>  <name>  (49) 
48

>  <ligand_id>  (49) 
48

>  <original_smiles>  (49) 
[H]c1c([H])c([H])c2c(c1[H])C([H])([H])C([H])([H])C([H])([H])C2([H])N([H])C(=O)C1([H])N(C(=O)C([H])(N([H])C(=O)C([H])(N([H])C([H])([H])[H])C([H])([H])[H])C(C([H])([H])[H])(C([H])([H])[H])C([H])([H])[H])C([H])([H])c2c([H])c(ON([H])C([H])([H])c3c([H])c(C([H])([H])N([H])C(=O)N4C([H])([H])C([H])([H])C([H])([H])C([H])(n5nc(-c6c([H])c([H])c(Oc7c([H])c([H])c(F)c([H])c7F)c([H])c6[H])c(C(=O)N([H])[H])c5N([H])[H])C4([H])[H])c([H])c([H])c3Cl)c([H])c([H])c2C1([H])[H]

>  <smiles>  (49) 
[H]c1c([H])c([H])c2c(c1[H])C([H])([H])C([H])([H])C([H])([H])C2([H])N([H])C(=O)C1([H])N(C(=O)C([H])(N([H])C(=O)C([H])(N([H])C([H])([H])[H])C([H])([H])[H])C(C([H])([H])[H])(C([H])([H])[H])C([H])([H])[H])C([H])([H])c2c([H])c(ON([H])C([H])([H])c3c([H])c(C([H])([H])N([H])C(=O)N4C([H])([H])C([H])([H])C([H])([H])C([H])(n5nc(-c6c([H])c([H])c(Oc7c([H])c([H])c(F)c([H])c7F)c([H])c6[H])c(C(=O)N([H])[H])c5N([H])[H])C4([H])[H])c([H])c([H])c3Cl)c([H])c([H])c2C1([H])[H]

$$$$
49:0:0
     RDKit          3D

 98107  0  0  1  0  0  0  0  0999 V2000
  -26.6600  -23.3910   20.2440 C   0  0  0  0  0  3  0  0  0  0  0  0
  -29.0060  -24.0100   20.1270 C   0  0  0  0  0  3  0  0  0  0  0  0
  -26.3570  -24.3770   19.2930 C   0  0  0  0  0  3  0  0  0  0  0  0
  -28.6940  -25.0250   19.1950 C   0  0  0  0  0  3  0  0  0  0  0  0
  -27.9930  -23.1740   20.6400 C   0  0  0  0  0  0  0  0  0  0  0  0
  -27.3640  -25.2040   18.7560 C   0  0  0  0  0  0  0  0  0  0  0  0
  -26.9880  -26.1580   17.7950 N   0  0  0  0  0  0  0  0  0  0  0  0
  -27.3460  -26.0350   16.8520 H   0  0  0  0  0  0  0  0  0  0  0  0
  -27.2400  -27.5190   18.1730 O   0  0  0  0  0  0  0  0  0  0  0  0
  -24.4340  -31.7070   23.1340 C   0  0  0  0  0  0  0  0  0  0  0  0
  -26.1090  -28.2240   18.5330 C   0  0  0  0  0  0  0  0  0  0  0  0
  -22.8220  -30.7070   21.5470 C   0  0  0  0  0  3  0  0  0  0  0  0
  -23.8380  -29.6180   19.4800 C   0  0  0  0  0  0  0  0  0  0  0  0
  -25.2420  -31.1720   20.8410 C   0  0  0  0  0  2  0  0  0  0  0  0
  -25.1180  -30.0070   19.8850 C   0  0  0  0  0  0  0  0  0  0  0  0
  -26.2550  -29.3160   19.4120 C   0  0  0  0  0  3  0  0  0  0  0  0
  -24.8070  -27.8700   18.1070 C   0  0  0  0  0  3  0  0  0  0  0  0
  -23.6740  -28.5430   18.5900 C   0  0  0  0  0  3  0  0  0  0  0  0
  -22.6680  -30.3980   20.0350 C   0  0  0  0  0  2  0  0  0  0  0  0
  -24.1960  -31.1970   21.8940 N   0  0  0  0  0  0  0  0  0  0  0  0
  -23.5230  -31.8230   23.9650 O   0  0  0  0  0  0  0  0  0  0  0  0
  -22.3880  -29.4680   22.3600 C   0  0  0  0  0  0  0  0  0  0  0  0
  -21.0900  -29.1270   22.2850 N   0  0  0  0  0  0  0  0  0  0  0  0
  -23.2110  -28.8190   23.0120 O   0  0  0  0  0  0  0  0  0  0  0  0
  -20.4800  -29.7170   21.7320 H   0  0  0  0  0  0  0  0  0  0  0  0
  -18.0410  -27.2020   22.4760 C   0  0  0  0  0  0  0  0  0  0  0  0
  -20.4600  -27.9810   22.9410 C   0  0  0  0  0  3  0  0  0  0  0  0
  -20.9030  -26.6530   22.2850 C   0  0  0  0  0  2  0  0  0  0  0  0
  -19.9550  -26.1840   21.1800 C   0  0  0  0  0  2  0  0  0  0  0  0
  -18.5440  -25.9780   21.7310 C   0  0  0  0  0  2  0  0  0  0  0  0
  -18.9390  -28.1530   23.0300 C   0  0  0  0  0  0  0  0  0  0  0  0
  -18.4170  -29.2920   23.6810 C   0  0  0  0  0  3  0  0  0  0  0  0
  -17.0270  -29.4880   23.7870 C   0  0  0  0  0  3  0  0  0  0  0  0
  -16.1410  -28.5380   23.2500 C   0  0  0  0  0  3  0  0  0  0  0  0
  -16.6480  -27.3970   22.6020 C   0  0  0  0  0  3  0  0  0  0  0  0
  -25.8530  -32.1990   23.5510 C   0  0  0  0  0  3  0  0  0  0  0  0
  -25.7000  -33.5520   24.0990 N   0  0  0  0  0  0  0  0  0  0  0  0
  -25.9910  -34.6790   23.4380 C   0  0  0  0  0  0  0  0  0  0  0  0
  -26.4890  -34.6840   22.3070 O   0  0  0  0  0  0  0  0  0  0  0  0
  -25.2430  -33.6310   24.9950 H   0  0  0  0  0  0  0  0  0  0  0  0
  -24.3820  -36.6060   23.5690 C   0  0  0  0  0  1  0  0  0  0  0  0
  -25.6810  -36.0150   24.1370 C   0  0  0  0  0  3  0  0  0  0  0  0
  -27.9680  -36.6370   24.7790 C   0  0  0  0  0  1  0  0  0  0  0  0
  -26.7710  -37.0080   24.0240 N   0  0  0  0  0  0  0  0  0  0  0  0
  -26.4600  -37.9180   24.3500 H   0  0  0  0  0  0  0  0  0  0  0  0
  -26.5630  -31.2460   24.5850 C   0  0  1  0  0  0  0  0  0  0  0  0
  -25.6930  -30.9130   25.8200 C   0  0  0  0  0  1  0  0  0  0  0  0
  -26.9610  -29.9120   23.9120 C   0  0  0  0  0  1  0  0  0  0  0  0
  -27.8690  -31.9030   25.0880 C   0  0  0  0  0  1  0  0  0  0  0  0
  -28.3190  -22.0650   21.6260 C   0  0  0  0  0  2  0  0  0  0  0  0
  -28.4100  -20.6510   21.0000 C   0  0  0  0  0  2  0  0  0  0  0  0
  -29.7630  -19.9200   21.0900 C   0  0  0  0  0  2  0  0  0  0  0  0
  -30.2520  -19.6890   19.7770 O   0  0  0  0  0  0  0  0  0  0  0  0
  -30.9990  -17.3850   20.1900 C   0  0  0  0  0  3  0  0  0  0  0  0
  -33.1510  -16.6850   19.2600 C   0  0  0  0  0  3  0  0  0  0  0  0
  -32.3380  -18.9640   18.9160 C   0  0  0  0  0  3  0  0  0  0  0  0
  -31.9760  -16.3830   19.9890 C   0  0  0  0  0  0  0  0  0  0  0  0
  -31.1780  -18.6850   19.6550 C   0  0  0  0  0  0  0  0  0  0  0  0
  -33.3250  -17.9810   18.7330 C   0  0  0  0  0  0  0  0  0  0  0  0
  -34.4590  -18.3030   18.0630 F   0  0  0  0  0  0  0  0  0  0  0  0
  -32.3900  -13.9610   20.3880 C   0  0  0  0  0  0  0  0  0  0  0  0
  -32.1350  -11.5030   20.5350 C   0  0  0  0  0  2  0  0  0  0  0  0
  -31.3060  -10.9770   19.3460 C   0  0  0  0  0  2  0  0  0  0  0  0
  -29.7980  -11.0620   19.6530 C   0  0  0  0  0  2  0  0  0  0  0  0
  -29.3750  -12.4540   20.1840 C   0  0  0  0  0  3  0  0  0  0  0  0
  -30.3060  -12.8920   21.3340 C   0  0  0  0  0  2  0  0  0  0  0  0
  -31.6970  -12.8770   20.8320 N   0  0  0  0  0  0  0  0  0  0  0  0
  -33.4940  -13.8860   19.8310 O   0  0  0  0  0  0  0  0  0  0  0  0
  -31.7630  -15.1240   20.6100 N   0  0  0  0  0  0  0  0  0  0  0  0
  -30.8740  -15.0140   21.0760 H   0  0  0  0  0  0  0  0  0  0  0  0
  -27.1300  -13.5380   20.8390 C   0  0  0  0  0  0  0  0  0  0  0  0
  -25.9050  -12.9940   21.1330 C   0  0  0  0  0  0  0  0  0  0  0  0
  -26.0720  -11.5800   21.0520 C   0  0  0  0  0  0  0  0  0  0  0  0
  -27.9720  -12.4630   20.6020 N   0  0  0  0  0  0  0  0  0  0  0  0
  -27.3350  -11.2800   20.7880 N   0  0  0  0  0  0  0  0  0  0  0  0
  -25.0920  -10.4910   21.1530 C   0  0  0  0  0  0  0  0  0  0  0  0
  -25.2130   -9.4730   22.1260 C   0  0  0  0  0  3  0  0  0  0  0  0
  -24.2440   -8.4500   22.2110 C   0  0  0  0  0  3  0  0  0  0  0  0
  -23.1460   -8.4360   21.3200 C   0  0  0  0  0  0  0  0  0  0  0  0
  -23.0460   -9.4370   20.3390 C   0  0  0  0  0  3  0  0  0  0  0  0
  -24.0110  -10.4530   20.2500 C   0  0  0  0  0  3  0  0  0  0  0  0
  -22.1680   -7.4710   21.3170 O   0  0  0  0  0  0  0  0  0  0  0  0
  -21.7650   -6.8520   22.4740 C   0  0  0  0  0  0  0  0  0  0  0  0
  -21.2330   -7.5800   23.5600 C   0  0  0  0  0  3  0  0  0  0  0  0
  -20.7670   -6.9010   24.7030 C   0  0  0  0  0  3  0  0  0  0  0  0
  -20.8170   -5.4950   24.7580 C   0  0  0  0  0  0  0  0  0  0  0  0
  -21.3410   -4.7670   23.6750 C   0  0  0  0  0  3  0  0  0  0  0  0
  -21.8100   -5.4430   22.5350 C   0  0  0  0  0  0  0  0  0  0  0  0
  -22.2960   -4.7350   21.4880 F   0  0  0  0  0  0  0  0  0  0  0  0
  -20.3630   -4.8430   25.8520 F   0  0  0  0  0  0  0  0  0  0  0  0
  -24.6320  -13.7460   21.3880 C   0  0  0  0  0  0  0  0  0  0  0  0
  -23.7470  -13.1950   22.2160 N   0  0  0  0  0  0  0  0  0  0  0  0
  -24.4350  -14.8500   20.8910 O   0  0  0  0  0  0  0  0  0  0  0  0
  -23.9180  -12.2920   22.6320 H   0  0  0  0  0  0  0  0  0  0  0  0
  -22.8910  -13.6880   22.4350 H   0  0  0  0  0  0  0  0  0  0  0  0
  -27.5920  -14.8460   20.7380 N   0  0  0  0  0  0  0  0  0  0  0  0
  -26.9930  -15.6580   20.8430 H   0  0  0  0  0  0  0  0  0  0  0  0
  -28.5320  -15.0840   20.4520 H   0  0  0  0  0  0  0  0  0  0  0  0
  1  5  1  0
  2  5  2  0
  3  1  2  0
  4  2  1  0
  5 50  1  0
  6  4  2  0
  6  3  1  0
  7  9  1  0
  7  6  1  0
  8  7  1  0
  9 11  1  0
 10 21  2  0
 11 16  1  0
 12 20  1  0
 12 22  1  0
 13 15  1  0
 13 19  1  0
 14 20  1  0
 15 14  1  0
 16 15  2  0
 17 11  2  0
 17 18  1  0
 18 13  2  0
 19 12  1  0
 20 10  1  0
 22 24  2  0
 23 22  1  0
 25 23  1  0
 26 35  2  0
 26 31  1  0
 27 23  1  0
 27 31  1  0
 28 27  1  0
 29 30  1  0
 29 28  1  0
 30 26  1  0
 31 32  2  0
 32 33  1  0
 34 33  2  0
 35 34  1  0
 36 10  1  0
 36 37  1  0
 36 46  1  0
 37 40  1  0
 38 37  1  0
 38 42  1  0
 39 38  2  0
 42 41  1  0
 44 42  1  0
 44 45  1  0
 44 43  1  0
 46 49  1  1
 46 47  1  0
 48 46  1  0
 51 52  1  0
 51 50  1  0
 53 52  1  0
 55 57  2  0
 56 58  1  0
 57 54  1  0
 57 69  1  0
 58 53  1  0
 58 54  2  0
 59 56  2  0
 59 55  1  0
 60 59  1  0
 61 69  1  0
 61 67  1  0
 62 67  1  0
 63 64  1  0
 63 62  1  0
 65 64  1  0
 65 74  1  0
 65 66  1  0
 67 66  1  0
 68 61  2  0
 69 70  1  0
 71 72  2  0
 72 91  1  0
 73 72  1  0
 73 76  1  0
 74 75  1  0
 74 71  1  0
 75 73  2  0
 76 77  1  0
 77 78  2  0
 79 78  1  0
 80 79  2  0
 81 80  1  0
 81 76  2  0
 82 79  1  0
 82 83  1  0
 83 88  2  0
 83 84  1  0
 84 85  2  0
 85 86  1  0
 86 90  1  0
 87 86  2  0
 88 87  1  0
 89 88  1  0
 91 92  1  0
 92 95  1  0
 92 94  1  0
 93 91  2  0
 96 71  1  0
 96 97  1  0
 98 96  1  0
M  ISO  4   7 101   9 101  61 100  69 100
M  END
>  <TORSDO>  (50) 
F 22

>  <SCORE>  (50) 
-10.032

>  <name>  (50) 
49

>  <ligand_id>  (50) 
49

>  <original_smiles>  (50) 
[H]c1c([H])c([H])c2c(c1[H])C([H])([H])C([H])([H])C([H])([H])C2([H])N([H])C(=O)C1([H])N(C(=O)C([H])(N([H])C(=O)C([H])(N([H])C([H])([H])[H])C([H])([H])[H])C(C([H])([H])[H])(C([H])([H])[H])C([H])([H])[H])C([H])([H])c2c([H])c(ON([H])c3c([H])c([H])c(C([H])([H])C([H])([H])C([H])([H])Oc4c([H])c(F)c([H])c(N([H])C(=O)N5C([H])([H])C([H])([H])C([H])([H])C([H])(n6nc(-c7c([H])c([H])c(Oc8c([H])c([H])c(F)c([H])c8F)c([H])c7[H])c(C(=O)N([H])[H])c6N([H])[H])C5([H])[H])c4[H])c([H])c3[H])c([H])c([H])c2C1([H])[H]

>  <smiles>  (50) 
[H]c1c([H])c([H])c2c(c1[H])C([H])([H])C([H])([H])C([H])([H])C2([H])N([H])C(=O)C1([H])N(C(=O)C([H])(N([H])C(=O)C([H])(N([H])C([H])([H])[H])C([H])([H])[H])C(C([H])([H])[H])(C([H])([H])[H])C([H])([H])[H])C([H])([H])c2c([H])c(ON([H])c3c([H])c([H])c(C([H])([H])C([H])([H])C([H])([H])Oc4c([H])c(F)c([H])c(N([H])C(=O)N5C([H])([H])C([H])([H])C([H])([H])C([H])(n6nc(-c7c([H])c([H])c(Oc8c([H])c([H])c(F)c([H])c8F)c([H])c7[H])c(C(=O)N([H])[H])c6N([H])[H])C5([H])[H])c4[H])c([H])c3[H])c([H])c([H])c2C1([H])[H]

$$$$
50:0:0
     RDKit          3D

 91100  0  0  1  0  0  0  0  0999 V2000
  -29.2050  -24.4170   21.7210 C   0  0  0  0  0  2  0  0  0  0  0  0
  -29.2820  -22.8660   21.9110 C   0  0  0  0  0  2  0  0  0  0  0  0
  -28.3910  -23.3450   19.7840 C   0  0  0  0  0  2  0  0  0  0  0  0
  -28.1520  -24.7430   20.6430 C   0  0  0  0  0  3  0  0  0  0  0  0
  -29.0020  -22.2120   20.6290 N   0  0  0  0  0  0  0  0  0  0  0  0
  -30.2590  -19.9940   21.1420 C   0  0  0  0  0  3  0  0  0  0  0  0
  -30.4600  -18.5490   21.0980 C   0  0  0  0  0  3  0  0  0  0  0  0
  -28.3690  -19.8120   19.7630 C   0  0  0  0  0  3  0  0  0  0  0  0
  -29.2010  -20.7310   20.4880 C   0  0  0  0  0  0  0  0  0  0  0  0
  -29.5960  -17.6370   20.4060 C   0  0  0  0  0  0  0  0  0  0  0  0
  -28.5380  -18.3620   19.7470 C   0  0  0  0  0  0  0  0  0  0  0  0
  -27.6120  -17.6270   19.0850 F   0  0  0  0  0  0  0  0  0  0  0  0
  -30.4690  -14.9960   20.3510 C   0  0  0  0  0  0  0  0  0  0  0  0
  -30.4100  -12.6450   19.3920 C   0  0  0  0  0  2  0  0  0  0  0  0
  -29.4690  -12.5940   18.1640 C   0  0  0  0  0  2  0  0  0  0  0  0
  -28.0060  -12.3710   18.5980 C   0  0  0  0  0  2  0  0  0  0  0  0
  -27.5930  -13.2920   19.7760 C   0  0  0  0  0  3  0  0  0  0  0  0
  -28.6470  -13.2890   20.9030 C   0  0  0  0  0  2  0  0  0  0  0  0
  -29.9180  -13.7170   20.3000 N   0  0  0  0  0  0  0  0  0  0  0  0
  -31.6730  -15.1150   20.0920 O   0  0  0  0  0  0  0  0  0  0  0  0
  -29.5860  -16.1010   20.4670 N   0  0  0  0  0  0  0  0  0  0  0  0
  -28.6400  -15.7530   20.4890 H   0  0  0  0  0  0  0  0  0  0  0  0
  -25.2090  -13.8650   20.5130 C   0  0  0  0  0  0  0  0  0  0  0  0
  -24.1460  -13.0850   20.8780 C   0  0  0  0  0  0  0  0  0  0  0  0
  -24.6150  -11.7350   20.8430 C   0  0  0  0  0  0  0  0  0  0  0  0
  -26.2540  -12.9900   20.2690 N   0  0  0  0  0  0  0  0  0  0  0  0
  -25.9060  -11.7050   20.5350 N   0  0  0  0  0  0  0  0  0  0  0  0
  -23.8920  -10.4700   21.0270 C   0  0  0  0  0  0  0  0  0  0  0  0
  -24.3130   -9.5080   21.9710 C   0  0  0  0  0  3  0  0  0  0  0  0
  -23.5890   -8.3090   22.1420 C   0  0  0  0  0  3  0  0  0  0  0  0
  -22.4300   -8.0620   21.3690 C   0  0  0  0  0  0  0  0  0  0  0  0
  -22.0290   -9.0130   20.4130 C   0  0  0  0  0  3  0  0  0  0  0  0
  -22.7530  -10.2030   20.2400 C   0  0  0  0  0  3  0  0  0  0  0  0
  -21.6790   -6.9150   21.4480 O   0  0  0  0  0  0  0  0  0  0  0  0
  -21.6000   -6.1860   22.6080 C   0  0  0  0  0  0  0  0  0  0  0  0
  -21.1170   -6.7480   23.8110 C   0  0  0  0  0  3  0  0  0  0  0  0
  -20.9880   -5.9440   24.9600 C   0  0  0  0  0  3  0  0  0  0  0  0
  -21.3290   -4.5800   24.9090 C   0  0  0  0  0  0  0  0  0  0  0  0
  -21.8050   -4.0170   23.7110 C   0  0  0  0  0  3  0  0  0  0  0  0
  -21.9360   -4.8180   22.5630 C   0  0  0  0  0  0  0  0  0  0  0  0
  -22.3740   -4.2660   21.4060 F   0  0  0  0  0  0  0  0  0  0  0  0
  -21.1980   -3.8060   26.0110 F   0  0  0  0  0  0  0  0  0  0  0  0
  -22.7460  -13.5560   21.1450 C   0  0  0  0  0  0  0  0  0  0  0  0
  -22.0150  -12.8540   22.0020 N   0  0  0  0  0  0  0  0  0  0  0  0
  -22.3080  -14.5840   20.6290 O   0  0  0  0  0  0  0  0  0  0  0  0
  -22.3810  -12.0210   22.4410 H   0  0  0  0  0  0  0  0  0  0  0  0
  -21.0750  -13.1510   22.2240 H   0  0  0  0  0  0  0  0  0  0  0  0
  -25.3640  -15.2380   20.3410 N   0  0  0  0  0  0  0  0  0  0  0  0
  -24.5860  -15.8770   20.4650 H   0  0  0  0  0  0  0  0  0  0  0  0
  -26.1810  -15.6920   19.9530 H   0  0  0  0  0  0  0  0  0  0  0  0
  -28.2810  -26.2390   20.2200 O   0  0  0  0  0  0  0  0  0  0  0  0
  -24.6120  -31.8920   23.2410 C   0  0  0  0  0  0  0  0  0  0  0  0
  -27.1940  -27.1820   20.2270 C   0  0  0  0  0  0  0  0  0  0  0  0
  -23.4100  -30.4920   21.6040 C   0  0  0  0  0  3  0  0  0  0  0  0
  -24.8560  -28.9070   20.1890 C   0  0  0  0  0  0  0  0  0  0  0  0
  -25.9600  -30.7650   21.4290 C   0  0  0  0  0  2  0  0  0  0  0  0
  -26.0360  -29.3680   20.7870 C   0  0  0  0  0  0  0  0  0  0  0  0
  -27.2090  -28.5240   20.7820 C   0  0  0  0  0  3  0  0  0  0  0  0
  -25.9860  -26.8080   19.6040 C   0  0  0  0  0  3  0  0  0  0  0  0
  -24.8430  -27.6410   19.5820 C   0  0  0  0  0  3  0  0  0  0  0  0
  -23.6290  -29.8040   20.2290 C   0  0  0  0  0  2  0  0  0  0  0  0
  -24.6820  -31.0710   22.1480 N   0  0  0  0  0  0  0  0  0  0  0  0
  -23.5260  -32.1740   23.7700 O   0  0  0  0  0  0  0  0  0  0  0  0
  -22.7320  -29.4890   22.5720 C   0  0  0  0  0  0  0  0  0  0  0  0
  -21.4050  -29.3160   22.4440 N   0  0  0  0  0  0  0  0  0  0  0  0
  -23.4040  -28.8670   23.3990 O   0  0  0  0  0  0  0  0  0  0  0  0
  -20.9180  -29.8710   21.7540 H   0  0  0  0  0  0  0  0  0  0  0  0
  -18.0250  -28.1110   22.9460 C   0  0  0  0  0  0  0  0  0  0  0  0
  -20.5820  -28.3800   23.2170 C   0  0  0  0  0  3  0  0  0  0  0  0
  -20.6880  -26.9450   22.6490 C   0  0  0  0  0  2  0  0  0  0  0  0
  -19.5880  -26.6170   21.6340 C   0  0  0  0  0  2  0  0  0  0  0  0
  -18.2060  -26.7620   22.2740 C   0  0  0  0  0  2  0  0  0  0  0  0
  -19.1410  -28.8780   23.3750 C   0  0  0  0  0  0  0  0  0  0  0  0
  -18.9170  -30.1420   23.9650 C   0  0  0  0  0  3  0  0  0  0  0  0
  -17.6100  -30.6380   24.1290 C   0  0  0  0  0  3  0  0  0  0  0  0
  -16.5090  -29.8690   23.7150 C   0  0  0  0  0  3  0  0  0  0  0  0
  -16.7170  -28.6080   23.1300 C   0  0  0  0  0  3  0  0  0  0  0  0
  -25.8910  -32.5290   23.8660 C   0  0  0  0  0  3  0  0  0  0  0  0
  -25.5810  -33.9290   24.1950 N   0  0  0  0  0  0  0  0  0  0  0  0
  -25.9110  -34.9840   23.4370 C   0  0  0  0  0  0  0  0  0  0  0  0
  -26.5750  -34.8790   22.4020 O   0  0  0  0  0  0  0  0  0  0  0  0
  -24.9910  -34.0840   25.0000 H   0  0  0  0  0  0  0  0  0  0  0  0
  -24.1820  -36.7800   23.0960 C   0  0  0  0  0  1  0  0  0  0  0  0
  -25.4290  -36.3740   23.8980 C   0  0  0  0  0  3  0  0  0  0  0  0
  -27.5700  -37.2570   24.7130 C   0  0  0  0  0  1  0  0  0  0  0  0
  -26.4620  -37.4260   23.7780 N   0  0  0  0  0  0  0  0  0  0  0  0
  -26.0570  -38.3460   23.9310 H   0  0  0  0  0  0  0  0  0  0  0  0
  -26.3990  -31.7640   25.1500 C   0  0  1  0  0  0  0  0  0  0  0  0
  -25.3020  -31.5380   26.2170 C   0  0  0  0  0  1  0  0  0  0  0  0
  -26.9790  -30.3820   24.7710 C   0  0  0  0  0  1  0  0  0  0  0  0
  -27.5500  -32.5580   25.8120 C   0  0  0  0  0  1  0  0  0  0  0  0
  1  2  1  0
  3  5  1  0
  3  4  1  0
  4 51  1  0
  4  1  1  0
  5  2  1  0
  7  6  1  0
  8  9  1  0
  9  5  1  0
  9  6  2  0
 10 21  1  0
 10  7  2  0
 11  8  2  0
 11 10  1  0
 12 11  1  0
 13 21  1  0
 14 19  1  0
 15 16  1  0
 15 14  1  0
 17 16  1  0
 17 26  1  0
 17 18  1  0
 19 13  1  0
 19 18  1  0
 20 13  2  0
 21 22  1  0
 23 24  2  0
 24 43  1  0
 25 24  1  0
 25 28  1  0
 26 23  1  0
 26 27  1  0
 27 25  2  0
 28 29  1  0
 29 30  2  0
 31 34  1  0
 31 30  1  0
 32 31  2  0
 33 32  1  0
 33 28  2  0
 34 35  1  0
 35 36  1  0
 36 37  2  0
 38 37  1  0
 38 42  1  0
 39 38  2  0
 40 35  2  0
 40 39  1  0
 41 40  1  0
 43 44  1  0
 44 47  1  0
 44 46  1  0
 45 43  2  0
 48 49  1  0
 48 23  1  0
 50 48  1  0
 51 53  1  0
 52 63  2  0
 53 58  1  0
 54 62  1  0
 54 64  1  0
 55 61  1  0
 55 57  1  0
 56 62  1  0
 57 56  1  0
 58 57  2  0
 59 53  2  0
 60 59  1  0
 60 55  2  0
 61 54  1  0
 62 52  1  0
 64 66  2  0
 65 64  1  0
 67 65  1  0
 68 77  2  0
 68 73  1  0
 69 65  1  0
 69 73  1  0
 70 69  1  0
 71 72  1  0
 71 70  1  0
 72 68  1  0
 73 74  2  0
 74 75  1  0
 76 75  2  0
 77 76  1  0
 78 52  1  0
 78 79  1  0
 78 88  1  0
 79 82  1  0
 80 84  1  0
 80 79  1  0
 81 80  2  0
 84 83  1  0
 86 84  1  0
 86 87  1  0
 86 85  1  0
 88 91  1  1
 88 89  1  0
 90 88  1  0
M  ISO  4   4 101  13 100  21 100  51 101
M  END
>  <TORSDO>  (51) 
F 17

>  <SCORE>  (51) 
-15.443

>  <name>  (51) 
50

>  <ligand_id>  (51) 
50

>  <original_smiles>  (51) 
[H]c1c([H])c([H])c2c(c1[H])C([H])([H])C([H])([H])C([H])([H])C2([H])N([H])C(=O)C1([H])N(C(=O)C([H])(N([H])C(=O)C([H])(N([H])C([H])([H])[H])C([H])([H])[H])C(C([H])([H])[H])(C([H])([H])[H])C([H])([H])[H])C([H])([H])c2c([H])c(OC3([H])C([H])([H])N(c4c([H])c([H])c(N([H])C(=O)N5C([H])([H])C([H])([H])C([H])([H])C([H])(n6nc(-c7c([H])c([H])c(Oc8c([H])c([H])c(F)c([H])c8F)c([H])c7[H])c(C(=O)N([H])[H])c6N([H])[H])C5([H])[H])c(F)c4[H])C([H])([H])C3([H])[H])c([H])c([H])c2C1([H])[H]

>  <smiles>  (51) 
[H]c1c([H])c([H])c2c(c1[H])C([H])([H])C([H])([H])C([H])([H])C2([H])N([H])C(=O)C1([H])N(C(=O)C([H])(N([H])C(=O)C([H])(N([H])C([H])([H])[H])C([H])([H])[H])C(C([H])([H])[H])(C([H])([H])[H])C([H])([H])[H])C([H])([H])c2c([H])c(OC3([H])C([H])([H])N(c4c([H])c([H])c(N([H])C(=O)N5C([H])([H])C([H])([H])C([H])([H])C([H])(n6nc(-c7c([H])c([H])c(Oc8c([H])c([H])c(F)c([H])c8F)c([H])c7[H])c(C(=O)N([H])[H])c6N([H])[H])C5([H])[H])c(F)c4[H])C([H])([H])C3([H])[H])c([H])c([H])c2C1([H])[H]

$$$$
51:0:0
     RDKit          3D

 88 96  0  0  1  0  0  0  0  0999 V2000
  -28.8910  -19.7060   20.3590 C   0  0  0  0  0  0  0  0  0  0  0  0
  -31.6330  -20.1340   19.8760 C   0  0  0  0  0  2  0  0  0  0  0  0
  -31.2660  -18.7990   20.5810 C   0  0  0  0  0  2  0  0  0  0  0  0
  -30.7200  -21.3600   20.2110 C   0  0  0  0  0  2  0  0  0  0  0  0
  -29.8950  -18.2950   20.1020 C   0  0  0  0  0  3  0  0  0  0  0  0
  -29.2580  -21.1480   20.2690 N   0  0  0  0  0  0  0  0  0  0  0  0
  -27.7230  -19.4430   20.6520 O   0  0  0  0  0  0  0  0  0  0  0  0
  -30.4370  -15.3530   20.2170 C   0  0  0  0  0  0  0  0  0  0  0  0
  -30.3990  -12.9010   19.3390 C   0  0  0  0  0  2  0  0  0  0  0  0
  -29.4690  -12.6870   18.1180 C   0  0  0  0  0  2  0  0  0  0  0  0
  -28.0320  -12.3930   18.5800 C   0  0  0  0  0  2  0  0  0  0  0  0
  -27.5830  -13.3590   19.7050 C   0  0  0  0  0  3  0  0  0  0  0  0
  -28.6410  -13.5280   20.8180 C   0  0  0  0  0  2  0  0  0  0  0  0
  -29.8640  -14.0430   20.1770 N   0  0  0  0  0  0  0  0  0  0  0  0
  -31.6420  -15.3380   19.9250 O   0  0  0  0  0  0  0  0  0  0  0  0
  -29.7050  -16.6410   20.4040 N   0  0  0  0  0  0  0  0  0  0  0  0
  -28.7520  -16.4550   20.6780 H   0  0  0  0  0  0  0  0  0  0  0  0
  -25.2190  -13.9010   20.4860 C   0  0  0  0  0  0  0  0  0  0  0  0
  -24.1660  -13.1170   20.8640 C   0  0  0  0  0  0  0  0  0  0  0  0
  -24.6400  -11.7700   20.8230 C   0  0  0  0  0  0  0  0  0  0  0  0
  -26.2650  -13.0320   20.2270 N   0  0  0  0  0  0  0  0  0  0  0  0
  -25.9290  -11.7430   20.4990 N   0  0  0  0  0  0  0  0  0  0  0  0
  -23.9210  -10.5020   21.0150 C   0  0  0  0  0  0  0  0  0  0  0  0
  -24.3610   -9.5330   21.9430 C   0  0  0  0  0  3  0  0  0  0  0  0
  -23.6370   -8.3340   22.1230 C   0  0  0  0  0  3  0  0  0  0  0  0
  -22.4590   -8.0960   21.3760 C   0  0  0  0  0  0  0  0  0  0  0  0
  -22.0370   -9.0540   20.4380 C   0  0  0  0  0  3  0  0  0  0  0  0
  -22.7620  -10.2440   20.2560 C   0  0  0  0  0  3  0  0  0  0  0  0
  -21.7070   -6.9500   21.4680 O   0  0  0  0  0  0  0  0  0  0  0  0
  -21.6650   -6.2070   22.6210 C   0  0  0  0  0  0  0  0  0  0  0  0
  -21.2350   -6.7600   23.8460 C   0  0  0  0  0  3  0  0  0  0  0  0
  -21.1390   -5.9430   24.9910 C   0  0  0  0  0  3  0  0  0  0  0  0
  -21.4630   -4.5760   24.9100 C   0  0  0  0  0  0  0  0  0  0  0  0
  -21.8860   -4.0230   23.6890 C   0  0  0  0  0  3  0  0  0  0  0  0
  -21.9840   -4.8370   22.5470 C   0  0  0  0  0  0  0  0  0  0  0  0
  -22.3730   -4.2940   21.3670 F   0  0  0  0  0  0  0  0  0  0  0  0
  -21.3630   -3.7890   26.0070 F   0  0  0  0  0  0  0  0  0  0  0  0
  -22.7690  -13.5880   21.1420 C   0  0  0  0  0  0  0  0  0  0  0  0
  -22.0460  -12.8890   22.0110 N   0  0  0  0  0  0  0  0  0  0  0  0
  -22.3270  -14.6140   20.6260 O   0  0  0  0  0  0  0  0  0  0  0  0
  -22.4150  -12.0600   22.4500 H   0  0  0  0  0  0  0  0  0  0  0  0
  -21.1110  -13.1930   22.2410 H   0  0  0  0  0  0  0  0  0  0  0  0
  -25.3720  -15.2740   20.3100 N   0  0  0  0  0  0  0  0  0  0  0  0
  -24.5940  -15.9160   20.4160 H   0  0  0  0  0  0  0  0  0  0  0  0
  -26.2000  -15.7160   19.9340 H   0  0  0  0  0  0  0  0  0  0  0  0
  -28.5280  -22.6210   20.6800 C   0  0  0  0  0  2  0  0  0  0  0  0
  -28.2790  -24.2490   19.9040 C   0  0  0  0  0  2  0  0  0  0  0  0
  -28.2130  -25.8440   20.3870 O   0  0  0  0  0  0  0  0  0  0  0  0
  -24.6040  -31.8470   23.2150 C   0  0  0  0  0  0  0  0  0  0  0  0
  -27.1920  -26.9350   20.2510 C   0  0  0  0  0  0  0  0  0  0  0  0
  -23.4230  -30.4350   21.5820 C   0  0  0  0  0  3  0  0  0  0  0  0
  -24.8850  -28.8170   20.1760 C   0  0  0  0  0  0  0  0  0  0  0  0
  -25.9900  -30.6450   21.4490 C   0  0  0  0  0  2  0  0  0  0  0  0
  -26.0670  -29.2290   20.8040 C   0  0  0  0  0  0  0  0  0  0  0  0
  -27.2080  -28.3070   20.8190 C   0  0  0  0  0  3  0  0  0  0  0  0
  -25.9820  -26.6800   19.5670 C   0  0  0  0  0  3  0  0  0  0  0  0
  -24.8690  -27.5650   19.5380 C   0  0  0  0  0  3  0  0  0  0  0  0
  -23.6620  -29.7380   20.2120 C   0  0  0  0  0  2  0  0  0  0  0  0
  -24.6950  -31.0050   22.1350 N   0  0  0  0  0  0  0  0  0  0  0  0
  -23.5120  -32.1400   23.7270 O   0  0  0  0  0  0  0  0  0  0  0  0
  -22.7240  -29.4480   22.5540 C   0  0  0  0  0  0  0  0  0  0  0  0
  -21.3930  -29.2890   22.4330 N   0  0  0  0  0  0  0  0  0  0  0  0
  -23.3870  -28.8230   23.3850 O   0  0  0  0  0  0  0  0  0  0  0  0
  -20.9080  -29.8440   21.7400 H   0  0  0  0  0  0  0  0  0  0  0  0
  -18.0060  -28.1000   22.9590 C   0  0  0  0  0  0  0  0  0  0  0  0
  -20.5680  -28.3570   23.2100 C   0  0  0  0  0  3  0  0  0  0  0  0
  -20.6610  -26.9230   22.6390 C   0  0  0  0  0  2  0  0  0  0  0  0
  -19.5540  -26.6020   21.6300 C   0  0  0  0  0  2  0  0  0  0  0  0
  -18.1770  -26.7500   22.2800 C   0  0  0  0  0  2  0  0  0  0  0  0
  -19.1280  -28.8610   23.3800 C   0  0  0  0  0  0  0  0  0  0  0  0
  -18.9130  -30.1210   23.9790 C   0  0  0  0  0  3  0  0  0  0  0  0
  -17.6090  -30.6220   24.1550 C   0  0  0  0  0  3  0  0  0  0  0  0
  -16.5020  -29.8590   23.7460 C   0  0  0  0  0  3  0  0  0  0  0  0
  -16.7010  -28.5990   23.1540 C   0  0  0  0  0  3  0  0  0  0  0  0
  -25.8690  -32.5000   23.8500 C   0  0  0  0  0  3  0  0  0  0  0  0
  -25.5480  -33.9030   24.1660 N   0  0  0  0  0  0  0  0  0  0  0  0
  -25.8880  -34.9590   23.4150 C   0  0  0  0  0  0  0  0  0  0  0  0
  -26.5660  -34.8550   22.3910 O   0  0  0  0  0  0  0  0  0  0  0  0
  -24.9430  -34.0560   24.9600 H   0  0  0  0  0  0  0  0  0  0  0  0
  -24.1650  -36.7620   23.0500 C   0  0  0  0  0  1  0  0  0  0  0  0
  -25.3990  -36.3500   23.8690 C   0  0  0  0  0  3  0  0  0  0  0  0
  -27.5260  -37.2400   24.7190 C   0  0  0  0  0  1  0  0  0  0  0  0
  -26.4340  -37.4030   23.7640 N   0  0  0  0  0  0  0  0  0  0  0  0
  -26.0260  -38.3230   23.9020 H   0  0  0  0  0  0  0  0  0  0  0  0
  -26.3660  -31.7530   25.1490 C   0  0  1  0  0  0  0  0  0  0  0  0
  -25.2580  -31.5370   26.2070 C   0  0  0  0  0  1  0  0  0  0  0  0
  -26.9530  -30.3660   24.8000 C   0  0  0  0  0  1  0  0  0  0  0  0
  -27.5080  -32.5600   25.8130 C   0  0  0  0  0  1  0  0  0  0  0  0
  1  7  2  0
  2  4  1  0
  2  3  1  0
  4  6  1  0
  5  1  1  0
  5 16  1  0
  5  3  1  0
  6  1  1  0
  6 46  1  0
  8 16  1  0
  9 14  1  0
 10 11  1  0
 10  9  1  0
 12 11  1  0
 12 21  1  0
 12 13  1  0
 14  8  1  0
 14 13  1  0
 15  8  2  0
 16 17  1  0
 18 19  2  0
 19 38  1  0
 20 19  1  0
 20 23  1  0
 21 18  1  0
 21 22  1  0
 22 20  2  0
 23 24  1  0
 24 25  2  0
 26 29  1  0
 26 25  1  0
 27 26  2  0
 28 27  1  0
 28 23  2  0
 29 30  1  0
 30 31  1  0
 31 32  2  0
 33 32  1  0
 33 37  1  0
 34 33  2  0
 35 30  2  0
 35 34  1  0
 36 35  1  0
 38 39  1  0
 39 42  1  0
 39 41  1  0
 40 38  2  0
 43 44  1  0
 43 18  1  0
 45 43  1  0
 47 48  1  0
 47 46  1  0
 49 60  2  0
 50 48  1  0
 50 55  1  0
 51 59  1  0
 51 61  1  0
 52 58  1  0
 52 54  1  0
 53 59  1  0
 54 55  2  0
 54 53  1  0
 56 50  2  0
 57 56  1  0
 57 52  2  0
 58 51  1  0
 59 49  1  0
 61 63  2  0
 62 61  1  0
 64 62  1  0
 65 74  2  0
 65 70  1  0
 66 62  1  0
 66 70  1  0
 67 66  1  0
 68 69  1  0
 68 67  1  0
 69 65  1  0
 70 71  2  0
 71 72  1  0
 73 72  2  0
 74 73  1  0
 75 49  1  0
 75 76  1  0
 75 85  1  0
 76 79  1  0
 77 81  1  0
 77 76  1  0
 78 77  2  0
 81 80  1  0
 83 81  1  0
 83 84  1  0
 83 82  1  0
 85 88  1  1
 85 86  1  0
 87 85  1  0
M  ISO  4   8 100  16 100  47 101  48 101
M  END
>  <TORSDO>  (52) 
F 18

>  <SCORE>  (52) 
-16.614

>  <name>  (52) 
51

>  <ligand_id>  (52) 
51

>  <original_smiles>  (52) 
[H]c1c([H])c([H])c2c(c1[H])C([H])([H])C([H])([H])C([H])([H])C2([H])N([H])C(=O)C1([H])N(C(=O)C([H])(N([H])C(=O)C([H])(N([H])C([H])([H])[H])C([H])([H])[H])C(C([H])([H])[H])(C([H])([H])[H])C([H])([H])[H])C([H])([H])c2c([H])c(OC([H])([H])C([H])([H])N3C(=O)C([H])(N([H])C(=O)N4C([H])([H])C([H])([H])C([H])([H])C([H])(n5nc(-c6c([H])c([H])c(Oc7c([H])c([H])c(F)c([H])c7F)c([H])c6[H])c(C(=O)N([H])[H])c5N([H])[H])C4([H])[H])C([H])([H])C([H])([H])C3([H])[H])c([H])c([H])c2C1([H])[H]

>  <smiles>  (52) 
[H]c1c([H])c([H])c2c(c1[H])C([H])([H])C([H])([H])C([H])([H])C2([H])N([H])C(=O)C1([H])N(C(=O)C([H])(N([H])C(=O)C([H])(N([H])C([H])([H])[H])C([H])([H])[H])C(C([H])([H])[H])(C([H])([H])[H])C([H])([H])[H])C([H])([H])c2c([H])c(OC([H])([H])C([H])([H])N3C(=O)C([H])(N([H])C(=O)N4C([H])([H])C([H])([H])C([H])([H])C([H])(n5nc(-c6c([H])c([H])c(Oc7c([H])c([H])c(F)c([H])c7F)c([H])c6[H])c(C(=O)N([H])[H])c5N([H])[H])C4([H])[H])C([H])([H])C([H])([H])C3([H])[H])c([H])c([H])c2C1([H])[H]

$$$$
52:0:0
     RDKit          3D

 93101  0  0  1  0  0  0  0  0999 V2000
  -28.5940  -20.7300   20.9820 C   0  0  0  0  0  0  0  0  0  0  0  0
  -29.2120  -21.8690   20.5990 N   0  0  0  0  0  0  0  0  0  0  0  0
  -27.4790  -20.7550   21.5110 O   0  0  0  0  0  0  0  0  0  0  0  0
  -30.1140  -21.7810   20.1490 H   0  0  0  0  0  0  0  0  0  0  0  0
  -30.6430  -19.2240   21.2530 C   0  0  0  0  0  3  0  0  0  0  0  0
  -31.2380  -17.9390   21.2860 C   0  0  0  0  0  3  0  0  0  0  0  0
  -29.2150  -16.9720   20.3630 C   0  0  0  0  0  3  0  0  0  0  0  0
  -29.3100  -19.4010   20.8040 C   0  0  0  0  0  0  0  0  0  0  0  0
  -30.5260  -16.7950   20.8530 C   0  0  0  0  0  0  0  0  0  0  0  0
  -28.6150  -18.2540   20.3340 C   0  0  0  0  0  0  0  0  0  0  0  0
  -27.3400  -18.3520   19.8810 F   0  0  0  0  0  0  0  0  0  0  0  0
  -31.3940  -14.6330   20.0800 C   0  0  0  0  0  0  0  0  0  0  0  0
  -30.9540  -12.4790   18.9420 C   0  0  0  0  0  2  0  0  0  0  0  0
  -29.9690  -12.6560   17.7720 C   0  0  0  0  0  2  0  0  0  0  0  0
  -28.5140  -12.5540   18.2660 C   0  0  0  0  0  2  0  0  0  0  0  0
  -28.2440  -13.4440   19.5080 C   0  0  0  0  0  3  0  0  0  0  0  0
  -29.3370  -13.2500   20.5830 C   0  0  0  0  0  2  0  0  0  0  0  0
  -30.6470  -13.4990   19.9620 N   0  0  0  0  0  0  0  0  0  0  0  0
  -32.4180  -14.8270   19.4180 O   0  0  0  0  0  0  0  0  0  0  0  0
  -31.0660  -15.4870   21.0660 N   0  0  0  0  0  0  0  0  0  0  0  0
  -31.8770  -15.5560   21.6640 H   0  0  0  0  0  0  0  0  0  0  0  0
  -25.9140  -14.1320   20.3650 C   0  0  0  0  0  0  0  0  0  0  0  0
  -24.8340  -13.3970   20.7710 C   0  0  0  0  0  0  0  0  0  0  0  0
  -25.2260  -12.0270   20.6630 C   0  0  0  0  0  0  0  0  0  0  0  0
  -26.9040  -13.2140   20.0480 N   0  0  0  0  0  0  0  0  0  0  0  0
  -26.4940  -11.9400   20.2810 N   0  0  0  0  0  0  0  0  0  0  0  0
  -24.4490  -10.7950   20.8440 C   0  0  0  0  0  0  0  0  0  0  0  0
  -24.8040   -9.8340   21.8150 C   0  0  0  0  0  3  0  0  0  0  0  0
  -24.0290   -8.6660   21.9830 C   0  0  0  0  0  3  0  0  0  0  0  0
  -22.8850   -8.4510   21.1780 C   0  0  0  0  0  0  0  0  0  0  0  0
  -22.5500   -9.4010   20.1960 C   0  0  0  0  0  3  0  0  0  0  0  0
  -23.3250  -10.5590   20.0270 C   0  0  0  0  0  3  0  0  0  0  0  0
  -22.0890   -7.3340   21.2520 O   0  0  0  0  0  0  0  0  0  0  0  0
  -21.8480   -6.7000   22.4450 C   0  0  0  0  0  0  0  0  0  0  0  0
  -21.2590   -7.3700   23.5390 C   0  0  0  0  0  3  0  0  0  0  0  0
  -20.9660   -6.6630   24.7230 C   0  0  0  0  0  3  0  0  0  0  0  0
  -21.2500   -5.2860   24.8100 C   0  0  0  0  0  0  0  0  0  0  0  0
  -21.8320   -4.6160   23.7200 C   0  0  0  0  0  3  0  0  0  0  0  0
  -22.1270   -5.3210   22.5390 C   0  0  0  0  0  0  0  0  0  0  0  0
  -22.6670   -4.6660   21.4830 F   0  0  0  0  0  0  0  0  0  0  0  0
  -20.9620   -4.6050   25.9440 F   0  0  0  0  0  0  0  0  0  0  0  0
  -23.4790  -13.9300   21.1390 C   0  0  0  0  0  0  0  0  0  0  0  0
  -22.7760  -13.2500   22.0380 N   0  0  0  0  0  0  0  0  0  0  0  0
  -23.0550  -14.9820   20.6650 O   0  0  0  0  0  0  0  0  0  0  0  0
  -23.1340  -12.3990   22.4470 H   0  0  0  0  0  0  0  0  0  0  0  0
  -21.8690  -13.5890   22.3270 H   0  0  0  0  0  0  0  0  0  0  0  0
  -26.1270  -15.4970   20.2130 N   0  0  0  0  0  0  0  0  0  0  0  0
  -25.3940  -16.1770   20.3850 H   0  0  0  0  0  0  0  0  0  0  0  0
  -26.9540  -15.9100   19.8030 H   0  0  0  0  0  0  0  0  0  0  0  0
  -28.7810  -23.2180   21.0340 C   0  0  0  0  0  2  0  0  0  0  0  0
  -28.9070  -24.3640   19.9910 C   0  0  0  0  0  2  0  0  0  0  0  0
  -28.6040  -25.7510   20.6320 C   0  0  0  0  0  2  0  0  0  0  0  0
  -28.5400  -26.8560   19.7110 O   0  0  0  0  0  0  0  0  0  0  0  0
  -24.5340  -31.7610   23.0030 C   0  0  0  0  0  0  0  0  0  0  0  0
  -27.3580  -27.5620   19.7490 C   0  0  0  0  0  0  0  0  0  0  0  0
  -23.3840  -30.3720   21.3110 C   0  0  0  0  0  3  0  0  0  0  0  0
  -24.9000  -28.9560   19.8240 C   0  0  0  0  0  0  0  0  0  0  0  0
  -25.8890  -30.8540   21.1160 C   0  0  0  0  0  2  0  0  0  0  0  0
  -26.0360  -29.5120   20.4260 C   0  0  0  0  0  0  0  0  0  0  0  0
  -27.2720  -28.8240   20.3850 C   0  0  0  0  0  3  0  0  0  0  0  0
  -26.2080  -27.0190   19.1430 C   0  0  0  0  0  3  0  0  0  0  0  0
  -24.9810  -27.7090   19.1780 C   0  0  0  0  0  3  0  0  0  0  0  0
  -23.6160  -29.7540   19.9050 C   0  0  0  0  0  2  0  0  0  0  0  0
  -24.6200  -31.0090   21.8690 N   0  0  0  0  0  0  0  0  0  0  0  0
  -23.4450  -31.9610   23.5590 O   0  0  0  0  0  0  0  0  0  0  0  0
  -22.7850  -29.2860   22.2350 C   0  0  0  0  0  0  0  0  0  0  0  0
  -21.4640  -29.0670   22.1240 N   0  0  0  0  0  0  0  0  0  0  0  0
  -23.5050  -28.6460   23.0050 O   0  0  0  0  0  0  0  0  0  0  0  0
  -20.9430  -29.6400   21.4740 H   0  0  0  0  0  0  0  0  0  0  0  0
  -18.1320  -27.7760   22.6620 C   0  0  0  0  0  0  0  0  0  0  0  0
  -20.6940  -28.0690   22.8630 C   0  0  0  0  0  3  0  0  0  0  0  0
  -20.8020  -26.6780   22.1970 C   0  0  0  0  0  2  0  0  0  0  0  0
  -19.6710  -26.3960   21.2030 C   0  0  0  0  0  2  0  0  0  0  0  0
  -18.3090  -26.4740   21.9000 C   0  0  0  0  0  2  0  0  0  0  0  0
  -19.2520  -28.5330   23.1010 C   0  0  0  0  0  0  0  0  0  0  0  0
  -19.0310  -29.7550   23.7730 C   0  0  0  0  0  3  0  0  0  0  0  0
  -17.7240  -30.2200   24.0120 C   0  0  0  0  0  3  0  0  0  0  0  0
  -16.6200  -29.4590   23.5890 C   0  0  0  0  0  3  0  0  0  0  0  0
  -16.8250  -28.2390   22.9190 C   0  0  0  0  0  3  0  0  0  0  0  0
  -25.7930  -32.4250   23.6430 C   0  0  0  0  0  3  0  0  0  0  0  0
  -26.3610  -31.6220   24.8770 C   0  0  1  0  0  0  0  0  0  0  0  0
  -25.2880  -31.2590   25.9290 C   0  0  0  0  0  1  0  0  0  0  0  0
  -27.0280  -30.3080   24.4080 C   0  0  0  0  0  1  0  0  0  0  0  0
  -27.4590  -32.4520   25.5810 C   0  0  0  0  0  1  0  0  0  0  0  0
  -25.4200  -33.7900   24.0380 N   0  0  0  0  0  0  0  0  0  0  0  0
  -25.6880  -34.8900   23.3230 C   0  0  0  0  0  0  0  0  0  0  0  0
  -26.3470  -34.8650   22.2790 O   0  0  0  0  0  0  0  0  0  0  0  0
  -24.8310  -33.8780   24.8530 H   0  0  0  0  0  0  0  0  0  0  0  0
  -23.8660  -36.6040   23.0720 C   0  0  0  0  0  1  0  0  0  0  0  0
  -25.1390  -36.2300   23.8470 C   0  0  0  0  0  3  0  0  0  0  0  0
  -27.2370  -37.1880   24.6890 C   0  0  0  0  0  1  0  0  0  0  0  0
  -26.1140  -37.3380   23.7670 N   0  0  0  0  0  0  0  0  0  0  0  0
  -25.6640  -38.2300   23.9580 H   0  0  0  0  0  0  0  0  0  0  0  0
  1  3  2  0
  2  1  1  0
  2 50  1  0
  4  2  1  0
  5  6  1  0
  7  9  1  0
  8  1  1  0
  8  5  2  0
  9 20  1  0
  9  6  2  0
 10  7  2  0
 10  8  1  0
 11 10  1  0
 12 20  1  0
 13 18  1  0
 14 15  1  0
 14 13  1  0
 16 15  1  0
 16 25  1  0
 16 17  1  0
 18 12  1  0
 18 17  1  0
 19 12  2  0
 20 21  1  0
 22 23  2  0
 23 42  1  0
 24 23  1  0
 24 27  1  0
 25 26  1  0
 25 22  1  0
 26 24  2  0
 27 28  1  0
 28 29  2  0
 30 33  1  0
 30 29  1  0
 31 30  2  0
 32 31  1  0
 32 27  2  0
 33 34  1  0
 34 39  2  0
 34 35  1  0
 35 36  2  0
 36 37  1  0
 37 41  1  0
 38 37  2  0
 39 38  1  0
 40 39  1  0
 42 43  1  0
 43 46  1  0
 43 45  1  0
 44 42  2  0
 47 22  1  0
 47 48  1  0
 49 47  1  0
 51 52  1  0
 51 50  1  0
 53 55  1  0
 53 52  1  0
 54 65  2  0
 55 60  1  0
 56 64  1  0
 56 66  1  0
 57 63  1  0
 57 59  1  0
 58 64  1  0
 59 58  1  0
 60 59  2  0
 61 62  1  0
 61 55  2  0
 62 57  2  0
 63 56  1  0
 64 54  1  0
 66 68  2  0
 67 66  1  0
 69 67  1  0
 70 79  2  0
 70 75  1  0
 71 67  1  0
 71 75  1  0
 72 71  1  0
 73 74  1  0
 73 72  1  0
 74 70  1  0
 75 76  2  0
 76 77  1  0
 78 77  2  0
 79 78  1  0
 80 54  1  0
 80 85  1  0
 80 81  1  0
 81 84  1  1
 81 82  1  0
 83 81  1  0
 85 88  1  0
 86 90  1  0
 86 85  1  0
 87 86  2  0
 90 89  1  0
 92 90  1  0
 92 93  1  0
 92 91  1  0
M  ISO  4  12 100  20 100  52 101  53 101
M  END
>  <TORSDO>  (53) 
F 20

>  <SCORE>  (53) 
-12.365

>  <name>  (53) 
52

>  <ligand_id>  (53) 
52

>  <original_smiles>  (53) 
[H]c1c([H])c([H])c2c(c1[H])C([H])([H])C([H])([H])C([H])([H])C2([H])N([H])C(=O)C1([H])N(C(=O)C([H])(N([H])C(=O)C([H])(N([H])C([H])([H])[H])C([H])([H])[H])C(C([H])([H])[H])(C([H])([H])[H])C([H])([H])[H])C([H])([H])c2c([H])c(OC([H])([H])C([H])([H])C([H])([H])N([H])C(=O)c3c([H])c([H])c(N([H])C(=O)N4C([H])([H])C([H])([H])C([H])([H])C([H])(n5nc(-c6c([H])c([H])c(Oc7c([H])c([H])c(F)c([H])c7F)c([H])c6[H])c(C(=O)N([H])[H])c5N([H])[H])C4([H])[H])c([H])c3F)c([H])c([H])c2C1([H])[H]

>  <smiles>  (53) 
[H]c1c([H])c([H])c2c(c1[H])C([H])([H])C([H])([H])C([H])([H])C2([H])N([H])C(=O)C1([H])N(C(=O)C([H])(N([H])C(=O)C([H])(N([H])C([H])([H])[H])C([H])([H])[H])C(C([H])([H])[H])(C([H])([H])[H])C([H])([H])[H])C([H])([H])c2c([H])c(OC([H])([H])C([H])([H])C([H])([H])N([H])C(=O)c3c([H])c([H])c(N([H])C(=O)N4C([H])([H])C([H])([H])C([H])([H])C([H])(n5nc(-c6c([H])c([H])c(Oc7c([H])c([H])c(F)c([H])c7F)c([H])c6[H])c(C(=O)N([H])[H])c5N([H])[H])C4([H])[H])c([H])c3F)c([H])c([H])c2C1([H])[H]

$$$$
53:0:0
     RDKit          3D

 90 98  0  0  1  0  0  0  0  0999 V2000
  -30.2870  -20.5940   19.5200 C   0  0  0  0  0  3  0  0  0  0  0  0
  -28.0600  -20.3310   19.9660 C   0  0  0  0  0  3  0  0  0  0  0  0
  -29.0470  -21.3560   19.6700 C   0  0  0  0  0  0  0  0  0  0  0  0
  -30.5290  -19.1260   19.6220 C   0  0  0  0  0  0  0  0  0  0  0  0
  -28.2740  -18.8570   20.0750 C   0  0  0  0  0  0  0  0  0  0  0  0
  -29.5290  -18.1020   19.9130 C   0  0  0  0  0  0  0  0  0  0  0  0
  -31.9550  -18.6610   19.3910 C   0  0  0  0  0  1  0  0  0  0  0  0
  -27.0360  -18.0370   20.3960 C   0  0  0  0  0  1  0  0  0  0  0  0
  -30.4490  -15.2850   19.7540 C   0  0  0  0  0  0  0  0  0  0  0  0
  -30.4240  -12.8350   18.8990 C   0  0  0  0  0  2  0  0  0  0  0  0
  -29.4120  -12.6160   17.7430 C   0  0  0  0  0  2  0  0  0  0  0  0
  -28.0060  -12.3220   18.2940 C   0  0  0  0  0  2  0  0  0  0  0  0
  -27.6250  -13.2850   19.4430 C   0  0  0  0  0  3  0  0  0  0  0  0
  -28.7520  -13.4430   20.4870 C   0  0  0  0  0  2  0  0  0  0  0  0
  -29.9320  -13.9590   19.7730 N   0  0  0  0  0  0  0  0  0  0  0  0
  -31.6330  -15.3400   19.3920 O   0  0  0  0  0  0  0  0  0  0  0  0
  -29.6130  -16.4820   19.9930 N   0  0  0  0  0  0  0  0  0  0  0  0
  -28.7340  -16.1310   20.3360 H   0  0  0  0  0  0  0  0  0  0  0  0
  -25.3250  -13.8170   20.4120 C   0  0  0  0  0  0  0  0  0  0  0  0
  -24.2980  -13.0270   20.8460 C   0  0  0  0  0  0  0  0  0  0  0  0
  -24.7560  -11.6790   20.7230 C   0  0  0  0  0  0  0  0  0  0  0  0
  -26.3420  -12.9520   20.0490 N   0  0  0  0  0  0  0  0  0  0  0  0
  -26.0170  -11.6560   20.3040 N   0  0  0  0  0  0  0  0  0  0  0  0
  -24.0420  -10.4120   20.9230 C   0  0  0  0  0  0  0  0  0  0  0  0
  -24.4900   -9.4480   21.8510 C   0  0  0  0  0  3  0  0  0  0  0  0
  -23.7720   -8.2480   22.0420 C   0  0  0  0  0  3  0  0  0  0  0  0
  -22.5920   -8.0020   21.3020 C   0  0  0  0  0  0  0  0  0  0  0  0
  -22.1610   -8.9550   20.3610 C   0  0  0  0  0  3  0  0  0  0  0  0
  -22.8800  -10.1470   20.1690 C   0  0  0  0  0  3  0  0  0  0  0  0
  -21.8440   -6.8530   21.4010 O   0  0  0  0  0  0  0  0  0  0  0  0
  -21.7390   -6.1610   22.5810 C   0  0  0  0  0  0  0  0  0  0  0  0
  -21.2140   -6.7560   23.7500 C   0  0  0  0  0  3  0  0  0  0  0  0
  -21.0590   -5.9890   24.9210 C   0  0  0  0  0  3  0  0  0  0  0  0
  -21.4220   -4.6290   24.9260 C   0  0  0  0  0  0  0  0  0  0  0  0
  -21.9420   -4.0340   23.7630 C   0  0  0  0  0  3  0  0  0  0  0  0
  -22.0980   -4.7980   22.5940 C   0  0  0  0  0  0  0  0  0  0  0  0
  -22.5780   -4.2140   21.4700 F   0  0  0  0  0  0  0  0  0  0  0  0
  -21.2670   -3.8890   26.0500 F   0  0  0  0  0  0  0  0  0  0  0  0
  -22.9310  -13.4940   21.2490 C   0  0  0  0  0  0  0  0  0  0  0  0
  -22.2820  -12.7810   22.1620 N   0  0  0  0  0  0  0  0  0  0  0  0
  -22.4500  -14.5300   20.7910 O   0  0  0  0  0  0  0  0  0  0  0  0
  -22.6840  -11.9440   22.5580 H   0  0  0  0  0  0  0  0  0  0  0  0
  -21.3690  -13.0810   22.4730 H   0  0  0  0  0  0  0  0  0  0  0  0
  -25.4680  -15.1920   20.2580 N   0  0  0  0  0  0  0  0  0  0  0  0
  -24.6800  -15.8160   20.3920 H   0  0  0  0  0  0  0  0  0  0  0  0
  -26.2350  -15.6270   19.7660 H   0  0  0  0  0  0  0  0  0  0  0  0
  -28.9630  -23.1080   19.5720 C   0  0  0  0  0  2  0  0  0  0  0  0
  -27.8000  -24.2390   19.6470 N   0  0  0  0  0  0  0  0  0  0  0  0
  -27.3290  -24.1330   20.5420 H   0  0  0  0  0  0  0  0  0  0  0  0
  -28.1620  -25.8880   19.5460 O   0  0  0  0  0  0  0  0  0  0  0  0
  -24.6310  -31.6280   22.9680 C   0  0  0  0  0  0  0  0  0  0  0  0
  -27.1220  -26.9460   19.6330 C   0  0  0  0  0  0  0  0  0  0  0  0
  -23.4030  -30.3320   21.2730 C   0  0  0  0  0  3  0  0  0  0  0  0
  -24.8230  -28.8140   19.7330 C   0  0  0  0  0  0  0  0  0  0  0  0
  -25.9660  -30.5540   21.0910 C   0  0  0  0  0  2  0  0  0  0  0  0
  -26.0200  -29.1840   20.3580 C   0  0  0  0  0  0  0  0  0  0  0  0
  -27.1610  -28.2690   20.2890 C   0  0  0  0  0  3  0  0  0  0  0  0
  -25.8970  -26.7240   18.9660 C   0  0  0  0  0  3  0  0  0  0  0  0
  -24.7830  -27.6030   19.0200 C   0  0  0  0  0  3  0  0  0  0  0  0
  -23.6060  -29.7300   19.8550 C   0  0  0  0  0  2  0  0  0  0  0  0
  -24.6900  -30.8610   21.8330 N   0  0  0  0  0  0  0  0  0  0  0  0
  -23.5520  -31.8890   23.5260 O   0  0  0  0  0  0  0  0  0  0  0  0
  -22.7270  -29.2810   22.1920 C   0  0  0  0  0  0  0  0  0  0  0  0
  -21.3900  -29.1510   22.1060 N   0  0  0  0  0  0  0  0  0  0  0  0
  -23.4100  -28.5880   22.9480 O   0  0  0  0  0  0  0  0  0  0  0  0
  -20.8900  -29.7600   21.4740 H   0  0  0  0  0  0  0  0  0  0  0  0
  -17.9960  -28.0200   22.7090 C   0  0  0  0  0  0  0  0  0  0  0  0
  -20.5760  -28.1750   22.8400 C   0  0  0  0  0  3  0  0  0  0  0  0
  -20.5900  -26.7980   22.1360 C   0  0  0  0  0  2  0  0  0  0  0  0
  -19.4200  -26.6050   21.1670 C   0  0  0  0  0  2  0  0  0  0  0  0
  -18.0830  -26.7350   21.9040 C   0  0  0  0  0  2  0  0  0  0  0  0
  -19.1660  -28.7040   23.1360 C   0  0  0  0  0  0  0  0  0  0  0  0
  -19.0290  -29.9100   23.8550 C   0  0  0  0  0  3  0  0  0  0  0  0
  -17.7550  -30.4310   24.1530 C   0  0  0  0  0  3  0  0  0  0  0  0
  -16.6000  -29.7410   23.7410 C   0  0  0  0  0  3  0  0  0  0  0  0
  -16.7220  -28.5380   23.0240 C   0  0  0  0  0  3  0  0  0  0  0  0
  -25.9160  -32.2300   23.6140 C   0  0  0  0  0  3  0  0  0  0  0  0
  -25.6070  -33.6050   24.0440 N   0  0  0  0  0  0  0  0  0  0  0  0
  -25.9170  -34.7130   23.3570 C   0  0  0  0  0  0  0  0  0  0  0  0
  -26.5590  -34.6850   22.3040 O   0  0  0  0  0  0  0  0  0  0  0  0
  -25.0330  -33.7020   24.8690 H   0  0  0  0  0  0  0  0  0  0  0  0
  -24.1750  -36.5240   23.1970 C   0  0  0  0  0  1  0  0  0  0  0  0
  -25.4450  -36.0640   23.9300 C   0  0  0  0  0  3  0  0  0  0  0  0
  -27.6010  -36.9050   24.7550 C   0  0  0  0  0  1  0  0  0  0  0  0
  -26.4710  -37.1290   23.8560 N   0  0  0  0  0  0  0  0  0  0  0  0
  -26.0650  -38.0330   24.0790 H   0  0  0  0  0  0  0  0  0  0  0  0
  -26.4480  -31.3870   24.8380 C   0  0  1  0  0  0  0  0  0  0  0  0
  -25.3720  -31.0980   25.9080 C   0  0  0  0  0  1  0  0  0  0  0  0
  -27.0200  -30.0300   24.3660 C   0  0  0  0  0  1  0  0  0  0  0  0
  -27.6140  -32.1370   25.5240 C   0  0  0  0  0  1  0  0  0  0  0  0
  1  4  2  0
  1  3  1  0
  2  5  1  0
  3  2  2  0
  4  6  1  0
  5  8  1  0
  6 17  1  0
  6  5  2  0
  7  4  1  0
  9 15  1  0
  9 17  1  0
 10 15  1  0
 11 12  1  0
 11 10  1  0
 13 12  1  0
 13 22  1  0
 13 14  1  0
 15 14  1  0
 16  9  2  0
 17 18  1  0
 19 20  2  0
 20 39  1  0
 21 20  1  0
 21 24  1  0
 22 23  1  0
 22 19  1  0
 23 21  2  0
 24 25  1  0
 25 26  2  0
 27 30  1  0
 27 26  1  0
 28 27  2  0
 29 28  1  0
 29 24  2  0
 30 31  1  0
 31 36  2  0
 31 32  1  0
 32 33  2  0
 33 34  1  0
 34 38  1  0
 35 34  2  0
 36 35  1  0
 37 36  1  0
 39 40  1  0
 40 43  1  0
 40 42  1  0
 41 39  2  0
 44 45  1  0
 44 19  1  0
 46 44  1  0
 47 48  1  0
 47  3  1  0
 48 49  1  0
 50 52  1  0
 50 48  1  0
 51 62  2  0
 52 57  1  0
 53 61  1  0
 53 63  1  0
 54 60  1  0
 54 56  1  0
 55 61  1  0
 56 55  1  0
 57 56  2  0
 58 59  1  0
 58 52  2  0
 59 54  2  0
 60 53  1  0
 61 51  1  0
 63 65  2  0
 64 63  1  0
 66 64  1  0
 67 76  2  0
 67 72  1  0
 68 64  1  0
 68 72  1  0
 69 68  1  0
 70 71  1  0
 70 69  1  0
 71 67  1  0
 72 73  2  0
 73 74  1  0
 75 74  2  0
 76 75  1  0
 77 51  1  0
 77 78  1  0
 77 87  1  0
 78 81  1  0
 79 83  1  0
 79 78  1  0
 80 79  2  0
 83 82  1  0
 85 83  1  0
 85 86  1  0
 85 84  1  0
 87 90  1  1
 87 88  1  0
 89 87  1  0
M  ISO  4   9 100  17 100  48 101  50 101
M  END
>  <TORSDO>  (54) 
F 18

>  <SCORE>  (54) 
-15.380

>  <name>  (54) 
53

>  <ligand_id>  (54) 
53

>  <original_smiles>  (54) 
[H]c1c([H])c([H])c2c(c1[H])C([H])([H])C([H])([H])C([H])([H])C2([H])N([H])C(=O)C1([H])N(C(=O)C([H])(N([H])C(=O)C([H])(N([H])C([H])([H])[H])C([H])([H])[H])C(C([H])([H])[H])(C([H])([H])[H])C([H])([H])[H])C([H])([H])c2c([H])c(ON([H])C([H])([H])c3c([H])c(C([H])([H])[H])c(N([H])C(=O)N4C([H])([H])C([H])([H])C([H])([H])C([H])(n5nc(-c6c([H])c([H])c(Oc7c([H])c([H])c(F)c([H])c7F)c([H])c6[H])c(C(=O)N([H])[H])c5N([H])[H])C4([H])[H])c(C([H])([H])[H])c3[H])c([H])c([H])c2C1([H])[H]

>  <smiles>  (54) 
[H]c1c([H])c([H])c2c(c1[H])C([H])([H])C([H])([H])C([H])([H])C2([H])N([H])C(=O)C1([H])N(C(=O)C([H])(N([H])C(=O)C([H])(N([H])C([H])([H])[H])C([H])([H])[H])C(C([H])([H])[H])(C([H])([H])[H])C([H])([H])[H])C([H])([H])c2c([H])c(ON([H])C([H])([H])c3c([H])c(C([H])([H])[H])c(N([H])C(=O)N4C([H])([H])C([H])([H])C([H])([H])C([H])(n5nc(-c6c([H])c([H])c(Oc7c([H])c([H])c(F)c([H])c7F)c([H])c6[H])c(C(=O)N([H])[H])c5N([H])[H])C4([H])[H])c(C([H])([H])[H])c3[H])c([H])c([H])c2C1([H])[H]

$$$$
54:0:0
     RDKit          3D

 93101  0  0  1  0  0  0  0  0999 V2000
  -29.5050  -22.0070   20.1470 N   0  0  0  0  0  4  0  0  0  0  0  0
  -28.7990  -21.7830   20.8290 H   0  0  0  0  0  0  0  0  0  0  0  0
  -29.1720  -21.7090   19.2450 H   0  0  0  0  0  0  0  0  0  0  0  0
  -30.7240  -21.2180   20.4590 C   0  0  0  0  0  2  0  0  0  0  0  0
  -30.8460  -18.9490   19.2670 C   0  0  0  0  0  3  0  0  0  0  0  0
  -30.7690  -17.5360   19.2650 C   0  0  0  0  0  3  0  0  0  0  0  0
  -30.1220  -18.9900   21.5830 C   0  0  0  0  0  3  0  0  0  0  0  0
  -30.5330  -19.6930   20.4280 C   0  0  0  0  0  0  0  0  0  0  0  0
  -30.3750  -16.8320   20.4320 C   0  0  0  0  0  0  0  0  0  0  0  0
  -30.0390  -17.5790   21.5820 C   0  0  0  0  0  0  0  0  0  0  0  0
  -29.6380  -16.9300   22.7020 F   0  0  0  0  0  0  0  0  0  0  0  0
  -30.8270  -14.4420   19.7830 C   0  0  0  0  0  0  0  0  0  0  0  0
  -30.3900  -12.3090   18.6220 C   0  0  0  0  0  2  0  0  0  0  0  0
  -29.3510  -12.5540   17.5080 C   0  0  0  0  0  2  0  0  0  0  0  0
  -27.9160  -12.4400   18.0600 C   0  0  0  0  0  2  0  0  0  0  0  0
  -27.7100  -13.2600   19.3620 C   0  0  0  0  0  3  0  0  0  0  0  0
  -28.8490  -12.9850   20.3700 C   0  0  0  0  0  2  0  0  0  0  0  0
  -30.1330  -13.2730   19.7030 N   0  0  0  0  0  0  0  0  0  0  0  0
  -31.8870  -14.6270   19.1790 O   0  0  0  0  0  0  0  0  0  0  0  0
  -30.2370  -15.4090   20.5110 N   0  0  0  0  0  0  0  0  0  0  0  0
  -29.4970  -15.0950   21.1200 H   0  0  0  0  0  0  0  0  0  0  0  0
  -25.4060  -13.9120   20.3080 C   0  0  0  0  0  0  0  0  0  0  0  0
  -24.3480  -13.1570   20.7410 C   0  0  0  0  0  0  0  0  0  0  0  0
  -24.7570  -11.7950   20.6130 C   0  0  0  0  0  0  0  0  0  0  0  0
  -26.3950  -13.0080   19.9490 N   0  0  0  0  0  0  0  0  0  0  0  0
  -26.0110  -11.7280   20.1870 N   0  0  0  0  0  0  0  0  0  0  0  0
  -24.0070  -10.5480   20.8160 C   0  0  0  0  0  0  0  0  0  0  0  0
  -24.4120   -9.5890   21.7710 C   0  0  0  0  0  3  0  0  0  0  0  0
  -23.6650   -8.4070   21.9600 C   0  0  0  0  0  3  0  0  0  0  0  0
  -22.4990   -8.1750   21.1950 C   0  0  0  0  0  0  0  0  0  0  0  0
  -22.1120   -9.1220   20.2290 C   0  0  0  0  0  3  0  0  0  0  0  0
  -22.8590  -10.2960   20.0390 C   0  0  0  0  0  3  0  0  0  0  0  0
  -21.7240   -7.0440   21.2910 O   0  0  0  0  0  0  0  0  0  0  0  0
  -21.5430   -6.3960   22.4870 C   0  0  0  0  0  0  0  0  0  0  0  0
  -20.9910   -7.0470   23.6110 C   0  0  0  0  0  3  0  0  0  0  0  0
  -20.7590   -6.3250   24.8000 C   0  0  0  0  0  3  0  0  0  0  0  0
  -21.0680   -4.9540   24.8620 C   0  0  0  0  0  0  0  0  0  0  0  0
  -21.6130   -4.3020   23.7410 C   0  0  0  0  0  3  0  0  0  0  0  0
  -21.8470   -5.0220   22.5560 C   0  0  0  0  0  0  0  0  0  0  0  0
  -22.3520   -4.3850   21.4720 F   0  0  0  0  0  0  0  0  0  0  0  0
  -20.8380   -4.2570   25.9990 F   0  0  0  0  0  0  0  0  0  0  0  0
  -22.9990  -13.6660   21.1610 C   0  0  0  0  0  0  0  0  0  0  0  0
  -22.3440  -12.9720   22.0860 N   0  0  0  0  0  0  0  0  0  0  0  0
  -22.5380  -14.7110   20.7050 O   0  0  0  0  0  0  0  0  0  0  0  0
  -22.7310  -12.1250   22.4750 H   0  0  0  0  0  0  0  0  0  0  0  0
  -21.4430  -13.2940   22.4110 H   0  0  0  0  0  0  0  0  0  0  0  0
  -25.6040  -15.2820   20.1730 N   0  0  0  0  0  0  0  0  0  0  0  0
  -24.8770  -15.9590   20.3790 H   0  0  0  0  0  0  0  0  0  0  0  0
  -26.4460  -15.7050   19.8040 H   0  0  0  0  0  0  0  0  0  0  0  0
  -29.7250  -23.4840   20.1190 C   0  0  0  0  0  2  0  0  0  0  0  0
  -28.4980  -24.2990   19.6220 C   0  0  0  0  0  2  0  0  0  0  0  0
  -28.8030  -25.7680   19.2070 C   0  0  0  0  0  2  0  0  0  0  0  0
  -28.5100  -26.7740   20.1920 O   0  0  0  0  0  0  0  0  0  0  0  0
  -24.3950  -31.7400   23.2290 C   0  0  0  0  0  0  0  0  0  0  0  0
  -27.2880  -27.4260   20.1650 C   0  0  0  0  0  0  0  0  0  0  0  0
  -23.2790  -30.2980   21.5600 C   0  0  0  0  0  3  0  0  0  0  0  0
  -24.8220  -28.8300   20.1540 C   0  0  0  0  0  0  0  0  0  0  0  0
  -25.7910  -30.7610   21.4090 C   0  0  0  0  0  2  0  0  0  0  0  0
  -25.9450  -29.3960   20.7670 C   0  0  0  0  0  0  0  0  0  0  0  0
  -27.1750  -28.6970   20.7780 C   0  0  0  0  0  3  0  0  0  0  0  0
  -26.1380  -26.8680   19.5580 C   0  0  0  0  0  3  0  0  0  0  0  0
  -24.9130  -27.5630   19.5510 C   0  0  0  0  0  3  0  0  0  0  0  0
  -23.5420  -29.6350   20.1800 C   0  0  0  0  0  2  0  0  0  0  0  0
  -24.5050  -30.9490   22.1240 N   0  0  0  0  0  0  0  0  0  0  0  0
  -23.2940  -31.9630   23.7520 O   0  0  0  0  0  0  0  0  0  0  0  0
  -22.6560  -29.2440   22.5050 C   0  0  0  0  0  0  0  0  0  0  0  0
  -21.3540  -28.9730   22.3230 N   0  0  0  0  0  0  0  0  0  0  0  0
  -23.3430  -28.6720   23.3560 O   0  0  0  0  0  0  0  0  0  0  0  0
  -20.8580  -29.4900   21.6120 H   0  0  0  0  0  0  0  0  0  0  0  0
  -18.0550  -27.5380   22.6630 C   0  0  0  0  0  0  0  0  0  0  0  0
  -20.5680  -27.9890   23.0690 C   0  0  0  0  0  3  0  0  0  0  0  0
  -20.8070  -26.5610   22.5280 C   0  0  0  0  0  2  0  0  0  0  0  0
  -19.7890  -26.1400   21.4630 C   0  0  0  0  0  2  0  0  0  0  0  0
  -18.3670  -26.1930   22.0280 C   0  0  0  0  0  2  0  0  0  0  0  0
  -19.0890  -28.3870   23.1370 C   0  0  0  0  0  0  0  0  0  0  0  0
  -18.7470  -29.6410   23.6880 C   0  0  0  0  0  3  0  0  0  0  0  0
  -17.4030  -30.0480   23.7720 C   0  0  0  0  0  3  0  0  0  0  0  0
  -16.3820  -29.1970   23.3170 C   0  0  0  0  0  3  0  0  0  0  0  0
  -16.7080  -27.9440   22.7670 C   0  0  0  0  0  3  0  0  0  0  0  0
  -25.6430  -32.4240   23.8740 C   0  0  0  0  0  3  0  0  0  0  0  0
  -25.2790  -33.8130   24.1780 N   0  0  0  0  0  0  0  0  0  0  0  0
  -25.5850  -34.8650   23.4070 C   0  0  0  0  0  0  0  0  0  0  0  0
  -26.2750  -34.7700   22.3880 O   0  0  0  0  0  0  0  0  0  0  0  0
  -24.6650  -33.9590   24.9660 H   0  0  0  0  0  0  0  0  0  0  0  0
  -23.7900  -36.5800   23.0030 C   0  0  0  0  0  1  0  0  0  0  0  0
  -25.0390  -36.2420   23.8330 C   0  0  0  0  0  3  0  0  0  0  0  0
  -27.1260  -37.2290   24.6680 C   0  0  0  0  0  1  0  0  0  0  0  0
  -26.0290  -37.3320   23.7090 N   0  0  0  0  0  0  0  0  0  0  0  0
  -25.5860  -38.2390   23.8310 H   0  0  0  0  0  0  0  0  0  0  0  0
  -26.1550  -31.6840   25.1710 C   0  0  1  0  0  0  0  0  0  0  0  0
  -25.0430  -31.4140   26.2120 C   0  0  0  0  0  1  0  0  0  0  0  0
  -26.8000  -30.3280   24.8050 C   0  0  0  0  0  1  0  0  0  0  0  0
  -27.2540  -32.5290   25.8560 C   0  0  0  0  0  1  0  0  0  0  0  0
  1  4  1  0
  1  2  1  0
  3  1  1  0
  5  8  1  0
  6  5  2  0
  6  9  1  0
  8  4  1  0
  8  7  2  0
  9 20  1  0
  9 10  2  0
 10  7  1  0
 10 11  1  0
 12 20  1  0
 13 18  1  0
 14 15  1  0
 14 13  1  0
 16 15  1  0
 16 25  1  0
 16 17  1  0
 18 12  1  0
 18 17  1  0
 19 12  2  0
 20 21  1  0
 22 23  2  0
 23 42  1  0
 24 23  1  0
 24 27  1  0
 25 26  1  0
 25 22  1  0
 26 24  2  0
 27 28  1  0
 28 29  2  0
 30 33  1  0
 30 29  1  0
 31 30  2  0
 32 31  1  0
 32 27  2  0
 33 34  1  0
 34 39  2  0
 34 35  1  0
 35 36  2  0
 36 37  1  0
 37 41  1  0
 38 37  2  0
 39 38  1  0
 40 39  1  0
 42 43  1  0
 43 46  1  0
 43 45  1  0
 44 42  2  0
 47 22  1  0
 47 48  1  0
 49 47  1  0
 50  1  1  0
 51 50  1  0
 52 51  1  0
 52 53  1  0
 54 65  2  0
 55 53  1  0
 55 60  1  0
 56 64  1  0
 56 66  1  0
 57 63  1  0
 57 59  1  0
 58 64  1  0
 59 60  2  0
 59 58  1  0
 61 55  2  0
 62 61  1  0
 62 57  2  0
 63 56  1  0
 64 54  1  0
 66 68  2  0
 67 66  1  0
 69 67  1  0
 70 79  2  0
 70 75  1  0
 71 67  1  0
 71 75  1  0
 72 71  1  0
 73 74  1  0
 73 72  1  0
 74 70  1  0
 75 76  2  0
 76 77  1  0
 78 77  2  0
 79 78  1  0
 80 54  1  0
 80 81  1  0
 80 90  1  0
 81 84  1  0
 82 86  1  0
 82 81  1  0
 83 82  2  0
 86 85  1  0
 88 89  1  0
 88 86  1  0
 88 87  1  0
 90 93  1  1
 90 91  1  0
 92 90  1  0
M  ISO  4  12 100  20 100  52 101  53 101
M  END
>  <TORSDO>  (55) 
F 21

>  <SCORE>  (55) 
-11.941

>  <name>  (55) 
54

>  <ligand_id>  (55) 
54

>  <original_smiles>  (55) 
[H]c1c([H])c([H])c2c(c1[H])C([H])([H])C([H])([H])C([H])([H])C2([H])N([H])C(=O)C1([H])N(C(=O)C([H])(N([H])C(=O)C([H])(N([H])C([H])([H])[H])C([H])([H])[H])C(C([H])([H])[H])(C([H])([H])[H])C([H])([H])[H])C([H])([H])c2c([H])c(OC([H])([H])C([H])([H])C([H])([H])[N+]([H])([H])C([H])([H])c3c([H])c([H])c(N([H])C(=O)N4C([H])([H])C([H])([H])C([H])([H])C([H])(n5nc(-c6c([H])c([H])c(Oc7c([H])c([H])c(F)c([H])c7F)c([H])c6[H])c(C(=O)N([H])[H])c5N([H])[H])C4([H])[H])c(F)c3[H])c([H])c([H])c2C1([H])[H]

>  <smiles>  (55) 
[H]c1c([H])c([H])c2c(c1[H])C([H])([H])C([H])([H])C([H])([H])C2([H])N([H])C(=O)C1([H])N(C(=O)C([H])(N([H])C(=O)C([H])(N([H])C([H])([H])[H])C([H])([H])[H])C(C([H])([H])[H])(C([H])([H])[H])C([H])([H])[H])C([H])([H])c2c([H])c(OC([H])([H])C([H])([H])C([H])([H])[N+]([H])([H])C([H])([H])c3c([H])c([H])c(N([H])C(=O)N4C([H])([H])C([H])([H])C([H])([H])C([H])(n5nc(-c6c([H])c([H])c(Oc7c([H])c([H])c(F)c([H])c7F)c([H])c6[H])c(C(=O)N([H])[H])c5N([H])[H])C4([H])[H])c(F)c3[H])c([H])c([H])c2C1([H])[H]

$$$$
55:0:0
     RDKit          3D

 95104  0  0  1  0  0  0  0  0999 V2000
  -32.1220  -21.8500   21.3250 C   0  0  0  0  0  2  0  0  0  0  0  0
  -29.8050  -21.7050   22.2540 C   0  0  0  0  0  2  0  0  0  0  0  0
  -31.6380  -22.9290   20.3340 C   0  0  0  0  0  2  0  0  0  0  0  0
  -29.3570  -22.7850   21.2470 C   0  0  0  0  0  2  0  0  0  0  0  0
  -31.0100  -21.0170   21.7860 N   0  0  0  0  0  0  0  0  0  0  0  0
  -30.4820  -23.6910   20.8840 N   0  0  2  0  0  4  0  0  0  0  0  0
  -30.8160  -24.0800   21.7540 H   0  0  0  0  0  0  0  0  0  0  0  0
  -31.2570  -19.0790   20.2880 C   0  0  0  0  0  3  0  0  0  0  0  0
  -31.1890  -17.6900   20.0740 C   0  0  0  0  0  3  0  0  0  0  0  0
  -30.6390  -18.7460   22.6090 C   0  0  0  0  0  3  0  0  0  0  0  0
  -30.5670  -17.3530   22.4050 C   0  0  0  0  0  0  0  0  0  0  0  0
  -30.9740  -19.6270   21.5570 C   0  0  0  0  0  0  0  0  0  0  0  0
  -30.8420  -16.8100   21.1270 C   0  0  0  0  0  0  0  0  0  0  0  0
  -30.1790  -16.4550   23.5710 C   0  0  0  0  0  1  0  0  0  0  0  0
  -31.1660  -14.5870   20.0050 C   0  0  0  0  0  0  0  0  0  0  0  0
  -30.7280  -12.5050   18.7560 C   0  0  0  0  0  2  0  0  0  0  0  0
  -29.7020  -12.7700   17.6370 C   0  0  0  0  0  2  0  0  0  0  0  0
  -28.2620  -12.6390   18.1690 C   0  0  0  0  0  2  0  0  0  0  0  0
  -28.0350  -13.4420   19.4780 C   0  0  0  0  0  3  0  0  0  0  0  0
  -29.1570  -13.1410   20.4960 C   0  0  0  0  0  2  0  0  0  0  0  0
  -30.4560  -13.4380   19.8590 N   0  0  0  0  0  0  0  0  0  0  0  0
  -32.1710  -14.8460   19.3340 O   0  0  0  0  0  0  0  0  0  0  0  0
  -30.6970  -15.4030   20.9610 N   0  0  0  0  0  0  0  0  0  0  0  0
  -30.0000  -14.9750   21.5490 H   0  0  0  0  0  0  0  0  0  0  0  0
  -25.7240  -14.0760   20.4270 C   0  0  0  0  0  0  0  0  0  0  0  0
  -24.6590  -13.3140   20.8230 C   0  0  0  0  0  0  0  0  0  0  0  0
  -25.0590  -11.9540   20.6460 C   0  0  0  0  0  0  0  0  0  0  0  0
  -26.7110  -13.1810   20.0420 N   0  0  0  0  0  0  0  0  0  0  0  0
  -26.3160  -11.8960   20.2270 N   0  0  0  0  0  0  0  0  0  0  0  0
  -24.3010  -10.7050   20.7990 C   0  0  0  0  0  0  0  0  0  0  0  0
  -24.6520   -9.7420   21.7690 C   0  0  0  0  0  3  0  0  0  0  0  0
  -23.8970   -8.5580   21.9080 C   0  0  0  0  0  3  0  0  0  0  0  0
  -22.7760   -8.3290   21.0750 C   0  0  0  0  0  0  0  0  0  0  0  0
  -22.4430   -9.2810   20.0960 C   0  0  0  0  0  3  0  0  0  0  0  0
  -23.2000  -10.4580   19.9550 C   0  0  0  0  0  3  0  0  0  0  0  0
  -22.0000   -7.1960   21.1210 O   0  0  0  0  0  0  0  0  0  0  0  0
  -21.6880   -6.5850   22.3090 C   0  0  0  0  0  0  0  0  0  0  0  0
  -21.0430   -7.2770   23.3570 C   0  0  0  0  0  3  0  0  0  0  0  0
  -20.6790   -6.5920   24.5340 C   0  0  0  0  0  3  0  0  0  0  0  0
  -20.9500   -5.2150   24.6600 C   0  0  0  0  0  0  0  0  0  0  0  0
  -21.5870   -4.5240   23.6150 C   0  0  0  0  0  3  0  0  0  0  0  0
  -21.9520   -5.2070   22.4420 C   0  0  0  0  0  0  0  0  0  0  0  0
  -22.5460   -4.5300   21.4290 F   0  0  0  0  0  0  0  0  0  0  0  0
  -20.5930   -4.5560   25.7860 F   0  0  0  0  0  0  0  0  0  0  0  0
  -23.3090  -13.8140   21.2520 C   0  0  0  0  0  0  0  0  0  0  0  0
  -22.6470  -13.0970   22.1540 N   0  0  0  0  0  0  0  0  0  0  0  0
  -22.8540  -14.8740   20.8240 O   0  0  0  0  0  0  0  0  0  0  0  0
  -23.0290  -12.2370   22.5200 H   0  0  0  0  0  0  0  0  0  0  0  0
  -21.7450  -13.4110   22.4820 H   0  0  0  0  0  0  0  0  0  0  0  0
  -25.9310  -15.4500   20.3450 N   0  0  0  0  0  0  0  0  0  0  0  0
  -25.2050  -16.1210   20.5710 H   0  0  0  0  0  0  0  0  0  0  0  0
  -26.7780  -15.8820   19.9970 H   0  0  0  0  0  0  0  0  0  0  0  0
  -30.0940  -24.8350   20.0100 C   0  0  0  0  0  2  0  0  0  0  0  0
  -29.0440  -25.7720   20.6410 C   0  0  0  0  0  2  0  0  0  0  0  0
  -28.9780  -26.9830   19.8890 O   0  0  0  0  0  0  0  0  0  0  0  0
  -24.8290  -31.7410   23.1650 C   0  0  0  0  0  0  0  0  0  0  0  0
  -27.7650  -27.6200   19.9380 C   0  0  0  0  0  0  0  0  0  0  0  0
  -23.7260  -30.3520   21.4390 C   0  0  0  0  0  3  0  0  0  0  0  0
  -25.2850  -28.9610   19.9790 C   0  0  0  0  0  0  0  0  0  0  0  0
  -26.2260  -30.8650   21.2980 C   0  0  0  0  0  2  0  0  0  0  0  0
  -26.4000  -29.5310   20.6060 C   0  0  0  0  0  0  0  0  0  0  0  0
  -27.6460  -28.8690   20.5820 C   0  0  0  0  0  3  0  0  0  0  0  0
  -26.6370  -27.0530   19.3070 C   0  0  0  0  0  3  0  0  0  0  0  0
  -25.3950  -27.7190   19.3280 C   0  0  0  0  0  3  0  0  0  0  0  0
  -23.9940  -29.7450   20.0360 C   0  0  0  0  0  2  0  0  0  0  0  0
  -24.9440  -30.9980   22.0280 N   0  0  0  0  0  0  0  0  0  0  0  0
  -23.7270  -31.9290   23.6980 O   0  0  0  0  0  0  0  0  0  0  0  0
  -23.1180  -29.2550   22.3410 C   0  0  0  0  0  0  0  0  0  0  0  0
  -21.8030  -29.0250   22.1980 N   0  0  0  0  0  0  0  0  0  0  0  0
  -23.8260  -28.6150   23.1240 O   0  0  0  0  0  0  0  0  0  0  0  0
  -21.2920  -29.5980   21.5400 H   0  0  0  0  0  0  0  0  0  0  0  0
  -18.4730  -27.6990   22.6420 C   0  0  0  0  0  0  0  0  0  0  0  0
  -21.0240  -28.0140   22.9110 C   0  0  0  0  0  3  0  0  0  0  0  0
  -21.1630  -26.6280   22.2420 C   0  0  0  0  0  2  0  0  0  0  0  0
  -20.0620  -26.3400   21.2170 C   0  0  0  0  0  2  0  0  0  0  0  0
  -18.6830  -26.4010   21.8790 C   0  0  0  0  0  2  0  0  0  0  0  0
  -19.5730  -28.4640   23.1120 C   0  0  0  0  0  0  0  0  0  0  0  0
  -19.3230  -29.6810   23.7840 C   0  0  0  0  0  3  0  0  0  0  0  0
  -18.0060  -30.1340   23.9900 C   0  0  0  0  0  3  0  0  0  0  0  0
  -16.9200  -29.3640   23.5360 C   0  0  0  0  0  3  0  0  0  0  0  0
  -17.1550  -28.1480   22.8680 C   0  0  0  0  0  3  0  0  0  0  0  0
  -26.0710  -32.4090   23.8360 C   0  0  0  0  0  3  0  0  0  0  0  0
  -26.5800  -31.6350   25.1130 C   0  0  1  0  0  0  0  0  0  0  0  0
  -25.4600  -31.3090   26.1280 C   0  0  0  0  0  1  0  0  0  0  0  0
  -27.2560  -30.3040   24.7100 C   0  0  0  0  0  1  0  0  0  0  0  0
  -27.6550  -32.4750   25.8420 C   0  0  0  0  0  1  0  0  0  0  0  0
  -25.7010  -33.7890   24.1750 N   0  0  0  0  0  0  0  0  0  0  0  0
  -26.0240  -34.8640   23.4420 C   0  0  0  0  0  0  0  0  0  0  0  0
  -26.7350  -34.7990   22.4360 O   0  0  0  0  0  0  0  0  0  0  0  0
  -25.0740  -33.9100   24.9560 H   0  0  0  0  0  0  0  0  0  0  0  0
  -24.2450  -36.5950   23.0470 C   0  0  0  0  0  1  0  0  0  0  0  0
  -25.4680  -36.2250   23.8990 C   0  0  0  0  0  3  0  0  0  0  0  0
  -27.5360  -37.1760   24.8230 C   0  0  0  0  0  1  0  0  0  0  0  0
  -26.4640  -37.3170   23.8400 N   0  0  0  0  0  0  0  0  0  0  0  0
  -26.0200  -38.2200   23.9820 H   0  0  0  0  0  0  0  0  0  0  0  0
  1  5  1  0
  3  6  1  0
  3  1  1  0
  4  2  1  0
  5  2  1  0
  6  4  1  0
  6  7  1  1
  8 12  1  0
  9  8  2  0
  9 13  1  0
 11 10  1  0
 11 14  1  0
 12  5  1  0
 12 10  2  0
 13 11  2  0
 15 23  1  0
 16 21  1  0
 17 18  1  0
 17 16  1  0
 19 18  1  0
 19 28  1  0
 19 20  1  0
 21 15  1  0
 21 20  1  0
 22 15  2  0
 23 13  1  0
 23 24  1  0
 25 26  2  0
 26 45  1  0
 27 30  1  0
 27 26  1  0
 28 29  1  0
 28 25  1  0
 29 27  2  0
 30 31  1  0
 31 32  2  0
 33 36  1  0
 33 32  1  0
 34 33  2  0
 35 34  1  0
 35 30  2  0
 36 37  1  0
 37 42  2  0
 37 38  1  0
 38 39  2  0
 39 40  1  0
 40 44  1  0
 41 40  2  0
 42 41  1  0
 43 42  1  0
 45 46  1  0
 46 49  1  0
 46 48  1  0
 47 45  2  0
 50 25  1  0
 50 51  1  0
 52 50  1  0
 53 54  1  0
 53  6  1  0
 55 57  1  0
 55 54  1  0
 56 67  2  0
 57 62  1  0
 58 66  1  0
 58 68  1  0
 59 65  1  0
 59 61  1  0
 60 66  1  0
 61 60  1  0
 62 61  2  0
 63 64  1  0
 63 57  2  0
 64 59  2  0
 65 58  1  0
 66 56  1  0
 68 70  2  0
 69 68  1  0
 71 69  1  0
 72 81  2  0
 72 77  1  0
 73 69  1  0
 73 77  1  0
 74 73  1  0
 75 76  1  0
 75 74  1  0
 76 72  1  0
 77 78  2  0
 78 79  1  0
 80 79  2  0
 81 80  1  0
 82 56  1  0
 82 87  1  0
 82 83  1  0
 83 86  1  1
 83 84  1  0
 85 83  1  0
 87 90  1  0
 88 92  1  0
 88 87  1  0
 89 88  2  0
 92 91  1  0
 94 92  1  0
 94 95  1  0
 94 93  1  0
M  ISO  4  15 100  23 100  54 101  55 101
M  END
>  <TORSDO>  (56) 
F 19

>  <SCORE>  (56) 
-9.957

>  <name>  (56) 
55

>  <ligand_id>  (56) 
55

>  <original_smiles>  (56) 
[H]c1c([H])c([H])c2c(c1[H])C([H])([H])C([H])([H])C([H])([H])C2([H])N([H])C(=O)C1([H])N(C(=O)C([H])(N([H])C(=O)C([H])(N([H])C([H])([H])[H])C([H])([H])[H])C(C([H])([H])[H])(C([H])([H])[H])C([H])([H])[H])C([H])([H])c2c([H])c(OC([H])([H])C([H])([H])[N+]3([H])C([H])([H])C([H])([H])N(c4c([H])c([H])c(N([H])C(=O)N5C([H])([H])C([H])([H])C([H])([H])C([H])(n6nc(-c7c([H])c([H])c(Oc8c([H])c([H])c(F)c([H])c8F)c([H])c7[H])c(C(=O)N([H])[H])c6N([H])[H])C5([H])[H])c(C([H])([H])[H])c4[H])C([H])([H])C3([H])[H])c([H])c([H])c2C1([H])[H]

>  <smiles>  (56) 
[H]c1c([H])c([H])c2c(c1[H])C([H])([H])C([H])([H])C([H])([H])C2([H])N([H])C(=O)C1([H])N(C(=O)C([H])(N([H])C(=O)C([H])(N([H])C([H])([H])[H])C([H])([H])[H])C(C([H])([H])[H])(C([H])([H])[H])C([H])([H])[H])C([H])([H])c2c([H])c(OC([H])([H])C([H])([H])[N+]3([H])C([H])([H])C([H])([H])N(c4c([H])c([H])c(N([H])C(=O)N5C([H])([H])C([H])([H])C([H])([H])C([H])(n6nc(-c7c([H])c([H])c(Oc8c([H])c([H])c(F)c([H])c8F)c([H])c7[H])c(C(=O)N([H])[H])c6N([H])[H])C5([H])[H])c(C([H])([H])[H])c4[H])C([H])([H])C3([H])[H])c([H])c([H])c2C1([H])[H]

$$$$
56:0:0
     RDKit          3D

 97107  0  0  1  0  0  0  0  0999 V2000
  -29.7860  -20.5890   18.5500 C   0  0  0  0  0  3  0  0  0  0  0  0
  -30.2200  -21.8870   18.2270 C   0  0  0  0  0  3  0  0  0  0  0  0
  -31.3190  -20.5340   20.4350 C   0  0  0  0  0  3  0  0  0  0  0  0
  -30.3350  -19.8940   19.6480 C   0  0  0  0  0  0  0  0  0  0  0  0
  -31.1930  -22.5330   19.0180 C   0  0  0  0  0  0  0  0  0  0  0  0
  -31.7380  -21.8440   20.1270 C   0  0  0  0  0  0  0  0  0  0  0  0
  -32.6820  -22.4330   20.9010 F   0  0  0  0  0  0  0  0  0  0  0  0
  -30.6880  -14.4640   20.3850 C   0  0  0  0  0  0  0  0  0  0  0  0
  -30.3510  -12.2900   19.3060 C   0  0  0  0  0  2  0  0  0  0  0  0
  -29.4040  -12.4830   18.1040 C   0  0  0  0  0  2  0  0  0  0  0  0
  -27.9260  -12.4210   18.5410 C   0  0  0  0  0  2  0  0  0  0  0  0
  -27.6110  -13.2530   19.8170 C   0  0  0  0  0  3  0  0  0  0  0  0
  -28.6810  -13.0410   20.9140 C   0  0  0  0  0  2  0  0  0  0  0  0
  -29.9990  -13.2970   20.3140 N   0  0  0  0  0  0  0  0  0  0  0  0
  -31.8740  -14.5740   20.0610 O   0  0  0  0  0  0  0  0  0  0  0  0
  -30.4070  -17.5150   18.8360 C   0  0  0  0  0  2  0  0  0  0  0  0
  -30.2000  -17.8590   21.2840 C   0  0  0  0  0  2  0  0  0  0  0  0
  -29.7070  -16.1590   18.9610 C   0  0  0  0  0  2  0  0  0  0  0  0
  -29.6140  -16.4300   21.4460 C   0  0  0  0  0  2  0  0  0  0  0  0
  -29.8660  -18.4650   19.9060 C   0  0  0  0  0  3  0  0  0  0  0  0
  -29.8960  -15.5530   20.2930 N   0  0  0  0  0  0  0  0  0  0  0  0
  -25.2220  -13.8780   20.5390 C   0  0  0  0  0  0  0  0  0  0  0  0
  -24.1470  -13.1140   20.9060 C   0  0  0  0  0  0  0  0  0  0  0  0
  -24.5980  -11.7580   20.8690 C   0  0  0  0  0  0  0  0  0  0  0  0
  -26.2600  -12.9900   20.3060 N   0  0  0  0  0  0  0  0  0  0  0  0
  -25.8880  -11.7090   20.5590 N   0  0  0  0  0  0  0  0  0  0  0  0
  -23.8630  -10.5020   21.0500 C   0  0  0  0  0  0  0  0  0  0  0  0
  -24.2830   -9.5270   21.9810 C   0  0  0  0  0  3  0  0  0  0  0  0
  -23.5470   -8.3350   22.1510 C   0  0  0  0  0  3  0  0  0  0  0  0
  -22.3770   -8.1100   21.3880 C   0  0  0  0  0  0  0  0  0  0  0  0
  -21.9770   -9.0710   20.4440 C   0  0  0  0  0  3  0  0  0  0  0  0
  -22.7130  -10.2530   20.2720 C   0  0  0  0  0  3  0  0  0  0  0  0
  -21.6140   -6.9700   21.4700 O   0  0  0  0  0  0  0  0  0  0  0  0
  -21.5440   -6.2300   22.6230 C   0  0  0  0  0  0  0  0  0  0  0  0
  -21.0860   -6.7840   23.8370 C   0  0  0  0  0  3  0  0  0  0  0  0
  -20.9660   -5.9720   24.9820 C   0  0  0  0  0  3  0  0  0  0  0  0
  -21.2920   -4.6050   24.9150 C   0  0  0  0  0  0  0  0  0  0  0  0
  -21.7430   -4.0480   23.7050 C   0  0  0  0  0  3  0  0  0  0  0  0
  -21.8670   -4.8580   22.5610 C   0  0  0  0  0  0  0  0  0  0  0  0
  -22.2830   -4.3120   21.3930 F   0  0  0  0  0  0  0  0  0  0  0  0
  -21.1720   -3.8220   26.0120 F   0  0  0  0  0  0  0  0  0  0  0  0
  -22.7530  -13.5980   21.1890 C   0  0  0  0  0  0  0  0  0  0  0  0
  -22.0270  -12.8990   22.0540 N   0  0  0  0  0  0  0  0  0  0  0  0
  -22.3180  -14.6320   20.6830 O   0  0  0  0  0  0  0  0  0  0  0  0
  -22.3960  -12.0650   22.4870 H   0  0  0  0  0  0  0  0  0  0  0  0
  -21.0920  -13.1970   22.2930 H   0  0  0  0  0  0  0  0  0  0  0  0
  -25.3980  -15.2490   20.3630 N   0  0  0  0  0  0  0  0  0  0  0  0
  -24.6390  -15.9110   20.4820 H   0  0  0  0  0  0  0  0  0  0  0  0
  -26.2580  -15.6850   20.0590 H   0  0  0  0  0  0  0  0  0  0  0  0
  -31.6880  -23.9290   18.6460 C   0  0  0  0  0  2  0  0  0  0  0  0
  -30.6210  -26.0170   19.5560 C   0  0  0  0  0  0  0  0  0  0  0  0
  -29.0490  -26.4870   17.8320 C   0  0  0  0  0  2  0  0  0  0  0  0
  -29.6020  -25.0630   17.7050 C   0  0  0  0  0  2  0  0  0  0  0  0
  -29.4480  -26.9490   19.2430 C   0  0  0  0  0  3  0  0  0  0  0  0
  -30.6680  -24.9880   18.6950 N   0  0  0  0  0  0  0  0  0  0  0  0
  -31.3990  -26.2150   20.4940 O   0  0  0  0  0  0  0  0  0  0  0  0
  -28.4340  -26.6830   20.2070 O   0  0  0  0  0  0  0  0  0  0  0  0
  -24.6290  -31.8720   23.2340 C   0  0  0  0  0  0  0  0  0  0  0  0
  -27.3020  -27.4590   20.1620 C   0  0  0  0  0  0  0  0  0  0  0  0
  -23.4300  -30.4580   21.5960 C   0  0  0  0  0  3  0  0  0  0  0  0
  -24.8940  -28.9260   20.1750 C   0  0  0  0  0  0  0  0  0  0  0  0
  -25.9490  -30.8440   21.3850 C   0  0  0  0  0  2  0  0  0  0  0  0
  -26.0480  -29.4700   20.7540 C   0  0  0  0  0  0  0  0  0  0  0  0
  -27.2610  -28.7440   20.7430 C   0  0  0  0  0  3  0  0  0  0  0  0
  -26.1290  -26.9120   19.6080 C   0  0  0  0  0  3  0  0  0  0  0  0
  -24.9280  -27.6450   19.5980 C   0  0  0  0  0  3  0  0  0  0  0  0
  -23.6400  -29.7710   20.2200 C   0  0  0  0  0  2  0  0  0  0  0  0
  -24.6890  -31.0700   22.1310 N   0  0  0  0  0  0  0  0  0  0  0  0
  -23.5480  -32.1380   23.7740 O   0  0  0  0  0  0  0  0  0  0  0  0
  -22.7820  -29.4390   22.5610 C   0  0  0  0  0  0  0  0  0  0  0  0
  -21.4580  -29.2550   22.4350 N   0  0  0  0  0  0  0  0  0  0  0  0
  -23.4680  -28.8150   23.3750 O   0  0  0  0  0  0  0  0  0  0  0  0
  -20.9680  -29.8080   21.7460 H   0  0  0  0  0  0  0  0  0  0  0  0
  -18.0810  -28.0780   22.9510 C   0  0  0  0  0  0  0  0  0  0  0  0
  -20.6410  -28.3190   23.2080 C   0  0  0  0  0  3  0  0  0  0  0  0
  -20.7320  -26.8910   22.6220 C   0  0  0  0  0  2  0  0  0  0  0  0
  -19.6210  -26.5790   21.6150 C   0  0  0  0  0  2  0  0  0  0  0  0
  -18.2450  -26.7310   22.2690 C   0  0  0  0  0  2  0  0  0  0  0  0
  -19.2070  -28.8320   23.3770 C   0  0  0  0  0  0  0  0  0  0  0  0
  -19.0010  -30.0940   23.9730 C   0  0  0  0  0  3  0  0  0  0  0  0
  -17.7010  -30.6040   24.1480 C   0  0  0  0  0  3  0  0  0  0  0  0
  -16.5890  -29.8470   23.7410 C   0  0  0  0  0  3  0  0  0  0  0  0
  -16.7800  -28.5870   23.1470 C   0  0  0  0  0  3  0  0  0  0  0  0
  -25.9130  -32.5090   23.8510 C   0  0  0  0  0  3  0  0  0  0  0  0
  -25.5970  -33.9030   24.1850 N   0  0  0  0  0  0  0  0  0  0  0  0
  -25.9230  -34.9580   23.4270 C   0  0  0  0  0  0  0  0  0  0  0  0
  -26.5930  -34.8620   22.3950 O   0  0  0  0  0  0  0  0  0  0  0  0
  -25.0010  -34.0540   24.9860 H   0  0  0  0  0  0  0  0  0  0  0  0
  -24.1900  -36.7430   23.0680 C   0  0  0  0  0  1  0  0  0  0  0  0
  -25.4270  -36.3430   23.8870 C   0  0  0  0  0  3  0  0  0  0  0  0
  -27.5530  -37.2330   24.7320 C   0  0  0  0  0  1  0  0  0  0  0  0
  -26.4560  -37.4010   23.7830 N   0  0  0  0  0  0  0  0  0  0  0  0
  -26.0440  -38.3180   23.9350 H   0  0  0  0  0  0  0  0  0  0  0  0
  -26.4420  -31.7350   25.1200 C   0  0  1  0  0  0  0  0  0  0  0  0
  -25.3500  -31.4490   26.1770 C   0  0  0  0  0  1  0  0  0  0  0  0
  -27.0650  -30.3800   24.7070 C   0  0  0  0  0  1  0  0  0  0  0  0
  -27.5670  -32.5510   25.8010 C   0  0  0  0  0  1  0  0  0  0  0  0
  1  4  1  0
  2  1  2  0
  2  5  1  0
  4  3  2  0
  5  6  2  0
  6  3  1  0
  6  7  1  0
  9 14  1  0
 10 11  1  0
 10  9  1  0
 12 11  1  0
 12 25  1  0
 12 13  1  0
 14  8  1  0
 14 13  1  0
 15  8  2  0
 16 18  1  0
 16 20  1  0
 17 19  1  0
 18 21  1  0
 20  4  1  0
 20 17  1  0
 21  8  1  0
 21 19  1  0
 22 23  2  0
 23 42  1  0
 24 23  1  0
 24 27  1  0
 25 22  1  0
 25 26  1  0
 26 24  2  0
 27 28  1  0
 28 29  2  0
 30 33  1  0
 30 29  1  0
 31 30  2  0
 32 31  1  0
 32 27  2  0
 33 34  1  0
 34 35  1  0
 35 36  2  0
 37 36  1  0
 37 41  1  0
 38 37  2  0
 39 34  2  0
 39 38  1  0
 40 39  1  0
 42 43  1  0
 43 46  1  0
 43 45  1  0
 44 42  2  0
 47 48  1  0
 47 22  1  0
 49 47  1  0
 50 55  1  0
 50  5  1  0
 51 56  2  0
 52 54  1  0
 53 52  1  0
 53 55  1  0
 54 51  1  0
 54 57  1  0
 55 51  1  0
 58 69  2  0
 59 57  1  0
 59 64  1  0
 60 68  1  0
 60 70  1  0
 61 67  1  0
 61 63  1  0
 62 68  1  0
 63 62  1  0
 64 63  2  0
 65 59  2  0
 66 65  1  0
 66 61  2  0
 67 60  1  0
 68 58  1  0
 70 72  2  0
 71 70  1  0
 73 71  1  0
 74 83  2  0
 74 79  1  0
 75 71  1  0
 75 79  1  0
 76 75  1  0
 77 78  1  0
 77 76  1  0
 78 74  1  0
 79 80  2  0
 80 81  1  0
 82 81  2  0
 83 82  1  0
 84 58  1  0
 84 85  1  0
 84 94  1  0
 85 88  1  0
 86 90  1  0
 86 85  1  0
 87 86  2  0
 90 89  1  0
 92 90  1  0
 92 93  1  0
 92 91  1  0
 94 97  1  1
 94 95  1  0
 96 94  1  0
M  ISO  4   8 100  21 100  54 101  57 101
M  END
>  <TORSDO>  (57) 
F 18

>  <SCORE>  (57) 
-14.625

>  <name>  (57) 
56

>  <ligand_id>  (57) 
56

>  <original_smiles>  (57) 
[H]c1c([H])c([H])c2c(c1[H])C([H])([H])C([H])([H])C([H])([H])C2([H])N([H])C(=O)C1([H])N(C(=O)C([H])(N([H])C(=O)C([H])(N([H])C([H])([H])[H])C([H])([H])[H])C(C([H])([H])[H])(C([H])([H])[H])C([H])([H])[H])C([H])([H])c2c([H])c(OC3([H])C(=O)N(C([H])([H])c4c([H])c([H])c(C5([H])C([H])([H])C([H])([H])N(C(=O)N6C([H])([H])C([H])([H])C([H])([H])C([H])(n7nc(-c8c([H])c([H])c(Oc9c([H])c([H])c(F)c([H])c9F)c([H])c8[H])c(C(=O)N([H])[H])c7N([H])[H])C6([H])[H])C([H])([H])C5([H])[H])c([H])c4F)C([H])([H])C3([H])[H])c([H])c([H])c2C1([H])[H]

>  <smiles>  (57) 
[H]c1c([H])c([H])c2c(c1[H])C([H])([H])C([H])([H])C([H])([H])C2([H])N([H])C(=O)C1([H])N(C(=O)C([H])(N([H])C(=O)C([H])(N([H])C([H])([H])[H])C([H])([H])[H])C(C([H])([H])[H])(C([H])([H])[H])C([H])([H])[H])C([H])([H])c2c([H])c(OC3([H])C(=O)N(C([H])([H])c4c([H])c([H])c(C5([H])C([H])([H])C([H])([H])N(C(=O)N6C([H])([H])C([H])([H])C([H])([H])C([H])(n7nc(-c8c([H])c([H])c(Oc9c([H])c([H])c(F)c([H])c9F)c([H])c8[H])c(C(=O)N([H])[H])c7N([H])[H])C6([H])[H])C([H])([H])C5([H])[H])c([H])c4F)C([H])([H])C3([H])[H])c([H])c([H])c2C1([H])[H]

$$$$
57:0:0
     RDKit          3D

 89 97  0  0  1  0  0  0  0  0999 V2000
  -31.7330  -19.5930   20.5940 C   0  0  0  0  0  3  0  0  0  0  0  0
  -31.3470  -18.2320   20.5560 C   0  0  0  0  0  3  0  0  0  0  0  0
  -30.8190  -20.6670   20.4890 C   0  0  0  0  0  3  0  0  0  0  0  0
  -29.0620  -19.0000   20.3060 C   0  0  0  0  0  0  0  0  0  0  0  0
  -30.0010  -17.8240   20.4110 C   0  0  0  0  0  0  0  0  0  0  0  0
  -29.4330  -20.4630   20.3350 C   0  0  0  0  0  0  0  0  0  0  0  0
  -27.5890  -18.6720   20.1580 C   0  0  0  0  0  1  0  0  0  0  0  0
  -30.4810  -15.0820   20.2850 C   0  0  0  0  0  0  0  0  0  0  0  0
  -30.3750  -12.7130   19.3430 C   0  0  0  0  0  2  0  0  0  0  0  0
  -29.4320  -12.6340   18.1190 C   0  0  0  0  0  2  0  0  0  0  0  0
  -27.9770  -12.4020   18.5690 C   0  0  0  0  0  2  0  0  0  0  0  0
  -27.5690  -13.3270   19.7450 C   0  0  0  0  0  3  0  0  0  0  0  0
  -28.6370  -13.3720   20.8580 C   0  0  0  0  0  2  0  0  0  0  0  0
  -29.8870  -13.8140   20.2290 N   0  0  0  0  0  0  0  0  0  0  0  0
  -31.6890  -15.1130   20.0190 O   0  0  0  0  0  0  0  0  0  0  0  0
  -29.7010  -16.2910   20.4130 N   0  0  0  0  0  0  0  0  0  0  0  0
  -28.7210  -16.0790   20.5150 H   0  0  0  0  0  0  0  0  0  0  0  0
  -25.1970  -13.8820   20.5190 C   0  0  0  0  0  0  0  0  0  0  0  0
  -24.1430  -13.0970   20.8950 C   0  0  0  0  0  0  0  0  0  0  0  0
  -24.6150  -11.7500   20.8500 C   0  0  0  0  0  0  0  0  0  0  0  0
  -26.2430  -13.0120   20.2590 N   0  0  0  0  0  0  0  0  0  0  0  0
  -25.9040  -11.7230   20.5260 N   0  0  0  0  0  0  0  0  0  0  0  0
  -23.8960  -10.4810   21.0370 C   0  0  0  0  0  0  0  0  0  0  0  0
  -24.3320   -9.5160   21.9690 C   0  0  0  0  0  3  0  0  0  0  0  0
  -23.6110   -8.3140   22.1450 C   0  0  0  0  0  3  0  0  0  0  0  0
  -22.4410   -8.0710   21.3870 C   0  0  0  0  0  0  0  0  0  0  0  0
  -22.0250   -9.0270   20.4440 C   0  0  0  0  0  3  0  0  0  0  0  0
  -22.7470  -10.2180   20.2660 C   0  0  0  0  0  3  0  0  0  0  0  0
  -21.6910   -6.9220   21.4730 O   0  0  0  0  0  0  0  0  0  0  0  0
  -21.6350   -6.1850   22.6290 C   0  0  0  0  0  0  0  0  0  0  0  0
  -21.1630   -6.7340   23.8410 C   0  0  0  0  0  3  0  0  0  0  0  0
  -21.0560   -5.9210   24.9870 C   0  0  0  0  0  3  0  0  0  0  0  0
  -21.4080   -4.5600   24.9210 C   0  0  0  0  0  0  0  0  0  0  0  0
  -21.8720   -4.0100   23.7130 C   0  0  0  0  0  3  0  0  0  0  0  0
  -21.9810   -4.8200   22.5690 C   0  0  0  0  0  0  0  0  0  0  0  0
  -22.4080   -4.2800   21.4030 F   0  0  0  0  0  0  0  0  0  0  0  0
  -21.2980   -3.7770   26.0200 F   0  0  0  0  0  0  0  0  0  0  0  0
  -22.7460  -13.5650   21.1790 C   0  0  0  0  0  0  0  0  0  0  0  0
  -22.0310  -12.8650   22.0530 N   0  0  0  0  0  0  0  0  0  0  0  0
  -22.2970  -14.5880   20.6620 O   0  0  0  0  0  0  0  0  0  0  0  0
  -22.4080  -12.0380   22.4920 H   0  0  0  0  0  0  0  0  0  0  0  0
  -21.0930  -13.1610   22.2860 H   0  0  0  0  0  0  0  0  0  0  0  0
  -25.3490  -15.2550   20.3470 N   0  0  0  0  0  0  0  0  0  0  0  0
  -24.5700  -15.8940   20.4570 H   0  0  0  0  0  0  0  0  0  0  0  0
  -26.1680  -15.6940   19.9510 H   0  0  0  0  0  0  0  0  0  0  0  0
  -28.5600  -21.6590   20.2210 O   0  0  0  0  0  0  0  0  0  0  0  0
  -28.9580  -23.1850   20.3140 C   0  0  0  0  0  3  0  0  0  0  0  0
  -27.9480  -24.5640   20.1000 C   0  0  0  0  0  3  0  0  0  0  0  0
  -28.2320  -26.1160   20.2680 O   0  0  0  0  0  0  0  0  0  0  0  0
  -24.6300  -31.8780   23.2560 C   0  0  0  0  0  0  0  0  0  0  0  0
  -27.1940  -27.1350   20.2040 C   0  0  0  0  0  0  0  0  0  0  0  0
  -23.4350  -30.5040   21.5990 C   0  0  0  0  0  3  0  0  0  0  0  0
  -24.8830  -28.9280   20.1680 C   0  0  0  0  0  0  0  0  0  0  0  0
  -25.9940  -30.7440   21.4540 C   0  0  0  0  0  2  0  0  0  0  0  0
  -26.0640  -29.3530   20.7890 C   0  0  0  0  0  0  0  0  0  0  0  0
  -27.2190  -28.4760   20.7870 C   0  0  0  0  0  3  0  0  0  0  0  0
  -25.9850  -26.8250   19.5440 C   0  0  0  0  0  3  0  0  0  0  0  0
  -24.8590  -27.6790   19.5290 C   0  0  0  0  0  3  0  0  0  0  0  0
  -23.6620  -29.8370   20.2160 C   0  0  0  0  0  2  0  0  0  0  0  0
  -24.7060  -31.0640   22.1570 N   0  0  0  0  0  0  0  0  0  0  0  0
  -23.5410  -32.1650   23.7790 O   0  0  0  0  0  0  0  0  0  0  0  0
  -22.7420  -29.4930   22.5480 C   0  0  0  0  0  0  0  0  0  0  0  0
  -21.4130  -29.3270   22.4080 N   0  0  0  0  0  0  0  0  0  0  0  0
  -23.4020  -28.8620   23.3770 O   0  0  0  0  0  0  0  0  0  0  0  0
  -20.9360  -29.8890   21.7170 H   0  0  0  0  0  0  0  0  0  0  0  0
  -18.0250  -28.1280   22.8740 C   0  0  0  0  0  0  0  0  0  0  0  0
  -20.5830  -28.3880   23.1670 C   0  0  0  0  0  3  0  0  0  0  0  0
  -20.6880  -26.9570   22.5870 C   0  0  0  0  0  2  0  0  0  0  0  0
  -19.5960  -26.6410   21.5600 C   0  0  0  0  0  2  0  0  0  0  0  0
  -18.2080  -26.7830   22.1910 C   0  0  0  0  0  2  0  0  0  0  0  0
  -19.1400  -28.8880   23.3180 C   0  0  0  0  0  0  0  0  0  0  0  0
  -18.9140  -30.1460   23.9180 C   0  0  0  0  0  3  0  0  0  0  0  0
  -17.6070  -30.6440   24.0780 C   0  0  0  0  0  3  0  0  0  0  0  0
  -16.5070  -29.8820   23.6490 C   0  0  0  0  0  3  0  0  0  0  0  0
  -16.7170  -28.6260   23.0520 C   0  0  0  0  0  3  0  0  0  0  0  0
  -25.9060  -32.5040   23.8970 C   0  0  0  0  0  3  0  0  0  0  0  0
  -26.3950  -31.7310   25.1840 C   0  0  1  0  0  0  0  0  0  0  0  0
  -25.2840  -31.5070   26.2370 C   0  0  0  0  0  1  0  0  0  0  0  0
  -26.9720  -30.3470   24.8090 C   0  0  0  0  0  1  0  0  0  0  0  0
  -27.5430  -32.5160   25.8610 C   0  0  0  0  0  1  0  0  0  0  0  0
  -25.6010  -33.9050   24.2290 N   0  0  0  0  0  0  0  0  0  0  0  0
  -25.9190  -34.9600   23.4680 C   0  0  0  0  0  0  0  0  0  0  0  0
  -26.5670  -34.8560   22.4220 O   0  0  0  0  0  0  0  0  0  0  0  0
  -25.0220  -34.0610   25.0420 H   0  0  0  0  0  0  0  0  0  0  0  0
  -24.1740  -36.7510   23.1740 C   0  0  0  0  0  1  0  0  0  0  0  0
  -25.4480  -36.3510   23.9370 C   0  0  0  0  0  3  0  0  0  0  0  0
  -27.6060  -37.2530   24.6840 C   0  0  0  0  0  1  0  0  0  0  0  0
  -26.4720  -37.4060   23.7780 N   0  0  0  0  0  0  0  0  0  0  0  0
  -26.0680  -38.3270   23.9290 H   0  0  0  0  0  0  0  0  0  0  0  0
  2  1  1  0
  3  1  2  0
  4  6  2  0
  4  5  1  0
  5 16  1  0
  5  2  2  0
  6  3  1  0
  7  4  1  0
  8 16  1  0
  9 14  1  0
 10 11  1  0
 10  9  1  0
 12 11  1  0
 12 21  1  0
 12 13  1  0
 14  8  1  0
 14 13  1  0
 15  8  2  0
 16 17  1  0
 18 19  2  0
 19 38  1  0
 20 19  1  0
 20 23  1  0
 21 18  1  0
 21 22  1  0
 22 20  2  0
 23 24  1  0
 24 25  2  0
 26 29  1  0
 26 25  1  0
 27 26  2  0
 28 27  1  0
 28 23  2  0
 29 30  1  0
 30 31  1  0
 31 32  2  0
 33 32  1  0
 33 37  1  0
 34 33  2  0
 35 30  2  0
 35 34  1  0
 36 35  1  0
 38 39  1  0
 39 42  1  0
 39 41  1  0
 40 38  2  0
 43 44  1  0
 43 18  1  0
 45 43  1  0
 46 47  1  0
 46  6  1  0
 48 49  1  0
 48 47  2  0
 50 61  2  0
 51 49  1  0
 51 56  1  0
 52 60  1  0
 52 62  1  0
 53 59  1  0
 53 55  1  0
 54 60  1  0
 55 54  1  0
 56 55  2  0
 57 51  2  0
 58 57  1  0
 58 53  2  0
 59 52  1  0
 60 50  1  0
 62 64  2  0
 63 62  1  0
 65 63  1  0
 66 75  2  0
 66 71  1  0
 67 63  1  0
 67 71  1  0
 68 67  1  0
 69 70  1  0
 69 68  1  0
 70 66  1  0
 71 72  2  0
 72 73  1  0
 74 73  2  0
 75 74  1  0
 76 50  1  0
 76 81  1  0
 76 77  1  0
 77 80  1  1
 77 78  1  0
 79 77  1  0
 81 84  1  0
 82 86  1  0
 82 81  1  0
 83 82  2  0
 86 85  1  0
 88 89  1  0
 88 86  1  0
 88 87  1  0
M  ISO  4   8 100  16 100  48 101  49 101
M  END
>  <TORSDO>  (58) 
F 19

>  <SCORE>  (58) 
-15.197

>  <name>  (58) 
57

>  <ligand_id>  (58) 
57

>  <original_smiles>  (58) 
[H]c1c([H])c(OC([H])([H])C([H])([H])Oc2c([H])c([H])c3c(c2[H])C([H])([H])N(C(=O)C([H])(N([H])C(=O)C([H])(N([H])C([H])([H])[H])C([H])([H])[H])C(C([H])([H])[H])(C([H])([H])[H])C([H])([H])[H])C([H])(C(=O)N([H])C2([H])c4c([H])c([H])c([H])c([H])c4C([H])([H])C([H])([H])C2([H])[H])C3([H])[H])c(C([H])([H])[H])c(N([H])C(=O)N2C([H])([H])C([H])([H])C([H])([H])C([H])(n3nc(-c4c([H])c([H])c(Oc5c([H])c([H])c(F)c([H])c5F)c([H])c4[H])c(C(=O)N([H])[H])c3N([H])[H])C2([H])[H])c1[H]

>  <smiles>  (58) 
[H]c1c([H])c(OC([H])([H])C([H])([H])Oc2c([H])c([H])c3c(c2[H])C([H])([H])N(C(=O)C([H])(N([H])C(=O)C([H])(N([H])C([H])([H])[H])C([H])([H])[H])C(C([H])([H])[H])(C([H])([H])[H])C([H])([H])[H])C([H])(C(=O)N([H])C2([H])c4c([H])c([H])c([H])c([H])c4C([H])([H])C([H])([H])C2([H])[H])C3([H])[H])c(C([H])([H])[H])c(N([H])C(=O)N2C([H])([H])C([H])([H])C([H])([H])C([H])(n3nc(-c4c([H])c([H])c(Oc5c([H])c([H])c(F)c([H])c5F)c([H])c4[H])c(C(=O)N([H])[H])c3N([H])[H])C2([H])[H])c1[H]

$$$$
58:0:0
     RDKit          3D

 95103  0  0  1  0  0  0  0  0999 V2000
  -28.0460  -20.8230   21.2670 N   0  0  0  0  0  4  0  0  0  0  0  0
  -28.0840  -20.2150   22.0700 H   0  0  0  0  0  0  0  0  0  0  0  0
  -27.2150  -20.5720   20.7560 H   0  0  0  0  0  0  0  0  0  0  0  0
  -29.1820  -22.7970   22.4060 C   0  0  0  0  0  1  0  0  0  0  0  0
  -27.9120  -22.2330   21.7310 C   0  0  0  0  0  3  0  0  0  0  0  0
  -27.3030  -23.1810   20.6730 C   0  0  0  0  0  2  0  0  0  0  0  0
  -28.2930  -23.9980   20.0410 O   0  0  0  0  0  0  0  0  0  0  0  0
  -27.6780  -24.9940   19.2200 C   0  0  0  0  0  2  0  0  0  0  0  0
  -28.4510  -26.3340   19.2490 C   0  0  0  0  0  2  0  0  0  0  0  0
  -27.9730  -27.2640   18.2670 O   0  0  0  0  0  0  0  0  0  0  0  0
  -24.4810  -31.3770   22.8900 C   0  0  0  0  0  0  0  0  0  0  0  0
  -26.7940  -27.8820   18.6010 C   0  0  0  0  0  0  0  0  0  0  0  0
  -23.0860  -30.1950   21.2230 C   0  0  0  0  0  3  0  0  0  0  0  0
  -24.3490  -29.1030   19.2970 C   0  0  0  0  0  0  0  0  0  0  0  0
  -25.5010  -30.8360   20.6830 C   0  0  0  0  0  2  0  0  0  0  0  0
  -25.5560  -29.6200   19.7850 C   0  0  0  0  0  0  0  0  0  0  0  0
  -26.7840  -29.0140   19.4420 C   0  0  0  0  0  3  0  0  0  0  0  0
  -25.5750  -27.3960   18.0850 C   0  0  0  0  0  3  0  0  0  0  0  0
  -24.3510  -27.9890   18.4410 C   0  0  0  0  0  3  0  0  0  0  0  0
  -23.0790  -29.8070   19.7220 C   0  0  0  0  0  2  0  0  0  0  0  0
  -24.3830  -30.8080   21.6570 N   0  0  0  0  0  0  0  0  0  0  0  0
  -23.5040  -31.4340   23.6480 O   0  0  0  0  0  0  0  0  0  0  0  0
  -22.6880  -28.9540   22.0580 C   0  0  0  0  0  0  0  0  0  0  0  0
  -21.3950  -28.5890   22.0100 N   0  0  0  0  0  0  0  0  0  0  0  0
  -23.5330  -28.3300   22.7020 O   0  0  0  0  0  0  0  0  0  0  0  0
  -20.7640  -29.1590   21.4650 H   0  0  0  0  0  0  0  0  0  0  0  0
  -18.3310  -26.7130   22.3920 C   0  0  0  0  0  0  0  0  0  0  0  0
  -20.7970  -27.4340   22.6770 C   0  0  0  0  0  3  0  0  0  0  0  0
  -21.1600  -26.1180   21.9500 C   0  0  0  0  0  2  0  0  0  0  0  0
  -20.1140  -25.6920   20.9140 C   0  0  0  0  0  2  0  0  0  0  0  0
  -18.7450  -25.4990   21.5770 C   0  0  0  0  0  2  0  0  0  0  0  0
  -19.2930  -27.6290   22.8960 C   0  0  0  0  0  0  0  0  0  0  0  0
  -18.8500  -28.7590   23.6180 C   0  0  0  0  0  3  0  0  0  0  0  0
  -17.4780  -28.9780   23.8420 C   0  0  0  0  0  3  0  0  0  0  0  0
  -16.5310  -28.0600   23.3560 C   0  0  0  0  0  3  0  0  0  0  0  0
  -16.9600  -26.9290   22.6380 C   0  0  0  0  0  3  0  0  0  0  0  0
  -25.8180  -31.9980   23.4000 C   0  0  0  0  0  3  0  0  0  0  0  0
  -25.5010  -33.3160   23.9710 N   0  0  0  0  0  0  0  0  0  0  0  0
  -25.7480  -34.4870   23.3650 C   0  0  0  0  0  0  0  0  0  0  0  0
  -26.3350  -34.5720   22.2830 O   0  0  0  0  0  0  0  0  0  0  0  0
  -24.9790  -33.3200   24.8330 H   0  0  0  0  0  0  0  0  0  0  0  0
  -23.9670  -36.2620   23.4000 C   0  0  0  0  0  1  0  0  0  0  0  0
  -25.2570  -35.7660   24.0700 C   0  0  0  0  0  3  0  0  0  0  0  0
  -27.4130  -36.5610   24.9260 C   0  0  0  0  0  1  0  0  0  0  0  0
  -26.2600  -36.8520   24.0810 N   0  0  0  0  0  0  0  0  0  0  0  0
  -25.8430  -37.7230   24.3960 H   0  0  0  0  0  0  0  0  0  0  0  0
  -26.5620  -31.0930   24.4580 C   0  0  1  0  0  0  0  0  0  0  0  0
  -25.6640  -30.6440   25.6340 C   0  0  0  0  0  1  0  0  0  0  0  0
  -27.1270  -29.8220   23.7830 C   0  0  0  0  0  1  0  0  0  0  0  0
  -27.7720  -31.8590   25.0460 C   0  0  0  0  0  1  0  0  0  0  0  0
  -29.1980  -20.4810   20.4080 C   0  0  0  0  0  2  0  0  0  0  0  0
  -28.1670  -17.5300   18.1880 C   0  0  0  0  0  3  0  0  0  0  0  0
  -28.3410  -18.8360   18.6770 C   0  0  0  0  0  3  0  0  0  0  0  0
  -28.6870  -16.4360   18.9030 C   0  0  0  0  0  3  0  0  0  0  0  0
  -29.5480  -17.9530   20.6050 C   0  0  0  0  0  3  0  0  0  0  0  0
  -29.0340  -19.0590   19.8850 C   0  0  0  0  0  0  0  0  0  0  0  0
  -29.3890  -16.6350   20.1160 C   0  0  0  0  0  0  0  0  0  0  0  0
  -30.5710  -14.4940   20.3200 C   0  0  0  0  0  0  0  0  0  0  0  0
  -30.2650  -12.2640   19.3240 C   0  0  0  0  0  2  0  0  0  0  0  0
  -29.3140  -12.3580   18.1140 C   0  0  0  0  0  2  0  0  0  0  0  0
  -27.8460  -12.2370   18.5690 C   0  0  0  0  0  2  0  0  0  0  0  0
  -27.5060  -13.1750   19.7580 C   0  0  0  0  0  3  0  0  0  0  0  0
  -28.5730  -13.0590   20.8750 C   0  0  0  0  0  2  0  0  0  0  0  0
  -29.8920  -13.3190   20.2760 N   0  0  0  0  0  0  0  0  0  0  0  0
  -31.6660  -14.6690   19.7780 O   0  0  0  0  0  0  0  0  0  0  0  0
  -29.9160  -15.5350   20.8580 N   0  0  0  0  0  0  0  0  0  0  0  0
  -30.0390  -15.6610   21.8550 H   0  0  0  0  0  0  0  0  0  0  0  0
  -25.1440  -13.8360   20.5370 C   0  0  0  0  0  0  0  0  0  0  0  0
  -24.0640  -13.0860   20.9150 C   0  0  0  0  0  0  0  0  0  0  0  0
  -24.4840  -11.7240   20.8390 C   0  0  0  0  0  0  0  0  0  0  0  0
  -26.1590  -12.9300   20.2640 N   0  0  0  0  0  0  0  0  0  0  0  0
  -25.7650  -11.6530   20.5000 N   0  0  0  0  0  0  0  0  0  0  0  0
  -23.7240  -10.4810   21.0120 C   0  0  0  0  0  0  0  0  0  0  0  0
  -24.1190   -9.4970   21.9450 C   0  0  0  0  0  3  0  0  0  0  0  0
  -23.3600   -8.3170   22.1060 C   0  0  0  0  0  3  0  0  0  0  0  0
  -22.1930   -8.1110   21.3310 C   0  0  0  0  0  0  0  0  0  0  0  0
  -21.8200   -9.0810   20.3840 C   0  0  0  0  0  3  0  0  0  0  0  0
  -22.5790  -10.2540   20.2230 C   0  0  0  0  0  3  0  0  0  0  0  0
  -21.4080   -6.9830   21.4010 O   0  0  0  0  0  0  0  0  0  0  0  0
  -21.2960   -6.2560   22.5580 C   0  0  0  0  0  0  0  0  0  0  0  0
  -20.7880   -6.8230   23.7480 C   0  0  0  0  0  3  0  0  0  0  0  0
  -20.6270   -6.0220   24.8980 C   0  0  0  0  0  3  0  0  0  0  0  0
  -20.9630   -4.6560   24.8560 C   0  0  0  0  0  0  0  0  0  0  0  0
  -21.4600   -4.0870   23.6690 C   0  0  0  0  0  3  0  0  0  0  0  0
  -21.6250   -4.8860   22.5240 C   0  0  0  0  0  0  0  0  0  0  0  0
  -22.0900   -4.3300   21.3790 F   0  0  0  0  0  0  0  0  0  0  0  0
  -20.7970   -3.8830   25.9570 F   0  0  0  0  0  0  0  0  0  0  0  0
  -22.6900  -13.6000   21.2390 C   0  0  0  0  0  0  0  0  0  0  0  0
  -21.9650  -12.9040   22.1100 N   0  0  0  0  0  0  0  0  0  0  0  0
  -22.2690  -14.6510   20.7570 O   0  0  0  0  0  0  0  0  0  0  0  0
  -22.3140  -12.0520   22.5240 H   0  0  0  0  0  0  0  0  0  0  0  0
  -21.0460  -13.2280   22.3720 H   0  0  0  0  0  0  0  0  0  0  0  0
  -25.3440  -15.2020   20.3820 N   0  0  0  0  0  0  0  0  0  0  0  0
  -24.6060  -15.8850   20.5150 H   0  0  0  0  0  0  0  0  0  0  0  0
  -26.2110  -15.6170   20.0630 H   0  0  0  0  0  0  0  0  0  0  0  0
  1  5  1  0
  1  2  1  0
  3  1  1  0
  5  4  1  0
  6  5  1  0
  7  6  1  0
  8  9  1  0
  8  7  1  0
 10 12  1  0
 10  9  1  0
 11 22  2  0
 12 17  1  0
 13 21  1  0
 13 23  1  0
 14 20  1  0
 14 16  1  0
 15 21  1  0
 16 15  1  0
 17 16  2  0
 18 19  1  0
 18 12  2  0
 19 14  2  0
 20 13  1  0
 21 11  1  0
 23 25  2  0
 24 23  1  0
 26 24  1  0
 27 36  2  0
 27 32  1  0
 28 24  1  0
 28 32  1  0
 29 28  1  0
 30 31  1  0
 30 29  1  0
 31 27  1  0
 32 33  2  0
 33 34  1  0
 35 34  2  0
 36 35  1  0
 37 11  1  0
 37 38  1  0
 37 47  1  0
 38 41  1  0
 39 38  1  0
 39 43  1  0
 40 39  2  0
 43 42  1  0
 43 45  1  0
 45 46  1  0
 45 44  1  0
 47 50  1  1
 47 48  1  0
 49 47  1  0
 51  1  1  0
 52 53  2  0
 52 54  1  0
 53 56  1  0
 54 57  2  0
 56 51  1  0
 56 55  2  0
 57 55  1  0
 57 66  1  0
 58 66  1  0
 59 64  1  0
 60 61  1  0
 60 59  1  0
 62 61  1  0
 62 71  1  0
 62 63  1  0
 64 58  1  0
 64 63  1  0
 65 58  2  0
 66 67  1  0
 68 69  2  0
 69 88  1  0
 70 69  1  0
 70 73  1  0
 71 72  1  0
 71 68  1  0
 72 70  2  0
 73 74  1  0
 74 75  2  0
 76 79  1  0
 76 75  1  0
 77 76  2  0
 78 77  1  0
 78 73  2  0
 79 80  1  0
 80 81  1  0
 81 82  2  0
 83 82  1  0
 83 87  1  0
 84 83  2  0
 85 80  2  0
 85 84  1  0
 86 85  1  0
 88 89  1  0
 89 92  1  0
 89 91  1  0
 90 88  2  0
 93 94  1  0
 93 68  1  0
 95 93  1  0
M  ISO  4   9 101  10 101  58 100  66 100
M  END
>  <TORSDO>  (59) 
F 23

>  <SCORE>  (59) 
-10.593

>  <name>  (59) 
58

>  <ligand_id>  (59) 
58

>  <original_smiles>  (59) 
[H]c1c([H])c([H])c2c(c1[H])C([H])([H])C([H])([H])C([H])([H])C2([H])N([H])C(=O)C1([H])N(C(=O)C([H])(N([H])C(=O)C([H])(N([H])C([H])([H])[H])C([H])([H])[H])C(C([H])([H])[H])(C([H])([H])[H])C([H])([H])[H])C([H])([H])c2c([H])c(OC([H])([H])C([H])([H])OC([H])([H])C([H])(C([H])([H])[H])[N+]([H])([H])C([H])([H])c3c([H])c([H])c([H])c(N([H])C(=O)N4C([H])([H])C([H])([H])C([H])([H])C([H])(n5nc(-c6c([H])c([H])c(Oc7c([H])c([H])c(F)c([H])c7F)c([H])c6[H])c(C(=O)N([H])[H])c5N([H])[H])C4([H])[H])c3[H])c([H])c([H])c2C1([H])[H]

>  <smiles>  (59) 
[H]c1c([H])c([H])c2c(c1[H])C([H])([H])C([H])([H])C([H])([H])C2([H])N([H])C(=O)C1([H])N(C(=O)C([H])(N([H])C(=O)C([H])(N([H])C([H])([H])[H])C([H])([H])[H])C(C([H])([H])[H])(C([H])([H])[H])C([H])([H])[H])C([H])([H])c2c([H])c(OC([H])([H])C([H])([H])OC([H])([H])C([H])(C([H])([H])[H])[N+]([H])([H])C([H])([H])c3c([H])c([H])c([H])c(N([H])C(=O)N4C([H])([H])C([H])([H])C([H])([H])C([H])(n5nc(-c6c([H])c([H])c(Oc7c([H])c([H])c(F)c([H])c7F)c([H])c6[H])c(C(=O)N([H])[H])c5N([H])[H])C4([H])[H])c3[H])c([H])c([H])c2C1([H])[H]

$$$$
59:0:0
     RDKit          3D

 92101  0  0  1  0  0  0  0  0999 V2000
  -30.6470  -21.7290   18.0910 C   0  0  0  0  0  2  0  0  0  0  0  0
  -30.0860  -20.3430   18.3880 C   0  0  0  0  0  2  0  0  0  0  0  0
  -29.3640  -19.1110   20.2170 C   0  0  0  0  0  3  0  0  0  0  0  0
  -30.5210  -22.6820   19.2970 C   0  0  0  0  0  3  0  0  0  0  0  0
  -29.5650  -20.6990   20.7670 C   0  0  0  0  0  3  0  0  0  0  0  0
  -30.4070  -20.0010   19.7740 N   0  0  0  0  0  0  0  0  0  0  0  0
  -29.4530  -22.2330   20.2430 N   0  0  2  0  0  4  0  0  0  0  0  0
  -29.8450  -22.6110   21.0930 H   0  0  0  0  0  0  0  0  0  0  0  0
  -32.8940  -23.7130   19.2480 C   0  0  0  0  0  1  0  0  0  0  0  0
  -31.8610  -22.8970   20.0440 C   0  0  0  0  0  2  0  0  0  0  0  0
  -30.1870  -17.6950   20.6100 C   0  0  0  0  0  2  0  0  0  0  0  0
  -30.5210  -14.9790   20.4020 C   0  0  0  0  0  0  0  0  0  0  0  0
  -30.4000  -12.6330   19.4500 C   0  0  0  0  0  2  0  0  0  0  0  0
  -29.4750  -12.5910   18.2130 C   0  0  0  0  0  2  0  0  0  0  0  0
  -28.0100  -12.3780   18.6390 C   0  0  0  0  0  2  0  0  0  0  0  0
  -27.5960  -13.3010   19.8150 C   0  0  0  0  0  3  0  0  0  0  0  0
  -28.6450  -13.3150   20.9460 C   0  0  0  0  0  2  0  0  0  0  0  0
  -29.9150  -13.7260   20.3400 N   0  0  0  0  0  0  0  0  0  0  0  0
  -31.7310  -15.0300   20.1550 O   0  0  0  0  0  0  0  0  0  0  0  0
  -29.7580  -16.1740   20.5360 N   0  0  0  0  0  0  0  0  0  0  0  0
  -28.7690  -16.0130   20.6550 H   0  0  0  0  0  0  0  0  0  0  0  0
  -25.2090  -13.8740   20.5350 C   0  0  0  0  0  0  0  0  0  0  0  0
  -24.1450  -13.0960   20.9000 C   0  0  0  0  0  0  0  0  0  0  0  0
  -24.6160  -11.7460   20.8790 C   0  0  0  0  0  0  0  0  0  0  0  0
  -26.2570  -12.9980   20.3060 N   0  0  0  0  0  0  0  0  0  0  0  0
  -25.9100  -11.7150   20.5790 N   0  0  0  0  0  0  0  0  0  0  0  0
  -23.8930  -10.4820   21.0660 C   0  0  0  0  0  0  0  0  0  0  0  0
  -24.3260   -9.5130   21.9990 C   0  0  0  0  0  3  0  0  0  0  0  0
  -23.6010   -8.3150   22.1750 C   0  0  0  0  0  3  0  0  0  0  0  0
  -22.4270   -8.0780   21.4190 C   0  0  0  0  0  0  0  0  0  0  0  0
  -22.0140   -9.0350   20.4760 C   0  0  0  0  0  3  0  0  0  0  0  0
  -22.7400  -10.2240   20.2980 C   0  0  0  0  0  3  0  0  0  0  0  0
  -21.6740   -6.9310   21.5050 O   0  0  0  0  0  0  0  0  0  0  0  0
  -21.6340   -6.1810   22.6510 C   0  0  0  0  0  0  0  0  0  0  0  0
  -21.2220   -6.7280   23.8870 C   0  0  0  0  0  3  0  0  0  0  0  0
  -21.1300   -5.9040   25.0260 C   0  0  0  0  0  3  0  0  0  0  0  0
  -21.4390   -4.5340   24.9320 C   0  0  0  0  0  0  0  0  0  0  0  0
  -21.8440   -3.9860   23.7020 C   0  0  0  0  0  3  0  0  0  0  0  0
  -21.9380   -4.8060   22.5650 C   0  0  0  0  0  0  0  0  0  0  0  0
  -22.3080   -4.2700   21.3780 F   0  0  0  0  0  0  0  0  0  0  0  0
  -21.3420   -3.7400   26.0250 F   0  0  0  0  0  0  0  0  0  0  0  0
  -22.7440  -13.5690   21.1540 C   0  0  0  0  0  0  0  0  0  0  0  0
  -22.0100  -12.8730   22.0150 N   0  0  0  0  0  0  0  0  0  0  0  0
  -22.3080  -14.5910   20.6260 O   0  0  0  0  0  0  0  0  0  0  0  0
  -22.3760  -12.0460   22.4640 H   0  0  0  0  0  0  0  0  0  0  0  0
  -21.0690  -13.1730   22.2300 H   0  0  0  0  0  0  0  0  0  0  0  0
  -25.3670  -15.2440   20.3500 N   0  0  0  0  0  0  0  0  0  0  0  0
  -24.5910  -15.8920   20.4430 H   0  0  0  0  0  0  0  0  0  0  0  0
  -26.2020  -15.6810   19.9830 H   0  0  0  0  0  0  0  0  0  0  0  0
  -28.2290  -23.2320   20.2030 C   0  0  0  0  0  2  0  0  0  0  0  0
  -28.2760  -24.8140   20.8220 C   0  0  0  0  0  2  0  0  0  0  0  0
  -28.3350  -26.2350   20.1920 O   0  0  0  0  0  0  0  0  0  0  0  0
  -24.6580  -31.8820   23.2440 C   0  0  0  0  0  0  0  0  0  0  0  0
  -27.2510  -27.1790   20.2310 C   0  0  0  0  0  0  0  0  0  0  0  0
  -23.4580  -30.4730   21.6160 C   0  0  0  0  0  3  0  0  0  0  0  0
  -24.9080  -28.8940   20.2000 C   0  0  0  0  0  0  0  0  0  0  0  0
  -26.0070  -30.7560   21.4350 C   0  0  0  0  0  2  0  0  0  0  0  0
  -26.0880  -29.3600   20.7960 C   0  0  0  0  0  0  0  0  0  0  0  0
  -27.2640  -28.5210   20.7870 C   0  0  0  0  0  3  0  0  0  0  0  0
  -26.0440  -26.8010   19.6110 C   0  0  0  0  0  3  0  0  0  0  0  0
  -24.8970  -27.6270   19.5940 C   0  0  0  0  0  3  0  0  0  0  0  0
  -23.6770  -29.7860   20.2410 C   0  0  0  0  0  2  0  0  0  0  0  0
  -24.7280  -31.0590   22.1520 N   0  0  0  0  0  0  0  0  0  0  0  0
  -23.5730  -32.1630   23.7760 O   0  0  0  0  0  0  0  0  0  0  0  0
  -22.7900  -29.4670   22.5860 C   0  0  0  0  0  0  0  0  0  0  0  0
  -21.4630  -29.2830   22.4600 N   0  0  0  0  0  0  0  0  0  0  0  0
  -23.4670  -28.8510   23.4130 O   0  0  0  0  0  0  0  0  0  0  0  0
  -20.9730  -29.8310   21.7670 H   0  0  0  0  0  0  0  0  0  0  0  0
  -18.0950  -28.0470   22.9610 C   0  0  0  0  0  0  0  0  0  0  0  0
  -20.6490  -28.3440   23.2380 C   0  0  0  0  0  3  0  0  0  0  0  0
  -20.7730  -26.9080   22.6810 C   0  0  0  0  0  2  0  0  0  0  0  0
  -19.6800  -26.5600   21.6640 C   0  0  0  0  0  2  0  0  0  0  0  0
  -18.2930  -26.6930   22.2990 C   0  0  0  0  0  2  0  0  0  0  0  0
  -19.2020  -28.8290   23.3870 C   0  0  0  0  0  0  0  0  0  0  0  0
  -18.9630  -30.0940   23.9670 C   0  0  0  0  0  3  0  0  0  0  0  0
  -17.6500  -30.5770   24.1230 C   0  0  0  0  0  3  0  0  0  0  0  0
  -16.5590  -29.7930   23.7110 C   0  0  0  0  0  3  0  0  0  0  0  0
  -16.7820  -28.5300   23.1360 C   0  0  0  0  0  3  0  0  0  0  0  0
  -25.9350  -32.5260   23.8640 C   0  0  0  0  0  3  0  0  0  0  0  0
  -26.4560  -31.7640   25.1450 C   0  0  1  0  0  0  0  0  0  0  0  0
  -25.3650  -31.5310   26.2170 C   0  0  0  0  0  1  0  0  0  0  0  0
  -27.0410  -30.3860   24.7640 C   0  0  0  0  0  1  0  0  0  0  0  0
  -27.6050  -32.5670   25.8010 C   0  0  0  0  0  1  0  0  0  0  0  0
  -25.6160  -33.9250   24.1940 N   0  0  0  0  0  0  0  0  0  0  0  0
  -25.9340  -34.9820   23.4340 C   0  0  0  0  0  0  0  0  0  0  0  0
  -26.5920  -34.8820   22.3960 O   0  0  0  0  0  0  0  0  0  0  0  0
  -25.0290  -34.0750   25.0010 H   0  0  0  0  0  0  0  0  0  0  0  0
  -24.1860  -36.7630   23.1100 C   0  0  0  0  0  1  0  0  0  0  0  0
  -25.4440  -36.3680   23.8980 C   0  0  0  0  0  3  0  0  0  0  0  0
  -27.5870  -37.2710   24.6890 C   0  0  0  0  0  1  0  0  0  0  0  0
  -26.4670  -37.4290   23.7660 N   0  0  0  0  0  0  0  0  0  0  0  0
  -26.0570  -38.3460   23.9180 H   0  0  0  0  0  0  0  0  0  0  0  0
  1  2  1  0
  1  4  1  0
  3 11  1  0
  3  5  1  0
  4 10  1  0
  4  7  1  0
  5  7  1  0
  6  2  1  0
  6  3  1  0
  6  5  1  0
  7  8  1  1
  9 10  1  0
 12 20  1  0
 13 18  1  0
 14 15  1  0
 14 13  1  0
 16 15  1  0
 16 25  1  0
 16 17  1  0
 18 12  1  0
 18 17  1  0
 19 12  2  0
 20 11  1  0
 20 21  1  0
 22 23  2  0
 23 42  1  0
 24 23  1  0
 24 27  1  0
 25 22  1  0
 25 26  1  0
 26 24  2  0
 27 28  1  0
 28 29  2  0
 30 33  1  0
 30 29  1  0
 31 30  2  0
 32 31  1  0
 32 27  2  0
 33 34  1  0
 34 35  1  0
 35 36  2  0
 37 36  1  0
 37 41  1  0
 38 37  2  0
 39 34  2  0
 39 38  1  0
 40 39  1  0
 42 43  1  0
 43 46  1  0
 43 45  1  0
 44 42  2  0
 47 48  1  0
 47 22  1  0
 49 47  1  0
 50  7  1  0
 50 51  1  0
 52 54  1  0
 52 51  1  0
 53 64  2  0
 54 59  1  0
 55 63  1  0
 55 65  1  0
 56 62  1  0
 56 58  1  0
 57 63  1  0
 58 57  1  0
 59 58  2  0
 60 54  2  0
 61 60  1  0
 61 56  2  0
 62 55  1  0
 63 53  1  0
 65 67  2  0
 66 65  1  0
 68 66  1  0
 69 78  2  0
 69 74  1  0
 70 66  1  0
 70 74  1  0
 71 70  1  0
 72 73  1  0
 72 71  1  0
 73 69  1  0
 74 75  2  0
 75 76  1  0
 77 76  2  0
 78 77  1  0
 79 53  1  0
 79 84  1  0
 79 80  1  0
 80 83  1  1
 80 81  1  0
 82 80  1  0
 84 87  1  0
 85 89  1  0
 85 84  1  0
 86 85  2  0
 89 88  1  0
 91 89  1  0
 91 92  1  0
 91 90  1  0
M  ISO  4  12 100  20 100  51 101  52 101
M  END
>  <TORSDO>  (60) 
F 20

>  <SCORE>  (60) 
-14.595

>  <name>  (60) 
59

>  <ligand_id>  (60) 
59

>  <original_smiles>  (60) 
[H]c1c([H])c([H])c2c(c1[H])C([H])([H])C([H])([H])C([H])([H])C2([H])N([H])C(=O)C1([H])N(C(=O)C([H])(N([H])C(=O)C([H])(N([H])C([H])([H])[H])C([H])([H])[H])C(C([H])([H])[H])(C([H])([H])[H])C([H])([H])[H])C([H])([H])c2c([H])c(OC([H])([H])C([H])([H])[N+]3([H])C4([H])N(C([H])([H])C([H])([H])C3([H])C([H])([H])C([H])([H])[H])C4([H])C([H])([H])N([H])C(=O)N3C([H])([H])C([H])([H])C([H])([H])C([H])(n4nc(-c5c([H])c([H])c(Oc6c([H])c([H])c(F)c([H])c6F)c([H])c5[H])c(C(=O)N([H])[H])c4N([H])[H])C3([H])[H])c([H])c([H])c2C1([H])[H]

>  <smiles>  (60) 
[H]c1c([H])c([H])c2c(c1[H])C([H])([H])C([H])([H])C([H])([H])C2([H])N([H])C(=O)C1([H])N(C(=O)C([H])(N([H])C(=O)C([H])(N([H])C([H])([H])[H])C([H])([H])[H])C(C([H])([H])[H])(C([H])([H])[H])C([H])([H])[H])C([H])([H])c2c([H])c(OC([H])([H])C([H])([H])[N+]3([H])C4([H])N(C([H])([H])C([H])([H])C3([H])C([H])([H])C([H])([H])[H])C4([H])C([H])([H])N([H])C(=O)N3C([H])([H])C([H])([H])C([H])([H])C([H])(n4nc(-c5c([H])c([H])c(Oc6c([H])c([H])c(F)c([H])c6F)c([H])c5[H])c(C(=O)N([H])[H])c4N([H])[H])C3([H])[H])c([H])c([H])c2C1([H])[H]

$$$$
60:0:0
     RDKit          3D

 89 97  0  0  1  0  0  0  0  0999 V2000
  -30.3160  -20.6260   20.0310 C   0  0  0  0  0  3  0  0  0  0  0  0
  -30.5230  -19.1490   20.0520 C   0  0  0  0  0  3  0  0  0  0  0  0
  -28.0510  -20.3620   20.2470 C   0  0  0  0  0  3  0  0  0  0  0  0
  -29.0710  -21.3950   20.1240 C   0  0  0  0  0  0  0  0  0  0  0  0
  -29.4990  -18.1250   20.1760 C   0  0  0  0  0  0  0  0  0  0  0  0
  -28.2460  -18.8820   20.2660 C   0  0  0  0  0  0  0  0  0  0  0  0
  -27.1240  -18.1320   20.3860 F   0  0  0  0  0  0  0  0  0  0  0  0
  -30.3990  -15.3120   20.0130 C   0  0  0  0  0  0  0  0  0  0  0  0
  -30.3770  -12.8810   19.1020 C   0  0  0  0  0  2  0  0  0  0  0  0
  -29.3920  -12.7030   17.9160 C   0  0  0  0  0  2  0  0  0  0  0  0
  -27.9650  -12.4220   18.4210 C   0  0  0  0  0  2  0  0  0  0  0  0
  -27.5700  -13.3590   19.5900 C   0  0  0  0  0  3  0  0  0  0  0  0
  -28.6730  -13.4730   20.6630 C   0  0  0  0  0  2  0  0  0  0  0  0
  -29.8720  -13.9920   19.9870 N   0  0  0  0  0  0  0  0  0  0  0  0
  -31.5980  -15.3700   19.6980 O   0  0  0  0  0  0  0  0  0  0  0  0
  -29.5560  -16.5060   20.2160 N   0  0  0  0  0  0  0  0  0  0  0  0
  -28.6360  -16.1660   20.4510 H   0  0  0  0  0  0  0  0  0  0  0  0
  -25.2390  -13.8960   20.4780 C   0  0  0  0  0  0  0  0  0  0  0  0
  -24.1990  -13.1070   20.8800 C   0  0  0  0  0  0  0  0  0  0  0  0
  -24.6630  -11.7590   20.7860 C   0  0  0  0  0  0  0  0  0  0  0  0
  -26.2690  -13.0300   20.1560 N   0  0  0  0  0  0  0  0  0  0  0  0
  -25.9370  -11.7350   20.4070 N   0  0  0  0  0  0  0  0  0  0  0  0
  -23.9460  -10.4900   20.9760 C   0  0  0  0  0  0  0  0  0  0  0  0
  -24.3910   -9.5200   21.9020 C   0  0  0  0  0  3  0  0  0  0  0  0
  -23.6700   -8.3200   22.0810 C   0  0  0  0  0  3  0  0  0  0  0  0
  -22.4920   -8.0790   21.3360 C   0  0  0  0  0  0  0  0  0  0  0  0
  -22.0680   -9.0380   20.3990 C   0  0  0  0  0  3  0  0  0  0  0  0
  -22.7880  -10.2300   20.2170 C   0  0  0  0  0  3  0  0  0  0  0  0
  -21.7430   -6.9310   21.4250 O   0  0  0  0  0  0  0  0  0  0  0  0
  -21.6640   -6.2130   22.5910 C   0  0  0  0  0  0  0  0  0  0  0  0
  -21.1730   -6.7840   23.7850 C   0  0  0  0  0  3  0  0  0  0  0  0
  -21.0420   -5.9900   24.9430 C   0  0  0  0  0  3  0  0  0  0  0  0
  -21.3910   -4.6280   24.9060 C   0  0  0  0  0  0  0  0  0  0  0  0
  -21.8750   -4.0560   23.7160 C   0  0  0  0  0  3  0  0  0  0  0  0
  -22.0070   -4.8470   22.5610 C   0  0  0  0  0  0  0  0  0  0  0  0
  -22.4540   -4.2860   21.4110 F   0  0  0  0  0  0  0  0  0  0  0  0
  -21.2600   -3.8630   26.0160 F   0  0  0  0  0  0  0  0  0  0  0  0
  -22.8170  -13.5740   21.2340 C   0  0  0  0  0  0  0  0  0  0  0  0
  -22.1350  -12.8570   22.1180 N   0  0  0  0  0  0  0  0  0  0  0  0
  -22.3530  -14.6110   20.7590 O   0  0  0  0  0  0  0  0  0  0  0  0
  -22.5250  -12.0180   22.5230 H   0  0  0  0  0  0  0  0  0  0  0  0
  -21.2100  -13.1520   22.3990 H   0  0  0  0  0  0  0  0  0  0  0  0
  -25.3880  -15.2710   20.3340 N   0  0  0  0  0  0  0  0  0  0  0  0
  -24.6250  -15.9130   20.5210 H   0  0  0  0  0  0  0  0  0  0  0  0
  -26.2070  -15.7370   19.9700 H   0  0  0  0  0  0  0  0  0  0  0  0
  -29.0070  -23.1520   20.1520 C   0  0  0  0  0  2  0  0  0  0  0  0
  -27.8500  -24.2920   20.1100 N   0  0  0  0  0  0  0  0  0  0  0  0
  -27.2610  -24.1620   20.9270 H   0  0  0  0  0  0  0  0  0  0  0  0
  -28.2260  -25.9450   20.1050 O   0  0  0  0  0  0  0  0  0  0  0  0
  -24.6640  -31.8450   23.2050 C   0  0  0  0  0  0  0  0  0  0  0  0
  -27.1860  -27.0100   20.1140 C   0  0  0  0  0  0  0  0  0  0  0  0
  -23.4510  -30.4700   21.5610 C   0  0  0  0  0  3  0  0  0  0  0  0
  -24.8830  -28.8770   20.1090 C   0  0  0  0  0  0  0  0  0  0  0  0
  -26.0140  -30.6810   21.3940 C   0  0  0  0  0  2  0  0  0  0  0  0
  -26.0740  -29.2780   20.7280 C   0  0  0  0  0  0  0  0  0  0  0  0
  -27.2170  -28.3610   20.7130 C   0  0  0  0  0  3  0  0  0  0  0  0
  -25.9680  -26.7580   19.4440 C   0  0  0  0  0  3  0  0  0  0  0  0
  -24.8530  -27.6370   19.4490 C   0  0  0  0  0  3  0  0  0  0  0  0
  -23.6670  -29.8000   20.1750 C   0  0  0  0  0  2  0  0  0  0  0  0
  -24.7310  -31.0250   22.1060 N   0  0  0  0  0  0  0  0  0  0  0  0
  -23.5810  -32.1310   23.7400 O   0  0  0  0  0  0  0  0  0  0  0  0
  -22.7650  -29.4650   22.5220 C   0  0  0  0  0  0  0  0  0  0  0  0
  -21.4360  -29.2940   22.3980 N   0  0  0  0  0  0  0  0  0  0  0  0
  -23.4360  -28.8390   23.3470 O   0  0  0  0  0  0  0  0  0  0  0  0
  -20.9480  -29.8500   21.7100 H   0  0  0  0  0  0  0  0  0  0  0  0
  -18.0580  -28.0750   22.9160 C   0  0  0  0  0  0  0  0  0  0  0  0
  -20.6190  -28.3480   23.1650 C   0  0  0  0  0  3  0  0  0  0  0  0
  -20.7220  -26.9210   22.5780 C   0  0  0  0  0  2  0  0  0  0  0  0
  -19.6140  -26.6040   21.5670 C   0  0  0  0  0  2  0  0  0  0  0  0
  -18.2360  -26.7350   22.2210 C   0  0  0  0  0  2  0  0  0  0  0  0
  -19.1760  -28.8390   23.3450 C   0  0  0  0  0  0  0  0  0  0  0  0
  -18.9530  -30.0910   23.9570 C   0  0  0  0  0  3  0  0  0  0  0  0
  -17.6470  -30.5810   24.1430 C   0  0  0  0  0  3  0  0  0  0  0  0
  -16.5440  -29.8150   23.7270 C   0  0  0  0  0  3  0  0  0  0  0  0
  -16.7500  -28.5630   23.1190 C   0  0  0  0  0  3  0  0  0  0  0  0
  -25.9430  -32.4770   23.8320 C   0  0  0  0  0  3  0  0  0  0  0  0
  -25.6320  -33.8730   24.1880 N   0  0  0  0  0  0  0  0  0  0  0  0
  -25.9290  -34.9410   23.4370 C   0  0  0  0  0  0  0  0  0  0  0  0
  -26.5570  -34.8560   22.3790 O   0  0  0  0  0  0  0  0  0  0  0  0
  -25.0680  -34.0110   25.0140 H   0  0  0  0  0  0  0  0  0  0  0  0
  -24.1650  -36.7250   23.2080 C   0  0  0  0  0  1  0  0  0  0  0  0
  -25.4580  -36.3230   23.9360 C   0  0  0  0  0  3  0  0  0  0  0  0
  -27.6240  -37.2350   24.6510 C   0  0  0  0  0  1  0  0  0  0  0  0
  -26.4720  -37.3880   23.7670 N   0  0  0  0  0  0  0  0  0  0  0  0
  -26.0640  -38.3040   23.9340 H   0  0  0  0  0  0  0  0  0  0  0  0
  -26.4590  -31.6960   25.1050 C   0  0  1  0  0  0  0  0  0  0  0  0
  -25.3680  -31.4540   26.1740 C   0  0  0  0  0  1  0  0  0  0  0  0
  -27.0390  -30.3190   24.7100 C   0  0  0  0  0  1  0  0  0  0  0  0
  -27.6140  -32.4830   25.7700 C   0  0  0  0  0  1  0  0  0  0  0  0
  1  2  2  0
  1  4  1  0
  2  5  1  0
  3  6  1  0
  4 46  1  0
  4  3  2  0
  5 16  1  0
  5  6  2  0
  6  7  1  0
  8 16  1  0
  9 14  1  0
 10 11  1  0
 10  9  1  0
 12 11  1  0
 12 21  1  0
 12 13  1  0
 14  8  1  0
 14 13  1  0
 15  8  2  0
 16 17  1  0
 18 19  2  0
 19 38  1  0
 20 19  1  0
 20 23  1  0
 21 22  1  0
 21 18  1  0
 22 20  2  0
 23 24  1  0
 24 25  2  0
 26 29  1  0
 26 25  1  0
 27 26  2  0
 28 27  1  0
 28 23  2  0
 29 30  1  0
 30 31  1  0
 31 32  2  0
 33 32  1  0
 33 37  1  0
 34 33  2  0
 35 30  2  0
 35 34  1  0
 36 35  1  0
 38 39  1  0
 39 42  1  0
 39 41  1  0
 40 38  2  0
 43 18  1  0
 43 44  1  0
 45 43  1  0
 47 46  1  0
 47 48  1  0
 49 47  1  0
 49 51  1  0
 50 61  2  0
 51 56  1  0
 52 60  1  0
 52 62  1  0
 53 59  1  0
 53 55  1  0
 54 60  1  0
 55 54  1  0
 56 55  2  0
 57 58  1  0
 57 51  2  0
 58 53  2  0
 59 52  1  0
 60 50  1  0
 62 64  2  0
 63 62  1  0
 65 63  1  0
 66 75  2  0
 66 71  1  0
 67 63  1  0
 67 71  1  0
 68 67  1  0
 69 70  1  0
 69 68  1  0
 70 66  1  0
 71 72  2  0
 72 73  1  0
 74 73  2  0
 75 74  1  0
 76 50  1  0
 76 77  1  0
 76 86  1  0
 77 80  1  0
 78 82  1  0
 78 77  1  0
 79 78  2  0
 82 81  1  0
 84 85  1  0
 84 82  1  0
 84 83  1  0
 86 89  1  1
 86 87  1  0
 88 86  1  0
M  ISO  4   8 100  16 100  47 101  49 101
M  END
>  <TORSDO>  (61) 
F 18

>  <SCORE>  (61) 
-16.299

>  <name>  (61) 
60

>  <ligand_id>  (61) 
60

>  <original_smiles>  (61) 
[H]c1c([H])c([H])c2c(c1[H])C([H])([H])C([H])([H])C([H])([H])C2([H])N([H])C(=O)C1([H])N(C(=O)C([H])(N([H])C(=O)C([H])(N([H])C([H])([H])[H])C([H])([H])[H])C(C([H])([H])[H])(C([H])([H])[H])C([H])([H])[H])C([H])([H])c2c([H])c(ON([H])C([H])([H])c3c([H])c([H])c(N([H])C(=O)N4C([H])([H])C([H])([H])C([H])([H])C([H])(n5nc(-c6c([H])c([H])c(Oc7c([H])c([H])c(F)c([H])c7F)c([H])c6[H])c(C(=O)N([H])[H])c5N([H])[H])C4([H])[H])c(F)c3[H])c([H])c([H])c2C1([H])[H]

>  <smiles>  (61) 
[H]c1c([H])c([H])c2c(c1[H])C([H])([H])C([H])([H])C([H])([H])C2([H])N([H])C(=O)C1([H])N(C(=O)C([H])(N([H])C(=O)C([H])(N([H])C([H])([H])[H])C([H])([H])[H])C(C([H])([H])[H])(C([H])([H])[H])C([H])([H])[H])C([H])([H])c2c([H])c(ON([H])C([H])([H])c3c([H])c([H])c(N([H])C(=O)N4C([H])([H])C([H])([H])C([H])([H])C([H])(n5nc(-c6c([H])c([H])c(Oc7c([H])c([H])c(F)c([H])c7F)c([H])c6[H])c(C(=O)N([H])[H])c5N([H])[H])C4([H])[H])c(F)c3[H])c([H])c([H])c2C1([H])[H]

$$$$
61:0:0
     RDKit          3D

 90 98  0  0  1  0  0  0  0  0999 V2000
  -30.6800  -18.4140   19.3230 C   0  0  0  0  0  3  0  0  0  0  0  0
  -28.4930  -19.8010   20.3620 C   0  0  0  0  0  3  0  0  0  0  0  0
  -29.7340  -17.5720   19.9900 C   0  0  0  0  0  0  0  0  0  0  0  0
  -29.4230  -20.6410   19.6660 C   0  0  0  0  0  0  0  0  0  0  0  0
  -30.5240  -19.8520   19.1650 C   0  0  0  0  0  0  0  0  0  0  0  0
  -28.6370  -18.3550   20.5000 C   0  0  0  0  0  0  0  0  0  0  0  0
  -31.4900  -20.5050   18.4730 F   0  0  0  0  0  0  0  0  0  0  0  0
  -27.6510  -17.6850   21.1440 F   0  0  0  0  0  0  0  0  0  0  0  0
  -30.5120  -14.9320   19.7000 C   0  0  0  0  0  0  0  0  0  0  0  0
  -30.2960  -12.6140   18.7030 C   0  0  0  0  0  2  0  0  0  0  0  0
  -29.2350  -12.6390   17.5770 C   0  0  0  0  0  2  0  0  0  0  0  0
  -27.8200  -12.4310   18.1510 C   0  0  0  0  0  2  0  0  0  0  0  0
  -27.5560  -13.3090   19.4020 C   0  0  0  0  0  3  0  0  0  0  0  0
  -28.7240  -13.2430   20.4110 C   0  0  0  0  0  2  0  0  0  0  0  0
  -29.9380  -13.6640   19.6980 N   0  0  0  0  0  0  0  0  0  0  0  0
  -31.6470  -15.0520   19.2250 O   0  0  0  0  0  0  0  0  0  0  0  0
  -29.7370  -16.0410   20.1180 N   0  0  0  0  0  0  0  0  0  0  0  0
  -28.9170  -15.7190   20.6100 H   0  0  0  0  0  0  0  0  0  0  0  0
  -25.2720  -13.8870   20.4060 C   0  0  0  0  0  0  0  0  0  0  0  0
  -24.2410  -13.1110   20.8560 C   0  0  0  0  0  0  0  0  0  0  0  0
  -24.6790  -11.7570   20.7250 C   0  0  0  0  0  0  0  0  0  0  0  0
  -26.2710  -13.0080   20.0240 N   0  0  0  0  0  0  0  0  0  0  0  0
  -25.9300  -11.7180   20.2790 N   0  0  0  0  0  0  0  0  0  0  0  0
  -23.9570  -10.4960   20.9410 C   0  0  0  0  0  0  0  0  0  0  0  0
  -24.4420   -9.5090   21.8270 C   0  0  0  0  0  3  0  0  0  0  0  0
  -23.7190   -8.3140   22.0340 C   0  0  0  0  0  3  0  0  0  0  0  0
  -22.4960   -8.0990   21.3570 C   0  0  0  0  0  0  0  0  0  0  0  0
  -22.0280   -9.0750   20.4590 C   0  0  0  0  0  3  0  0  0  0  0  0
  -22.7520  -10.2600   20.2490 C   0  0  0  0  0  3  0  0  0  0  0  0
  -21.7380   -6.9580   21.4760 O   0  0  0  0  0  0  0  0  0  0  0  0
  -21.7300   -6.2180   22.6310 C   0  0  0  0  0  0  0  0  0  0  0  0
  -21.3310   -6.7710   23.8670 C   0  0  0  0  0  3  0  0  0  0  0  0
  -21.2710   -5.9560   25.0150 C   0  0  0  0  0  3  0  0  0  0  0  0
  -21.5960   -4.5900   24.9290 C   0  0  0  0  0  0  0  0  0  0  0  0
  -21.9870   -4.0360   23.6970 C   0  0  0  0  0  3  0  0  0  0  0  0
  -22.0500   -4.8480   22.5500 C   0  0  0  0  0  0  0  0  0  0  0  0
  -22.4070   -4.3050   21.3620 F   0  0  0  0  0  0  0  0  0  0  0  0
  -21.5310   -3.8050   26.0300 F   0  0  0  0  0  0  0  0  0  0  0  0
  -22.8870  -13.5920   21.2920 C   0  0  0  0  0  0  0  0  0  0  0  0
  -22.2490  -12.8760   22.2100 N   0  0  0  0  0  0  0  0  0  0  0  0
  -22.4100  -14.6380   20.8530 O   0  0  0  0  0  0  0  0  0  0  0  0
  -22.6500  -12.0290   22.5840 H   0  0  0  0  0  0  0  0  0  0  0  0
  -21.3440  -13.1800   22.5440 H   0  0  0  0  0  0  0  0  0  0  0  0
  -25.4350  -15.2620   20.2640 N   0  0  0  0  0  0  0  0  0  0  0  0
  -24.6950  -15.9170   20.4920 H   0  0  0  0  0  0  0  0  0  0  0  0
  -26.2470  -15.7110   19.8610 H   0  0  0  0  0  0  0  0  0  0  0  0
  -29.3480  -22.0780   19.3640 O   0  0  0  0  0  0  0  0  0  0  0  0
  -28.6350  -23.2610   20.0410 C   0  0  0  0  0  2  0  0  0  0  0  0
  -28.4330  -24.7510   19.2670 C   0  0  0  0  0  2  0  0  0  0  0  0
  -28.3950  -26.2040   19.8330 O   0  0  0  0  0  0  0  0  0  0  0  0
  -24.6650  -31.6640   23.0420 C   0  0  0  0  0  0  0  0  0  0  0  0
  -27.2950  -27.1370   19.7780 C   0  0  0  0  0  0  0  0  0  0  0  0
  -23.4700  -30.3170   21.3580 C   0  0  0  0  0  3  0  0  0  0  0  0
  -24.9290  -28.8330   19.8490 C   0  0  0  0  0  0  0  0  0  0  0  0
  -26.0150  -30.6370   21.1770 C   0  0  0  0  0  2  0  0  0  0  0  0
  -26.1050  -29.2760   20.4650 C   0  0  0  0  0  0  0  0  0  0  0  0
  -27.2840  -28.4430   20.4170 C   0  0  0  0  0  3  0  0  0  0  0  0
  -26.0880  -26.7950   19.1300 C   0  0  0  0  0  3  0  0  0  0  0  0
  -24.9330  -27.6050   19.1690 C   0  0  0  0  0  3  0  0  0  0  0  0
  -23.6860  -29.7030   19.9490 C   0  0  0  0  0  2  0  0  0  0  0  0
  -24.7360  -30.8920   21.9150 N   0  0  0  0  0  0  0  0  0  0  0  0
  -23.5800  -31.9060   23.5940 O   0  0  0  0  0  0  0  0  0  0  0  0
  -22.8210  -29.2580   22.2840 C   0  0  0  0  0  0  0  0  0  0  0  0
  -21.4920  -29.0820   22.1770 N   0  0  0  0  0  0  0  0  0  0  0  0
  -23.5150  -28.5970   23.0610 O   0  0  0  0  0  0  0  0  0  0  0  0
  -20.9880  -29.6680   21.5260 H   0  0  0  0  0  0  0  0  0  0  0  0
  -18.1260  -27.8550   22.7150 C   0  0  0  0  0  0  0  0  0  0  0  0
  -20.6920  -28.1040   22.9190 C   0  0  0  0  0  3  0  0  0  0  0  0
  -20.7760  -26.7060   22.2620 C   0  0  0  0  0  2  0  0  0  0  0  0
  -19.6430  -26.4400   21.2650 C   0  0  0  0  0  2  0  0  0  0  0  0
  -18.2810  -26.5460   21.9580 C   0  0  0  0  0  2  0  0  0  0  0  0
  -19.2580  -28.5940   23.1530 C   0  0  0  0  0  0  0  0  0  0  0  0
  -19.0570  -29.8180   23.8240 C   0  0  0  0  0  3  0  0  0  0  0  0
  -17.7570  -30.3060   24.0600 C   0  0  0  0  0  3  0  0  0  0  0  0
  -16.6410  -29.5650   23.6370 C   0  0  0  0  0  3  0  0  0  0  0  0
  -16.8270  -28.3390   22.9710 C   0  0  0  0  0  3  0  0  0  0  0  0
  -25.9380  -32.2940   23.6820 C   0  0  0  0  0  3  0  0  0  0  0  0
  -26.4710  -31.4850   24.9290 C   0  0  1  0  0  0  0  0  0  0  0  0
  -25.3890  -31.2010   25.9960 C   0  0  0  0  0  1  0  0  0  0  0  0
  -27.0660  -30.1280   24.4900 C   0  0  0  0  0  1  0  0  0  0  0  0
  -27.6200  -32.2690   25.6100 C   0  0  0  0  0  1  0  0  0  0  0  0
  -25.6080  -33.6750   24.0710 N   0  0  0  0  0  0  0  0  0  0  0  0
  -25.9270  -34.7670   23.3630 C   0  0  0  0  0  0  0  0  0  0  0  0
  -26.5980  -34.7180   22.3290 O   0  0  0  0  0  0  0  0  0  0  0  0
  -25.0110  -33.7850   24.8780 H   0  0  0  0  0  0  0  0  0  0  0  0
  -24.1770  -36.5550   23.0950 C   0  0  0  0  0  1  0  0  0  0  0  0
  -25.4250  -36.1280   23.8850 C   0  0  0  0  0  3  0  0  0  0  0  0
  -27.5470  -37.0060   24.7570 C   0  0  0  0  0  1  0  0  0  0  0  0
  -26.4450  -37.1970   23.8160 N   0  0  0  0  0  0  0  0  0  0  0  0
  -26.0260  -38.1060   23.9980 H   0  0  0  0  0  0  0  0  0  0  0  0
  1  3  1  0
  2  6  1  0
  3 17  1  0
  3  6  2  0
  4  2  2  0
  5  1  2  0
  5  4  1  0
  6  8  1  0
  7  5  1  0
  9 17  1  0
 10 15  1  0
 11 12  1  0
 11 10  1  0
 13 12  1  0
 13 22  1  0
 13 14  1  0
 15  9  1  0
 15 14  1  0
 16  9  2  0
 17 18  1  0
 19 20  2  0
 20 39  1  0
 21 20  1  0
 21 24  1  0
 22 23  1  0
 22 19  1  0
 23 21  2  0
 24 25  1  0
 25 26  2  0
 27 30  1  0
 27 26  1  0
 28 27  2  0
 29 28  1  0
 29 24  2  0
 30 31  1  0
 31 32  1  0
 32 33  2  0
 34 33  1  0
 34 38  1  0
 35 34  2  0
 36 31  2  0
 36 35  1  0
 37 36  1  0
 39 40  1  0
 40 43  1  0
 40 42  1  0
 41 39  2  0
 44 19  1  0
 44 45  1  0
 46 44  1  0
 47  4  1  0
 47 48  1  0
 49 50  1  0
 49 48  1  0
 51 62  2  0
 52 50  1  0
 52 57  1  0
 53 61  1  0
 53 63  1  0
 54 60  1  0
 54 56  1  0
 55 61  1  0
 56 55  1  0
 57 56  2  0
 58 59  1  0
 58 52  2  0
 59 54  2  0
 60 53  1  0
 61 51  1  0
 63 65  2  0
 64 63  1  0
 66 64  1  0
 67 76  2  0
 67 72  1  0
 68 64  1  0
 68 72  1  0
 69 68  1  0
 70 71  1  0
 70 69  1  0
 71 67  1  0
 72 73  2  0
 73 74  1  0
 75 74  2  0
 76 75  1  0
 77 51  1  0
 77 82  1  0
 77 78  1  0
 78 81  1  1
 78 79  1  0
 80 78  1  0
 82 85  1  0
 83 87  1  0
 83 82  1  0
 84 83  2  0
 87 86  1  0
 89 87  1  0
 89 90  1  0
 89 88  1  0
M  ISO  4   9 100  17 100  49 101  50 101
M  END
>  <TORSDO>  (62) 
F 19

>  <SCORE>  (62) 
-13.201

>  <name>  (62) 
61

>  <ligand_id>  (62) 
61

>  <original_smiles>  (62) 
[H]c1c([H])c([H])c2c(c1[H])C([H])([H])C([H])([H])C([H])([H])C2([H])N([H])C(=O)C1([H])N(C(=O)C([H])(N([H])C(=O)C([H])(N([H])C([H])([H])[H])C([H])([H])[H])C(C([H])([H])[H])(C([H])([H])[H])C([H])([H])[H])C([H])([H])c2c([H])c(OC([H])([H])C([H])([H])Oc3c([H])c(F)c(N([H])C(=O)N4C([H])([H])C([H])([H])C([H])([H])C([H])(n5nc(-c6c([H])c([H])c(Oc7c([H])c([H])c(F)c([H])c7F)c([H])c6[H])c(C(=O)N([H])[H])c5N([H])[H])C4([H])[H])c([H])c3F)c([H])c([H])c2C1([H])[H]

>  <smiles>  (62) 
[H]c1c([H])c([H])c2c(c1[H])C([H])([H])C([H])([H])C([H])([H])C2([H])N([H])C(=O)C1([H])N(C(=O)C([H])(N([H])C(=O)C([H])(N([H])C([H])([H])[H])C([H])([H])[H])C(C([H])([H])[H])(C([H])([H])[H])C([H])([H])[H])C([H])([H])c2c([H])c(OC([H])([H])C([H])([H])Oc3c([H])c(F)c(N([H])C(=O)N4C([H])([H])C([H])([H])C([H])([H])C([H])(n5nc(-c6c([H])c([H])c(Oc7c([H])c([H])c(F)c([H])c7F)c([H])c6[H])c(C(=O)N([H])[H])c5N([H])[H])C4([H])[H])c([H])c3F)c([H])c([H])c2C1([H])[H]

$$$$
62:0:0
     RDKit          3D

 88 96  0  0  1  0  0  0  0  0999 V2000
  -27.9980  -19.5980   18.1730 C   0  0  0  0  0  2  0  0  0  0  0  0
  -28.2370  -18.2330   18.8990 C   0  0  0  0  0  2  0  0  0  0  0  0
  -27.6940  -20.8370   19.0730 C   0  0  0  0  0  2  0  0  0  0  0  0
  -29.2860  -19.7580   20.6750 C   0  0  0  0  0  2  0  0  0  0  0  0
  -29.4610  -18.1780   19.8610 C   0  0  0  0  0  3  0  0  0  0  0  0
  -28.8530  -21.1760   19.9300 N   0  0  2  0  0  4  0  0  0  0  0  0
  -29.5910  -21.2820   19.2490 H   0  0  0  0  0  0  0  0  0  0  0  0
  -30.3990  -15.3450   20.2550 C   0  0  0  0  0  0  0  0  0  0  0  0
  -30.4500  -12.8720   19.4610 C   0  0  0  0  0  2  0  0  0  0  0  0
  -29.5460  -12.6480   18.2210 C   0  0  0  0  0  2  0  0  0  0  0  0
  -28.1030  -12.3490   18.6660 C   0  0  0  0  0  2  0  0  0  0  0  0
  -27.6260  -13.3240   19.7680 C   0  0  0  0  0  3  0  0  0  0  0  0
  -28.6590  -13.4980   20.9010 C   0  0  0  0  0  2  0  0  0  0  0  0
  -29.8870  -14.0150   20.2770 N   0  0  0  0  0  0  0  0  0  0  0  0
  -31.5980  -15.3820   19.9330 O   0  0  0  0  0  0  0  0  0  0  0  0
  -29.5870  -16.5850   20.4070 N   0  0  0  0  0  0  0  0  0  0  0  0
  -28.7080  -16.3180   20.8250 H   0  0  0  0  0  0  0  0  0  0  0  0
  -25.2530  -13.8680   20.5120 C   0  0  0  0  0  0  0  0  0  0  0  0
  -24.1940  -13.0860   20.8780 C   0  0  0  0  0  0  0  0  0  0  0  0
  -24.6680  -11.7380   20.8440 C   0  0  0  0  0  0  0  0  0  0  0  0
  -26.2990  -12.9990   20.2680 N   0  0  0  0  0  0  0  0  0  0  0  0
  -25.9580  -11.7110   20.5290 N   0  0  0  0  0  0  0  0  0  0  0  0
  -23.9500  -10.4700   21.0240 C   0  0  0  0  0  0  0  0  0  0  0  0
  -24.3710   -9.5070   21.9680 C   0  0  0  0  0  3  0  0  0  0  0  0
  -23.6470   -8.3090   22.1400 C   0  0  0  0  0  3  0  0  0  0  0  0
  -22.4910   -8.0620   21.3630 C   0  0  0  0  0  0  0  0  0  0  0  0
  -22.0880   -9.0130   20.4110 C   0  0  0  0  0  3  0  0  0  0  0  0
  -22.8140  -10.2040   20.2370 C   0  0  0  0  0  3  0  0  0  0  0  0
  -21.7420   -6.9110   21.4440 O   0  0  0  0  0  0  0  0  0  0  0  0
  -21.6570   -6.1860   22.6050 C   0  0  0  0  0  0  0  0  0  0  0  0
  -21.1500   -6.7480   23.7960 C   0  0  0  0  0  3  0  0  0  0  0  0
  -21.0150   -5.9510   24.9490 C   0  0  0  0  0  3  0  0  0  0  0  0
  -21.3750   -4.5910   24.9120 C   0  0  0  0  0  0  0  0  0  0  0  0
  -21.8710   -4.0260   23.7240 C   0  0  0  0  0  3  0  0  0  0  0  0
  -22.0090   -4.8210   22.5730 C   0  0  0  0  0  0  0  0  0  0  0  0
  -22.4710   -4.2670   21.4260 F   0  0  0  0  0  0  0  0  0  0  0  0
  -21.2380   -3.8240   26.0190 F   0  0  0  0  0  0  0  0  0  0  0  0
  -22.7920  -13.5570   21.1430 C   0  0  0  0  0  0  0  0  0  0  0  0
  -22.0570  -12.8470   21.9890 N   0  0  0  0  0  0  0  0  0  0  0  0
  -22.3590  -14.5920   20.6340 O   0  0  0  0  0  0  0  0  0  0  0  0
  -22.4220  -12.0090   22.4180 H   0  0  0  0  0  0  0  0  0  0  0  0
  -21.1210  -13.1450   22.2200 H   0  0  0  0  0  0  0  0  0  0  0  0
  -25.4130  -15.2390   20.3330 N   0  0  0  0  0  0  0  0  0  0  0  0
  -24.6380  -15.8860   20.4330 H   0  0  0  0  0  0  0  0  0  0  0  0
  -26.2330  -15.6560   19.9180 H   0  0  0  0  0  0  0  0  0  0  0  0
  -28.7940  -22.7340   20.5570 C   0  0  0  0  0  3  0  0  0  0  0  0
  -28.0100  -24.2570   19.9780 C   0  0  0  0  0  3  0  0  0  0  0  0
  -28.1850  -25.8730   20.3080 O   0  0  0  0  0  0  0  0  0  0  0  0
  -24.6260  -31.8560   23.2230 C   0  0  0  0  0  0  0  0  0  0  0  0
  -27.1850  -26.9770   20.2070 C   0  0  0  0  0  0  0  0  0  0  0  0
  -23.4390  -30.4550   21.5810 C   0  0  0  0  0  3  0  0  0  0  0  0
  -24.8910  -28.8590   20.1540 C   0  0  0  0  0  0  0  0  0  0  0  0
  -26.0030  -30.6740   21.4410 C   0  0  0  0  0  2  0  0  0  0  0  0
  -26.0780  -29.2650   20.7820 C   0  0  0  0  0  0  0  0  0  0  0  0
  -27.2200  -28.3430   20.7840 C   0  0  0  0  0  3  0  0  0  0  0  0
  -25.9750  -26.7300   19.5240 C   0  0  0  0  0  3  0  0  0  0  0  0
  -24.8660  -27.6130   19.5070 C   0  0  0  0  0  3  0  0  0  0  0  0
  -23.6690  -29.7750   20.2030 C   0  0  0  0  0  2  0  0  0  0  0  0
  -24.7100  -31.0240   22.1340 N   0  0  0  0  0  0  0  0  0  0  0  0
  -23.5330  -32.1460   23.7370 O   0  0  0  0  0  0  0  0  0  0  0  0
  -22.7440  -29.4620   22.5470 C   0  0  0  0  0  0  0  0  0  0  0  0
  -21.4150  -29.3030   22.4200 N   0  0  0  0  0  0  0  0  0  0  0  0
  -23.4080  -28.8320   23.3740 O   0  0  0  0  0  0  0  0  0  0  0  0
  -20.9330  -29.8690   21.7320 H   0  0  0  0  0  0  0  0  0  0  0  0
  -18.0290  -28.0920   22.9050 C   0  0  0  0  0  0  0  0  0  0  0  0
  -20.5890  -28.3610   23.1820 C   0  0  0  0  0  3  0  0  0  0  0  0
  -20.6980  -26.9330   22.6010 C   0  0  0  0  0  2  0  0  0  0  0  0
  -19.6020  -26.6220   21.5770 C   0  0  0  0  0  2  0  0  0  0  0  0
  -18.2140  -26.7530   22.2100 C   0  0  0  0  0  2  0  0  0  0  0  0
  -19.1440  -28.8560   23.3430 C   0  0  0  0  0  0  0  0  0  0  0  0
  -18.9180  -30.1110   23.9450 C   0  0  0  0  0  3  0  0  0  0  0  0
  -17.6120  -30.6090   24.1060 C   0  0  0  0  0  3  0  0  0  0  0  0
  -16.5120  -29.8420   23.6840 C   0  0  0  0  0  3  0  0  0  0  0  0
  -16.7200  -28.5830   23.0960 C   0  0  0  0  0  3  0  0  0  0  0  0
  -25.8960  -32.4990   23.8600 C   0  0  0  0  0  3  0  0  0  0  0  0
  -25.5850  -33.9040   24.1780 N   0  0  0  0  0  0  0  0  0  0  0  0
  -25.9320  -34.9560   23.4250 C   0  0  0  0  0  0  0  0  0  0  0  0
  -26.6090  -34.8470   22.4000 O   0  0  0  0  0  0  0  0  0  0  0  0
  -24.9830  -34.0620   24.9730 H   0  0  0  0  0  0  0  0  0  0  0  0
  -24.2280  -36.7700   23.0530 C   0  0  0  0  0  1  0  0  0  0  0  0
  -25.4560  -36.3520   23.8780 C   0  0  0  0  0  3  0  0  0  0  0  0
  -27.5820  -37.2210   24.7440 C   0  0  0  0  0  1  0  0  0  0  0  0
  -26.5010  -37.3940   23.7770 N   0  0  0  0  0  0  0  0  0  0  0  0
  -26.1000  -38.3190   23.9130 H   0  0  0  0  0  0  0  0  0  0  0  0
  -26.3870  -31.7440   25.1570 C   0  0  1  0  0  0  0  0  0  0  0  0
  -25.2730  -31.5310   26.2100 C   0  0  0  0  0  1  0  0  0  0  0  0
  -26.9660  -30.3560   24.8040 C   0  0  0  0  0  1  0  0  0  0  0  0
  -27.5340  -32.5380   25.8260 C   0  0  0  0  0  1  0  0  0  0  0  0
  1  2  1  0
  1  3  1  0
  2  5  1  0
  3  6  1  0
  5 16  1  0
  5  4  1  0
  6 46  1  0
  6  4  1  0
  6  7  1  6
  8 14  1  0
  8 16  1  0
  9 14  1  0
 10 11  1  0
 10  9  1  0
 12 11  1  0
 12 21  1  0
 12 13  1  0
 14 13  1  0
 15  8  2  0
 16 17  1  0
 18 19  2  0
 19 38  1  0
 20 19  1  0
 20 23  1  0
 21 18  1  0
 21 22  1  0
 22 20  2  0
 23 24  1  0
 24 25  2  0
 26 29  1  0
 26 25  1  0
 27 26  2  0
 28 27  1  0
 28 23  2  0
 29 30  1  0
 30 31  1  0
 31 32  2  0
 33 32  1  0
 33 37  1  0
 34 33  2  0
 35 30  2  0
 35 34  1  0
 36 35  1  0
 38 39  1  0
 39 42  1  0
 39 41  1  0
 40 38  2  0
 43 44  1  0
 43 18  1  0
 45 43  1  0
 47 48  1  0
 47 46  2  0
 49 60  2  0
 50 48  1  0
 50 55  1  0
 51 59  1  0
 51 61  1  0
 52 58  1  0
 52 54  1  0
 53 59  1  0
 54 55  2  0
 54 53  1  0
 56 50  2  0
 57 56  1  0
 57 52  2  0
 58 51  1  0
 59 49  1  0
 61 63  2  0
 62 61  1  0
 64 62  1  0
 65 74  2  0
 65 70  1  0
 66 62  1  0
 66 70  1  0
 67 66  1  0
 68 69  1  0
 68 67  1  0
 69 65  1  0
 70 71  2  0
 71 72  1  0
 73 72  2  0
 74 73  1  0
 75 49  1  0
 75 76  1  0
 75 85  1  0
 76 79  1  0
 77 81  1  0
 77 76  1  0
 78 77  2  0
 81 80  1  0
 83 81  1  0
 83 84  1  0
 83 82  1  0
 85 88  1  1
 85 86  1  0
 87 85  1  0
M  ISO  4   8 100  16 100  47 101  48 101
M  END
>  <TORSDO>  (63) 
F 18

>  <SCORE>  (63) 
-16.680

>  <name>  (63) 
62

>  <ligand_id>  (63) 
62

>  <original_smiles>  (63) 
[H]c1c([H])c([H])c2c(c1[H])C([H])([H])C([H])([H])C([H])([H])C2([H])N([H])C(=O)C1([H])N(C(=O)C([H])(N([H])C(=O)C([H])(N([H])C([H])([H])[H])C([H])([H])[H])C(C([H])([H])[H])(C([H])([H])[H])C([H])([H])[H])C([H])([H])c2c([H])c(OC([H])([H])C([H])([H])[N+]3([H])C([H])([H])C([H])([H])C([H])([H])C([H])(N([H])C(=O)N4C([H])([H])C([H])([H])C([H])([H])C([H])(n5nc(-c6c([H])c([H])c(Oc7c([H])c([H])c(F)c([H])c7F)c([H])c6[H])c(C(=O)N([H])[H])c5N([H])[H])C4([H])[H])C3([H])[H])c([H])c([H])c2C1([H])[H]

>  <smiles>  (63) 
[H]c1c([H])c([H])c2c(c1[H])C([H])([H])C([H])([H])C([H])([H])C2([H])N([H])C(=O)C1([H])N(C(=O)C([H])(N([H])C(=O)C([H])(N([H])C([H])([H])[H])C([H])([H])[H])C(C([H])([H])[H])(C([H])([H])[H])C([H])([H])[H])C([H])([H])c2c([H])c(OC([H])([H])C([H])([H])[N+]3([H])C([H])([H])C([H])([H])C([H])([H])C([H])(N([H])C(=O)N4C([H])([H])C([H])([H])C([H])([H])C([H])(n5nc(-c6c([H])c([H])c(Oc7c([H])c([H])c(F)c([H])c7F)c([H])c6[H])c(C(=O)N([H])[H])c5N([H])[H])C4([H])[H])C3([H])[H])c([H])c([H])c2C1([H])[H]

$$$$
63:0:0
     RDKit          3D

 96103  0  0  1  0  0  0  0  0999 V2000
  -26.2210  -21.3850   18.6510 C   0  0  0  0  0  1  0  0  0  0  0  0
  -27.5270  -21.0780   19.4310 C   0  0  0  0  0  3  0  0  0  0  0  0
  -27.6390  -19.5420   19.6780 C   0  0  0  0  0  0  0  0  0  0  0  0
  -28.7620  -18.8020   19.5740 N   0  0  0  0  0  0  0  0  0  0  0  0
  -26.6150  -18.9370   19.9960 O   0  0  0  0  0  0  0  0  0  0  0  0
  -28.5920  -17.8270   19.7710 H   0  0  0  0  0  0  0  0  0  0  0  0
  -30.1730  -19.1050   19.3400 C   0  0  0  0  0  2  0  0  0  0  0  0
  -32.5690  -18.4050   19.5930 C   0  0  0  0  0  1  0  0  0  0  0  0
  -30.9790  -18.0670   21.5200 C   0  0  0  0  0  1  0  0  0  0  0  0
  -31.1180  -18.0420   19.9800 C   0  0  1  0  0  0  0  0  0  0  0  0
  -30.7920  -16.6200   19.4480 C   0  0  0  0  0  2  0  0  0  0  0  0
  -31.8800  -14.4650   19.7300 C   0  0  0  0  0  0  0  0  0  0  0  0
  -31.4210  -12.1530   19.0070 C   0  0  0  0  0  2  0  0  0  0  0  0
  -30.4540  -12.1610   17.8070 C   0  0  0  0  0  2  0  0  0  0  0  0
  -28.9870  -12.2030   18.2810 C   0  0  0  0  0  2  0  0  0  0  0  0
  -28.7340  -13.3020   19.3480 C   0  0  0  0  0  3  0  0  0  0  0  0
  -29.8020  -13.2410   20.4620 C   0  0  0  0  0  2  0  0  0  0  0  0
  -31.1290  -13.3380   19.8260 N   0  0  0  0  0  0  0  0  0  0  0  0
  -32.9480  -14.5300   19.1160 O   0  0  0  0  0  0  0  0  0  0  0  0
  -31.3500  -15.5570   20.2890 N   0  0  0  0  0  0  0  0  0  0  0  0
  -31.9670  -15.9450   20.9870 H   0  0  0  0  0  0  0  0  0  0  0  0
  -26.5050  -14.2390   20.2320 C   0  0  0  0  0  0  0  0  0  0  0  0
  -25.3490  -13.6260   20.6360 C   0  0  0  0  0  0  0  0  0  0  0  0
  -25.5860  -12.2220   20.5130 C   0  0  0  0  0  0  0  0  0  0  0  0
  -27.3820  -13.2200   19.8960 N   0  0  0  0  0  0  0  0  0  0  0  0
  -26.8320  -11.9980   20.1180 N   0  0  0  0  0  0  0  0  0  0  0  0
  -24.6810  -11.0800   20.6930 C   0  0  0  0  0  0  0  0  0  0  0  0
  -24.9880  -10.0310   21.5880 C   0  0  0  0  0  3  0  0  0  0  0  0
  -24.0950   -8.9500   21.7580 C   0  0  0  0  0  3  0  0  0  0  0  0
  -22.8820   -8.9110   21.0320 C   0  0  0  0  0  0  0  0  0  0  0  0
  -22.5910   -9.9460   20.1260 C   0  0  0  0  0  3  0  0  0  0  0  0
  -23.4820  -11.0190   19.9550 C   0  0  0  0  0  3  0  0  0  0  0  0
  -21.9670   -7.8890   21.1120 O   0  0  0  0  0  0  0  0  0  0  0  0
  -21.8020   -7.1580   22.2610 C   0  0  0  0  0  0  0  0  0  0  0  0
  -21.4470   -7.7670   23.4850 C   0  0  0  0  0  3  0  0  0  0  0  0
  -21.2190   -6.9720   24.6270 C   0  0  0  0  0  3  0  0  0  0  0  0
  -21.3340   -5.5720   24.5440 C   0  0  0  0  0  0  0  0  0  0  0  0
  -21.6840   -4.9640   23.3250 C   0  0  0  0  0  3  0  0  0  0  0  0
  -21.9140   -5.7560   22.1870 C   0  0  0  0  0  0  0  0  0  0  0  0
  -22.2280   -5.1630   21.0090 F   0  0  0  0  0  0  0  0  0  0  0  0
  -21.1080   -4.8070   25.6380 F   0  0  0  0  0  0  0  0  0  0  0  0
  -24.0610  -14.3000   21.0160 C   0  0  0  0  0  0  0  0  0  0  0  0
  -23.2950  -13.7000   21.9210 N   0  0  0  0  0  0  0  0  0  0  0  0
  -23.7500  -15.3920   20.5430 O   0  0  0  0  0  0  0  0  0  0  0  0
  -23.5580  -12.8150   22.3300 H   0  0  0  0  0  0  0  0  0  0  0  0
  -22.4280  -14.1320   22.2070 H   0  0  0  0  0  0  0  0  0  0  0  0
  -26.8810  -15.5730   20.1020 N   0  0  0  0  0  0  0  0  0  0  0  0
  -26.2420  -16.3400   20.2820 H   0  0  0  0  0  0  0  0  0  0  0  0
  -27.7560  -15.8730   19.6970 H   0  0  0  0  0  0  0  0  0  0  0  0
  -28.7240  -21.7090   18.8190 N   0  0  0  0  0  4  0  0  0  0  0  0
  -29.4620  -21.6900   19.5040 H   0  0  0  0  0  0  0  0  0  0  0  0
  -29.0080  -21.1130   18.0570 H   0  0  0  0  0  0  0  0  0  0  0  0
  -28.6030  -23.0900   18.2730 C   0  0  0  0  0  2  0  0  0  0  0  0
  -28.2740  -24.2030   19.3030 C   0  0  0  0  0  2  0  0  0  0  0  0
  -28.4610  -25.6090   18.6780 C   0  0  0  0  0  2  0  0  0  0  0  0
  -28.2900  -26.6920   19.6000 O   0  0  0  0  0  0  0  0  0  0  0  0
  -24.5050  -31.6150   23.0710 C   0  0  0  0  0  0  0  0  0  0  0  0
  -27.0900  -27.3740   19.6590 C   0  0  0  0  0  0  0  0  0  0  0  0
  -23.2640  -30.3010   21.3820 C   0  0  0  0  0  3  0  0  0  0  0  0
  -24.6860  -28.8560   19.8340 C   0  0  0  0  0  0  0  0  0  0  0  0
  -25.7830  -30.6830   21.1430 C   0  0  0  0  0  2  0  0  0  0  0  0
  -25.8550  -29.3510   20.4240 C   0  0  0  0  0  0  0  0  0  0  0  0
  -27.0570  -28.6120   20.3390 C   0  0  0  0  0  3  0  0  0  0  0  0
  -25.8970  -26.8890   19.0720 C   0  0  0  0  0  3  0  0  0  0  0  0
  -24.7020  -27.6260   19.1550 C   0  0  0  0  0  3  0  0  0  0  0  0
  -23.4360  -29.6950   19.9630 C   0  0  0  0  0  2  0  0  0  0  0  0
  -24.5370  -30.8800   21.9230 N   0  0  0  0  0  0  0  0  0  0  0  0
  -23.4360  -31.8520   23.6510 O   0  0  0  0  0  0  0  0  0  0  0  0
  -22.6440  -29.2240   22.3010 C   0  0  0  0  0  0  0  0  0  0  0  0
  -21.3160  -29.0580   22.2110 N   0  0  0  0  0  0  0  0  0  0  0  0
  -23.3540  -28.5430   23.0450 O   0  0  0  0  0  0  0  0  0  0  0  0
  -20.8080  -29.6630   21.5790 H   0  0  0  0  0  0  0  0  0  0  0  0
  -17.9490  -27.8570   22.7440 C   0  0  0  0  0  0  0  0  0  0  0  0
  -20.5180  -28.0780   22.9450 C   0  0  0  0  0  3  0  0  0  0  0  0
  -20.5860  -26.6890   22.2690 C   0  0  0  0  0  2  0  0  0  0  0  0
  -19.4460  -26.4430   21.2750 C   0  0  0  0  0  2  0  0  0  0  0  0
  -18.0890  -26.5550   21.9760 C   0  0  0  0  0  2  0  0  0  0  0  0
  -19.0890  -28.5810   23.1850 C   0  0  0  0  0  0  0  0  0  0  0  0
  -18.9030  -29.8060   23.8630 C   0  0  0  0  0  3  0  0  0  0  0  0
  -17.6080  -30.3030   24.1070 C   0  0  0  0  0  3  0  0  0  0  0  0
  -16.4840  -29.5720   23.6850 C   0  0  0  0  0  3  0  0  0  0  0  0
  -16.6550  -28.3520   23.0080 C   0  0  0  0  0  3  0  0  0  0  0  0
  -25.8040  -32.2150   23.6970 C   0  0  0  0  0  3  0  0  0  0  0  0
  -25.5120  -33.6040   24.0730 N   0  0  0  0  0  0  0  0  0  0  0  0
  -25.8450  -34.6760   23.3430 C   0  0  0  0  0  0  0  0  0  0  0  0
  -26.5040  -34.5990   22.3030 O   0  0  0  0  0  0  0  0  0  0  0  0
  -24.9270  -33.7400   24.8840 H   0  0  0  0  0  0  0  0  0  0  0  0
  -24.1220  -36.4870   23.0700 C   0  0  0  0  0  1  0  0  0  0  0  0
  -25.3740  -36.0530   23.8470 C   0  0  0  0  0  3  0  0  0  0  0  0
  -27.5290  -36.9050   24.6680 C   0  0  0  0  0  1  0  0  0  0  0  0
  -26.4120  -37.1040   23.7470 N   0  0  0  0  0  0  0  0  0  0  0  0
  -26.0140  -38.0220   23.9260 H   0  0  0  0  0  0  0  0  0  0  0  0
  -26.3310  -31.4000   24.9420 C   0  0  1  0  0  0  0  0  0  0  0  0
  -25.2530  -31.1460   26.0220 C   0  0  0  0  0  1  0  0  0  0  0  0
  -26.8840  -30.0250   24.4980 C   0  0  0  0  0  1  0  0  0  0  0  0
  -27.5060  -32.1560   25.6070 C   0  0  0  0  0  1  0  0  0  0  0  0
  2  1  1  0
  2  3  1  0
  3  5  2  0
  4  3  1  0
  4  6  1  0
  7  4  1  0
  7 10  1  0
 10  8  1  1
 10  9  1  0
 11 10  1  0
 11 20  1  0
 12 18  1  0
 12 20  1  0
 13 18  1  0
 14 15  1  0
 14 13  1  0
 16 15  1  0
 16 25  1  0
 16 17  1  0
 18 17  1  0
 19 12  2  0
 20 21  1  0
 22 23  2  0
 23 42  1  0
 24 23  1  0
 24 27  1  0
 25 26  1  0
 25 22  1  0
 26 24  2  0
 27 28  1  0
 28 29  2  0
 30 33  1  0
 30 29  1  0
 31 30  2  0
 32 31  1  0
 32 27  2  0
 33 34  1  0
 34 35  1  0
 35 36  2  0
 37 36  1  0
 37 41  1  0
 38 37  2  0
 39 34  2  0
 39 38  1  0
 40 39  1  0
 42 43  1  0
 43 46  1  0
 43 45  1  0
 44 42  2  0
 47 22  1  0
 47 48  1  0
 49 47  1  0
 50  2  1  0
 50 51  1  0
 52 50  1  0
 53 50  1  0
 53 54  1  0
 55 54  1  0
 55 56  1  0
 56 58  1  0
 57 68  2  0
 58 63  1  0
 59 67  1  0
 59 69  1  0
 60 66  1  0
 60 62  1  0
 61 67  1  0
 62 61  1  0
 63 62  2  0
 64 65  1  0
 64 58  2  0
 65 60  2  0
 66 59  1  0
 67 57  1  0
 69 71  2  0
 70 69  1  0
 72 70  1  0
 73 82  2  0
 73 78  1  0
 74 70  1  0
 74 78  1  0
 75 74  1  0
 76 77  1  0
 76 75  1  0
 77 73  1  0
 78 79  2  0
 79 80  1  0
 81 80  2  0
 82 81  1  0
 83 57  1  0
 83 84  1  0
 83 93  1  0
 84 87  1  0
 85 89  1  0
 85 84  1  0
 86 85  2  0
 89 88  1  0
 91 89  1  0
 91 92  1  0
 91 90  1  0
 93 96  1  1
 93 94  1  0
 95 93  1  0
M  ISO  4  12 100  20 100  55 101  56 101
M  END
>  <TORSDO>  (64) 
F 24

>  <SCORE>  (64) 
-10.895

>  <name>  (64) 
63

>  <ligand_id>  (64) 
63

>  <original_smiles>  (64) 
[H]c1c([H])c([H])c2c(c1[H])C([H])([H])C([H])([H])C([H])([H])C2([H])N([H])C(=O)C1([H])N(C(=O)C([H])(N([H])C(=O)C([H])(N([H])C([H])([H])[H])C([H])([H])[H])C(C([H])([H])[H])(C([H])([H])[H])C([H])([H])[H])C([H])([H])c2c([H])c(OC([H])([H])C([H])([H])C([H])([H])[N+]([H])([H])C([H])(C(=O)N([H])C([H])([H])C(C([H])([H])[H])(C([H])([H])[H])C([H])([H])N([H])C(=O)N3C([H])([H])C([H])([H])C([H])([H])C([H])(n4nc(-c5c([H])c([H])c(Oc6c([H])c([H])c(F)c([H])c6F)c([H])c5[H])c(C(=O)N([H])[H])c4N([H])[H])C3([H])[H])C([H])([H])[H])c([H])c([H])c2C1([H])[H]

>  <smiles>  (64) 
[H]c1c([H])c([H])c2c(c1[H])C([H])([H])C([H])([H])C([H])([H])C2([H])N([H])C(=O)C1([H])N(C(=O)C([H])(N([H])C(=O)C([H])(N([H])C([H])([H])[H])C([H])([H])[H])C(C([H])([H])[H])(C([H])([H])[H])C([H])([H])[H])C([H])([H])c2c([H])c(OC([H])([H])C([H])([H])C([H])([H])[N+]([H])([H])C([H])(C(=O)N([H])C([H])([H])C(C([H])([H])[H])(C([H])([H])[H])C([H])([H])N([H])C(=O)N3C([H])([H])C([H])([H])C([H])([H])C([H])(n4nc(-c5c([H])c([H])c(Oc6c([H])c([H])c(F)c([H])c6F)c([H])c5[H])c(C(=O)N([H])[H])c4N([H])[H])C3([H])[H])C([H])([H])[H])c([H])c([H])c2C1([H])[H]

$$$$
64:0:0
     RDKit          3D

 91 99  0  0  1  0  0  0  0  0999 V2000
  -30.7260  -20.1150   20.3380 C   0  0  0  0  0  2  0  0  0  0  0  0
  -28.3260  -19.6410   20.6360 C   0  0  0  0  0  2  0  0  0  0  0  0
  -30.3900  -21.6570   20.0650 C   0  0  0  0  0  2  0  0  0  0  0  0
  -28.0240  -21.2330   20.4910 C   0  0  0  0  0  2  0  0  0  0  0  0
  -29.6120  -19.0820   19.9090 C   0  0  0  0  0  3  0  0  0  0  0  0
  -29.1750  -22.1700   20.7810 N   0  0  2  0  0  4  0  0  0  0  0  0
  -29.4000  -21.8900   21.7260 H   0  0  0  0  0  0  0  0  0  0  0  0
  -31.3390  -17.5180   18.8130 C   0  0  0  0  0  1  0  0  0  0  0  0
  -28.9560  -17.1120   18.3800 C   0  0  0  0  0  1  0  0  0  0  0  0
  -29.9590  -17.4600   19.5100 C   0  0  2  0  0  0  0  0  0  0  0  0
  -30.6040  -14.9530   20.3300 C   0  0  0  0  0  0  0  0  0  0  0  0
  -30.4320  -12.6300   19.4000 C   0  0  0  0  0  2  0  0  0  0  0  0
  -29.5190  -12.6300   18.1520 C   0  0  0  0  0  2  0  0  0  0  0  0
  -28.0440  -12.4470   18.5670 C   0  0  0  0  0  2  0  0  0  0  0  0
  -27.6350  -13.3540   19.7570 C   0  0  0  0  0  3  0  0  0  0  0  0
  -28.6820  -13.3410   20.8940 C   0  0  0  0  0  2  0  0  0  0  0  0
  -29.9690  -13.7230   20.3000 N   0  0  0  0  0  0  0  0  0  0  0  0
  -31.8110  -14.9580   20.0640 O   0  0  0  0  0  0  0  0  0  0  0  0
  -29.8710  -16.1660   20.3990 N   0  0  0  0  0  0  0  0  0  0  0  0
  -28.9550  -16.0220   20.7990 H   0  0  0  0  0  0  0  0  0  0  0  0
  -25.2380  -13.9160   20.4560 C   0  0  0  0  0  0  0  0  0  0  0  0
  -24.1740  -13.1360   20.8140 C   0  0  0  0  0  0  0  0  0  0  0  0
  -24.6500  -11.7890   20.8060 C   0  0  0  0  0  0  0  0  0  0  0  0
  -26.2920  -13.0460   20.2380 N   0  0  0  0  0  0  0  0  0  0  0  0
  -25.9460  -11.7630   20.5150 N   0  0  0  0  0  0  0  0  0  0  0  0
  -23.9310  -10.5220   21.0010 C   0  0  0  0  0  0  0  0  0  0  0  0
  -24.3540   -9.5680   21.9530 C   0  0  0  0  0  3  0  0  0  0  0  0
  -23.6340   -8.3680   22.1330 C   0  0  0  0  0  3  0  0  0  0  0  0
  -22.4750   -8.1090   21.3630 C   0  0  0  0  0  0  0  0  0  0  0  0
  -22.0720   -9.0500   20.4000 C   0  0  0  0  0  3  0  0  0  0  0  0
  -22.7920  -10.2430   20.2180 C   0  0  0  0  0  3  0  0  0  0  0  0
  -21.7280   -6.9610   21.4500 O   0  0  0  0  0  0  0  0  0  0  0  0
  -21.6590   -6.2350   22.6120 C   0  0  0  0  0  0  0  0  0  0  0  0
  -21.1910   -6.7990   23.8190 C   0  0  0  0  0  3  0  0  0  0  0  0
  -21.0740   -5.9970   24.9710 C   0  0  0  0  0  3  0  0  0  0  0  0
  -21.4130   -4.6320   24.9180 C   0  0  0  0  0  0  0  0  0  0  0  0
  -21.8780   -4.0680   23.7170 C   0  0  0  0  0  3  0  0  0  0  0  0
  -21.9990   -4.8670   22.5650 C   0  0  0  0  0  0  0  0  0  0  0  0
  -22.4260   -4.3140   21.4040 F   0  0  0  0  0  0  0  0  0  0  0  0
  -21.2940   -3.8600   26.0240 F   0  0  0  0  0  0  0  0  0  0  0  0
  -22.7690  -13.6030   21.0570 C   0  0  0  0  0  0  0  0  0  0  0  0
  -22.0260  -12.9090   21.9150 N   0  0  0  0  0  0  0  0  0  0  0  0
  -22.3360  -14.6230   20.5220 O   0  0  0  0  0  0  0  0  0  0  0  0
  -22.3860  -12.0880   22.3780 H   0  0  0  0  0  0  0  0  0  0  0  0
  -21.0830  -13.2100   22.1130 H   0  0  0  0  0  0  0  0  0  0  0  0
  -25.3920  -15.2870   20.2670 N   0  0  0  0  0  0  0  0  0  0  0  0
  -24.6190  -15.9340   20.3680 H   0  0  0  0  0  0  0  0  0  0  0  0
  -26.2340  -15.7190   19.9130 H   0  0  0  0  0  0  0  0  0  0  0  0
  -29.0070  -23.7290   21.0270 C   0  0  0  0  0  3  0  0  0  0  0  0
  -28.3590  -24.8640   20.0160 C   0  0  0  0  0  3  0  0  0  0  0  0
  -28.3890  -26.3680   20.3680 O   0  0  0  0  0  0  0  0  0  0  0  0
  -24.6530  -31.9220   23.3070 C   0  0  0  0  0  0  0  0  0  0  0  0
  -27.2830  -27.2760   20.2680 C   0  0  0  0  0  0  0  0  0  0  0  0
  -23.4670  -30.5240   21.6600 C   0  0  0  0  0  3  0  0  0  0  0  0
  -24.9280  -28.9670   20.2340 C   0  0  0  0  0  0  0  0  0  0  0  0
  -26.0130  -30.8180   21.5010 C   0  0  0  0  0  2  0  0  0  0  0  0
  -26.0970  -29.4330   20.8460 C   0  0  0  0  0  0  0  0  0  0  0  0
  -27.2730  -28.5990   20.8520 C   0  0  0  0  0  3  0  0  0  0  0  0
  -26.0950  -26.9060   19.6020 C   0  0  0  0  0  3  0  0  0  0  0  0
  -24.9350  -27.7160   19.5980 C   0  0  0  0  0  3  0  0  0  0  0  0
  -23.6900  -29.8490   20.2800 C   0  0  0  0  0  2  0  0  0  0  0  0
  -24.7300  -31.1070   22.2120 N   0  0  0  0  0  0  0  0  0  0  0  0
  -23.5640  -32.1980   23.8360 O   0  0  0  0  0  0  0  0  0  0  0  0
  -22.7920  -29.5080   22.6140 C   0  0  0  0  0  0  0  0  0  0  0  0
  -21.4680  -29.3250   22.4750 N   0  0  0  0  0  0  0  0  0  0  0  0
  -23.4660  -28.8880   23.4410 O   0  0  0  0  0  0  0  0  0  0  0  0
  -20.9830  -29.8730   21.7780 H   0  0  0  0  0  0  0  0  0  0  0  0
  -18.0950  -28.1050   22.9520 C   0  0  0  0  0  0  0  0  0  0  0  0
  -20.6490  -28.3830   23.2400 C   0  0  0  0  0  3  0  0  0  0  0  0
  -20.7650  -26.9520   22.6650 C   0  0  0  0  0  2  0  0  0  0  0  0
  -19.6730  -26.6230   21.6420 C   0  0  0  0  0  2  0  0  0  0  0  0
  -18.2850  -26.7590   22.2770 C   0  0  0  0  0  2  0  0  0  0  0  0
  -19.2030  -28.8750   23.3910 C   0  0  0  0  0  0  0  0  0  0  0  0
  -18.9710  -30.1340   23.9860 C   0  0  0  0  0  3  0  0  0  0  0  0
  -17.6600  -30.6240   24.1440 C   0  0  0  0  0  3  0  0  0  0  0  0
  -16.5670  -29.8510   23.7200 C   0  0  0  0  0  3  0  0  0  0  0  0
  -16.7830  -28.5930   23.1310 C   0  0  0  0  0  3  0  0  0  0  0  0
  -25.9260  -32.5610   23.9390 C   0  0  0  0  0  3  0  0  0  0  0  0
  -26.4130  -31.8160   25.2430 C   0  0  1  0  0  0  0  0  0  0  0  0
  -25.2950  -31.6110   26.2940 C   0  0  0  0  0  1  0  0  0  0  0  0
  -26.9890  -30.4240   24.8950 C   0  0  0  0  0  1  0  0  0  0  0  0
  -27.5580  -32.6130   25.9090 C   0  0  0  0  0  1  0  0  0  0  0  0
  -25.6190  -33.9670   24.2400 N   0  0  0  0  0  0  0  0  0  0  0  0
  -25.9650  -35.0070   23.4670 C   0  0  0  0  0  0  0  0  0  0  0  0
  -26.6420  -34.8810   22.4430 O   0  0  0  0  0  0  0  0  0  0  0  0
  -25.0170  -34.1380   25.0320 H   0  0  0  0  0  0  0  0  0  0  0  0
  -24.2470  -36.8010   23.0730 C   0  0  0  0  0  1  0  0  0  0  0  0
  -25.4830  -36.4050   23.8970 C   0  0  0  0  0  3  0  0  0  0  0  0
  -27.6160  -37.2940   24.7260 C   0  0  0  0  0  1  0  0  0  0  0  0
  -26.5210  -37.4520   23.7720 N   0  0  0  0  0  0  0  0  0  0  0  0
  -26.1200  -38.3750   23.9050 H   0  0  0  0  0  0  0  0  0  0  0  0
  3  1  1  0
  3  6  1  0
  4  2  1  0
  4  6  1  0
  5 10  1  0
  5  1  1  0
  5  2  1  0
  6 49  1  0
  6  7  1  1
 10  8  1  6
  9 10  1  0
 10 19  1  0
 11 19  1  0
 12 17  1  0
 13 14  1  0
 13 12  1  0
 15 14  1  0
 15 24  1  0
 15 16  1  0
 17 11  1  0
 17 16  1  0
 18 11  2  0
 19 20  1  0
 21 22  2  0
 22 41  1  0
 23 22  1  0
 23 26  1  0
 24 21  1  0
 24 25  1  0
 25 23  2  0
 26 27  1  0
 27 28  2  0
 29 32  1  0
 29 28  1  0
 30 29  2  0
 31 30  1  0
 31 26  2  0
 32 33  1  0
 33 34  1  0
 34 35  2  0
 36 35  1  0
 36 40  1  0
 37 36  2  0
 38 33  2  0
 38 37  1  0
 39 38  1  0
 41 42  1  0
 42 45  1  0
 42 44  1  0
 43 41  2  0
 46 47  1  0
 46 21  1  0
 48 46  1  0
 50 51  1  0
 50 49  2  0
 52 63  2  0
 53 51  1  0
 53 58  1  0
 54 62  1  0
 54 64  1  0
 55 61  1  0
 55 57  1  0
 56 62  1  0
 57 58  2  0
 57 56  1  0
 59 53  2  0
 60 59  1  0
 60 55  2  0
 61 54  1  0
 62 52  1  0
 64 66  2  0
 65 64  1  0
 67 65  1  0
 68 77  2  0
 68 73  1  0
 69 65  1  0
 69 73  1  0
 70 69  1  0
 71 72  1  0
 71 70  1  0
 72 68  1  0
 73 74  2  0
 74 75  1  0
 76 75  2  0
 77 76  1  0
 78 52  1  0
 78 83  1  0
 78 79  1  0
 79 82  1  1
 79 80  1  0
 81 79  1  0
 83 86  1  0
 84 88  1  0
 84 83  1  0
 85 84  2  0
 88 87  1  0
 90 88  1  0
 90 91  1  0
 90 89  1  0
M  ISO  4  11 100  19 100  50 101  51 101
M  END
>  <TORSDO>  (65) 
F 19

>  <SCORE>  (65) 
-14.339

>  <name>  (65) 
64

>  <ligand_id>  (65) 
64

>  <original_smiles>  (65) 
[H]c1c([H])c([H])c2c(c1[H])C([H])([H])C([H])([H])C([H])([H])C2([H])N([H])C(=O)C1([H])N(C(=O)C([H])(N([H])C(=O)C([H])(N([H])C([H])([H])[H])C([H])([H])[H])C(C([H])([H])[H])(C([H])([H])[H])C([H])([H])[H])C([H])([H])c2c([H])c(OC([H])([H])C([H])([H])[N+]3([H])C([H])([H])C([H])([H])C([H])(C(N([H])C(=O)N4C([H])([H])C([H])([H])C([H])([H])C([H])(n5nc(-c6c([H])c([H])c(Oc7c([H])c([H])c(F)c([H])c7F)c([H])c6[H])c(C(=O)N([H])[H])c5N([H])[H])C4([H])[H])(C([H])([H])[H])C([H])([H])[H])C([H])([H])C3([H])[H])c([H])c([H])c2C1([H])[H]

>  <smiles>  (65) 
[H]c1c([H])c([H])c2c(c1[H])C([H])([H])C([H])([H])C([H])([H])C2([H])N([H])C(=O)C1([H])N(C(=O)C([H])(N([H])C(=O)C([H])(N([H])C([H])([H])[H])C([H])([H])[H])C(C([H])([H])[H])(C([H])([H])[H])C([H])([H])[H])C([H])([H])c2c([H])c(OC([H])([H])C([H])([H])[N+]3([H])C([H])([H])C([H])([H])C([H])(C(N([H])C(=O)N4C([H])([H])C([H])([H])C([H])([H])C([H])(n5nc(-c6c([H])c([H])c(Oc7c([H])c([H])c(F)c([H])c7F)c([H])c6[H])c(C(=O)N([H])[H])c5N([H])[H])C4([H])[H])(C([H])([H])[H])C([H])([H])[H])C([H])([H])C3([H])[H])c([H])c([H])c2C1([H])[H]

$$$$
65:0:0
     RDKit          3D

 90 98  0  0  1  0  0  0  0  0999 V2000
  -30.6800  -18.4140   19.3230 C   0  0  0  0  0  3  0  0  0  0  0  0
  -28.4930  -19.8010   20.3620 C   0  0  0  0  0  3  0  0  0  0  0  0
  -29.7340  -17.5720   19.9900 C   0  0  0  0  0  0  0  0  0  0  0  0
  -29.4230  -20.6410   19.6660 C   0  0  0  0  0  0  0  0  0  0  0  0
  -30.5240  -19.8520   19.1650 C   0  0  0  0  0  0  0  0  0  0  0  0
  -28.6370  -18.3550   20.5000 C   0  0  0  0  0  0  0  0  0  0  0  0
  -31.4900  -20.5050   18.4730 F   0  0  0  0  0  0  0  0  0  0  0  0
  -27.6510  -17.6850   21.1440 F   0  0  0  0  0  0  0  0  0  0  0  0
  -30.5120  -14.9320   19.7000 C   0  0  0  0  0  0  0  0  0  0  0  0
  -30.2960  -12.6140   18.7030 C   0  0  0  0  0  2  0  0  0  0  0  0
  -29.2350  -12.6390   17.5770 C   0  0  0  0  0  2  0  0  0  0  0  0
  -27.8200  -12.4310   18.1510 C   0  0  0  0  0  2  0  0  0  0  0  0
  -27.5560  -13.3090   19.4020 C   0  0  0  0  0  3  0  0  0  0  0  0
  -28.7240  -13.2430   20.4110 C   0  0  0  0  0  2  0  0  0  0  0  0
  -29.9380  -13.6640   19.6980 N   0  0  0  0  0  0  0  0  0  0  0  0
  -31.6470  -15.0520   19.2250 O   0  0  0  0  0  0  0  0  0  0  0  0
  -29.7370  -16.0410   20.1180 N   0  0  0  0  0  0  0  0  0  0  0  0
  -28.9170  -15.7190   20.6100 H   0  0  0  0  0  0  0  0  0  0  0  0
  -25.2720  -13.8870   20.4060 C   0  0  0  0  0  0  0  0  0  0  0  0
  -24.2410  -13.1110   20.8560 C   0  0  0  0  0  0  0  0  0  0  0  0
  -24.6790  -11.7570   20.7250 C   0  0  0  0  0  0  0  0  0  0  0  0
  -26.2710  -13.0080   20.0240 N   0  0  0  0  0  0  0  0  0  0  0  0
  -25.9300  -11.7180   20.2790 N   0  0  0  0  0  0  0  0  0  0  0  0
  -23.9570  -10.4960   20.9410 C   0  0  0  0  0  0  0  0  0  0  0  0
  -24.4420   -9.5090   21.8270 C   0  0  0  0  0  3  0  0  0  0  0  0
  -23.7190   -8.3140   22.0340 C   0  0  0  0  0  3  0  0  0  0  0  0
  -22.4960   -8.0990   21.3570 C   0  0  0  0  0  0  0  0  0  0  0  0
  -22.0280   -9.0750   20.4590 C   0  0  0  0  0  3  0  0  0  0  0  0
  -22.7520  -10.2600   20.2490 C   0  0  0  0  0  3  0  0  0  0  0  0
  -21.7380   -6.9580   21.4760 O   0  0  0  0  0  0  0  0  0  0  0  0
  -21.7300   -6.2180   22.6310 C   0  0  0  0  0  0  0  0  0  0  0  0
  -21.3310   -6.7710   23.8670 C   0  0  0  0  0  3  0  0  0  0  0  0
  -21.2710   -5.9560   25.0150 C   0  0  0  0  0  3  0  0  0  0  0  0
  -21.5960   -4.5900   24.9290 C   0  0  0  0  0  0  0  0  0  0  0  0
  -21.9870   -4.0360   23.6970 C   0  0  0  0  0  3  0  0  0  0  0  0
  -22.0500   -4.8480   22.5500 C   0  0  0  0  0  0  0  0  0  0  0  0
  -22.4070   -4.3050   21.3620 F   0  0  0  0  0  0  0  0  0  0  0  0
  -21.5310   -3.8050   26.0300 F   0  0  0  0  0  0  0  0  0  0  0  0
  -22.8870  -13.5920   21.2920 C   0  0  0  0  0  0  0  0  0  0  0  0
  -22.2490  -12.8760   22.2100 N   0  0  0  0  0  0  0  0  0  0  0  0
  -22.4100  -14.6380   20.8530 O   0  0  0  0  0  0  0  0  0  0  0  0
  -22.6500  -12.0290   22.5840 H   0  0  0  0  0  0  0  0  0  0  0  0
  -21.3440  -13.1800   22.5440 H   0  0  0  0  0  0  0  0  0  0  0  0
  -25.4350  -15.2620   20.2640 N   0  0  0  0  0  0  0  0  0  0  0  0
  -24.6950  -15.9170   20.4920 H   0  0  0  0  0  0  0  0  0  0  0  0
  -26.2470  -15.7110   19.8610 H   0  0  0  0  0  0  0  0  0  0  0  0
  -29.3480  -22.0780   19.3640 O   0  0  0  0  0  0  0  0  0  0  0  0
  -28.6350  -23.2610   20.0410 C   0  0  0  0  0  2  0  0  0  0  0  0
  -28.4330  -24.7510   19.2670 C   0  0  0  0  0  2  0  0  0  0  0  0
  -28.3950  -26.2040   19.8330 O   0  0  0  0  0  0  0  0  0  0  0  0
  -24.6650  -31.6640   23.0420 C   0  0  0  0  0  0  0  0  0  0  0  0
  -27.2950  -27.1370   19.7780 C   0  0  0  0  0  0  0  0  0  0  0  0
  -23.4700  -30.3170   21.3580 C   0  0  0  0  0  3  0  0  0  0  0  0
  -24.9290  -28.8330   19.8490 C   0  0  0  0  0  0  0  0  0  0  0  0
  -26.0150  -30.6370   21.1770 C   0  0  0  0  0  2  0  0  0  0  0  0
  -26.1050  -29.2760   20.4650 C   0  0  0  0  0  0  0  0  0  0  0  0
  -27.2840  -28.4430   20.4170 C   0  0  0  0  0  3  0  0  0  0  0  0
  -26.0880  -26.7950   19.1300 C   0  0  0  0  0  3  0  0  0  0  0  0
  -24.9330  -27.6050   19.1690 C   0  0  0  0  0  3  0  0  0  0  0  0
  -23.6860  -29.7030   19.9490 C   0  0  0  0  0  2  0  0  0  0  0  0
  -24.7360  -30.8920   21.9150 N   0  0  0  0  0  0  0  0  0  0  0  0
  -23.5800  -31.9060   23.5940 O   0  0  0  0  0  0  0  0  0  0  0  0
  -22.8210  -29.2580   22.2840 C   0  0  0  0  0  0  0  0  0  0  0  0
  -21.4920  -29.0820   22.1770 N   0  0  0  0  0  0  0  0  0  0  0  0
  -23.5150  -28.5970   23.0610 O   0  0  0  0  0  0  0  0  0  0  0  0
  -20.9880  -29.6680   21.5260 H   0  0  0  0  0  0  0  0  0  0  0  0
  -18.1260  -27.8550   22.7150 C   0  0  0  0  0  0  0  0  0  0  0  0
  -20.6920  -28.1040   22.9190 C   0  0  0  0  0  3  0  0  0  0  0  0
  -20.7760  -26.7060   22.2620 C   0  0  0  0  0  2  0  0  0  0  0  0
  -19.6430  -26.4400   21.2650 C   0  0  0  0  0  2  0  0  0  0  0  0
  -18.2810  -26.5460   21.9580 C   0  0  0  0  0  2  0  0  0  0  0  0
  -19.2580  -28.5940   23.1530 C   0  0  0  0  0  0  0  0  0  0  0  0
  -19.0570  -29.8180   23.8240 C   0  0  0  0  0  3  0  0  0  0  0  0
  -17.7570  -30.3060   24.0600 C   0  0  0  0  0  3  0  0  0  0  0  0
  -16.6410  -29.5650   23.6370 C   0  0  0  0  0  3  0  0  0  0  0  0
  -16.8270  -28.3390   22.9710 C   0  0  0  0  0  3  0  0  0  0  0  0
  -25.9380  -32.2940   23.6820 C   0  0  0  0  0  3  0  0  0  0  0  0
  -26.4710  -31.4850   24.9290 C   0  0  1  0  0  0  0  0  0  0  0  0
  -25.3890  -31.2010   25.9960 C   0  0  0  0  0  1  0  0  0  0  0  0
  -27.0660  -30.1280   24.4900 C   0  0  0  0  0  1  0  0  0  0  0  0
  -27.6200  -32.2690   25.6100 C   0  0  0  0  0  1  0  0  0  0  0  0
  -25.6080  -33.6750   24.0710 N   0  0  0  0  0  0  0  0  0  0  0  0
  -25.9270  -34.7670   23.3630 C   0  0  0  0  0  0  0  0  0  0  0  0
  -26.5980  -34.7180   22.3290 O   0  0  0  0  0  0  0  0  0  0  0  0
  -25.0110  -33.7850   24.8780 H   0  0  0  0  0  0  0  0  0  0  0  0
  -24.1770  -36.5550   23.0950 C   0  0  0  0  0  1  0  0  0  0  0  0
  -25.4250  -36.1280   23.8850 C   0  0  0  0  0  3  0  0  0  0  0  0
  -27.5470  -37.0060   24.7570 C   0  0  0  0  0  1  0  0  0  0  0  0
  -26.4450  -37.1970   23.8160 N   0  0  0  0  0  0  0  0  0  0  0  0
  -26.0260  -38.1060   23.9980 H   0  0  0  0  0  0  0  0  0  0  0  0
  1  3  1  0
  2  6  1  0
  3 17  1  0
  3  6  2  0
  4  2  2  0
  5  1  2  0
  5  4  1  0
  6  8  1  0
  7  5  1  0
  9 17  1  0
 10 15  1  0
 11 12  1  0
 11 10  1  0
 13 12  1  0
 13 22  1  0
 13 14  1  0
 15  9  1  0
 15 14  1  0
 16  9  2  0
 17 18  1  0
 19 20  2  0
 20 39  1  0
 21 20  1  0
 21 24  1  0
 22 23  1  0
 22 19  1  0
 23 21  2  0
 24 25  1  0
 25 26  2  0
 27 30  1  0
 27 26  1  0
 28 27  2  0
 29 28  1  0
 29 24  2  0
 30 31  1  0
 31 32  1  0
 32 33  2  0
 34 33  1  0
 34 38  1  0
 35 34  2  0
 36 31  2  0
 36 35  1  0
 37 36  1  0
 39 40  1  0
 40 43  1  0
 40 42  1  0
 41 39  2  0
 44 19  1  0
 44 45  1  0
 46 44  1  0
 47  4  1  0
 47 48  1  0
 49 50  1  0
 49 48  1  0
 51 62  2  0
 52 50  1  0
 52 57  1  0
 53 61  1  0
 53 63  1  0
 54 60  1  0
 54 56  1  0
 55 61  1  0
 56 55  1  0
 57 56  2  0
 58 59  1  0
 58 52  2  0
 59 54  2  0
 60 53  1  0
 61 51  1  0
 63 65  2  0
 64 63  1  0
 66 64  1  0
 67 76  2  0
 67 72  1  0
 68 64  1  0
 68 72  1  0
 69 68  1  0
 70 71  1  0
 70 69  1  0
 71 67  1  0
 72 73  2  0
 73 74  1  0
 75 74  2  0
 76 75  1  0
 77 51  1  0
 77 82  1  0
 77 78  1  0
 78 81  1  1
 78 79  1  0
 80 78  1  0
 82 85  1  0
 83 87  1  0
 83 82  1  0
 84 83  2  0
 87 86  1  0
 89 87  1  0
 89 90  1  0
 89 88  1  0
M  ISO  4   9 100  17 100  49 101  50 101
M  END
>  <TORSDO>  (66) 
F 19

>  <SCORE>  (66) 
-13.201

>  <name>  (66) 
65

>  <ligand_id>  (66) 
65

>  <original_smiles>  (66) 
[H]c1c([H])c([H])c2c(c1[H])C([H])([H])C([H])([H])C([H])([H])C2([H])N([H])C(=O)C1([H])N(C(=O)C([H])(N([H])C(=O)C([H])(N([H])C([H])([H])[H])C([H])([H])[H])C(C([H])([H])[H])(C([H])([H])[H])C([H])([H])[H])C([H])([H])c2c([H])c(OC([H])([H])C([H])([H])Oc3c([H])c(F)c(N([H])C(=O)N4C([H])([H])C([H])([H])C([H])([H])C([H])(n5nc(-c6c([H])c([H])c(Oc7c([H])c([H])c(F)c([H])c7F)c([H])c6[H])c(C(=O)N([H])[H])c5N([H])[H])C4([H])[H])c([H])c3F)c([H])c([H])c2C1([H])[H]

>  <smiles>  (66) 
[H]c1c([H])c([H])c2c(c1[H])C([H])([H])C([H])([H])C([H])([H])C2([H])N([H])C(=O)C1([H])N(C(=O)C([H])(N([H])C(=O)C([H])(N([H])C([H])([H])[H])C([H])([H])[H])C(C([H])([H])[H])(C([H])([H])[H])C([H])([H])[H])C([H])([H])c2c([H])c(OC([H])([H])C([H])([H])Oc3c([H])c(F)c(N([H])C(=O)N4C([H])([H])C([H])([H])C([H])([H])C([H])(n5nc(-c6c([H])c([H])c(Oc7c([H])c([H])c(F)c([H])c7F)c([H])c6[H])c(C(=O)N([H])[H])c5N([H])[H])C4([H])[H])c([H])c3F)c([H])c([H])c2C1([H])[H]

$$$$
66:0:0
     RDKit          3D

 89 96  0  0  1  0  0  0  0  0999 V2000
  -28.5280  -20.4860   20.3040 C   0  0  0  0  0  3  0  0  0  0  0  0
  -30.1830  -22.2130   20.3330 C   0  0  0  0  0  3  0  0  0  0  0  0
  -28.7700  -22.1220   20.3270 C   0  0  0  0  0  0  0  0  0  0  0  0
  -29.4770  -19.1330   20.2860 C   0  0  0  0  0  0  0  0  0  0  0  0
  -31.0970  -21.0990   20.3200 C   0  0  0  0  0  0  0  0  0  0  0  0
  -30.7850  -19.6900   20.2970 C   0  0  0  0  0  0  0  0  0  0  0  0
  -32.4140  -21.4190   20.3320 F   0  0  0  0  0  0  0  0  0  0  0  0
  -31.8310  -18.8290   20.2890 F   0  0  0  0  0  0  0  0  0  0  0  0
  -30.1540  -15.9400   20.1770 C   0  0  0  0  0  0  0  0  0  0  0  0
  -30.3140  -13.3560   19.3310 C   0  0  0  0  0  2  0  0  0  0  0  0
  -29.4270  -12.8640   18.1460 C   0  0  0  0  0  2  0  0  0  0  0  0
  -28.0310  -12.4520   18.6290 C   0  0  0  0  0  2  0  0  0  0  0  0
  -27.5030  -13.4460   19.6840 C   0  0  0  0  0  3  0  0  0  0  0  0
  -28.5380  -13.8330   20.7720 C   0  0  0  0  0  2  0  0  0  0  0  0
  -29.6600  -14.5370   20.0880 N   0  0  0  0  0  0  0  0  0  0  0  0
  -31.3900  -15.8440   20.0040 O   0  0  0  0  0  0  0  0  0  0  0  0
  -29.3770  -17.3450   20.2650 N   0  0  0  0  0  0  0  0  0  0  0  0
  -28.4030  -17.0870   20.3300 H   0  0  0  0  0  0  0  0  0  0  0  0
  -25.1560  -13.9250   20.5060 C   0  0  0  0  0  0  0  0  0  0  0  0
  -24.1130  -13.1270   20.8790 C   0  0  0  0  0  0  0  0  0  0  0  0
  -24.5990  -11.7840   20.8180 C   0  0  0  0  0  0  0  0  0  0  0  0
  -26.2060  -13.0730   20.2290 N   0  0  0  0  0  0  0  0  0  0  0  0
  -25.8880  -11.7750   20.4830 N   0  0  0  0  0  0  0  0  0  0  0  0
  -23.8870  -10.5110   20.9990 C   0  0  0  0  0  0  0  0  0  0  0  0
  -24.3200   -9.5470   21.9360 C   0  0  0  0  0  3  0  0  0  0  0  0
  -23.6030   -8.3430   22.1090 C   0  0  0  0  0  3  0  0  0  0  0  0
  -22.4370   -8.0950   21.3460 C   0  0  0  0  0  0  0  0  0  0  0  0
  -22.0220   -9.0480   20.3990 C   0  0  0  0  0  3  0  0  0  0  0  0
  -22.7410  -10.2420   20.2240 C   0  0  0  0  0  3  0  0  0  0  0  0
  -21.6910   -6.9430   21.4280 O   0  0  0  0  0  0  0  0  0  0  0  0
  -21.6130   -6.2170   22.5900 C   0  0  0  0  0  0  0  0  0  0  0  0
  -21.1030   -6.7740   23.7830 C   0  0  0  0  0  3  0  0  0  0  0  0
  -20.9750   -5.9730   24.9350 C   0  0  0  0  0  3  0  0  0  0  0  0
  -21.3460   -4.6170   24.8950 C   0  0  0  0  0  0  0  0  0  0  0  0
  -21.8480   -4.0580   23.7070 C   0  0  0  0  0  3  0  0  0  0  0  0
  -21.9780   -4.8560   22.5570 C   0  0  0  0  0  0  0  0  0  0  0  0
  -22.4420   -4.3080   21.4080 F   0  0  0  0  0  0  0  0  0  0  0  0
  -21.2170   -3.8450   26.0000 F   0  0  0  0  0  0  0  0  0  0  0  0
  -22.7140  -13.5840   21.1710 C   0  0  0  0  0  0  0  0  0  0  0  0
  -22.0070  -12.8740   22.0410 N   0  0  0  0  0  0  0  0  0  0  0  0
  -22.2600  -14.6090   20.6650 O   0  0  0  0  0  0  0  0  0  0  0  0
  -22.3900  -12.0450   22.4730 H   0  0  0  0  0  0  0  0  0  0  0  0
  -21.0690  -13.1620   22.2810 H   0  0  0  0  0  0  0  0  0  0  0  0
  -25.2920  -15.3020   20.3450 N   0  0  0  0  0  0  0  0  0  0  0  0
  -24.5140  -15.9380   20.4720 H   0  0  0  0  0  0  0  0  0  0  0  0
  -26.1160  -15.7530   19.9720 H   0  0  0  0  0  0  0  0  0  0  0  0
  -27.8950  -23.5490   20.3460 N   0  0  0  0  0  2  0  0  0  0  0  0
  -26.8880  -23.4010   20.3650 H   0  0  0  0  0  0  0  0  0  0  0  0
  -28.1620  -25.4000   20.3480 O   0  0  0  0  0  1  0  0  0  0  0  0
  -24.6730  -31.9040   23.2320 C   0  0  0  0  0  0  0  0  0  0  0  0
  -27.1760  -26.6550   20.3320 C   0  0  0  0  0  0  0  0  0  0  0  0
  -23.4900  -30.4920   21.6060 C   0  0  0  0  0  3  0  0  0  0  0  0
  -24.9350  -28.7890   20.2310 C   0  0  0  0  0  0  0  0  0  0  0  0
  -26.0750  -30.5740   21.5160 C   0  0  0  0  0  2  0  0  0  0  0  0
  -26.1290  -29.1170   20.8820 C   0  0  0  0  0  0  0  0  0  0  0  0
  -27.2230  -28.0800   20.9010 C   0  0  0  0  0  3  0  0  0  0  0  0
  -25.9520  -26.5780   19.6090 C   0  0  0  0  0  3  0  0  0  0  0  0
  -24.8930  -27.5460   19.5710 C   0  0  0  0  0  3  0  0  0  0  0  0
  -23.7400  -29.7660   20.2500 C   0  0  0  0  0  2  0  0  0  0  0  0
  -24.7710  -31.0280   22.1690 N   0  0  0  0  0  0  0  0  0  0  0  0
  -23.5770  -32.2220   23.7250 O   0  0  0  0  0  0  0  0  0  0  0  0
  -22.7500  -29.5410   22.5870 C   0  0  0  0  0  0  0  0  0  0  0  0
  -21.4160  -29.4000   22.4560 N   0  0  0  0  0  0  0  0  0  0  0  0
  -23.3910  -28.9270   23.4440 O   0  0  0  0  0  0  0  0  0  0  0  0
  -20.9460  -29.9440   21.7460 H   0  0  0  0  0  0  0  0  0  0  0  0
  -18.0160  -28.2160   22.9700 C   0  0  0  0  0  0  0  0  0  0  0  0
  -20.5780  -28.4800   23.2360 C   0  0  0  0  0  3  0  0  0  0  0  0
  -20.6720  -27.0380   22.6820 C   0  0  0  0  0  2  0  0  0  0  0  0
  -19.5740  -26.7090   21.6650 C   0  0  0  0  0  2  0  0  0  0  0  0
  -18.1910  -26.8620   22.3030 C   0  0  0  0  0  2  0  0  0  0  0  0
  -19.1360  -28.9820   23.3930 C   0  0  0  0  0  0  0  0  0  0  0  0
  -18.9130  -30.2450   23.9840 C   0  0  0  0  0  3  0  0  0  0  0  0
  -17.6080  -30.7430   24.1510 C   0  0  0  0  0  3  0  0  0  0  0  0
  -16.5040  -29.9760   23.7400 C   0  0  0  0  0  3  0  0  0  0  0  0
  -16.7090  -28.7130   23.1550 C   0  0  0  0  0  3  0  0  0  0  0  0
  -25.9310  -32.5600   23.8770 C   0  0  0  0  0  3  0  0  0  0  0  0
  -25.6080  -33.9660   24.2030 N   0  0  0  0  0  0  0  0  0  0  0  0
  -25.9250  -35.0290   23.4530 C   0  0  0  0  0  0  0  0  0  0  0  0
  -26.5760  -34.9320   22.4110 O   0  0  0  0  0  0  0  0  0  0  0  0
  -25.0240  -34.1130   25.0140 H   0  0  0  0  0  0  0  0  0  0  0  0
  -24.1840  -36.8310   23.1670 C   0  0  0  0  0  1  0  0  0  0  0  0
  -25.4520  -36.4200   23.9310 C   0  0  0  0  0  3  0  0  0  0  0  0
  -27.6070  -37.3230   24.6960 C   0  0  0  0  0  1  0  0  0  0  0  0
  -26.4780  -37.4780   23.7830 N   0  0  0  0  0  0  0  0  0  0  0  0
  -26.0720  -38.3970   23.9340 H   0  0  0  0  0  0  0  0  0  0  0  0
  -26.4160  -31.8130   25.1830 C   0  0  1  0  0  0  0  0  0  0  0  0
  -25.3000  -31.6040   26.2350 C   0  0  0  0  0  1  0  0  0  0  0  0
  -26.9990  -30.4240   24.8460 C   0  0  0  0  0  1  0  0  0  0  0  0
  -27.5580  -32.6150   25.8520 C   0  0  0  0  0  1  0  0  0  0  0  0
  1  3  1  0
  3  2  2  0
  3 47  1  0
  4  6  1  0
  4  1  2  0
  5  7  1  0
  5  2  1  0
  6  5  2  0
  8  6  1  0
  9 17  1  0
 10 15  1  0
 11 12  1  0
 11 10  1  0
 13 12  1  0
 13 22  1  0
 13 14  1  0
 15  9  1  0
 15 14  1  0
 16  9  2  0
 17  4  1  0
 17 18  1  0
 19 20  2  0
 20 39  1  0
 21 20  1  0
 21 24  1  0
 22 23  1  0
 22 19  1  0
 23 21  2  0
 24 25  1  0
 25 26  2  0
 27 30  1  0
 27 26  1  0
 28 27  2  0
 29 28  1  0
 29 24  2  0
 30 31  1  0
 31 32  1  0
 32 33  2  0
 34 33  1  0
 34 38  1  0
 35 34  2  0
 36 31  2  0
 36 35  1  0
 37 36  1  0
 39 40  1  0
 40 43  1  0
 40 42  1  0
 41 39  2  0
 44 45  1  0
 44 19  1  0
 46 44  1  0
 47 48  1  0
 50 61  2  0
 51 49  1  0
 51 56  1  0
 52 60  1  0
 52 62  1  0
 53 59  1  0
 53 55  1  0
 54 60  1  0
 55 56  2  0
 55 54  1  0
 57 51  2  0
 58 57  1  0
 58 53  2  0
 59 52  1  0
 60 50  1  0
 62 64  2  0
 63 62  1  0
 65 63  1  0
 66 75  2  0
 66 71  1  0
 67 63  1  0
 67 71  1  0
 68 67  1  0
 69 70  1  0
 69 68  1  0
 70 66  1  0
 71 72  2  0
 72 73  1  0
 74 73  2  0
 75 74  1  0
 76 50  1  0
 76 77  1  0
 76 86  1  0
 77 80  1  0
 78 82  1  0
 78 77  1  0
 79 78  2  0
 82 81  1  0
 84 82  1  0
 84 85  1  0
 84 83  1  0
 86 89  1  1
 86 87  1  0
 88 86  1  0
M  ISO  4   9 100  17 100  47 101  49 101
M  END
>  <TORSDO>  (67) 
F 17

>  <SCORE>  (67) 
-16.669

>  <name>  (67) 
66

>  <ligand_id>  (67) 
66

>  <original_smiles>  (67) 
[H]c1c([H])c([H])c2c(c1[H])C([H])([H])C([H])([H])C([H])([H])C2([H])N([H])C(=O)C1([H])N(C(=O)C([H])(N([H])C(=O)C([H])(N([H])C([H])([H])[H])C([H])([H])[H])C(C([H])([H])[H])(C([H])([H])[H])C([H])([H])[H])C([H])([H])c2c([H])c(ON([H])c3c([H])c(F)c(F)c(N([H])C(=O)N4C([H])([H])C([H])([H])C([H])([H])C([H])(n5nc(-c6c([H])c([H])c(Oc7c([H])c([H])c(F)c([H])c7F)c([H])c6[H])c(C(=O)N([H])[H])c5N([H])[H])C4([H])[H])c3[H])c([H])c([H])c2C1([H])[H]

>  <smiles>  (67) 
[H]c1c([H])c([H])c2c(c1[H])C([H])([H])C([H])([H])C([H])([H])C2([H])N([H])C(=O)C1([H])N(C(=O)C([H])(N([H])C(=O)C([H])(N([H])C([H])([H])[H])C([H])([H])[H])C(C([H])([H])[H])(C([H])([H])[H])C([H])([H])[H])C([H])([H])c2c([H])c(ON([H])c3c([H])c(F)c(F)c(N([H])C(=O)N4C([H])([H])C([H])([H])C([H])([H])C([H])(n5nc(-c6c([H])c([H])c(Oc7c([H])c([H])c(F)c([H])c7F)c([H])c6[H])c(C(=O)N([H])[H])c5N([H])[H])C4([H])[H])c3[H])c([H])c([H])c2C1([H])[H]

$$$$
67:0:0
     RDKit          3D

 97106  0  0  1  0  0  0  0  0999 V2000
  -29.0520  -22.8510   19.8990 N   0  0  0  0  0  4  0  0  0  0  0  0
  -28.2630  -22.6150   20.4780 H   0  0  0  0  0  0  0  0  0  0  0  0
  -28.7840  -22.7850   18.9290 H   0  0  0  0  0  0  0  0  0  0  0  0
  -30.1030  -21.8100   20.1220 C   0  0  0  0  0  2  0  0  0  0  0  0
  -28.2210  -18.6790   18.7810 C   0  0  0  0  0  3  0  0  0  0  0  0
  -28.9690  -17.6220   19.3390 C   0  0  0  0  0  3  0  0  0  0  0  0
  -28.5710  -20.0240   19.0240 C   0  0  0  0  0  3  0  0  0  0  0  0
  -30.4320  -19.2630   20.3850 C   0  0  0  0  0  3  0  0  0  0  0  0
  -30.0950  -17.9000   20.1440 C   0  0  0  0  0  0  0  0  0  0  0  0
  -29.6780  -20.3430   19.8460 C   0  0  0  0  0  0  0  0  0  0  0  0
  -30.7340  -14.4590   19.7680 C   0  0  0  0  0  0  0  0  0  0  0  0
  -30.1730  -12.3930   18.5030 C   0  0  0  0  0  2  0  0  0  0  0  0
  -29.1280  -12.6600   17.4010 C   0  0  0  0  0  2  0  0  0  0  0  0
  -27.7010  -12.5240   17.9640 C   0  0  0  0  0  2  0  0  0  0  0  0
  -27.5140  -13.3290   19.2740 C   0  0  0  0  0  3  0  0  0  0  0  0
  -28.6590  -13.0480   20.2660 C   0  0  0  0  0  2  0  0  0  0  0  0
  -29.9480  -13.3450   19.6100 N   0  0  0  0  0  0  0  0  0  0  0  0
  -31.6730  -14.6780   18.9960 O   0  0  0  0  0  0  0  0  0  0  0  0
  -31.3210  -15.7550   22.9410 C   0  0  0  0  0  2  0  0  0  0  0  0
  -31.2550  -17.0970   22.2430 C   0  0  0  0  0  2  0  0  0  0  0  0
  -30.3250  -14.9200   22.1500 C   0  0  0  0  0  2  0  0  0  0  0  0
  -30.9450  -16.7690   20.7700 C   0  0  0  0  0  3  0  0  0  0  0  0
  -30.4160  -15.3640   20.7490 N   0  0  0  0  0  0  0  0  0  0  0  0
  -25.2300  -13.9820   20.2640 C   0  0  0  0  0  0  0  0  0  0  0  0
  -24.1830  -13.2290   20.7230 C   0  0  0  0  0  0  0  0  0  0  0  0
  -24.5920  -11.8670   20.5990 C   0  0  0  0  0  0  0  0  0  0  0  0
  -26.2110  -13.0780   19.8860 N   0  0  0  0  0  0  0  0  0  0  0  0
  -25.8380  -11.7980   20.1470 N   0  0  0  0  0  0  0  0  0  0  0  0
  -23.8470  -10.6210   20.8270 C   0  0  0  0  0  0  0  0  0  0  0  0
  -24.3360   -9.6150   21.6900 C   0  0  0  0  0  3  0  0  0  0  0  0
  -23.5930   -8.4350   21.9060 C   0  0  0  0  0  3  0  0  0  0  0  0
  -22.3480   -8.2520   21.2600 C   0  0  0  0  0  0  0  0  0  0  0  0
  -21.8770   -9.2460   20.3840 C   0  0  0  0  0  3  0  0  0  0  0  0
  -22.6200  -10.4180   20.1660 C   0  0  0  0  0  3  0  0  0  0  0  0
  -21.5700   -7.1270   21.3890 O   0  0  0  0  0  0  0  0  0  0  0  0
  -21.6030   -6.3550   22.5230 C   0  0  0  0  0  0  0  0  0  0  0  0
  -21.3310   -6.8930   23.8000 C   0  0  0  0  0  3  0  0  0  0  0  0
  -21.3080   -6.0490   24.9290 C   0  0  0  0  0  3  0  0  0  0  0  0
  -21.5480   -4.6690   24.7830 C   0  0  0  0  0  0  0  0  0  0  0  0
  -21.8130   -4.1310   23.5100 C   0  0  0  0  0  3  0  0  0  0  0  0
  -21.8370   -4.9710   22.3840 C   0  0  0  0  0  0  0  0  0  0  0  0
  -22.0730   -4.4450   21.1580 F   0  0  0  0  0  0  0  0  0  0  0  0
  -21.5190   -3.8580   25.8640 F   0  0  0  0  0  0  0  0  0  0  0  0
  -22.8400  -13.7400   21.1630 C   0  0  0  0  0  0  0  0  0  0  0  0
  -22.1970  -13.0490   22.0970 N   0  0  0  0  0  0  0  0  0  0  0  0
  -22.3750  -14.7850   20.7100 O   0  0  0  0  0  0  0  0  0  0  0  0
  -22.5880  -12.2020   22.4830 H   0  0  0  0  0  0  0  0  0  0  0  0
  -21.3020  -13.3710   22.4330 H   0  0  0  0  0  0  0  0  0  0  0  0
  -25.4240  -15.3520   20.1180 N   0  0  0  0  0  0  0  0  0  0  0  0
  -24.7010  -16.0270   20.3390 H   0  0  0  0  0  0  0  0  0  0  0  0
  -26.2570  -15.7770   19.7320 H   0  0  0  0  0  0  0  0  0  0  0  0
  -29.4100  -24.2970   20.1210 C   0  0  0  0  0  3  0  0  0  0  0  0
  -30.6000  -24.7030   19.2270 C   0  0  0  0  0  2  0  0  0  0  0  0
  -30.3950  -24.2240   17.9040 O   0  0  0  0  0  0  0  0  0  0  0  0
  -31.1310  -24.5180   17.3710 H   0  0  0  0  0  0  0  0  0  0  0  0
  -28.1730  -25.2250   19.8670 C   0  0  0  0  0  2  0  0  0  0  0  0
  -28.3040  -26.6360   20.1900 O   0  0  0  0  0  0  0  0  0  0  0  0
  -24.5270  -31.8920   23.2570 C   0  0  0  0  0  0  0  0  0  0  0  0
  -27.1400  -27.4020   20.1680 C   0  0  0  0  0  0  0  0  0  0  0  0
  -23.3080  -30.4910   21.6280 C   0  0  0  0  0  3  0  0  0  0  0  0
  -24.7500  -28.9480   20.1960 C   0  0  0  0  0  0  0  0  0  0  0  0
  -25.8400  -30.8330   21.4150 C   0  0  0  0  0  2  0  0  0  0  0  0
  -25.9180  -29.4600   20.7740 C   0  0  0  0  0  0  0  0  0  0  0  0
  -27.1150  -28.6970   20.7510 C   0  0  0  0  0  3  0  0  0  0  0  0
  -25.9410  -26.9240   19.5800 C   0  0  0  0  0  3  0  0  0  0  0  0
  -24.7590  -27.6820   19.5950 C   0  0  0  0  0  3  0  0  0  0  0  0
  -23.5080  -29.8110   20.2490 C   0  0  0  0  0  2  0  0  0  0  0  0
  -24.5780  -31.0870   22.1570 N   0  0  0  0  0  0  0  0  0  0  0  0
  -23.4490  -32.1680   23.8020 O   0  0  0  0  0  0  0  0  0  0  0  0
  -22.6610  -29.4720   22.5950 C   0  0  0  0  0  0  0  0  0  0  0  0
  -21.3370  -29.2870   22.4710 N   0  0  0  0  0  0  0  0  0  0  0  0
  -23.3460  -28.8520   23.4110 O   0  0  0  0  0  0  0  0  0  0  0  0
  -20.8460  -29.8390   21.7820 H   0  0  0  0  0  0  0  0  0  0  0  0
  -17.9680  -28.0750   22.9670 C   0  0  0  0  0  0  0  0  0  0  0  0
  -20.5230  -28.3500   23.2430 C   0  0  0  0  0  3  0  0  0  0  0  0
  -20.6350  -26.9150   22.6790 C   0  0  0  0  0  2  0  0  0  0  0  0
  -19.5380  -26.5760   21.6650 C   0  0  0  0  0  2  0  0  0  0  0  0
  -18.1530  -26.7190   22.3040 C   0  0  0  0  0  2  0  0  0  0  0  0
  -19.0810  -28.8460   23.3940 C   0  0  0  0  0  0  0  0  0  0  0  0
  -18.8560  -30.1130   23.9740 C   0  0  0  0  0  3  0  0  0  0  0  0
  -17.5480  -30.6100   24.1320 C   0  0  0  0  0  3  0  0  0  0  0  0
  -16.4490  -29.8350   23.7230 C   0  0  0  0  0  3  0  0  0  0  0  0
  -16.6580  -28.5700   23.1450 C   0  0  0  0  0  3  0  0  0  0  0  0
  -25.8190  -32.5210   23.8660 C   0  0  0  0  0  3  0  0  0  0  0  0
  -25.5150  -33.9200   24.1980 N   0  0  0  0  0  0  0  0  0  0  0  0
  -25.8310  -34.9710   23.4300 C   0  0  0  0  0  0  0  0  0  0  0  0
  -26.4830  -34.8650   22.3860 O   0  0  0  0  0  0  0  0  0  0  0  0
  -24.9380  -34.0770   25.0110 H   0  0  0  0  0  0  0  0  0  0  0  0
  -24.0920  -36.7570   23.1020 C   0  0  0  0  0  1  0  0  0  0  0  0
  -25.3480  -36.3590   23.8910 C   0  0  0  0  0  3  0  0  0  0  0  0
  -27.4980  -37.2500   24.6750 C   0  0  0  0  0  1  0  0  0  0  0  0
  -26.3750  -37.4140   23.7560 N   0  0  0  0  0  0  0  0  0  0  0  0
  -25.9700  -38.3330   23.9130 H   0  0  0  0  0  0  0  0  0  0  0  0
  -26.3450  -31.7490   25.1390 C   0  0  1  0  0  0  0  0  0  0  0  0
  -25.2600  -31.5150   26.2150 C   0  0  0  0  0  1  0  0  0  0  0  0
  -26.9230  -30.3710   24.7380 C   0  0  0  0  0  1  0  0  0  0  0  0
  -27.5010  -32.5420   25.7920 C   0  0  0  0  0  1  0  0  0  0  0  0
  1 52  1  0
  1  4  1  0
  1  2  1  0
  3  1  1  0
  5  7  2  0
  5  6  1  0
  6  9  2  0
  7 10  1  0
  9  8  1  0
 10  4  1  0
 10  8  2  0
 11 23  1  0
 12 17  1  0
 13 14  1  0
 13 12  1  0
 15 14  1  0
 15 27  1  0
 15 16  1  0
 17 11  1  0
 17 16  1  0
 18 11  2  0
 20 19  1  0
 21 19  1  0
 22  9  1  0
 22 20  1  0
 23 22  1  0
 23 21  1  0
 24 25  2  0
 25 44  1  0
 26 25  1  0
 26 29  1  0
 27 28  1  0
 27 24  1  0
 28 26  2  0
 29 30  1  0
 30 31  2  0
 32 35  1  0
 32 31  1  0
 33 32  2  0
 34 33  1  0
 34 29  2  0
 35 36  1  0
 36 37  1  0
 37 38  2  0
 39 38  1  0
 39 43  1  0
 40 39  2  0
 41 36  2  0
 41 40  1  0
 42 41  1  0
 44 45  1  0
 45 48  1  0
 45 47  1  0
 46 44  2  0
 49 24  1  0
 49 50  1  0
 51 49  1  0
 52 53  1  0
 54 53  1  0
 55 54  1  0
 56 52  1  0
 56 57  1  0
 58 69  2  0
 59 57  1  0
 59 64  1  0
 60 68  1  0
 60 70  1  0
 61 67  1  0
 61 63  1  0
 62 68  1  0
 63 62  1  0
 64 63  2  0
 65 66  1  0
 65 59  2  0
 66 61  2  0
 67 60  1  0
 68 58  1  0
 70 72  2  0
 71 70  1  0
 73 71  1  0
 74 83  2  0
 74 79  1  0
 75 71  1  0
 75 79  1  0
 76 75  1  0
 77 78  1  0
 77 76  1  0
 78 74  1  0
 79 80  2  0
 80 81  1  0
 82 81  2  0
 83 82  1  0
 84 58  1  0
 84 85  1  0
 84 94  1  0
 85 88  1  0
 86 90  1  0
 86 85  1  0
 87 86  2  0
 90 89  1  0
 92 90  1  0
 92 93  1  0
 92 91  1  0
 94 97  1  1
 94 95  1  0
 96 94  1  0
M  ISO  4  11 100  23 100  56 101  57 101
M  END
>  <TORSDO>  (68) 
F 22

>  <SCORE>  (68) 
-10.458

>  <name>  (68) 
67

>  <ligand_id>  (68) 
67

>  <original_smiles>  (68) 
[H]OC([H])([H])C([H])(C([H])([H])Oc1c([H])c([H])c2c(c1[H])C([H])([H])N(C(=O)C([H])(N([H])C(=O)C([H])(N([H])C([H])([H])[H])C([H])([H])[H])C(C([H])([H])[H])(C([H])([H])[H])C([H])([H])[H])C([H])(C(=O)N([H])C1([H])c3c([H])c([H])c([H])c([H])c3C([H])([H])C([H])([H])C1([H])[H])C2([H])[H])[N+]([H])([H])C([H])([H])c1c([H])c([H])c([H])c(C2([H])N(C(=O)N3C([H])([H])C([H])([H])C([H])([H])C([H])(n4nc(-c5c([H])c([H])c(Oc6c([H])c([H])c(F)c([H])c6F)c([H])c5[H])c(C(=O)N([H])[H])c4N([H])[H])C3([H])[H])C([H])([H])C([H])([H])C2([H])[H])c1[H]

>  <smiles>  (68) 
[H]OC([H])([H])C([H])(C([H])([H])Oc1c([H])c([H])c2c(c1[H])C([H])([H])N(C(=O)C([H])(N([H])C(=O)C([H])(N([H])C([H])([H])[H])C([H])([H])[H])C(C([H])([H])[H])(C([H])([H])[H])C([H])([H])[H])C([H])(C(=O)N([H])C1([H])c3c([H])c([H])c([H])c([H])c3C([H])([H])C([H])([H])C1([H])[H])C2([H])[H])[N+]([H])([H])C([H])([H])c1c([H])c([H])c([H])c(C2([H])N(C(=O)N3C([H])([H])C([H])([H])C([H])([H])C([H])(n4nc(-c5c([H])c([H])c(Oc6c([H])c([H])c(F)c([H])c6F)c([H])c5[H])c(C(=O)N([H])[H])c4N([H])[H])C3([H])[H])C([H])([H])C([H])([H])C2([H])[H])c1[H]

$$$$
68:0:0
     RDKit          3D

 93102  0  0  1  0  0  0  0  0999 V2000
  -29.7410  -24.7200   18.9360 C   0  0  0  0  0  2  0  0  0  0  0  0
  -29.8000  -23.1680   18.8710 C   0  0  0  0  0  2  0  0  0  0  0  0
  -28.4460  -23.8720   20.6870 C   0  0  0  0  0  2  0  0  0  0  0  0
  -28.4290  -25.0540   19.6510 C   0  0  0  0  0  3  0  0  0  0  0  0
  -28.9930  -22.6350   19.9980 N   0  0  2  0  0  4  0  0  0  0  0  0
  -28.2040  -22.1640   19.5810 H   0  0  0  0  0  0  0  0  0  0  0  0
  -28.3780  -26.4690   20.1160 O   0  0  0  0  0  0  0  0  0  0  0  0
  -24.5510  -31.7880   23.1630 C   0  0  0  0  0  0  0  0  0  0  0  0
  -27.2100  -27.2580   20.0850 C   0  0  0  0  0  0  0  0  0  0  0  0
  -23.3590  -30.3860   21.5180 C   0  0  0  0  0  3  0  0  0  0  0  0
  -24.8220  -28.8490   20.0920 C   0  0  0  0  0  0  0  0  0  0  0  0
  -25.8960  -30.7240   21.3370 C   0  0  0  0  0  2  0  0  0  0  0  0
  -25.9870  -29.3470   20.6870 C   0  0  0  0  0  0  0  0  0  0  0  0
  -27.1800  -28.5630   20.6730 C   0  0  0  0  0  3  0  0  0  0  0  0
  -26.0090  -26.8090   19.4830 C   0  0  0  0  0  3  0  0  0  0  0  0
  -24.8360  -27.5860   19.4850 C   0  0  0  0  0  3  0  0  0  0  0  0
  -23.5800  -29.7150   20.1370 C   0  0  0  0  0  2  0  0  0  0  0  0
  -24.6220  -30.9840   22.0630 N   0  0  0  0  0  0  0  0  0  0  0  0
  -23.4660  -32.0560   23.6980 O   0  0  0  0  0  0  0  0  0  0  0  0
  -22.7040  -29.3610   22.4740 C   0  0  0  0  0  0  0  0  0  0  0  0
  -21.3790  -29.1750   22.3450 N   0  0  0  0  0  0  0  0  0  0  0  0
  -23.3860  -28.7370   23.2920 O   0  0  0  0  0  0  0  0  0  0  0  0
  -20.8890  -29.7290   21.6580 H   0  0  0  0  0  0  0  0  0  0  0  0
  -18.0120  -27.9490   22.8280 C   0  0  0  0  0  0  0  0  0  0  0  0
  -20.5670  -28.2310   23.1120 C   0  0  0  0  0  3  0  0  0  0  0  0
  -20.6850  -26.8000   22.5370 C   0  0  0  0  0  2  0  0  0  0  0  0
  -19.5910  -26.4680   21.5170 C   0  0  0  0  0  2  0  0  0  0  0  0
  -18.2050  -26.6000   22.1530 C   0  0  0  0  0  2  0  0  0  0  0  0
  -19.1220  -28.7200   23.2630 C   0  0  0  0  0  0  0  0  0  0  0  0
  -18.8890  -29.9820   23.8530 C   0  0  0  0  0  3  0  0  0  0  0  0
  -17.5780  -30.4710   24.0130 C   0  0  0  0  0  3  0  0  0  0  0  0
  -16.4830  -29.6980   23.5940 C   0  0  0  0  0  3  0  0  0  0  0  0
  -16.7010  -28.4380   23.0060 C   0  0  0  0  0  3  0  0  0  0  0  0
  -25.8280  -32.4280   23.7900 C   0  0  0  0  0  3  0  0  0  0  0  0
  -25.5080  -33.8230   24.1250 N   0  0  0  0  0  0  0  0  0  0  0  0
  -25.8280  -34.8810   23.3690 C   0  0  0  0  0  0  0  0  0  0  0  0
  -26.4930  -34.7860   22.3340 O   0  0  0  0  0  0  0  0  0  0  0  0
  -24.9160  -33.9690   24.9300 H   0  0  0  0  0  0  0  0  0  0  0  0
  -24.0750  -36.6550   23.0400 C   0  0  0  0  0  1  0  0  0  0  0  0
  -25.3320  -36.2620   23.8340 C   0  0  0  0  0  3  0  0  0  0  0  0
  -27.4680  -37.1720   24.6360 C   0  0  0  0  0  1  0  0  0  0  0  0
  -26.3510  -37.3270   23.7070 N   0  0  0  0  0  0  0  0  0  0  0  0
  -25.9370  -38.2430   23.8600 H   0  0  0  0  0  0  0  0  0  0  0  0
  -26.3490  -31.6560   25.0640 C   0  0  1  0  0  0  0  0  0  0  0  0
  -25.2560  -31.4100   26.1310 C   0  0  0  0  0  1  0  0  0  0  0  0
  -26.9390  -30.2830   24.6670 C   0  0  0  0  0  1  0  0  0  0  0  0
  -27.4940  -32.4550   25.7290 C   0  0  0  0  0  1  0  0  0  0  0  0
  -29.6860  -21.5980   20.8740 C   0  0  0  0  0  2  0  0  0  0  0  0
  -30.9190  -19.3600   20.2000 C   0  0  0  0  0  3  0  0  0  0  0  0
  -30.9930  -17.9270   20.1440 C   0  0  0  0  0  3  0  0  0  0  0  0
  -28.5760  -19.2360   20.7110 C   0  0  0  0  0  3  0  0  0  0  0  0
  -29.7140  -20.0580   20.5130 C   0  0  0  0  0  0  0  0  0  0  0  0
  -29.8550  -17.1150   20.4040 C   0  0  0  0  0  0  0  0  0  0  0  0
  -28.6470  -17.8140   20.6600 C   0  0  0  0  0  0  0  0  0  0  0  0
  -27.5270  -17.0920   20.9020 F   0  0  0  0  0  0  0  0  0  0  0  0
  -30.5830  -14.6180   20.0470 C   0  0  0  0  0  0  0  0  0  0  0  0
  -30.3090  -12.4020   18.9460 C   0  0  0  0  0  2  0  0  0  0  0  0
  -29.3050  -12.5670   17.7820 C   0  0  0  0  0  2  0  0  0  0  0  0
  -27.8520  -12.4190   18.2770 C   0  0  0  0  0  2  0  0  0  0  0  0
  -27.5660  -13.2560   19.5520 C   0  0  0  0  0  3  0  0  0  0  0  0
  -28.6750  -13.0520   20.6100 C   0  0  0  0  0  2  0  0  0  0  0  0
  -29.9610  -13.3980   19.9800 N   0  0  0  0  0  0  0  0  0  0  0  0
  -31.7270  -14.7820   19.6100 O   0  0  0  0  0  0  0  0  0  0  0  0
  -29.7890  -15.6520   20.4620 N   0  0  0  0  0  0  0  0  0  0  0  0
  -28.8960  -15.3270   20.8010 H   0  0  0  0  0  0  0  0  0  0  0  0
  -25.2090  -13.8740   20.3700 C   0  0  0  0  0  0  0  0  0  0  0  0
  -24.1500  -13.1090   20.7770 C   0  0  0  0  0  0  0  0  0  0  0  0
  -24.5970  -11.7540   20.7200 C   0  0  0  0  0  0  0  0  0  0  0  0
  -26.2360  -12.9850   20.0910 N   0  0  0  0  0  0  0  0  0  0  0  0
  -25.8740  -11.7040   20.3610 N   0  0  0  0  0  0  0  0  0  0  0  0
  -23.8660  -10.4990   20.9340 C   0  0  0  0  0  0  0  0  0  0  0  0
  -24.3230   -9.5240   21.8470 C   0  0  0  0  0  3  0  0  0  0  0  0
  -23.5940   -8.3320   22.0480 C   0  0  0  0  0  3  0  0  0  0  0  0
  -22.3930   -8.1080   21.3350 C   0  0  0  0  0  0  0  0  0  0  0  0
  -21.9530   -9.0720   20.4100 C   0  0  0  0  0  3  0  0  0  0  0  0
  -22.6830  -10.2540   20.2080 C   0  0  0  0  0  3  0  0  0  0  0  0
  -21.6310   -6.9690   21.4470 O   0  0  0  0  0  0  0  0  0  0  0  0
  -21.6100   -6.2290   22.6010 C   0  0  0  0  0  0  0  0  0  0  0  0
  -21.2400   -6.7930   23.8420 C   0  0  0  0  0  3  0  0  0  0  0  0
  -21.1650   -5.9790   24.9900 C   0  0  0  0  0  3  0  0  0  0  0  0
  -21.4480   -4.6030   24.8990 C   0  0  0  0  0  0  0  0  0  0  0  0
  -21.8100   -4.0390   23.6620 C   0  0  0  0  0  3  0  0  0  0  0  0
  -21.8880   -4.8500   22.5160 C   0  0  0  0  0  0  0  0  0  0  0  0
  -22.2170   -4.2970   21.3240 F   0  0  0  0  0  0  0  0  0  0  0  0
  -21.3670   -3.8190   25.9990 F   0  0  0  0  0  0  0  0  0  0  0  0
  -22.7720  -13.6000   21.1120 C   0  0  0  0  0  0  0  0  0  0  0  0
  -22.0770  -12.9100   22.0100 N   0  0  0  0  0  0  0  0  0  0  0  0
  -22.3200  -14.6310   20.6150 O   0  0  0  0  0  0  0  0  0  0  0  0
  -22.4560  -12.0750   22.4350 H   0  0  0  0  0  0  0  0  0  0  0  0
  -21.1530  -13.2190   22.2780 H   0  0  0  0  0  0  0  0  0  0  0  0
  -25.3770  -15.2430   20.1970 N   0  0  0  0  0  0  0  0  0  0  0  0
  -24.6300  -15.9020   20.3830 H   0  0  0  0  0  0  0  0  0  0  0  0
  -26.2520  -15.7000   19.9680 H   0  0  0  0  0  0  0  0  0  0  0  0
  1  4  1  0
  2  1  1  0
  2  5  1  0
  4  7  1  0
  4  3  1  0
  5  3  1  0
  5 48  1  0
  5  6  1  6
  8 19  2  0
  9  7  1  0
  9 14  1  0
 10 18  1  0
 10 20  1  0
 11 17  1  0
 11 13  1  0
 12 18  1  0
 13 12  1  0
 14 13  2  0
 15 16  1  0
 15  9  2  0
 16 11  2  0
 17 10  1  0
 18  8  1  0
 20 22  2  0
 21 20  1  0
 23 21  1  0
 24 33  2  0
 24 29  1  0
 25 21  1  0
 25 29  1  0
 26 25  1  0
 27 28  1  0
 27 26  1  0
 28 24  1  0
 29 30  2  0
 30 31  1  0
 32 31  2  0
 33 32  1  0
 34  8  1  0
 34 35  1  0
 34 44  1  0
 35 38  1  0
 36 40  1  0
 36 35  1  0
 37 36  2  0
 40 39  1  0
 42 40  1  0
 42 43  1  0
 42 41  1  0
 44 47  1  1
 44 45  1  0
 46 44  1  0
 49 52  1  0
 50 49  2  0
 50 53  1  0
 52 51  2  0
 52 48  1  0
 53 64  1  0
 53 54  2  0
 54 51  1  0
 54 55  1  0
 56 64  1  0
 57 62  1  0
 58 59  1  0
 58 57  1  0
 60 59  1  0
 60 69  1  0
 60 61  1  0
 62 56  1  0
 62 61  1  0
 63 56  2  0
 64 65  1  0
 66 67  2  0
 67 86  1  0
 68 67  1  0
 68 71  1  0
 69 70  1  0
 69 66  1  0
 70 68  2  0
 71 72  1  0
 72 73  2  0
 74 77  1  0
 74 73  1  0
 75 74  2  0
 76 75  1  0
 76 71  2  0
 77 78  1  0
 78 79  1  0
 79 80  2  0
 81 80  1  0
 81 85  1  0
 82 81  2  0
 83 78  2  0
 83 82  1  0
 84 83  1  0
 86 87  1  0
 87 90  1  0
 87 89  1  0
 88 86  2  0
 91 66  1  0
 91 92  1  0
 93 91  1  0
M  ISO  4   4 101   7 101  56 100  64 100
M  END
>  <TORSDO>  (69) 
F 18

>  <SCORE>  (69) 
-14.371

>  <name>  (69) 
68

>  <ligand_id>  (69) 
68

>  <original_smiles>  (69) 
[H]c1c([H])c([H])c2c(c1[H])C([H])([H])C([H])([H])C([H])([H])C2([H])N([H])C(=O)C1([H])N(C(=O)C([H])(N([H])C(=O)C([H])(N([H])C([H])([H])[H])C([H])([H])[H])C(C([H])([H])[H])(C([H])([H])[H])C([H])([H])[H])C([H])([H])c2c([H])c(OC3([H])C([H])([H])C([H])([H])[N+]([H])(C([H])([H])c4c([H])c([H])c(N([H])C(=O)N5C([H])([H])C([H])([H])C([H])([H])C([H])(n6nc(-c7c([H])c([H])c(Oc8c([H])c([H])c(F)c([H])c8F)c([H])c7[H])c(C(=O)N([H])[H])c6N([H])[H])C5([H])[H])c(F)c4[H])C3([H])[H])c([H])c([H])c2C1([H])[H]

>  <smiles>  (69) 
[H]c1c([H])c([H])c2c(c1[H])C([H])([H])C([H])([H])C([H])([H])C2([H])N([H])C(=O)C1([H])N(C(=O)C([H])(N([H])C(=O)C([H])(N([H])C([H])([H])[H])C([H])([H])[H])C(C([H])([H])[H])(C([H])([H])[H])C([H])([H])[H])C([H])([H])c2c([H])c(OC3([H])C([H])([H])C([H])([H])[N+]([H])(C([H])([H])c4c([H])c([H])c(N([H])C(=O)N5C([H])([H])C([H])([H])C([H])([H])C([H])(n6nc(-c7c([H])c([H])c(Oc8c([H])c([H])c(F)c([H])c8F)c([H])c7[H])c(C(=O)N([H])[H])c6N([H])[H])C5([H])[H])c(F)c4[H])C3([H])[H])c([H])c([H])c2C1([H])[H]

$$$$
69:0:0
     RDKit          3D

 98107  0  0  1  0  0  0  0  0999 V2000
  -29.5300  -19.8380   19.9710 C   0  0  0  0  0  3  0  0  0  0  0  0
  -27.1080  -19.2980   17.0490 C   0  0  0  0  0  3  0  0  0  0  0  0
  -27.9720  -19.1170   15.9580 C   0  0  0  0  0  3  0  0  0  0  0  0
  -27.6370  -19.5280   18.3300 C   0  0  0  0  0  3  0  0  0  0  0  0
  -29.3670  -19.1560   16.1460 C   0  0  0  0  0  0  0  0  0  0  0  0
  -29.9190  -19.4050   17.4330 C   0  0  0  0  0  0  0  0  0  0  0  0
  -29.0330  -19.6020   18.5390 C   0  0  0  0  0  0  0  0  0  0  0  0
  -30.2660  -18.9370   14.9380 C   0  0  0  0  0  2  0  0  0  0  0  0
  -31.4520  -19.3910   17.6120 C   0  0  0  0  0  2  0  0  0  0  0  0
  -31.6640  -18.4610   15.3380 C   0  0  0  0  0  2  0  0  0  0  0  0
  -32.2170  -19.3770   16.3460 N   0  0  0  0  0  4  0  0  0  0  0  0
  -33.1720  -19.1220   16.5420 H   0  0  0  0  0  0  0  0  0  0  0  0
  -32.2250  -20.3070   15.9640 H   0  0  0  0  0  0  0  0  0  0  0  0
  -28.9040  -21.2690   20.5770 N   0  0  0  0  0  4  0  0  0  0  0  0
  -27.9140  -21.0970   20.6210 H   0  0  0  0  0  0  0  0  0  0  0  0
  -29.2000  -21.2850   21.5390 H   0  0  0  0  0  0  0  0  0  0  0  0
  -29.0490  -22.8580   20.0610 C   0  0  0  0  0  3  0  0  0  0  0  0
  -28.0970  -24.3390   20.4750 C   0  0  0  0  0  3  0  0  0  0  0  0
  -28.2890  -25.9760   20.3020 O   0  0  0  0  0  0  0  0  0  0  0  0
  -24.6160  -31.9420   23.1890 C   0  0  0  0  0  0  0  0  0  0  0  0
  -27.2450  -27.0420   20.2750 C   0  0  0  0  0  0  0  0  0  0  0  0
  -23.4450  -30.5050   21.5690 C   0  0  0  0  0  3  0  0  0  0  0  0
  -24.9190  -28.8860   20.1910 C   0  0  0  0  0  0  0  0  0  0  0  0
  -26.0090  -30.7430   21.4290 C   0  0  0  0  0  2  0  0  0  0  0  0
  -26.1010  -29.3210   20.8040 C   0  0  0  0  0  0  0  0  0  0  0  0
  -27.2600  -28.4220   20.8170 C   0  0  0  0  0  3  0  0  0  0  0  0
  -26.0300  -26.7580   19.6140 C   0  0  0  0  0  3  0  0  0  0  0  0
  -24.9060  -27.6240   19.5780 C   0  0  0  0  0  3  0  0  0  0  0  0
  -23.6900  -29.7950   20.2090 C   0  0  0  0  0  2  0  0  0  0  0  0
  -24.7110  -31.0910   22.1160 N   0  0  0  0  0  0  0  0  0  0  0  0
  -23.5200  -32.2280   23.7000 O   0  0  0  0  0  0  0  0  0  0  0  0
  -22.7550  -29.5210   22.5480 C   0  0  0  0  0  0  0  0  0  0  0  0
  -21.4270  -29.3410   22.4190 N   0  0  0  0  0  0  0  0  0  0  0  0
  -23.4210  -28.9160   23.3920 O   0  0  0  0  0  0  0  0  0  0  0  0
  -20.9400  -29.8810   21.7160 H   0  0  0  0  0  0  0  0  0  0  0  0
  -18.0490  -28.1290   22.9520 C   0  0  0  0  0  0  0  0  0  0  0  0
  -20.6090  -28.4070   23.2010 C   0  0  0  0  0  3  0  0  0  0  0  0
  -20.7130  -26.9690   22.6420 C   0  0  0  0  0  2  0  0  0  0  0  0
  -19.6080  -26.6320   21.6350 C   0  0  0  0  0  2  0  0  0  0  0  0
  -18.2290  -26.7770   22.2840 C   0  0  0  0  0  2  0  0  0  0  0  0
  -19.1670  -28.9020   23.3700 C   0  0  0  0  0  0  0  0  0  0  0  0
  -18.9440  -30.1660   23.9570 C   0  0  0  0  0  3  0  0  0  0  0  0
  -17.6360  -30.6580   24.1320 C   0  0  0  0  0  3  0  0  0  0  0  0
  -16.5340  -29.8840   23.7290 C   0  0  0  0  0  3  0  0  0  0  0  0
  -16.7420  -28.6210   23.1460 C   0  0  0  0  0  3  0  0  0  0  0  0
  -25.8770  -32.6090   23.8180 C   0  0  0  0  0  3  0  0  0  0  0  0
  -25.5330  -34.0030   24.1540 N   0  0  0  0  0  0  0  0  0  0  0  0
  -25.8430  -35.0710   23.4070 C   0  0  0  0  0  0  0  0  0  0  0  0
  -26.5110  -34.9890   22.3730 O   0  0  0  0  0  0  0  0  0  0  0  0
  -24.9400  -34.1410   24.9580 H   0  0  0  0  0  0  0  0  0  0  0  0
  -24.0860  -36.8450   23.0750 C   0  0  0  0  0  1  0  0  0  0  0  0
  -25.3340  -36.4490   23.8790 C   0  0  0  0  0  3  0  0  0  0  0  0
  -27.4530  -37.3660   24.7150 C   0  0  0  0  0  1  0  0  0  0  0  0
  -26.3480  -37.5210   23.7740 N   0  0  0  0  0  0  0  0  0  0  0  0
  -25.9250  -38.4330   23.9300 H   0  0  0  0  0  0  0  0  0  0  0  0
  -26.3990  -31.8540   25.1020 C   0  0  1  0  0  0  0  0  0  0  0  0
  -25.3000  -31.5770   26.1550 C   0  0  0  0  0  1  0  0  0  0  0  0
  -27.0340  -30.4960   24.7240 C   0  0  0  0  0  1  0  0  0  0  0  0
  -27.5150  -32.6850   25.7800 C   0  0  0  0  0  1  0  0  0  0  0  0
  -29.7270  -18.2390   20.7760 C   0  0  0  0  0  2  0  0  0  0  0  0
  -30.4510  -15.3910   20.2100 C   0  0  0  0  0  0  0  0  0  0  0  0
  -30.4220  -12.9870   19.2250 C   0  0  0  0  0  2  0  0  0  0  0  0
  -29.4660  -12.8030   18.0190 C   0  0  0  0  0  2  0  0  0  0  0  0
  -28.0300  -12.5110   18.4930 C   0  0  0  0  0  2  0  0  0  0  0  0
  -27.6030  -13.4330   19.6630 C   0  0  0  0  0  3  0  0  0  0  0  0
  -28.6860  -13.5550   20.7550 C   0  0  0  0  0  2  0  0  0  0  0  0
  -29.8860  -14.0930   20.0930 N   0  0  0  0  0  0  0  0  0  0  0  0
  -31.6780  -15.4090   20.0470 O   0  0  0  0  0  0  0  0  0  0  0  0
  -29.6560  -16.6390   20.2870 N   0  0  0  0  0  0  0  0  0  0  0  0
  -28.6860  -16.3890   20.1710 H   0  0  0  0  0  0  0  0  0  0  0  0
  -25.2420  -13.9470   20.4800 C   0  0  0  0  0  0  0  0  0  0  0  0
  -24.2010  -13.1490   20.8620 C   0  0  0  0  0  0  0  0  0  0  0  0
  -24.6880  -11.8070   20.8020 C   0  0  0  0  0  0  0  0  0  0  0  0
  -26.2930  -13.0910   20.2010 N   0  0  0  0  0  0  0  0  0  0  0  0
  -25.9740  -11.7960   20.4640 N   0  0  0  0  0  0  0  0  0  0  0  0
  -23.9830  -10.5310   20.9850 C   0  0  0  0  0  0  0  0  0  0  0  0
  -24.4060   -9.5840   21.9440 C   0  0  0  0  0  3  0  0  0  0  0  0
  -23.6980   -8.3740   22.1160 C   0  0  0  0  0  3  0  0  0  0  0  0
  -22.5540   -8.1030   21.3290 C   0  0  0  0  0  0  0  0  0  0  0  0
  -22.1530   -9.0380   20.3590 C   0  0  0  0  0  3  0  0  0  0  0  0
  -22.8610  -10.2380   20.1840 C   0  0  0  0  0  3  0  0  0  0  0  0
  -21.8180   -6.9460   21.4100 O   0  0  0  0  0  0  0  0  0  0  0  0
  -21.7020   -6.2490   22.5860 C   0  0  0  0  0  0  0  0  0  0  0  0
  -21.1650   -6.8370   23.7520 C   0  0  0  0  0  3  0  0  0  0  0  0
  -20.9970   -6.0640   24.9180 C   0  0  0  0  0  3  0  0  0  0  0  0
  -21.3570   -4.7020   24.9180 C   0  0  0  0  0  0  0  0  0  0  0  0
  -21.8850   -4.1130   23.7570 C   0  0  0  0  0  3  0  0  0  0  0  0
  -22.0540   -4.8850   22.5940 C   0  0  0  0  0  0  0  0  0  0  0  0
  -22.5430   -4.3050   21.4710 F   0  0  0  0  0  0  0  0  0  0  0  0
  -21.1900   -3.9580   26.0360 F   0  0  0  0  0  0  0  0  0  0  0  0
  -22.8000  -13.6020   21.1580 C   0  0  0  0  0  0  0  0  0  0  0  0
  -22.0940  -12.8790   22.0200 N   0  0  0  0  0  0  0  0  0  0  0  0
  -22.3410  -14.6280   20.6600 O   0  0  0  0  0  0  0  0  0  0  0  0
  -22.4780  -12.0470   22.4440 H   0  0  0  0  0  0  0  0  0  0  0  0
  -21.1540  -13.1580   22.2610 H   0  0  0  0  0  0  0  0  0  0  0  0
  -25.3740  -15.3230   20.3160 N   0  0  0  0  0  0  0  0  0  0  0  0
  -24.5890  -15.9500   20.4520 H   0  0  0  0  0  0  0  0  0  0  0  0
  -26.1790  -15.7830   19.9130 H   0  0  0  0  0  0  0  0  0  0  0  0
  1 14  1  0
  1 60  1  0
  2  4  1  0
  3  5  1  0
  3  2  2  0
  4  7  2  0
  5  6  2  0
  6  9  1  0
  6  7  1  0
  7  1  1  0
  8 10  1  0
  8  5  1  0
 10 11  1  0
 11 12  1  0
 11  9  1  0
 13 11  1  0
 14 15  1  0
 14 16  1  0
 17 18  2  0
 17 14  1  0
 19 18  1  0
 20 31  2  0
 21 19  1  0
 21 26  1  0
 22 30  1  0
 22 32  1  0
 23 29  1  0
 23 25  1  0
 24 30  1  0
 25 26  2  0
 25 24  1  0
 27 21  2  0
 28 27  1  0
 28 23  2  0
 29 22  1  0
 30 20  1  0
 32 34  2  0
 33 32  1  0
 35 33  1  0
 36 45  2  0
 36 41  1  0
 37 33  1  0
 37 41  1  0
 38 37  1  0
 39 40  1  0
 39 38  1  0
 40 36  1  0
 41 42  2  0
 42 43  1  0
 44 43  2  0
 45 44  1  0
 46 20  1  0
 46 47  1  0
 46 56  1  0
 47 50  1  0
 48 52  1  0
 48 47  1  0
 49 48  2  0
 52 51  1  0
 54 52  1  0
 54 55  1  0
 54 53  1  0
 56 59  1  1
 56 57  1  0
 58 56  1  0
 61 69  1  0
 62 67  1  0
 63 64  1  0
 63 62  1  0
 65 64  1  0
 65 74  1  0
 65 66  1  0
 67 61  1  0
 67 66  1  0
 68 61  2  0
 69 60  1  0
 70 69  1  0
 71 72  2  0
 72 91  1  0
 73 72  1  0
 73 76  1  0
 74 75  1  0
 74 71  1  0
 75 73  2  0
 76 77  1  0
 77 78  2  0
 79 82  1  0
 79 78  1  0
 80 79  2  0
 81 80  1  0
 81 76  2  0
 82 83  1  0
 83 88  2  0
 83 84  1  0
 84 85  2  0
 86 85  1  0
 86 90  1  0
 87 86  2  0
 88 87  1  0
 89 88  1  0
 91 92  1  0
 92 95  1  0
 92 94  1  0
 93 91  2  0
 96 97  1  0
 96 71  1  0
 98 96  1  0
M  ISO  4  18 101  19 101  61 100  69 100
M  END
>  <TORSDO>  (70) 
F 21

>  <SCORE>  (70) 
-16.802

>  <name>  (70) 
69

>  <ligand_id>  (70) 
69

>  <original_smiles>  (70) 
[H]c1c([H])c([H])c2c(c1[H])C([H])([H])C([H])([H])C([H])([H])C2([H])N([H])C(=O)C1([H])N(C(=O)C([H])(N([H])C(=O)C([H])(N([H])C([H])([H])[H])C([H])([H])[H])C(C([H])([H])[H])(C([H])([H])[H])C([H])([H])[H])C([H])([H])c2c([H])c(OC([H])([H])C([H])([H])[N+]([H])([H])C([H])(c3c([H])c([H])c([H])c4c3C([H])([H])[N+]([H])([H])C([H])([H])C4([H])[H])C([H])([H])N([H])C(=O)N3C([H])([H])C([H])([H])C([H])([H])C([H])(n4nc(-c5c([H])c([H])c(Oc6c([H])c([H])c(F)c([H])c6F)c([H])c5[H])c(C(=O)N([H])[H])c4N([H])[H])C3([H])[H])c([H])c([H])c2C1([H])[H]

>  <smiles>  (70) 
[H]c1c([H])c([H])c2c(c1[H])C([H])([H])C([H])([H])C([H])([H])C2([H])N([H])C(=O)C1([H])N(C(=O)C([H])(N([H])C(=O)C([H])(N([H])C([H])([H])[H])C([H])([H])[H])C(C([H])([H])[H])(C([H])([H])[H])C([H])([H])[H])C([H])([H])c2c([H])c(OC([H])([H])C([H])([H])[N+]([H])([H])C([H])(c3c([H])c([H])c([H])c4c3C([H])([H])[N+]([H])([H])C([H])([H])C4([H])[H])C([H])([H])N([H])C(=O)N3C([H])([H])C([H])([H])C([H])([H])C([H])(n4nc(-c5c([H])c([H])c(Oc6c([H])c([H])c(F)c([H])c6F)c([H])c5[H])c(C(=O)N([H])[H])c4N([H])[H])C3([H])[H])c([H])c([H])c2C1([H])[H]

$$$$
70:0:0
     RDKit          3D

 95104  0  0  1  0  0  0  0  0999 V2000
  -31.3800  -19.3760   19.0820 C   0  0  0  0  0  3  0  0  0  0  0  0
  -31.3350  -17.9570   19.1890 C   0  0  0  0  0  3  0  0  0  0  0  0
  -31.0870  -19.5990   21.4710 C   0  0  0  0  0  0  0  0  0  0  0  0
  -31.0000  -18.1630   21.5750 C   0  0  0  0  0  0  0  0  0  0  0  0
  -31.2800  -20.2380   20.2070 C   0  0  0  0  0  0  0  0  0  0  0  0
  -31.1650  -17.3120   20.4390 C   0  0  0  0  0  0  0  0  0  0  0  0
  -30.9900  -20.4680   22.7280 C   0  0  0  0  0  2  0  0  0  0  0  0
  -30.7750  -17.4910   22.9350 C   0  0  0  0  0  2  0  0  0  0  0  0
  -31.2160  -19.7060   24.0350 C   0  0  0  0  0  2  0  0  0  0  0  0
  -30.3650  -18.4410   24.0630 C   0  0  0  0  0  2  0  0  0  0  0  0
  -31.8340  -14.8130   20.1600 C   0  0  0  0  0  0  0  0  0  0  0  0
  -31.5600  -12.5470   19.1790 C   0  0  0  0  0  2  0  0  0  0  0  0
  -30.5990  -12.6620   17.9750 C   0  0  0  0  0  2  0  0  0  0  0  0
  -29.1290  -12.5590   18.4290 C   0  0  0  0  0  2  0  0  0  0  0  0
  -28.8130  -13.4730   19.6440 C   0  0  0  0  0  3  0  0  0  0  0  0
  -29.8830  -13.3120   20.7480 C   0  0  0  0  0  2  0  0  0  0  0  0
  -31.1960  -13.6000   20.1460 N   0  0  0  0  0  0  0  0  0  0  0  0
  -32.9690  -14.9520   19.6960 O   0  0  0  0  0  0  0  0  0  0  0  0
  -31.0820  -15.8620   20.6100 N   0  0  0  0  0  0  0  0  0  0  0  0
  -30.2550  -15.5520   21.0940 H   0  0  0  0  0  0  0  0  0  0  0  0
  -26.4740  -14.1720   20.4480 C   0  0  0  0  0  0  0  0  0  0  0  0
  -25.3770  -13.4430   20.8210 C   0  0  0  0  0  0  0  0  0  0  0  0
  -25.7650  -12.0720   20.7270 C   0  0  0  0  0  0  0  0  0  0  0  0
  -27.4630  -13.2470   20.1530 N   0  0  0  0  0  0  0  0  0  0  0  0
  -27.0430  -11.9760   20.3810 N   0  0  0  0  0  0  0  0  0  0  0  0
  -24.9770  -10.8430   20.8950 C   0  0  0  0  0  0  0  0  0  0  0  0
  -25.2950   -9.8910   21.8880 C   0  0  0  0  0  3  0  0  0  0  0  0
  -24.5120   -8.7260   22.0410 C   0  0  0  0  0  3  0  0  0  0  0  0
  -23.3970   -8.5050   21.1980 C   0  0  0  0  0  0  0  0  0  0  0  0
  -23.1000   -9.4440   20.1950 C   0  0  0  0  0  3  0  0  0  0  0  0
  -23.8830  -10.6000   20.0410 C   0  0  0  0  0  3  0  0  0  0  0  0
  -22.5960   -7.3910   21.2560 O   0  0  0  0  0  0  0  0  0  0  0  0
  -22.2760   -6.7960   22.4490 C   0  0  0  0  0  0  0  0  0  0  0  0
  -21.6150   -7.4980   23.4800 C   0  0  0  0  0  3  0  0  0  0  0  0
  -21.2440   -6.8280   24.6630 C   0  0  0  0  0  3  0  0  0  0  0  0
  -21.5250   -5.4580   24.8150 C   0  0  0  0  0  0  0  0  0  0  0  0
  -22.1780   -4.7550   23.7870 C   0  0  0  0  0  3  0  0  0  0  0  0
  -22.5500   -5.4210   22.6070 C   0  0  0  0  0  0  0  0  0  0  0  0
  -23.1610   -4.7350   21.6110 F   0  0  0  0  0  0  0  0  0  0  0  0
  -21.1610   -4.8120   25.9480 F   0  0  0  0  0  0  0  0  0  0  0  0
  -24.0150  -13.9830   21.1520 C   0  0  0  0  0  0  0  0  0  0  0  0
  -23.2800  -13.3000   22.0210 N   0  0  0  0  0  0  0  0  0  0  0  0
  -23.6140  -15.0440   20.6740 O   0  0  0  0  0  0  0  0  0  0  0  0
  -23.6170  -12.4410   22.4300 H   0  0  0  0  0  0  0  0  0  0  0  0
  -22.3670  -13.6420   22.2850 H   0  0  0  0  0  0  0  0  0  0  0  0
  -26.7070  -15.5380   20.3120 N   0  0  0  0  0  0  0  0  0  0  0  0
  -25.9730  -16.2240   20.4520 H   0  0  0  0  0  0  0  0  0  0  0  0
  -27.5570  -15.9400   19.9410 H   0  0  0  0  0  0  0  0  0  0  0  0
  -31.5690  -21.7820   20.0350 C   0  0  0  0  0  2  0  0  0  0  0  0
  -30.4460  -22.7910   19.9610 N   0  0  0  0  0  4  0  0  0  0  0  0
  -29.7600  -22.5440   20.6550 H   0  0  0  0  0  0  0  0  0  0  0  0
  -30.0070  -22.6820   19.0610 H   0  0  0  0  0  0  0  0  0  0  0  0
  -30.8420  -24.2540   20.1570 C   0  0  0  0  0  3  0  0  0  0  0  0
  -29.6990  -25.3400   19.9700 C   0  0  0  0  0  3  0  0  0  0  0  0
  -29.9410  -26.7280   20.4310 O   0  0  0  0  0  0  0  0  0  0  0  0
  -26.1750  -31.4190   24.4040 C   0  0  0  0  0  0  0  0  0  0  0  0
  -28.8420  -27.5960   20.5130 C   0  0  0  0  0  0  0  0  0  0  0  0
  -25.0290  -30.4770   22.4310 C   0  0  0  0  0  3  0  0  0  0  0  0
  -26.5180  -29.2450   20.7610 C   0  0  0  0  0  0  0  0  0  0  0  0
  -27.5810  -30.7400   22.4500 C   0  0  0  0  0  2  0  0  0  0  0  0
  -27.6640  -29.5460   21.5080 C   0  0  0  0  0  0  0  0  0  0  0  0
  -28.8300  -28.7350   21.3780 C   0  0  0  0  0  3  0  0  0  0  0  0
  -27.6730  -27.3560   19.7520 C   0  0  0  0  0  3  0  0  0  0  0  0
  -26.5260  -28.1580   19.8760 C   0  0  0  0  0  3  0  0  0  0  0  0
  -25.3020  -30.1270   20.9460 C   0  0  0  0  0  2  0  0  0  0  0  0
  -26.2770  -30.8800   23.1550 N   0  0  0  0  0  0  0  0  0  0  0  0
  -25.0710  -31.6090   24.9360 O   0  0  0  0  0  0  0  0  0  0  0  0
  -24.2900  -29.2940   23.0990 C   0  0  0  0  0  0  0  0  0  0  0  0
  -22.9980  -29.1270   22.7730 N   0  0  0  0  0  0  0  0  0  0  0  0
  -24.8850  -28.5350   23.8710 O   0  0  0  0  0  0  0  0  0  0  0  0
  -22.5800  -29.7930   22.1400 H   0  0  0  0  0  0  0  0  0  0  0  0
  -19.6540  -27.7700   22.5350 C   0  0  0  0  0  0  0  0  0  0  0  0
  -22.1210  -28.0560   23.2510 C   0  0  0  0  0  3  0  0  0  0  0  0
  -22.3880  -26.7370   22.4890 C   0  0  0  0  0  2  0  0  0  0  0  0
  -21.4750  -26.5470   21.2740 C   0  0  0  0  0  2  0  0  0  0  0  0
  -20.0050  -26.5490   21.7020 C   0  0  0  0  0  2  0  0  0  0  0  0
  -20.6500  -28.4870   23.2510 C   0  0  0  0  0  0  0  0  0  0  0  0
  -20.2750  -29.6340   23.9830 C   0  0  0  0  0  3  0  0  0  0  0  0
  -18.9360  -30.0650   24.0100 C   0  0  0  0  0  3  0  0  0  0  0  0
  -17.9510  -29.3430   23.3120 C   0  0  0  0  0  3  0  0  0  0  0  0
  -18.3100  -28.1970   22.5810 C   0  0  0  0  0  3  0  0  0  0  0  0
  -27.4380  -31.8460   25.2150 C   0  0  0  0  0  3  0  0  0  0  0  0
  -27.7630  -30.8720   26.4140 C   0  0  1  0  0  0  0  0  0  0  0  0
  -26.5550  -30.6060   27.3420 C   0  0  0  0  0  1  0  0  0  0  0  0
  -28.2660  -29.5060   25.8900 C   0  0  0  0  0  1  0  0  0  0  0  0
  -28.9040  -31.4630   27.2750 C   0  0  0  0  0  1  0  0  0  0  0  0
  -27.2100  -33.2120   25.7050 N   0  0  0  0  0  0  0  0  0  0  0  0
  -27.6990  -34.3190   25.1310 C   0  0  0  0  0  0  0  0  0  0  0  0
  -28.4570  -34.2890   24.1560 O   0  0  0  0  0  0  0  0  0  0  0  0
  -26.5540  -33.3160   26.4640 H   0  0  0  0  0  0  0  0  0  0  0  0
  -26.1670  -36.2990   24.8720 C   0  0  0  0  0  1  0  0  0  0  0  0
  -27.2810  -35.6750   25.7300 C   0  0  0  0  0  3  0  0  0  0  0  0
  -29.3790  -36.2420   26.8730 C   0  0  0  0  0  1  0  0  0  0  0  0
  -28.4010  -36.6320   25.8600 N   0  0  0  0  0  0  0  0  0  0  0  0
  -28.0570  -37.5600   26.0930 H   0  0  0  0  0  0  0  0  0  0  0  0
  1  2  2  0
  1  5  1  0
  2  6  1  0
  3  4  1  0
  3  7  1  0
  4  8  1  0
  5  3  2  0
  6 19  1  0
  6  4  2  0
  7  9  1  0
  8 10  1  0
  9 10  1  0
 11 19  1  0
 12 17  1  0
 13 14  1  0
 13 12  1  0
 15 14  1  0
 15 24  1  0
 15 16  1  0
 17 11  1  0
 17 16  1  0
 18 11  2  0
 19 20  1  0
 21 22  2  0
 22 41  1  0
 23 22  1  0
 23 26  1  0
 24 25  1  0
 24 21  1  0
 25 23  2  0
 26 27  1  0
 27 28  2  0
 29 32  1  0
 29 28  1  0
 30 29  2  0
 31 30  1  0
 31 26  2  0
 32 33  1  0
 33 38  2  0
 33 34  1  0
 34 35  2  0
 35 36  1  0
 36 40  1  0
 37 36  2  0
 38 37  1  0
 39 38  1  0
 41 42  1  0
 42 45  1  0
 42 44  1  0
 43 41  2  0
 46 21  1  0
 46 47  1  0
 48 46  1  0
 49  5  1  0
 50 49  1  0
 50 53  1  0
 50 51  1  0
 52 50  1  0
 54 53  2  0
 54 55  1  0
 55 57  1  0
 56 67  2  0
 57 62  1  0
 58 68  1  0
 58 66  1  0
 59 65  1  0
 59 61  1  0
 60 66  1  0
 61 60  1  0
 62 61  2  0
 63 64  1  0
 63 57  2  0
 64 59  2  0
 65 58  1  0
 66 56  1  0
 68 70  2  0
 69 68  1  0
 71 69  1  0
 72 81  2  0
 72 77  1  0
 73 69  1  0
 73 77  1  0
 74 73  1  0
 75 76  1  0
 75 74  1  0
 76 72  1  0
 77 78  2  0
 78 79  1  0
 80 79  2  0
 81 80  1  0
 82 56  1  0
 82 87  1  0
 82 83  1  0
 83 86  1  1
 83 84  1  0
 85 83  1  0
 87 90  1  0
 88 87  1  0
 88 92  1  0
 89 88  2  0
 92 91  1  0
 92 94  1  0
 94 95  1  0
 94 93  1  0
M  ISO  4  11 100  19 100  54 101  55 101
M  END
>  <TORSDO>  (71) 
F 20

>  <SCORE>  (71) 
-8.939

>  <name>  (71) 
70

>  <ligand_id>  (71) 
70

>  <original_smiles>  (71) 
[H]c1c([H])c([H])c2c(c1[H])C([H])([H])C([H])([H])C([H])([H])C2([H])N([H])C(=O)C1([H])N(C(=O)C([H])(N([H])C(=O)C([H])(N([H])C([H])([H])[H])C([H])([H])[H])C(C([H])([H])[H])(C([H])([H])[H])C([H])([H])[H])C([H])([H])c2c([H])c(OC([H])([H])C([H])([H])[N+]([H])([H])C([H])([H])c3c([H])c([H])c(N([H])C(=O)N4C([H])([H])C([H])([H])C([H])([H])C([H])(n5nc(-c6c([H])c([H])c(Oc7c([H])c([H])c(F)c([H])c7F)c([H])c6[H])c(C(=O)N([H])[H])c5N([H])[H])C4([H])[H])c4c3C([H])([H])C([H])([H])C([H])([H])C4([H])[H])c([H])c([H])c2C1([H])[H]

>  <smiles>  (71) 
[H]c1c([H])c([H])c2c(c1[H])C([H])([H])C([H])([H])C([H])([H])C2([H])N([H])C(=O)C1([H])N(C(=O)C([H])(N([H])C(=O)C([H])(N([H])C([H])([H])[H])C([H])([H])[H])C(C([H])([H])[H])(C([H])([H])[H])C([H])([H])[H])C([H])([H])c2c([H])c(OC([H])([H])C([H])([H])[N+]([H])([H])C([H])([H])c3c([H])c([H])c(N([H])C(=O)N4C([H])([H])C([H])([H])C([H])([H])C([H])(n5nc(-c6c([H])c([H])c(Oc7c([H])c([H])c(F)c([H])c7F)c([H])c6[H])c(C(=O)N([H])[H])c5N([H])[H])C4([H])[H])c4c3C([H])([H])C([H])([H])C([H])([H])C4([H])[H])c([H])c([H])c2C1([H])[H]

$$$$
71:0:0
     RDKit          3D

 89 97  0  0  1  0  0  0  0  0999 V2000
  -30.2880  -20.5730   19.6450 C   0  0  0  0  0  3  0  0  0  0  0  0
  -30.4880  -19.0980   19.7280 C   0  0  0  0  0  3  0  0  0  0  0  0
  -28.0470  -20.3390   20.0420 C   0  0  0  0  0  3  0  0  0  0  0  0
  -29.0570  -21.3550   19.7860 C   0  0  0  0  0  0  0  0  0  0  0  0
  -28.2320  -18.8590   20.1290 C   0  0  0  0  0  0  0  0  0  0  0  0
  -29.4740  -18.0840   19.9790 C   0  0  0  0  0  0  0  0  0  0  0  0
  -26.9710  -18.0650   20.4130 C   0  0  0  0  0  1  0  0  0  0  0  0
  -30.3820  -15.2670   19.8090 C   0  0  0  0  0  0  0  0  0  0  0  0
  -30.3460  -12.8200   18.9430 C   0  0  0  0  0  2  0  0  0  0  0  0
  -29.3430  -12.6230   17.7770 C   0  0  0  0  0  2  0  0  0  0  0  0
  -27.9260  -12.3480   18.3110 C   0  0  0  0  0  2  0  0  0  0  0  0
  -27.5490  -13.3030   19.4700 C   0  0  0  0  0  3  0  0  0  0  0  0
  -28.6700  -13.4360   20.5240 C   0  0  0  0  0  2  0  0  0  0  0  0
  -29.8580  -13.9450   19.8190 N   0  0  0  0  0  0  0  0  0  0  0  0
  -31.5680  -15.3240   19.4530 O   0  0  0  0  0  0  0  0  0  0  0  0
  -29.5460  -16.4640   20.0460 N   0  0  0  0  0  0  0  0  0  0  0  0
  -28.6570  -16.1100   20.3620 H   0  0  0  0  0  0  0  0  0  0  0  0
  -25.2450  -13.8540   20.4140 C   0  0  0  0  0  0  0  0  0  0  0  0
  -24.2080  -13.0750   20.8420 C   0  0  0  0  0  0  0  0  0  0  0  0
  -24.6560  -11.7230   20.7270 C   0  0  0  0  0  0  0  0  0  0  0  0
  -26.2590  -12.9810   20.0630 N   0  0  0  0  0  0  0  0  0  0  0  0
  -25.9200  -11.6900   20.3160 N   0  0  0  0  0  0  0  0  0  0  0  0
  -23.9310  -10.4620   20.9250 C   0  0  0  0  0  0  0  0  0  0  0  0
  -24.3780   -9.4880   21.8460 C   0  0  0  0  0  3  0  0  0  0  0  0
  -23.6500   -8.2940   22.0350 C   0  0  0  0  0  3  0  0  0  0  0  0
  -22.4610   -8.0640   21.3030 C   0  0  0  0  0  0  0  0  0  0  0  0
  -22.0320   -9.0260   20.3710 C   0  0  0  0  0  3  0  0  0  0  0  0
  -22.7610  -10.2120   20.1800 C   0  0  0  0  0  3  0  0  0  0  0  0
  -21.7030   -6.9220   21.4010 O   0  0  0  0  0  0  0  0  0  0  0  0
  -21.6160   -6.2160   22.5740 C   0  0  0  0  0  0  0  0  0  0  0  0
  -21.1400   -6.8050   23.7650 C   0  0  0  0  0  3  0  0  0  0  0  0
  -21.0010   -6.0240   24.9300 C   0  0  0  0  0  3  0  0  0  0  0  0
  -21.3280   -4.6560   24.9040 C   0  0  0  0  0  0  0  0  0  0  0  0
  -21.7970   -4.0650   23.7180 C   0  0  0  0  0  3  0  0  0  0  0  0
  -21.9380   -4.8430   22.5550 C   0  0  0  0  0  0  0  0  0  0  0  0
  -22.3700   -4.2650   21.4090 F   0  0  0  0  0  0  0  0  0  0  0  0
  -21.1870   -3.9040   26.0220 F   0  0  0  0  0  0  0  0  0  0  0  0
  -22.8410  -13.5550   21.2310 C   0  0  0  0  0  0  0  0  0  0  0  0
  -22.1780  -12.8470   22.1390 N   0  0  0  0  0  0  0  0  0  0  0  0
  -22.3730  -14.5940   20.7660 O   0  0  0  0  0  0  0  0  0  0  0  0
  -22.5710  -12.0070   22.5350 H   0  0  0  0  0  0  0  0  0  0  0  0
  -21.2640  -13.1520   22.4430 H   0  0  0  0  0  0  0  0  0  0  0  0
  -25.4010  -15.2270   20.2610 N   0  0  0  0  0  0  0  0  0  0  0  0
  -24.6200  -15.8590   20.3980 H   0  0  0  0  0  0  0  0  0  0  0  0
  -26.1670  -15.6490   19.7540 H   0  0  0  0  0  0  0  0  0  0  0  0
  -28.9880  -23.1100   19.7900 C   0  0  0  0  0  2  0  0  0  0  0  0
  -27.8290  -24.2400   19.6530 N   0  0  0  0  0  0  0  0  0  0  0  0
  -27.1700  -24.0980   20.4140 H   0  0  0  0  0  0  0  0  0  0  0  0
  -28.1860  -25.8950   19.6880 O   0  0  0  0  0  0  0  0  0  0  0  0
  -24.5860  -31.6480   23.0050 C   0  0  0  0  0  0  0  0  0  0  0  0
  -27.1340  -26.9460   19.7390 C   0  0  0  0  0  0  0  0  0  0  0  0
  -23.3750  -30.3160   21.3250 C   0  0  0  0  0  3  0  0  0  0  0  0
  -24.8130  -28.7880   19.8120 C   0  0  0  0  0  0  0  0  0  0  0  0
  -25.9340  -30.5600   21.1460 C   0  0  0  0  0  2  0  0  0  0  0  0
  -26.0030  -29.1800   20.4350 C   0  0  0  0  0  0  0  0  0  0  0  0
  -27.1550  -28.2770   20.3810 C   0  0  0  0  0  3  0  0  0  0  0  0
  -25.9140  -26.7030   19.0710 C   0  0  0  0  0  3  0  0  0  0  0  0
  -24.7890  -27.5680   19.1120 C   0  0  0  0  0  3  0  0  0  0  0  0
  -23.5870  -29.6940   19.9160 C   0  0  0  0  0  2  0  0  0  0  0  0
  -24.6530  -30.8670   21.8790 N   0  0  0  0  0  0  0  0  0  0  0  0
  -23.5030  -31.9060   23.5570 O   0  0  0  0  0  0  0  0  0  0  0  0
  -22.7060  -29.2730   22.2570 C   0  0  0  0  0  0  0  0  0  0  0  0
  -21.3730  -29.1160   22.1610 N   0  0  0  0  0  0  0  0  0  0  0  0
  -23.3930  -28.6060   23.0350 O   0  0  0  0  0  0  0  0  0  0  0  0
  -20.8720  -29.7050   21.5110 H   0  0  0  0  0  0  0  0  0  0  0  0
  -17.9960  -27.9230   22.7410 C   0  0  0  0  0  0  0  0  0  0  0  0
  -20.5700  -28.1410   22.9070 C   0  0  0  0  0  3  0  0  0  0  0  0
  -20.6240  -26.7480   22.2370 C   0  0  0  0  0  2  0  0  0  0  0  0
  -19.4740  -26.5050   21.2540 C   0  0  0  0  0  2  0  0  0  0  0  0
  -18.1240  -26.6210   21.9680 C   0  0  0  0  0  2  0  0  0  0  0  0
  -19.1440  -28.6440   23.1680 C   0  0  0  0  0  0  0  0  0  0  0  0
  -18.9670  -29.8630   23.8570 C   0  0  0  0  0  3  0  0  0  0  0  0
  -17.6770  -30.3620   24.1200 C   0  0  0  0  0  3  0  0  0  0  0  0
  -16.5450  -29.6380   23.7050 C   0  0  0  0  0  3  0  0  0  0  0  0
  -16.7070  -28.4190   23.0220 C   0  0  0  0  0  3  0  0  0  0  0  0
  -25.8630  -32.2720   23.6440 C   0  0  0  0  0  3  0  0  0  0  0  0
  -25.5410  -33.6540   24.0440 N   0  0  0  0  0  0  0  0  0  0  0  0
  -25.8380  -34.7490   23.3330 C   0  0  0  0  0  0  0  0  0  0  0  0
  -26.4740  -34.7050   22.2780 O   0  0  0  0  0  0  0  0  0  0  0  0
  -24.9700  -33.7610   24.8700 H   0  0  0  0  0  0  0  0  0  0  0  0
  -24.0730  -36.5360   23.1430 C   0  0  0  0  0  1  0  0  0  0  0  0
  -25.3550  -36.1100   23.8760 C   0  0  0  0  0  3  0  0  0  0  0  0
  -27.5090  -36.9970   24.6560 C   0  0  0  0  0  1  0  0  0  0  0  0
  -26.3690  -37.1830   23.7630 N   0  0  0  0  0  0  0  0  0  0  0  0
  -25.9560  -38.0910   23.9600 H   0  0  0  0  0  0  0  0  0  0  0  0
  -26.3950  -31.4580   24.8870 C   0  0  1  0  0  0  0  0  0  0  0  0
  -25.3140  -31.1780   25.9580 C   0  0  0  0  0  1  0  0  0  0  0  0
  -26.9790  -30.0950   24.4470 C   0  0  0  0  0  1  0  0  0  0  0  0
  -27.5510  -32.2310   25.5660 C   0  0  0  0  0  1  0  0  0  0  0  0
  1  2  2  0
  1  4  1  0
  2  6  1  0
  3  5  1  0
  4 46  1  0
  4  3  2  0
  5  7  1  0
  6 16  1  0
  6  5  2  0
  8 14  1  0
  8 16  1  0
  9 14  1  0
 10 11  1  0
 10  9  1  0
 12 11  1  0
 12 21  1  0
 12 13  1  0
 14 13  1  0
 15  8  2  0
 16 17  1  0
 18 19  2  0
 19 38  1  0
 20 19  1  0
 20 23  1  0
 21 22  1  0
 21 18  1  0
 22 20  2  0
 23 24  1  0
 24 25  2  0
 26 29  1  0
 26 25  1  0
 27 26  2  0
 28 27  1  0
 28 23  2  0
 29 30  1  0
 30 31  1  0
 31 32  2  0
 33 32  1  0
 33 37  1  0
 34 33  2  0
 35 30  2  0
 35 34  1  0
 36 35  1  0
 38 39  1  0
 39 42  1  0
 39 41  1  0
 40 38  2  0
 43 44  1  0
 43 18  1  0
 45 43  1  0
 47 49  1  0
 47 46  1  0
 47 48  1  0
 49 51  1  0
 50 61  2  0
 51 56  1  0
 52 60  1  0
 52 62  1  0
 53 59  1  0
 53 55  1  0
 54 60  1  0
 55 54  1  0
 56 55  2  0
 57 58  1  0
 57 51  2  0
 58 53  2  0
 59 52  1  0
 60 50  1  0
 62 64  2  0
 63 62  1  0
 65 63  1  0
 66 75  2  0
 66 71  1  0
 67 63  1  0
 67 71  1  0
 68 67  1  0
 69 70  1  0
 69 68  1  0
 70 66  1  0
 71 72  2  0
 72 73  1  0
 74 73  2  0
 75 74  1  0
 76 50  1  0
 76 77  1  0
 76 86  1  0
 77 80  1  0
 78 82  1  0
 78 77  1  0
 79 78  2  0
 82 81  1  0
 84 82  1  0
 84 85  1  0
 84 83  1  0
 86 89  1  1
 86 87  1  0
 88 86  1  0
M  ISO  4   8 100  16 100  47 101  49 101
M  END
>  <TORSDO>  (72) 
F 18

>  <SCORE>  (72) 
-15.484

>  <name>  (72) 
71

>  <ligand_id>  (72) 
71

>  <original_smiles>  (72) 
[H]c1c([H])c([H])c2c(c1[H])C([H])([H])C([H])([H])C([H])([H])C2([H])N([H])C(=O)C1([H])N(C(=O)C([H])(N([H])C(=O)C([H])(N([H])C([H])([H])[H])C([H])([H])[H])C(C([H])([H])[H])(C([H])([H])[H])C([H])([H])[H])C([H])([H])c2c([H])c(ON([H])C([H])([H])c3c([H])c([H])c(N([H])C(=O)N4C([H])([H])C([H])([H])C([H])([H])C([H])(n5nc(-c6c([H])c([H])c(Oc7c([H])c([H])c(F)c([H])c7F)c([H])c6[H])c(C(=O)N([H])[H])c5N([H])[H])C4([H])[H])c(C([H])([H])[H])c3[H])c([H])c([H])c2C1([H])[H]

>  <smiles>  (72) 
[H]c1c([H])c([H])c2c(c1[H])C([H])([H])C([H])([H])C([H])([H])C2([H])N([H])C(=O)C1([H])N(C(=O)C([H])(N([H])C(=O)C([H])(N([H])C([H])([H])[H])C([H])([H])[H])C(C([H])([H])[H])(C([H])([H])[H])C([H])([H])[H])C([H])([H])c2c([H])c(ON([H])C([H])([H])c3c([H])c([H])c(N([H])C(=O)N4C([H])([H])C([H])([H])C([H])([H])C([H])(n5nc(-c6c([H])c([H])c(Oc7c([H])c([H])c(F)c([H])c7F)c([H])c6[H])c(C(=O)N([H])[H])c5N([H])[H])C4([H])[H])c(C([H])([H])[H])c3[H])c([H])c([H])c2C1([H])[H]

$$$$
72:0:0
     RDKit          3D

 90 98  0  0  1  0  0  0  0  0999 V2000
  -27.5170  -20.2870   21.1560 C   0  0  0  0  0  3  0  0  0  0  0  0
  -28.3400  -19.2010   20.7720 C   0  0  0  0  0  3  0  0  0  0  0  0
  -27.7820  -21.6330   20.7960 C   0  0  0  0  0  3  0  0  0  0  0  0
  -29.5020  -19.3840   19.9950 C   0  0  0  0  0  0  0  0  0  0  0  0
  -28.8980  -22.0030   20.0160 C   0  0  0  0  0  0  0  0  0  0  0  0
  -29.7480  -20.8240   19.6340 C   0  0  0  0  0  0  0  0  0  0  0  0
  -30.8490  -21.0820   18.8900 F   0  0  0  0  0  0  0  0  0  0  0  0
  -30.4180  -18.0350   19.6260 C   0  0  0  0  0  2  0  0  0  0  0  0
  -30.9490  -15.3080   19.7910 C   0  0  0  0  0  0  0  0  0  0  0  0
  -30.8640  -12.9130   18.9380 C   0  0  0  0  0  2  0  0  0  0  0  0
  -29.8550  -12.7740   17.7740 C   0  0  0  0  0  2  0  0  0  0  0  0
  -28.4370  -12.5120   18.3150 C   0  0  0  0  0  2  0  0  0  0  0  0
  -28.0680  -13.4660   19.4820 C   0  0  0  0  0  3  0  0  0  0  0  0
  -29.1940  -13.5710   20.5320 C   0  0  0  0  0  2  0  0  0  0  0  0
  -30.3980  -14.0230   19.8240 N   0  0  0  0  0  0  0  0  0  0  0  0
  -32.1230  -15.3870   19.4160 O   0  0  0  0  0  0  0  0  0  0  0  0
  -30.1540  -16.4900   19.9610 N   0  0  0  0  0  0  0  0  0  0  0  0
  -29.2090  -16.2900   20.2500 H   0  0  0  0  0  0  0  0  0  0  0  0
  -25.7690  -13.9900   20.4700 C   0  0  0  0  0  0  0  0  0  0  0  0
  -24.7390  -13.1940   20.8880 C   0  0  0  0  0  0  0  0  0  0  0  0
  -25.1950  -11.8480   20.7370 C   0  0  0  0  0  0  0  0  0  0  0  0
  -26.7810  -13.1310   20.0820 N   0  0  0  0  0  0  0  0  0  0  0  0
  -26.4530  -11.8320   20.3070 N   0  0  0  0  0  0  0  0  0  0  0  0
  -24.4820  -10.5760   20.9130 C   0  0  0  0  0  0  0  0  0  0  0  0
  -24.8960   -9.6240   21.8730 C   0  0  0  0  0  3  0  0  0  0  0  0
  -24.1820   -8.4170   22.0380 C   0  0  0  0  0  3  0  0  0  0  0  0
  -23.0410   -8.1520   21.2430 C   0  0  0  0  0  0  0  0  0  0  0  0
  -22.6480   -9.0920   20.2740 C   0  0  0  0  0  3  0  0  0  0  0  0
  -23.3630  -10.2900   20.1070 C   0  0  0  0  0  3  0  0  0  0  0  0
  -22.3000   -6.9980   21.3170 O   0  0  0  0  0  0  0  0  0  0  0  0
  -22.0720   -6.3640   22.5130 C   0  0  0  0  0  0  0  0  0  0  0  0
  -21.4100   -7.0070   23.5820 C   0  0  0  0  0  3  0  0  0  0  0  0
  -21.1340   -6.2970   24.7680 C   0  0  0  0  0  3  0  0  0  0  0  0
  -21.5090   -4.9450   24.8830 C   0  0  0  0  0  0  0  0  0  0  0  0
  -22.1660   -4.3030   23.8190 C   0  0  0  0  0  3  0  0  0  0  0  0
  -22.4430   -5.0100   22.6360 C   0  0  0  0  0  0  0  0  0  0  0  0
  -23.0550   -4.3800   21.6040 F   0  0  0  0  0  0  0  0  0  0  0  0
  -21.2390   -4.2590   26.0200 F   0  0  0  0  0  0  0  0  0  0  0  0
  -23.3730  -13.6530   21.3080 C   0  0  0  0  0  0  0  0  0  0  0  0
  -22.7240  -12.9130   22.2010 N   0  0  0  0  0  0  0  0  0  0  0  0
  -22.8910  -14.7010   20.8800 O   0  0  0  0  0  0  0  0  0  0  0  0
  -23.1290  -12.0660   22.5700 H   0  0  0  0  0  0  0  0  0  0  0  0
  -21.8110  -13.2010   22.5220 H   0  0  0  0  0  0  0  0  0  0  0  0
  -25.9200  -15.3710   20.3580 N   0  0  0  0  0  0  0  0  0  0  0  0
  -25.1620  -16.0130   20.5590 H   0  0  0  0  0  0  0  0  0  0  0  0
  -26.7180  -15.8230   19.9330 H   0  0  0  0  0  0  0  0  0  0  0  0
  -29.1010  -23.6360   19.6770 C   0  0  0  0  0  2  0  0  0  0  0  0
  -28.0580  -24.7760   20.0000 N   0  0  0  0  0  0  0  0  0  0  0  0
  -27.2440  -24.6100   19.4180 H   0  0  0  0  0  0  0  0  0  0  0  0
  -28.4490  -26.3230   19.7250 O   0  0  0  0  0  0  0  0  0  0  0  0
  -24.7920  -31.8220   23.1500 C   0  0  0  0  0  0  0  0  0  0  0  0
  -27.3880  -27.3130   19.7920 C   0  0  0  0  0  0  0  0  0  0  0  0
  -23.5950  -30.5290   21.4250 C   0  0  0  0  0  3  0  0  0  0  0  0
  -25.0510  -29.0610   19.8890 C   0  0  0  0  0  0  0  0  0  0  0  0
  -26.1480  -30.8170   21.2700 C   0  0  0  0  0  2  0  0  0  0  0  0
  -26.2290  -29.4640   20.5310 C   0  0  0  0  0  0  0  0  0  0  0  0
  -27.3950  -28.6030   20.4740 C   0  0  0  0  0  3  0  0  0  0  0  0
  -26.1900  -27.0320   19.1030 C   0  0  0  0  0  3  0  0  0  0  0  0
  -25.0450  -27.8610   19.1610 C   0  0  0  0  0  3  0  0  0  0  0  0
  -23.8170  -29.9470   20.0020 C   0  0  0  0  0  2  0  0  0  0  0  0
  -24.8650  -31.0770   22.0030 N   0  0  0  0  0  0  0  0  0  0  0  0
  -23.7070  -32.0590   23.7040 O   0  0  0  0  0  0  0  0  0  0  0  0
  -22.9320  -29.4540   22.3220 C   0  0  0  0  0  0  0  0  0  0  0  0
  -21.6060  -29.2680   22.1820 N   0  0  0  0  0  0  0  0  0  0  0  0
  -23.6120  -28.7900   23.1080 O   0  0  0  0  0  0  0  0  0  0  0  0
  -21.1100  -29.8590   21.5280 H   0  0  0  0  0  0  0  0  0  0  0  0
  -18.2430  -27.9900   22.6210 C   0  0  0  0  0  0  0  0  0  0  0  0
  -20.8000  -28.2700   22.8920 C   0  0  0  0  0  3  0  0  0  0  0  0
  -20.9170  -26.8800   22.2220 C   0  0  0  0  0  2  0  0  0  0  0  0
  -19.8140  -26.6120   21.1940 C   0  0  0  0  0  2  0  0  0  0  0  0
  -18.4350  -26.6930   21.8520 C   0  0  0  0  0  2  0  0  0  0  0  0
  -19.3530  -28.7380   23.0950 C   0  0  0  0  0  0  0  0  0  0  0  0
  -19.1190  -29.9510   23.7760 C   0  0  0  0  0  3  0  0  0  0  0  0
  -17.8080  -30.4200   23.9840 C   0  0  0  0  0  3  0  0  0  0  0  0
  -16.7130  -29.6690   23.5240 C   0  0  0  0  0  3  0  0  0  0  0  0
  -16.9310  -28.4550   22.8490 C   0  0  0  0  0  3  0  0  0  0  0  0
  -26.0680  -32.4290   23.8110 C   0  0  0  0  0  3  0  0  0  0  0  0
  -26.5920  -31.5840   25.0370 C   0  0  1  0  0  0  0  0  0  0  0  0
  -25.5030  -31.2730   26.0900 C   0  0  0  0  0  1  0  0  0  0  0  0
  -27.1840  -30.2360   24.5660 C   0  0  0  0  0  1  0  0  0  0  0  0
  -27.7390  -32.3440   25.7460 C   0  0  0  0  0  1  0  0  0  0  0  0
  -25.7460  -33.8010   24.2360 N   0  0  0  0  0  0  0  0  0  0  0  0
  -26.0370  -34.9070   23.5380 C   0  0  0  0  0  0  0  0  0  0  0  0
  -26.6710  -34.8800   22.4800 O   0  0  0  0  0  0  0  0  0  0  0  0
  -25.1790  -33.8940   25.0660 H   0  0  0  0  0  0  0  0  0  0  0  0
  -24.2600  -36.6820   23.3770 C   0  0  0  0  0  1  0  0  0  0  0  0
  -25.5470  -36.2560   24.0990 C   0  0  0  0  0  3  0  0  0  0  0  0
  -27.6990  -37.1450   24.8830 C   0  0  0  0  0  1  0  0  0  0  0  0
  -26.5520  -37.3380   23.9990 N   0  0  0  0  0  0  0  0  0  0  0  0
  -26.1350  -38.2390   24.2120 H   0  0  0  0  0  0  0  0  0  0  0  0
  2  1  2  0
  3  1  1  0
  4  2  1  0
  5  3  2  0
  6  4  2  0
  6  5  1  0
  7  6  1  0
  8 17  1  0
  8  4  1  0
  9 15  1  0
  9 17  1  0
 10 15  1  0
 11 12  1  0
 11 10  1  0
 13 12  1  0
 13 22  1  0
 13 14  1  0
 15 14  1  0
 16  9  2  0
 17 18  1  0
 19 20  2  0
 20 39  1  0
 21 20  1  0
 21 24  1  0
 22 23  1  0
 22 19  1  0
 23 21  2  0
 24 25  1  0
 25 26  2  0
 27 30  1  0
 27 26  1  0
 28 27  2  0
 29 28  1  0
 29 24  2  0
 30 31  1  0
 31 36  2  0
 31 32  1  0
 32 33  2  0
 33 34  1  0
 34 38  1  0
 35 34  2  0
 36 35  1  0
 37 36  1  0
 39 40  1  0
 40 43  1  0
 40 42  1  0
 41 39  2  0
 44 19  1  0
 44 45  1  0
 46 44  1  0
 47 48  1  0
 47  5  1  0
 49 48  1  0
 50 52  1  0
 50 48  1  0
 51 62  2  0
 52 57  1  0
 53 61  1  0
 53 63  1  0
 54 60  1  0
 54 56  1  0
 55 61  1  0
 56 55  1  0
 57 56  2  0
 58 59  1  0
 58 52  2  0
 59 54  2  0
 60 53  1  0
 61 51  1  0
 63 65  2  0
 64 63  1  0
 66 64  1  0
 67 76  2  0
 67 72  1  0
 68 64  1  0
 68 72  1  0
 69 68  1  0
 70 71  1  0
 70 69  1  0
 71 67  1  0
 72 73  2  0
 73 74  1  0
 75 74  2  0
 76 75  1  0
 77 51  1  0
 77 82  1  0
 77 78  1  0
 78 81  1  1
 78 79  1  0
 80 78  1  0
 82 85  1  0
 83 87  1  0
 83 82  1  0
 84 83  2  0
 87 86  1  0
 89 87  1  0
 89 90  1  0
 89 88  1  0
M  ISO  4   9 100  17 100  48 101  50 101
M  END
>  <TORSDO>  (73) 
F 19

>  <SCORE>  (73) 
-11.556

>  <name>  (73) 
72

>  <ligand_id>  (73) 
72

>  <original_smiles>  (73) 
[H]c1c([H])c(C([H])([H])N([H])Oc2c([H])c([H])c3c(c2[H])C([H])([H])N(C(=O)C([H])(N([H])C(=O)C([H])(N([H])C([H])([H])[H])C([H])([H])[H])C(C([H])([H])[H])(C([H])([H])[H])C([H])([H])[H])C([H])(C(=O)N([H])C2([H])c4c([H])c([H])c([H])c([H])c4C([H])([H])C([H])([H])C2([H])[H])C3([H])[H])c(F)c(C([H])([H])N([H])C(=O)N2C([H])([H])C([H])([H])C([H])([H])C([H])(n3nc(-c4c([H])c([H])c(Oc5c([H])c([H])c(F)c([H])c5F)c([H])c4[H])c(C(=O)N([H])[H])c3N([H])[H])C2([H])[H])c1[H]

>  <smiles>  (73) 
[H]c1c([H])c(C([H])([H])N([H])Oc2c([H])c([H])c3c(c2[H])C([H])([H])N(C(=O)C([H])(N([H])C(=O)C([H])(N([H])C([H])([H])[H])C([H])([H])[H])C(C([H])([H])[H])(C([H])([H])[H])C([H])([H])[H])C([H])(C(=O)N([H])C2([H])c4c([H])c([H])c([H])c([H])c4C([H])([H])C([H])([H])C2([H])[H])C3([H])[H])c(F)c(C([H])([H])N([H])C(=O)N2C([H])([H])C([H])([H])C([H])([H])C([H])(n3nc(-c4c([H])c([H])c(Oc5c([H])c([H])c(F)c([H])c5F)c([H])c4[H])c(C(=O)N([H])[H])c3N([H])[H])C2([H])[H])c1[H]

$$$$
73:0:0
     RDKit          3D

 89 97  0  0  1  0  0  0  0  0999 V2000
  -30.6180  -18.5840   20.2340 C   0  0  0  0  0  3  0  0  0  0  0  0
  -30.3220  -20.0210   20.1180 C   0  0  0  0  0  3  0  0  0  0  0  0
  -28.3230  -18.1100   19.9970 C   0  0  0  0  0  3  0  0  0  0  0  0
  -29.6220  -17.5390   20.1790 C   0  0  0  0  0  0  0  0  0  0  0  0
  -28.9990  -20.5680   19.9200 C   0  0  0  0  0  0  0  0  0  0  0  0
  -28.0300  -19.5160   19.8660 C   0  0  0  0  0  0  0  0  0  0  0  0
  -26.7350  -19.8670   19.6790 F   0  0  0  0  0  0  0  0  0  0  0  0
  -30.5800  -14.9230   20.0660 C   0  0  0  0  0  0  0  0  0  0  0  0
  -30.4510  -12.5660   19.1460 C   0  0  0  0  0  2  0  0  0  0  0  0
  -29.4680  -12.5400   17.9490 C   0  0  0  0  0  2  0  0  0  0  0  0
  -28.0140  -12.3550   18.4280 C   0  0  0  0  0  2  0  0  0  0  0  0
  -27.6620  -13.2860   19.6170 C   0  0  0  0  0  3  0  0  0  0  0  0
  -28.7540  -13.2570   20.7090 C   0  0  0  0  0  2  0  0  0  0  0  0
  -30.0190  -13.6500   20.0680 N   0  0  0  0  0  0  0  0  0  0  0  0
  -31.7560  -15.0460   19.7010 O   0  0  0  0  0  0  0  0  0  0  0  0
  -29.7160  -16.0150   20.3160 N   0  0  0  0  0  0  0  0  0  0  0  0
  -28.8300  -15.6250   20.5980 H   0  0  0  0  0  0  0  0  0  0  0  0
  -25.3230  -13.9140   20.4530 C   0  0  0  0  0  0  0  0  0  0  0  0
  -24.2550  -13.1600   20.8530 C   0  0  0  0  0  0  0  0  0  0  0  0
  -24.6820  -11.7990   20.7750 C   0  0  0  0  0  0  0  0  0  0  0  0
  -26.3340  -13.0150   20.1560 N   0  0  0  0  0  0  0  0  0  0  0  0
  -25.9580  -11.7360   20.4130 N   0  0  0  0  0  0  0  0  0  0  0  0
  -23.9310  -10.5510   20.9660 C   0  0  0  0  0  0  0  0  0  0  0  0
  -24.3600   -9.5610   21.8760 C   0  0  0  0  0  3  0  0  0  0  0  0
  -23.6090   -8.3800   22.0560 C   0  0  0  0  0  3  0  0  0  0  0  0
  -22.4150   -8.1800   21.3260 C   0  0  0  0  0  0  0  0  0  0  0  0
  -22.0020   -9.1580   20.4040 C   0  0  0  0  0  3  0  0  0  0  0  0
  -22.7540  -10.3310   20.2210 C   0  0  0  0  0  3  0  0  0  0  0  0
  -21.6350   -7.0520   21.4170 O   0  0  0  0  0  0  0  0  0  0  0  0
  -21.5790   -6.3060   22.5670 C   0  0  0  0  0  0  0  0  0  0  0  0
  -21.1440   -6.8560   23.7920 C   0  0  0  0  0  3  0  0  0  0  0  0
  -21.0370   -6.0370   24.9340 C   0  0  0  0  0  3  0  0  0  0  0  0
  -21.3540   -4.6680   24.8510 C   0  0  0  0  0  0  0  0  0  0  0  0
  -21.7830   -4.1170   23.6300 C   0  0  0  0  0  3  0  0  0  0  0  0
  -21.8920   -4.9330   22.4910 C   0  0  0  0  0  0  0  0  0  0  0  0
  -22.2850   -4.3930   21.3120 F   0  0  0  0  0  0  0  0  0  0  0  0
  -21.2440   -3.8790   25.9450 F   0  0  0  0  0  0  0  0  0  0  0  0
  -22.8820  -13.6670   21.1860 C   0  0  0  0  0  0  0  0  0  0  0  0
  -22.1720  -12.9770   22.0720 N   0  0  0  0  0  0  0  0  0  0  0  0
  -22.4480  -14.7080   20.6950 O   0  0  0  0  0  0  0  0  0  0  0  0
  -22.5360  -12.1340   22.4910 H   0  0  0  0  0  0  0  0  0  0  0  0
  -21.2520  -13.2980   22.3390 H   0  0  0  0  0  0  0  0  0  0  0  0
  -25.5110  -15.2840   20.2900 N   0  0  0  0  0  0  0  0  0  0  0  0
  -24.7430  -15.9360   20.4050 H   0  0  0  0  0  0  0  0  0  0  0  0
  -26.3000  -15.6870   19.8030 H   0  0  0  0  0  0  0  0  0  0  0  0
  -28.5040  -21.9350   19.7320 O   0  0  0  0  0  0  0  0  0  0  0  0
  -29.0950  -23.3350   19.9090 C   0  0  0  0  0  3  0  0  0  0  0  0
  -28.1160  -24.6810   19.6400 C   0  0  0  0  0  3  0  0  0  0  0  0
  -28.3620  -26.1910   19.9150 O   0  0  0  0  0  0  0  0  0  0  0  0
  -24.5360  -31.6270   23.0850 C   0  0  0  0  0  0  0  0  0  0  0  0
  -27.2770  -27.1420   19.8750 C   0  0  0  0  0  0  0  0  0  0  0  0
  -23.3960  -30.2890   21.3560 C   0  0  0  0  0  3  0  0  0  0  0  0
  -24.9060  -28.8230   19.8830 C   0  0  0  0  0  0  0  0  0  0  0  0
  -25.9460  -30.6220   21.2520 C   0  0  0  0  0  2  0  0  0  0  0  0
  -26.0640  -29.2680   20.5340 C   0  0  0  0  0  0  0  0  0  0  0  0
  -27.2500  -28.4450   20.5130 C   0  0  0  0  0  3  0  0  0  0  0  0
  -26.0890  -26.7970   19.1910 C   0  0  0  0  0  3  0  0  0  0  0  0
  -24.9310  -27.6010   19.1980 C   0  0  0  0  0  3  0  0  0  0  0  0
  -23.6570  -29.6880   19.9500 C   0  0  0  0  0  2  0  0  0  0  0  0
  -24.6450  -30.8640   21.9540 N   0  0  0  0  0  0  0  0  0  0  0  0
  -23.4340  -31.8620   23.6050 O   0  0  0  0  0  0  0  0  0  0  0  0
  -22.7240  -29.2200   22.2530 C   0  0  0  0  0  0  0  0  0  0  0  0
  -21.3950  -29.0550   22.1190 N   0  0  0  0  0  0  0  0  0  0  0  0
  -23.3990  -28.5440   23.0340 O   0  0  0  0  0  0  0  0  0  0  0  0
  -20.9070  -29.6540   21.4680 H   0  0  0  0  0  0  0  0  0  0  0  0
  -18.0080  -27.8640   22.6020 C   0  0  0  0  0  0  0  0  0  0  0  0
  -20.5770  -28.0710   22.8320 C   0  0  0  0  0  3  0  0  0  0  0  0
  -20.6440  -26.6870   22.1430 C   0  0  0  0  0  2  0  0  0  0  0  0
  -19.5160  -26.4610   21.1320 C   0  0  0  0  0  2  0  0  0  0  0  0
  -18.1500  -26.5720   21.8170 C   0  0  0  0  0  2  0  0  0  0  0  0
  -19.1480  -28.5760   23.0650 C   0  0  0  0  0  0  0  0  0  0  0  0
  -18.9590  -29.7890   23.7640 C   0  0  0  0  0  3  0  0  0  0  0  0
  -17.6650  -30.2900   24.0000 C   0  0  0  0  0  3  0  0  0  0  0  0
  -16.5420  -29.5740   23.5510 C   0  0  0  0  0  3  0  0  0  0  0  0
  -16.7140  -28.3630   22.8590 C   0  0  0  0  0  3  0  0  0  0  0  0
  -25.7880  -32.2560   23.7670 C   0  0  0  0  0  3  0  0  0  0  0  0
  -26.2640  -31.4600   25.0450 C   0  0  1  0  0  0  0  0  0  0  0  0
  -25.1360  -31.1940   26.0690 C   0  0  0  0  0  1  0  0  0  0  0  0
  -26.8680  -30.0930   24.6470 C   0  0  0  0  0  1  0  0  0  0  0  0
  -27.3860  -32.2460   25.7630 C   0  0  0  0  0  1  0  0  0  0  0  0
  -25.4530  -33.6440   24.1230 N   0  0  0  0  0  0  0  0  0  0  0  0
  -25.7720  -34.7190   23.3900 C   0  0  0  0  0  0  0  0  0  0  0  0
  -26.4450  -34.6480   22.3590 O   0  0  0  0  0  0  0  0  0  0  0  0
  -24.8550  -33.7720   24.9260 H   0  0  0  0  0  0  0  0  0  0  0  0
  -24.0050  -36.4870   23.0910 C   0  0  0  0  0  1  0  0  0  0  0  0
  -25.2650  -36.0920   23.8780 C   0  0  0  0  0  3  0  0  0  0  0  0
  -27.3890  -37.0120   24.7010 C   0  0  0  0  0  1  0  0  0  0  0  0
  -26.2770  -37.1660   23.7680 N   0  0  0  0  0  0  0  0  0  0  0  0
  -25.8530  -38.0770   23.9260 H   0  0  0  0  0  0  0  0  0  0  0  0
  2  1  2  0
  3  4  2  0
  4  1  1  0
  4 16  1  0
  5  2  1  0
  6  5  2  0
  6  3  1  0
  7  6  1  0
  8 14  1  0
  8 16  1  0
  9 14  1  0
 10 11  1  0
 10  9  1  0
 12 11  1  0
 12 21  1  0
 12 13  1  0
 14 13  1  0
 15  8  2  0
 16 17  1  0
 18 19  2  0
 19 38  1  0
 20 19  1  0
 20 23  1  0
 21 22  1  0
 21 18  1  0
 22 20  2  0
 23 24  1  0
 24 25  2  0
 26 29  1  0
 26 25  1  0
 27 26  2  0
 28 27  1  0
 28 23  2  0
 29 30  1  0
 30 31  1  0
 31 32  2  0
 33 32  1  0
 33 37  1  0
 34 33  2  0
 35 30  2  0
 35 34  1  0
 36 35  1  0
 38 39  1  0
 39 42  1  0
 39 41  1  0
 40 38  2  0
 43 44  1  0
 43 18  1  0
 45 43  1  0
 46 47  1  0
 46  5  1  0
 48 47  2  0
 48 49  1  0
 50 61  2  0
 51 49  1  0
 51 56  1  0
 52 60  1  0
 52 62  1  0
 53 59  1  0
 53 55  1  0
 54 60  1  0
 55 54  1  0
 56 55  2  0
 57 58  1  0
 57 51  2  0
 58 53  2  0
 59 52  1  0
 60 50  1  0
 62 64  2  0
 63 62  1  0
 65 63  1  0
 66 75  2  0
 66 71  1  0
 67 63  1  0
 67 71  1  0
 68 67  1  0
 69 70  1  0
 69 68  1  0
 70 66  1  0
 71 72  2  0
 72 73  1  0
 74 73  2  0
 75 74  1  0
 76 50  1  0
 76 81  1  0
 76 77  1  0
 77 80  1  1
 77 78  1  0
 79 77  1  0
 81 84  1  0
 82 86  1  0
 82 81  1  0
 83 82  2  0
 86 85  1  0
 88 86  1  0
 88 89  1  0
 88 87  1  0
M  ISO  4   8 100  16 100  48 101  49 101
M  END
>  <TORSDO>  (74) 
F 19

>  <SCORE>  (74) 
-13.742

>  <name>  (74) 
73

>  <ligand_id>  (74) 
73

>  <original_smiles>  (74) 
[H]c1c([H])c([H])c2c(c1[H])C([H])([H])C([H])([H])C([H])([H])C2([H])N([H])C(=O)C1([H])N(C(=O)C([H])(N([H])C(=O)C([H])(N([H])C([H])([H])[H])C([H])([H])[H])C(C([H])([H])[H])(C([H])([H])[H])C([H])([H])[H])C([H])([H])c2c([H])c(OC([H])([H])C([H])([H])Oc3c([H])c([H])c(N([H])C(=O)N4C([H])([H])C([H])([H])C([H])([H])C([H])(n5nc(-c6c([H])c([H])c(Oc7c([H])c([H])c(F)c([H])c7F)c([H])c6[H])c(C(=O)N([H])[H])c5N([H])[H])C4([H])[H])c([H])c3F)c([H])c([H])c2C1([H])[H]

>  <smiles>  (74) 
[H]c1c([H])c([H])c2c(c1[H])C([H])([H])C([H])([H])C([H])([H])C2([H])N([H])C(=O)C1([H])N(C(=O)C([H])(N([H])C(=O)C([H])(N([H])C([H])([H])[H])C([H])([H])[H])C(C([H])([H])[H])(C([H])([H])[H])C([H])([H])[H])C([H])([H])c2c([H])c(OC([H])([H])C([H])([H])Oc3c([H])c([H])c(N([H])C(=O)N4C([H])([H])C([H])([H])C([H])([H])C([H])(n5nc(-c6c([H])c([H])c(Oc7c([H])c([H])c(F)c([H])c7F)c([H])c6[H])c(C(=O)N([H])[H])c5N([H])[H])C4([H])[H])c([H])c3F)c([H])c([H])c2C1([H])[H]

$$$$
74:0:0
     RDKit          3D

 95104  0  0  1  0  0  0  0  0999 V2000
  -27.5960  -22.6300   19.9020 C   0  0  0  0  0  3  0  0  0  0  0  0
  -27.3660  -24.0500   19.8560 C   0  0  0  0  0  3  0  0  0  0  0  0
  -29.8610  -23.0080   20.4650 C   0  0  0  0  0  3  0  0  0  0  0  0
  -29.6490  -24.4370   20.4010 C   0  0  0  0  0  0  0  0  0  0  0  0
  -28.8550  -22.0310   20.2010 C   0  0  0  0  0  0  0  0  0  0  0  0
  -28.3830  -25.0350   20.0790 C   0  0  0  0  0  0  0  0  0  0  0  0
  -28.5200  -18.1550   19.4490 C   0  0  0  0  0  2  0  0  0  0  0  0
  -30.2220  -18.4200   21.1630 C   0  0  0  0  0  2  0  0  0  0  0  0
  -28.5700  -19.7180   19.1480 C   0  0  0  0  0  2  0  0  0  0  0  0
  -30.2950  -19.9790   20.8330 C   0  0  0  0  0  2  0  0  0  0  0  0
  -29.8390  -17.4760   19.9710 C   0  0  0  0  0  3  0  0  0  0  0  0
  -29.0650  -20.5770   20.2540 N   0  0  0  0  0  0  0  0  0  0  0  0
  -30.5020  -14.8650   20.0010 C   0  0  0  0  0  0  0  0  0  0  0  0
  -30.3100  -12.5650   19.0290 C   0  0  0  0  0  2  0  0  0  0  0  0
  -29.3070  -12.6080   17.8520 C   0  0  0  0  0  2  0  0  0  0  0  0
  -27.8630  -12.4190   18.3570 C   0  0  0  0  0  2  0  0  0  0  0  0
  -27.5400  -13.3150   19.5820 C   0  0  0  0  0  3  0  0  0  0  0  0
  -28.6530  -13.2450   20.6510 C   0  0  0  0  0  2  0  0  0  0  0  0
  -29.9130  -13.6190   19.9950 N   0  0  0  0  0  0  0  0  0  0  0  0
  -31.6540  -15.0000   19.5780 O   0  0  0  0  0  0  0  0  0  0  0  0
  -29.6990  -15.9690   20.2820 N   0  0  0  0  0  0  0  0  0  0  0  0
  -28.7910  -15.7050   20.6340 H   0  0  0  0  0  0  0  0  0  0  0  0
  -25.2030  -13.8980   20.4640 C   0  0  0  0  0  0  0  0  0  0  0  0
  -24.1560  -13.1210   20.8760 C   0  0  0  0  0  0  0  0  0  0  0  0
  -24.6060  -11.7680   20.7800 C   0  0  0  0  0  0  0  0  0  0  0  0
  -26.2240  -13.0200   20.1410 N   0  0  0  0  0  0  0  0  0  0  0  0
  -25.8750  -11.7320   20.3940 N   0  0  0  0  0  0  0  0  0  0  0  0
  -23.8830  -10.5050   20.9780 C   0  0  0  0  0  0  0  0  0  0  0  0
  -24.3380   -9.5280   21.8900 C   0  0  0  0  0  3  0  0  0  0  0  0
  -23.6150   -8.3310   22.0760 C   0  0  0  0  0  3  0  0  0  0  0  0
  -22.4230   -8.1010   21.3510 C   0  0  0  0  0  0  0  0  0  0  0  0
  -21.9850   -9.0670   20.4280 C   0  0  0  0  0  3  0  0  0  0  0  0
  -22.7070  -10.2570   20.2400 C   0  0  0  0  0  3  0  0  0  0  0  0
  -21.6690   -6.9550   21.4470 O   0  0  0  0  0  0  0  0  0  0  0  0
  -21.6120   -6.2280   22.6080 C   0  0  0  0  0  0  0  0  0  0  0  0
  -21.1370   -6.7860   23.8150 C   0  0  0  0  0  3  0  0  0  0  0  0
  -21.0280   -5.9830   24.9680 C   0  0  0  0  0  3  0  0  0  0  0  0
  -21.3860   -4.6230   24.9150 C   0  0  0  0  0  0  0  0  0  0  0  0
  -21.8550   -4.0630   23.7130 C   0  0  0  0  0  3  0  0  0  0  0  0
  -21.9650   -4.8640   22.5630 C   0  0  0  0  0  0  0  0  0  0  0  0
  -22.3960   -4.3150   21.4020 F   0  0  0  0  0  0  0  0  0  0  0  0
  -21.2750   -3.8500   26.0210 F   0  0  0  0  0  0  0  0  0  0  0  0
  -22.7800  -13.6000   21.2410 C   0  0  0  0  0  0  0  0  0  0  0  0
  -22.1010  -12.8900   22.1350 N   0  0  0  0  0  0  0  0  0  0  0  0
  -22.3180  -14.6380   20.7680 O   0  0  0  0  0  0  0  0  0  0  0  0
  -22.4880  -12.0510   22.5410 H   0  0  0  0  0  0  0  0  0  0  0  0
  -21.1810  -13.1940   22.4200 H   0  0  0  0  0  0  0  0  0  0  0  0
  -25.3670  -15.2720   20.3110 N   0  0  0  0  0  0  0  0  0  0  0  0
  -24.6100  -15.9260   20.4800 H   0  0  0  0  0  0  0  0  0  0  0  0
  -26.1810  -15.7110   19.9000 H   0  0  0  0  0  0  0  0  0  0  0  0
  -30.8360  -25.3620   20.6650 C   0  0  1  0  0  0  0  0  0  0  0  0
  -31.9300  -24.6910   21.0270 F   0  0  0  0  0  0  0  0  0  0  0  0
  -31.1250  -26.0510   19.5610 F   0  0  0  0  0  0  0  0  0  0  0  0
  -30.5500  -26.2220   21.6430 F   0  0  0  0  0  0  0  0  0  0  0  0
  -28.2840  -26.4730   19.9210 O   0  0  0  0  0  0  0  0  0  0  0  0
  -24.6530  -31.8800   23.2070 C   0  0  0  0  0  0  0  0  0  0  0  0
  -27.1470  -27.3210   19.9830 C   0  0  0  0  0  0  0  0  0  0  0  0
  -23.4000  -30.5260   21.5690 C   0  0  0  0  0  3  0  0  0  0  0  0
  -24.8020  -28.9950   20.0690 C   0  0  0  0  0  0  0  0  0  0  0  0
  -25.9390  -30.8130   21.3350 C   0  0  0  0  0  2  0  0  0  0  0  0
  -25.9880  -29.4410   20.6620 C   0  0  0  0  0  0  0  0  0  0  0  0
  -27.1560  -28.6110   20.6210 C   0  0  0  0  0  3  0  0  0  0  0  0
  -25.9510  -26.9750   19.3200 C   0  0  0  0  0  3  0  0  0  0  0  0
  -24.7890  -27.7690   19.3880 C   0  0  0  0  0  3  0  0  0  0  0  0
  -23.5750  -29.8820   20.1690 C   0  0  0  0  0  2  0  0  0  0  0  0
  -24.6850  -31.0930   22.0920 N   0  0  0  0  0  0  0  0  0  0  0  0
  -23.5850  -32.1520   23.7750 O   0  0  0  0  0  0  0  0  0  0  0  0
  -22.7580  -29.4890   22.5240 C   0  0  0  0  0  0  0  0  0  0  0  0
  -21.4310  -29.3030   22.4140 N   0  0  0  0  0  0  0  0  0  0  0  0
  -23.4530  -28.8570   23.3240 O   0  0  0  0  0  0  0  0  0  0  0  0
  -20.9300  -29.8660   21.7420 H   0  0  0  0  0  0  0  0  0  0  0  0
  -18.0770  -28.0470   22.9280 C   0  0  0  0  0  0  0  0  0  0  0  0
  -20.6320  -28.3460   23.1830 C   0  0  0  0  0  3  0  0  0  0  0  0
  -20.7540  -26.9220   22.5950 C   0  0  0  0  0  2  0  0  0  0  0  0
  -19.6500  -26.5900   21.5850 C   0  0  0  0  0  2  0  0  0  0  0  0
  -18.2700  -26.7060   22.2390 C   0  0  0  0  0  2  0  0  0  0  0  0
  -19.1850  -28.8250   23.3560 C   0  0  0  0  0  0  0  0  0  0  0  0
  -18.9490  -30.0770   23.9610 C   0  0  0  0  0  3  0  0  0  0  0  0
  -17.6380  -30.5550   24.1420 C   0  0  0  0  0  3  0  0  0  0  0  0
  -16.5430  -29.7750   23.7290 C   0  0  0  0  0  3  0  0  0  0  0  0
  -16.7640  -28.5240   23.1280 C   0  0  0  0  0  3  0  0  0  0  0  0
  -25.9550  -32.4950   23.8080 C   0  0  0  0  0  3  0  0  0  0  0  0
  -26.5010  -31.6940   25.0540 C   0  0  1  0  0  0  0  0  0  0  0  0
  -25.4360  -31.4380   26.1460 C   0  0  0  0  0  1  0  0  0  0  0  0
  -27.0690  -30.3220   24.6230 C   0  0  0  0  0  1  0  0  0  0  0  0
  -27.6730  -32.4700   25.7020 C   0  0  0  0  0  1  0  0  0  0  0  0
  -25.6580  -33.8860   24.1800 N   0  0  0  0  0  0  0  0  0  0  0  0
  -25.9440  -34.9550   23.4240 C   0  0  0  0  0  0  0  0  0  0  0  0
  -26.5540  -34.8740   22.3550 O   0  0  0  0  0  0  0  0  0  0  0  0
  -25.1070  -34.0230   25.0150 H   0  0  0  0  0  0  0  0  0  0  0  0
  -24.1860  -36.7440   23.2120 C   0  0  0  0  0  1  0  0  0  0  0  0
  -25.4800  -36.3340   23.9350 C   0  0  0  0  0  3  0  0  0  0  0  0
  -27.6540  -37.2250   24.6460 C   0  0  0  0  0  1  0  0  0  0  0  0
  -26.4960  -37.3950   23.7730 N   0  0  0  0  0  0  0  0  0  0  0  0
  -26.0940  -38.3110   23.9520 H   0  0  0  0  0  0  0  0  0  0  0  0
  1  5  1  0
  2  1  2  0
  2  6  1  0
  4  3  1  0
  4 51  1  0
  5 12  1  0
  5  3  2  0
  6  4  2  0
  7 11  1  0
  9  7  1  0
  9 12  1  0
 10  8  1  0
 11 21  1  0
 11  8  1  0
 12 10  1  0
 13 21  1  0
 14 19  1  0
 15 16  1  0
 15 14  1  0
 17 16  1  0
 17 26  1  0
 17 18  1  0
 19 13  1  0
 19 18  1  0
 20 13  2  0
 21 22  1  0
 23 24  2  0
 24 43  1  0
 25 24  1  0
 25 28  1  0
 26 27  1  0
 26 23  1  0
 27 25  2  0
 28 29  1  0
 29 30  2  0
 31 34  1  0
 31 30  1  0
 32 31  2  0
 33 32  1  0
 33 28  2  0
 34 35  1  0
 35 36  1  0
 36 37  2  0
 38 37  1  0
 38 42  1  0
 39 38  2  0
 40 35  2  0
 40 39  1  0
 41 40  1  0
 43 44  1  0
 44 47  1  0
 44 46  1  0
 45 43  2  0
 48 23  1  0
 48 49  1  0
 50 48  1  0
 51 52  1  1
 51 54  1  0
 53 51  1  0
 55 57  1  0
 55  6  1  0
 56 67  2  0
 57 62  1  0
 58 66  1  0
 58 68  1  0
 59 65  1  0
 59 61  1  0
 60 66  1  0
 61 60  1  0
 62 61  2  0
 63 64  1  0
 63 57  2  0
 64 59  2  0
 65 58  1  0
 66 56  1  0
 68 70  2  0
 69 68  1  0
 71 69  1  0
 72 81  2  0
 72 77  1  0
 73 69  1  0
 73 77  1  0
 74 73  1  0
 75 76  1  0
 75 74  1  0
 76 72  1  0
 77 78  2  0
 78 79  1  0
 80 79  2  0
 81 80  1  0
 82 56  1  0
 82 87  1  0
 82 83  1  0
 83 86  1  1
 83 84  1  0
 85 83  1  0
 87 90  1  0
 88 92  1  0
 88 87  1  0
 89 88  2  0
 92 91  1  0
 94 92  1  0
 94 95  1  0
 94 93  1  0
M  ISO  4   6 101  13 100  21 100  55 101
M  END
>  <TORSDO>  (75) 
F 18

>  <SCORE>  (75) 
-14.781

>  <name>  (75) 
74

>  <ligand_id>  (75) 
74

>  <original_smiles>  (75) 
[H]c1c([H])c([H])c2c(c1[H])C([H])([H])C([H])([H])C([H])([H])C2([H])N([H])C(=O)C1([H])N(C(=O)C([H])(N([H])C(=O)C([H])(N([H])C([H])([H])[H])C([H])([H])[H])C(C([H])([H])[H])(C([H])([H])[H])C([H])([H])[H])C([H])([H])c2c([H])c(Oc3c([H])c([H])c(N4C([H])([H])C([H])([H])C([H])(N([H])C(=O)N5C([H])([H])C([H])([H])C([H])([H])C([H])(n6nc(-c7c([H])c([H])c(Oc8c([H])c([H])c(F)c([H])c8F)c([H])c7[H])c(C(=O)N([H])[H])c6N([H])[H])C5([H])[H])C([H])([H])C4([H])[H])c([H])c3C(F)(F)F)c([H])c([H])c2C1([H])[H]

>  <smiles>  (75) 
[H]c1c([H])c([H])c2c(c1[H])C([H])([H])C([H])([H])C([H])([H])C2([H])N([H])C(=O)C1([H])N(C(=O)C([H])(N([H])C(=O)C([H])(N([H])C([H])([H])[H])C([H])([H])[H])C(C([H])([H])[H])(C([H])([H])[H])C([H])([H])[H])C([H])([H])c2c([H])c(Oc3c([H])c([H])c(N4C([H])([H])C([H])([H])C([H])(N([H])C(=O)N5C([H])([H])C([H])([H])C([H])([H])C([H])(n6nc(-c7c([H])c([H])c(Oc8c([H])c([H])c(F)c([H])c8F)c([H])c7[H])c(C(=O)N([H])[H])c6N([H])[H])C5([H])[H])C([H])([H])C4([H])[H])c([H])c3C(F)(F)F)c([H])c([H])c2C1([H])[H]

$$$$
75:0:0
     RDKit          3D

100109  0  0  1  0  0  0  0  0999 V2000
  -26.8560  -22.4680   15.2710 C   0  0  0  0  0  2  0  0  0  0  0  0
  -26.4980  -23.1290   16.5580 N   0  0  0  0  0  4  0  0  0  0  0  0
  -27.3080  -23.4970   17.0290 H   0  0  0  0  0  0  0  0  0  0  0  0
  -25.9010  -23.9150   16.3520 H   0  0  0  0  0  0  0  0  0  0  0  0
  -25.7690  -22.2640   17.5180 C   0  0  0  0  0  2  0  0  0  0  0  0
  -25.1260  -25.1350   20.0140 C   0  0  0  0  0  3  0  0  0  0  0  0
  -24.1440  -23.0990   20.9100 C   0  0  0  0  0  3  0  0  0  0  0  0
  -25.6240  -24.4140   18.9060 C   0  0  0  0  0  3  0  0  0  0  0  0
  -24.6300  -22.3780   19.7970 C   0  0  0  0  0  3  0  0  0  0  0  0
  -24.3360  -24.4970   21.0020 C   0  0  0  0  0  0  0  0  0  0  0  0
  -25.3360  -23.0370   18.7650 C   0  0  0  0  0  0  0  0  0  0  0  0
  -23.6040  -25.3200   22.0680 C   0  0  0  0  0  2  0  0  0  0  0  0
  -24.9360  -27.3760   21.4070 C   0  0  0  0  0  0  0  0  0  0  0  0
  -24.8740  -29.0490   19.5920 C   0  0  0  0  0  2  0  0  0  0  0  0
  -23.7880  -30.1040   19.8860 C   0  0  0  0  0  2  0  0  0  0  0  0
  -22.3980  -29.6340   19.4090 C   0  0  0  0  0  2  0  0  0  0  0  0
  -22.0770  -28.1850   19.8530 C   0  0  0  0  0  3  0  0  0  0  0  0
  -23.2560  -27.2590   19.5150 C   0  0  0  0  0  2  0  0  0  0  0  0
  -24.4460  -27.7760   20.2010 N   0  0  0  0  0  0  0  0  0  0  0  0
  -25.9480  -27.8800   21.9090 O   0  0  0  0  0  0  0  0  0  0  0  0
  -24.1010  -26.6930   22.2140 N   0  0  0  0  0  0  0  0  0  0  0  0
  -24.3360  -26.8660   23.1800 H   0  0  0  0  0  0  0  0  0  0  0  0
  -19.6240  -27.4240   19.8490 C   0  0  0  0  0  0  0  0  0  0  0  0
  -18.7830  -27.0570   18.8380 C   0  0  0  0  0  0  0  0  0  0  0  0
  -19.5500  -27.1490   17.6350 C   0  0  0  0  0  0  0  0  0  0  0  0
  -20.8420  -27.6990   19.2520 N   0  0  0  0  0  0  0  0  0  0  0  0
  -20.8010  -27.4830   17.9130 N   0  0  0  0  0  0  0  0  0  0  0  0
  -19.1470  -27.0020   16.2340 C   0  0  0  0  0  0  0  0  0  0  0  0
  -19.3500  -25.7920   15.5300 C   0  0  0  0  0  3  0  0  0  0  0  0
  -18.9400  -25.6710   14.1850 C   0  0  0  0  0  3  0  0  0  0  0  0
  -18.3160  -26.7620   13.5350 C   0  0  0  0  0  0  0  0  0  0  0  0
  -18.1400  -27.9700   14.2320 C   0  0  0  0  0  3  0  0  0  0  0  0
  -18.5540  -28.0910   15.5670 C   0  0  0  0  0  3  0  0  0  0  0  0
  -17.9030  -26.7390   12.2250 O   0  0  0  0  0  0  0  0  0  0  0  0
  -17.0180  -25.7960   11.7650 C   0  0  0  0  0  0  0  0  0  0  0  0
  -15.6840  -25.7380   12.2250 C   0  0  0  0  0  3  0  0  0  0  0  0
  -14.7880  -24.8010   11.6730 C   0  0  0  0  0  3  0  0  0  0  0  0
  -15.2200  -23.9290   10.6560 C   0  0  0  0  0  0  0  0  0  0  0  0
  -16.5460  -23.9880   10.1920 C   0  0  0  0  0  3  0  0  0  0  0  0
  -17.4410  -24.9220   10.7440 C   0  0  0  0  0  0  0  0  0  0  0  0
  -18.7120  -24.9900   10.2790 F   0  0  0  0  0  0  0  0  0  0  0  0
  -14.3570  -23.0360   10.1180 F   0  0  0  0  0  0  0  0  0  0  0  0
  -17.3230  -26.7320   18.9590 C   0  0  0  0  0  0  0  0  0  0  0  0
  -16.8130  -25.8650   18.0970 N   0  0  0  0  0  0  0  0  0  0  0  0
  -16.6340  -27.2120   19.8610 O   0  0  0  0  0  0  0  0  0  0  0  0
  -17.3850  -25.4550   17.3740 H   0  0  0  0  0  0  0  0  0  0  0  0
  -15.8350  -25.6130   18.1550 H   0  0  0  0  0  0  0  0  0  0  0  0
  -19.4500  -27.5660   21.2250 N   0  0  0  0  0  0  0  0  0  0  0  0
  -18.5780  -27.3230   21.6780 H   0  0  0  0  0  0  0  0  0  0  0  0
  -20.2020  -27.7400   21.8800 H   0  0  0  0  0  0  0  0  0  0  0  0
  -28.6490  -22.0620   13.4980 C   0  0  0  0  0  1  0  0  0  0  0  0
  -28.1740  -22.9950   14.6290 C   0  0  0  0  0  3  0  0  0  0  0  0
  -28.3780  -25.4600   15.3850 C   0  0  0  0  0  2  0  0  0  0  0  0
  -28.1590  -24.5010   14.1950 C   0  0  0  0  0  3  0  0  0  0  0  0
  -26.9520  -24.9120   13.4150 N   0  0  0  0  0  4  0  0  0  0  0  0
  -26.2700  -24.1710   13.4110 H   0  0  0  0  0  0  0  0  0  0  0  0
  -26.5210  -25.6890   13.8980 H   0  0  0  0  0  0  0  0  0  0  0  0
  -27.1790  -25.3420   12.0010 C   0  0  0  0  0  2  0  0  0  0  0  0
  -28.1680  -26.5190   11.8300 C   0  0  0  0  0  2  0  0  0  0  0  0
  -28.3780  -27.1920   13.0710 O   0  0  0  0  0  0  0  0  0  0  0  0
  -35.1250  -25.0710   14.0240 C   0  0  0  0  0  0  0  0  0  0  0  0
  -29.3220  -26.6170   13.8810 C   0  0  0  0  0  0  0  0  0  0  0  0
  -33.4840  -24.2980   15.7090 C   0  0  0  0  0  3  0  0  0  0  0  0
  -31.1900  -25.4040   15.6070 C   0  0  0  0  0  0  0  0  0  0  0  0
  -33.1210  -26.4880   14.4400 C   0  0  0  0  0  2  0  0  0  0  0  0
  -31.6330  -26.2480   14.5770 C   0  0  0  0  0  0  0  0  0  0  0  0
  -30.7030  -26.8520   13.7040 C   0  0  0  0  0  3  0  0  0  0  0  0
  -28.8880  -25.7770   14.9210 C   0  0  0  0  0  0  0  0  0  0  0  0
  -29.8160  -25.1540   15.7750 C   0  0  0  0  0  3  0  0  0  0  0  0
  -32.2510  -24.8070   16.5000 C   0  0  0  0  0  2  0  0  0  0  0  0
  -33.9430  -25.2780   14.6710 N   0  0  0  0  0  0  0  0  0  0  0  0
  -35.8510  -24.1080   14.3080 O   0  0  0  0  0  0  0  0  0  0  0  0
  -33.1590  -22.9010   15.1320 C   0  0  0  0  0  0  0  0  0  0  0  0
  -33.1620  -21.8780   16.0050 N   0  0  0  0  0  0  0  0  0  0  0  0
  -32.8800  -22.7610   13.9380 O   0  0  0  0  0  0  0  0  0  0  0  0
  -33.3730  -22.0750   16.9740 H   0  0  0  0  0  0  0  0  0  0  0  0
  -33.1330  -18.5330   17.3730 C   0  0  0  0  0  0  0  0  0  0  0  0
  -32.8410  -20.4820   15.6980 C   0  0  0  0  0  3  0  0  0  0  0  0
  -31.3230  -20.2290   15.8180 C   0  0  0  0  0  2  0  0  0  0  0  0
  -30.8950  -19.6970   17.1900 C   0  0  0  0  0  2  0  0  0  0  0  0
  -31.6290  -18.3980   17.5280 C   0  0  0  0  0  2  0  0  0  0  0  0
  -33.7010  -19.5200   16.5230 C   0  0  0  0  0  0  0  0  0  0  0  0
  -35.1050  -19.6160   16.4330 C   0  0  0  0  0  3  0  0  0  0  0  0
  -35.9370  -18.7430   17.1550 C   0  0  0  0  0  3  0  0  0  0  0  0
  -35.3700  -17.7600   17.9830 C   0  0  0  0  0  3  0  0  0  0  0  0
  -33.9720  -17.6600   18.0970 C   0  0  0  0  0  3  0  0  0  0  0  0
  -35.6340  -26.0430   12.9120 C   0  0  0  0  0  3  0  0  0  0  0  0
  -35.8920  -25.3220   11.5310 C   0  0  1  0  0  0  0  0  0  0  0  0
  -36.7720  -24.0550   11.6430 C   0  0  0  0  0  1  0  0  0  0  0  0
  -34.5540  -24.9080   10.8740 C   0  0  0  0  0  1  0  0  0  0  0  0
  -36.5780  -26.3050   10.5540 C   0  0  0  0  0  1  0  0  0  0  0  0
  -36.8610  -26.6810   13.4050 N   0  0  0  0  0  0  0  0  0  0  0  0
  -36.9120  -27.8970   13.9650 C   0  0  0  0  0  0  0  0  0  0  0  0
  -35.9280  -28.6360   14.0520 O   0  0  0  0  0  0  0  0  0  0  0  0
  -37.6910  -26.1080   13.4150 H   0  0  0  0  0  0  0  0  0  0  0  0
  -38.3010  -28.1860   16.0350 C   0  0  0  0  0  1  0  0  0  0  0  0
  -38.2740  -28.3640   14.5100 C   0  0  0  0  0  3  0  0  0  0  0  0
  -38.8720  -29.9610   12.7480 C   0  0  0  0  0  1  0  0  0  0  0  0
  -38.5920  -29.7660   14.1660 N   0  0  0  0  0  0  0  0  0  0  0  0
  -39.3960  -30.0940   14.6980 H   0  0  0  0  0  0  0  0  0  0  0  0
  1  2  1  0
  2  3  1  0
  2  5  1  0
  4  2  1  0
  5 11  1  0
  6 10  1  0
  7 10  2  0
  8  6  2  0
  9  7  1  0
 10 12  1  0
 11  8  1  0
 11  9  2  0
 12 21  1  0
 13 20  2  0
 13 21  1  0
 14 15  1  0
 14 19  1  0
 16 17  1  0
 16 15  1  0
 17 26  1  0
 18 17  1  0
 18 19  1  0
 19 13  1  0
 21 22  1  0
 23 48  1  0
 24 43  1  0
 24 23  2  0
 25 27  2  0
 25 24  1  0
 26 23  1  0
 27 26  1  0
 28 25  1  0
 29 28  2  0
 30 29  1  0
 31 30  2  0
 31 32  1  0
 32 33  2  0
 33 28  1  0
 34 31  1  0
 35 36  1  0
 35 34  1  0
 37 36  2  0
 38 37  1  0
 39 38  2  0
 39 40  1  0
 40 35  2  0
 41 40  1  0
 42 38  1  0
 43 45  2  0
 44 47  1  0
 44 43  1  0
 46 44  1  0
 48 49  1  0
 48 50  1  0
 52 51  1  0
 52  1  1  0
 54 52  1  0
 54 53  1  0
 55 57  1  0
 55 54  1  0
 56 55  1  0
 58 55  1  0
 59 58  1  0
 59 60  1  0
 60 62  1  0
 61 72  2  0
 61 71  1  0
 62 68  1  0
 63 73  1  0
 63 70  1  0
 64 69  1  0
 64 70  1  0
 65 66  1  0
 65 71  1  0
 66 64  2  0
 67 62  2  0
 67 66  1  0
 68 53  1  0
 68 69  2  0
 71 63  1  0
 73 74  1  0
 74 76  1  0
 75 73  2  0
 77 81  1  0
 77 86  1  0
 78 79  1  0
 78 74  1  0
 78 82  1  0
 79 80  1  0
 80 81  1  0
 82 77  2  0
 83 82  1  0
 83 84  2  0
 84 85  1  0
 85 86  2  0
 87 92  1  0
 87 61  1  0
 88 89  1  1
 88 87  1  0
 90 88  1  0
 91 88  1  0
 92 95  1  0
 92 93  1  0
 93 94  2  0
 93 97  1  0
 97 96  1  0
 98 99  1  0
 99 97  1  0
 99100  1  0
M  ISO  4  13 100  21 100  59 101  60 101
M  END
>  <TORSDO>  (76) 
F 25

>  <SCORE>  (76) 
7.554

>  <name>  (76) 
75

>  <ligand_id>  (76) 
75

>  <original_smiles>  (76) 
[H]c1c([H])c([H])c2c(c1[H])C([H])([H])C([H])([H])C([H])([H])C2([H])N([H])C(=O)C1([H])N(C(=O)C([H])(N([H])C(=O)C([H])(N([H])C([H])([H])[H])C([H])([H])[H])C(C([H])([H])[H])(C([H])([H])[H])C([H])([H])[H])C([H])([H])c2c([H])c(OC([H])([H])C([H])([H])[N+]([H])([H])C([H])(C([H])([H])[H])C([H])(C([H])([H])[H])C([H])([H])[N+]([H])([H])C([H])([H])c3c([H])c([H])c(C([H])([H])N([H])C(=O)N4C([H])([H])C([H])([H])C([H])([H])C([H])(n5nc(-c6c([H])c([H])c(Oc7c([H])c([H])c(F)c([H])c7F)c([H])c6[H])c(C(=O)N([H])[H])c5N([H])[H])C4([H])[H])c([H])c3[H])c([H])c([H])c2C1([H])[H]

>  <smiles>  (76) 
[H]c1c([H])c([H])c2c(c1[H])C([H])([H])C([H])([H])C([H])([H])C2([H])N([H])C(=O)C1([H])N(C(=O)C([H])(N([H])C(=O)C([H])(N([H])C([H])([H])[H])C([H])([H])[H])C(C([H])([H])[H])(C([H])([H])[H])C([H])([H])[H])C([H])([H])c2c([H])c(OC([H])([H])C([H])([H])[N+]([H])([H])C([H])(C([H])([H])[H])C([H])(C([H])([H])[H])C([H])([H])[N+]([H])([H])C([H])([H])c3c([H])c([H])c(C([H])([H])N([H])C(=O)N4C([H])([H])C([H])([H])C([H])([H])C([H])(n5nc(-c6c([H])c([H])c(Oc7c([H])c([H])c(F)c([H])c7F)c([H])c6[H])c(C(=O)N([H])[H])c5N([H])[H])C4([H])[H])c([H])c3[H])c([H])c([H])c2C1([H])[H]

$$$$
76:0:0
     RDKit          3D

 89 97  0  0  1  0  0  0  0  0999 V2000
  -28.0740  -20.4070   20.5260 C   0  0  0  0  0  3  0  0  0  0  0  0
  -28.2730  -18.9300   20.5300 C   0  0  0  0  0  3  0  0  0  0  0  0
  -30.4800  -19.1800   19.9680 C   0  0  0  0  0  3  0  0  0  0  0  0
  -29.0690  -21.4300   20.2370 C   0  0  0  0  0  0  0  0  0  0  0  0
  -29.4870  -18.1550   20.2580 C   0  0  0  0  0  0  0  0  0  0  0  0
  -30.2900  -20.6600   19.9610 C   0  0  0  0  0  0  0  0  0  0  0  0
  -31.3920  -21.3920   19.6700 F   0  0  0  0  0  0  0  0  0  0  0  0
  -30.4050  -15.3430   20.0910 C   0  0  0  0  0  0  0  0  0  0  0  0
  -30.3950  -12.9140   19.1770 C   0  0  0  0  0  2  0  0  0  0  0  0
  -29.4220  -12.7350   17.9830 C   0  0  0  0  0  2  0  0  0  0  0  0
  -27.9910  -12.4520   18.4750 C   0  0  0  0  0  2  0  0  0  0  0  0
  -27.5840  -13.3860   19.6420 C   0  0  0  0  0  3  0  0  0  0  0  0
  -28.6780  -13.4980   20.7260 C   0  0  0  0  0  2  0  0  0  0  0  0
  -29.8820  -14.0220   20.0600 N   0  0  0  0  0  0  0  0  0  0  0  0
  -31.6040  -15.4070   19.7830 O   0  0  0  0  0  0  0  0  0  0  0  0
  -29.5530  -16.5350   20.2960 N   0  0  0  0  0  0  0  0  0  0  0  0
  -28.6430  -16.1720   20.5340 H   0  0  0  0  0  0  0  0  0  0  0  0
  -25.2460  -13.9180   20.5100 C   0  0  0  0  0  0  0  0  0  0  0  0
  -24.2030  -13.1280   20.9060 C   0  0  0  0  0  0  0  0  0  0  0  0
  -24.6710  -11.7810   20.8160 C   0  0  0  0  0  0  0  0  0  0  0  0
  -26.2790  -13.0540   20.1970 N   0  0  0  0  0  0  0  0  0  0  0  0
  -25.9490  -11.7600   20.4480 N   0  0  0  0  0  0  0  0  0  0  0  0
  -23.9560  -10.5110   21.0010 C   0  0  0  0  0  0  0  0  0  0  0  0
  -24.4000   -9.5400   21.9250 C   0  0  0  0  0  3  0  0  0  0  0  0
  -23.6820   -8.3360   22.1000 C   0  0  0  0  0  3  0  0  0  0  0  0
  -22.5050   -8.0970   21.3510 C   0  0  0  0  0  0  0  0  0  0  0  0
  -22.0800   -9.0580   20.4170 C   0  0  0  0  0  3  0  0  0  0  0  0
  -22.7990  -10.2520   20.2400 C   0  0  0  0  0  3  0  0  0  0  0  0
  -21.7570   -6.9470   21.4360 O   0  0  0  0  0  0  0  0  0  0  0  0
  -21.6790   -6.2250   22.5990 C   0  0  0  0  0  0  0  0  0  0  0  0
  -21.1750   -6.7860   23.7920 C   0  0  0  0  0  3  0  0  0  0  0  0
  -21.0450   -5.9880   24.9460 C   0  0  0  0  0  3  0  0  0  0  0  0
  -21.4100   -4.6300   24.9080 C   0  0  0  0  0  0  0  0  0  0  0  0
  -21.9070   -4.0670   23.7190 C   0  0  0  0  0  3  0  0  0  0  0  0
  -22.0380   -4.8630   22.5670 C   0  0  0  0  0  0  0  0  0  0  0  0
  -22.4970   -4.3100   21.4190 F   0  0  0  0  0  0  0  0  0  0  0  0
  -21.2790   -3.8600   26.0150 F   0  0  0  0  0  0  0  0  0  0  0  0
  -22.8170  -13.5920   21.2450 C   0  0  0  0  0  0  0  0  0  0  0  0
  -22.1290  -12.8750   22.1260 N   0  0  0  0  0  0  0  0  0  0  0  0
  -22.3560  -14.6280   20.7660 O   0  0  0  0  0  0  0  0  0  0  0  0
  -22.5170  -12.0370   22.5330 H   0  0  0  0  0  0  0  0  0  0  0  0
  -21.2010  -13.1670   22.3960 H   0  0  0  0  0  0  0  0  0  0  0  0
  -25.3930  -15.2950   20.3590 N   0  0  0  0  0  0  0  0  0  0  0  0
  -24.6160  -15.9300   20.5010 H   0  0  0  0  0  0  0  0  0  0  0  0
  -26.1890  -15.7400   19.9230 H   0  0  0  0  0  0  0  0  0  0  0  0
  -29.0130  -23.1860   20.2590 C   0  0  0  0  0  2  0  0  0  0  0  0
  -27.8600  -24.3300   20.2980 N   0  0  0  0  0  0  0  0  0  0  0  0
  -27.3380  -24.2150   21.1630 H   0  0  0  0  0  0  0  0  0  0  0  0
  -28.2380  -25.9820   20.2400 O   0  0  0  0  0  0  0  0  0  0  0  0
  -24.6700  -31.9190   23.2550 C   0  0  0  0  0  0  0  0  0  0  0  0
  -27.1990  -27.0460   20.2330 C   0  0  0  0  0  0  0  0  0  0  0  0
  -23.4620  -30.5270   21.6220 C   0  0  0  0  0  3  0  0  0  0  0  0
  -24.8980  -28.9150   20.1960 C   0  0  0  0  0  0  0  0  0  0  0  0
  -26.0260  -30.7330   21.4640 C   0  0  0  0  0  2  0  0  0  0  0  0
  -26.0870  -29.3220   20.8150 C   0  0  0  0  0  0  0  0  0  0  0  0
  -27.2280  -28.4050   20.8150 C   0  0  0  0  0  3  0  0  0  0  0  0
  -25.9840  -26.7880   19.5610 C   0  0  0  0  0  3  0  0  0  0  0  0
  -24.8690  -27.6670   19.5500 C   0  0  0  0  0  3  0  0  0  0  0  0
  -23.6820  -29.8390   20.2460 C   0  0  0  0  0  2  0  0  0  0  0  0
  -24.7410  -31.0870   22.1670 N   0  0  0  0  0  0  0  0  0  0  0  0
  -23.5840  -32.2140   23.7820 O   0  0  0  0  0  0  0  0  0  0  0  0
  -22.7710  -29.5340   22.5920 C   0  0  0  0  0  0  0  0  0  0  0  0
  -21.4430  -29.3560   22.4590 N   0  0  0  0  0  0  0  0  0  0  0  0
  -23.4360  -28.9220   23.4320 O   0  0  0  0  0  0  0  0  0  0  0  0
  -20.9590  -29.9000   21.7580 H   0  0  0  0  0  0  0  0  0  0  0  0
  -18.0660  -28.1310   22.9630 C   0  0  0  0  0  0  0  0  0  0  0  0
  -20.6230  -28.4190   23.2350 C   0  0  0  0  0  3  0  0  0  0  0  0
  -20.7380  -26.9840   22.6710 C   0  0  0  0  0  2  0  0  0  0  0  0
  -19.6420  -26.6450   21.6550 C   0  0  0  0  0  2  0  0  0  0  0  0
  -18.2570  -26.7800   22.2920 C   0  0  0  0  0  2  0  0  0  0  0  0
  -19.1770  -28.9070   23.3900 C   0  0  0  0  0  0  0  0  0  0  0  0
  -18.9420  -30.1670   23.9800 C   0  0  0  0  0  3  0  0  0  0  0  0
  -17.6320  -30.6540   24.1450 C   0  0  0  0  0  3  0  0  0  0  0  0
  -16.5370  -29.8770   23.7300 C   0  0  0  0  0  3  0  0  0  0  0  0
  -16.7540  -28.6170   23.1450 C   0  0  0  0  0  3  0  0  0  0  0  0
  -25.9470  -32.5580   23.8800 C   0  0  0  0  0  3  0  0  0  0  0  0
  -25.6350  -33.9570   24.2190 N   0  0  0  0  0  0  0  0  0  0  0  0
  -25.9380  -35.0180   23.4580 C   0  0  0  0  0  0  0  0  0  0  0  0
  -26.5710  -34.9220   22.4050 O   0  0  0  0  0  0  0  0  0  0  0  0
  -25.0670  -34.1050   25.0400 H   0  0  0  0  0  0  0  0  0  0  0  0
  -24.1830  -36.8050   23.1930 C   0  0  0  0  0  1  0  0  0  0  0  0
  -25.4660  -36.4050   23.9400 C   0  0  0  0  0  3  0  0  0  0  0  0
  -27.6260  -37.3160   24.6750 C   0  0  0  0  0  1  0  0  0  0  0  0
  -26.4850  -37.4650   23.7750 N   0  0  0  0  0  0  0  0  0  0  0  0
  -26.0780  -38.3840   23.9290 H   0  0  0  0  0  0  0  0  0  0  0  0
  -26.4580  -31.7910   25.1620 C   0  0  1  0  0  0  0  0  0  0  0  0
  -25.3610  -31.5590   26.2290 C   0  0  0  0  0  1  0  0  0  0  0  0
  -27.0410  -30.4100   24.7840 C   0  0  0  0  0  1  0  0  0  0  0  0
  -27.6090  -32.5840   25.8250 C   0  0  0  0  0  1  0  0  0  0  0  0
  1  2  1  0
  3  5  1  0
  4 46  1  0
  4  1  2  0
  5 16  1  0
  5  2  2  0
  6  3  2  0
  6  4  1  0
  7  6  1  0
  8 16  1  0
  9 14  1  0
 10 11  1  0
 10  9  1  0
 12 11  1  0
 12 21  1  0
 12 13  1  0
 14  8  1  0
 14 13  1  0
 15  8  2  0
 16 17  1  0
 18 19  2  0
 19 38  1  0
 20 19  1  0
 20 23  1  0
 21 22  1  0
 21 18  1  0
 22 20  2  0
 23 24  1  0
 24 25  2  0
 26 29  1  0
 26 25  1  0
 27 26  2  0
 28 27  1  0
 28 23  2  0
 29 30  1  0
 30 31  1  0
 31 32  2  0
 33 32  1  0
 33 37  1  0
 34 33  2  0
 35 30  2  0
 35 34  1  0
 36 35  1  0
 38 39  1  0
 39 42  1  0
 39 41  1  0
 40 38  2  0
 43 44  1  0
 43 18  1  0
 45 43  1  0
 46 47  1  0
 47 48  1  0
 49 47  1  0
 50 61  2  0
 51 49  1  0
 51 56  1  0
 52 60  1  0
 52 62  1  0
 53 59  1  0
 53 55  1  0
 54 60  1  0
 55 54  1  0
 56 55  2  0
 57 51  2  0
 58 57  1  0
 58 53  2  0
 59 52  1  0
 60 50  1  0
 62 64  2  0
 63 62  1  0
 65 63  1  0
 66 75  2  0
 66 71  1  0
 67 63  1  0
 67 71  1  0
 68 67  1  0
 69 70  1  0
 69 68  1  0
 70 66  1  0
 71 72  2  0
 72 73  1  0
 74 73  2  0
 75 74  1  0
 76 50  1  0
 76 77  1  0
 76 86  1  0
 77 80  1  0
 78 82  1  0
 78 77  1  0
 79 78  2  0
 82 81  1  0
 84 85  1  0
 84 82  1  0
 84 83  1  0
 86 89  1  1
 86 87  1  0
 88 86  1  0
M  ISO  4   8 100  16 100  47 101  49 101
M  END
>  <TORSDO>  (77) 
F 18

>  <SCORE>  (77) 
-16.095

>  <name>  (77) 
76

>  <ligand_id>  (77) 
76

>  <original_smiles>  (77) 
[H]c1c([H])c([H])c2c(c1[H])C([H])([H])C([H])([H])C([H])([H])C2([H])N([H])C(=O)C1([H])N(C(=O)C([H])(N([H])C(=O)C([H])(N([H])C([H])([H])[H])C([H])([H])[H])C(C([H])([H])[H])(C([H])([H])[H])C([H])([H])[H])C([H])([H])c2c([H])c(ON([H])C([H])([H])c3c([H])c([H])c(N([H])C(=O)N4C([H])([H])C([H])([H])C([H])([H])C([H])(n5nc(-c6c([H])c([H])c(Oc7c([H])c([H])c(F)c([H])c7F)c([H])c6[H])c(C(=O)N([H])[H])c5N([H])[H])C4([H])[H])c([H])c3F)c([H])c([H])c2C1([H])[H]

>  <smiles>  (77) 
[H]c1c([H])c([H])c2c(c1[H])C([H])([H])C([H])([H])C([H])([H])C2([H])N([H])C(=O)C1([H])N(C(=O)C([H])(N([H])C(=O)C([H])(N([H])C([H])([H])[H])C([H])([H])[H])C(C([H])([H])[H])(C([H])([H])[H])C([H])([H])[H])C([H])([H])c2c([H])c(ON([H])C([H])([H])c3c([H])c([H])c(N([H])C(=O)N4C([H])([H])C([H])([H])C([H])([H])C([H])(n5nc(-c6c([H])c([H])c(Oc7c([H])c([H])c(F)c([H])c7F)c([H])c6[H])c(C(=O)N([H])[H])c5N([H])[H])C4([H])[H])c([H])c3F)c([H])c([H])c2C1([H])[H]

$$$$
77:0:0
     RDKit          3D

 89 97  0  0  1  0  0  0  0  0999 V2000
  -30.6180  -18.5840   20.2340 C   0  0  0  0  0  3  0  0  0  0  0  0
  -30.3220  -20.0210   20.1180 C   0  0  0  0  0  3  0  0  0  0  0  0
  -28.3230  -18.1100   19.9970 C   0  0  0  0  0  3  0  0  0  0  0  0
  -29.6220  -17.5390   20.1790 C   0  0  0  0  0  0  0  0  0  0  0  0
  -28.9990  -20.5680   19.9200 C   0  0  0  0  0  0  0  0  0  0  0  0
  -28.0300  -19.5160   19.8660 C   0  0  0  0  0  0  0  0  0  0  0  0
  -26.7350  -19.8670   19.6790 F   0  0  0  0  0  0  0  0  0  0  0  0
  -30.5800  -14.9230   20.0660 C   0  0  0  0  0  0  0  0  0  0  0  0
  -30.4510  -12.5660   19.1460 C   0  0  0  0  0  2  0  0  0  0  0  0
  -29.4680  -12.5400   17.9490 C   0  0  0  0  0  2  0  0  0  0  0  0
  -28.0140  -12.3550   18.4280 C   0  0  0  0  0  2  0  0  0  0  0  0
  -27.6620  -13.2860   19.6170 C   0  0  0  0  0  3  0  0  0  0  0  0
  -28.7540  -13.2570   20.7090 C   0  0  0  0  0  2  0  0  0  0  0  0
  -30.0190  -13.6500   20.0680 N   0  0  0  0  0  0  0  0  0  0  0  0
  -31.7560  -15.0460   19.7010 O   0  0  0  0  0  0  0  0  0  0  0  0
  -29.7160  -16.0150   20.3160 N   0  0  0  0  0  0  0  0  0  0  0  0
  -28.8300  -15.6250   20.5980 H   0  0  0  0  0  0  0  0  0  0  0  0
  -25.3230  -13.9140   20.4530 C   0  0  0  0  0  0  0  0  0  0  0  0
  -24.2550  -13.1600   20.8530 C   0  0  0  0  0  0  0  0  0  0  0  0
  -24.6820  -11.7990   20.7750 C   0  0  0  0  0  0  0  0  0  0  0  0
  -26.3340  -13.0150   20.1560 N   0  0  0  0  0  0  0  0  0  0  0  0
  -25.9580  -11.7360   20.4130 N   0  0  0  0  0  0  0  0  0  0  0  0
  -23.9310  -10.5510   20.9660 C   0  0  0  0  0  0  0  0  0  0  0  0
  -24.3600   -9.5610   21.8760 C   0  0  0  0  0  3  0  0  0  0  0  0
  -23.6090   -8.3800   22.0560 C   0  0  0  0  0  3  0  0  0  0  0  0
  -22.4150   -8.1800   21.3260 C   0  0  0  0  0  0  0  0  0  0  0  0
  -22.0020   -9.1580   20.4040 C   0  0  0  0  0  3  0  0  0  0  0  0
  -22.7540  -10.3310   20.2210 C   0  0  0  0  0  3  0  0  0  0  0  0
  -21.6350   -7.0520   21.4170 O   0  0  0  0  0  0  0  0  0  0  0  0
  -21.5790   -6.3060   22.5670 C   0  0  0  0  0  0  0  0  0  0  0  0
  -21.1440   -6.8560   23.7920 C   0  0  0  0  0  3  0  0  0  0  0  0
  -21.0370   -6.0370   24.9340 C   0  0  0  0  0  3  0  0  0  0  0  0
  -21.3540   -4.6680   24.8510 C   0  0  0  0  0  0  0  0  0  0  0  0
  -21.7830   -4.1170   23.6300 C   0  0  0  0  0  3  0  0  0  0  0  0
  -21.8920   -4.9330   22.4910 C   0  0  0  0  0  0  0  0  0  0  0  0
  -22.2850   -4.3930   21.3120 F   0  0  0  0  0  0  0  0  0  0  0  0
  -21.2440   -3.8790   25.9450 F   0  0  0  0  0  0  0  0  0  0  0  0
  -22.8820  -13.6670   21.1860 C   0  0  0  0  0  0  0  0  0  0  0  0
  -22.1720  -12.9770   22.0720 N   0  0  0  0  0  0  0  0  0  0  0  0
  -22.4480  -14.7080   20.6950 O   0  0  0  0  0  0  0  0  0  0  0  0
  -22.5360  -12.1340   22.4910 H   0  0  0  0  0  0  0  0  0  0  0  0
  -21.2520  -13.2980   22.3390 H   0  0  0  0  0  0  0  0  0  0  0  0
  -25.5110  -15.2840   20.2900 N   0  0  0  0  0  0  0  0  0  0  0  0
  -24.7430  -15.9360   20.4050 H   0  0  0  0  0  0  0  0  0  0  0  0
  -26.3000  -15.6870   19.8030 H   0  0  0  0  0  0  0  0  0  0  0  0
  -28.5040  -21.9350   19.7320 O   0  0  0  0  0  0  0  0  0  0  0  0
  -29.0950  -23.3350   19.9090 C   0  0  0  0  0  3  0  0  0  0  0  0
  -28.1160  -24.6810   19.6400 C   0  0  0  0  0  3  0  0  0  0  0  0
  -28.3620  -26.1910   19.9150 O   0  0  0  0  0  0  0  0  0  0  0  0
  -24.5360  -31.6270   23.0850 C   0  0  0  0  0  0  0  0  0  0  0  0
  -27.2770  -27.1420   19.8750 C   0  0  0  0  0  0  0  0  0  0  0  0
  -23.3960  -30.2890   21.3560 C   0  0  0  0  0  3  0  0  0  0  0  0
  -24.9060  -28.8230   19.8830 C   0  0  0  0  0  0  0  0  0  0  0  0
  -25.9460  -30.6220   21.2520 C   0  0  0  0  0  2  0  0  0  0  0  0
  -26.0640  -29.2680   20.5340 C   0  0  0  0  0  0  0  0  0  0  0  0
  -27.2500  -28.4450   20.5130 C   0  0  0  0  0  3  0  0  0  0  0  0
  -26.0890  -26.7970   19.1910 C   0  0  0  0  0  3  0  0  0  0  0  0
  -24.9310  -27.6010   19.1980 C   0  0  0  0  0  3  0  0  0  0  0  0
  -23.6570  -29.6880   19.9500 C   0  0  0  0  0  2  0  0  0  0  0  0
  -24.6450  -30.8640   21.9540 N   0  0  0  0  0  0  0  0  0  0  0  0
  -23.4340  -31.8620   23.6050 O   0  0  0  0  0  0  0  0  0  0  0  0
  -22.7240  -29.2200   22.2530 C   0  0  0  0  0  0  0  0  0  0  0  0
  -21.3950  -29.0550   22.1190 N   0  0  0  0  0  0  0  0  0  0  0  0
  -23.3990  -28.5440   23.0340 O   0  0  0  0  0  0  0  0  0  0  0  0
  -20.9070  -29.6540   21.4680 H   0  0  0  0  0  0  0  0  0  0  0  0
  -18.0080  -27.8640   22.6020 C   0  0  0  0  0  0  0  0  0  0  0  0
  -20.5770  -28.0710   22.8320 C   0  0  0  0  0  3  0  0  0  0  0  0
  -20.6440  -26.6870   22.1430 C   0  0  0  0  0  2  0  0  0  0  0  0
  -19.5160  -26.4610   21.1320 C   0  0  0  0  0  2  0  0  0  0  0  0
  -18.1500  -26.5720   21.8170 C   0  0  0  0  0  2  0  0  0  0  0  0
  -19.1480  -28.5760   23.0650 C   0  0  0  0  0  0  0  0  0  0  0  0
  -18.9590  -29.7890   23.7640 C   0  0  0  0  0  3  0  0  0  0  0  0
  -17.6650  -30.2900   24.0000 C   0  0  0  0  0  3  0  0  0  0  0  0
  -16.5420  -29.5740   23.5510 C   0  0  0  0  0  3  0  0  0  0  0  0
  -16.7140  -28.3630   22.8590 C   0  0  0  0  0  3  0  0  0  0  0  0
  -25.7880  -32.2560   23.7670 C   0  0  0  0  0  3  0  0  0  0  0  0
  -26.2640  -31.4600   25.0450 C   0  0  1  0  0  0  0  0  0  0  0  0
  -25.1360  -31.1940   26.0690 C   0  0  0  0  0  1  0  0  0  0  0  0
  -26.8680  -30.0930   24.6470 C   0  0  0  0  0  1  0  0  0  0  0  0
  -27.3860  -32.2460   25.7630 C   0  0  0  0  0  1  0  0  0  0  0  0
  -25.4530  -33.6440   24.1230 N   0  0  0  0  0  0  0  0  0  0  0  0
  -25.7720  -34.7190   23.3900 C   0  0  0  0  0  0  0  0  0  0  0  0
  -26.4450  -34.6480   22.3590 O   0  0  0  0  0  0  0  0  0  0  0  0
  -24.8550  -33.7720   24.9260 H   0  0  0  0  0  0  0  0  0  0  0  0
  -24.0050  -36.4870   23.0910 C   0  0  0  0  0  1  0  0  0  0  0  0
  -25.2650  -36.0920   23.8780 C   0  0  0  0  0  3  0  0  0  0  0  0
  -27.3890  -37.0120   24.7010 C   0  0  0  0  0  1  0  0  0  0  0  0
  -26.2770  -37.1660   23.7680 N   0  0  0  0  0  0  0  0  0  0  0  0
  -25.8530  -38.0770   23.9260 H   0  0  0  0  0  0  0  0  0  0  0  0
  2  1  2  0
  3  4  2  0
  4  1  1  0
  4 16  1  0
  5  2  1  0
  6  5  2  0
  6  3  1  0
  7  6  1  0
  8 14  1  0
  8 16  1  0
  9 14  1  0
 10 11  1  0
 10  9  1  0
 12 11  1  0
 12 21  1  0
 12 13  1  0
 14 13  1  0
 15  8  2  0
 16 17  1  0
 18 19  2  0
 19 38  1  0
 20 19  1  0
 20 23  1  0
 21 22  1  0
 21 18  1  0
 22 20  2  0
 23 24  1  0
 24 25  2  0
 26 29  1  0
 26 25  1  0
 27 26  2  0
 28 27  1  0
 28 23  2  0
 29 30  1  0
 30 31  1  0
 31 32  2  0
 33 32  1  0
 33 37  1  0
 34 33  2  0
 35 30  2  0
 35 34  1  0
 36 35  1  0
 38 39  1  0
 39 42  1  0
 39 41  1  0
 40 38  2  0
 43 44  1  0
 43 18  1  0
 45 43  1  0
 46 47  1  0
 46  5  1  0
 48 47  2  0
 48 49  1  0
 50 61  2  0
 51 49  1  0
 51 56  1  0
 52 60  1  0
 52 62  1  0
 53 59  1  0
 53 55  1  0
 54 60  1  0
 55 54  1  0
 56 55  2  0
 57 58  1  0
 57 51  2  0
 58 53  2  0
 59 52  1  0
 60 50  1  0
 62 64  2  0
 63 62  1  0
 65 63  1  0
 66 75  2  0
 66 71  1  0
 67 63  1  0
 67 71  1  0
 68 67  1  0
 69 70  1  0
 69 68  1  0
 70 66  1  0
 71 72  2  0
 72 73  1  0
 74 73  2  0
 75 74  1  0
 76 50  1  0
 76 81  1  0
 76 77  1  0
 77 80  1  1
 77 78  1  0
 79 77  1  0
 81 84  1  0
 82 86  1  0
 82 81  1  0
 83 82  2  0
 86 85  1  0
 88 86  1  0
 88 89  1  0
 88 87  1  0
M  ISO  4   8 100  16 100  48 101  49 101
M  END
>  <TORSDO>  (78) 
F 19

>  <SCORE>  (78) 
-13.742

>  <name>  (78) 
77

>  <ligand_id>  (78) 
77

>  <original_smiles>  (78) 
[H]c1c([H])c([H])c2c(c1[H])C([H])([H])C([H])([H])C([H])([H])C2([H])N([H])C(=O)C1([H])N(C(=O)C([H])(N([H])C(=O)C([H])(N([H])C([H])([H])[H])C([H])([H])[H])C(C([H])([H])[H])(C([H])([H])[H])C([H])([H])[H])C([H])([H])c2c([H])c(OC([H])([H])C([H])([H])Oc3c([H])c([H])c(N([H])C(=O)N4C([H])([H])C([H])([H])C([H])([H])C([H])(n5nc(-c6c([H])c([H])c(Oc7c([H])c([H])c(F)c([H])c7F)c([H])c6[H])c(C(=O)N([H])[H])c5N([H])[H])C4([H])[H])c([H])c3F)c([H])c([H])c2C1([H])[H]

>  <smiles>  (78) 
[H]c1c([H])c([H])c2c(c1[H])C([H])([H])C([H])([H])C([H])([H])C2([H])N([H])C(=O)C1([H])N(C(=O)C([H])(N([H])C(=O)C([H])(N([H])C([H])([H])[H])C([H])([H])[H])C(C([H])([H])[H])(C([H])([H])[H])C([H])([H])[H])C([H])([H])c2c([H])c(OC([H])([H])C([H])([H])Oc3c([H])c([H])c(N([H])C(=O)N4C([H])([H])C([H])([H])C([H])([H])C([H])(n5nc(-c6c([H])c([H])c(Oc7c([H])c([H])c(F)c([H])c7F)c([H])c6[H])c(C(=O)N([H])[H])c5N([H])[H])C4([H])[H])c([H])c3F)c([H])c([H])c2C1([H])[H]

$$$$
78:0:0
     RDKit          3D

 92100  0  0  1  0  0  0  0  0999 V2000
  -28.9640  -21.5520   20.6720 C   0  0  0  0  0  2  0  0  0  0  0  0
  -30.3740  -19.4430   19.6870 C   0  0  0  0  0  3  0  0  0  0  0  0
  -30.5820  -18.0180   19.6060 C   0  0  0  0  0  3  0  0  0  0  0  0
  -28.4940  -19.0710   21.1240 C   0  0  0  0  0  3  0  0  0  0  0  0
  -29.3040  -20.0140   20.4450 C   0  0  0  0  0  0  0  0  0  0  0  0
  -28.7050  -17.6660   21.0730 C   0  0  0  0  0  0  0  0  0  0  0  0
  -29.7480  -17.0870   20.2990 C   0  0  0  0  0  0  0  0  0  0  0  0
  -27.7900  -16.7730   21.8980 C   0  0  0  0  0  1  0  0  0  0  0  0
  -30.5170  -14.6410   19.6210 C   0  0  0  0  0  0  0  0  0  0  0  0
  -30.1470  -12.4680   18.4530 C   0  0  0  0  0  2  0  0  0  0  0  0
  -29.0520  -12.6780   17.3810 C   0  0  0  0  0  2  0  0  0  0  0  0
  -27.6420  -12.5230   17.9860 C   0  0  0  0  0  2  0  0  0  0  0  0
  -27.4730  -13.3110   19.3110 C   0  0  0  0  0  3  0  0  0  0  0  0
  -28.6580  -13.0500   20.2690 C   0  0  0  0  0  2  0  0  0  0  0  0
  -29.8940  -13.4190   19.5540 N   0  0  0  0  0  0  0  0  0  0  0  0
  -31.5980  -14.8460   19.0580 O   0  0  0  0  0  0  0  0  0  0  0  0
  -29.7950  -15.6180   20.2570 N   0  0  0  0  0  0  0  0  0  0  0  0
  -29.0280  -15.2030   20.7640 H   0  0  0  0  0  0  0  0  0  0  0  0
  -25.2180  -13.9290   20.3760 C   0  0  0  0  0  0  0  0  0  0  0  0
  -24.1760  -13.1650   20.8290 C   0  0  0  0  0  0  0  0  0  0  0  0
  -24.5670  -11.8070   20.6230 C   0  0  0  0  0  0  0  0  0  0  0  0
  -26.1840  -13.0360   19.9420 N   0  0  0  0  0  0  0  0  0  0  0  0
  -25.8030  -11.7480   20.1430 N   0  0  0  0  0  0  0  0  0  0  0  0
  -23.8090  -10.5610   20.7960 C   0  0  0  0  0  0  0  0  0  0  0  0
  -24.2820   -9.5190   21.6230 C   0  0  0  0  0  3  0  0  0  0  0  0
  -23.5280   -8.3380   21.7860 C   0  0  0  0  0  3  0  0  0  0  0  0
  -22.2860   -8.1920   21.1240 C   0  0  0  0  0  0  0  0  0  0  0  0
  -21.8310   -9.2230   20.2830 C   0  0  0  0  0  3  0  0  0  0  0  0
  -22.5850  -10.3950   20.1170 C   0  0  0  0  0  3  0  0  0  0  0  0
  -21.4960   -7.0700   21.2050 O   0  0  0  0  0  0  0  0  0  0  0  0
  -21.4800   -6.2810   22.3270 C   0  0  0  0  0  0  0  0  0  0  0  0
  -21.1590   -6.8020   23.6010 C   0  0  0  0  0  3  0  0  0  0  0  0
  -21.0880   -5.9420   24.7150 C   0  0  0  0  0  3  0  0  0  0  0  0
  -21.3280   -4.5630   24.5580 C   0  0  0  0  0  0  0  0  0  0  0  0
  -21.6410   -4.0430   23.2890 C   0  0  0  0  0  3  0  0  0  0  0  0
  -21.7160   -4.9000   22.1770 C   0  0  0  0  0  0  0  0  0  0  0  0
  -21.9980   -4.3900   20.9550 F   0  0  0  0  0  0  0  0  0  0  0  0
  -21.2520   -3.7370   25.6260 F   0  0  0  0  0  0  0  0  0  0  0  0
  -22.8520  -13.6690   21.3270 C   0  0  0  0  0  0  0  0  0  0  0  0
  -22.2240  -12.9410   22.2460 N   0  0  0  0  0  0  0  0  0  0  0  0
  -22.3870  -14.7400   20.9370 O   0  0  0  0  0  0  0  0  0  0  0  0
  -22.6110  -12.0710   22.5810 H   0  0  0  0  0  0  0  0  0  0  0  0
  -21.3440  -13.2630   22.6210 H   0  0  0  0  0  0  0  0  0  0  0  0
  -25.4090  -15.3010   20.2620 N   0  0  0  0  0  0  0  0  0  0  0  0
  -24.6130  -15.9210   20.3710 H   0  0  0  0  0  0  0  0  0  0  0  0
  -26.1240  -15.6870   19.6590 H   0  0  0  0  0  0  0  0  0  0  0  0
  -29.3810  -22.6380   19.7070 N   0  0  0  0  0  4  0  0  0  0  0  0
  -29.4260  -22.1840   18.8100 H   0  0  0  0  0  0  0  0  0  0  0  0
  -30.3220  -22.9260   19.9250 H   0  0  0  0  0  0  0  0  0  0  0  0
  -28.4940  -23.8770   19.4890 C   0  0  0  0  0  2  0  0  0  0  0  0
  -28.5650  -25.1300   20.4740 C   0  0  0  0  0  2  0  0  0  0  0  0
  -28.5050  -26.5120   19.9300 O   0  0  0  0  0  0  0  0  0  0  0  0
  -24.4570  -31.6480   23.0120 C   0  0  0  0  0  0  0  0  0  0  0  0
  -27.3180  -27.2540   19.9540 C   0  0  0  0  0  0  0  0  0  0  0  0
  -23.3370  -30.2090   21.3410 C   0  0  0  0  0  3  0  0  0  0  0  0
  -24.8750  -28.7350   19.9240 C   0  0  0  0  0  0  0  0  0  0  0  0
  -25.8550  -30.6550   21.1840 C   0  0  0  0  0  2  0  0  0  0  0  0
  -26.0100  -29.2860   20.5310 C   0  0  0  0  0  0  0  0  0  0  0  0
  -27.2360  -28.5610   20.5260 C   0  0  0  0  0  3  0  0  0  0  0  0
  -26.1600  -26.7420   19.3350 C   0  0  0  0  0  3  0  0  0  0  0  0
  -24.9510  -27.4690   19.3170 C   0  0  0  0  0  3  0  0  0  0  0  0
  -23.6000  -29.5530   19.9580 C   0  0  0  0  0  2  0  0  0  0  0  0
  -24.5670  -30.8560   21.9040 N   0  0  0  0  0  0  0  0  0  0  0  0
  -23.3580  -31.8680   23.5410 O   0  0  0  0  0  0  0  0  0  0  0  0
  -22.7130  -29.1560   22.2870 C   0  0  0  0  0  0  0  0  0  0  0  0
  -21.3990  -28.9140   22.1400 N   0  0  0  0  0  0  0  0  0  0  0  0
  -23.4120  -28.5600   23.1090 O   0  0  0  0  0  0  0  0  0  0  0  0
  -20.8950  -29.4550   21.4510 H   0  0  0  0  0  0  0  0  0  0  0  0
  -18.0780  -27.5440   22.5670 C   0  0  0  0  0  0  0  0  0  0  0  0
  -20.6150  -27.9320   22.8890 C   0  0  0  0  0  3  0  0  0  0  0  0
  -20.8010  -26.5120   22.3060 C   0  0  0  0  0  2  0  0  0  0  0  0
  -19.7350  -26.1420   21.2680 C   0  0  0  0  0  2  0  0  0  0  0  0
  -18.3360  -26.2090   21.8880 C   0  0  0  0  0  2  0  0  0  0  0  0
  -19.1490  -28.3580   23.0230 C   0  0  0  0  0  0  0  0  0  0  0  0
  -18.8550  -29.6040   23.6210 C   0  0  0  0  0  3  0  0  0  0  0  0
  -17.5240  -30.0370   23.7660 C   0  0  0  0  0  3  0  0  0  0  0  0
  -16.4680  -29.2180   23.3300 C   0  0  0  0  0  3  0  0  0  0  0  0
  -16.7450  -27.9750   22.7340 C   0  0  0  0  0  3  0  0  0  0  0  0
  -25.7050  -32.3300   23.6560 C   0  0  0  0  0  3  0  0  0  0  0  0
  -26.2750  -31.5390   24.8970 C   0  0  1  0  0  0  0  0  0  0  0  0
  -25.2040  -31.1860   25.9540 C   0  0  0  0  0  1  0  0  0  0  0  0
  -26.9470  -30.2230   24.4420 C   0  0  0  0  0  1  0  0  0  0  0  0
  -27.3700  -32.3800   25.5940 C   0  0  0  0  0  1  0  0  0  0  0  0
  -25.3170  -33.6930   24.0480 N   0  0  0  0  0  0  0  0  0  0  0  0
  -25.5780  -34.7950   23.3320 C   0  0  0  0  0  0  0  0  0  0  0  0
  -26.2390  -34.7740   22.2900 O   0  0  0  0  0  0  0  0  0  0  0  0
  -24.7320  -33.7780   24.8660 H   0  0  0  0  0  0  0  0  0  0  0  0
  -23.7470  -36.4980   23.0580 C   0  0  0  0  0  1  0  0  0  0  0  0
  -25.0110  -36.1310   23.8520 C   0  0  0  0  0  3  0  0  0  0  0  0
  -27.0920  -37.1010   24.7190 C   0  0  0  0  0  1  0  0  0  0  0  0
  -25.9790  -37.2460   23.7850 N   0  0  0  0  0  0  0  0  0  0  0  0
  -25.5220  -38.1340   23.9710 H   0  0  0  0  0  0  0  0  0  0  0  0
  2  5  1  0
  3  2  2  0
  3  7  1  0
  5  1  1  0
  5  4  2  0
  6  4  1  0
  6  8  1  0
  7  6  2  0
  9 17  1  0
 10 15  1  0
 11 12  1  0
 11 10  1  0
 13 12  1  0
 13 22  1  0
 13 14  1  0
 15  9  1  0
 15 14  1  0
 16  9  2  0
 17  7  1  0
 17 18  1  0
 19 20  2  0
 20 39  1  0
 21 24  1  0
 21 20  1  0
 22 23  1  0
 22 19  1  0
 23 21  2  0
 24 25  1  0
 25 26  2  0
 27 30  1  0
 27 26  1  0
 28 27  2  0
 29 28  1  0
 29 24  2  0
 30 31  1  0
 31 32  1  0
 32 33  2  0
 34 33  1  0
 34 38  1  0
 35 34  2  0
 36 31  2  0
 36 35  1  0
 37 36  1  0
 39 40  1  0
 40 42  1  0
 40 43  1  0
 41 39  2  0
 44 45  1  0
 44 19  1  0
 46 44  1  0
 47 49  1  0
 47  1  1  0
 48 47  1  0
 50 47  1  0
 50 51  1  0
 52 54  1  0
 52 51  1  0
 53 64  2  0
 54 59  1  0
 55 63  1  0
 55 65  1  0
 56 62  1  0
 56 58  1  0
 57 63  1  0
 58 57  1  0
 59 58  2  0
 60 54  2  0
 61 60  1  0
 61 56  2  0
 62 55  1  0
 63 53  1  0
 65 67  2  0
 66 65  1  0
 68 66  1  0
 69 78  2  0
 69 74  1  0
 70 66  1  0
 70 74  1  0
 71 70  1  0
 72 73  1  0
 72 71  1  0
 73 69  1  0
 74 75  2  0
 75 76  1  0
 77 76  2  0
 78 77  1  0
 79 53  1  0
 79 84  1  0
 79 80  1  0
 80 83  1  1
 80 81  1  0
 82 80  1  0
 84 87  1  0
 85 89  1  0
 85 84  1  0
 86 85  2  0
 89 88  1  0
 91 89  1  0
 91 92  1  0
 91 90  1  0
M  ISO  4   9 100  17 100  51 101  52 101
M  END
>  <TORSDO>  (79) 
F 20

>  <SCORE>  (79) 
-8.481

>  <name>  (79) 
78

>  <ligand_id>  (79) 
78

>  <original_smiles>  (79) 
[H]c1c([H])c([H])c2c(c1[H])C([H])([H])C([H])([H])C([H])([H])C2([H])N([H])C(=O)C1([H])N(C(=O)C([H])(N([H])C(=O)C([H])(N([H])C([H])([H])[H])C([H])([H])[H])C(C([H])([H])[H])(C([H])([H])[H])C([H])([H])[H])C([H])([H])c2c([H])c(OC([H])([H])C([H])([H])[N+]([H])([H])C([H])([H])c3c([H])c([H])c(N([H])C(=O)N4C([H])([H])C([H])([H])C([H])([H])C([H])(n5nc(-c6c([H])c([H])c(Oc7c([H])c([H])c(F)c([H])c7F)c([H])c6[H])c(C(=O)N([H])[H])c5N([H])[H])C4([H])[H])c(C([H])([H])[H])c3[H])c([H])c([H])c2C1([H])[H]

>  <smiles>  (79) 
[H]c1c([H])c([H])c2c(c1[H])C([H])([H])C([H])([H])C([H])([H])C2([H])N([H])C(=O)C1([H])N(C(=O)C([H])(N([H])C(=O)C([H])(N([H])C([H])([H])[H])C([H])([H])[H])C(C([H])([H])[H])(C([H])([H])[H])C([H])([H])[H])C([H])([H])c2c([H])c(OC([H])([H])C([H])([H])[N+]([H])([H])C([H])([H])c3c([H])c([H])c(N([H])C(=O)N4C([H])([H])C([H])([H])C([H])([H])C([H])(n5nc(-c6c([H])c([H])c(Oc7c([H])c([H])c(F)c([H])c7F)c([H])c6[H])c(C(=O)N([H])[H])c5N([H])[H])C4([H])[H])c(C([H])([H])[H])c3[H])c([H])c([H])c2C1([H])[H]

$$$$
79:0:0
     RDKit          3D

 92101  0  0  1  0  0  0  0  0999 V2000
  -30.7630  -14.6680   20.4160 C   0  0  0  0  0  0  0  0  0  0  0  0
  -30.4950  -12.3840   19.4650 C   0  0  0  0  0  2  0  0  0  0  0  0
  -29.5720  -12.4280   18.2290 C   0  0  0  0  0  2  0  0  0  0  0  0
  -28.0920  -12.3050   18.6450 C   0  0  0  0  0  2  0  0  0  0  0  0
  -27.7240  -13.2430   19.8290 C   0  0  0  0  0  3  0  0  0  0  0  0
  -28.7720  -13.1250   20.9580 C   0  0  0  0  0  2  0  0  0  0  0  0
  -30.0680  -13.4800   20.3650 N   0  0  0  0  0  0  0  0  0  0  0  0
  -31.9520  -14.6640   20.0840 O   0  0  0  0  0  0  0  0  0  0  0  0
  -28.7000  -20.2440   20.4390 C   0  0  0  0  0  0  0  0  0  0  0  0
  -28.4680  -17.7450   21.1960 C   0  0  0  0  0  2  0  0  0  0  0  0
  -30.3110  -20.7830   18.6450 C   0  0  0  0  0  2  0  0  0  0  0  0
  -29.1470  -16.3630   21.4580 C   0  0  0  0  0  2  0  0  0  0  0  0
  -31.0450  -19.4400   18.9690 C   0  0  0  0  0  2  0  0  0  0  0  0
  -30.8060  -17.0570   19.7680 C   0  0  0  0  0  2  0  0  0  0  0  0
  -29.4290  -18.8750   20.7520 C   0  0  0  0  0  3  0  0  0  0  0  0
  -29.5670  -21.4010   19.8540 C   0  0  0  0  0  3  0  0  0  0  0  0
  -30.0980  -15.8950   20.4140 N   0  0  0  0  0  0  0  0  0  0  0  0
  -30.1360  -18.3920   19.5420 N   0  0  1  0  0  4  0  0  0  0  0  0
  -27.4900  -20.4180   20.6220 O   0  0  0  0  0  0  0  0  0  0  0  0
  -29.4240  -18.2290   18.8460 H   0  0  0  0  0  0  0  0  0  0  0  0
  -25.3550  -13.9180   20.5450 C   0  0  0  0  0  0  0  0  0  0  0  0
  -24.2610  -13.1810   20.9030 C   0  0  0  0  0  0  0  0  0  0  0  0
  -24.6730  -11.8130   20.8570 C   0  0  0  0  0  0  0  0  0  0  0  0
  -26.3680  -13.0040   20.3070 N   0  0  0  0  0  0  0  0  0  0  0  0
  -25.9630  -11.7310   20.5510 N   0  0  0  0  0  0  0  0  0  0  0  0
  -23.9020  -10.5760   21.0300 C   0  0  0  0  0  0  0  0  0  0  0  0
  -24.3240   -9.5620   21.9180 C   0  0  0  0  0  3  0  0  0  0  0  0
  -23.5560   -8.3890   22.0810 C   0  0  0  0  0  3  0  0  0  0  0  0
  -22.3510   -8.2230   21.3570 C   0  0  0  0  0  0  0  0  0  0  0  0
  -21.9480   -9.2270   20.4580 C   0  0  0  0  0  3  0  0  0  0  0  0
  -22.7160  -10.3910   20.2920 C   0  0  0  0  0  3  0  0  0  0  0  0
  -21.5540   -7.1070   21.4330 O   0  0  0  0  0  0  0  0  0  0  0  0
  -21.5360   -6.3100   22.5470 C   0  0  0  0  0  0  0  0  0  0  0  0
  -21.2270   -6.8230   23.8270 C   0  0  0  0  0  3  0  0  0  0  0  0
  -21.1510   -5.9550   24.9340 C   0  0  0  0  0  3  0  0  0  0  0  0
  -21.3750   -4.5750   24.7640 C   0  0  0  0  0  0  0  0  0  0  0  0
  -21.6770   -4.0620   23.4920 C   0  0  0  0  0  3  0  0  0  0  0  0
  -21.7550   -4.9270   22.3860 C   0  0  0  0  0  0  0  0  0  0  0  0
  -22.0250   -4.4240   21.1570 F   0  0  0  0  0  0  0  0  0  0  0  0
  -21.2950   -3.7390   25.8270 F   0  0  0  0  0  0  0  0  0  0  0  0
  -22.8820  -13.7050   21.1780 C   0  0  0  0  0  0  0  0  0  0  0  0
  -22.1310  -13.0320   22.0420 N   0  0  0  0  0  0  0  0  0  0  0  0
  -22.4800  -14.7490   20.6640 O   0  0  0  0  0  0  0  0  0  0  0  0
  -22.4680  -12.1870   22.4790 H   0  0  0  0  0  0  0  0  0  0  0  0
  -21.2060  -13.3660   22.2700 H   0  0  0  0  0  0  0  0  0  0  0  0
  -25.5700  -15.2840   20.3800 N   0  0  0  0  0  0  0  0  0  0  0  0
  -24.8250  -15.9640   20.4890 H   0  0  0  0  0  0  0  0  0  0  0  0
  -26.4310  -15.6880   20.0390 H   0  0  0  0  0  0  0  0  0  0  0  0
  -28.7480  -22.5660   19.4910 O   0  0  0  0  0  0  0  0  0  0  0  0
  -29.2670  -23.9220   19.6790 C   0  0  0  0  0  2  0  0  0  0  0  0
  -28.1770  -25.0280   19.3780 C   0  0  0  0  0  2  0  0  0  0  0  0
  -28.4060  -26.4590   19.6770 O   0  0  0  0  0  0  0  0  0  0  0  0
  -24.6030  -31.6190   23.0030 C   0  0  0  0  0  0  0  0  0  0  0  0
  -27.2720  -27.2900   19.6820 C   0  0  0  0  0  0  0  0  0  0  0  0
  -23.4090  -30.2760   21.3120 C   0  0  0  0  0  3  0  0  0  0  0  0
  -24.8730  -28.8430   19.7910 C   0  0  0  0  0  0  0  0  0  0  0  0
  -25.9390  -30.6620   21.1180 C   0  0  0  0  0  2  0  0  0  0  0  0
  -26.0390  -29.3230   20.4010 C   0  0  0  0  0  0  0  0  0  0  0  0
  -27.2410  -28.5550   20.3430 C   0  0  0  0  0  3  0  0  0  0  0  0
  -26.0800  -26.8720   19.0430 C   0  0  0  0  0  3  0  0  0  0  0  0
  -24.8940  -27.6210   19.1060 C   0  0  0  0  0  3  0  0  0  0  0  0
  -23.6180  -29.6820   19.8970 C   0  0  0  0  0  2  0  0  0  0  0  0
  -24.6700  -30.8670   21.8670 N   0  0  0  0  0  0  0  0  0  0  0  0
  -23.5210  -31.8450   23.5640 O   0  0  0  0  0  0  0  0  0  0  0  0
  -22.7860  -29.1930   22.2260 C   0  0  0  0  0  0  0  0  0  0  0  0
  -21.4600  -29.0070   22.1270 N   0  0  0  0  0  0  0  0  0  0  0  0
  -23.4960  -28.5270   22.9860 O   0  0  0  0  0  0  0  0  0  0  0  0
  -20.9440  -29.5980   21.4900 H   0  0  0  0  0  0  0  0  0  0  0  0
  -18.1090  -27.7600   22.6610 C   0  0  0  0  0  0  0  0  0  0  0  0
  -20.6730  -28.0200   22.8670 C   0  0  0  0  0  3  0  0  0  0  0  0
  -20.7630  -26.6240   22.2050 C   0  0  0  0  0  2  0  0  0  0  0  0
  -19.6320  -26.3560   21.2060 C   0  0  0  0  0  2  0  0  0  0  0  0
  -18.2690  -26.4550   21.8990 C   0  0  0  0  0  2  0  0  0  0  0  0
  -19.2370  -28.5030   23.1010 C   0  0  0  0  0  0  0  0  0  0  0  0
  -19.0310  -29.7260   23.7750 C   0  0  0  0  0  3  0  0  0  0  0  0
  -17.7300  -30.2090   24.0080 C   0  0  0  0  0  3  0  0  0  0  0  0
  -16.6160  -29.4640   23.5830 C   0  0  0  0  0  3  0  0  0  0  0  0
  -16.8070  -28.2400   22.9160 C   0  0  0  0  0  3  0  0  0  0  0  0
  -25.8790  -32.2510   23.6370 C   0  0  0  0  0  3  0  0  0  0  0  0
  -25.5420  -33.6230   24.0410 N   0  0  0  0  0  0  0  0  0  0  0  0
  -25.8240  -34.7190   23.3250 C   0  0  0  0  0  0  0  0  0  0  0  0
  -26.4690  -34.6830   22.2730 O   0  0  0  0  0  0  0  0  0  0  0  0
  -24.9630  -33.7220   24.8630 H   0  0  0  0  0  0  0  0  0  0  0  0
  -24.0310  -36.4690   23.1080 C   0  0  0  0  0  1  0  0  0  0  0  0
  -25.3100  -36.0700   23.8600 C   0  0  0  0  0  3  0  0  0  0  0  0
  -27.4470  -36.9820   24.6550 C   0  0  0  0  0  1  0  0  0  0  0  0
  -26.3050  -37.1590   23.7610 N   0  0  0  0  0  0  0  0  0  0  0  0
  -25.8770  -38.0570   23.9690 H   0  0  0  0  0  0  0  0  0  0  0  0
  -26.4310  -31.4290   24.8670 C   0  0  1  0  0  0  0  0  0  0  0  0
  -25.3620  -31.1250   25.9410 C   0  0  0  0  0  1  0  0  0  0  0  0
  -27.0300  -30.0820   24.4010 C   0  0  0  0  0  1  0  0  0  0  0  0
  -27.5810  -32.2120   25.5440 C   0  0  0  0  0  1  0  0  0  0  0  0
  2  7  1  0
  3  4  1  0
  3  2  1  0
  5  4  1  0
  5 24  1  0
  5  6  1  0
  7  1  1  0
  7  6  1  0
  8  1  2  0
  9 19  2  0
  9 15  1  0
 10 12  1  0
 11 13  1  0
 11 16  1  0
 13 18  1  0
 14 17  1  0
 15 10  1  0
 16 49  1  0
 16  9  1  0
 17  1  1  0
 17 12  1  0
 18 20  1  6
 18 14  1  0
 18 15  1  0
 21 22  2  0
 22 41  1  0
 23 22  1  0
 23 26  1  0
 24 21  1  0
 24 25  1  0
 25 23  2  0
 26 27  1  0
 27 28  2  0
 29 32  1  0
 29 28  1  0
 30 29  2  0
 31 30  1  0
 31 26  2  0
 32 33  1  0
 33 34  1  0
 34 35  2  0
 36 35  1  0
 36 40  1  0
 37 36  2  0
 38 33  2  0
 38 37  1  0
 39 38  1  0
 41 42  1  0
 42 45  1  0
 42 44  1  0
 43 41  2  0
 46 47  1  0
 46 21  1  0
 48 46  1  0
 49 50  1  0
 51 52  1  0
 51 50  1  0
 52 54  1  0
 53 64  2  0
 54 59  1  0
 55 63  1  0
 55 65  1  0
 56 62  1  0
 56 58  1  0
 57 63  1  0
 58 57  1  0
 59 58  2  0
 60 61  1  0
 60 54  2  0
 61 56  2  0
 62 55  1  0
 63 53  1  0
 65 67  2  0
 66 65  1  0
 68 66  1  0
 69 78  2  0
 69 74  1  0
 70 66  1  0
 70 74  1  0
 71 70  1  0
 72 73  1  0
 72 71  1  0
 73 69  1  0
 74 75  2  0
 75 76  1  0
 77 76  2  0
 78 77  1  0
 79 53  1  0
 79 80  1  0
 79 89  1  0
 80 83  1  0
 81 85  1  0
 81 80  1  0
 82 81  2  0
 85 84  1  0
 87 85  1  0
 87 88  1  0
 87 86  1  0
 89 92  1  1
 89 90  1  0
 91 89  1  0
M  ISO  4   1 100  17 100  51 101  52 101
M  END
>  <TORSDO>  (80) 
F 18

>  <SCORE>  (80) 
-12.905

>  <name>  (80) 
79

>  <ligand_id>  (80) 
79

>  <original_smiles>  (80) 
[H]c1c([H])c([H])c2c(c1[H])C([H])([H])C([H])([H])C([H])([H])C2([H])N([H])C(=O)C1([H])N(C(=O)C([H])(N([H])C(=O)C([H])(N([H])C([H])([H])[H])C([H])([H])[H])C(C([H])([H])[H])(C([H])([H])[H])C([H])([H])[H])C([H])([H])c2c([H])c(OC([H])([H])C([H])([H])OC3([H])C(=O)C4([H])C([H])([H])C([H])([H])N(C(=O)N5C([H])([H])C([H])([H])C([H])([H])C([H])(n6nc(-c7c([H])c([H])c(Oc8c([H])c([H])c(F)c([H])c8F)c([H])c7[H])c(C(=O)N([H])[H])c6N([H])[H])C5([H])[H])C([H])([H])[N+]4([H])C([H])([H])C3([H])[H])c([H])c([H])c2C1([H])[H]

>  <smiles>  (80) 
[H]c1c([H])c([H])c2c(c1[H])C([H])([H])C([H])([H])C([H])([H])C2([H])N([H])C(=O)C1([H])N(C(=O)C([H])(N([H])C(=O)C([H])(N([H])C([H])([H])[H])C([H])([H])[H])C(C([H])([H])[H])(C([H])([H])[H])C([H])([H])[H])C([H])([H])c2c([H])c(OC([H])([H])C([H])([H])OC3([H])C(=O)C4([H])C([H])([H])C([H])([H])N(C(=O)N5C([H])([H])C([H])([H])C([H])([H])C([H])(n6nc(-c7c([H])c([H])c(Oc8c([H])c([H])c(F)c([H])c8F)c([H])c7[H])c(C(=O)N([H])[H])c6N([H])[H])C5([H])[H])C([H])([H])[N+]4([H])C([H])([H])C3([H])[H])c([H])c([H])c2C1([H])[H]

$$$$
80:0:0
     RDKit          3D

 89 98  0  0  1  0  0  0  0  0999 V2000
  -30.5730  -15.0630   20.3950 C   0  0  0  0  0  0  0  0  0  0  0  0
  -30.3890  -12.6790   19.5020 C   0  0  0  0  0  2  0  0  0  0  0  0
  -29.4890  -12.5860   18.2480 C   0  0  0  0  0  2  0  0  0  0  0  0
  -28.0250  -12.3770   18.6660 C   0  0  0  0  0  2  0  0  0  0  0  0
  -27.5950  -13.3350   19.8100 C   0  0  0  0  0  3  0  0  0  0  0  0
  -28.6330  -13.4210   20.9520 C   0  0  0  0  0  2  0  0  0  0  0  0
  -29.9100  -13.8230   20.3490 N   0  0  0  0  0  0  0  0  0  0  0  0
  -31.7600  -15.0220   20.0420 O   0  0  0  0  0  0  0  0  0  0  0  0
  -31.1660  -18.5870   21.6600 C   0  0  0  0  0  2  0  0  0  0  0  0
  -30.7720  -17.0590   21.8690 C   0  0  0  0  0  2  0  0  0  0  0  0
  -29.3980  -17.5170   19.9150 C   0  0  0  0  0  2  0  0  0  0  0  0
  -30.1500  -21.1380   21.3300 C   0  0  0  0  0  2  0  0  0  0  0  0
  -28.4800  -20.4220   19.8370 C   0  0  0  0  0  2  0  0  0  0  0  0
  -29.9560  -19.5640   21.5960 C   0  0  0  0  0  3  0  0  0  0  0  0
  -28.9490  -19.0110   20.5790 C   0  0  0  0  0  3  0  0  0  0  0  0
  -30.0050  -16.3460   20.7860 N   0  0  0  0  0  0  0  0  0  0  0  0
  -28.8860  -21.6460   20.6950 N   0  0  2  0  0  4  0  0  0  0  0  0
  -28.3070  -21.3710   21.4750 H   0  0  0  0  0  0  0  0  0  0  0  0
  -25.2130  -13.9180   20.5260 C   0  0  0  0  0  0  0  0  0  0  0  0
  -24.1390  -13.1500   20.8850 C   0  0  0  0  0  0  0  0  0  0  0  0
  -24.5980  -11.7970   20.8670 C   0  0  0  0  0  0  0  0  0  0  0  0
  -26.2530  -13.0360   20.3000 N   0  0  0  0  0  0  0  0  0  0  0  0
  -25.8930  -11.7550   20.5760 N   0  0  0  0  0  0  0  0  0  0  0  0
  -23.8590  -10.5410   21.0550 C   0  0  0  0  0  0  0  0  0  0  0  0
  -24.2860   -9.5650   21.9830 C   0  0  0  0  0  3  0  0  0  0  0  0
  -23.5470   -8.3740   22.1640 C   0  0  0  0  0  3  0  0  0  0  0  0
  -22.3680   -8.1510   21.4110 C   0  0  0  0  0  0  0  0  0  0  0  0
  -21.9610   -9.1150   20.4720 C   0  0  0  0  0  3  0  0  0  0  0  0
  -22.6990  -10.2960   20.2920 C   0  0  0  0  0  3  0  0  0  0  0  0
  -21.6000   -7.0140   21.5000 O   0  0  0  0  0  0  0  0  0  0  0  0
  -21.5570   -6.2610   22.6450 C   0  0  0  0  0  0  0  0  0  0  0  0
  -21.1750   -6.8130   23.8870 C   0  0  0  0  0  3  0  0  0  0  0  0
  -21.0800   -5.9870   25.0250 C   0  0  0  0  0  3  0  0  0  0  0  0
  -21.3550   -4.6100   24.9220 C   0  0  0  0  0  0  0  0  0  0  0  0
  -21.7290   -4.0580   23.6840 C   0  0  0  0  0  3  0  0  0  0  0  0
  -21.8280   -4.8810   22.5490 C   0  0  0  0  0  0  0  0  0  0  0  0
  -22.1670   -4.3400   21.3540 F   0  0  0  0  0  0  0  0  0  0  0  0
  -21.2570   -3.8140   26.0120 F   0  0  0  0  0  0  0  0  0  0  0  0
  -22.7410  -13.6380   21.1280 C   0  0  0  0  0  0  0  0  0  0  0  0
  -21.9950  -12.9600   21.9930 N   0  0  0  0  0  0  0  0  0  0  0  0
  -22.3180  -14.6570   20.5850 O   0  0  0  0  0  0  0  0  0  0  0  0
  -22.3530  -12.1400   22.4600 H   0  0  0  0  0  0  0  0  0  0  0  0
  -21.0540  -13.2680   22.1930 H   0  0  0  0  0  0  0  0  0  0  0  0
  -25.3910  -15.2870   20.3460 N   0  0  0  0  0  0  0  0  0  0  0  0
  -24.6380  -15.9550   20.4680 H   0  0  0  0  0  0  0  0  0  0  0  0
  -26.2640  -15.7140   20.0630 H   0  0  0  0  0  0  0  0  0  0  0  0
  -28.3230  -23.1770   20.8110 C   0  0  0  0  0  2  0  0  0  0  0  0
  -28.4970  -24.5930   19.8610 C   0  0  0  0  0  2  0  0  0  0  0  0
  -28.3850  -26.1320   20.2670 O   0  0  0  0  0  0  0  0  0  0  0  0
  -24.6970  -31.8580   23.1420 C   0  0  0  0  0  0  0  0  0  0  0  0
  -27.3010  -27.0970   20.1420 C   0  0  0  0  0  0  0  0  0  0  0  0
  -23.5040  -30.4430   21.5120 C   0  0  0  0  0  3  0  0  0  0  0  0
  -24.9580  -28.8560   20.0910 C   0  0  0  0  0  0  0  0  0  0  0  0
  -26.0570  -30.7130   21.3430 C   0  0  0  0  0  2  0  0  0  0  0  0
  -26.1340  -29.3120   20.6960 C   0  0  0  0  0  0  0  0  0  0  0  0
  -27.2990  -28.4470   20.7010 C   0  0  0  0  0  3  0  0  0  0  0  0
  -26.1000  -26.7540   19.4880 C   0  0  0  0  0  3  0  0  0  0  0  0
  -24.9570  -27.5940   19.4700 C   0  0  0  0  0  3  0  0  0  0  0  0
  -23.7260  -29.7510   20.1380 C   0  0  0  0  0  2  0  0  0  0  0  0
  -24.7740  -31.0280   22.0530 N   0  0  0  0  0  0  0  0  0  0  0  0
  -23.6090  -32.1390   23.6690 O   0  0  0  0  0  0  0  0  0  0  0  0
  -22.8320  -29.4430   22.4870 C   0  0  0  0  0  0  0  0  0  0  0  0
  -21.5010  -29.2770   22.3790 N   0  0  0  0  0  0  0  0  0  0  0  0
  -23.5100  -28.8160   23.3050 O   0  0  0  0  0  0  0  0  0  0  0  0
  -21.0090  -29.8360   21.6970 H   0  0  0  0  0  0  0  0  0  0  0  0
  -18.1240  -28.0820   22.9290 C   0  0  0  0  0  0  0  0  0  0  0  0
  -20.6880  -28.3400   23.1590 C   0  0  0  0  0  3  0  0  0  0  0  0
  -20.7750  -26.9090   22.5810 C   0  0  0  0  0  2  0  0  0  0  0  0
  -19.6580  -26.5900   21.5830 C   0  0  0  0  0  2  0  0  0  0  0  0
  -18.2860  -26.7350   22.2460 C   0  0  0  0  0  2  0  0  0  0  0  0
  -19.2500  -28.8420   23.3440 C   0  0  0  0  0  0  0  0  0  0  0  0
  -19.0400  -30.1030   23.9440 C   0  0  0  0  0  3  0  0  0  0  0  0
  -17.7360  -30.6010   24.1360 C   0  0  0  0  0  3  0  0  0  0  0  0
  -16.6260  -29.8370   23.7360 C   0  0  0  0  0  3  0  0  0  0  0  0
  -16.8200  -28.5800   23.1370 C   0  0  0  0  0  3  0  0  0  0  0  0
  -25.9700  -32.5100   23.7650 C   0  0  0  0  0  3  0  0  0  0  0  0
  -25.6360  -33.9000   24.1220 N   0  0  0  0  0  0  0  0  0  0  0  0
  -25.9390  -34.9750   23.3810 C   0  0  0  0  0  0  0  0  0  0  0  0
  -26.5940  -34.9030   22.3400 O   0  0  0  0  0  0  0  0  0  0  0  0
  -25.0530  -34.0280   24.9360 H   0  0  0  0  0  0  0  0  0  0  0  0
  -24.1740  -36.7480   23.1000 C   0  0  0  0  0  1  0  0  0  0  0  0
  -25.4370  -36.3470   23.8770 C   0  0  0  0  0  3  0  0  0  0  0  0
  -27.5760  -37.2540   24.6730 C   0  0  0  0  0  1  0  0  0  0  0  0
  -26.4480  -37.4210   23.7600 N   0  0  0  0  0  0  0  0  0  0  0  0
  -26.0290  -38.3300   23.9360 H   0  0  0  0  0  0  0  0  0  0  0  0
  -26.5050  -31.7370   25.0340 C   0  0  1  0  0  0  0  0  0  0  0  0
  -25.4270  -31.4800   26.1140 C   0  0  0  0  0  1  0  0  0  0  0  0
  -27.1040  -30.3690   24.6340 C   0  0  0  0  0  1  0  0  0  0  0  0
  -27.6510  -32.5440   25.6900 C   0  0  0  0  0  1  0  0  0  0  0  0
  1 16  1  0
  2  7  1  0
  3  4  1  0
  3  2  1  0
  5  4  1  0
  5 22  1  0
  5  6  1  0
  7  1  1  0
  7  6  1  0
  8  1  2  0
  9 10  1  0
 11 15  1  0
 11 16  1  0
 13 17  1  0
 14 12  1  0
 14  9  1  0
 15 13  1  0
 15 14  1  0
 16 10  1  0
 17 47  1  0
 17 12  1  0
 17 18  1  1
 19 20  2  0
 20 39  1  0
 21 20  1  0
 21 24  1  0
 22 19  1  0
 22 23  1  0
 23 21  2  0
 24 25  1  0
 25 26  2  0
 27 30  1  0
 27 26  1  0
 28 27  2  0
 29 28  1  0
 29 24  2  0
 30 31  1  0
 31 32  1  0
 32 33  2  0
 34 33  1  0
 34 38  1  0
 35 34  2  0
 36 31  2  0
 36 35  1  0
 37 36  1  0
 39 40  1  0
 40 43  1  0
 40 42  1  0
 41 39  2  0
 44 45  1  0
 44 19  1  0
 46 44  1  0
 48 49  1  0
 48 47  1  0
 50 61  2  0
 51 49  1  0
 51 56  1  0
 52 60  1  0
 52 62  1  0
 53 59  1  0
 53 55  1  0
 54 60  1  0
 55 56  2  0
 55 54  1  0
 57 51  2  0
 58 57  1  0
 58 53  2  0
 59 52  1  0
 60 50  1  0
 62 64  2  0
 63 62  1  0
 65 63  1  0
 66 75  2  0
 66 71  1  0
 67 63  1  0
 67 71  1  0
 68 67  1  0
 69 70  1  0
 69 68  1  0
 70 66  1  0
 71 72  2  0
 72 73  1  0
 74 73  2  0
 75 74  1  0
 76 50  1  0
 76 77  1  0
 76 86  1  0
 77 80  1  0
 78 82  1  0
 78 77  1  0
 79 78  2  0
 82 81  1  0
 84 82  1  0
 84 85  1  0
 84 83  1  0
 86 89  1  1
 86 87  1  0
 88 86  1  0
M  ISO  4   1 100  16 100  48 101  49 101
M  END
>  <TORSDO>  (81) 
F 17

>  <SCORE>  (81) 
-15.872

>  <name>  (81) 
80

>  <ligand_id>  (81) 
80

>  <original_smiles>  (81) 
[H]c1c([H])c([H])c2c(c1[H])C([H])([H])C([H])([H])C([H])([H])C2([H])N([H])C(=O)C1([H])N(C(=O)C([H])(N([H])C(=O)C([H])(N([H])C([H])([H])[H])C([H])([H])[H])C(C([H])([H])[H])(C([H])([H])[H])C([H])([H])[H])C([H])([H])c2c([H])c(OC([H])([H])C([H])([H])[N+]3([H])C([H])([H])C4([H])C([H])([H])N(C(=O)N5C([H])([H])C([H])([H])C([H])([H])C([H])(n6nc(-c7c([H])c([H])c(Oc8c([H])c([H])c(F)c([H])c8F)c([H])c7[H])c(C(=O)N([H])[H])c6N([H])[H])C5([H])[H])C([H])([H])C([H])([H])C4([H])C3([H])[H])c([H])c([H])c2C1([H])[H]

>  <smiles>  (81) 
[H]c1c([H])c([H])c2c(c1[H])C([H])([H])C([H])([H])C([H])([H])C2([H])N([H])C(=O)C1([H])N(C(=O)C([H])(N([H])C(=O)C([H])(N([H])C([H])([H])[H])C([H])([H])[H])C(C([H])([H])[H])(C([H])([H])[H])C([H])([H])[H])C([H])([H])c2c([H])c(OC([H])([H])C([H])([H])[N+]3([H])C([H])([H])C4([H])C([H])([H])N(C(=O)N5C([H])([H])C([H])([H])C([H])([H])C([H])(n6nc(-c7c([H])c([H])c(Oc8c([H])c([H])c(F)c([H])c8F)c([H])c7[H])c(C(=O)N([H])[H])c6N([H])[H])C5([H])[H])C([H])([H])C([H])([H])C4([H])C3([H])[H])c([H])c([H])c2C1([H])[H]

$$$$
81:0:0
     RDKit          3D

 96104  0  0  1  0  0  0  0  0999 V2000
  -30.9310  -21.6550   18.4030 C   0  0  0  0  0  2  0  0  0  0  0  0
  -30.3640  -23.0750   18.5100 C   0  0  0  0  0  2  0  0  0  0  0  0
  -30.0920  -23.4060   19.9280 N   0  0  0  0  0  4  0  0  0  0  0  0
  -29.3180  -22.8480   20.2570 H   0  0  0  0  0  0  0  0  0  0  0  0
  -30.8970  -23.1230   20.4660 H   0  0  0  0  0  0  0  0  0  0  0  0
  -29.8510  -24.8370   20.2220 C   0  0  0  0  0  2  0  0  0  0  0  0
  -28.4520  -25.3270   19.8160 C   0  0  0  0  0  2  0  0  0  0  0  0
  -28.4000  -26.6970   20.1890 O   0  0  0  0  0  0  0  0  0  0  0  0
  -24.5820  -31.8270   23.2280 C   0  0  0  0  0  0  0  0  0  0  0  0
  -27.1940  -27.3580   20.1750 C   0  0  0  0  0  0  0  0  0  0  0  0
  -23.3610  -30.4220   21.5970 C   0  0  0  0  0  3  0  0  0  0  0  0
  -24.7990  -28.8570   20.1890 C   0  0  0  0  0  0  0  0  0  0  0  0
  -25.8860  -30.7600   21.3970 C   0  0  0  0  0  2  0  0  0  0  0  0
  -25.9570  -29.3840   20.7700 C   0  0  0  0  0  0  0  0  0  0  0  0
  -27.1540  -28.6400   20.7620 C   0  0  0  0  0  3  0  0  0  0  0  0
  -26.0170  -26.8330   19.5940 C   0  0  0  0  0  3  0  0  0  0  0  0
  -24.8210  -27.5790   19.6020 C   0  0  0  0  0  3  0  0  0  0  0  0
  -23.5610  -29.7220   20.2260 C   0  0  0  0  0  2  0  0  0  0  0  0
  -24.6270  -31.0190   22.1320 N   0  0  0  0  0  0  0  0  0  0  0  0
  -23.5020  -32.1150   23.7650 O   0  0  0  0  0  0  0  0  0  0  0  0
  -22.7020  -29.4160   22.5660 C   0  0  0  0  0  0  0  0  0  0  0  0
  -21.3750  -29.2540   22.4470 N   0  0  0  0  0  0  0  0  0  0  0  0
  -23.3820  -28.7820   23.3780 O   0  0  0  0  0  0  0  0  0  0  0  0
  -20.8880  -29.8180   21.7650 H   0  0  0  0  0  0  0  0  0  0  0  0
  -17.9840  -28.1240   22.9660 C   0  0  0  0  0  0  0  0  0  0  0  0
  -20.5470  -28.3330   23.2240 C   0  0  0  0  0  3  0  0  0  0  0  0
  -20.6190  -26.9000   22.6490 C   0  0  0  0  0  2  0  0  0  0  0  0
  -19.5040  -26.5960   21.6420 C   0  0  0  0  0  2  0  0  0  0  0  0
  -18.1310  -26.7700   22.2950 C   0  0  0  0  0  2  0  0  0  0  0  0
  -19.1190  -28.8660   23.3880 C   0  0  0  0  0  0  0  0  0  0  0  0
  -18.9290  -30.1360   23.9740 C   0  0  0  0  0  3  0  0  0  0  0  0
  -17.6350  -30.6630   24.1460 C   0  0  0  0  0  3  0  0  0  0  0  0
  -16.5140  -29.9190   23.7410 C   0  0  0  0  0  3  0  0  0  0  0  0
  -16.6890  -28.6510   23.1560 C   0  0  0  0  0  3  0  0  0  0  0  0
  -25.8740  -32.4470   23.8450 C   0  0  0  0  0  3  0  0  0  0  0  0
  -25.5730  -33.8450   24.1850 N   0  0  0  0  0  0  0  0  0  0  0  0
  -25.9090  -34.9000   23.4300 C   0  0  0  0  0  0  0  0  0  0  0  0
  -26.5750  -34.7990   22.3960 O   0  0  0  0  0  0  0  0  0  0  0  0
  -24.9750  -33.9980   24.9830 H   0  0  0  0  0  0  0  0  0  0  0  0
  -24.1820  -36.6960   23.0970 C   0  0  0  0  0  1  0  0  0  0  0  0
  -25.4300  -36.2870   23.8960 C   0  0  0  0  0  3  0  0  0  0  0  0
  -27.5740  -37.1610   24.7130 C   0  0  0  0  0  1  0  0  0  0  0  0
  -26.4660  -37.3380   23.7790 N   0  0  0  0  0  0  0  0  0  0  0  0
  -26.0650  -38.2580   23.9380 H   0  0  0  0  0  0  0  0  0  0  0  0
  -26.4020  -31.6640   25.1110 C   0  0  1  0  0  0  0  0  0  0  0  0
  -25.3150  -31.4100   26.1810 C   0  0  0  0  0  1  0  0  0  0  0  0
  -26.9860  -30.2940   24.6970 C   0  0  0  0  0  1  0  0  0  0  0  0
  -27.5560  -32.4520   25.7740 C   0  0  0  0  0  1  0  0  0  0  0  0
  -29.9360  -20.7770   18.9270 O   0  0  0  0  0  0  0  0  0  0  0  0
  -31.9490  -17.9100   20.2350 C   0  0  0  0  0  3  0  0  0  0  0  0
  -31.6310  -19.0710   19.5060 C   0  0  0  0  0  3  0  0  0  0  0  0
  -30.9760  -17.2810   21.0380 C   0  0  0  0  0  0  0  0  0  0  0  0
  -30.3300  -19.6310   19.5840 C   0  0  0  0  0  0  0  0  0  0  0  0
  -29.6750  -17.8210   21.1040 C   0  0  0  0  0  0  0  0  0  0  0  0
  -29.3590  -18.9860   20.3790 C   0  0  0  0  0  0  0  0  0  0  0  0
  -28.7260  -17.2220   21.8630 F   0  0  0  0  0  0  0  0  0  0  0  0
  -28.1080  -19.5030   20.4570 F   0  0  0  0  0  0  0  0  0  0  0  0
  -31.3290  -16.0170   21.8060 C   0  0  0  0  0  2  0  0  0  0  0  0
  -30.9670  -14.1250   20.2250 C   0  0  0  0  0  0  0  0  0  0  0  0
  -30.4500  -12.1140   18.8940 C   0  0  0  0  0  2  0  0  0  0  0  0
  -29.4760  -12.4220   17.7420 C   0  0  0  0  0  2  0  0  0  0  0  0
  -28.0150  -12.3460   18.2230 C   0  0  0  0  0  2  0  0  0  0  0  0
  -27.7740  -13.1580   19.5220 C   0  0  0  0  0  3  0  0  0  0  0  0
  -28.8420  -12.8150   20.5820 C   0  0  0  0  0  2  0  0  0  0  0  0
  -30.1760  -13.0480   19.9950 N   0  0  0  0  0  0  0  0  0  0  0  0
  -31.9560  -14.4030   19.5400 O   0  0  0  0  0  0  0  0  0  0  0  0
  -30.6300  -14.8420   21.3020 N   0  0  0  0  0  0  0  0  0  0  0  0
  -29.8310  -14.5230   21.8270 H   0  0  0  0  0  0  0  0  0  0  0  0
  -25.4170  -13.8760   20.2750 C   0  0  0  0  0  0  0  0  0  0  0  0
  -24.3280  -13.1550   20.6840 C   0  0  0  0  0  0  0  0  0  0  0  0
  -24.7320  -11.7840   20.6620 C   0  0  0  0  0  0  0  0  0  0  0  0
  -26.4200  -12.9490   20.0350 N   0  0  0  0  0  0  0  0  0  0  0  0
  -26.0110  -11.6880   20.3210 N   0  0  0  0  0  0  0  0  0  0  0  0
  -23.9610  -10.5570   20.8910 C   0  0  0  0  0  0  0  0  0  0  0  0
  -24.3790   -9.5860   21.8290 C   0  0  0  0  0  3  0  0  0  0  0  0
  -23.6110   -8.4210   22.0440 C   0  0  0  0  0  3  0  0  0  0  0  0
  -22.4110   -8.2190   21.3220 C   0  0  0  0  0  0  0  0  0  0  0  0
  -22.0120   -9.1780   20.3740 C   0  0  0  0  0  3  0  0  0  0  0  0
  -22.7800  -10.3340   20.1560 C   0  0  0  0  0  3  0  0  0  0  0  0
  -21.6150   -7.1060   21.4450 O   0  0  0  0  0  0  0  0  0  0  0  0
  -21.5700   -6.3790   22.6080 C   0  0  0  0  0  0  0  0  0  0  0  0
  -21.2230   -6.9700   23.8440 C   0  0  0  0  0  3  0  0  0  0  0  0
  -21.1220   -6.1710   25.0010 C   0  0  0  0  0  3  0  0  0  0  0  0
  -21.3560   -4.7850   24.9240 C   0  0  0  0  0  0  0  0  0  0  0  0
  -21.6970   -4.1950   23.6940 C   0  0  0  0  0  3  0  0  0  0  0  0
  -21.8000   -4.9900   22.5390 C   0  0  0  0  0  0  0  0  0  0  0  0
  -22.1080   -4.4140   21.3520 F   0  0  0  0  0  0  0  0  0  0  0  0
  -21.2520   -4.0170   26.0340 F   0  0  0  0  0  0  0  0  0  0  0  0
  -22.9580  -13.6930   20.9870 C   0  0  0  0  0  0  0  0  0  0  0  0
  -22.2300  -13.0440   21.8900 N   0  0  0  0  0  0  0  0  0  0  0  0
  -22.5430  -14.7230   20.4570 O   0  0  0  0  0  0  0  0  0  0  0  0
  -22.5760  -12.2080   22.3370 H   0  0  0  0  0  0  0  0  0  0  0  0
  -21.3110  -13.3860   22.1330 H   0  0  0  0  0  0  0  0  0  0  0  0
  -25.6330  -15.2370   20.0730 N   0  0  0  0  0  0  0  0  0  0  0  0
  -24.9020  -15.9280   20.1990 H   0  0  0  0  0  0  0  0  0  0  0  0
  -26.5050  -15.6360   19.7500 H   0  0  0  0  0  0  0  0  0  0  0  0
  1  2  1  0
  1 49  1  0
  2  3  1  0
  3  6  1  0
  3  4  1  0
  3  5  1  0
  7  8  1  0
  7  6  1  0
  9 20  2  0
 10  8  1  0
 10 15  1  0
 11 19  1  0
 11 21  1  0
 12 18  1  0
 12 14  1  0
 13 19  1  0
 14 13  1  0
 15 14  2  0
 16 17  1  0
 16 10  2  0
 17 12  2  0
 18 11  1  0
 19  9  1  0
 21 23  2  0
 22 21  1  0
 24 22  1  0
 25 34  2  0
 25 30  1  0
 26 22  1  0
 26 30  1  0
 27 26  1  0
 28 29  1  0
 28 27  1  0
 29 25  1  0
 30 31  2  0
 31 32  1  0
 33 32  2  0
 34 33  1  0
 35  9  1  0
 35 36  1  0
 35 45  1  0
 36 39  1  0
 37 41  1  0
 37 36  1  0
 38 37  2  0
 41 40  1  0
 43 41  1  0
 43 44  1  0
 43 42  1  0
 45 48  1  1
 45 46  1  0
 47 45  1  0
 49 53  1  0
 50 52  1  0
 51 53  1  0
 51 50  2  0
 52 54  2  0
 52 58  1  0
 53 55  2  0
 54 56  1  0
 55 57  1  0
 55 54  1  0
 59 67  1  0
 60 65  1  0
 61 62  1  0
 61 60  1  0
 63 62  1  0
 63 72  1  0
 63 64  1  0
 65 59  1  0
 65 64  1  0
 66 59  2  0
 67 58  1  0
 67 68  1  0
 69 70  2  0
 70 89  1  0
 71 70  1  0
 71 74  1  0
 72 69  1  0
 72 73  1  0
 73 71  2  0
 74 75  1  0
 75 76  2  0
 77 80  1  0
 77 76  1  0
 78 77  2  0
 79 78  1  0
 79 74  2  0
 80 81  1  0
 81 82  1  0
 82 83  2  0
 84 83  1  0
 84 88  1  0
 85 84  2  0
 86 81  2  0
 86 85  1  0
 87 86  1  0
 89 90  1  0
 90 93  1  0
 90 92  1  0
 91 89  2  0
 94 95  1  0
 94 69  1  0
 96 94  1  0
M  ISO  4   7 101   8 101  59 100  67 100
M  END
>  <TORSDO>  (82) 
F 23

>  <SCORE>  (82) 
-12.395

>  <name>  (82) 
81

>  <ligand_id>  (82) 
81

>  <original_smiles>  (82) 
[H]c1c([H])c([H])c2c(c1[H])C([H])([H])C([H])([H])C([H])([H])C2([H])N([H])C(=O)C1([H])N(C(=O)C([H])(N([H])C(=O)C([H])(N([H])C([H])([H])[H])C([H])([H])[H])C(C([H])([H])[H])(C([H])([H])[H])C([H])([H])[H])C([H])([H])c2c([H])c(OC([H])([H])C([H])([H])[N+]([H])([H])C([H])([H])C([H])([H])Oc3c([H])c([H])c(C([H])([H])N([H])C(=O)N4C([H])([H])C([H])([H])C([H])([H])C([H])(n5nc(-c6c([H])c([H])c(Oc7c([H])c([H])c(F)c([H])c7F)c([H])c6[H])c(C(=O)N([H])[H])c5N([H])[H])C4([H])[H])c(F)c3F)c([H])c([H])c2C1([H])[H]

>  <smiles>  (82) 
[H]c1c([H])c([H])c2c(c1[H])C([H])([H])C([H])([H])C([H])([H])C2([H])N([H])C(=O)C1([H])N(C(=O)C([H])(N([H])C(=O)C([H])(N([H])C([H])([H])[H])C([H])([H])[H])C(C([H])([H])[H])(C([H])([H])[H])C([H])([H])[H])C([H])([H])c2c([H])c(OC([H])([H])C([H])([H])[N+]([H])([H])C([H])([H])C([H])([H])Oc3c([H])c([H])c(C([H])([H])N([H])C(=O)N4C([H])([H])C([H])([H])C([H])([H])C([H])(n5nc(-c6c([H])c([H])c(Oc7c([H])c([H])c(F)c([H])c7F)c([H])c6[H])c(C(=O)N([H])[H])c5N([H])[H])C4([H])[H])c(F)c3F)c([H])c([H])c2C1([H])[H]

$$$$
82:0:0
     RDKit          3D

 89 97  0  0  1  0  0  0  0  0999 V2000
  -30.6180  -18.5840   20.2340 C   0  0  0  0  0  3  0  0  0  0  0  0
  -30.3220  -20.0210   20.1180 C   0  0  0  0  0  3  0  0  0  0  0  0
  -28.3230  -18.1100   19.9970 C   0  0  0  0  0  3  0  0  0  0  0  0
  -29.6220  -17.5390   20.1790 C   0  0  0  0  0  0  0  0  0  0  0  0
  -28.9990  -20.5680   19.9200 C   0  0  0  0  0  0  0  0  0  0  0  0
  -28.0300  -19.5160   19.8660 C   0  0  0  0  0  0  0  0  0  0  0  0
  -26.7350  -19.8670   19.6790 F   0  0  0  0  0  0  0  0  0  0  0  0
  -30.5800  -14.9230   20.0660 C   0  0  0  0  0  0  0  0  0  0  0  0
  -30.4510  -12.5660   19.1460 C   0  0  0  0  0  2  0  0  0  0  0  0
  -29.4680  -12.5400   17.9490 C   0  0  0  0  0  2  0  0  0  0  0  0
  -28.0140  -12.3550   18.4280 C   0  0  0  0  0  2  0  0  0  0  0  0
  -27.6620  -13.2860   19.6170 C   0  0  0  0  0  3  0  0  0  0  0  0
  -28.7540  -13.2570   20.7090 C   0  0  0  0  0  2  0  0  0  0  0  0
  -30.0190  -13.6500   20.0680 N   0  0  0  0  0  0  0  0  0  0  0  0
  -31.7560  -15.0460   19.7010 O   0  0  0  0  0  0  0  0  0  0  0  0
  -29.7160  -16.0150   20.3160 N   0  0  0  0  0  0  0  0  0  0  0  0
  -28.8300  -15.6250   20.5980 H   0  0  0  0  0  0  0  0  0  0  0  0
  -25.3230  -13.9140   20.4530 C   0  0  0  0  0  0  0  0  0  0  0  0
  -24.2550  -13.1600   20.8530 C   0  0  0  0  0  0  0  0  0  0  0  0
  -24.6820  -11.7990   20.7750 C   0  0  0  0  0  0  0  0  0  0  0  0
  -26.3340  -13.0150   20.1560 N   0  0  0  0  0  0  0  0  0  0  0  0
  -25.9580  -11.7360   20.4130 N   0  0  0  0  0  0  0  0  0  0  0  0
  -23.9310  -10.5510   20.9660 C   0  0  0  0  0  0  0  0  0  0  0  0
  -24.3600   -9.5610   21.8760 C   0  0  0  0  0  3  0  0  0  0  0  0
  -23.6090   -8.3800   22.0560 C   0  0  0  0  0  3  0  0  0  0  0  0
  -22.4150   -8.1800   21.3260 C   0  0  0  0  0  0  0  0  0  0  0  0
  -22.0020   -9.1580   20.4040 C   0  0  0  0  0  3  0  0  0  0  0  0
  -22.7540  -10.3310   20.2210 C   0  0  0  0  0  3  0  0  0  0  0  0
  -21.6350   -7.0520   21.4170 O   0  0  0  0  0  0  0  0  0  0  0  0
  -21.5790   -6.3060   22.5670 C   0  0  0  0  0  0  0  0  0  0  0  0
  -21.1440   -6.8560   23.7920 C   0  0  0  0  0  3  0  0  0  0  0  0
  -21.0370   -6.0370   24.9340 C   0  0  0  0  0  3  0  0  0  0  0  0
  -21.3540   -4.6680   24.8510 C   0  0  0  0  0  0  0  0  0  0  0  0
  -21.7830   -4.1170   23.6300 C   0  0  0  0  0  3  0  0  0  0  0  0
  -21.8920   -4.9330   22.4910 C   0  0  0  0  0  0  0  0  0  0  0  0
  -22.2850   -4.3930   21.3120 F   0  0  0  0  0  0  0  0  0  0  0  0
  -21.2440   -3.8790   25.9450 F   0  0  0  0  0  0  0  0  0  0  0  0
  -22.8820  -13.6670   21.1860 C   0  0  0  0  0  0  0  0  0  0  0  0
  -22.1720  -12.9770   22.0720 N   0  0  0  0  0  0  0  0  0  0  0  0
  -22.4480  -14.7080   20.6950 O   0  0  0  0  0  0  0  0  0  0  0  0
  -22.5360  -12.1340   22.4910 H   0  0  0  0  0  0  0  0  0  0  0  0
  -21.2520  -13.2980   22.3390 H   0  0  0  0  0  0  0  0  0  0  0  0
  -25.5110  -15.2840   20.2900 N   0  0  0  0  0  0  0  0  0  0  0  0
  -24.7430  -15.9360   20.4050 H   0  0  0  0  0  0  0  0  0  0  0  0
  -26.3000  -15.6870   19.8030 H   0  0  0  0  0  0  0  0  0  0  0  0
  -28.5040  -21.9350   19.7320 O   0  0  0  0  0  0  0  0  0  0  0  0
  -29.0950  -23.3350   19.9090 C   0  0  0  0  0  3  0  0  0  0  0  0
  -28.1160  -24.6810   19.6400 C   0  0  0  0  0  3  0  0  0  0  0  0
  -28.3620  -26.1910   19.9150 O   0  0  0  0  0  0  0  0  0  0  0  0
  -24.5360  -31.6270   23.0850 C   0  0  0  0  0  0  0  0  0  0  0  0
  -27.2770  -27.1420   19.8750 C   0  0  0  0  0  0  0  0  0  0  0  0
  -23.3960  -30.2890   21.3560 C   0  0  0  0  0  3  0  0  0  0  0  0
  -24.9060  -28.8230   19.8830 C   0  0  0  0  0  0  0  0  0  0  0  0
  -25.9460  -30.6220   21.2520 C   0  0  0  0  0  2  0  0  0  0  0  0
  -26.0640  -29.2680   20.5340 C   0  0  0  0  0  0  0  0  0  0  0  0
  -27.2500  -28.4450   20.5130 C   0  0  0  0  0  3  0  0  0  0  0  0
  -26.0890  -26.7970   19.1910 C   0  0  0  0  0  3  0  0  0  0  0  0
  -24.9310  -27.6010   19.1980 C   0  0  0  0  0  3  0  0  0  0  0  0
  -23.6570  -29.6880   19.9500 C   0  0  0  0  0  2  0  0  0  0  0  0
  -24.6450  -30.8640   21.9540 N   0  0  0  0  0  0  0  0  0  0  0  0
  -23.4340  -31.8620   23.6050 O   0  0  0  0  0  0  0  0  0  0  0  0
  -22.7240  -29.2200   22.2530 C   0  0  0  0  0  0  0  0  0  0  0  0
  -21.3950  -29.0550   22.1190 N   0  0  0  0  0  0  0  0  0  0  0  0
  -23.3990  -28.5440   23.0340 O   0  0  0  0  0  0  0  0  0  0  0  0
  -20.9070  -29.6540   21.4680 H   0  0  0  0  0  0  0  0  0  0  0  0
  -18.0080  -27.8640   22.6020 C   0  0  0  0  0  0  0  0  0  0  0  0
  -20.5770  -28.0710   22.8320 C   0  0  0  0  0  3  0  0  0  0  0  0
  -20.6440  -26.6870   22.1430 C   0  0  0  0  0  2  0  0  0  0  0  0
  -19.5160  -26.4610   21.1320 C   0  0  0  0  0  2  0  0  0  0  0  0
  -18.1500  -26.5720   21.8170 C   0  0  0  0  0  2  0  0  0  0  0  0
  -19.1480  -28.5760   23.0650 C   0  0  0  0  0  0  0  0  0  0  0  0
  -18.9590  -29.7890   23.7640 C   0  0  0  0  0  3  0  0  0  0  0  0
  -17.6650  -30.2900   24.0000 C   0  0  0  0  0  3  0  0  0  0  0  0
  -16.5420  -29.5740   23.5510 C   0  0  0  0  0  3  0  0  0  0  0  0
  -16.7140  -28.3630   22.8590 C   0  0  0  0  0  3  0  0  0  0  0  0
  -25.7880  -32.2560   23.7670 C   0  0  0  0  0  3  0  0  0  0  0  0
  -26.2640  -31.4600   25.0450 C   0  0  1  0  0  0  0  0  0  0  0  0
  -25.1360  -31.1940   26.0690 C   0  0  0  0  0  1  0  0  0  0  0  0
  -26.8680  -30.0930   24.6470 C   0  0  0  0  0  1  0  0  0  0  0  0
  -27.3860  -32.2460   25.7630 C   0  0  0  0  0  1  0  0  0  0  0  0
  -25.4530  -33.6440   24.1230 N   0  0  0  0  0  0  0  0  0  0  0  0
  -25.7720  -34.7190   23.3900 C   0  0  0  0  0  0  0  0  0  0  0  0
  -26.4450  -34.6480   22.3590 O   0  0  0  0  0  0  0  0  0  0  0  0
  -24.8550  -33.7720   24.9260 H   0  0  0  0  0  0  0  0  0  0  0  0
  -24.0050  -36.4870   23.0910 C   0  0  0  0  0  1  0  0  0  0  0  0
  -25.2650  -36.0920   23.8780 C   0  0  0  0  0  3  0  0  0  0  0  0
  -27.3890  -37.0120   24.7010 C   0  0  0  0  0  1  0  0  0  0  0  0
  -26.2770  -37.1660   23.7680 N   0  0  0  0  0  0  0  0  0  0  0  0
  -25.8530  -38.0770   23.9260 H   0  0  0  0  0  0  0  0  0  0  0  0
  2  1  2  0
  3  4  2  0
  4  1  1  0
  4 16  1  0
  5  2  1  0
  6  5  2  0
  6  3  1  0
  7  6  1  0
  8 14  1  0
  8 16  1  0
  9 14  1  0
 10 11  1  0
 10  9  1  0
 12 11  1  0
 12 21  1  0
 12 13  1  0
 14 13  1  0
 15  8  2  0
 16 17  1  0
 18 19  2  0
 19 38  1  0
 20 19  1  0
 20 23  1  0
 21 22  1  0
 21 18  1  0
 22 20  2  0
 23 24  1  0
 24 25  2  0
 26 29  1  0
 26 25  1  0
 27 26  2  0
 28 27  1  0
 28 23  2  0
 29 30  1  0
 30 31  1  0
 31 32  2  0
 33 32  1  0
 33 37  1  0
 34 33  2  0
 35 30  2  0
 35 34  1  0
 36 35  1  0
 38 39  1  0
 39 42  1  0
 39 41  1  0
 40 38  2  0
 43 44  1  0
 43 18  1  0
 45 43  1  0
 46 47  1  0
 46  5  1  0
 48 47  2  0
 48 49  1  0
 50 61  2  0
 51 49  1  0
 51 56  1  0
 52 60  1  0
 52 62  1  0
 53 59  1  0
 53 55  1  0
 54 60  1  0
 55 54  1  0
 56 55  2  0
 57 58  1  0
 57 51  2  0
 58 53  2  0
 59 52  1  0
 60 50  1  0
 62 64  2  0
 63 62  1  0
 65 63  1  0
 66 75  2  0
 66 71  1  0
 67 63  1  0
 67 71  1  0
 68 67  1  0
 69 70  1  0
 69 68  1  0
 70 66  1  0
 71 72  2  0
 72 73  1  0
 74 73  2  0
 75 74  1  0
 76 50  1  0
 76 81  1  0
 76 77  1  0
 77 80  1  1
 77 78  1  0
 79 77  1  0
 81 84  1  0
 82 86  1  0
 82 81  1  0
 83 82  2  0
 86 85  1  0
 88 86  1  0
 88 89  1  0
 88 87  1  0
M  ISO  4   8 100  16 100  48 101  49 101
M  END
>  <TORSDO>  (83) 
F 19

>  <SCORE>  (83) 
-13.742

>  <name>  (83) 
82

>  <ligand_id>  (83) 
82

>  <original_smiles>  (83) 
[H]c1c([H])c([H])c2c(c1[H])C([H])([H])C([H])([H])C([H])([H])C2([H])N([H])C(=O)C1([H])N(C(=O)C([H])(N([H])C(=O)C([H])(N([H])C([H])([H])[H])C([H])([H])[H])C(C([H])([H])[H])(C([H])([H])[H])C([H])([H])[H])C([H])([H])c2c([H])c(OC([H])([H])C([H])([H])Oc3c([H])c([H])c(N([H])C(=O)N4C([H])([H])C([H])([H])C([H])([H])C([H])(n5nc(-c6c([H])c([H])c(Oc7c([H])c([H])c(F)c([H])c7F)c([H])c6[H])c(C(=O)N([H])[H])c5N([H])[H])C4([H])[H])c([H])c3F)c([H])c([H])c2C1([H])[H]

>  <smiles>  (83) 
[H]c1c([H])c([H])c2c(c1[H])C([H])([H])C([H])([H])C([H])([H])C2([H])N([H])C(=O)C1([H])N(C(=O)C([H])(N([H])C(=O)C([H])(N([H])C([H])([H])[H])C([H])([H])[H])C(C([H])([H])[H])(C([H])([H])[H])C([H])([H])[H])C([H])([H])c2c([H])c(OC([H])([H])C([H])([H])Oc3c([H])c([H])c(N([H])C(=O)N4C([H])([H])C([H])([H])C([H])([H])C([H])(n5nc(-c6c([H])c([H])c(Oc7c([H])c([H])c(F)c([H])c7F)c([H])c6[H])c(C(=O)N([H])[H])c5N([H])[H])C4([H])[H])c([H])c3F)c([H])c([H])c2C1([H])[H]

$$$$
83:0:0
     RDKit          3D

 80 83  0  0  1  0  0  0  0  0999 V2000
  -24.7310  -31.7630   23.0940 C   0  0  0  0  0  0  0  0  0  0  0  0
  -27.2120  -26.2370   20.1170 C   0  0  0  0  0  0  0  0  0  0  0  0
  -23.5510  -30.3570   21.4670 C   0  0  0  0  0  3  0  0  0  0  0  0
  -24.9920  -28.6060   20.0730 C   0  0  0  0  0  0  0  0  0  0  0  0
  -26.1490  -30.3450   21.3880 C   0  0  0  0  0  2  0  0  0  0  0  0
  -26.2020  -28.8580   20.7260 C   0  0  0  0  0  0  0  0  0  0  0  0
  -27.2670  -27.7230   20.7010 C   0  0  0  0  0  3  0  0  0  0  0  0
  -25.9610  -26.3360   19.4020 C   0  0  0  0  0  3  0  0  0  0  0  0
  -24.9430  -27.3750   19.3820 C   0  0  0  0  0  3  0  0  0  0  0  0
  -23.8090  -29.6210   20.1110 C   0  0  0  0  0  2  0  0  0  0  0  0
  -24.8420  -30.8680   22.0340 N   0  0  0  0  0  0  0  0  0  0  0  0
  -23.6300  -32.0840   23.5830 O   0  0  0  0  0  0  0  0  0  0  0  0
  -22.7920  -29.4250   22.4550 C   0  0  0  0  0  0  0  0  0  0  0  0
  -21.4510  -29.3110   22.3500 N   0  0  0  0  0  0  0  0  0  0  0  0
  -23.4310  -28.7940   23.2980 O   0  0  0  0  0  0  0  0  0  0  0  0
  -20.9760  -29.8700   21.6530 H   0  0  0  0  0  0  0  0  0  0  0  0
  -18.0490  -28.1250   22.9140 C   0  0  0  0  0  0  0  0  0  0  0  0
  -20.6170  -28.3820   23.1290 C   0  0  0  0  0  3  0  0  0  0  0  0
  -20.6960  -26.9500   22.5460 C   0  0  0  0  0  2  0  0  0  0  0  0
  -19.5770  -26.6440   21.5450 C   0  0  0  0  0  2  0  0  0  0  0  0
  -18.2080  -26.7870   22.2130 C   0  0  0  0  0  2  0  0  0  0  0  0
  -19.1790  -28.8820   23.3280 C   0  0  0  0  0  0  0  0  0  0  0  0
  -18.9700  -30.1300   23.9550 C   0  0  0  0  0  3  0  0  0  0  0  0
  -17.6680  -30.6230   24.1640 C   0  0  0  0  0  3  0  0  0  0  0  0
  -16.5550  -29.8660   23.7580 C   0  0  0  0  0  3  0  0  0  0  0  0
  -16.7470  -28.6170   23.1410 C   0  0  0  0  0  3  0  0  0  0  0  0
  -25.9740  -32.4410   23.7510 C   0  0  0  0  0  3  0  0  0  0  0  0
  -25.6360  -33.8440   24.0870 N   0  0  0  0  0  0  0  0  0  0  0  0
  -25.9720  -34.9250   23.3680 C   0  0  0  0  0  0  0  0  0  0  0  0
  -26.6420  -34.8470   22.3360 O   0  0  0  0  0  0  0  0  0  0  0  0
  -25.0350  -33.9780   24.8870 H   0  0  0  0  0  0  0  0  0  0  0  0
  -24.2390  -36.7420   23.0930 C   0  0  0  0  0  1  0  0  0  0  0  0
  -25.4980  -36.3120   23.8640 C   0  0  0  0  0  3  0  0  0  0  0  0
  -27.6510  -37.1970   24.6590 C   0  0  0  0  0  1  0  0  0  0  0  0
  -26.5260  -37.3710   23.7430 N   0  0  0  0  0  0  0  0  0  0  0  0
  -26.1210  -38.2880   23.9120 H   0  0  0  0  0  0  0  0  0  0  0  0
  -26.4550  -31.7000   25.0620 C   0  0  1  0  0  0  0  0  0  0  0  0
  -25.3370  -31.4980   26.1140 C   0  0  0  0  0  1  0  0  0  0  0  0
  -27.0360  -30.3080   24.7370 C   0  0  0  0  0  1  0  0  0  0  0  0
  -27.5980  -32.5020   25.7280 C   0  0  0  0  0  1  0  0  0  0  0  0
  -28.1330  -24.7870   20.1310 O   0  0  0  0  0  1  0  0  0  0  0  0
  -28.1340  -22.7360   20.0320 C   0  0  0  0  0 15  0  0  0  0  0  0
  -29.0900  -20.6470   20.0500 C   0  0  0  0  0 15  0  0  0  0  0  0
  -29.0620  -18.5970   20.0550 O   0  0  0  0  0 15  0  0  0  0  0  0
  -30.0510  -16.5410   19.9720 C   0  0  0  0  0  2  0  0  0  0  0  0
  -30.3270  -13.7530   19.2670 C   0  0  0  0  0  2  0  0  0  0  0  0
  -29.5280  -12.9810   18.1470 C   0  0  0  0  0  2  0  0  0  0  0  0
  -28.1890  -12.4510   18.6640 C   0  0  0  0  0  2  0  0  0  0  0  0
  -27.5570  -13.4950   19.6000 C   0  0  0  0  0  3  0  0  0  0  0  0
  -28.5150  -14.1660   20.6400 C   0  0  0  0  0  2  0  0  0  0  0  0
  -29.5650  -14.9820   19.9220 N   0  0  0  0  0  0  0  0  0  0  0  0
  -31.2920  -16.3610   19.8280 O   0  0  0  0  0  1  0  0  0  0  0  0
  -25.2260  -13.9170   20.4480 C   0  0  0  0  0  0  0  0  0  0  0  0
  -24.1960  -13.1110   20.8330 C   0  0  0  0  0  0  0  0  0  0  0  0
  -24.6930  -11.7710   20.7770 C   0  0  0  0  0  0  0  0  0  0  0  0
  -26.2840  -13.0780   20.1710 N   0  0  0  0  0  0  0  0  0  0  0  0
  -25.9810  -11.7720   20.4270 N   0  0  0  0  0  0  0  0  0  0  0  0
  -23.9850  -10.4960   20.9760 C   0  0  0  0  0  0  0  0  0  0  0  0
  -24.4320   -9.5330   21.9070 C   0  0  0  0  0  3  0  0  0  0  0  0
  -23.7140   -8.3330   22.1020 C   0  0  0  0  0  3  0  0  0  0  0  0
  -22.5310   -8.0850   21.3640 C   0  0  0  0  0  0  0  0  0  0  0  0
  -22.1000   -9.0370   20.4240 C   0  0  0  0  0  3  0  0  0  0  0  0
  -22.8200  -10.2290   20.2280 C   0  0  0  0  0  3  0  0  0  0  0  0
  -21.7830   -6.9360   21.4670 O   0  0  0  0  0  0  0  0  0  0  0  0
  -21.7470   -6.2000   22.6240 C   0  0  0  0  0  0  0  0  0  0  0  0
  -21.3430   -6.7630   23.8530 C   0  0  0  0  0  3  0  0  0  0  0  0
  -21.2520   -5.9550   25.0030 C   0  0  0  0  0  3  0  0  0  0  0  0
  -21.5570   -4.5820   24.9260 C   0  0  0  0  0  0  0  0  0  0  0  0
  -21.9550   -4.0180   23.7020 C   0  0  0  0  0  3  0  0  0  0  0  0
  -22.0460   -4.8240   22.5530 C   0  0  0  0  0  0  0  0  0  0  0  0
  -22.4080   -4.2690   21.3710 F   0  0  0  0  0  0  0  0  0  0  0  0
  -21.4640   -3.8030   26.0290 F   0  0  0  0  0  0  0  0  0  0  0  0
  -22.7990  -13.5650   21.1320 C   0  0  0  0  0  0  0  0  0  0  0  0
  -22.1020  -12.8630   22.0170 N   0  0  0  0  0  0  0  0  0  0  0  0
  -22.3380  -14.5840   20.6180 O   0  0  0  0  0  0  0  0  0  0  0  0
  -22.4920  -12.0410   22.4540 H   0  0  0  0  0  0  0  0  0  0  0  0
  -21.1650  -13.1510   22.2610 H   0  0  0  0  0  0  0  0  0  0  0  0
  -25.3500  -15.2920   20.2710 N   0  0  0  0  0  0  0  0  0  0  0  0
  -24.5720  -15.9290   20.4080 H   0  0  0  0  0  0  0  0  0  0  0  0
  -26.1860  -15.7530   19.9340 H   0  0  0  0  0  0  0  0  0  0  0  0
  1 12  2  0
  2 41  1  0
  2  7  1  0
  3 11  1  0
  3 13  1  0
  4 10  1  0
  4  6  1  0
  5 11  1  0
  6  5  1  0
  7  6  2  0
  8  2  2  0
  9  8  1  0
  9  4  2  0
 10  3  1  0
 11  1  1  0
 13 15  2  0
 14 13  1  0
 16 14  1  0
 17 26  2  0
 17 22  1  0
 18 14  1  0
 18 22  1  0
 19 18  1  0
 20 21  1  0
 20 19  1  0
 21 17  1  0
 22 23  2  0
 23 24  1  0
 25 24  2  0
 26 25  1  0
 27  1  1  0
 27 28  1  0
 27 37  1  0
 28 31  1  0
 29 33  1  0
 29 28  1  0
 30 29  2  0
 33 32  1  0
 35 33  1  0
 35 36  1  0
 35 34  1  0
 37 40  1  1
 37 38  1  0
 39 37  1  0
 46 51  1  0
 47 48  1  0
 47 46  1  0
 49 48  1  0
 49 56  1  0
 49 50  1  0
 51 45  1  0
 51 50  1  0
 52 45  1  0
 53 54  2  0
 54 73  1  0
 55 54  1  0
 55 58  1  0
 56 57  1  0
 56 53  1  0
 57 55  2  0
 58 59  1  0
 59 60  2  0
 61 64  1  0
 61 60  1  0
 62 61  2  0
 63 62  1  0
 63 58  2  0
 64 65  1  0
 65 66  1  0
 66 67  2  0
 68 67  1  0
 68 72  1  0
 69 68  2  0
 70 65  2  0
 70 69  1  0
 71 70  1  0
 73 74  1  0
 74 77  1  0
 74 76  1  0
 75 73  2  0
 78 79  1  0
 78 53  1  0
 80 78  1  0
M  ISO  4  41 101  42 101  44 100  45 100
M  END
>  <TORSDO>  (84) 
F 18

>  <SCORE>  (84) 
-16.084

>  <name>  (84) 
83

>  <ligand_id>  (84) 
83

>  <original_smiles>  (84) 
[H]c1c([H])c([H])c2c(c1[H])C([H])([H])C([H])([H])C([H])([H])C2([H])N([H])C(=O)C1([H])N(C(=O)C([H])(N([H])C(=O)C([H])(N([H])C([H])([H])[H])C([H])([H])[H])C(C([H])([H])[H])(C([H])([H])[H])C([H])([H])[H])C([H])([H])c2c([H])c(OC([H])([H])C([H])([H])OC(=O)N3C([H])([H])C([H])([H])C([H])([H])C([H])(n4nc(-c5c([H])c([H])c(Oc6c([H])c([H])c(F)c([H])c6F)c([H])c5[H])c(C(=O)N([H])[H])c4N([H])[H])C3([H])[H])c([H])c([H])c2C1([H])[H]

>  <smiles>  (84) 
[H]c1c([H])c([H])c2c(c1[H])C([H])([H])C([H])([H])C([H])([H])C2([H])N([H])C(=O)C1([H])N(C(=O)C([H])(N([H])C(=O)C([H])(N([H])C([H])([H])[H])C([H])([H])[H])C(C([H])([H])[H])(C([H])([H])[H])C([H])([H])[H])C([H])([H])c2c([H])c(OC([H])([H])C([H])([H])OC(=O)N3C([H])([H])C([H])([H])C([H])([H])C([H])(n4nc(-c5c([H])c([H])c(Oc6c([H])c([H])c(F)c([H])c6F)c([H])c5[H])c(C(=O)N([H])[H])c4N([H])[H])C3([H])[H])c([H])c([H])c2C1([H])[H]

$$$$
84:0:0
     RDKit          3D

 93101  0  0  1  0  0  0  0  0999 V2000
  -28.5800  -21.9600   21.3690 C   0  0  0  0  0  2  0  0  0  0  0  0
  -28.1140  -20.6370   19.2360 C   0  0  0  0  0  3  0  0  0  0  0  0
  -28.1320  -19.4370   18.5000 C   0  0  0  0  0  3  0  0  0  0  0  0
  -29.3920  -19.5380   20.9920 C   0  0  0  0  0  3  0  0  0  0  0  0
  -28.7290  -20.6970   20.5010 C   0  0  0  0  0  0  0  0  0  0  0  0
  -28.7510  -18.2730   19.0080 C   0  0  0  0  0  0  0  0  0  0  0  0
  -29.4070  -18.3080   20.2750 C   0  0  0  0  0  0  0  0  0  0  0  0
  -28.6970  -17.0140   18.1590 C   0  0  0  0  0  1  0  0  0  0  0  0
  -30.1360  -17.1010   20.9330 C   0  0  0  0  0  2  0  0  0  0  0  0
  -30.6100  -14.6120   20.5490 C   0  0  0  0  0  0  0  0  0  0  0  0
  -30.4080  -12.4160   19.4610 C   0  0  0  0  0  2  0  0  0  0  0  0
  -29.4840  -12.5780   18.2360 C   0  0  0  0  0  2  0  0  0  0  0  0
  -28.0010  -12.4310   18.6350 C   0  0  0  0  0  2  0  0  0  0  0  0
  -27.6220  -13.2750   19.8820 C   0  0  0  0  0  3  0  0  0  0  0  0
  -28.6580  -13.0910   21.0120 C   0  0  0  0  0  2  0  0  0  0  0  0
  -29.9810  -13.4100   20.4550 N   0  0  0  0  0  0  0  0  0  0  0  0
  -31.7850  -14.7810   20.2130 O   0  0  0  0  0  0  0  0  0  0  0  0
  -29.8010  -15.6600   20.8410 N   0  0  0  0  0  0  0  0  0  0  0  0
  -28.8450  -15.4200   21.0530 H   0  0  0  0  0  0  0  0  0  0  0  0
  -25.2020  -13.8730   20.5160 C   0  0  0  0  0  0  0  0  0  0  0  0
  -24.1310  -13.0960   20.8660 C   0  0  0  0  0  0  0  0  0  0  0  0
  -24.6040  -11.7490   20.8680 C   0  0  0  0  0  0  0  0  0  0  0  0
  -26.2610  -12.9990   20.3310 N   0  0  0  0  0  0  0  0  0  0  0  0
  -25.9030  -11.7160   20.5970 N   0  0  0  0  0  0  0  0  0  0  0  0
  -23.8850  -10.4830   21.0470 C   0  0  0  0  0  0  0  0  0  0  0  0
  -24.3010   -9.5250   21.9970 C   0  0  0  0  0  3  0  0  0  0  0  0
  -23.5800   -8.3240   22.1680 C   0  0  0  0  0  3  0  0  0  0  0  0
  -22.4290   -8.0700   21.3840 C   0  0  0  0  0  0  0  0  0  0  0  0
  -22.0320   -9.0160   20.4220 C   0  0  0  0  0  3  0  0  0  0  0  0
  -22.7540  -10.2100   20.2510 C   0  0  0  0  0  3  0  0  0  0  0  0
  -21.6820   -6.9200   21.4650 O   0  0  0  0  0  0  0  0  0  0  0  0
  -21.6060   -6.1900   22.6240 C   0  0  0  0  0  0  0  0  0  0  0  0
  -21.1270   -6.7500   23.8280 C   0  0  0  0  0  3  0  0  0  0  0  0
  -21.0000   -5.9440   24.9770 C   0  0  0  0  0  3  0  0  0  0  0  0
  -21.3420   -4.5790   24.9220 C   0  0  0  0  0  0  0  0  0  0  0  0
  -21.8160   -4.0210   23.7220 C   0  0  0  0  0  3  0  0  0  0  0  0
  -21.9440   -4.8220   22.5760 C   0  0  0  0  0  0  0  0  0  0  0  0
  -22.3790   -4.2720   21.4160 F   0  0  0  0  0  0  0  0  0  0  0  0
  -21.2140   -3.8020   26.0230 F   0  0  0  0  0  0  0  0  0  0  0  0
  -22.7230  -13.5650   21.0990 C   0  0  0  0  0  0  0  0  0  0  0  0
  -21.9780  -12.8700   21.9530 N   0  0  0  0  0  0  0  0  0  0  0  0
  -22.2890  -14.5820   20.5600 O   0  0  0  0  0  0  0  0  0  0  0  0
  -22.3410  -12.0470   22.4110 H   0  0  0  0  0  0  0  0  0  0  0  0
  -21.0340  -13.1680   22.1580 H   0  0  0  0  0  0  0  0  0  0  0  0
  -25.3560  -15.2420   20.3210 N   0  0  0  0  0  0  0  0  0  0  0  0
  -24.5600  -15.8690   20.3350 H   0  0  0  0  0  0  0  0  0  0  0  0
  -26.2120  -15.7080   20.0510 H   0  0  0  0  0  0  0  0  0  0  0  0
  -29.1890  -23.2030   20.8180 N   0  0  0  0  0  4  0  0  0  0  0  0
  -29.7950  -22.9540   20.0530 H   0  0  0  0  0  0  0  0  0  0  0  0
  -29.7930  -23.5490   21.5490 H   0  0  0  0  0  0  0  0  0  0  0  0
  -28.2650  -24.3210   20.4220 C   0  0  0  0  0  2  0  0  0  0  0  0
  -28.7200  -25.7150   20.9520 C   0  0  0  0  0  2  0  0  0  0  0  0
  -28.4440  -26.8220   20.0750 O   0  0  0  0  0  0  0  0  0  0  0  0
  -24.5790  -31.9340   23.2690 C   0  0  0  0  0  0  0  0  0  0  0  0
  -27.2500  -27.4960   20.2000 C   0  0  0  0  0  0  0  0  0  0  0  0
  -23.3760  -30.5270   21.6260 C   0  0  0  0  0  3  0  0  0  0  0  0
  -24.8410  -28.9830   20.2110 C   0  0  0  0  0  0  0  0  0  0  0  0
  -25.9010  -30.8940   21.4270 C   0  0  0  0  0  2  0  0  0  0  0  0
  -25.9940  -29.5170   20.8010 C   0  0  0  0  0  0  0  0  0  0  0  0
  -27.2020  -28.7800   20.7910 C   0  0  0  0  0  3  0  0  0  0  0  0
  -26.0790  -26.9710   19.6170 C   0  0  0  0  0  3  0  0  0  0  0  0
  -24.8770  -27.7070   19.6200 C   0  0  0  0  0  3  0  0  0  0  0  0
  -23.5910  -29.8370   20.2510 C   0  0  0  0  0  2  0  0  0  0  0  0
  -24.6370  -31.1340   22.1660 N   0  0  0  0  0  0  0  0  0  0  0  0
  -23.4970  -32.2020   23.8060 O   0  0  0  0  0  0  0  0  0  0  0  0
  -22.7330  -29.5050   22.5900 C   0  0  0  0  0  0  0  0  0  0  0  0
  -21.4080  -29.3260   22.4690 N   0  0  0  0  0  0  0  0  0  0  0  0
  -23.4200  -28.8780   23.4010 O   0  0  0  0  0  0  0  0  0  0  0  0
  -20.9120  -29.9100   21.8100 H   0  0  0  0  0  0  0  0  0  0  0  0
  -18.0470  -28.0850   22.9240 C   0  0  0  0  0  0  0  0  0  0  0  0
  -20.5960  -28.3740   23.2240 C   0  0  0  0  0  3  0  0  0  0  0  0
  -20.7250  -26.9490   22.6430 C   0  0  0  0  0  2  0  0  0  0  0  0
  -19.6360  -26.6210   21.6180 C   0  0  0  0  0  2  0  0  0  0  0  0
  -18.2490  -26.7360   22.2570 C   0  0  0  0  0  2  0  0  0  0  0  0
  -19.1500  -28.8610   23.3650 C   0  0  0  0  0  0  0  0  0  0  0  0
  -18.9110  -30.1260   23.9480 C   0  0  0  0  0  3  0  0  0  0  0  0
  -17.5980  -30.6130   24.0950 C   0  0  0  0  0  3  0  0  0  0  0  0
  -16.5070  -29.8330   23.6710 C   0  0  0  0  0  3  0  0  0  0  0  0
  -16.7330  -28.5710   23.0930 C   0  0  0  0  0  3  0  0  0  0  0  0
  -25.8650  -32.5680   23.8900 C   0  0  0  0  0  3  0  0  0  0  0  0
  -25.5570  -33.9710   24.2010 N   0  0  0  0  0  0  0  0  0  0  0  0
  -25.8970  -35.0120   23.4320 C   0  0  0  0  0  0  0  0  0  0  0  0
  -26.5750  -34.8950   22.4060 O   0  0  0  0  0  0  0  0  0  0  0  0
  -24.9620  -34.1380   24.9990 H   0  0  0  0  0  0  0  0  0  0  0  0
  -24.1840  -36.8080   23.0350 C   0  0  0  0  0  1  0  0  0  0  0  0
  -25.4120  -36.4080   23.8690 C   0  0  0  0  0  3  0  0  0  0  0  0
  -27.5380  -37.2920   24.7210 C   0  0  0  0  0  1  0  0  0  0  0  0
  -26.4520  -37.4550   23.7570 N   0  0  0  0  0  0  0  0  0  0  0  0
  -26.0490  -38.3790   23.8860 H   0  0  0  0  0  0  0  0  0  0  0  0
  -26.3730  -31.8080   25.1750 C   0  0  1  0  0  0  0  0  0  0  0  0
  -25.2730  -31.5830   26.2380 C   0  0  0  0  0  1  0  0  0  0  0  0
  -26.9540  -30.4260   24.7960 C   0  0  0  0  0  1  0  0  0  0  0  0
  -27.5210  -32.6070   25.8340 C   0  0  0  0  0  1  0  0  0  0  0  0
  2  5  1  0
  3  6  1  0
  3  2  2  0
  5  4  2  0
  5  1  1  0
  6  7  2  0
  7  9  1  0
  7  4  1  0
  8  6  1  0
 10 18  1  0
 11 16  1  0
 12 13  1  0
 12 11  1  0
 14 13  1  0
 14 23  1  0
 14 15  1  0
 16 10  1  0
 16 15  1  0
 17 10  2  0
 18  9  1  0
 18 19  1  0
 20 21  2  0
 21 22  1  0
 21 40  1  0
 22 25  1  0
 23 20  1  0
 23 24  1  0
 24 22  2  0
 25 26  1  0
 26 27  2  0
 28 31  1  0
 28 27  1  0
 29 28  2  0
 30 29  1  0
 30 25  2  0
 31 32  1  0
 32 33  1  0
 33 34  2  0
 35 34  1  0
 35 39  1  0
 36 35  2  0
 37 32  2  0
 37 36  1  0
 38 37  1  0
 40 41  1  0
 41 44  1  0
 41 43  1  0
 42 40  2  0
 45 46  1  0
 45 20  1  0
 47 45  1  0
 48  1  1  0
 48 50  1  0
 49 48  1  0
 51 48  1  0
 51 52  1  0
 53 55  1  0
 53 52  1  0
 54 65  2  0
 55 60  1  0
 56 64  1  0
 56 66  1  0
 57 63  1  0
 57 59  1  0
 58 64  1  0
 59 58  1  0
 60 59  2  0
 61 62  1  0
 61 55  2  0
 62 57  2  0
 63 56  1  0
 64 54  1  0
 66 68  2  0
 67 66  1  0
 69 67  1  0
 70 79  2  0
 70 75  1  0
 71 67  1  0
 71 75  1  0
 72 71  1  0
 73 74  1  0
 73 72  1  0
 74 70  1  0
 75 76  2  0
 76 77  1  0
 78 77  2  0
 79 78  1  0
 80 54  1  0
 80 81  1  0
 80 90  1  0
 81 84  1  0
 82 86  1  0
 82 81  1  0
 83 82  2  0
 86 85  1  0
 88 86  1  0
 88 89  1  0
 88 87  1  0
 90 93  1  1
 90 91  1  0
 92 90  1  0
M  ISO  4  10 100  18 100  52 101  53 101
M  END
>  <TORSDO>  (85) 
F 21

>  <SCORE>  (85) 
-13.335

>  <name>  (85) 
84

>  <ligand_id>  (85) 
84

>  <original_smiles>  (85) 
[H]c1c([H])c([H])c2c(c1[H])C([H])([H])C([H])([H])C([H])([H])C2([H])N([H])C(=O)C1([H])N(C(=O)C([H])(N([H])C(=O)C([H])(N([H])C([H])([H])[H])C([H])([H])[H])C(C([H])([H])[H])(C([H])([H])[H])C([H])([H])[H])C([H])([H])c2c([H])c(OC([H])([H])C([H])([H])[N+]([H])([H])C([H])([H])c3c([H])c([H])c(C([H])([H])[H])c(C([H])([H])N([H])C(=O)N4C([H])([H])C([H])([H])C([H])([H])C([H])(n5nc(-c6c([H])c([H])c(Oc7c([H])c([H])c(F)c([H])c7F)c([H])c6[H])c(C(=O)N([H])[H])c5N([H])[H])C4([H])[H])c3[H])c([H])c([H])c2C1([H])[H]

>  <smiles>  (85) 
[H]c1c([H])c([H])c2c(c1[H])C([H])([H])C([H])([H])C([H])([H])C2([H])N([H])C(=O)C1([H])N(C(=O)C([H])(N([H])C(=O)C([H])(N([H])C([H])([H])[H])C([H])([H])[H])C(C([H])([H])[H])(C([H])([H])[H])C([H])([H])[H])C([H])([H])c2c([H])c(OC([H])([H])C([H])([H])[N+]([H])([H])C([H])([H])c3c([H])c([H])c(C([H])([H])[H])c(C([H])([H])N([H])C(=O)N4C([H])([H])C([H])([H])C([H])([H])C([H])(n5nc(-c6c([H])c([H])c(Oc7c([H])c([H])c(F)c([H])c7F)c([H])c6[H])c(C(=O)N([H])[H])c5N([H])[H])C4([H])[H])c3[H])c([H])c([H])c2C1([H])[H]

$$$$
85:0:0
     RDKit          3D

 90 98  0  0  1  0  0  0  0  0999 V2000
  -31.0810  -22.4970   18.9460 C   0  0  0  0  0  2  0  0  0  0  0  0
  -31.3380  -22.5170   20.4560 C   0  0  0  0  0  2  0  0  0  0  0  0
  -29.6430  -22.9680   18.6700 C   0  0  0  0  0  2  0  0  0  0  0  0
  -30.5270  -21.3870   21.1210 C   0  0  0  0  0  2  0  0  0  0  0  0
  -28.6690  -22.6380   19.8350 C   0  0  0  0  0  3  0  0  0  0  0  0
  -29.1710  -21.1890   20.5230 N   0  0  1  0  0  4  0  0  0  0  0  0
  -28.5730  -21.0970   21.3300 H   0  0  0  0  0  0  0  0  0  0  0  0
  -28.1990  -24.2030   20.6260 C   0  0  0  0  0  2  0  0  0  0  0  0
  -28.3390  -25.8240   20.3210 O   0  0  0  0  0  0  0  0  0  0  0  0
  -24.6390  -31.7850   23.2010 C   0  0  0  0  0  0  0  0  0  0  0  0
  -27.2990  -26.8900   20.3080 C   0  0  0  0  0  0  0  0  0  0  0  0
  -23.5030  -30.3730   21.5400 C   0  0  0  0  0  3  0  0  0  0  0  0
  -24.9950  -28.7580   20.1800 C   0  0  0  0  0  0  0  0  0  0  0  0
  -26.0740  -30.5890   21.4690 C   0  0  0  0  0  2  0  0  0  0  0  0
  -26.1640  -29.1740   20.8280 C   0  0  0  0  0  0  0  0  0  0  0  0
  -27.3140  -28.2650   20.8600 C   0  0  0  0  0  3  0  0  0  0  0  0
  -26.0960  -26.6170   19.6200 C   0  0  0  0  0  3  0  0  0  0  0  0
  -24.9860  -27.4980   19.5570 C   0  0  0  0  0  3  0  0  0  0  0  0
  -23.7750  -29.6770   20.1780 C   0  0  0  0  0  2  0  0  0  0  0  0
  -24.7600  -30.9440   22.1230 N   0  0  0  0  0  0  0  0  0  0  0  0
  -23.5320  -32.0710   23.6850 O   0  0  0  0  0  0  0  0  0  0  0  0
  -22.7820  -29.3810   22.4900 C   0  0  0  0  0  0  0  0  0  0  0  0
  -21.4500  -29.2360   22.3490 N   0  0  0  0  0  0  0  0  0  0  0  0
  -23.4290  -28.7400   23.3210 O   0  0  0  0  0  0  0  0  0  0  0  0
  -20.9820  -29.7960   21.6510 H   0  0  0  0  0  0  0  0  0  0  0  0
  -18.0420  -28.1030   22.8410 C   0  0  0  0  0  0  0  0  0  0  0  0
  -20.6070  -28.3060   23.1070 C   0  0  0  0  0  3  0  0  0  0  0  0
  -20.6760  -26.8820   22.5090 C   0  0  0  0  0  2  0  0  0  0  0  0
  -19.5670  -26.6030   21.4900 C   0  0  0  0  0  2  0  0  0  0  0  0
  -18.1870  -26.7670   22.1330 C   0  0  0  0  0  2  0  0  0  0  0  0
  -19.1760  -28.8340   23.2810 C   0  0  0  0  0  0  0  0  0  0  0  0
  -18.9820  -30.0880   23.9020 C   0  0  0  0  0  3  0  0  0  0  0  0
  -17.6870  -30.6100   24.0810 C   0  0  0  0  0  3  0  0  0  0  0  0
  -16.5670  -29.8770   23.6550 C   0  0  0  0  0  3  0  0  0  0  0  0
  -16.7450  -28.6220   23.0410 C   0  0  0  0  0  3  0  0  0  0  0  0
  -25.8830  -32.4410   23.8700 C   0  0  0  0  0  3  0  0  0  0  0  0
  -26.3460  -31.6910   25.1800 C   0  0  1  0  0  0  0  0  0  0  0  0
  -25.2090  -31.4660   26.2050 C   0  0  0  0  0  1  0  0  0  0  0  0
  -26.9510  -30.3110   24.8410 C   0  0  0  0  0  1  0  0  0  0  0  0
  -27.4710  -32.4970   25.8700 C   0  0  0  0  0  1  0  0  0  0  0  0
  -25.5530  -33.8430   24.1830 N   0  0  0  0  0  0  0  0  0  0  0  0
  -25.8940  -34.8970   23.4300 C   0  0  0  0  0  0  0  0  0  0  0  0
  -26.5830  -34.7920   22.4120 O   0  0  0  0  0  0  0  0  0  0  0  0
  -24.9510  -33.9990   24.9790 H   0  0  0  0  0  0  0  0  0  0  0  0
  -24.1550  -36.6690   23.0490 C   0  0  0  0  0  1  0  0  0  0  0  0
  -25.3950  -36.2880   23.8740 C   0  0  0  0  0  3  0  0  0  0  0  0
  -27.5140  -37.1970   24.7170 C   0  0  0  0  0  1  0  0  0  0  0  0
  -26.4220  -37.3490   23.7570 N   0  0  0  0  0  0  0  0  0  0  0  0
  -26.0110  -38.2700   23.8850 H   0  0  0  0  0  0  0  0  0  0  0  0
  -29.0820  -19.6330   19.8930 C   0  0  0  0  0  2  0  0  0  0  0  0
  -30.1780  -18.1870   21.8730 C   0  0  0  0  0  1  0  0  0  0  0  0
  -29.9990  -18.1410   20.3430 C   0  0  0  0  0  3  0  0  0  0  0  0
  -30.5070  -15.2460   19.8610 C   0  0  0  0  0  0  0  0  0  0  0  0
  -30.4050  -12.8140   18.9450 C   0  0  0  0  0  2  0  0  0  0  0  0
  -29.3990  -12.5990   17.7850 C   0  0  0  0  0  2  0  0  0  0  0  0
  -27.9880  -12.3200   18.3310 C   0  0  0  0  0  2  0  0  0  0  0  0
  -27.6160  -13.2960   19.4740 C   0  0  0  0  0  3  0  0  0  0  0  0
  -28.7370  -13.4450   20.5230 C   0  0  0  0  0  2  0  0  0  0  0  0
  -29.9180  -13.9520   19.8060 N   0  0  0  0  0  0  0  0  0  0  0  0
  -31.7190  -15.2360   19.5990 O   0  0  0  0  0  0  0  0  0  0  0  0
  -29.7520  -16.5160   20.0120 N   0  0  0  0  0  0  0  0  0  0  0  0
  -28.7670  -16.3040   20.0580 H   0  0  0  0  0  0  0  0  0  0  0  0
  -25.3260  -13.8790   20.4250 C   0  0  0  0  0  0  0  0  0  0  0  0
  -24.2800  -13.1090   20.8540 C   0  0  0  0  0  0  0  0  0  0  0  0
  -24.7190  -11.7540   20.7510 C   0  0  0  0  0  0  0  0  0  0  0  0
  -26.3270  -12.9910   20.0770 N   0  0  0  0  0  0  0  0  0  0  0  0
  -25.9810  -11.7050   20.3420 N   0  0  0  0  0  0  0  0  0  0  0  0
  -23.9830  -10.4990   20.9580 C   0  0  0  0  0  0  0  0  0  0  0  0
  -24.4390   -9.5140   21.8610 C   0  0  0  0  0  3  0  0  0  0  0  0
  -23.7010   -8.3270   22.0570 C   0  0  0  0  0  3  0  0  0  0  0  0
  -22.4930   -8.1180   21.3510 C   0  0  0  0  0  0  0  0  0  0  0  0
  -22.0570   -9.0900   20.4340 C   0  0  0  0  0  3  0  0  0  0  0  0
  -22.7950  -10.2690   20.2350 C   0  0  0  0  0  3  0  0  0  0  0  0
  -21.7230   -6.9870   21.4600 O   0  0  0  0  0  0  0  0  0  0  0  0
  -21.6840   -6.2510   22.6170 C   0  0  0  0  0  0  0  0  0  0  0  0
  -21.2620   -6.8130   23.8430 C   0  0  0  0  0  3  0  0  0  0  0  0
  -21.1690   -6.0030   24.9930 C   0  0  0  0  0  3  0  0  0  0  0  0
  -21.4890   -4.6340   24.9190 C   0  0  0  0  0  0  0  0  0  0  0  0
  -21.9050   -4.0730   23.6990 C   0  0  0  0  0  3  0  0  0  0  0  0
  -21.9980   -4.8790   22.5510 C   0  0  0  0  0  0  0  0  0  0  0  0
  -22.3780   -4.3280   21.3730 F   0  0  0  0  0  0  0  0  0  0  0  0
  -21.3930   -3.8550   26.0220 F   0  0  0  0  0  0  0  0  0  0  0  0
  -22.9180  -13.6050   21.2360 C   0  0  0  0  0  0  0  0  0  0  0  0
  -22.2430  -12.9000   22.1370 N   0  0  0  0  0  0  0  0  0  0  0  0
  -22.4640  -14.6520   20.7750 O   0  0  0  0  0  0  0  0  0  0  0  0
  -22.6280  -12.0550   22.5310 H   0  0  0  0  0  0  0  0  0  0  0  0
  -21.3270  -13.2050   22.4350 H   0  0  0  0  0  0  0  0  0  0  0  0
  -25.5000  -15.2490   20.2720 N   0  0  0  0  0  0  0  0  0  0  0  0
  -24.7400  -15.9040   20.4250 H   0  0  0  0  0  0  0  0  0  0  0  0
  -26.3160  -15.6830   19.8630 H   0  0  0  0  0  0  0  0  0  0  0  0
  1  2  1  0
  2  4  1  0
  3  1  1  0
  3  5  1  0
  5  6  1  0
  5  8  1  0
  6  4  1  0
  6  7  1  1
  9  8  1  0
 10 21  2  0
 11  9  1  0
 11 16  1  0
 12 20  1  0
 12 22  1  0
 13 15  1  0
 14 20  1  0
 15 16  2  0
 15 14  1  0
 17 11  2  0
 18 17  1  0
 18 13  2  0
 19 13  1  0
 19 12  1  0
 20 10  1  0
 22 24  2  0
 23 22  1  0
 25 23  1  0
 26 35  2  0
 26 31  1  0
 27 23  1  0
 27 31  1  0
 28 27  1  0
 29 30  1  0
 29 28  1  0
 30 26  1  0
 31 32  2  0
 32 33  1  0
 34 33  2  0
 35 34  1  0
 36 10  1  0
 36 41  1  0
 36 37  1  0
 37 40  1  1
 37 38  1  0
 39 37  1  0
 41 44  1  0
 42 46  1  0
 42 41  1  0
 43 42  2  0
 46 45  1  0
 48 46  1  0
 48 49  1  0
 48 47  1  0
 50 52  1  0
 50  6  1  0
 52 51  1  0
 53 61  1  0
 54 59  1  0
 55 56  1  0
 55 54  1  0
 57 56  1  0
 57 66  1  0
 57 58  1  0
 59 53  1  0
 59 58  1  0
 60 53  2  0
 61 62  1  0
 61 52  1  0
 63 64  2  0
 64 83  1  0
 65 64  1  0
 65 68  1  0
 66 67  1  0
 66 63  1  0
 67 65  2  0
 68 69  1  0
 69 70  2  0
 71 74  1  0
 71 70  1  0
 72 71  2  0
 73 72  1  0
 73 68  2  0
 74 75  1  0
 75 76  1  0
 76 77  2  0
 78 77  1  0
 78 82  1  0
 79 78  2  0
 80 75  2  0
 80 79  1  0
 81 80  1  0
 83 84  1  0
 84 87  1  0
 84 86  1  0
 85 83  2  0
 88 63  1  0
 88 89  1  0
 90 88  1  0
M  ISO  4   8 101   9 101  53 100  61 100
M  END
>  <TORSDO>  (86) 
F 19

>  <SCORE>  (86) 
-16.296

>  <name>  (86) 
85

>  <ligand_id>  (86) 
85

>  <original_smiles>  (86) 
[H]c1c([H])c([H])c2c(c1[H])C([H])([H])C([H])([H])C([H])([H])C2([H])N([H])C(=O)C1([H])N(C(=O)C([H])(N([H])C(=O)C([H])(N([H])C([H])([H])[H])C([H])([H])[H])C(C([H])([H])[H])(C([H])([H])[H])C([H])([H])[H])C([H])([H])c2c([H])c(OC([H])([H])C3([H])C([H])([H])C([H])([H])C([H])([H])C([H])([H])[N+]3([H])C([H])([H])C([H])(N([H])C(=O)N3C([H])([H])C([H])([H])C([H])([H])C([H])(n4nc(-c5c([H])c([H])c(Oc6c([H])c([H])c(F)c([H])c6F)c([H])c5[H])c(C(=O)N([H])[H])c4N([H])[H])C3([H])[H])C([H])([H])[H])c([H])c([H])c2C1([H])[H]

>  <smiles>  (86) 
[H]c1c([H])c([H])c2c(c1[H])C([H])([H])C([H])([H])C([H])([H])C2([H])N([H])C(=O)C1([H])N(C(=O)C([H])(N([H])C(=O)C([H])(N([H])C([H])([H])[H])C([H])([H])[H])C(C([H])([H])[H])(C([H])([H])[H])C([H])([H])[H])C([H])([H])c2c([H])c(OC([H])([H])C3([H])C([H])([H])C([H])([H])C([H])([H])C([H])([H])[N+]3([H])C([H])([H])C([H])(N([H])C(=O)N3C([H])([H])C([H])([H])C([H])([H])C([H])(n4nc(-c5c([H])c([H])c(Oc6c([H])c([H])c(F)c([H])c6F)c([H])c5[H])c(C(=O)N([H])[H])c4N([H])[H])C3([H])[H])C([H])([H])[H])c([H])c([H])c2C1([H])[H]

$$$$
86:0:0
     RDKit          3D

 92101  0  0  1  0  0  0  0  0999 V2000
  -31.5820  -15.2360   19.5690 C   0  0  0  0  0  0  0  0  0  0  0  0
  -31.3880  -12.7590   18.9760 C   0  0  0  0  0  2  0  0  0  0  0  0
  -30.4190  -12.5130   17.7900 C   0  0  0  0  0  2  0  0  0  0  0  0
  -28.9520  -12.4320   18.2590 C   0  0  0  0  0  2  0  0  0  0  0  0
  -28.6090  -13.5590   19.2640 C   0  0  0  0  0  3  0  0  0  0  0  0
  -29.6720  -13.6410   20.3680 C   0  0  0  0  0  2  0  0  0  0  0  0
  -30.9540  -13.9850   19.7210 N   0  0  0  0  0  0  0  0  0  0  0  0
  -32.7040  -15.2190   19.0430 O   0  0  0  0  0  0  0  0  0  0  0  0
  -31.1070  -18.2760   17.9690 C   0  0  0  0  0  3  0  0  0  0  0  0
  -30.9100  -19.6260   17.4560 C   0  0  0  0  0  3  0  0  0  0  0  0
  -30.3640  -20.4210   19.5950 C   0  0  0  0  0  3  0  0  0  0  0  0
  -30.5200  -19.0660   20.1170 C   0  0  0  0  0  0  0  0  0  0  0  0
  -30.9000  -17.8970   19.3370 C   0  0  0  0  0  0  0  0  0  0  0  0
  -30.5230  -20.7850   18.2230 C   0  0  0  0  0  0  0  0  0  0  0  0
  -30.1860  -18.9010   21.5960 C   0  0  0  0  0  2  0  0  0  0  0  0
  -30.5350  -16.4960   21.3740 C   0  0  0  0  0  2  0  0  0  0  0  0
  -30.4420  -17.5250   23.6130 C   0  0  0  0  0  1  0  0  0  0  0  0
  -30.9680  -16.4770   19.9600 N   0  0  0  0  0  0  0  0  0  0  0  0
  -30.8130  -17.7030   22.1860 N   0  0  2  0  0  4  0  0  0  0  0  0
  -31.8090  -17.8590   22.1720 H   0  0  0  0  0  0  0  0  0  0  0  0
  -26.3730  -14.4200   20.1720 C   0  0  0  0  0  0  0  0  0  0  0  0
  -25.2370  -13.7790   20.5800 C   0  0  0  0  0  0  0  0  0  0  0  0
  -25.5080  -12.3820   20.4610 C   0  0  0  0  0  0  0  0  0  0  0  0
  -27.2660  -13.4230   19.8190 N   0  0  0  0  0  0  0  0  0  0  0  0
  -26.7570  -12.1860   20.0580 N   0  0  0  0  0  0  0  0  0  0  0  0
  -24.6270  -11.2220   20.6470 C   0  0  0  0  0  0  0  0  0  0  0  0
  -25.0140  -10.1210   21.4430 C   0  0  0  0  0  3  0  0  0  0  0  0
  -24.1420   -9.0230   21.6160 C   0  0  0  0  0  3  0  0  0  0  0  0
  -22.8700   -9.0220   20.9960 C   0  0  0  0  0  0  0  0  0  0  0  0
  -22.5010  -10.1110   20.1860 C   0  0  0  0  0  3  0  0  0  0  0  0
  -23.3710  -11.2000   20.0090 C   0  0  0  0  0  3  0  0  0  0  0  0
  -21.9680   -7.9900   21.0900 O   0  0  0  0  0  0  0  0  0  0  0  0
  -22.0160   -7.0830   22.1180 C   0  0  0  0  0  0  0  0  0  0  0  0
  -21.8670   -7.4760   23.4670 C   0  0  0  0  0  3  0  0  0  0  0  0
  -21.8510   -6.5010   24.4850 C   0  0  0  0  0  3  0  0  0  0  0  0
  -21.9740   -5.1370   24.1590 C   0  0  0  0  0  0  0  0  0  0  0  0
  -22.1190   -4.7460   22.8160 C   0  0  0  0  0  3  0  0  0  0  0  0
  -22.1350   -5.7160   21.7990 C   0  0  0  0  0  0  0  0  0  0  0  0
  -22.2510   -5.3290   20.5050 F   0  0  0  0  0  0  0  0  0  0  0  0
  -21.9550   -4.2020   25.1350 F   0  0  0  0  0  0  0  0  0  0  0  0
  -23.9370  -14.4270   20.9610 C   0  0  0  0  0  0  0  0  0  0  0  0
  -23.1780  -13.8070   21.8570 N   0  0  0  0  0  0  0  0  0  0  0  0
  -23.6110  -15.5190   20.4970 O   0  0  0  0  0  0  0  0  0  0  0  0
  -23.4560  -12.9240   22.2600 H   0  0  0  0  0  0  0  0  0  0  0  0
  -22.3050  -14.2250   22.1480 H   0  0  0  0  0  0  0  0  0  0  0  0
  -26.7100  -15.7640   20.0500 N   0  0  0  0  0  0  0  0  0  0  0  0
  -26.0260  -16.4910   20.2310 H   0  0  0  0  0  0  0  0  0  0  0  0
  -27.5470  -16.1150   19.6010 H   0  0  0  0  0  0  0  0  0  0  0  0
  -30.2370  -22.0650   17.5710 O   0  0  0  0  0  0  0  0  0  0  0  0
  -30.2760  -23.5190   18.0710 C   0  0  0  0  0  3  0  0  0  0  0  0
  -29.1000  -24.6530   17.6390 C   0  0  0  0  0  3  0  0  0  0  0  0
  -29.0740  -26.1990   17.8260 O   0  0  0  0  0  0  0  0  0  0  0  0
  -24.9400  -30.1600   22.4190 C   0  0  0  0  0  0  0  0  0  0  0  0
  -27.8530  -26.9250   18.0750 C   0  0  0  0  0  0  0  0  0  0  0  0
  -23.7790  -28.9460   20.6110 C   0  0  0  0  0  3  0  0  0  0  0  0
  -25.2630  -28.0850   18.6980 C   0  0  0  0  0  0  0  0  0  0  0  0
  -26.1800  -29.7930   20.2540 C   0  0  0  0  0  2  0  0  0  0  0  0
  -26.4140  -28.6280   19.2800 C   0  0  0  0  0  0  0  0  0  0  0  0
  -27.7040  -28.0650   18.9610 C   0  0  0  0  0  3  0  0  0  0  0  0
  -26.6550  -26.4920   17.4640 C   0  0  0  0  0  3  0  0  0  0  0  0
  -25.3900  -27.0370   17.7730 C   0  0  0  0  0  3  0  0  0  0  0  0
  -23.9080  -28.6540   19.0910 C   0  0  0  0  0  2  0  0  0  0  0  0
  -24.9900  -29.6440   21.1520 N   0  0  0  0  0  0  0  0  0  0  0  0
  -23.9150  -30.0750   23.1120 O   0  0  0  0  0  0  0  0  0  0  0  0
  -23.4490  -27.6270   21.3560 C   0  0  0  0  0  0  0  0  0  0  0  0
  -22.1870  -27.1700   21.2670 N   0  0  0  0  0  0  0  0  0  0  0  0
  -24.3280  -27.0240   21.9780 O   0  0  0  0  0  0  0  0  0  0  0  0
  -21.5150  -27.7270   20.7570 H   0  0  0  0  0  0  0  0  0  0  0  0
  -19.2650  -25.0510   21.5500 C   0  0  0  0  0  0  0  0  0  0  0  0
  -21.6830  -25.9220   21.8460 C   0  0  0  0  0  3  0  0  0  0  0  0
  -22.1160  -24.6990   21.0030 C   0  0  0  0  0  2  0  0  0  0  0  0
  -21.0780  -24.2960   19.9510 C   0  0  0  0  0  2  0  0  0  0  0  0
  -19.7460  -23.9470   20.6210 C   0  0  0  0  0  2  0  0  0  0  0  0
  -20.1720  -25.9870   22.1130 C   0  0  0  0  0  0  0  0  0  0  0  0
  -19.6700  -27.0160   22.9400 C   0  0  0  0  0  3  0  0  0  0  0  0
  -18.2930  -27.1110   23.2130 C   0  0  0  0  0  3  0  0  0  0  0  0
  -17.4010  -26.1710   22.6690 C   0  0  0  0  0  3  0  0  0  0  0  0
  -17.8880  -25.1440   21.8410 C   0  0  0  0  0  3  0  0  0  0  0  0
  -26.1610  -30.8970   23.0490 C   0  0  0  0  0  3  0  0  0  0  0  0
  -25.6550  -32.0900   23.7460 N   0  0  0  0  0  0  0  0  0  0  0  0
  -25.7900  -33.3480   23.3060 C   0  0  0  0  0  0  0  0  0  0  0  0
  -26.4190  -33.6320   22.2830 O   0  0  0  0  0  0  0  0  0  0  0  0
  -25.0810  -31.9270   24.5600 H   0  0  0  0  0  0  0  0  0  0  0  0
  -23.8110  -34.8970   23.4510 C   0  0  0  0  0  1  0  0  0  0  0  0
  -25.1240  -34.4690   24.1280 C   0  0  0  0  0  3  0  0  0  0  0  0
  -27.1310  -35.3960   25.1960 C   0  0  0  0  0  1  0  0  0  0  0  0
  -25.9880  -35.6530   24.3240 N   0  0  0  0  0  0  0  0  0  0  0  0
  -25.4570  -36.4230   24.7200 H   0  0  0  0  0  0  0  0  0  0  0  0
  -26.9850  -29.9900   24.0440 C   0  0  1  0  0  0  0  0  0  0  0  0
  -26.1200  -29.3170   25.1360 C   0  0  0  0  0  1  0  0  0  0  0  0
  -27.7260  -28.8710   23.2760 C   0  0  0  0  0  1  0  0  0  0  0  0
  -28.0730  -30.8330   24.7480 C   0  0  0  0  0  1  0  0  0  0  0  0
  1  7  1  0
  1 18  1  0
  2  7  1  0
  3  4  1  0
  3  2  1  0
  5  4  1  0
  5 24  1  0
  5  6  1  0
  7  6  1  0
  8  1  2  0
  9 13  1  0
 10  9  2  0
 10 14  1  0
 11 12  1  0
 12 15  1  0
 13 18  1  0
 13 12  2  0
 14 11  2  0
 15 19  1  0
 16 19  1  0
 18 16  1  0
 19 17  1  0
 19 20  1  1
 21 22  2  0
 22 41  1  0
 23 22  1  0
 23 26  1  0
 24 25  1  0
 24 21  1  0
 25 23  2  0
 26 27  1  0
 27 28  2  0
 29 32  1  0
 29 28  1  0
 30 29  2  0
 31 30  1  0
 31 26  2  0
 32 33  1  0
 33 34  1  0
 34 35  2  0
 36 35  1  0
 36 40  1  0
 37 36  2  0
 38 33  2  0
 38 37  1  0
 39 38  1  0
 41 42  1  0
 42 45  1  0
 42 44  1  0
 43 41  2  0
 46 21  1  0
 46 47  1  0
 48 46  1  0
 49 50  1  0
 49 14  1  0
 51 52  1  0
 51 50  2  0
 52 54  1  0
 53 64  2  0
 54 59  1  0
 55 63  1  0
 55 65  1  0
 56 62  1  0
 56 58  1  0
 57 63  1  0
 58 57  1  0
 59 58  2  0
 60 61  1  0
 60 54  2  0
 61 56  2  0
 62 55  1  0
 63 53  1  0
 65 67  2  0
 66 65  1  0
 68 66  1  0
 69 78  2  0
 69 74  1  0
 70 66  1  0
 70 74  1  0
 71 70  1  0
 72 73  1  0
 72 71  1  0
 73 69  1  0
 74 75  2  0
 75 76  1  0
 77 76  2  0
 78 77  1  0
 79 53  1  0
 79 80  1  0
 79 89  1  0
 80 83  1  0
 81 80  1  0
 81 85  1  0
 82 81  2  0
 85 84  1  0
 85 87  1  0
 87 88  1  0
 87 86  1  0
 89 92  1  1
 89 90  1  0
 91 89  1  0
M  ISO  4   1 100  18 100  51 101  52 101
M  END
>  <TORSDO>  (87) 
F 18

>  <SCORE>  (87) 
-8.140

>  <name>  (87) 
86

>  <ligand_id>  (87) 
86

>  <original_smiles>  (87) 
[H]c1c([H])c([H])c2c(c1[H])C([H])([H])C([H])([H])C([H])([H])C2([H])N([H])C(=O)C1([H])N(C(=O)C([H])(N([H])C(=O)C([H])(N([H])C([H])([H])[H])C([H])([H])[H])C(C([H])([H])[H])(C([H])([H])[H])C([H])([H])[H])C([H])([H])c2c([H])c(OC([H])([H])C([H])([H])Oc3c([H])c([H])c4c(c3[H])C([H])([H])[N+]([H])(C([H])([H])[H])C([H])([H])N4C(=O)N3C([H])([H])C([H])([H])C([H])([H])C([H])(n4nc(-c5c([H])c([H])c(Oc6c([H])c([H])c(F)c([H])c6F)c([H])c5[H])c(C(=O)N([H])[H])c4N([H])[H])C3([H])[H])c([H])c([H])c2C1([H])[H]

>  <smiles>  (87) 
[H]c1c([H])c([H])c2c(c1[H])C([H])([H])C([H])([H])C([H])([H])C2([H])N([H])C(=O)C1([H])N(C(=O)C([H])(N([H])C(=O)C([H])(N([H])C([H])([H])[H])C([H])([H])[H])C(C([H])([H])[H])(C([H])([H])[H])C([H])([H])[H])C([H])([H])c2c([H])c(OC([H])([H])C([H])([H])Oc3c([H])c([H])c4c(c3[H])C([H])([H])[N+]([H])(C([H])([H])[H])C([H])([H])N4C(=O)N3C([H])([H])C([H])([H])C([H])([H])C([H])(n4nc(-c5c([H])c([H])c(Oc6c([H])c([H])c(F)c([H])c6F)c([H])c5[H])c(C(=O)N([H])[H])c4N([H])[H])C3([H])[H])c([H])c([H])c2C1([H])[H]

$$$$
87:0:0
     RDKit          3D

 96105  0  0  1  0  0  0  0  0999 V2000
  -29.8360  -25.3530   17.9300 C   0  0  0  0  0  2  0  0  0  0  0  0
  -29.1170  -23.1010   17.8210 C   0  0  0  0  0  2  0  0  0  0  0  0
  -28.3800  -25.8590   17.9870 C   0  0  0  0  0  2  0  0  0  0  0  0
  -27.6350  -23.5360   17.8860 C   0  0  0  0  0  2  0  0  0  0  0  0
  -29.9080  -24.1280   17.1280 N   0  0  0  0  0  0  0  0  0  0  0  0
  -27.4750  -24.8390   18.5820 N   0  0  2  0  0  4  0  0  0  0  0  0
  -27.7760  -24.7000   19.5330 H   0  0  0  0  0  0  0  0  0  0  0  0
  -26.0490  -25.2600   18.6380 C   0  0  0  0  0  2  0  0  0  0  0  0
  -25.1880  -25.7240   16.2760 C   0  0  0  0  0  3  0  0  0  0  0  0
  -24.5120  -23.6630   17.3950 C   0  0  0  0  0  3  0  0  0  0  0  0
  -23.7110  -24.1460   15.1450 C   0  0  0  0  0  3  0  0  0  0  0  0
  -25.2400  -24.8730   17.4050 C   0  0  0  0  0  0  0  0  0  0  0  0
  -24.4350  -25.3630   15.1360 C   0  0  0  0  0  0  0  0  0  0  0  0
  -23.7520  -23.3010   16.2700 C   0  0  0  0  0  0  0  0  0  0  0  0
  -23.0540  -22.1410   16.2720 F   0  0  0  0  0  0  0  0  0  0  0  0
  -23.3210  -26.9370   13.5630 C   0  0  0  0  0  0  0  0  0  0  0  0
  -22.5320  -28.5960   11.9120 C   0  0  0  0  0  2  0  0  0  0  0  0
  -22.2830  -27.9570   10.5340 C   0  0  0  0  0  2  0  0  0  0  0  0
  -23.5800  -27.9240    9.7060 C   0  0  0  0  0  2  0  0  0  0  0  0
  -24.7750  -27.3320   10.4990 C   0  0  0  0  0  3  0  0  0  0  0  0
  -24.8890  -27.9960   11.8890 C   0  0  0  0  0  2  0  0  0  0  0  0
  -23.5980  -27.8400   12.5860 N   0  0  0  0  0  0  0  0  0  0  0  0
  -22.1750  -26.7320   13.9780 O   0  0  0  0  0  0  0  0  0  0  0  0
  -24.3840  -26.2700   14.0400 N   0  0  0  0  0  0  0  0  0  0  0  0
  -25.2460  -26.4230   13.5390 H   0  0  0  0  0  0  0  0  0  0  0  0
  -27.0000  -26.4860    9.5150 C   0  0  0  0  0  0  0  0  0  0  0  0
  -27.9200  -27.0810    8.6940 C   0  0  0  0  0  0  0  0  0  0  0  0
  -27.4370  -28.4030    8.4510 C   0  0  0  0  0  0  0  0  0  0  0  0
  -26.0220  -27.4430    9.7440 N   0  0  0  0  0  0  0  0  0  0  0  0
  -26.3220  -28.6180    9.1370 N   0  0  0  0  0  0  0  0  0  0  0  0
  -27.9410  -29.4580    7.5620 C   0  0  0  0  0  0  0  0  0  0  0  0
  -28.9310  -30.3710    7.9870 C   0  0  0  0  0  3  0  0  0  0  0  0
  -29.4110  -31.3660    7.1060 C   0  0  0  0  0  3  0  0  0  0  0  0
  -28.9060  -31.4500    5.7880 C   0  0  0  0  0  0  0  0  0  0  0  0
  -27.9030  -30.5530    5.3790 C   0  0  0  0  0  3  0  0  0  0  0  0
  -27.4220  -29.5680    6.2560 C   0  0  0  0  0  3  0  0  0  0  0  0
  -29.2940  -32.3990    4.8730 O   0  0  0  0  0  0  0  0  0  0  0  0
  -30.5290  -32.9940    4.9330 C   0  0  0  0  0  0  0  0  0  0  0  0
  -31.6960  -32.3310    4.4950 C   0  0  0  0  0  3  0  0  0  0  0  0
  -32.9340  -33.0050    4.5090 C   0  0  0  0  0  3  0  0  0  0  0  0
  -33.0050  -34.3400    4.9500 C   0  0  0  0  0  0  0  0  0  0  0  0
  -31.8430  -35.0030    5.3810 C   0  0  0  0  0  3  0  0  0  0  0  0
  -30.6070  -34.3320    5.3690 C   0  0  0  0  0  0  0  0  0  0  0  0
  -29.4870  -34.9830    5.7650 F   0  0  0  0  0  0  0  0  0  0  0  0
  -34.1930  -34.9890    4.9560 F   0  0  0  0  0  0  0  0  0  0  0  0
  -29.1320  -26.4300    8.0880 C   0  0  0  0  0  0  0  0  0  0  0  0
  -30.3030  -27.0290    8.2700 N   0  0  0  0  0  0  0  0  0  0  0  0
  -29.0500  -25.3590    7.4900 O   0  0  0  0  0  0  0  0  0  0  0  0
  -30.3730  -27.8980    8.7780 H   0  0  0  0  0  0  0  0  0  0  0  0
  -31.1440  -26.6110    7.8970 H   0  0  0  0  0  0  0  0  0  0  0  0
  -26.9020  -25.2140   10.0700 N   0  0  0  0  0  0  0  0  0  0  0  0
  -27.5730  -24.4810    9.8660 H   0  0  0  0  0  0  0  0  0  0  0  0
  -26.1230  -24.8910   10.6310 H   0  0  0  0  0  0  0  0  0  0  0  0
  -31.3080  -23.7230   16.9670 C   0  0  0  0  0  2  0  0  0  0  0  0
  -31.5880  -23.1830   15.5530 C   0  0  0  0  0  2  0  0  0  0  0  0
  -32.0830  -21.8490   15.6430 O   0  0  0  0  0  0  0  0  0  0  0  0
  -33.0600  -19.4410    9.0340 C   0  0  0  0  0  0  0  0  0  0  0  0
  -31.6390  -21.0340   14.6370 C   0  0  0  0  0  0  0  0  0  0  0  0
  -30.8860  -18.8840   10.0780 C   0  0  0  0  0  3  0  0  0  0  0  0
  -30.7060  -19.3570   12.5780 C   0  0  0  0  0  0  0  0  0  0  0  0
  -32.9690  -19.2470   11.5140 C   0  0  0  0  0  2  0  0  0  0  0  0
  -32.0530  -19.7440   12.6100 C   0  0  0  0  0  0  0  0  0  0  0  0
  -32.5270  -20.5790   13.6430 C   0  0  0  0  0  3  0  0  0  0  0  0
  -30.2850  -20.6440   14.5980 C   0  0  0  0  0  3  0  0  0  0  0  0
  -29.8140  -19.8060   13.5700 C   0  0  0  0  0  3  0  0  0  0  0  0
  -30.2840  -18.4530   11.4430 C   0  0  0  0  0  2  0  0  0  0  0  0
  -32.3420  -19.2280   10.1730 N   0  0  0  0  0  0  0  0  0  0  0  0
  -32.5410  -19.3120    7.9170 O   0  0  0  0  0  0  0  0  0  0  0  0
  -30.0220  -20.0300    9.5020 C   0  0  0  0  0  0  0  0  0  0  0  0
  -28.9900  -19.6650    8.7260 N   0  0  0  0  0  0  0  0  0  0  0  0
  -30.2690  -21.2070    9.7770 O   0  0  0  0  0  0  0  0  0  0  0  0
  -28.8590  -18.6790    8.5440 H   0  0  0  0  0  0  0  0  0  0  0  0
  -26.2790  -19.8270    6.3450 C   0  0  0  0  0  0  0  0  0  0  0  0
  -28.0200  -20.5660    8.1060 C   0  0  0  0  0  3  0  0  0  0  0  0
  -26.8160  -20.8180    9.0430 C   0  0  0  0  0  2  0  0  0  0  0  0
  -25.6500  -19.8560    8.7960 C   0  0  0  0  0  2  0  0  0  0  0  0
  -25.1510  -19.9740    7.3530 C   0  0  0  0  0  2  0  0  0  0  0  0
  -27.6280  -20.0900    6.7030 C   0  0  0  0  0  0  0  0  0  0  0  0
  -28.6420  -19.9020    5.7390 C   0  0  0  0  0  3  0  0  0  0  0  0
  -28.3270  -19.4650    4.4380 C   0  0  0  0  0  3  0  0  0  0  0  0
  -26.9870  -19.2250    4.0830 C   0  0  0  0  0  3  0  0  0  0  0  0
  -25.9680  -19.4100    5.0340 C   0  0  0  0  0  3  0  0  0  0  0  0
  -34.5720  -19.8310    9.0810 C   0  0  0  0  0  3  0  0  0  0  0  0
  -34.8320  -21.3500    8.7430 C   0  0  1  0  0  0  0  0  0  0  0  0
  -34.9720  -21.6360    7.2310 C   0  0  0  0  0  1  0  0  0  0  0  0
  -33.6850  -22.2350    9.2860 C   0  0  0  0  0  1  0  0  0  0  0  0
  -36.1260  -21.8280    9.4430 C   0  0  0  0  0  1  0  0  0  0  0  0
  -35.2820  -18.9590    8.1370 N   0  0  0  0  0  0  0  0  0  0  0  0
  -35.8140  -17.7710    8.4530 C   0  0  0  0  0  0  0  0  0  0  0  0
  -35.8210  -17.3250    9.6040 O   0  0  0  0  0  0  0  0  0  0  0  0
  -35.2710  -19.2380    7.1660 H   0  0  0  0  0  0  0  0  0  0  0  0
  -35.5250  -15.7560    6.9760 C   0  0  0  0  0  1  0  0  0  0  0  0
  -36.4380  -16.9460    7.3110 C   0  0  0  0  0  3  0  0  0  0  0  0
  -38.8130  -17.5130    7.5770 C   0  0  0  0  0  1  0  0  0  0  0  0
  -37.8020  -16.4600    7.6150 N   0  0  0  0  0  0  0  0  0  0  0  0
  -38.0780  -15.7320    6.9610 H   0  0  0  0  0  0  0  0  0  0  0  0
  1  3  1  0
  2  4  1  0
  3  6  1  0
  4  6  1  0
  5  2  1  0
  5  1  1  0
  6  8  1  0
  6  7  1  1
  9 12  1  0
 10 12  2  0
 11 14  2  0
 12  8  1  0
 13 11  1  0
 13  9  2  0
 14 15  1  0
 14 10  1  0
 16 23  2  0
 16 24  1  0
 17 22  1  0
 18 17  1  0
 19 18  1  0
 20 19  1  0
 20 21  1  0
 21 22  1  0
 22 16  1  0
 24 13  1  0
 25 24  1  0
 26 29  1  0
 26 51  1  0
 27 26  2  0
 28 27  1  0
 28 30  2  0
 29 20  1  0
 30 29  1  0
 31 32  1  0
 31 28  1  0
 33 32  2  0
 34 33  1  0
 35 34  2  0
 35 36  1  0
 36 31  2  0
 37 38  1  0
 37 34  1  0
 38 43  1  0
 39 40  1  0
 39 38  2  0
 40 41  2  0
 41 45  1  0
 41 42  1  0
 43 42  2  0
 43 44  1  0
 46 47  1  0
 46 27  1  0
 47 49  1  0
 48 46  2  0
 50 47  1  0
 51 53  1  0
 52 51  1  0
 54  5  1  0
 55 56  1  0
 55 54  1  0
 57 67  1  0
 58 56  1  0
 59 69  1  0
 59 67  1  0
 59 66  1  0
 60 62  2  0
 60 65  1  0
 61 62  1  0
 62 63  1  0
 63 58  2  0
 64 58  1  0
 65 64  2  0
 66 60  1  0
 67 61  1  0
 68 57  2  0
 69 71  2  0
 70 69  1  0
 72 70  1  0
 73 78  1  0
 73 77  1  0
 74 70  1  0
 74 75  1  0
 76 75  1  0
 77 76  1  0
 78 74  1  0
 79 78  2  0
 80 79  1  0
 81 80  2  0
 81 82  1  0
 82 73  2  0
 83 57  1  0
 84 83  1  0
 84 86  1  1
 84 87  1  0
 85 84  1  0
 88 89  1  0
 88 83  1  0
 89 90  2  0
 91 88  1  0
 93 92  1  0
 93 95  1  0
 93 89  1  0
 94 95  1  0
 96 95  1  0
M  ISO  4  16 100  24 100  55 101  56 101
M  END
>  <TORSDO>  (88) 
F 20

>  <SCORE>  (88) 
-4.651

>  <name>  (88) 
87

>  <ligand_id>  (88) 
87

>  <original_smiles>  (88) 
[H]c1c([H])c([H])c2c(c1[H])C([H])([H])C([H])([H])C([H])([H])C2([H])N([H])C(=O)C1([H])N(C(=O)C([H])(N([H])C(=O)C([H])(N([H])C([H])([H])[H])C([H])([H])[H])C(C([H])([H])[H])(C([H])([H])[H])C([H])([H])[H])C([H])([H])c2c([H])c(OC([H])([H])C([H])([H])N3C([H])([H])C([H])([H])[N+]([H])(C([H])([H])c4c([H])c(F)c([H])c(N([H])C(=O)N5C([H])([H])C([H])([H])C([H])([H])C([H])(n6nc(-c7c([H])c([H])c(Oc8c([H])c([H])c(F)c([H])c8F)c([H])c7[H])c(C(=O)N([H])[H])c6N([H])[H])C5([H])[H])c4[H])C([H])([H])C3([H])[H])c([H])c([H])c2C1([H])[H]

>  <smiles>  (88) 
[H]c1c([H])c([H])c2c(c1[H])C([H])([H])C([H])([H])C([H])([H])C2([H])N([H])C(=O)C1([H])N(C(=O)C([H])(N([H])C(=O)C([H])(N([H])C([H])([H])[H])C([H])([H])[H])C(C([H])([H])[H])(C([H])([H])[H])C([H])([H])[H])C([H])([H])c2c([H])c(OC([H])([H])C([H])([H])N3C([H])([H])C([H])([H])[N+]([H])(C([H])([H])c4c([H])c(F)c([H])c(N([H])C(=O)N5C([H])([H])C([H])([H])C([H])([H])C([H])(n6nc(-c7c([H])c([H])c(Oc8c([H])c([H])c(F)c([H])c8F)c([H])c7[H])c(C(=O)N([H])[H])c6N([H])[H])C5([H])[H])c4[H])C([H])([H])C3([H])[H])c([H])c([H])c2C1([H])[H]

$$$$
88:0:0
     RDKit          3D

 92101  0  0  1  0  0  0  0  0999 V2000
  -29.0520  -21.7190   21.1640 C   0  0  0  0  0  3  0  0  0  0  0  0
  -28.7690  -23.1380   21.0220 C   0  0  0  0  0  3  0  0  0  0  0  0
  -28.5970  -22.8310   18.6710 C   0  0  0  0  0  3  0  0  0  0  0  0
  -29.1140  -20.8040   20.0590 C   0  0  0  0  0  0  0  0  0  0  0  0
  -28.5350  -23.7560   19.7530 C   0  0  0  0  0  0  0  0  0  0  0  0
  -28.8650  -21.4330   18.8070 C   0  0  0  0  0  0  0  0  0  0  0  0
  -28.8960  -20.6770   17.6810 F   0  0  0  0  0  0  0  0  0  0  0  0
  -30.6410  -14.8370   20.3340 C   0  0  0  0  0  0  0  0  0  0  0  0
  -30.3610  -12.5540   19.3350 C   0  0  0  0  0  2  0  0  0  0  0  0
  -29.4310  -12.5750   18.1050 C   0  0  0  0  0  2  0  0  0  0  0  0
  -27.9700  -12.3760   18.5470 C   0  0  0  0  0  2  0  0  0  0  0  0
  -27.5820  -13.2930   19.7340 C   0  0  0  0  0  3  0  0  0  0  0  0
  -28.6450  -13.2980   20.8570 C   0  0  0  0  0  2  0  0  0  0  0  0
  -29.9270  -13.6530   20.2400 N   0  0  0  0  0  0  0  0  0  0  0  0
  -31.8480  -14.7850   20.0790 O   0  0  0  0  0  0  0  0  0  0  0  0
  -30.4250  -18.6960   21.2190 C   0  0  0  0  0  2  0  0  0  0  0  0
  -28.3730  -18.1610   20.1000 C   0  0  0  0  0  2  0  0  0  0  0  0
  -30.9890  -17.2380   20.9540 C   0  0  0  0  0  2  0  0  0  0  0  0
  -28.7810  -16.6120   20.0070 C   0  0  0  0  0  2  0  0  0  0  0  0
  -29.5050  -19.2350   20.1000 C   0  0  0  0  0  3  0  0  0  0  0  0
  -30.0640  -16.1040   20.5940 N   0  0  0  0  0  0  0  0  0  0  0  0
  -25.2020  -13.8800   20.4740 C   0  0  0  0  0  0  0  0  0  0  0  0
  -24.1410  -13.1040   20.8490 C   0  0  0  0  0  0  0  0  0  0  0  0
  -24.6110  -11.7550   20.8270 C   0  0  0  0  0  0  0  0  0  0  0  0
  -26.2470  -13.0020   20.2410 N   0  0  0  0  0  0  0  0  0  0  0  0
  -25.9020  -11.7200   20.5210 N   0  0  0  0  0  0  0  0  0  0  0  0
  -23.8890  -10.4920   21.0200 C   0  0  0  0  0  0  0  0  0  0  0  0
  -24.3240   -9.5290   21.9560 C   0  0  0  0  0  3  0  0  0  0  0  0
  -23.6010   -8.3300   22.1380 C   0  0  0  0  0  3  0  0  0  0  0  0
  -22.4290   -8.0870   21.3810 C   0  0  0  0  0  0  0  0  0  0  0  0
  -22.0150   -9.0390   20.4340 C   0  0  0  0  0  3  0  0  0  0  0  0
  -22.7380  -10.2290   20.2510 C   0  0  0  0  0  3  0  0  0  0  0  0
  -21.6780   -6.9400   21.4730 O   0  0  0  0  0  0  0  0  0  0  0  0
  -21.6280   -6.2040   22.6280 C   0  0  0  0  0  0  0  0  0  0  0  0
  -21.1890   -6.7600   23.8490 C   0  0  0  0  0  3  0  0  0  0  0  0
  -21.0870   -5.9480   24.9960 C   0  0  0  0  0  3  0  0  0  0  0  0
  -21.4140   -4.5820   24.9240 C   0  0  0  0  0  0  0  0  0  0  0  0
  -21.8460   -4.0240   23.7070 C   0  0  0  0  0  3  0  0  0  0  0  0
  -21.9490   -4.8320   22.5620 C   0  0  0  0  0  0  0  0  0  0  0  0
  -22.3460   -4.2860   21.3870 F   0  0  0  0  0  0  0  0  0  0  0  0
  -21.3100   -3.7990   26.0230 F   0  0  0  0  0  0  0  0  0  0  0  0
  -22.7420  -13.5780   21.1120 C   0  0  0  0  0  0  0  0  0  0  0  0
  -22.0150  -12.8860   21.9810 N   0  0  0  0  0  0  0  0  0  0  0  0
  -22.3030  -14.5990   20.5840 O   0  0  0  0  0  0  0  0  0  0  0  0
  -22.3850  -12.0590   22.4290 H   0  0  0  0  0  0  0  0  0  0  0  0
  -21.0760  -13.1860   22.2030 H   0  0  0  0  0  0  0  0  0  0  0  0
  -25.3540  -15.2500   20.2830 N   0  0  0  0  0  0  0  0  0  0  0  0
  -24.5770  -15.8930   20.3830 H   0  0  0  0  0  0  0  0  0  0  0  0
  -26.1910  -15.6920   19.9280 H   0  0  0  0  0  0  0  0  0  0  0  0
  -28.2060  -25.1390   19.4160 N   0  0  0  0  0  0  0  0  0  0  0  0
  -28.3310  -25.4160   18.4450 H   0  0  0  0  0  0  0  0  0  0  0  0
  -28.3030  -26.3740   20.2820 O   0  0  0  0  0  0  0  0  0  0  0  0
  -24.6360  -31.9270   23.2390 C   0  0  0  0  0  0  0  0  0  0  0  0
  -27.2100  -27.2810   20.2030 C   0  0  0  0  0  0  0  0  0  0  0  0
  -23.4250  -30.5290   21.6080 C   0  0  0  0  0  3  0  0  0  0  0  0
  -24.8650  -28.9610   20.1850 C   0  0  0  0  0  0  0  0  0  0  0  0
  -25.9720  -30.8140   21.4270 C   0  0  0  0  0  2  0  0  0  0  0  0
  -26.0420  -29.4270   20.7820 C   0  0  0  0  0  0  0  0  0  0  0  0
  -27.2140  -28.5990   20.7820 C   0  0  0  0  0  3  0  0  0  0  0  0
  -26.0000  -26.8850   19.5840 C   0  0  0  0  0  3  0  0  0  0  0  0
  -24.8500  -27.6980   19.5740 C   0  0  0  0  0  3  0  0  0  0  0  0
  -23.6360  -29.8490   20.2300 C   0  0  0  0  0  2  0  0  0  0  0  0
  -24.6980  -31.1080   22.1480 N   0  0  0  0  0  0  0  0  0  0  0  0
  -23.5530  -32.2120   23.7730 O   0  0  0  0  0  0  0  0  0  0  0  0
  -22.7560  -29.5200   22.5740 C   0  0  0  0  0  0  0  0  0  0  0  0
  -21.4280  -29.3460   22.4480 N   0  0  0  0  0  0  0  0  0  0  0  0
  -23.4300  -28.8960   23.3970 O   0  0  0  0  0  0  0  0  0  0  0  0
  -20.9420  -29.9000   21.7560 H   0  0  0  0  0  0  0  0  0  0  0  0
  -18.0460  -28.1610   22.9580 C   0  0  0  0  0  0  0  0  0  0  0  0
  -20.6060  -28.4160   23.2240 C   0  0  0  0  0  3  0  0  0  0  0  0
  -20.7030  -26.9800   22.6570 C   0  0  0  0  0  2  0  0  0  0  0  0
  -19.6000  -26.6540   21.6460 C   0  0  0  0  0  2  0  0  0  0  0  0
  -18.2200  -26.8070   22.2890 C   0  0  0  0  0  2  0  0  0  0  0  0
  -19.1670  -28.9230   23.3820 C   0  0  0  0  0  0  0  0  0  0  0  0
  -18.9510  -30.1890   23.9680 C   0  0  0  0  0  3  0  0  0  0  0  0
  -17.6470  -30.6940   24.1320 C   0  0  0  0  0  3  0  0  0  0  0  0
  -16.5410  -29.9290   23.7220 C   0  0  0  0  0  3  0  0  0  0  0  0
  -16.7420  -28.6640   23.1410 C   0  0  0  0  0  3  0  0  0  0  0  0
  -25.9200  -32.5600   23.8580 C   0  0  0  0  0  3  0  0  0  0  0  0
  -25.6110  -33.9580   24.1950 N   0  0  0  0  0  0  0  0  0  0  0  0
  -25.9270  -35.0130   23.4310 C   0  0  0  0  0  0  0  0  0  0  0  0
  -26.5790  -34.9120   22.3880 O   0  0  0  0  0  0  0  0  0  0  0  0
  -25.0320  -34.1100   25.0060 H   0  0  0  0  0  0  0  0  0  0  0  0
  -24.1880  -36.8020   23.1100 C   0  0  0  0  0  1  0  0  0  0  0  0
  -25.4450  -36.4000   23.8990 C   0  0  0  0  0  3  0  0  0  0  0  0
  -27.5910  -37.2900   24.6940 C   0  0  0  0  0  1  0  0  0  0  0  0
  -26.4730  -37.4570   23.7700 N   0  0  0  0  0  0  0  0  0  0  0  0
  -26.0670  -38.3760   23.9250 H   0  0  0  0  0  0  0  0  0  0  0  0
  -26.4390  -31.7890   25.1340 C   0  0  1  0  0  0  0  0  0  0  0  0
  -25.3480  -31.5530   26.2060 C   0  0  0  0  0  1  0  0  0  0  0  0
  -27.0190  -30.4100   24.7440 C   0  0  0  0  0  1  0  0  0  0  0  0
  -27.5930  -32.5800   25.7930 C   0  0  0  0  0  1  0  0  0  0  0  0
  2  1  1  0
  3  6  2  0
  3  5  1  0
  4  1  2  0
  5  2  2  0
  6  4  1  0
  7  6  1  0
  8 21  1  0
  9 14  1  0
 10 11  1  0
 10  9  1  0
 12 11  1  0
 12 25  1  0
 12 13  1  0
 14  8  1  0
 14 13  1  0
 15  8  2  0
 17 20  1  0
 18 16  1  0
 19 17  1  0
 19 21  1  0
 20  4  1  0
 20 16  1  0
 21 18  1  0
 22 23  2  0
 23 42  1  0
 24 23  1  0
 24 27  1  0
 25 22  1  0
 25 26  1  0
 26 24  2  0
 27 28  1  0
 28 29  2  0
 30 33  1  0
 30 29  1  0
 31 30  2  0
 32 31  1  0
 32 27  2  0
 33 34  1  0
 34 35  1  0
 35 36  2  0
 37 36  1  0
 37 41  1  0
 38 37  2  0
 39 34  2  0
 39 38  1  0
 40 39  1  0
 42 43  1  0
 43 46  1  0
 43 45  1  0
 44 42  2  0
 47 48  1  0
 47 22  1  0
 49 47  1  0
 50  5  1  0
 50 52  1  0
 51 50  1  0
 53 64  2  0
 54 52  1  0
 54 59  1  0
 55 63  1  0
 55 65  1  0
 56 62  1  0
 56 58  1  0
 57 63  1  0
 58 59  2  0
 58 57  1  0
 60 54  2  0
 61 60  1  0
 61 56  2  0
 62 55  1  0
 63 53  1  0
 65 67  2  0
 66 65  1  0
 68 66  1  0
 69 78  2  0
 69 74  1  0
 70 66  1  0
 70 74  1  0
 71 70  1  0
 72 73  1  0
 72 71  1  0
 73 69  1  0
 74 75  2  0
 75 76  1  0
 77 76  2  0
 78 77  1  0
 79 53  1  0
 79 80  1  0
 79 89  1  0
 80 83  1  0
 81 85  1  0
 81 80  1  0
 82 81  2  0
 85 84  1  0
 87 85  1  0
 87 88  1  0
 87 86  1  0
 89 92  1  1
 89 90  1  0
 91 89  1  0
M  ISO  4   8 100  21 100  50 101  52 101
M  END
>  <TORSDO>  (89) 
F 17

>  <SCORE>  (89) 
-15.390

>  <name>  (89) 
88

>  <ligand_id>  (89) 
88

>  <original_smiles>  (89) 
[H]c1c([H])c([H])c2c(c1[H])C([H])([H])C([H])([H])C([H])([H])C2([H])N([H])C(=O)C1([H])N(C(=O)C([H])(N([H])C(=O)C([H])(N([H])C([H])([H])[H])C([H])([H])[H])C(C([H])([H])[H])(C([H])([H])[H])C([H])([H])[H])C([H])([H])c2c([H])c(ON([H])c3c([H])c([H])c(C4([H])C([H])([H])C([H])([H])N(C(=O)N5C([H])([H])C([H])([H])C([H])([H])C([H])(n6nc(-c7c([H])c([H])c(Oc8c([H])c([H])c(F)c([H])c8F)c([H])c7[H])c(C(=O)N([H])[H])c6N([H])[H])C5([H])[H])C([H])([H])C4([H])[H])c(F)c3[H])c([H])c([H])c2C1([H])[H]

>  <smiles>  (89) 
[H]c1c([H])c([H])c2c(c1[H])C([H])([H])C([H])([H])C([H])([H])C2([H])N([H])C(=O)C1([H])N(C(=O)C([H])(N([H])C(=O)C([H])(N([H])C([H])([H])[H])C([H])([H])[H])C(C([H])([H])[H])(C([H])([H])[H])C([H])([H])[H])C([H])([H])c2c([H])c(ON([H])c3c([H])c([H])c(C4([H])C([H])([H])C([H])([H])N(C(=O)N5C([H])([H])C([H])([H])C([H])([H])C([H])(n6nc(-c7c([H])c([H])c(Oc8c([H])c([H])c(F)c([H])c8F)c([H])c7[H])c(C(=O)N([H])[H])c6N([H])[H])C5([H])[H])C([H])([H])C4([H])[H])c(F)c3[H])c([H])c([H])c2C1([H])[H]

$$$$
89:0:0
     RDKit          3D

 91 99  0  0  1  0  0  0  0  0999 V2000
  -30.5350  -20.0930   22.5690 C   0  0  0  0  0  3  0  0  0  0  0  0
  -30.0220  -21.2580   21.9590 C   0  0  0  0  0  3  0  0  0  0  0  0
  -29.4500  -19.9200   20.0250 C   0  0  0  0  0  3  0  0  0  0  0  0
  -30.5330  -18.8340   21.9220 C   0  0  0  0  0  0  0  0  0  0  0  0
  -29.9800  -18.7020   20.6220 C   0  0  0  0  0  0  0  0  0  0  0  0
  -29.4610  -21.2250   20.6640 C   0  0  0  0  0  0  0  0  0  0  0  0
  -31.1760  -17.6590   22.6410 C   0  0  0  0  0  1  0  0  0  0  0  0
  -28.9420  -22.4380   20.0620 N   0  0  0  0  0  0  0  0  0  0  0  0
  -28.5880  -22.3600   19.1120 H   0  0  0  0  0  0  0  0  0  0  0  0
  -29.1010  -23.8590   20.5790 C   0  0  0  0  0  3  0  0  0  0  0  0
  -28.1360  -25.0060   19.9740 C   0  0  0  0  0  3  0  0  0  0  0  0
  -28.3160  -26.4630   20.2910 O   0  0  0  0  0  0  0  0  0  0  0  0
  -24.6110  -31.9420   23.2530 C   0  0  0  0  0  0  0  0  0  0  0  0
  -27.2130  -27.3460   20.2070 C   0  0  0  0  0  0  0  0  0  0  0  0
  -23.4030  -30.5410   21.6200 C   0  0  0  0  0  3  0  0  0  0  0  0
  -24.8510  -28.9870   20.1860 C   0  0  0  0  0  0  0  0  0  0  0  0
  -25.9430  -30.8510   21.4300 C   0  0  0  0  0  2  0  0  0  0  0  0
  -26.0210  -29.4670   20.7890 C   0  0  0  0  0  0  0  0  0  0  0  0
  -27.2000  -28.6570   20.7930 C   0  0  0  0  0  3  0  0  0  0  0  0
  -26.0230  -26.9440   19.5550 C   0  0  0  0  0  3  0  0  0  0  0  0
  -24.8580  -27.7330   19.5560 C   0  0  0  0  0  3  0  0  0  0  0  0
  -23.6120  -29.8600   20.2400 C   0  0  0  0  0  2  0  0  0  0  0  0
  -24.6720  -31.1290   22.1580 N   0  0  0  0  0  0  0  0  0  0  0  0
  -23.5290  -32.2230   23.7880 O   0  0  0  0  0  0  0  0  0  0  0  0
  -22.7390  -29.5280   22.5850 C   0  0  0  0  0  0  0  0  0  0  0  0
  -21.4130  -29.3500   22.4580 N   0  0  0  0  0  0  0  0  0  0  0  0
  -23.4180  -28.9050   23.4060 O   0  0  0  0  0  0  0  0  0  0  0  0
  -20.9260  -29.9070   21.7710 H   0  0  0  0  0  0  0  0  0  0  0  0
  -18.0350  -28.1560   22.9650 C   0  0  0  0  0  0  0  0  0  0  0  0
  -20.5930  -28.4160   23.2320 C   0  0  0  0  0  3  0  0  0  0  0  0
  -20.6940  -26.9820   22.6600 C   0  0  0  0  0  2  0  0  0  0  0  0
  -19.5900  -26.6570   21.6490 C   0  0  0  0  0  2  0  0  0  0  0  0
  -18.2100  -26.8040   22.2930 C   0  0  0  0  0  2  0  0  0  0  0  0
  -19.1540  -28.9200   23.3910 C   0  0  0  0  0  0  0  0  0  0  0  0
  -18.9360  -30.1840   23.9780 C   0  0  0  0  0  3  0  0  0  0  0  0
  -17.6310  -30.6850   24.1480 C   0  0  0  0  0  3  0  0  0  0  0  0
  -16.5270  -29.9180   23.7370 C   0  0  0  0  0  3  0  0  0  0  0  0
  -16.7280  -28.6570   23.1500 C   0  0  0  0  0  3  0  0  0  0  0  0
  -25.8950  -32.5760   23.8710 C   0  0  0  0  0  3  0  0  0  0  0  0
  -26.4090  -31.8100   25.1520 C   0  0  1  0  0  0  0  0  0  0  0  0
  -25.3140  -31.5770   26.2210 C   0  0  0  0  0  1  0  0  0  0  0  0
  -26.9920  -30.4290   24.7670 C   0  0  0  0  0  1  0  0  0  0  0  0
  -27.5610  -32.6030   25.8100 C   0  0  0  0  0  1  0  0  0  0  0  0
  -25.5870  -33.9760   24.1980 N   0  0  0  0  0  0  0  0  0  0  0  0
  -25.9130  -35.0280   23.4340 C   0  0  0  0  0  0  0  0  0  0  0  0
  -26.5790  -34.9210   22.3990 O   0  0  0  0  0  0  0  0  0  0  0  0
  -24.9970  -34.1330   25.0010 H   0  0  0  0  0  0  0  0  0  0  0  0
  -24.1850  -36.8220   23.0820 C   0  0  0  0  0  1  0  0  0  0  0  0
  -25.4290  -36.4180   23.8890 C   0  0  0  0  0  3  0  0  0  0  0  0
  -27.5660  -37.3050   24.7100 C   0  0  0  0  0  1  0  0  0  0  0  0
  -26.4610  -37.4700   23.7690 N   0  0  0  0  0  0  0  0  0  0  0  0
  -26.0570  -38.3910   23.9130 H   0  0  0  0  0  0  0  0  0  0  0  0
  -30.0860  -17.3250   19.8240 C   0  0  0  0  0  2  0  0  0  0  0  0
  -30.6700  -14.8040   20.2350 C   0  0  0  0  0  0  0  0  0  0  0  0
  -30.4360  -12.5410   19.2270 C   0  0  0  0  0  2  0  0  0  0  0  0
  -29.4970  -12.6670   18.0080 C   0  0  0  0  0  2  0  0  0  0  0  0
  -28.0270  -12.4950   18.4380 C   0  0  0  0  0  2  0  0  0  0  0  0
  -27.6690  -13.3580   19.6790 C   0  0  0  0  0  3  0  0  0  0  0  0
  -28.7370  -13.2480   20.7930 C   0  0  0  0  0  2  0  0  0  0  0  0
  -30.0370  -13.5830   20.2000 N   0  0  0  0  0  0  0  0  0  0  0  0
  -31.8420  -14.9040   19.8640 O   0  0  0  0  0  0  0  0  0  0  0  0
  -29.8990  -15.9360   20.4350 N   0  0  0  0  0  0  0  0  0  0  0  0
  -28.9640  -15.7490   20.7640 H   0  0  0  0  0  0  0  0  0  0  0  0
  -25.2800  -13.9380   20.4060 C   0  0  0  0  0  0  0  0  0  0  0  0
  -24.2190  -13.1620   20.7850 C   0  0  0  0  0  0  0  0  0  0  0  0
  -24.6910  -11.8120   20.7640 C   0  0  0  0  0  0  0  0  0  0  0  0
  -26.3290  -13.0630   20.1760 N   0  0  0  0  0  0  0  0  0  0  0  0
  -25.9810  -11.7790   20.4520 N   0  0  0  0  0  0  0  0  0  0  0  0
  -23.9710  -10.5480   20.9670 C   0  0  0  0  0  0  0  0  0  0  0  0
  -24.4090   -9.5910   21.9110 C   0  0  0  0  0  3  0  0  0  0  0  0
  -23.6900   -8.3920   22.1000 C   0  0  0  0  0  3  0  0  0  0  0  0
  -22.5180   -8.1380   21.3470 C   0  0  0  0  0  0  0  0  0  0  0  0
  -22.1000   -9.0820   20.3930 C   0  0  0  0  0  3  0  0  0  0  0  0
  -22.8190  -10.2730   20.2020 C   0  0  0  0  0  3  0  0  0  0  0  0
  -21.7720   -6.9890   21.4460 O   0  0  0  0  0  0  0  0  0  0  0  0
  -21.7240   -6.2590   22.6060 C   0  0  0  0  0  0  0  0  0  0  0  0
  -21.2930   -6.8240   23.8260 C   0  0  0  0  0  3  0  0  0  0  0  0
  -21.1950   -6.0200   24.9800 C   0  0  0  0  0  3  0  0  0  0  0  0
  -21.5170   -4.6510   24.9130 C   0  0  0  0  0  0  0  0  0  0  0  0
  -21.9420   -4.0850   23.6970 C   0  0  0  0  0  3  0  0  0  0  0  0
  -22.0420   -4.8870   22.5470 C   0  0  0  0  0  0  0  0  0  0  0  0
  -22.4310   -4.3330   21.3720 F   0  0  0  0  0  0  0  0  0  0  0  0
  -21.4160   -3.8730   26.0160 F   0  0  0  0  0  0  0  0  0  0  0  0
  -22.8190  -13.6330   21.0530 C   0  0  0  0  0  0  0  0  0  0  0  0
  -22.0960  -12.9370   21.9220 N   0  0  0  0  0  0  0  0  0  0  0  0
  -22.3740  -14.6520   20.5250 O   0  0  0  0  0  0  0  0  0  0  0  0
  -22.4660  -12.1120   22.3680 H   0  0  0  0  0  0  0  0  0  0  0  0
  -21.1580  -13.2360   22.1460 H   0  0  0  0  0  0  0  0  0  0  0  0
  -25.4350  -15.3090   20.2150 N   0  0  0  0  0  0  0  0  0  0  0  0
  -24.6620  -15.9600   20.3040 H   0  0  0  0  0  0  0  0  0  0  0  0
  -26.2790  -15.7410   19.8620 H   0  0  0  0  0  0  0  0  0  0  0  0
  2  1  1  0
  3  5  2  0
  3  6  1  0
  4  1  2  0
  4  7  1  0
  5  4  1  0
  6  2  2  0
  8 10  1  0
  8  6  1  0
  9  8  1  0
 11 12  1  0
 11 10  2  0
 13 24  2  0
 14 12  1  0
 14 19  1  0
 15 23  1  0
 15 25  1  0
 16 22  1  0
 16 18  1  0
 17 23  1  0
 18 19  2  0
 18 17  1  0
 20 21  1  0
 20 14  2  0
 21 16  2  0
 22 15  1  0
 23 13  1  0
 25 27  2  0
 26 25  1  0
 28 26  1  0
 29 38  2  0
 29 34  1  0
 30 26  1  0
 30 34  1  0
 31 30  1  0
 32 33  1  0
 32 31  1  0
 33 29  1  0
 34 35  2  0
 35 36  1  0
 37 36  2  0
 38 37  1  0
 39 13  1  0
 39 44  1  0
 39 40  1  0
 40 43  1  1
 40 41  1  0
 42 40  1  0
 44 47  1  0
 45 49  1  0
 45 44  1  0
 46 45  2  0
 49 48  1  0
 51 49  1  0
 51 52  1  0
 51 50  1  0
 53 62  1  0
 53  5  1  0
 54 62  1  0
 55 60  1  0
 56 57  1  0
 56 55  1  0
 58 57  1  0
 58 67  1  0
 58 59  1  0
 60 54  1  0
 60 59  1  0
 61 54  2  0
 62 63  1  0
 64 65  2  0
 65 84  1  0
 66 65  1  0
 66 69  1  0
 67 64  1  0
 67 68  1  0
 68 66  2  0
 69 70  1  0
 70 71  2  0
 72 75  1  0
 72 71  1  0
 73 72  2  0
 74 73  1  0
 74 69  2  0
 75 76  1  0
 76 77  1  0
 77 78  2  0
 79 78  1  0
 79 83  1  0
 80 79  2  0
 81 76  2  0
 81 80  1  0
 82 81  1  0
 84 85  1  0
 85 88  1  0
 85 87  1  0
 86 84  2  0
 89 90  1  0
 89 64  1  0
 91 89  1  0
M  ISO  4  11 101  12 101  54 100  62 100
M  END
>  <TORSDO>  (90) 
F 20

>  <SCORE>  (90) 
-13.349

>  <name>  (90) 
89

>  <ligand_id>  (90) 
89

>  <original_smiles>  (90) 
[H]c1c([H])c([H])c2c(c1[H])C([H])([H])C([H])([H])C([H])([H])C2([H])N([H])C(=O)C1([H])N(C(=O)C([H])(N([H])C(=O)C([H])(N([H])C([H])([H])[H])C([H])([H])[H])C(C([H])([H])[H])(C([H])([H])[H])C([H])([H])[H])C([H])([H])c2c([H])c(OC([H])([H])C([H])([H])N([H])c3c([H])c([H])c(C([H])([H])[H])c(C([H])([H])N([H])C(=O)N4C([H])([H])C([H])([H])C([H])([H])C([H])(n5nc(-c6c([H])c([H])c(Oc7c([H])c([H])c(F)c([H])c7F)c([H])c6[H])c(C(=O)N([H])[H])c5N([H])[H])C4([H])[H])c3[H])c([H])c([H])c2C1([H])[H]

>  <smiles>  (90) 
[H]c1c([H])c([H])c2c(c1[H])C([H])([H])C([H])([H])C([H])([H])C2([H])N([H])C(=O)C1([H])N(C(=O)C([H])(N([H])C(=O)C([H])(N([H])C([H])([H])[H])C([H])([H])[H])C(C([H])([H])[H])(C([H])([H])[H])C([H])([H])[H])C([H])([H])c2c([H])c(OC([H])([H])C([H])([H])N([H])c3c([H])c([H])c(C([H])([H])[H])c(C([H])([H])N([H])C(=O)N4C([H])([H])C([H])([H])C([H])([H])C([H])(n5nc(-c6c([H])c([H])c(Oc7c([H])c([H])c(F)c([H])c7F)c([H])c6[H])c(C(=O)N([H])[H])c5N([H])[H])C4([H])[H])c3[H])c([H])c([H])c2C1([H])[H]

$$$$
90:0:0
     RDKit          3D

 86 94  0  0  1  0  0  0  0  0999 V2000
  -28.9280  -22.4220   20.4370 C   0  0  0  0  0  3  0  0  0  0  0  0
  -30.3970  -15.6130   20.0550 C   0  0  0  0  0  0  0  0  0  0  0  0
  -30.3460  -13.1130   19.2130 C   0  0  0  0  0  2  0  0  0  0  0  0
  -29.4130  -12.7660   18.0250 C   0  0  0  0  0  2  0  0  0  0  0  0
  -28.0010  -12.4430   18.5290 C   0  0  0  0  0  2  0  0  0  0  0  0
  -27.5450  -13.4400   19.6210 C   0  0  0  0  0  3  0  0  0  0  0  0
  -28.6170  -13.7290   20.6970 C   0  0  0  0  0  2  0  0  0  0  0  0
  -29.7790  -14.3040   19.9890 N   0  0  0  0  0  0  0  0  0  0  0  0
  -31.6150  -15.4720   19.8380 O   0  0  0  0  0  0  0  0  0  0  0  0
  -28.5110  -17.8360   20.4010 C   0  0  0  0  0  2  0  0  0  0  0  0
  -30.5540  -18.3250   19.5020 C   0  0  0  0  0  2  0  0  0  0  0  0
  -28.2930  -19.5360   20.7270 C   0  0  0  0  0  2  0  0  0  0  0  0
  -30.3320  -19.9820   19.8790 C   0  0  0  0  0  2  0  0  0  0  0  0
  -29.8290  -17.0540   20.0570 N   0  0  0  0  0  0  0  0  0  0  0  0
  -28.9680  -20.7400   19.9630 N   0  0  2  0  0  4  0  0  0  0  0  0
  -28.5950  -20.7230   19.0250 H   0  0  0  0  0  0  0  0  0  0  0  0
  -25.2180  -13.9680   20.4890 C   0  0  0  0  0  0  0  0  0  0  0  0
  -24.1710  -13.1820   20.8780 C   0  0  0  0  0  0  0  0  0  0  0  0
  -24.6360  -11.8320   20.8020 C   0  0  0  0  0  0  0  0  0  0  0  0
  -26.2490  -13.0990   20.1870 N   0  0  0  0  0  0  0  0  0  0  0  0
  -25.9160  -11.8060   20.4430 N   0  0  0  0  0  0  0  0  0  0  0  0
  -23.9130  -10.5670   20.9900 C   0  0  0  0  0  0  0  0  0  0  0  0
  -24.3460   -9.5980   21.9220 C   0  0  0  0  0  3  0  0  0  0  0  0
  -23.6190   -8.4010   22.1010 C   0  0  0  0  0  3  0  0  0  0  0  0
  -22.4440   -8.1650   21.3490 C   0  0  0  0  0  0  0  0  0  0  0  0
  -22.0300   -9.1220   20.4060 C   0  0  0  0  0  3  0  0  0  0  0  0
  -22.7580  -10.3100   20.2250 C   0  0  0  0  0  3  0  0  0  0  0  0
  -21.6880   -7.0210   21.4370 O   0  0  0  0  0  0  0  0  0  0  0  0
  -21.6050   -6.3010   22.6030 C   0  0  0  0  0  0  0  0  0  0  0  0
  -21.1020   -6.8690   23.7940 C   0  0  0  0  0  3  0  0  0  0  0  0
  -20.9680   -6.0750   24.9510 C   0  0  0  0  0  3  0  0  0  0  0  0
  -21.3280   -4.7150   24.9160 C   0  0  0  0  0  0  0  0  0  0  0  0
  -21.8230   -4.1460   23.7300 C   0  0  0  0  0  3  0  0  0  0  0  0
  -21.9580   -4.9380   22.5760 C   0  0  0  0  0  0  0  0  0  0  0  0
  -22.4170   -4.3790   21.4300 F   0  0  0  0  0  0  0  0  0  0  0  0
  -21.1910   -3.9490   26.0250 F   0  0  0  0  0  0  0  0  0  0  0  0
  -22.7840  -13.6550   21.2010 C   0  0  0  0  0  0  0  0  0  0  0  0
  -22.0860  -12.9480   22.0810 N   0  0  0  0  0  0  0  0  0  0  0  0
  -22.3330  -14.6880   20.7090 O   0  0  0  0  0  0  0  0  0  0  0  0
  -22.4670  -12.1120   22.4990 H   0  0  0  0  0  0  0  0  0  0  0  0
  -21.1570  -13.2480   22.3420 H   0  0  0  0  0  0  0  0  0  0  0  0
  -25.3760  -15.3420   20.3330 N   0  0  0  0  0  0  0  0  0  0  0  0
  -24.6110  -15.9920   20.4820 H   0  0  0  0  0  0  0  0  0  0  0  0
  -26.2090  -15.7840   19.9680 H   0  0  0  0  0  0  0  0  0  0  0  0
  -28.0550  -24.0330   19.9590 C   0  0  0  0  0  3  0  0  0  0  0  0
  -28.1800  -25.7260   20.2860 O   0  0  0  0  0  0  0  0  0  0  0  0
  -24.6740  -31.8880   23.2420 C   0  0  0  0  0  0  0  0  0  0  0  0
  -27.1960  -26.8980   20.2060 C   0  0  0  0  0  0  0  0  0  0  0  0
  -23.4770  -30.4990   21.6020 C   0  0  0  0  0  3  0  0  0  0  0  0
  -24.9190  -28.8760   20.1690 C   0  0  0  0  0  0  0  0  0  0  0  0
  -26.0500  -30.6680   21.4620 C   0  0  0  0  0  2  0  0  0  0  0  0
  -26.1130  -29.2480   20.7980 C   0  0  0  0  0  0  0  0  0  0  0  0
  -27.2390  -28.2830   20.7890 C   0  0  0  0  0  3  0  0  0  0  0  0
  -25.9730  -26.7190   19.5190 C   0  0  0  0  0  3  0  0  0  0  0  0
  -24.8830  -27.6370   19.5060 C   0  0  0  0  0  3  0  0  0  0  0  0
  -23.7080  -29.8150   20.2250 C   0  0  0  0  0  2  0  0  0  0  0  0
  -24.7570  -31.0490   22.1550 N   0  0  0  0  0  0  0  0  0  0  0  0
  -23.5840  -32.1810   23.7630 O   0  0  0  0  0  0  0  0  0  0  0  0
  -22.7740  -29.5100   22.5700 C   0  0  0  0  0  0  0  0  0  0  0  0
  -21.4440  -29.3430   22.4430 N   0  0  0  0  0  0  0  0  0  0  0  0
  -23.4360  -28.8900   23.4060 O   0  0  0  0  0  0  0  0  0  0  0  0
  -20.9600  -29.8950   21.7470 H   0  0  0  0  0  0  0  0  0  0  0  0
  -18.0650  -28.1090   22.9460 C   0  0  0  0  0  0  0  0  0  0  0  0
  -20.6230  -28.4010   23.2130 C   0  0  0  0  0  3  0  0  0  0  0  0
  -20.7360  -26.9690   22.6400 C   0  0  0  0  0  2  0  0  0  0  0  0
  -19.6390  -26.6360   21.6240 C   0  0  0  0  0  2  0  0  0  0  0  0
  -18.2550  -26.7640   22.2660 C   0  0  0  0  0  2  0  0  0  0  0  0
  -19.1750  -28.8860   23.3760 C   0  0  0  0  0  0  0  0  0  0  0  0
  -18.9390  -30.1400   23.9780 C   0  0  0  0  0  3  0  0  0  0  0  0
  -17.6280  -30.6220   24.1490 C   0  0  0  0  0  3  0  0  0  0  0  0
  -16.5330  -29.8460   23.7320 C   0  0  0  0  0  3  0  0  0  0  0  0
  -16.7530  -28.5910   23.1370 C   0  0  0  0  0  3  0  0  0  0  0  0
  -25.9430  -32.5330   23.8780 C   0  0  0  0  0  3  0  0  0  0  0  0
  -25.6300  -33.9390   24.1990 N   0  0  0  0  0  0  0  0  0  0  0  0
  -25.9440  -34.9920   23.4330 C   0  0  0  0  0  0  0  0  0  0  0  0
  -26.5850  -34.8830   22.3850 O   0  0  0  0  0  0  0  0  0  0  0  0
  -25.0550  -34.0960   25.0140 H   0  0  0  0  0  0  0  0  0  0  0  0
  -24.1960  -36.7850   23.1450 C   0  0  0  0  0  1  0  0  0  0  0  0
  -25.4750  -36.3870   23.9000 C   0  0  0  0  0  3  0  0  0  0  0  0
  -27.6370  -37.3000   24.6290 C   0  0  0  0  0  1  0  0  0  0  0  0
  -26.4980  -37.4430   23.7260 N   0  0  0  0  0  0  0  0  0  0  0  0
  -26.0940  -38.3640   23.8700 H   0  0  0  0  0  0  0  0  0  0  0  0
  -26.4300  -31.7820   25.1810 C   0  0  1  0  0  0  0  0  0  0  0  0
  -25.3170  -31.5720   26.2340 C   0  0  0  0  0  1  0  0  0  0  0  0
  -27.0110  -30.3920   24.8340 C   0  0  0  0  0  1  0  0  0  0  0  0
  -27.5750  -32.5810   25.8470 C   0  0  0  0  0  1  0  0  0  0  0  0
  2 14  1  0
  3  8  1  0
  4  5  1  0
  4  3  1  0
  6  5  1  0
  6 20  1  0
  6  7  1  0
  8  2  1  0
  8  7  1  0
  9  2  2  0
 10 12  1  0
 11 13  1  0
 11 14  1  0
 13 15  1  0
 14 10  1  0
 15  1  1  0
 15 12  1  0
 15 16  1  6
 17 18  2  0
 18 37  1  0
 19 18  1  0
 19 22  1  0
 20 21  1  0
 20 17  1  0
 21 19  2  0
 22 23  1  0
 23 24  2  0
 25 28  1  0
 25 24  1  0
 26 25  2  0
 27 26  1  0
 27 22  2  0
 28 29  1  0
 29 30  1  0
 30 31  2  0
 32 31  1  0
 32 36  1  0
 33 32  2  0
 34 29  2  0
 34 33  1  0
 35 34  1  0
 37 38  1  0
 38 41  1  0
 38 40  1  0
 39 37  2  0
 42 43  1  0
 42 17  1  0
 44 42  1  0
 45 46  1  0
 45  1  2  0
 47 58  2  0
 48 46  1  0
 48 53  1  0
 49 57  1  0
 49 59  1  0
 50 56  1  0
 50 52  1  0
 51 57  1  0
 52 51  1  0
 53 52  2  0
 54 48  2  0
 55 54  1  0
 55 50  2  0
 56 49  1  0
 57 47  1  0
 59 61  2  0
 60 59  1  0
 62 60  1  0
 63 72  2  0
 63 68  1  0
 64 60  1  0
 64 68  1  0
 65 64  1  0
 66 67  1  0
 66 65  1  0
 67 63  1  0
 68 69  2  0
 69 70  1  0
 71 70  2  0
 72 71  1  0
 73 47  1  0
 73 74  1  0
 73 83  1  0
 74 77  1  0
 75 79  1  0
 75 74  1  0
 76 75  2  0
 79 78  1  0
 81 82  1  0
 81 79  1  0
 81 80  1  0
 83 86  1  1
 83 84  1  0
 85 83  1  0
M  ISO  4   2 100  14 100  45 101  46 101
M  END
>  <TORSDO>  (91) 
F 17

>  <SCORE>  (91) 
-16.400

>  <name>  (91) 
90

>  <ligand_id>  (91) 
90

>  <original_smiles>  (91) 
[H]c1c([H])c([H])c2c(c1[H])C([H])([H])C([H])([H])C([H])([H])C2([H])N([H])C(=O)C1([H])N(C(=O)C([H])(N([H])C(=O)C([H])(N([H])C([H])([H])[H])C([H])([H])[H])C(C([H])([H])[H])(C([H])([H])[H])C([H])([H])[H])C([H])([H])c2c([H])c(OC([H])([H])C([H])([H])[N+]3([H])C([H])([H])C([H])([H])N(C(=O)N4C([H])([H])C([H])([H])C([H])([H])C([H])(n5nc(-c6c([H])c([H])c(Oc7c([H])c([H])c(F)c([H])c7F)c([H])c6[H])c(C(=O)N([H])[H])c5N([H])[H])C4([H])[H])C([H])([H])C3([H])[H])c([H])c([H])c2C1([H])[H]

>  <smiles>  (91) 
[H]c1c([H])c([H])c2c(c1[H])C([H])([H])C([H])([H])C([H])([H])C2([H])N([H])C(=O)C1([H])N(C(=O)C([H])(N([H])C(=O)C([H])(N([H])C([H])([H])[H])C([H])([H])[H])C(C([H])([H])[H])(C([H])([H])[H])C([H])([H])[H])C([H])([H])c2c([H])c(OC([H])([H])C([H])([H])[N+]3([H])C([H])([H])C([H])([H])N(C(=O)N4C([H])([H])C([H])([H])C([H])([H])C([H])(n5nc(-c6c([H])c([H])c(Oc7c([H])c([H])c(F)c([H])c7F)c([H])c6[H])c(C(=O)N([H])[H])c5N([H])[H])C4([H])[H])C([H])([H])C3([H])[H])c([H])c([H])c2C1([H])[H]

$$$$
91:0:0
     RDKit          3D

 88 96  0  0  1  0  0  0  0  0999 V2000
  -30.5810  -19.2010   20.7390 C   0  0  0  0  0  2  0  0  0  0  0  0
  -28.5630  -18.9160   19.4600 C   0  0  0  0  0  2  0  0  0  0  0  0
  -30.0840  -20.7350   21.1300 C   0  0  0  0  0  2  0  0  0  0  0  0
  -28.1050  -20.4830   19.7770 C   0  0  0  0  0  2  0  0  0  0  0  0
  -29.4620  -18.0610   20.5000 C   0  0  0  0  0  3  0  0  0  0  0  0
  -29.1430  -21.5440   20.2000 N   0  0  1  0  0  4  0  0  0  0  0  0
  -29.7000  -21.7290   19.3740 H   0  0  0  0  0  0  0  0  0  0  0  0
  -30.4360  -15.2140   20.2770 C   0  0  0  0  0  0  0  0  0  0  0  0
  -30.4010  -12.7930   19.3720 C   0  0  0  0  0  2  0  0  0  0  0  0
  -29.4660  -12.6360   18.1460 C   0  0  0  0  0  2  0  0  0  0  0  0
  -28.0210  -12.3660   18.6090 C   0  0  0  0  0  2  0  0  0  0  0  0
  -27.5830  -13.3360   19.7360 C   0  0  0  0  0  3  0  0  0  0  0  0
  -28.6410  -13.4250   20.8590 C   0  0  0  0  0  2  0  0  0  0  0  0
  -29.8800  -13.9150   20.2280 N   0  0  0  0  0  0  0  0  0  0  0  0
  -31.6460  -15.2680   20.0270 O   0  0  0  0  0  0  0  0  0  0  0  0
  -29.6000  -16.4080   20.4150 N   0  0  0  0  0  0  0  0  0  0  0  0
  -28.6760  -16.0330   20.5670 H   0  0  0  0  0  0  0  0  0  0  0  0
  -25.1970  -13.9060   20.4680 C   0  0  0  0  0  0  0  0  0  0  0  0
  -24.1370  -13.1320   20.8400 C   0  0  0  0  0  0  0  0  0  0  0  0
  -24.6030  -11.7780   20.8170 C   0  0  0  0  0  0  0  0  0  0  0  0
  -26.2470  -13.0310   20.2370 N   0  0  0  0  0  0  0  0  0  0  0  0
  -25.8990  -11.7460   20.5160 N   0  0  0  0  0  0  0  0  0  0  0  0
  -23.8790  -10.5160   21.0110 C   0  0  0  0  0  0  0  0  0  0  0  0
  -24.3130   -9.5540   21.9510 C   0  0  0  0  0  3  0  0  0  0  0  0
  -23.5890   -8.3560   22.1340 C   0  0  0  0  0  3  0  0  0  0  0  0
  -22.4200   -8.1100   21.3790 C   0  0  0  0  0  0  0  0  0  0  0  0
  -22.0020   -9.0600   20.4300 C   0  0  0  0  0  3  0  0  0  0  0  0
  -22.7250  -10.2500   20.2450 C   0  0  0  0  0  3  0  0  0  0  0  0
  -21.6710   -6.9600   21.4690 O   0  0  0  0  0  0  0  0  0  0  0  0
  -21.6260   -6.2210   22.6240 C   0  0  0  0  0  0  0  0  0  0  0  0
  -21.1950   -6.7780   23.8480 C   0  0  0  0  0  3  0  0  0  0  0  0
  -21.0980   -5.9660   24.9950 C   0  0  0  0  0  3  0  0  0  0  0  0
  -21.4210   -4.5970   24.9200 C   0  0  0  0  0  0  0  0  0  0  0  0
  -21.8440   -4.0390   23.6990 C   0  0  0  0  0  3  0  0  0  0  0  0
  -21.9420   -4.8490   22.5550 C   0  0  0  0  0  0  0  0  0  0  0  0
  -22.3310   -4.3030   21.3780 F   0  0  0  0  0  0  0  0  0  0  0  0
  -21.3200   -3.8150   26.0190 F   0  0  0  0  0  0  0  0  0  0  0  0
  -22.7350  -13.6010   21.1050 C   0  0  0  0  0  0  0  0  0  0  0  0
  -22.0090  -12.9080   21.9680 N   0  0  0  0  0  0  0  0  0  0  0  0
  -22.2960  -14.6240   20.5750 O   0  0  0  0  0  0  0  0  0  0  0  0
  -22.3780  -12.0790   22.4140 H   0  0  0  0  0  0  0  0  0  0  0  0
  -21.0720  -13.2090   22.1940 H   0  0  0  0  0  0  0  0  0  0  0  0
  -25.3590  -15.2770   20.2760 N   0  0  0  0  0  0  0  0  0  0  0  0
  -24.5800  -15.9260   20.3700 H   0  0  0  0  0  0  0  0  0  0  0  0
  -26.1730  -15.6910   19.8440 H   0  0  0  0  0  0  0  0  0  0  0  0
  -28.6640  -23.0240   20.7570 C   0  0  0  0  0  2  0  0  0  0  0  0
  -28.2830  -24.5010   19.9140 C   0  0  0  0  0  2  0  0  0  0  0  0
  -28.2590  -26.0460   20.3910 O   0  0  0  0  0  0  0  0  0  0  0  0
  -24.6190  -31.8780   23.2640 C   0  0  0  0  0  0  0  0  0  0  0  0
  -27.2130  -27.0730   20.2620 C   0  0  0  0  0  0  0  0  0  0  0  0
  -23.4290  -30.4760   21.6160 C   0  0  0  0  0  3  0  0  0  0  0  0
  -24.8930  -28.8870   20.2020 C   0  0  0  0  0  0  0  0  0  0  0  0
  -26.0050  -30.7060   21.4950 C   0  0  0  0  0  2  0  0  0  0  0  0
  -26.0740  -29.3200   20.8150 C   0  0  0  0  0  0  0  0  0  0  0  0
  -27.2340  -28.4380   20.8090 C   0  0  0  0  0  3  0  0  0  0  0  0
  -25.9950  -26.7590   19.6240 C   0  0  0  0  0  3  0  0  0  0  0  0
  -24.8750  -27.6260   19.5830 C   0  0  0  0  0  3  0  0  0  0  0  0
  -23.6620  -29.7830   20.2450 C   0  0  0  0  0  2  0  0  0  0  0  0
  -24.7020  -31.0520   22.1710 N   0  0  0  0  0  0  0  0  0  0  0  0
  -23.5300  -32.1690   23.7820 O   0  0  0  0  0  0  0  0  0  0  0  0
  -22.7430  -29.4810   22.5840 C   0  0  0  0  0  0  0  0  0  0  0  0
  -21.4160  -29.3080   22.4490 N   0  0  0  0  0  0  0  0  0  0  0  0
  -23.4070  -28.8660   23.4220 O   0  0  0  0  0  0  0  0  0  0  0  0
  -20.9500  -29.8460   21.7320 H   0  0  0  0  0  0  0  0  0  0  0  0
  -18.0170  -28.1240   22.9470 C   0  0  0  0  0  0  0  0  0  0  0  0
  -20.5780  -28.3780   23.2130 C   0  0  0  0  0  3  0  0  0  0  0  0
  -20.6650  -26.9440   22.6390 C   0  0  0  0  0  2  0  0  0  0  0  0
  -19.5670  -26.6350   21.6170 C   0  0  0  0  0  2  0  0  0  0  0  0
  -18.1860  -26.7770   22.2640 C   0  0  0  0  0  2  0  0  0  0  0  0
  -19.1390  -28.8880   23.3720 C   0  0  0  0  0  0  0  0  0  0  0  0
  -18.9210  -30.1480   23.9660 C   0  0  0  0  0  3  0  0  0  0  0  0
  -17.6150  -30.6500   24.1330 C   0  0  0  0  0  3  0  0  0  0  0  0
  -16.5100  -29.8830   23.7240 C   0  0  0  0  0  3  0  0  0  0  0  0
  -16.7120  -28.6190   23.1420 C   0  0  0  0  0  3  0  0  0  0  0  0
  -25.8920  -32.5100   23.9040 C   0  0  0  0  0  3  0  0  0  0  0  0
  -25.5790  -33.9160   24.2150 N   0  0  0  0  0  0  0  0  0  0  0  0
  -25.9130  -34.9660   23.4500 C   0  0  0  0  0  0  0  0  0  0  0  0
  -26.5890  -34.8540   22.4240 O   0  0  0  0  0  0  0  0  0  0  0  0
  -24.9700  -34.0740   25.0030 H   0  0  0  0  0  0  0  0  0  0  0  0
  -24.1830  -36.7540   23.0740 C   0  0  0  0  0  1  0  0  0  0  0  0
  -25.4220  -36.3590   23.8930 C   0  0  0  0  0  3  0  0  0  0  0  0
  -27.5550  -37.2570   24.7170 C   0  0  0  0  0  1  0  0  0  0  0  0
  -26.4530  -37.4150   23.7710 N   0  0  0  0  0  0  0  0  0  0  0  0
  -26.0420  -38.3350   23.9120 H   0  0  0  0  0  0  0  0  0  0  0  0
  -26.3880  -31.7550   25.2050 C   0  0  1  0  0  0  0  0  0  0  0  0
  -25.2980  -31.5220   26.2760 C   0  0  0  0  0  1  0  0  0  0  0  0
  -26.9740  -30.3620   24.8700 C   0  0  0  0  0  1  0  0  0  0  0  0
  -27.5340  -32.5600   25.8620 C   0  0  0  0  0  1  0  0  0  0  0  0
  1  3  1  0
  2  4  1  0
  2  5  1  0
  4  6  1  0
  5 16  1  0
  5  1  1  0
  6 46  1  0
  6  3  1  0
  6  7  1  6
  8 16  1  0
  9 14  1  0
 10 11  1  0
 10  9  1  0
 12 11  1  0
 12 21  1  0
 12 13  1  0
 14  8  1  0
 14 13  1  0
 15  8  2  0
 16 17  1  0
 18 19  2  0
 19 38  1  0
 20 19  1  0
 20 23  1  0
 21 18  1  0
 21 22  1  0
 22 20  2  0
 23 24  1  0
 24 25  2  0
 26 29  1  0
 26 25  1  0
 27 26  2  0
 28 27  1  0
 28 23  2  0
 29 30  1  0
 30 31  1  0
 31 32  2  0
 33 32  1  0
 33 37  1  0
 34 33  2  0
 35 30  2  0
 35 34  1  0
 36 35  1  0
 38 39  1  0
 39 42  1  0
 39 41  1  0
 40 38  2  0
 43 44  1  0
 43 18  1  0
 45 43  1  0
 47 48  1  0
 47 46  1  0
 49 60  2  0
 50 48  1  0
 50 55  1  0
 51 59  1  0
 51 61  1  0
 52 58  1  0
 52 54  1  0
 53 59  1  0
 54 53  1  0
 55 54  2  0
 56 50  2  0
 57 56  1  0
 57 52  2  0
 58 51  1  0
 59 49  1  0
 61 63  2  0
 62 61  1  0
 64 62  1  0
 65 74  2  0
 65 70  1  0
 66 62  1  0
 66 70  1  0
 67 66  1  0
 68 69  1  0
 68 67  1  0
 69 65  1  0
 70 71  2  0
 71 72  1  0
 73 72  2  0
 74 73  1  0
 75 49  1  0
 75 76  1  0
 75 85  1  0
 76 79  1  0
 77 81  1  0
 77 76  1  0
 78 77  2  0
 81 80  1  0
 83 81  1  0
 83 84  1  0
 83 82  1  0
 85 88  1  1
 85 86  1  0
 87 85  1  0
M  ISO  4   8 100  16 100  47 101  48 101
M  END
>  <TORSDO>  (92) 
F 18

>  <SCORE>  (92) 
-15.423

>  <name>  (92) 
91

>  <ligand_id>  (92) 
91

>  <original_smiles>  (92) 
[H]c1c([H])c([H])c2c(c1[H])C([H])([H])C([H])([H])C([H])([H])C2([H])N([H])C(=O)C1([H])N(C(=O)C([H])(N([H])C(=O)C([H])(N([H])C([H])([H])[H])C([H])([H])[H])C(C([H])([H])[H])(C([H])([H])[H])C([H])([H])[H])C([H])([H])c2c([H])c(OC([H])([H])C([H])([H])[N+]3([H])C([H])([H])C([H])([H])C([H])(N([H])C(=O)N4C([H])([H])C([H])([H])C([H])([H])C([H])(n5nc(-c6c([H])c([H])c(Oc7c([H])c([H])c(F)c([H])c7F)c([H])c6[H])c(C(=O)N([H])[H])c5N([H])[H])C4([H])[H])C([H])([H])C3([H])[H])c([H])c([H])c2C1([H])[H]

>  <smiles>  (92) 
[H]c1c([H])c([H])c2c(c1[H])C([H])([H])C([H])([H])C([H])([H])C2([H])N([H])C(=O)C1([H])N(C(=O)C([H])(N([H])C(=O)C([H])(N([H])C([H])([H])[H])C([H])([H])[H])C(C([H])([H])[H])(C([H])([H])[H])C([H])([H])[H])C([H])([H])c2c([H])c(OC([H])([H])C([H])([H])[N+]3([H])C([H])([H])C([H])([H])C([H])(N([H])C(=O)N4C([H])([H])C([H])([H])C([H])([H])C([H])(n5nc(-c6c([H])c([H])c(Oc7c([H])c([H])c(F)c([H])c7F)c([H])c6[H])c(C(=O)N([H])[H])c5N([H])[H])C4([H])[H])C([H])([H])C3([H])[H])c([H])c([H])c2C1([H])[H]

$$$$
92:0:0
     RDKit          3D

 90 98  0  0  1  0  0  0  0  0999 V2000
  -30.4780  -19.3910   20.9180 C   0  0  0  0  0  3  0  0  0  0  0  0
  -30.3790  -20.8110   20.9930 C   0  0  0  0  0  3  0  0  0  0  0  0
  -28.4530  -20.7790   19.5610 C   0  0  0  0  0  3  0  0  0  0  0  0
  -29.5940  -18.6130   20.1250 C   0  0  0  0  0  0  0  0  0  0  0  0
  -29.3710  -21.5540   20.3190 C   0  0  0  0  0  0  0  0  0  0  0  0
  -28.5730  -19.3580   19.4550 C   0  0  0  0  0  0  0  0  0  0  0  0
  -27.7060  -18.7010   18.6510 F   0  0  0  0  0  0  0  0  0  0  0  0
  -29.8200  -17.0730   19.8090 C   0  0  0  0  0  2  0  0  0  0  0  0
  -30.5890  -14.6650   20.3610 C   0  0  0  0  0  0  0  0  0  0  0  0
  -30.3600  -12.4160   19.3500 C   0  0  0  0  0  2  0  0  0  0  0  0
  -29.4230  -12.5630   18.1300 C   0  0  0  0  0  2  0  0  0  0  0  0
  -27.9500  -12.4140   18.5610 C   0  0  0  0  0  2  0  0  0  0  0  0
  -27.5970  -13.2720   19.8060 C   0  0  0  0  0  3  0  0  0  0  0  0
  -28.6590  -13.1250   20.9230 C   0  0  0  0  0  2  0  0  0  0  0  0
  -29.9660  -13.4440   20.3350 N   0  0  0  0  0  0  0  0  0  0  0  0
  -31.7480  -14.7940   19.9650 O   0  0  0  0  0  0  0  0  0  0  0  0
  -29.7890  -15.7650   20.5760 N   0  0  0  0  0  0  0  0  0  0  0  0
  -28.8940  -15.5450   20.9810 H   0  0  0  0  0  0  0  0  0  0  0  0
  -25.2050  -13.8700   20.5260 C   0  0  0  0  0  0  0  0  0  0  0  0
  -24.1390  -13.0950   20.8980 C   0  0  0  0  0  0  0  0  0  0  0  0
  -24.6020  -11.7450   20.8690 C   0  0  0  0  0  0  0  0  0  0  0  0
  -26.2490  -12.9900   20.2920 N   0  0  0  0  0  0  0  0  0  0  0  0
  -25.8920  -11.7070   20.5590 N   0  0  0  0  0  0  0  0  0  0  0  0
  -23.8770  -10.4800   21.0580 C   0  0  0  0  0  0  0  0  0  0  0  0
  -24.3190   -9.5090   21.9830 C   0  0  0  0  0  3  0  0  0  0  0  0
  -23.5910   -8.3120   22.1620 C   0  0  0  0  0  3  0  0  0  0  0  0
  -22.4110   -8.0790   21.4180 C   0  0  0  0  0  0  0  0  0  0  0  0
  -21.9880   -9.0420   20.4850 C   0  0  0  0  0  3  0  0  0  0  0  0
  -22.7150  -10.2290   20.3030 C   0  0  0  0  0  3  0  0  0  0  0  0
  -21.6540   -6.9360   21.5090 O   0  0  0  0  0  0  0  0  0  0  0  0
  -21.6240   -6.1810   22.6550 C   0  0  0  0  0  0  0  0  0  0  0  0
  -21.2300   -6.7260   23.8970 C   0  0  0  0  0  3  0  0  0  0  0  0
  -21.1470   -5.8980   25.0340 C   0  0  0  0  0  3  0  0  0  0  0  0
  -21.4480   -4.5260   24.9310 C   0  0  0  0  0  0  0  0  0  0  0  0
  -21.8380   -3.9820   23.6950 C   0  0  0  0  0  3  0  0  0  0  0  0
  -21.9220   -4.8070   22.5600 C   0  0  0  0  0  0  0  0  0  0  0  0
  -22.2750   -4.2720   21.3670 F   0  0  0  0  0  0  0  0  0  0  0  0
  -21.3620   -3.7300   26.0220 F   0  0  0  0  0  0  0  0  0  0  0  0
  -22.7410  -13.5730   21.1700 C   0  0  0  0  0  0  0  0  0  0  0  0
  -22.0170  -12.8770   22.0380 N   0  0  0  0  0  0  0  0  0  0  0  0
  -22.3020  -14.5990   20.6500 O   0  0  0  0  0  0  0  0  0  0  0  0
  -22.3830  -12.0480   22.4810 H   0  0  0  0  0  0  0  0  0  0  0  0
  -21.0780  -13.1750   22.2640 H   0  0  0  0  0  0  0  0  0  0  0  0
  -25.3700  -15.2410   20.3500 N   0  0  0  0  0  0  0  0  0  0  0  0
  -24.6010  -15.8940   20.4620 H   0  0  0  0  0  0  0  0  0  0  0  0
  -26.2160  -15.6850   20.0100 H   0  0  0  0  0  0  0  0  0  0  0  0
  -29.4340  -22.9650   20.3790 O   0  0  0  0  0  0  0  0  0  0  0  0
  -28.2820  -23.8690   20.2570 C   0  0  0  0  0  2  0  0  0  0  0  0
  -28.5790  -25.2840   19.5760 C   0  0  0  0  0  2  0  0  0  0  0  0
  -28.4080  -26.5710   20.2780 O   0  0  0  0  0  0  0  0  0  0  0  0
  -24.6020  -31.9050   23.2420 C   0  0  0  0  0  0  0  0  0  0  0  0
  -27.2480  -27.3550   20.2020 C   0  0  0  0  0  0  0  0  0  0  0  0
  -23.4060  -30.4980   21.6000 C   0  0  0  0  0  3  0  0  0  0  0  0
  -24.8640  -28.9380   20.1860 C   0  0  0  0  0  0  0  0  0  0  0  0
  -25.9410  -30.8230   21.4230 C   0  0  0  0  0  2  0  0  0  0  0  0
  -26.0250  -29.4400   20.7850 C   0  0  0  0  0  0  0  0  0  0  0  0
  -27.2130  -28.6570   20.7880 C   0  0  0  0  0  3  0  0  0  0  0  0
  -26.0620  -26.8890   19.5930 C   0  0  0  0  0  3  0  0  0  0  0  0
  -24.8840  -27.6660   19.5850 C   0  0  0  0  0  3  0  0  0  0  0  0
  -23.6230  -29.8080   20.2250 C   0  0  0  0  0  2  0  0  0  0  0  0
  -24.6690  -31.0930   22.1460 N   0  0  0  0  0  0  0  0  0  0  0  0
  -23.5170  -32.1820   23.7720 O   0  0  0  0  0  0  0  0  0  0  0  0
  -22.7410  -29.4860   22.5620 C   0  0  0  0  0  0  0  0  0  0  0  0
  -21.4160  -29.3100   22.4320 N   0  0  0  0  0  0  0  0  0  0  0  0
  -23.4170  -28.8630   23.3850 O   0  0  0  0  0  0  0  0  0  0  0  0
  -20.9280  -29.8650   21.7420 H   0  0  0  0  0  0  0  0  0  0  0  0
  -18.0370  -28.1220   22.9300 C   0  0  0  0  0  0  0  0  0  0  0  0
  -20.5960  -28.3750   23.2050 C   0  0  0  0  0  3  0  0  0  0  0  0
  -20.6960  -26.9420   22.6300 C   0  0  0  0  0  2  0  0  0  0  0  0
  -19.5950  -26.6210   21.6150 C   0  0  0  0  0  2  0  0  0  0  0  0
  -18.2110  -26.7720   22.2560 C   0  0  0  0  0  2  0  0  0  0  0  0
  -19.1580  -28.8810   23.3610 C   0  0  0  0  0  0  0  0  0  0  0  0
  -18.9410  -30.1450   23.9500 C   0  0  0  0  0  3  0  0  0  0  0  0
  -17.6370  -30.6500   24.1100 C   0  0  0  0  0  3  0  0  0  0  0  0
  -16.5310  -29.8880   23.6960 C   0  0  0  0  0  3  0  0  0  0  0  0
  -16.7320  -28.6250   23.1100 C   0  0  0  0  0  3  0  0  0  0  0  0
  -25.8850  -32.5410   23.8650 C   0  0  0  0  0  3  0  0  0  0  0  0
  -26.3970  -31.7730   25.1470 C   0  0  1  0  0  0  0  0  0  0  0  0
  -25.3000  -31.5390   26.2120 C   0  0  0  0  0  1  0  0  0  0  0  0
  -26.9810  -30.3930   24.7610 C   0  0  0  0  0  1  0  0  0  0  0  0
  -27.5450  -32.5710   25.8100 C   0  0  0  0  0  1  0  0  0  0  0  0
  -25.5730  -33.9400   24.1900 N   0  0  0  0  0  0  0  0  0  0  0  0
  -25.9100  -34.9900   23.4310 C   0  0  0  0  0  0  0  0  0  0  0  0
  -26.5850  -34.8840   22.4040 O   0  0  0  0  0  0  0  0  0  0  0  0
  -24.9720  -34.0950   24.9870 H   0  0  0  0  0  0  0  0  0  0  0  0
  -24.1850  -36.7840   23.0640 C   0  0  0  0  0  1  0  0  0  0  0  0
  -25.4210  -36.3800   23.8820 C   0  0  0  0  0  3  0  0  0  0  0  0
  -27.5530  -37.2650   24.7220 C   0  0  0  0  0  1  0  0  0  0  0  0
  -26.4550  -37.4320   23.7730 N   0  0  0  0  0  0  0  0  0  0  0  0
  -26.0490  -38.3530   23.9140 H   0  0  0  0  0  0  0  0  0  0  0  0
  1  2  1  0
  3  5  1  0
  4  1  2  0
  5 47  1  0
  5  2  2  0
  6  3  2  0
  6  4  1  0
  7  6  1  0
  8  4  1  0
  8 17  1  0
  9 17  1  0
 10 15  1  0
 11 12  1  0
 11 10  1  0
 13 12  1  0
 13 22  1  0
 13 14  1  0
 15  9  1  0
 15 14  1  0
 16  9  2  0
 17 18  1  0
 19 20  2  0
 20 39  1  0
 21 20  1  0
 21 24  1  0
 22 19  1  0
 22 23  1  0
 23 21  2  0
 24 25  1  0
 25 26  2  0
 27 30  1  0
 27 26  1  0
 28 27  2  0
 29 28  1  0
 29 24  2  0
 30 31  1  0
 31 32  1  0
 32 33  2  0
 34 33  1  0
 34 38  1  0
 35 34  2  0
 36 31  2  0
 36 35  1  0
 37 36  1  0
 39 40  1  0
 40 43  1  0
 40 42  1  0
 41 39  2  0
 44 45  1  0
 44 19  1  0
 46 44  1  0
 48 47  1  0
 49 48  1  0
 49 50  1  0
 51 62  2  0
 52 50  1  0
 52 57  1  0
 53 61  1  0
 53 63  1  0
 54 60  1  0
 54 56  1  0
 55 61  1  0
 56 57  2  0
 56 55  1  0
 58 52  2  0
 59 58  1  0
 59 54  2  0
 60 53  1  0
 61 51  1  0
 63 65  2  0
 64 63  1  0
 66 64  1  0
 67 76  2  0
 67 72  1  0
 68 64  1  0
 68 72  1  0
 69 68  1  0
 70 71  1  0
 70 69  1  0
 71 67  1  0
 72 73  2  0
 73 74  1  0
 75 74  2  0
 76 75  1  0
 77 51  1  0
 77 82  1  0
 77 78  1  0
 78 81  1  1
 78 79  1  0
 80 78  1  0
 82 85  1  0
 83 87  1  0
 83 82  1  0
 84 83  2  0
 87 86  1  0
 89 87  1  0
 89 90  1  0
 89 88  1  0
M  ISO  4   9 100  17 100  49 101  50 101
M  END
>  <TORSDO>  (93) 
F 20

>  <SCORE>  (93) 
-14.010

>  <name>  (93) 
92

>  <ligand_id>  (93) 
92

>  <original_smiles>  (93) 
[H]c1c([H])c([H])c2c(c1[H])C([H])([H])C([H])([H])C([H])([H])C2([H])N([H])C(=O)C1([H])N(C(=O)C([H])(N([H])C(=O)C([H])(N([H])C([H])([H])[H])C([H])([H])[H])C(C([H])([H])[H])(C([H])([H])[H])C([H])([H])[H])C([H])([H])c2c([H])c(OC([H])([H])C([H])([H])Oc3c([H])c([H])c(C([H])([H])N([H])C(=O)N4C([H])([H])C([H])([H])C([H])([H])C([H])(n5nc(-c6c([H])c([H])c(Oc7c([H])c([H])c(F)c([H])c7F)c([H])c6[H])c(C(=O)N([H])[H])c5N([H])[H])C4([H])[H])c(F)c3[H])c([H])c([H])c2C1([H])[H]

>  <smiles>  (93) 
[H]c1c([H])c([H])c2c(c1[H])C([H])([H])C([H])([H])C([H])([H])C2([H])N([H])C(=O)C1([H])N(C(=O)C([H])(N([H])C(=O)C([H])(N([H])C([H])([H])[H])C([H])([H])[H])C(C([H])([H])[H])(C([H])([H])[H])C([H])([H])[H])C([H])([H])c2c([H])c(OC([H])([H])C([H])([H])Oc3c([H])c([H])c(C([H])([H])N([H])C(=O)N4C([H])([H])C([H])([H])C([H])([H])C([H])(n5nc(-c6c([H])c([H])c(Oc7c([H])c([H])c(F)c([H])c7F)c([H])c6[H])c(C(=O)N([H])[H])c5N([H])[H])C4([H])[H])c(F)c3[H])c([H])c([H])c2C1([H])[H]

$$$$
93:0:0
     RDKit          3D

 93102  0  0  1  0  0  0  0  0999 V2000
  -30.0390  -24.6960   19.5590 C   0  0  0  0  0  2  0  0  0  0  0  0
  -27.9010  -24.0220   20.5970 C   0  0  0  0  0  2  0  0  0  0  0  0
  -30.2250  -23.2540   19.0100 C   0  0  0  0  0  2  0  0  0  0  0  0
  -28.0740  -22.5890   20.0200 C   0  0  0  0  0  2  0  0  0  0  0  0
  -28.5580  -25.1070   19.7060 C   0  0  0  0  0  3  0  0  0  0  0  0
  -29.4850  -22.2430   19.7840 N   0  0  0  0  0  0  0  0  0  0  0  0
  -31.2670  -19.0550   18.7360 C   0  0  0  0  0  3  0  0  0  0  0  0
  -30.7910  -20.3900   18.7300 C   0  0  0  0  0  3  0  0  0  0  0  0
  -29.3900  -19.8960   20.6250 C   0  0  0  0  0  3  0  0  0  0  0  0
  -30.8410  -18.1230   19.7100 C   0  0  0  0  0  0  0  0  0  0  0  0
  -29.8520  -18.5500   20.6330 C   0  0  0  0  0  0  0  0  0  0  0  0
  -29.8710  -20.8640   19.7030 C   0  0  0  0  0  0  0  0  0  0  0  0
  -29.3200  -17.6010   21.6930 C   0  0  0  0  0  1  0  0  0  0  0  0
  -31.5960  -16.7780   19.8600 C   0  0  0  0  0  2  0  0  0  0  0  0
  -31.4040  -14.3450   19.2790 C   0  0  0  0  0  0  0  0  0  0  0  0
  -30.8920  -12.0370   18.5540 C   0  0  0  0  0  2  0  0  0  0  0  0
  -29.8440  -12.0710   17.4240 C   0  0  0  0  0  2  0  0  0  0  0  0
  -28.4200  -12.0840   18.0100 C   0  0  0  0  0  2  0  0  0  0  0  0
  -28.2390  -13.1430   19.1310 C   0  0  0  0  0  3  0  0  0  0  0  0
  -29.3950  -13.0800   20.1540 C   0  0  0  0  0  2  0  0  0  0  0  0
  -30.6570  -13.2120   19.4100 N   0  0  0  0  0  0  0  0  0  0  0  0
  -32.4900  -14.3450   18.6950 O   0  0  0  0  0  0  0  0  0  0  0  0
  -30.8610  -15.5010   19.7250 N   0  0  0  0  0  0  0  0  0  0  0  0
  -29.9420  -15.4470   20.1350 H   0  0  0  0  0  0  0  0  0  0  0  0
  -26.0580  -14.0190   20.1730 C   0  0  0  0  0  0  0  0  0  0  0  0
  -24.9480  -13.3760   20.6500 C   0  0  0  0  0  0  0  0  0  0  0  0
  -25.2100  -11.9790   20.5110 C   0  0  0  0  0  0  0  0  0  0  0  0
  -26.9340  -13.0210   19.7760 N   0  0  0  0  0  0  0  0  0  0  0  0
  -26.4340  -11.7860   20.0350 N   0  0  0  0  0  0  0  0  0  0  0  0
  -24.3450  -10.8150   20.7470 C   0  0  0  0  0  0  0  0  0  0  0  0
  -24.7010   -9.8050   21.6690 C   0  0  0  0  0  3  0  0  0  0  0  0
  -23.8440   -8.7070   21.8930 C   0  0  0  0  0  3  0  0  0  0  0  0
  -22.6160   -8.6100   21.1950 C   0  0  0  0  0  0  0  0  0  0  0  0
  -22.2780   -9.6070   20.2630 C   0  0  0  0  0  3  0  0  0  0  0  0
  -23.1340  -10.6970   20.0380 C   0  0  0  0  0  3  0  0  0  0  0  0
  -21.7330   -7.5670   21.3300 O   0  0  0  0  0  0  0  0  0  0  0  0
  -21.5740   -6.9080   22.5230 C   0  0  0  0  0  0  0  0  0  0  0  0
  -21.1860   -7.5830   23.7010 C   0  0  0  0  0  3  0  0  0  0  0  0
  -20.9670   -6.8560   24.8890 C   0  0  0  0  0  3  0  0  0  0  0  0
  -21.1240   -5.4570   24.8990 C   0  0  0  0  0  0  0  0  0  0  0  0
  -21.5050   -4.7830   23.7250 C   0  0  0  0  0  3  0  0  0  0  0  0
  -21.7260   -5.5060   22.5400 C   0  0  0  0  0  0  0  0  0  0  0  0
  -22.0710   -4.8490   21.4060 F   0  0  0  0  0  0  0  0  0  0  0  0
  -20.9060   -4.7580   26.0370 F   0  0  0  0  0  0  0  0  0  0  0  0
  -23.6750  -14.0190   21.1200 C   0  0  0  0  0  0  0  0  0  0  0  0
  -22.9810  -13.3890   22.0620 N   0  0  0  0  0  0  0  0  0  0  0  0
  -23.3140  -15.1130   20.6870 O   0  0  0  0  0  0  0  0  0  0  0  0
  -23.2870  -12.5010   22.4310 H   0  0  0  0  0  0  0  0  0  0  0  0
  -22.1310  -13.8020   22.4190 H   0  0  0  0  0  0  0  0  0  0  0  0
  -26.3880  -15.3630   20.0240 N   0  0  0  0  0  0  0  0  0  0  0  0
  -25.7360  -16.1070   20.2480 H   0  0  0  0  0  0  0  0  0  0  0  0
  -27.2390  -15.7020   19.5940 H   0  0  0  0  0  0  0  0  0  0  0  0
  -28.4680  -26.4550   20.2500 O   0  0  0  0  0  0  0  0  0  0  0  0
  -24.4610  -31.6070   23.1650 C   0  0  0  0  0  0  0  0  0  0  0  0
  -27.2820  -27.1770   20.1730 C   0  0  0  0  0  0  0  0  0  0  0  0
  -23.3380  -30.1900   21.4800 C   0  0  0  0  0  3  0  0  0  0  0  0
  -24.8660  -28.6780   20.1020 C   0  0  0  0  0  0  0  0  0  0  0  0
  -25.8670  -30.5800   21.3760 C   0  0  0  0  0  2  0  0  0  0  0  0
  -25.9970  -29.2100   20.7320 C   0  0  0  0  0  0  0  0  0  0  0  0
  -27.2060  -28.4680   20.7620 C   0  0  0  0  0  3  0  0  0  0  0  0
  -26.1270  -26.6740   19.5300 C   0  0  0  0  0  3  0  0  0  0  0  0
  -24.9290  -27.4110   19.4980 C   0  0  0  0  0  3  0  0  0  0  0  0
  -23.6090  -29.5180   20.1070 C   0  0  0  0  0  2  0  0  0  0  0  0
  -24.5720  -30.8080   22.0650 N   0  0  0  0  0  0  0  0  0  0  0  0
  -23.3570  -31.8610   23.6660 O   0  0  0  0  0  0  0  0  0  0  0  0
  -22.6700  -29.1550   22.4150 C   0  0  0  0  0  0  0  0  0  0  0  0
  -21.3480  -28.9760   22.2630 N   0  0  0  0  0  0  0  0  0  0  0  0
  -23.3400  -28.5190   23.2330 O   0  0  0  0  0  0  0  0  0  0  0  0
  -20.8700  -29.5430   21.5780 H   0  0  0  0  0  0  0  0  0  0  0  0
  -17.9620  -27.7920   22.7060 C   0  0  0  0  0  0  0  0  0  0  0  0
  -20.5180  -28.0270   23.0060 C   0  0  0  0  0  3  0  0  0  0  0  0
  -20.6150  -26.6080   22.3990 C   0  0  0  0  0  2  0  0  0  0  0  0
  -19.5200  -26.3150   21.3670 C   0  0  0  0  0  2  0  0  0  0  0  0
  -18.1330  -26.4580   22.0020 C   0  0  0  0  0  2  0  0  0  0  0  0
  -19.0820  -28.5360   23.1630 C   0  0  0  0  0  0  0  0  0  0  0  0
  -18.8680  -29.7890   23.7790 C   0  0  0  0  0  3  0  0  0  0  0  0
  -17.5660  -30.2970   23.9440 C   0  0  0  0  0  3  0  0  0  0  0  0
  -16.4590  -29.5490   23.5050 C   0  0  0  0  0  3  0  0  0  0  0  0
  -16.6580  -28.2990   22.8930 C   0  0  0  0  0  3  0  0  0  0  0  0
  -25.7140  -32.2590   23.8300 C   0  0  0  0  0  3  0  0  0  0  0  0
  -25.3730  -33.6520   24.1460 N   0  0  0  0  0  0  0  0  0  0  0  0
  -25.7100  -34.7070   23.3920 C   0  0  0  0  0  0  0  0  0  0  0  0
  -26.4110  -34.6120   22.3810 O   0  0  0  0  0  0  0  0  0  0  0  0
  -24.7540  -33.8000   24.9290 H   0  0  0  0  0  0  0  0  0  0  0  0
  -23.9590  -36.4660   22.9810 C   0  0  0  0  0  1  0  0  0  0  0  0
  -25.1860  -36.0890   23.8280 C   0  0  0  0  0  3  0  0  0  0  0  0
  -27.2810  -37.0160   24.7120 C   0  0  0  0  0  1  0  0  0  0  0  0
  -26.2030  -37.1590   23.7370 N   0  0  0  0  0  0  0  0  0  0  0  0
  -25.7760  -38.0730   23.8710 H   0  0  0  0  0  0  0  0  0  0  0  0
  -26.1970  -31.4980   25.1250 C   0  0  1  0  0  0  0  0  0  0  0  0
  -25.0710  -31.2430   26.1540 C   0  0  0  0  0  1  0  0  0  0  0  0
  -26.8160  -30.1300   24.7540 C   0  0  0  0  0  1  0  0  0  0  0  0
  -27.3100  -32.3110   25.8260 C   0  0  0  0  0  1  0  0  0  0  0  0
  1  5  1  0
  3  1  1  0
  3  6  1  0
  4  2  1  0
  5 53  1  0
  5  2  1  0
  6  4  1  0
  7 10  1  0
  8  7  2  0
  8 12  1  0
  9 11  1  0
 10 14  1  0
 10 11  2  0
 11 13  1  0
 12  6  1  0
 12  9  2  0
 15 21  1  0
 15 23  1  0
 16 21  1  0
 17 18  1  0
 17 16  1  0
 19 18  1  0
 19 28  1  0
 19 20  1  0
 21 20  1  0
 22 15  2  0
 23 14  1  0
 23 24  1  0
 25 26  2  0
 26 45  1  0
 27 26  1  0
 27 30  1  0
 28 29  1  0
 28 25  1  0
 29 27  2  0
 30 31  1  0
 31 32  2  0
 33 36  1  0
 33 32  1  0
 34 33  2  0
 35 34  1  0
 35 30  2  0
 36 37  1  0
 37 42  2  0
 37 38  1  0
 38 39  2  0
 39 40  1  0
 40 44  1  0
 41 40  2  0
 42 41  1  0
 43 42  1  0
 45 46  1  0
 46 49  1  0
 46 48  1  0
 47 45  2  0
 50 25  1  0
 50 51  1  0
 52 50  1  0
 54 65  2  0
 55 53  1  0
 55 60  1  0
 56 64  1  0
 56 66  1  0
 57 63  1  0
 57 59  1  0
 58 64  1  0
 59 60  2  0
 59 58  1  0
 61 55  2  0
 62 61  1  0
 62 57  2  0
 63 56  1  0
 64 54  1  0
 66 68  2  0
 67 66  1  0
 69 67  1  0
 70 79  2  0
 70 75  1  0
 71 67  1  0
 71 75  1  0
 72 71  1  0
 73 74  1  0
 73 72  1  0
 74 70  1  0
 75 76  2  0
 76 77  1  0
 78 77  2  0
 79 78  1  0
 80 54  1  0
 80 81  1  0
 80 90  1  0
 81 84  1  0
 82 86  1  0
 82 81  1  0
 83 82  2  0
 86 85  1  0
 88 86  1  0
 88 89  1  0
 88 87  1  0
 90 93  1  1
 90 91  1  0
 92 90  1  0
M  ISO  4   5 101  15 100  23 100  53 101
M  END
>  <TORSDO>  (94) 
F 18

>  <SCORE>  (94) 
-12.744

>  <name>  (94) 
93

>  <ligand_id>  (94) 
93

>  <original_smiles>  (94) 
[H]c1c([H])c([H])c2c(c1[H])C([H])([H])C([H])([H])C([H])([H])C2([H])N([H])C(=O)C1([H])N(C(=O)C([H])(N([H])C(=O)C([H])(N([H])C([H])([H])[H])C([H])([H])[H])C(C([H])([H])[H])(C([H])([H])[H])C([H])([H])[H])C([H])([H])c2c([H])c(OC3([H])C([H])([H])C([H])([H])N(c4c([H])c([H])c(C([H])([H])N([H])C(=O)N5C([H])([H])C([H])([H])C([H])([H])C([H])(n6nc(-c7c([H])c([H])c(Oc8c([H])c([H])c(F)c([H])c8F)c([H])c7[H])c(C(=O)N([H])[H])c6N([H])[H])C5([H])[H])c(C([H])([H])[H])c4[H])C([H])([H])C3([H])[H])c([H])c([H])c2C1([H])[H]

>  <smiles>  (94) 
[H]c1c([H])c([H])c2c(c1[H])C([H])([H])C([H])([H])C([H])([H])C2([H])N([H])C(=O)C1([H])N(C(=O)C([H])(N([H])C(=O)C([H])(N([H])C([H])([H])[H])C([H])([H])[H])C(C([H])([H])[H])(C([H])([H])[H])C([H])([H])[H])C([H])([H])c2c([H])c(OC3([H])C([H])([H])C([H])([H])N(c4c([H])c([H])c(C([H])([H])N([H])C(=O)N5C([H])([H])C([H])([H])C([H])([H])C([H])(n6nc(-c7c([H])c([H])c(Oc8c([H])c([H])c(F)c([H])c8F)c([H])c7[H])c(C(=O)N([H])[H])c6N([H])[H])C5([H])[H])c(C([H])([H])[H])c4[H])C([H])([H])C3([H])[H])c([H])c([H])c2C1([H])[H]

$$$$
