0:0:0
     RDKit          3D

 88 96  0  0  1  0  0  0  0  0999 V2000
  -30.2230  -22.4450   23.0640 C   0  0  0  0  0  3  0  0  0  0  0  0
  -30.6100  -21.1280   23.0520 C   0  0  0  0  0  3  0  0  0  0  0  0
  -29.5010  -22.9510   21.9990 C   0  0  0  0  0  3  0  0  0  0  0  0
  -30.2880  -20.2650   21.9960 C   0  0  0  0  0  0  0  0  0  0  0  0
  -29.0360  -22.2570   20.8420 C   0  0  0  0  0  0  0  0  0  0  0  0
  -29.4670  -20.6010   20.8440 C   0  0  0  0  0  0  0  0  0  0  0  0
  -30.9540  -18.9040   22.2130 C   0  0  0  0  0  1  0  0  0  0  0  0
  -29.4340  -18.9450   19.9600 C   0  0  0  0  0  2  0  0  0  0  0  0
  -30.3140  -15.7900   20.1560 C   0  0  0  0  0  0  0  0  0  0  0  0
  -30.4030  -13.2270   19.3610 C   0  0  0  0  0  2  0  0  0  0  0  0
  -29.5070  -12.8300   18.1500 C   0  0  0  0  0  2  0  0  0  0  0  0
  -28.0840  -12.4780   18.6080 C   0  0  0  0  0  2  0  0  0  0  0  0
  -27.5840  -13.4750   19.6760 C   0  0  0  0  0  3  0  0  0  0  0  0
  -28.6200  -13.7860   20.7840 C   0  0  0  0  0  2  0  0  0  0  0  0
  -29.7950  -14.4130   20.1290 N   0  0  0  0  0  0  0  0  0  0  0  0
  -31.5330  -15.7230   19.9030 O   0  0  0  0  0  0  0  0  0  0  0  0
  -29.5520  -17.1580   20.2870 N   0  0  0  0  0  0  0  0  0  0  0  0
  -28.6240  -16.8830   20.5740 H   0  0  0  0  0  0  0  0  0  0  0  0
  -25.2310  -14.0070   20.4620 C   0  0  0  0  0  0  0  0  0  0  0  0
  -24.1700  -13.2280   20.8300 C   0  0  0  0  0  0  0  0  0  0  0  0
  -24.6350  -11.8770   20.7820 C   0  0  0  0  0  0  0  0  0  0  0  0
  -26.2690  -13.1350   20.2010 N   0  0  0  0  0  0  0  0  0  0  0  0
  -25.9250  -11.8440   20.4600 N   0  0  0  0  0  0  0  0  0  0  0  0
  -23.9020  -10.6160   20.9630 C   0  0  0  0  0  0  0  0  0  0  0  0
  -24.3160   -9.6450   21.9010 C   0  0  0  0  0  3  0  0  0  0  0  0
  -23.5790   -8.4550   22.0740 C   0  0  0  0  0  3  0  0  0  0  0  0
  -22.4120   -8.2240   21.3080 C   0  0  0  0  0  0  0  0  0  0  0  0
  -22.0160   -9.1820   20.3580 C   0  0  0  0  0  3  0  0  0  0  0  0
  -22.7540  -10.3650   20.1840 C   0  0  0  0  0  3  0  0  0  0  0  0
  -21.6480   -7.0850   21.3900 O   0  0  0  0  0  0  0  0  0  0  0  0
  -21.5690   -6.3510   22.5460 C   0  0  0  0  0  0  0  0  0  0  0  0
  -21.0930   -6.9100   23.7520 C   0  0  0  0  0  3  0  0  0  0  0  0
  -20.9620   -6.1020   24.8990 C   0  0  0  0  0  3  0  0  0  0  0  0
  -21.2990   -4.7360   24.8420 C   0  0  0  0  0  0  0  0  0  0  0  0
  -21.7670   -4.1760   23.6390 C   0  0  0  0  0  3  0  0  0  0  0  0
  -21.8990   -4.9810   22.4950 C   0  0  0  0  0  0  0  0  0  0  0  0
  -22.3310   -4.4330   21.3350 F   0  0  0  0  0  0  0  0  0  0  0  0
  -21.1670   -3.9570   25.9410 F   0  0  0  0  0  0  0  0  0  0  0  0
  -22.7760  -13.7090   21.1060 C   0  0  0  0  0  0  0  0  0  0  0  0
  -22.0480  -13.0110   21.9700 N   0  0  0  0  0  0  0  0  0  0  0  0
  -22.3430  -14.7390   20.5920 O   0  0  0  0  0  0  0  0  0  0  0  0
  -22.4120  -12.1790   22.4090 H   0  0  0  0  0  0  0  0  0  0  0  0
  -21.1120  -13.3150   22.1960 H   0  0  0  0  0  0  0  0  0  0  0  0
  -25.3930  -15.3780   20.2930 N   0  0  0  0  0  0  0  0  0  0  0  0
  -24.6220  -16.0290   20.4020 H   0  0  0  0  0  0  0  0  0  0  0  0
  -26.2270  -15.8140   19.9200 H   0  0  0  0  0  0  0  0  0  0  0  0
  -28.1940  -23.7720   20.0960 C   0  0  0  0  0  2  0  0  0  0  0  0
  -28.1750  -25.5470   20.3620 O   0  0  0  0  0  0  0  0  0  0  0  0
  -24.6320  -31.8950   23.1750 C   0  0  0  0  0  0  0  0  0  0  0  0
  -27.1880  -26.7590   20.2550 C   0  0  0  0  0  0  0  0  0  0  0  0
  -23.4530  -30.4720   21.5550 C   0  0  0  0  0  3  0  0  0  0  0  0
  -24.9100  -28.8050   20.1640 C   0  0  0  0  0  0  0  0  0  0  0  0
  -26.0330  -30.6110   21.4410 C   0  0  0  0  0  2  0  0  0  0  0  0
  -26.1010  -29.1670   20.8010 C   0  0  0  0  0  0  0  0  0  0  0  0
  -27.2200  -28.1740   20.8130 C   0  0  0  0  0  3  0  0  0  0  0  0
  -25.9610  -26.6140   19.5550 C   0  0  0  0  0  3  0  0  0  0  0  0
  -24.8820  -27.5550   19.5170 C   0  0  0  0  0  3  0  0  0  0  0  0
  -23.6990  -29.7540   20.1950 C   0  0  0  0  0  2  0  0  0  0  0  0
  -24.7290  -31.0280   22.1080 N   0  0  0  0  0  0  0  0  0  0  0  0
  -23.5370  -32.2000   23.6800 O   0  0  0  0  0  0  0  0  0  0  0  0
  -22.7340  -29.5100   22.5380 C   0  0  0  0  0  0  0  0  0  0  0  0
  -21.4000  -29.3610   22.4210 N   0  0  0  0  0  0  0  0  0  0  0  0
  -23.3880  -28.8940   23.3830 O   0  0  0  0  0  0  0  0  0  0  0  0
  -20.9200  -29.9050   21.7170 H   0  0  0  0  0  0  0  0  0  0  0  0
  -18.0070  -28.1740   22.9680 C   0  0  0  0  0  0  0  0  0  0  0  0
  -20.5720  -28.4350   23.2050 C   0  0  0  0  0  3  0  0  0  0  0  0
  -20.6610  -26.9970   22.6400 C   0  0  0  0  0  2  0  0  0  0  0  0
  -19.5500  -26.6740   21.6370 C   0  0  0  0  0  2  0  0  0  0  0  0
  -18.1750  -26.8240   22.2910 C   0  0  0  0  0  2  0  0  0  0  0  0
  -19.1330  -28.9370   23.3820 C   0  0  0  0  0  0  0  0  0  0  0  0
  -18.9180  -30.1980   23.9800 C   0  0  0  0  0  3  0  0  0  0  0  0
  -17.6150  -30.6950   24.1680 C   0  0  0  0  0  3  0  0  0  0  0  0
  -16.5060  -29.9300   23.7670 C   0  0  0  0  0  3  0  0  0  0  0  0
  -16.7030  -28.6730   23.1710 C   0  0  0  0  0  3  0  0  0  0  0  0
  -25.8920  -32.5580   23.8120 C   0  0  0  0  0  3  0  0  0  0  0  0
  -25.5620  -33.9610   24.1380 N   0  0  0  0  0  0  0  0  0  0  0  0
  -25.8940  -35.0260   23.3950 C   0  0  0  0  0  0  0  0  0  0  0  0
  -26.5670  -34.9310   22.3650 O   0  0  0  0  0  0  0  0  0  0  0  0
  -24.9630  -34.1070   24.9380 H   0  0  0  0  0  0  0  0  0  0  0  0
  -24.1690  -36.8330   23.0560 C   0  0  0  0  0  1  0  0  0  0  0  0
  -25.4080  -36.4150   23.8640 C   0  0  0  0  0  3  0  0  0  0  0  0
  -27.5370  -37.3050   24.7110 C   0  0  0  0  0  1  0  0  0  0  0  0
  -26.4410  -37.4700   23.7590 N   0  0  0  0  0  0  0  0  0  0  0  0
  -26.0330  -38.3910   23.9020 H   0  0  0  0  0  0  0  0  0  0  0  0
  -26.3900  -31.8130   25.1130 C   0  0  1  0  0  0  0  0  0  0  0  0
  -25.2810  -31.5920   26.1690 C   0  0  0  0  0  1  0  0  0  0  0  0
  -26.9880  -30.4290   24.7690 C   0  0  0  0  0  1  0  0  0  0  0  0
  -27.5260  -32.6240   25.7780 C   0  0  0  0  0  1  0  0  0  0  0  0
  2  1  1  0
  3  1  2  0
  4  7  1  0
  4  2  2  0
  5  6  2  0
  5  3  1  0
  6  4  1  0
  8 17  1  0
  8  6  1  0
  9 17  1  0
 10 15  1  0
 11 12  1  0
 11 10  1  0
 13 12  1  0
 13 22  1  0
 13 14  1  0
 15  9  1  0
 15 14  1  0
 16  9  2  0
 17 18  1  0
 19 20  2  0
 20 39  1  0
 21 20  1  0
 21 24  1  0
 22 23  1  0
 22 19  1  0
 23 21  2  0
 24 25  1  0
 25 26  2  0
 27 30  1  0
 27 26  1  0
 28 27  2  0
 29 28  1  0
 29 24  2  0
 30 31  1  0
 31 32  1  0
 32 33  2  0
 34 33  1  0
 34 38  1  0
 35 34  2  0
 36 31  2  0
 36 35  1  0
 37 36  1  0
 39 40  1  0
 40 43  1  0
 40 42  1  0
 41 39  2  0
 44 45  1  0
 44 19  1  0
 46 44  1  0
 47 48  1  0
 47  5  1  0
 49 60  2  0
 50 48  1  0
 50 55  1  0
 51 59  1  0
 51 61  1  0
 52 58  1  0
 52 54  1  0
 53 59  1  0
 54 55  2  0
 54 53  1  0
 56 50  2  0
 57 56  1  0
 57 52  2  0
 58 51  1  0
 59 49  1  0
 61 63  2  0
 62 61  1  0
 64 62  1  0
 65 74  2  0
 65 70  1  0
 66 62  1  0
 66 70  1  0
 67 66  1  0
 68 69  1  0
 68 67  1  0
 69 65  1  0
 70 71  2  0
 71 72  1  0
 73 72  2  0
 74 73  1  0
 75 49  1  0
 75 76  1  0
 75 85  1  0
 76 79  1  0
 77 81  1  0
 77 76  1  0
 78 77  2  0
 81 80  1  0
 83 81  1  0
 83 84  1  0
 83 82  1  0
 85 88  1  1
 85 86  1  0
 87 85  1  0
M  ISO  4   9 100  17 100  47 101  48 101
M  END
>  <TORSDO>  (1) 
F 18

>  <SCORE>  (1) 
-16.760

>  <name>  (1) 
0

>  <ligand_id>  (1) 
0

>  <original_smiles>  (1) 
[H]c1c([H])c(C([H])([H])[H])c(C([H])([H])N([H])C(=O)N2C([H])([H])C([H])([H])C([H])([H])C([H])(n3nc(-c4c([H])c([H])c(Oc5c([H])c([H])c(F)c([H])c5F)c([H])c4[H])c(C(=O)N([H])[H])c3N([H])[H])C2([H])[H])c(C([H])([H])Oc2c([H])c([H])c3c(c2[H])C([H])([H])N(C(=O)C([H])(N([H])C(=O)C([H])(N([H])C([H])([H])[H])C([H])([H])[H])C(C([H])([H])[H])(C([H])([H])[H])C([H])([H])[H])C([H])(C(=O)N([H])C2([H])c4c([H])c([H])c([H])c([H])c4C([H])([H])C([H])([H])C2([H])[H])C3([H])[H])c1[H]

>  <smiles>  (1) 
[H]c1c([H])c(C([H])([H])[H])c(C([H])([H])N([H])C(=O)N2C([H])([H])C([H])([H])C([H])([H])C([H])(n3nc(-c4c([H])c([H])c(Oc5c([H])c([H])c(F)c([H])c5F)c([H])c4[H])c(C(=O)N([H])[H])c3N([H])[H])C2([H])[H])c(C([H])([H])Oc2c([H])c([H])c3c(c2[H])C([H])([H])N(C(=O)C([H])(N([H])C(=O)C([H])(N([H])C([H])([H])[H])C([H])([H])[H])C(C([H])([H])[H])(C([H])([H])[H])C([H])([H])[H])C([H])(C(=O)N([H])C2([H])c4c([H])c([H])c([H])c([H])c4C([H])([H])C([H])([H])C2([H])[H])C3([H])[H])c1[H]

$$$$
1:0:0
     RDKit          3D

 90 98  0  0  1  0  0  0  0  0999 V2000
  -29.6470  -22.0000   20.6810 C   0  0  0  0  0  2  0  0  0  0  0  0
  -28.8430  -23.3070   20.4230 C   0  0  0  0  0  2  0  0  0  0  0  0
  -29.4090  -24.5650   21.1330 C   0  0  0  0  0  2  0  0  0  0  0  0
  -28.4280  -25.7610   21.2880 C   0  0  0  0  0  2  0  0  0  0  0  0
  -28.3950  -26.6750   20.1820 O   0  0  0  0  0  0  0  0  0  0  0  0
  -24.6030  -31.8870   23.2550 C   0  0  0  0  0  0  0  0  0  0  0  0
  -27.2580  -27.4510   20.1750 C   0  0  0  0  0  0  0  0  0  0  0  0
  -23.4000  -30.4840   21.6100 C   0  0  0  0  0  3  0  0  0  0  0  0
  -24.8610  -28.9510   20.1840 C   0  0  0  0  0  0  0  0  0  0  0  0
  -25.9260  -30.8480   21.4150 C   0  0  0  0  0  2  0  0  0  0  0  0
  -26.0170  -29.4770   20.7750 C   0  0  0  0  0  0  0  0  0  0  0  0
  -27.2210  -28.7340   20.7710 C   0  0  0  0  0  3  0  0  0  0  0  0
  -26.0900  -26.9400   19.5750 C   0  0  0  0  0  3  0  0  0  0  0  0
  -24.8920  -27.6800   19.5810 C   0  0  0  0  0  3  0  0  0  0  0  0
  -23.6130  -29.8050   20.2300 C   0  0  0  0  0  2  0  0  0  0  0  0
  -24.6610  -31.0880   22.1520 N   0  0  0  0  0  0  0  0  0  0  0  0
  -23.5210  -32.1570   23.7950 O   0  0  0  0  0  0  0  0  0  0  0  0
  -22.7500  -29.4620   22.5700 C   0  0  0  0  0  0  0  0  0  0  0  0
  -21.4250  -29.2810   22.4440 N   0  0  0  0  0  0  0  0  0  0  0  0
  -23.4330  -28.8350   23.3830 O   0  0  0  0  0  0  0  0  0  0  0  0
  -20.9340  -29.8390   21.7590 H   0  0  0  0  0  0  0  0  0  0  0  0
  -18.0480  -28.0940   22.9460 C   0  0  0  0  0  0  0  0  0  0  0  0
  -20.6080  -28.3420   23.2120 C   0  0  0  0  0  3  0  0  0  0  0  0
  -20.7040  -26.9130   22.6290 C   0  0  0  0  0  2  0  0  0  0  0  0
  -19.5980  -26.5980   21.6170 C   0  0  0  0  0  2  0  0  0  0  0  0
  -18.2190  -26.7450   22.2650 C   0  0  0  0  0  2  0  0  0  0  0  0
  -19.1710  -28.8500   23.3770 C   0  0  0  0  0  0  0  0  0  0  0  0
  -18.9580  -30.1110   23.9730 C   0  0  0  0  0  3  0  0  0  0  0  0
  -17.6550  -30.6170   24.1430 C   0  0  0  0  0  3  0  0  0  0  0  0
  -16.5470  -29.8580   23.7300 C   0  0  0  0  0  3  0  0  0  0  0  0
  -16.7450  -28.5970   23.1380 C   0  0  0  0  0  3  0  0  0  0  0  0
  -25.8880  -32.5190   23.8760 C   0  0  0  0  0  3  0  0  0  0  0  0
  -25.5820  -33.9190   24.1980 N   0  0  0  0  0  0  0  0  0  0  0  0
  -25.9200  -34.9670   23.4350 C   0  0  0  0  0  0  0  0  0  0  0  0
  -26.5950  -34.8560   22.4080 O   0  0  0  0  0  0  0  0  0  0  0  0
  -24.9840  -34.0790   24.9950 H   0  0  0  0  0  0  0  0  0  0  0  0
  -24.1980  -36.7610   23.0600 C   0  0  0  0  0  1  0  0  0  0  0  0
  -25.4320  -36.3580   23.8820 C   0  0  0  0  0  3  0  0  0  0  0  0
  -27.5650  -37.2390   24.7230 C   0  0  0  0  0  1  0  0  0  0  0  0
  -26.4680  -37.4080   23.7730 N   0  0  0  0  0  0  0  0  0  0  0  0
  -26.0630  -38.3290   23.9180 H   0  0  0  0  0  0  0  0  0  0  0  0
  -26.4030  -31.7510   25.1540 C   0  0  1  0  0  0  0  0  0  0  0  0
  -25.3110  -31.5170   26.2230 C   0  0  0  0  0  1  0  0  0  0  0  0
  -26.9860  -30.3720   24.7650 C   0  0  0  0  0  1  0  0  0  0  0  0
  -27.5550  -32.5450   25.8150 C   0  0  0  0  0  1  0  0  0  0  0  0
  -29.0300  -20.9170   19.9790 O   0  0  0  0  0  0  0  0  0  0  0  0
  -28.8060  -17.2360   19.9120 C   0  0  0  0  0  3  0  0  0  0  0  0
  -30.6640  -17.8150   21.3650 C   0  0  0  0  0  3  0  0  0  0  0  0
  -28.5840  -18.6040   19.6560 C   0  0  0  0  0  3  0  0  0  0  0  0
  -30.4340  -19.1910   21.1090 C   0  0  0  0  0  3  0  0  0  0  0  0
  -29.8440  -16.8240   20.7750 C   0  0  0  0  0  0  0  0  0  0  0  0
  -29.3730  -19.6040   20.2610 C   0  0  0  0  0  0  0  0  0  0  0  0
  -30.6440  -14.5020   20.4870 C   0  0  0  0  0  0  0  0  0  0  0  0
  -30.3760  -12.3470   19.3070 C   0  0  0  0  0  2  0  0  0  0  0  0
  -29.4250  -12.5620   18.1100 C   0  0  0  0  0  2  0  0  0  0  0  0
  -27.9510  -12.4190   18.5390 C   0  0  0  0  0  2  0  0  0  0  0  0
  -27.6180  -13.2380   19.8150 C   0  0  0  0  0  3  0  0  0  0  0  0
  -28.6750  -12.9850   20.9140 C   0  0  0  0  0  2  0  0  0  0  0  0
  -30.0010  -13.3070   20.3570 N   0  0  0  0  0  0  0  0  0  0  0  0
  -31.7510  -14.7300   19.9870 O   0  0  0  0  0  0  0  0  0  0  0  0
  -29.9400  -15.4470   21.1360 N   0  0  0  0  0  0  0  0  0  0  0  0
  -29.0990  -15.0650   21.5410 H   0  0  0  0  0  0  0  0  0  0  0  0
  -25.2150  -13.8540   20.5080 C   0  0  0  0  0  0  0  0  0  0  0  0
  -24.1460  -13.0850   20.8810 C   0  0  0  0  0  0  0  0  0  0  0  0
  -24.6070  -11.7330   20.8590 C   0  0  0  0  0  0  0  0  0  0  0  0
  -26.2620  -12.9700   20.2890 N   0  0  0  0  0  0  0  0  0  0  0  0
  -25.8970  -11.6900   20.5550 N   0  0  0  0  0  0  0  0  0  0  0  0
  -23.8800  -10.4720   21.0550 C   0  0  0  0  0  0  0  0  0  0  0  0
  -24.3150   -9.5080   21.9910 C   0  0  0  0  0  3  0  0  0  0  0  0
  -23.5900   -8.3120   22.1750 C   0  0  0  0  0  3  0  0  0  0  0  0
  -22.4170   -8.0700   21.4220 C   0  0  0  0  0  0  0  0  0  0  0  0
  -22.0000   -9.0230   20.4760 C   0  0  0  0  0  3  0  0  0  0  0  0
  -22.7250  -10.2120   20.2900 C   0  0  0  0  0  3  0  0  0  0  0  0
  -21.6630   -6.9250   21.5150 O   0  0  0  0  0  0  0  0  0  0  0  0
  -21.6230   -6.1820   22.6680 C   0  0  0  0  0  0  0  0  0  0  0  0
  -21.2060   -6.7360   23.8980 C   0  0  0  0  0  3  0  0  0  0  0  0
  -21.1130   -5.9190   25.0420 C   0  0  0  0  0  3  0  0  0  0  0  0
  -21.4270   -4.5480   24.9580 C   0  0  0  0  0  0  0  0  0  0  0  0
  -21.8360   -3.9950   23.7320 C   0  0  0  0  0  3  0  0  0  0  0  0
  -21.9310   -4.8090   22.5890 C   0  0  0  0  0  0  0  0  0  0  0  0
  -22.3070   -4.2660   21.4070 F   0  0  0  0  0  0  0  0  0  0  0  0
  -21.3300   -3.7620   26.0540 F   0  0  0  0  0  0  0  0  0  0  0  0
  -22.7480  -13.5650   21.1490 C   0  0  0  0  0  0  0  0  0  0  0  0
  -22.0180  -12.8730   22.0170 N   0  0  0  0  0  0  0  0  0  0  0  0
  -22.3110  -14.5880   20.6230 O   0  0  0  0  0  0  0  0  0  0  0  0
  -22.3840  -12.0450   22.4640 H   0  0  0  0  0  0  0  0  0  0  0  0
  -21.0810  -13.1780   22.2390 H   0  0  0  0  0  0  0  0  0  0  0  0
  -25.3780  -15.2240   20.3220 N   0  0  0  0  0  0  0  0  0  0  0  0
  -24.6070  -15.8740   20.4240 H   0  0  0  0  0  0  0  0  0  0  0  0
  -26.2270  -15.6660   19.9960 H   0  0  0  0  0  0  0  0  0  0  0  0
  2  1  1  0
  2  3  1  0
  3  4  1  0
  5  4  1  0
  6 17  2  0
  7  5  1  0
  7 12  1  0
  8 16  1  0
  8 18  1  0
  9 15  1  0
  9 11  1  0
 10 16  1  0
 11 10  1  0
 12 11  2  0
 13 14  1  0
 13  7  2  0
 14  9  2  0
 15  8  1  0
 16  6  1  0
 18 20  2  0
 19 18  1  0
 21 19  1  0
 22 31  2  0
 22 27  1  0
 23 19  1  0
 23 27  1  0
 24 23  1  0
 25 26  1  0
 25 24  1  0
 26 22  1  0
 27 28  2  0
 28 29  1  0
 30 29  2  0
 31 30  1  0
 32  6  1  0
 32 33  1  0
 32 42  1  0
 33 36  1  0
 34 38  1  0
 34 33  1  0
 35 34  2  0
 38 37  1  0
 40 38  1  0
 40 41  1  0
 40 39  1  0
 42 45  1  1
 42 43  1  0
 44 42  1  0
 46 52  1  0
 46  1  1  0
 47 51  1  0
 49 47  2  0
 49 52  1  0
 50 48  1  0
 51 61  1  0
 51 48  2  0
 52 50  2  0
 53 61  1  0
 54 59  1  0
 55 56  1  0
 55 54  1  0
 57 56  1  0
 57 66  1  0
 57 58  1  0
 59 53  1  0
 59 58  1  0
 60 53  2  0
 61 62  1  0
 63 64  2  0
 64 83  1  0
 65 64  1  0
 65 68  1  0
 66 63  1  0
 66 67  1  0
 67 65  2  0
 68 69  1  0
 69 70  2  0
 71 74  1  0
 71 70  1  0
 72 71  2  0
 73 72  1  0
 73 68  2  0
 74 75  1  0
 75 76  1  0
 76 77  2  0
 78 77  1  0
 78 82  1  0
 79 78  2  0
 80 75  2  0
 80 79  1  0
 81 80  1  0
 83 84  1  0
 84 87  1  0
 84 86  1  0
 85 83  2  0
 88 89  1  0
 88 63  1  0
 90 88  1  0
M  ISO  4   4 101   5 101  53 100  61 100
M  END
>  <TORSDO>  (2) 
F 21

>  <SCORE>  (2) 
-13.693

>  <name>  (2) 
1

>  <ligand_id>  (2) 
1

>  <original_smiles>  (2) 
[H]c1c([H])c([H])c2c(c1[H])C([H])([H])C([H])([H])C([H])([H])C2([H])N([H])C(=O)C1([H])N(C(=O)C([H])(N([H])C(=O)C([H])(N([H])C([H])([H])[H])C([H])([H])[H])C(C([H])([H])[H])(C([H])([H])[H])C([H])([H])[H])C([H])([H])c2c([H])c(OC([H])([H])C([H])([H])C([H])([H])C([H])([H])Oc3c([H])c([H])c(N([H])C(=O)N4C([H])([H])C([H])([H])C([H])([H])C([H])(n5nc(-c6c([H])c([H])c(Oc7c([H])c([H])c(F)c([H])c7F)c([H])c6[H])c(C(=O)N([H])[H])c5N([H])[H])C4([H])[H])c([H])c3[H])c([H])c([H])c2C1([H])[H]

>  <smiles>  (2) 
[H]c1c([H])c([H])c2c(c1[H])C([H])([H])C([H])([H])C([H])([H])C2([H])N([H])C(=O)C1([H])N(C(=O)C([H])(N([H])C(=O)C([H])(N([H])C([H])([H])[H])C([H])([H])[H])C(C([H])([H])[H])(C([H])([H])[H])C([H])([H])[H])C([H])([H])c2c([H])c(OC([H])([H])C([H])([H])C([H])([H])C([H])([H])Oc3c([H])c([H])c(N([H])C(=O)N4C([H])([H])C([H])([H])C([H])([H])C([H])(n5nc(-c6c([H])c([H])c(Oc7c([H])c([H])c(F)c([H])c7F)c([H])c6[H])c(C(=O)N([H])[H])c5N([H])[H])C4([H])[H])c([H])c3[H])c([H])c([H])c2C1([H])[H]

$$$$
2:0:0
     RDKit          3D

105113  0  0  1  0  0  0  0  0999 V2000
  -27.1740  -26.1360   23.0850 C   0  0  0  0  0  0  0  0  0  0  0  0
  -27.6150  -26.7060   25.3630 C   0  0  0  0  0  0  0  0  0  0  0  0
  -27.9130  -26.0190   24.2250 N   0  0  0  0  0  0  0  0  0  0  0  0
  -26.3850  -27.0600   22.8770 O   0  0  0  0  0  0  0  0  0  0  0  0
  -28.5000  -27.3340   25.9540 O   0  0  0  0  0  0  0  0  0  0  0  0
  -25.4740  -25.2770   25.5970 C   0  0  0  0  0  1  0  0  0  0  0  0
  -25.3570  -27.7910   25.8990 C   0  0  0  0  0  1  0  0  0  0  0  0
  -26.4800  -26.3580   27.5990 C   0  0  0  0  0  1  0  0  0  0  0  0
  -26.2340  -26.5370   26.0770 C   0  0  2  0  0  0  0  0  0  0  0  0
  -27.2590  -25.0530   21.9940 C   0  0  0  0  0  2  0  0  0  0  0  0
  -28.4560  -25.2070   21.0230 C   0  0  0  0  0  2  0  0  0  0  0  0
  -28.4970  -26.5100   20.1970 C   0  0  0  0  0  2  0  0  0  0  0  0
  -27.4890  -26.4990   19.1790 O   0  0  0  0  0  0  0  0  0  0  0  0
  -24.7180  -31.7960   23.0000 C   0  0  0  0  0  0  0  0  0  0  0  0
  -26.4410  -27.3690   19.3680 C   0  0  0  0  0  0  0  0  0  0  0  0
  -23.1430  -30.6080   21.5010 C   0  0  0  0  0  3  0  0  0  0  0  0
  -24.2110  -29.0460   19.7890 C   0  0  0  0  0  0  0  0  0  0  0  0
  -25.6170  -30.7830   20.9100 C   0  0  0  0  0  2  0  0  0  0  0  0
  -25.4830  -29.4480   20.2160 C   0  0  0  0  0  0  0  0  0  0  0  0
  -26.6000  -28.6200   20.0040 C   0  0  0  0  0  3  0  0  0  0  0  0
  -25.1640  -26.9900   18.9080 C   0  0  0  0  0  3  0  0  0  0  0  0
  -24.0440  -27.8150   19.1320 C   0  0  0  0  0  3  0  0  0  0  0  0
  -23.0670  -29.9920   20.0760 C   0  0  0  0  0  2  0  0  0  0  0  0
  -24.5210  -31.0730   21.8610 N   0  0  0  0  0  0  0  0  0  0  0  0
  -23.7670  -32.1220   23.7240 O   0  0  0  0  0  0  0  0  0  0  0  0
  -22.5550  -29.5940   22.5050 C   0  0  0  0  0  0  0  0  0  0  0  0
  -21.2280  -29.4010   22.4540 N   0  0  0  0  0  0  0  0  0  0  0  0
  -23.2880  -28.9850   23.2840 O   0  0  0  0  0  0  0  0  0  0  0  0
  -20.6990  -29.9520   21.7940 H   0  0  0  0  0  0  0  0  0  0  0  0
  -17.9230  -28.0620   23.0260 C   0  0  0  0  0  0  0  0  0  0  0  0
  -20.4660  -28.4580   23.2720 C   0  0  0  0  0  3  0  0  0  0  0  0
  -20.6420  -27.0130   22.7540 C   0  0  0  0  0  2  0  0  0  0  0  0
  -19.5460  -26.5840   21.7750 C   0  0  0  0  0  2  0  0  0  0  0  0
  -18.1660  -26.6880   22.4280 C   0  0  0  0  0  2  0  0  0  0  0  0
  -19.0040  -28.8990   23.4110 C   0  0  0  0  0  0  0  0  0  0  0  0
  -18.7270  -30.1810   23.9320 C   0  0  0  0  0  3  0  0  0  0  0  0
  -17.4000  -30.6280   24.0750 C   0  0  0  0  0  3  0  0  0  0  0  0
  -16.3330  -29.7890   23.7070 C   0  0  0  0  0  3  0  0  0  0  0  0
  -16.5960  -28.5090   23.1880 C   0  0  0  0  0  3  0  0  0  0  0  0
  -26.1420  -32.2690   23.4340 C   0  0  0  0  0  3  0  0  0  0  0  0
  -26.0150  -33.6260   23.9790 N   0  0  0  0  0  0  0  0  0  0  0  0
  -26.3310  -34.7440   23.3130 C   0  0  0  0  0  0  0  0  0  0  0  0
  -26.8440  -34.7340   22.1900 O   0  0  0  0  0  0  0  0  0  0  0  0
  -25.5580  -33.7120   24.8750 H   0  0  0  0  0  0  0  0  0  0  0  0
  -24.7270  -36.6760   23.4400 C   0  0  0  0  0  1  0  0  0  0  0  0
  -26.0320  -36.0880   24.0020 C   0  0  0  0  0  3  0  0  0  0  0  0
  -28.3280  -36.7060   24.6050 C   0  0  0  0  0  1  0  0  0  0  0  0
  -27.1240  -37.0750   23.8650 N   0  0  0  0  0  0  0  0  0  0  0  0
  -26.8230  -37.9890   24.1930 H   0  0  0  0  0  0  0  0  0  0  0  0
  -26.8150  -31.3100   24.4890 C   0  0  1  0  0  0  0  0  0  0  0  0
  -25.9140  -30.9870   25.7050 C   0  0  0  0  0  1  0  0  0  0  0  0
  -27.2110  -29.9720   23.8210 C   0  0  0  0  0  1  0  0  0  0  0  0
  -28.1200  -31.9510   25.0200 C   0  0  0  0  0  1  0  0  0  0  0  0
  -29.2050  -25.2890   24.2170 C   0  0  0  0  0  2  0  0  0  0  0  0
  -29.0100  -23.7520   24.2250 C   0  0  0  0  0  2  0  0  0  0  0  0
  -30.2370  -23.0430   23.8030 N   0  0  0  0  0  4  0  0  0  0  0  0
  -30.4650  -23.3160   22.8600 H   0  0  0  0  0  0  0  0  0  0  0  0
  -31.0090  -23.3040   24.3930 H   0  0  0  0  0  0  0  0  0  0  0  0
  -30.1390  -21.5700   23.7990 C   0  0  0  0  0  2  0  0  0  0  0  0
  -33.0280  -19.9760   21.8250 C   0  0  0  0  0  3  0  0  0  0  0  0
  -32.5120  -20.0130   20.5130 C   0  0  0  0  0  3  0  0  0  0  0  0
  -32.2690  -20.4750   22.9040 C   0  0  0  0  0  3  0  0  0  0  0  0
  -30.4730  -21.0310   21.3550 C   0  0  0  0  0  3  0  0  0  0  0  0
  -31.2240  -20.5400   20.2720 C   0  0  0  0  0  0  0  0  0  0  0  0
  -30.9830  -21.0080   22.6680 C   0  0  0  0  0  0  0  0  0  0  0  0
  -30.5980  -20.6340   18.8850 C   0  0  0  0  0  2  0  0  0  0  0  0
  -31.4620  -20.2200   17.6840 C   0  0  0  0  0  2  0  0  0  0  0  0
  -33.1240  -18.5180   17.0570 C   0  0  0  0  0  0  0  0  0  0  0  0
  -34.0800  -16.4920   16.0390 C   0  0  0  0  0  2  0  0  0  0  0  0
  -32.9660  -15.7190   15.3050 C   0  0  0  0  0  2  0  0  0  0  0  0
  -32.2370  -14.7630   16.2750 C   0  0  0  0  0  2  0  0  0  0  0  0
  -31.8250  -15.4420   17.6120 C   0  0  0  0  0  3  0  0  0  0  0  0
  -32.9970  -16.2650   18.1980 C   0  0  0  0  0  2  0  0  0  0  0  0
  -33.4620  -17.2060   17.1660 N   0  0  0  0  0  0  0  0  0  0  0  0
  -33.5540  -19.2550   16.1690 O   0  0  0  0  0  0  0  0  0  0  0  0
  -32.1540  -18.9420   17.8770 N   0  0  0  0  0  0  0  0  0  0  0  0
  -31.7770  -18.2830   18.5410 H   0  0  0  0  0  0  0  0  0  0  0  0
  -30.0980  -14.4150   19.2260 C   0  0  0  0  0  0  0  0  0  0  0  0
  -30.1030  -13.2580   19.9600 C   0  0  0  0  0  0  0  0  0  0  0  0
  -31.3660  -12.6390   19.7110 C   0  0  0  0  0  0  0  0  0  0  0  0
  -31.3210  -14.4610   18.5770 N   0  0  0  0  0  0  0  0  0  0  0  0
  -32.1050  -13.4060   18.9190 N   0  0  0  0  0  0  0  0  0  0  0  0
  -31.8900  -11.3340   20.1330 C   0  0  0  0  0  0  0  0  0  0  0  0
  -33.2190  -11.1830   20.5880 C   0  0  0  0  0  3  0  0  0  0  0  0
  -33.6930   -9.9200   21.0060 C   0  0  0  0  0  3  0  0  0  0  0  0
  -32.8380   -8.7940   20.9760 C   0  0  0  0  0  0  0  0  0  0  0  0
  -31.5240   -8.9450   20.4990 C   0  0  0  0  0  3  0  0  0  0  0  0
  -31.0560  -10.2010   20.0780 C   0  0  0  0  0  3  0  0  0  0  0  0
  -33.2200   -7.5250   21.3390 O   0  0  0  0  0  0  0  0  0  0  0  0
  -34.3240   -7.3010   22.1200 C   0  0  0  0  0  0  0  0  0  0  0  0
  -34.5810   -8.0610   23.2820 C   0  0  0  0  0  3  0  0  0  0  0  0
  -35.6910   -7.7560   24.0930 C   0  0  0  0  0  3  0  0  0  0  0  0
  -36.5380   -6.6820   23.7550 C   0  0  0  0  0  0  0  0  0  0  0  0
  -36.2770   -5.9180   22.6040 C   0  0  0  0  0  3  0  0  0  0  0  0
  -35.1740   -6.2260   21.7920 C   0  0  0  0  0  0  0  0  0  0  0  0
  -34.9170   -5.4740   20.6930 F   0  0  0  0  0  0  0  0  0  0  0  0
  -37.5990   -6.3800   24.5390 F   0  0  0  0  0  0  0  0  0  0  0  0
  -28.9660  -12.7060   20.7690 C   0  0  0  0  0  0  0  0  0  0  0  0
  -29.2700  -11.9530   21.8220 N   0  0  0  0  0  0  0  0  0  0  0  0
  -27.7970  -12.9810   20.5000 O   0  0  0  0  0  0  0  0  0  0  0  0
  -30.2270  -11.7410   22.0590 H   0  0  0  0  0  0  0  0  0  0  0  0
  -28.5300  -11.5800   22.4000 H   0  0  0  0  0  0  0  0  0  0  0  0
  -29.1510  -15.4180   19.0440 N   0  0  0  0  0  0  0  0  0  0  0  0
  -28.2430  -15.4010   19.4980 H   0  0  0  0  0  0  0  0  0  0  0  0
  -29.2700  -16.2170   18.4320 H   0  0  0  0  0  0  0  0  0  0  0  0
  1  3  1  0
  2  5  2  0
  2  9  1  0
  3  2  1  0
  4  1  2  0
  9  6  1  6
  7  9  1  0
  9  8  1  0
 10  1  1  0
 11 10  1  0
 12 11  1  0
 13 15  1  0
 13 12  1  0
 14 25  2  0
 15 20  1  0
 16 24  1  0
 16 26  1  0
 17 23  1  0
 17 19  1  0
 18 24  1  0
 19 18  1  0
 20 19  2  0
 21 22  1  0
 21 15  2  0
 22 17  2  0
 23 16  1  0
 24 14  1  0
 26 28  2  0
 27 26  1  0
 29 27  1  0
 30 39  2  0
 30 35  1  0
 31 27  1  0
 31 35  1  0
 32 31  1  0
 33 34  1  0
 33 32  1  0
 34 30  1  0
 35 36  2  0
 36 37  1  0
 38 37  2  0
 39 38  1  0
 40 14  1  0
 40 41  1  0
 40 50  1  0
 41 44  1  0
 42 41  1  0
 42 46  1  0
 43 42  2  0
 46 45  1  0
 48 46  1  0
 48 49  1  0
 48 47  1  0
 50 53  1  1
 50 51  1  0
 52 50  1  0
 54 55  1  0
 54  3  1  0
 56 55  1  0
 56 58  1  0
 57 56  1  0
 59 56  1  0
 60 62  1  0
 61 60  2  0
 63 65  1  0
 64 61  1  0
 64 63  2  0
 65 62  2  0
 65 59  1  0
 66 64  1  0
 67 76  1  0
 67 66  1  0
 68 74  1  0
 68 76  1  0
 69 74  1  0
 70 69  1  0
 70 71  1  0
 72 71  1  0
 72 73  1  0
 72 81  1  0
 74 73  1  0
 75 68  2  0
 76 77  1  0
 78 79  2  0
 79 98  1  0
 80 79  1  0
 80 83  1  0
 81 82  1  0
 81 78  1  0
 82 80  2  0
 83 84  1  0
 84 85  2  0
 86 85  1  0
 86 89  1  0
 87 86  2  0
 88 83  2  0
 88 87  1  0
 89 90  1  0
 90 91  1  0
 91 92  2  0
 93 92  1  0
 93 97  1  0
 94 93  2  0
 95 90  2  0
 95 94  1  0
 96 95  1  0
 98 99  1  0
 99101  1  0
 99102  1  0
100 98  2  0
103 78  1  0
103104  1  0
105103  1  0
M  ISO  4  12 101  13 101  68 100  76 100
M  END
>  <TORSDO>  (3) 
F 27

>  <SCORE>  (3) 
-6.746

>  <name>  (3) 
2

>  <ligand_id>  (3) 
2

>  <original_smiles>  (3) 
[H]c1c([H])c([H])c2c(c1[H])C([H])([H])C([H])([H])C([H])([H])C2([H])N([H])C(=O)C1([H])N(C(=O)C([H])(N([H])C(=O)C([H])(N([H])C([H])([H])[H])C([H])([H])[H])C(C([H])([H])[H])(C([H])([H])[H])C([H])([H])[H])C([H])([H])c2c([H])c(OC([H])([H])C([H])([H])C([H])([H])C(=O)N(C(=O)C(C([H])([H])[H])(C([H])([H])[H])C([H])([H])[H])C([H])([H])C([H])([H])[N+]([H])([H])C([H])([H])c3c([H])c([H])c([H])c(C([H])([H])C([H])([H])N([H])C(=O)N4C([H])([H])C([H])([H])C([H])([H])C([H])(n5nc(-c6c([H])c([H])c(Oc7c([H])c([H])c(F)c([H])c7F)c([H])c6[H])c(C(=O)N([H])[H])c5N([H])[H])C4([H])[H])c3[H])c([H])c([H])c2C1([H])[H]

>  <smiles>  (3) 
[H]c1c([H])c([H])c2c(c1[H])C([H])([H])C([H])([H])C([H])([H])C2([H])N([H])C(=O)C1([H])N(C(=O)C([H])(N([H])C(=O)C([H])(N([H])C([H])([H])[H])C([H])([H])[H])C(C([H])([H])[H])(C([H])([H])[H])C([H])([H])[H])C([H])([H])c2c([H])c(OC([H])([H])C([H])([H])C([H])([H])C(=O)N(C(=O)C(C([H])([H])[H])(C([H])([H])[H])C([H])([H])[H])C([H])([H])C([H])([H])[N+]([H])([H])C([H])([H])c3c([H])c([H])c([H])c(C([H])([H])C([H])([H])N([H])C(=O)N4C([H])([H])C([H])([H])C([H])([H])C([H])(n5nc(-c6c([H])c([H])c(Oc7c([H])c([H])c(F)c([H])c7F)c([H])c6[H])c(C(=O)N([H])[H])c5N([H])[H])C4([H])[H])c3[H])c([H])c([H])c2C1([H])[H]

$$$$
3:0:0
     RDKit          3D

 81 85  0  0  1  0  0  0  0  0999 V2000
  -28.1090  -24.6470   20.3000 O   0  0  0  0  0  1  0  0  0  0  0  0
  -24.7100  -31.7810   23.1610 C   0  0  0  0  0  0  0  0  0  0  0  0
  -27.2070  -26.1440   20.2640 C   0  0  0  0  0  0  0  0  0  0  0  0
  -23.5560  -30.3680   21.5220 C   0  0  0  0  0  3  0  0  0  0  0  0
  -25.0090  -28.5810   20.1690 C   0  0  0  0  0  0  0  0  0  0  0  0
  -26.1560  -30.3130   21.5020 C   0  0  0  0  0  2  0  0  0  0  0  0
  -26.2110  -28.8120   20.8490 C   0  0  0  0  0  0  0  0  0  0  0  0
  -27.2590  -27.6460   20.8460 C   0  0  0  0  0  3  0  0  0  0  0  0
  -25.9680  -26.2870   19.5230 C   0  0  0  0  0  3  0  0  0  0  0  0
  -24.9660  -27.3480   19.4800 C   0  0  0  0  0  3  0  0  0  0  0  0
  -23.8360  -29.6140   20.1780 C   0  0  0  0  0  2  0  0  0  0  0  0
  -24.8390  -30.8700   22.1140 N   0  0  0  0  0  0  0  0  0  0  0  0
  -23.6010  -32.1150   23.6230 O   0  0  0  0  0  0  0  0  0  0  0  0
  -22.7620  -29.4580   22.5040 C   0  0  0  0  0  0  0  0  0  0  0  0
  -21.4220  -29.3560   22.3730 N   0  0  0  0  0  0  0  0  0  0  0  0
  -23.3780  -28.8290   23.3670 O   0  0  0  0  0  0  0  0  0  0  0  0
  -20.9670  -29.9120   21.6630 H   0  0  0  0  0  0  0  0  0  0  0  0
  -17.9970  -28.2130   22.9010 C   0  0  0  0  0  0  0  0  0  0  0  0
  -20.5670  -28.4380   23.1430 C   0  0  0  0  0  3  0  0  0  0  0  0
  -20.6330  -27.0060   22.5600 C   0  0  0  0  0  2  0  0  0  0  0  0
  -19.5210  -26.7160   21.5460 C   0  0  0  0  0  2  0  0  0  0  0  0
  -18.1460  -26.8740   22.1990 C   0  0  0  0  0  2  0  0  0  0  0  0
  -19.1320  -28.9550   23.3290 C   0  0  0  0  0  0  0  0  0  0  0  0
  -18.9320  -30.2040   23.9560 C   0  0  0  0  0  3  0  0  0  0  0  0
  -17.6350  -30.7130   24.1530 C   0  0  0  0  0  3  0  0  0  0  0  0
  -16.5160  -29.9710   23.7350 C   0  0  0  0  0  3  0  0  0  0  0  0
  -16.6980  -28.7220   23.1160 C   0  0  0  0  0  3  0  0  0  0  0  0
  -25.9400  -32.4590   23.8420 C   0  0  0  0  0  3  0  0  0  0  0  0
  -25.5980  -33.8650   24.1720 N   0  0  0  0  0  0  0  0  0  0  0  0
  -25.9200  -34.9450   23.4450 C   0  0  0  0  0  0  0  0  0  0  0  0
  -26.5760  -34.8640   22.4040 O   0  0  0  0  0  0  0  0  0  0  0  0
  -25.0070  -33.9990   24.9800 H   0  0  0  0  0  0  0  0  0  0  0  0
  -24.1680  -36.7480   23.1980 C   0  0  0  0  0  1  0  0  0  0  0  0
  -25.4480  -36.3330   23.9420 C   0  0  0  0  0  3  0  0  0  0  0  0
  -27.6060  -37.2470   24.6880 C   0  0  0  0  0  1  0  0  0  0  0  0
  -26.4650  -37.3980   23.7880 N   0  0  0  0  0  0  0  0  0  0  0  0
  -26.0550  -38.3150   23.9480 H   0  0  0  0  0  0  0  0  0  0  0  0
  -26.3960  -31.7200   25.1620 C   0  0  1  0  0  0  0  0  0  0  0  0
  -25.2580  -31.5140   26.1910 C   0  0  0  0  0  1  0  0  0  0  0  0
  -26.9880  -30.3300   24.8490 C   0  0  0  0  0  1  0  0  0  0  0  0
  -27.5230  -32.5250   25.8520 C   0  0  0  0  0  1  0  0  0  0  0  0
  -28.1400  -22.5480   20.1630 C   0  0  0  0  0 15  0  0  0  0  0  0
  -29.1420  -20.4180   20.2160 C   0  0  0  0  0 15  0  0  0  0  0  0
  -29.9010  -16.6470   20.0860 C   0  0  0  0  0  0  0  0  0  0  0  0
  -30.2300  -13.8900   19.2940 C   0  0  0  0  0  2  0  0  0  0  0  0
  -29.4480  -13.0530   18.1990 C   0  0  0  0  0  2  0  0  0  0  0  0
  -28.1340  -12.4820   18.7300 C   0  0  0  0  0  2  0  0  0  0  0  0
  -27.5010  -13.5140   19.6750 C   0  0  0  0  0  3  0  0  0  0  0  0
  -28.4750  -14.2100   20.6950 C   0  0  0  0  0  2  0  0  0  0  0  0
  -29.4550  -15.1290   19.9600 N   0  0  0  0  0  0  0  0  0  0  0  0
  -31.1430  -16.3980   20.0040 O   0  0  0  0  0  0  0  0  0  0  0  0
  -29.2570  -18.3100   20.1340 N   0  0  0  0  0  2  0  0  0  0  0  0
  -30.2580  -18.4710   20.1320 H   0  0  0  0  0  0  0  0  0  0  0  0
  -25.1600  -13.9200   20.5080 C   0  0  0  0  0  0  0  0  0  0  0  0
  -24.1280  -13.1120   20.8810 C   0  0  0  0  0  0  0  0  0  0  0  0
  -24.6260  -11.7720   20.8220 C   0  0  0  0  0  0  0  0  0  0  0  0
  -26.2240  -13.0860   20.2420 N   0  0  0  0  0  0  0  0  0  0  0  0
  -25.9190  -11.7780   20.4820 N   0  0  0  0  0  0  0  0  0  0  0  0
  -23.9140  -10.4950   21.0120 C   0  0  0  0  0  0  0  0  0  0  0  0
  -24.3570   -9.5290   21.9420 C   0  0  0  0  0  3  0  0  0  0  0  0
  -23.6350   -8.3280   22.1300 C   0  0  0  0  0  3  0  0  0  0  0  0
  -22.4560   -8.0830   21.3870 C   0  0  0  0  0  0  0  0  0  0  0  0
  -22.0290   -9.0390   20.4470 C   0  0  0  0  0  3  0  0  0  0  0  0
  -22.7510  -10.2310   20.2590 C   0  0  0  0  0  3  0  0  0  0  0  0
  -21.7070   -6.9350   21.4820 O   0  0  0  0  0  0  0  0  0  0  0  0
  -21.6700   -6.1910   22.6350 C   0  0  0  0  0  0  0  0  0  0  0  0
  -21.2140   -6.7320   23.8560 C   0  0  0  0  0  3  0  0  0  0  0  0
  -21.1260   -5.9140   25.0000 C   0  0  0  0  0  3  0  0  0  0  0  0
  -21.4850   -4.5540   24.9250 C   0  0  0  0  0  0  0  0  0  0  0  0
  -21.9340   -4.0110   23.7070 C   0  0  0  0  0  3  0  0  0  0  0  0
  -22.0220   -4.8270   22.5660 C   0  0  0  0  0  0  0  0  0  0  0  0
  -22.4340   -4.2930   21.3900 F   0  0  0  0  0  0  0  0  0  0  0  0
  -21.3950   -3.7660   26.0220 F   0  0  0  0  0  0  0  0  0  0  0  0
  -22.7270  -13.5620   21.1730 C   0  0  0  0  0  0  0  0  0  0  0  0
  -22.0260  -12.8570   22.0520 N   0  0  0  0  0  0  0  0  0  0  0  0
  -22.2670  -14.5820   20.6590 O   0  0  0  0  0  0  0  0  0  0  0  0
  -22.4140  -12.0340   22.4890 H   0  0  0  0  0  0  0  0  0  0  0  0
  -21.0880  -13.1430   22.2910 H   0  0  0  0  0  0  0  0  0  0  0  0
  -25.2790  -15.2960   20.3350 N   0  0  0  0  0  0  0  0  0  0  0  0
  -24.4980  -15.9290   20.4650 H   0  0  0  0  0  0  0  0  0  0  0  0
  -26.1180  -15.7610   20.0090 H   0  0  0  0  0  0  0  0  0  0  0  0
  2 13  2  0
  3  1  1  0
  3  8  1  0
  4 12  1  0
  4 14  1  0
  5 11  1  0
  5  7  1  0
  6 12  1  0
  7  6  1  0
  8  7  2  0
  9  3  2  0
 10  9  1  0
 10  5  2  0
 11  4  1  0
 12  2  1  0
 14 16  2  0
 15 14  1  0
 17 15  1  0
 18 27  2  0
 18 23  1  0
 19 15  1  0
 19 23  1  0
 20 19  1  0
 21 22  1  0
 21 20  1  0
 22 18  1  0
 23 24  2  0
 24 25  1  0
 26 25  2  0
 27 26  1  0
 28  2  1  0
 28 29  1  0
 28 38  1  0
 29 32  1  0
 30 34  1  0
 30 29  1  0
 31 30  2  0
 34 33  1  0
 36 34  1  0
 36 37  1  0
 36 35  1  0
 38 41  1  1
 38 39  1  0
 40 38  1  0
 44 52  1  0
 45 50  1  0
 46 47  1  0
 46 45  1  0
 48 47  1  0
 48 57  1  0
 48 49  1  0
 50 44  1  0
 50 49  1  0
 51 44  2  0
 53 52  1  0
 54 55  2  0
 55 74  1  0
 56 55  1  0
 56 59  1  0
 57 58  1  0
 57 54  1  0
 58 56  2  0
 59 60  1  0
 60 61  2  0
 62 65  1  0
 62 61  1  0
 63 62  2  0
 64 63  1  0
 64 59  2  0
 65 66  1  0
 66 67  1  0
 67 68  2  0
 69 68  1  0
 69 73  1  0
 70 69  2  0
 71 66  2  0
 71 70  1  0
 72 71  1  0
 74 75  1  0
 75 78  1  0
 75 77  1  0
 76 74  2  0
 79 80  1  0
 79 54  1  0
 81 79  1  0
M  ISO  4   1 101  42 101  44 100  52 100
M  END
>  <TORSDO>  (4) 
F 17

>  <SCORE>  (4) 
-16.141

>  <name>  (4) 
3

>  <ligand_id>  (4) 
3

>  <original_smiles>  (4) 
[H]c1c([H])c([H])c2c(c1[H])C([H])([H])C([H])([H])C([H])([H])C2([H])N([H])C(=O)C1([H])N(C(=O)C([H])(N([H])C(=O)C([H])(N([H])C([H])([H])[H])C([H])([H])[H])C(C([H])([H])[H])(C([H])([H])[H])C([H])([H])[H])C([H])([H])c2c([H])c(OC([H])([H])C([H])([H])N([H])C(=O)N3C([H])([H])C([H])([H])C([H])([H])C([H])(n4nc(-c5c([H])c([H])c(Oc6c([H])c([H])c(F)c([H])c6F)c([H])c5[H])c(C(=O)N([H])[H])c4N([H])[H])C3([H])[H])c([H])c([H])c2C1([H])[H]

>  <smiles>  (4) 
[H]c1c([H])c([H])c2c(c1[H])C([H])([H])C([H])([H])C([H])([H])C2([H])N([H])C(=O)C1([H])N(C(=O)C([H])(N([H])C(=O)C([H])(N([H])C([H])([H])[H])C([H])([H])[H])C(C([H])([H])[H])(C([H])([H])[H])C([H])([H])[H])C([H])([H])c2c([H])c(OC([H])([H])C([H])([H])N([H])C(=O)N3C([H])([H])C([H])([H])C([H])([H])C([H])(n4nc(-c5c([H])c([H])c(Oc6c([H])c([H])c(F)c([H])c6F)c([H])c5[H])c(C(=O)N([H])[H])c4N([H])[H])C3([H])[H])c([H])c([H])c2C1([H])[H]

$$$$
4:0:0
     RDKit          3D

 89 97  0  0  1  0  0  0  0  0999 V2000
  -29.8550  -21.2730   19.7610 C   0  0  0  0  0  3  0  0  0  0  0  0
  -30.1980  -19.7670   19.8320 C   0  0  0  0  0  3  0  0  0  0  0  0
  -27.7060  -20.7620   19.8200 C   0  0  0  0  0  3  0  0  0  0  0  0
  -28.0220  -19.2780   19.9050 C   0  0  0  0  0  0  0  0  0  0  0  0
  -28.5360  -21.9900   19.7310 C   0  0  0  0  0  0  0  0  0  0  0  0
  -29.3210  -18.5500   19.9020 C   0  0  0  0  0  0  0  0  0  0  0  0
  -30.3380  -15.5460   19.7250 C   0  0  0  0  0  0  0  0  0  0  0  0
  -30.4180  -13.0080   18.9070 C   0  0  0  0  0  2  0  0  0  0  0  0
  -29.4310  -12.6160   17.7680 C   0  0  0  0  0  2  0  0  0  0  0  0
  -28.0490  -12.2530   18.3330 C   0  0  0  0  0  2  0  0  0  0  0  0
  -27.6200  -13.2420   19.4400 C   0  0  0  0  0  3  0  0  0  0  0  0
  -28.7350  -13.5450   20.4690 C   0  0  0  0  0  2  0  0  0  0  0  0
  -29.8530  -14.1700   19.7270 N   0  0  0  0  0  0  0  0  0  0  0  0
  -31.5410  -15.5440   19.4040 O   0  0  0  0  0  0  0  0  0  0  0  0
  -29.5020  -16.8330   19.9210 N   0  0  0  0  0  0  0  0  0  0  0  0
  -28.6110  -16.4510   20.2010 H   0  0  0  0  0  0  0  0  0  0  0  0
  -25.3400  -13.7400   20.4470 C   0  0  0  0  0  0  0  0  0  0  0  0
  -24.3170  -12.9470   20.8800 C   0  0  0  0  0  0  0  0  0  0  0  0
  -24.7740  -11.6010   20.7360 C   0  0  0  0  0  0  0  0  0  0  0  0
  -26.3530  -12.8820   20.0620 N   0  0  0  0  0  0  0  0  0  0  0  0
  -26.0320  -11.5830   20.3010 N   0  0  0  0  0  0  0  0  0  0  0  0
  -24.0580  -10.3330   20.9290 C   0  0  0  0  0  0  0  0  0  0  0  0
  -24.5050   -9.3650   21.8560 C   0  0  0  0  0  3  0  0  0  0  0  0
  -23.7850   -8.1640   22.0400 C   0  0  0  0  0  3  0  0  0  0  0  0
  -22.6040   -7.9240   21.2970 C   0  0  0  0  0  0  0  0  0  0  0  0
  -22.1770   -8.8810   20.3600 C   0  0  0  0  0  3  0  0  0  0  0  0
  -22.8970  -10.0730   20.1740 C   0  0  0  0  0  3  0  0  0  0  0  0
  -21.8540   -6.7750   21.3900 O   0  0  0  0  0  0  0  0  0  0  0  0
  -21.7290   -6.0930   22.5740 C   0  0  0  0  0  0  0  0  0  0  0  0
  -21.2060   -6.7040   23.7350 C   0  0  0  0  0  3  0  0  0  0  0  0
  -21.0280   -5.9470   24.9110 C   0  0  0  0  0  3  0  0  0  0  0  0
  -21.3630   -4.5810   24.9250 C   0  0  0  0  0  0  0  0  0  0  0  0
  -21.8780   -3.9690   23.7690 C   0  0  0  0  0  3  0  0  0  0  0  0
  -22.0570   -4.7230   22.5960 C   0  0  0  0  0  0  0  0  0  0  0  0
  -22.5340   -4.1230   21.4780 F   0  0  0  0  0  0  0  0  0  0  0  0
  -21.1860   -3.8510   26.0520 F   0  0  0  0  0  0  0  0  0  0  0  0
  -22.9550  -13.4140   21.3010 C   0  0  0  0  0  0  0  0  0  0  0  0
  -22.3140  -12.6910   22.2120 N   0  0  0  0  0  0  0  0  0  0  0  0
  -22.4710  -14.4550   20.8570 O   0  0  0  0  0  0  0  0  0  0  0  0
  -22.7210  -11.8500   22.5910 H   0  0  0  0  0  0  0  0  0  0  0  0
  -21.4040  -12.9850   22.5370 H   0  0  0  0  0  0  0  0  0  0  0  0
  -25.4860  -15.1150   20.3130 N   0  0  0  0  0  0  0  0  0  0  0  0
  -24.7720  -15.7710   20.6110 H   0  0  0  0  0  0  0  0  0  0  0  0
  -26.3080  -15.5750   19.9480 H   0  0  0  0  0  0  0  0  0  0  0  0
  -26.8330  -18.4490   20.0240 C   0  0  0  0  0  0  0  0  0  0  0  0
  -25.8850  -17.7910   20.1230 N   0  0  0  0  0  0  0  0  0  0  0  0
  -27.7850  -23.6560   19.5430 C   0  0  0  0  0  0  0  0  0  0  0  0
  -26.5810  -23.5000   19.3280 O   0  0  0  0  0  0  0  0  0  0  0  0
  -28.1470  -25.4410   19.5800 O   0  0  0  0  0  0  0  0  0  0  0  0
  -24.6520  -31.5370   22.8990 C   0  0  0  0  0  0  0  0  0  0  0  0
  -27.1940  -26.6650   19.6230 C   0  0  0  0  0  0  0  0  0  0  0  0
  -23.4620  -30.2260   21.1950 C   0  0  0  0  0  3  0  0  0  0  0  0
  -24.9120  -28.6720   19.6890 C   0  0  0  0  0  0  0  0  0  0  0  0
  -26.0390  -30.3920   21.0710 C   0  0  0  0  0  2  0  0  0  0  0  0
  -26.1080  -29.0000   20.3410 C   0  0  0  0  0  0  0  0  0  0  0  0
  -27.2330  -28.0220   20.2850 C   0  0  0  0  0  3  0  0  0  0  0  0
  -25.9640  -26.5530   18.9260 C   0  0  0  0  0  3  0  0  0  0  0  0
  -24.8760  -27.4730   18.9600 C   0  0  0  0  0  3  0  0  0  0  0  0
  -23.6990  -29.6090   19.7870 C   0  0  0  0  0  2  0  0  0  0  0  0
  -24.7410  -30.7480   21.7760 N   0  0  0  0  0  0  0  0  0  0  0  0
  -23.5600  -31.8040   23.4310 O   0  0  0  0  0  0  0  0  0  0  0  0
  -22.7560  -29.1910   22.1120 C   0  0  0  0  0  0  0  0  0  0  0  0
  -21.4170  -29.0710   22.0180 N   0  0  0  0  0  0  0  0  0  0  0  0
  -23.4230  -28.4960   22.8820 O   0  0  0  0  0  0  0  0  0  0  0  0
  -20.9290  -29.6830   21.3780 H   0  0  0  0  0  0  0  0  0  0  0  0
  -18.0130  -27.9530   22.6210 C   0  0  0  0  0  0  0  0  0  0  0  0
  -20.5930  -28.0980   22.7460 C   0  0  0  0  0  3  0  0  0  0  0  0
  -20.5980  -26.7240   22.0360 C   0  0  0  0  0  2  0  0  0  0  0  0
  -19.4260  -26.5440   21.0640 C   0  0  0  0  0  2  0  0  0  0  0  0
  -18.0910  -26.6750   21.8040 C   0  0  0  0  0  2  0  0  0  0  0  0
  -19.1860  -28.6300   23.0490 C   0  0  0  0  0  0  0  0  0  0  0  0
  -19.0530  -29.8300   23.7820 C   0  0  0  0  0  3  0  0  0  0  0  0
  -17.7810  -30.3530   24.0830 C   0  0  0  0  0  3  0  0  0  0  0  0
  -16.6240  -29.6730   23.6660 C   0  0  0  0  0  3  0  0  0  0  0  0
  -16.7410  -28.4740   22.9410 C   0  0  0  0  0  3  0  0  0  0  0  0
  -25.9160  -32.1570   23.5680 C   0  0  0  0  0  3  0  0  0  0  0  0
  -25.5830  -33.5280   23.9990 N   0  0  0  0  0  0  0  0  0  0  0  0
  -25.8880  -34.6450   23.3250 C   0  0  0  0  0  0  0  0  0  0  0  0
  -26.5380  -34.6300   22.2760 O   0  0  0  0  0  0  0  0  0  0  0  0
  -25.0000  -33.6110   24.8200 H   0  0  0  0  0  0  0  0  0  0  0  0
  -24.1210  -36.4360   23.1740 C   0  0  0  0  0  1  0  0  0  0  0  0
  -25.3990  -35.9920   23.9020 C   0  0  0  0  0  3  0  0  0  0  0  0
  -27.5500  -36.8630   24.7130 C   0  0  0  0  0  1  0  0  0  0  0  0
  -26.4100  -37.0700   23.8240 N   0  0  0  0  0  0  0  0  0  0  0  0
  -25.9940  -37.9700   24.0470 H   0  0  0  0  0  0  0  0  0  0  0  0
  -26.4350  -31.3180   24.8020 C   0  0  1  0  0  0  0  0  0  0  0  0
  -25.3430  -31.0190   25.8570 C   0  0  0  0  0  1  0  0  0  0  0  0
  -27.0230  -29.9650   24.3470 C   0  0  0  0  0  1  0  0  0  0  0  0
  -27.5840  -32.0800   25.5060 C   0  0  0  0  0  1  0  0  0  0  0  0
  1  2  1  0
  2  6  2  0
  3  4  2  0
  4 45  1  0
  5  1  2  0
  5  3  1  0
  6  4  1  0
  6 15  1  0
  7 13  1  0
  7 15  1  0
  8 13  1  0
  9 10  1  0
  9  8  1  0
 11 10  1  0
 11 20  1  0
 11 12  1  0
 13 12  1  0
 14  7  2  0
 15 16  1  0
 17 18  2  0
 18 37  1  0
 19 18  1  0
 19 22  1  0
 20 21  1  0
 20 17  1  0
 21 19  2  0
 22 23  1  0
 23 24  2  0
 25 28  1  0
 25 24  1  0
 26 25  2  0
 27 26  1  0
 27 22  2  0
 28 29  1  0
 29 34  2  0
 29 30  1  0
 30 31  2  0
 31 32  1  0
 32 36  1  0
 33 32  2  0
 34 33  1  0
 35 34  1  0
 37 38  1  0
 38 41  1  0
 38 40  1  0
 39 37  2  0
 42 17  1  0
 42 43  1  0
 44 42  1  0
 45 46  3  0
 47 49  1  0
 47  5  1  0
 48 47  2  0
 49 51  1  0
 50 61  2  0
 51 56  1  0
 52 60  1  0
 52 62  1  0
 53 59  1  0
 53 55  1  0
 54 60  1  0
 55 54  1  0
 56 55  2  0
 57 58  1  0
 57 51  2  0
 58 53  2  0
 59 52  1  0
 60 50  1  0
 62 64  2  0
 63 62  1  0
 65 63  1  0
 66 75  2  0
 66 71  1  0
 67 63  1  0
 67 71  1  0
 68 67  1  0
 69 70  1  0
 69 68  1  0
 70 66  1  0
 71 72  2  0
 72 73  1  0
 74 73  2  0
 75 74  1  0
 76 50  1  0
 76 77  1  0
 76 86  1  0
 77 80  1  0
 78 82  1  0
 78 77  1  0
 79 78  2  0
 82 81  1  0
 84 82  1  0
 84 85  1  0
 84 83  1  0
 86 89  1  1
 86 87  1  0
 88 86  1  0
M  ISO  4   7 100  15 100  47 101  49 101
M  END
>  <TORSDO>  (5) 
F 18

>  <SCORE>  (5) 
-14.969

>  <name>  (5) 
4

>  <ligand_id>  (5) 
4

>  <original_smiles>  (5) 
[H]c1c([H])c([H])c2c(c1[H])C([H])([H])C([H])([H])C([H])([H])C2([H])N([H])C(=O)C1([H])N(C(=O)C([H])(N([H])C(=O)C([H])(N([H])C([H])([H])[H])C([H])([H])[H])C(C([H])([H])[H])(C([H])([H])[H])C([H])([H])[H])C([H])([H])c2c([H])c(OC(=O)c3c([H])c([H])c(N([H])C(=O)N4C([H])([H])C([H])([H])C([H])([H])C([H])(n5nc(-c6c([H])c([H])c(Oc7c([H])c([H])c(F)c([H])c7F)c([H])c6[H])c(C(=O)N([H])[H])c5N([H])[H])C4([H])[H])c(C#N)c3[H])c([H])c([H])c2C1([H])[H]

>  <smiles>  (5) 
[H]c1c([H])c([H])c2c(c1[H])C([H])([H])C([H])([H])C([H])([H])C2([H])N([H])C(=O)C1([H])N(C(=O)C([H])(N([H])C(=O)C([H])(N([H])C([H])([H])[H])C([H])([H])[H])C(C([H])([H])[H])(C([H])([H])[H])C([H])([H])[H])C([H])([H])c2c([H])c(OC(=O)c3c([H])c([H])c(N([H])C(=O)N4C([H])([H])C([H])([H])C([H])([H])C([H])(n5nc(-c6c([H])c([H])c(Oc7c([H])c([H])c(F)c([H])c7F)c([H])c6[H])c(C(=O)N([H])[H])c5N([H])[H])C4([H])[H])c(C#N)c3[H])c([H])c([H])c2C1([H])[H]

$$$$
5:0:0
     RDKit          3D

 95103  0  0  1  0  0  0  0  0999 V2000
  -29.4710  -17.1020   19.4030 C   0  0  0  0  0  3  0  0  0  0  0  0
  -29.4220  -18.4590   19.0320 C   0  0  0  0  0  3  0  0  0  0  0  0
  -30.4340  -17.7370   21.5450 C   0  0  0  0  0  3  0  0  0  0  0  0
  -30.4070  -19.1090   21.1810 C   0  0  0  0  0  0  0  0  0  0  0  0
  -29.9810  -16.7320   20.6640 C   0  0  0  0  0  0  0  0  0  0  0  0
  -29.8750  -19.4710   19.9080 C   0  0  0  0  0  0  0  0  0  0  0  0
  -30.6590  -14.3930   20.4630 C   0  0  0  0  0  0  0  0  0  0  0  0
  -30.3490  -12.2650   19.2740 C   0  0  0  0  0  2  0  0  0  0  0  0
  -29.4040  -12.5230   18.0830 C   0  0  0  0  0  2  0  0  0  0  0  0
  -27.9280  -12.3910   18.5110 C   0  0  0  0  0  2  0  0  0  0  0  0
  -27.6090  -13.1940   19.8010 C   0  0  0  0  0  3  0  0  0  0  0  0
  -28.6630  -12.9150   20.8960 C   0  0  0  0  0  2  0  0  0  0  0  0
  -29.9950  -13.2150   20.3380 N   0  0  0  0  0  0  0  0  0  0  0  0
  -31.7710  -14.6020   19.9660 O   0  0  0  0  0  0  0  0  0  0  0  0
  -29.9710  -15.3720   21.0760 N   0  0  0  0  0  0  0  0  0  0  0  0
  -29.1340  -15.0610   21.5470 H   0  0  0  0  0  0  0  0  0  0  0  0
  -25.2130  -13.8180   20.5020 C   0  0  0  0  0  0  0  0  0  0  0  0
  -24.1420  -13.0540   20.8760 C   0  0  0  0  0  0  0  0  0  0  0  0
  -24.5950  -11.6990   20.8490 C   0  0  0  0  0  0  0  0  0  0  0  0
  -26.2540  -12.9300   20.2780 N   0  0  0  0  0  0  0  0  0  0  0  0
  -25.8850  -11.6520   20.5420 N   0  0  0  0  0  0  0  0  0  0  0  0
  -23.8620  -10.4420   21.0470 C   0  0  0  0  0  0  0  0  0  0  0  0
  -24.3080   -9.4650   21.9650 C   0  0  0  0  0  3  0  0  0  0  0  0
  -23.5800   -8.2710   22.1500 C   0  0  0  0  0  3  0  0  0  0  0  0
  -22.3910   -8.0450   21.4160 C   0  0  0  0  0  0  0  0  0  0  0  0
  -21.9640   -9.0090   20.4860 C   0  0  0  0  0  3  0  0  0  0  0  0
  -22.6930  -10.1960   20.3000 C   0  0  0  0  0  3  0  0  0  0  0  0
  -21.6310   -6.9030   21.5110 O   0  0  0  0  0  0  0  0  0  0  0  0
  -21.6120   -6.1430   22.6530 C   0  0  0  0  0  0  0  0  0  0  0  0
  -21.2430   -6.6860   23.9040 C   0  0  0  0  0  3  0  0  0  0  0  0
  -21.1710   -5.8510   25.0380 C   0  0  0  0  0  3  0  0  0  0  0  0
  -21.4580   -4.4780   24.9230 C   0  0  0  0  0  0  0  0  0  0  0  0
  -21.8220   -3.9370   23.6780 C   0  0  0  0  0  3  0  0  0  0  0  0
  -21.8960   -4.7670   22.5460 C   0  0  0  0  0  0  0  0  0  0  0  0
  -22.2250   -4.2360   21.3430 F   0  0  0  0  0  0  0  0  0  0  0  0
  -21.3820   -3.6760   26.0110 F   0  0  0  0  0  0  0  0  0  0  0  0
  -22.7460  -13.5380   21.1480 C   0  0  0  0  0  0  0  0  0  0  0  0
  -22.0170  -12.8510   22.0210 N   0  0  0  0  0  0  0  0  0  0  0  0
  -22.3110  -14.5620   20.6210 O   0  0  0  0  0  0  0  0  0  0  0  0
  -22.3790  -12.0250   22.4730 H   0  0  0  0  0  0  0  0  0  0  0  0
  -21.0800  -13.1590   22.2400 H   0  0  0  0  0  0  0  0  0  0  0  0
  -25.3870  -15.1870   20.3190 N   0  0  0  0  0  0  0  0  0  0  0  0
  -24.6250  -15.8500   20.4220 H   0  0  0  0  0  0  0  0  0  0  0  0
  -26.2520  -15.6190   20.0200 H   0  0  0  0  0  0  0  0  0  0  0  0
  -30.9450  -20.0940   22.1720 C   0  0  0  0  0  0  0  0  0  0  0  0
  -31.1650  -19.8120   23.3560 O   0  0  0  0  0  0  0  0  0  0  0  0
  -31.6910  -22.3460   22.4770 C   0  0  0  0  0  1  0  0  0  0  0  0
  -31.1980  -21.3060   21.6510 O   0  0  0  0  0  0  0  0  0  0  0  0
  -29.7900  -20.7740   19.4680 O   0  0  0  0  0  0  0  0  0  0  0  0
  -28.5200  -21.3880   19.6880 C   0  0  0  0  0  2  0  0  0  0  0  0
  -28.3200  -22.6050   18.7620 C   0  0  0  0  0  2  0  0  0  0  0  0
  -28.8480  -23.8220   19.2970 O   0  0  0  0  0  0  0  0  0  0  0  0
  -28.5900  -24.9250   18.4240 C   0  0  0  0  0  2  0  0  0  0  0  0
  -29.0180  -26.2950   19.0010 C   0  0  0  0  0  2  0  0  0  0  0  0
  -28.4080  -26.6840   20.2350 O   0  0  0  0  0  0  0  0  0  0  0  0
  -24.5910  -31.8680   23.2510 C   0  0  0  0  0  0  0  0  0  0  0  0
  -27.2460  -27.4210   20.1860 C   0  0  0  0  0  0  0  0  0  0  0  0
  -23.3870  -30.4610   21.6080 C   0  0  0  0  0  3  0  0  0  0  0  0
  -24.8460  -28.9180   20.1920 C   0  0  0  0  0  0  0  0  0  0  0  0
  -25.9130  -30.8170   21.4200 C   0  0  0  0  0  2  0  0  0  0  0  0
  -26.0000  -29.4450   20.7850 C   0  0  0  0  0  0  0  0  0  0  0  0
  -27.2000  -28.6980   20.7880 C   0  0  0  0  0  3  0  0  0  0  0  0
  -26.0660  -26.8980   19.6120 C   0  0  0  0  0  3  0  0  0  0  0  0
  -24.8720  -27.6420   19.6070 C   0  0  0  0  0  3  0  0  0  0  0  0
  -23.6000  -29.7750   20.2310 C   0  0  0  0  0  2  0  0  0  0  0  0
  -24.6480  -31.0630   22.1520 N   0  0  0  0  0  0  0  0  0  0  0  0
  -23.5090  -32.1410   23.7870 O   0  0  0  0  0  0  0  0  0  0  0  0
  -22.7310  -29.4440   22.5700 C   0  0  0  0  0  0  0  0  0  0  0  0
  -21.4050  -29.2730   22.4460 N   0  0  0  0  0  0  0  0  0  0  0  0
  -23.4110  -28.8120   23.3820 O   0  0  0  0  0  0  0  0  0  0  0  0
  -20.9170  -29.8370   21.7640 H   0  0  0  0  0  0  0  0  0  0  0  0
  -18.0220  -28.1070   22.9590 C   0  0  0  0  0  0  0  0  0  0  0  0
  -20.5840  -28.3420   23.2210 C   0  0  0  0  0  3  0  0  0  0  0  0
  -20.6700  -26.9110   22.6450 C   0  0  0  0  0  2  0  0  0  0  0  0
  -19.5630  -26.5960   21.6350 C   0  0  0  0  0  2  0  0  0  0  0  0
  -18.1850  -26.7560   22.2840 C   0  0  0  0  0  2  0  0  0  0  0  0
  -19.1500  -28.8590   23.3850 C   0  0  0  0  0  0  0  0  0  0  0  0
  -18.9480  -30.1240   23.9770 C   0  0  0  0  0  3  0  0  0  0  0  0
  -17.6490  -30.6400   24.1460 C   0  0  0  0  0  3  0  0  0  0  0  0
  -16.5350  -29.8850   23.7360 C   0  0  0  0  0  3  0  0  0  0  0  0
  -16.7230  -28.6210   23.1510 C   0  0  0  0  0  3  0  0  0  0  0  0
  -25.8760  -32.5010   23.8700 C   0  0  0  0  0  3  0  0  0  0  0  0
  -25.5680  -33.8990   24.1960 N   0  0  0  0  0  0  0  0  0  0  0  0
  -25.8990  -34.9490   23.4330 C   0  0  0  0  0  0  0  0  0  0  0  0
  -26.5690  -34.8450   22.4020 O   0  0  0  0  0  0  0  0  0  0  0  0
  -24.9770  -34.0560   24.9990 H   0  0  0  0  0  0  0  0  0  0  0  0
  -24.1670  -36.7370   23.0760 C   0  0  0  0  0  1  0  0  0  0  0  0
  -25.4110  -36.3390   23.8860 C   0  0  0  0  0  3  0  0  0  0  0  0
  -27.5470  -37.2270   24.7090 C   0  0  0  0  0  1  0  0  0  0  0  0
  -26.4420  -37.3930   23.7680 N   0  0  0  0  0  0  0  0  0  0  0  0
  -26.0360  -38.3130   23.9170 H   0  0  0  0  0  0  0  0  0  0  0  0
  -26.3950  -31.7320   25.1470 C   0  0  1  0  0  0  0  0  0  0  0  0
  -25.3050  -31.4980   26.2170 C   0  0  0  0  0  1  0  0  0  0  0  0
  -26.9780  -30.3540   24.7570 C   0  0  0  0  0  1  0  0  0  0  0  0
  -27.5460  -32.5290   25.8060 C   0  0  0  0  0  1  0  0  0  0  0  0
  1  5  1  0
  2  1  2  0
  2  6  1  0
  4  3  1  0
  4 45  1  0
  5 15  1  0
  5  3  2  0
  6  4  2  0
  7 15  1  0
  8 13  1  0
  9 10  1  0
  9  8  1  0
 11 10  1  0
 11 20  1  0
 11 12  1  0
 13  7  1  0
 13 12  1  0
 14  7  2  0
 15 16  1  0
 17 18  2  0
 18 37  1  0
 19 18  1  0
 19 22  1  0
 20 17  1  0
 20 21  1  0
 21 19  2  0
 22 23  1  0
 23 24  2  0
 25 28  1  0
 25 24  1  0
 26 25  2  0
 27 26  1  0
 27 22  2  0
 28 29  1  0
 29 30  1  0
 30 31  2  0
 32 31  1  0
 32 36  1  0
 33 32  2  0
 34 29  2  0
 34 33  1  0
 35 34  1  0
 37 38  1  0
 38 41  1  0
 38 40  1  0
 39 37  2  0
 42 43  1  0
 42 17  1  0
 44 42  1  0
 45 46  2  0
 48 45  1  0
 48 47  1  0
 49 50  1  0
 49  6  1  0
 51 52  1  0
 51 50  1  0
 53 54  1  0
 53 52  1  0
 54 55  1  0
 56 67  2  0
 57 55  1  0
 57 62  1  0
 58 66  1  0
 58 68  1  0
 59 65  1  0
 59 61  1  0
 60 66  1  0
 61 62  2  0
 61 60  1  0
 63 57  2  0
 64 63  1  0
 64 59  2  0
 65 58  1  0
 66 56  1  0
 68 70  2  0
 69 68  1  0
 71 69  1  0
 72 81  2  0
 72 77  1  0
 73 69  1  0
 73 77  1  0
 74 73  1  0
 75 76  1  0
 75 74  1  0
 76 72  1  0
 77 78  2  0
 78 79  1  0
 80 79  2  0
 81 80  1  0
 82 56  1  0
 82 83  1  0
 82 92  1  0
 83 86  1  0
 84 88  1  0
 84 83  1  0
 85 84  2  0
 88 87  1  0
 90 88  1  0
 90 91  1  0
 90 89  1  0
 92 95  1  1
 92 93  1  0
 94 92  1  0
M  ISO  4   7 100  15 100  54 101  55 101
M  END
>  <TORSDO>  (6) 
F 24

>  <SCORE>  (6) 
-12.269

>  <name>  (6) 
5

>  <ligand_id>  (6) 
5

>  <original_smiles>  (6) 
[H]c1c([H])c([H])c2c(c1[H])C([H])([H])C([H])([H])C([H])([H])C2([H])N([H])C(=O)C1([H])N(C(=O)C([H])(N([H])C(=O)C([H])(N([H])C([H])([H])[H])C([H])([H])[H])C(C([H])([H])[H])(C([H])([H])[H])C([H])([H])[H])C([H])([H])c2c([H])c(OC([H])([H])C([H])([H])OC([H])([H])C([H])([H])Oc3c([H])c([H])c(N([H])C(=O)N4C([H])([H])C([H])([H])C([H])([H])C([H])(n5nc(-c6c([H])c([H])c(Oc7c([H])c([H])c(F)c([H])c7F)c([H])c6[H])c(C(=O)N([H])[H])c5N([H])[H])C4([H])[H])c([H])c3C(=O)OC([H])([H])[H])c([H])c([H])c2C1([H])[H]

>  <smiles>  (6) 
[H]c1c([H])c([H])c2c(c1[H])C([H])([H])C([H])([H])C([H])([H])C2([H])N([H])C(=O)C1([H])N(C(=O)C([H])(N([H])C(=O)C([H])(N([H])C([H])([H])[H])C([H])([H])[H])C(C([H])([H])[H])(C([H])([H])[H])C([H])([H])[H])C([H])([H])c2c([H])c(OC([H])([H])C([H])([H])OC([H])([H])C([H])([H])Oc3c([H])c([H])c(N([H])C(=O)N4C([H])([H])C([H])([H])C([H])([H])C([H])(n5nc(-c6c([H])c([H])c(Oc7c([H])c([H])c(F)c([H])c7F)c([H])c6[H])c(C(=O)N([H])[H])c5N([H])[H])C4([H])[H])c([H])c3C(=O)OC([H])([H])[H])c([H])c([H])c2C1([H])[H]

$$$$
6:0:0
     RDKit          3D

 87 95  0  0  1  0  0  0  0  0999 V2000
  -29.8250  -21.4280   19.9150 C   0  0  0  0  0  3  0  0  0  0  0  0
  -27.7760  -20.9180   20.5780 C   0  0  0  0  0  3  0  0  0  0  0  0
  -30.1740  -19.9210   19.8840 C   0  0  0  0  0  3  0  0  0  0  0  0
  -28.1130  -19.4380   20.5520 C   0  0  0  0  0  3  0  0  0  0  0  0
  -28.5540  -22.1480   20.2660 C   0  0  0  0  0  0  0  0  0  0  0  0
  -29.3510  -18.7060   20.2010 C   0  0  0  0  0  0  0  0  0  0  0  0
  -30.3440  -15.7040   19.9970 C   0  0  0  0  0  0  0  0  0  0  0  0
  -30.4340  -13.1870   19.1200 C   0  0  0  0  0  2  0  0  0  0  0  0
  -29.4800  -12.8360   17.9420 C   0  0  0  0  0  2  0  0  0  0  0  0
  -28.0760  -12.4760   18.4530 C   0  0  0  0  0  2  0  0  0  0  0  0
  -27.6220  -13.4380   19.5750 C   0  0  0  0  0  3  0  0  0  0  0  0
  -28.7080  -13.6960   20.6460 C   0  0  0  0  0  2  0  0  0  0  0  0
  -29.8530  -14.3310   19.9520 N   0  0  0  0  0  0  0  0  0  0  0  0
  -31.5580  -15.7010   19.7150 O   0  0  0  0  0  0  0  0  0  0  0  0
  -29.5090  -16.9920   20.1900 N   0  0  0  0  0  0  0  0  0  0  0  0
  -28.6000  -16.6190   20.4210 H   0  0  0  0  0  0  0  0  0  0  0  0
  -25.2980  -13.9300   20.4780 C   0  0  0  0  0  0  0  0  0  0  0  0
  -24.2660  -13.1300   20.8790 C   0  0  0  0  0  0  0  0  0  0  0  0
  -24.7430  -11.7870   20.7810 C   0  0  0  0  0  0  0  0  0  0  0  0
  -26.3340  -13.0760   20.1500 N   0  0  0  0  0  0  0  0  0  0  0  0
  -26.0180  -11.7770   20.3980 N   0  0  0  0  0  0  0  0  0  0  0  0
  -24.0350  -10.5130   20.9700 C   0  0  0  0  0  0  0  0  0  0  0  0
  -24.4810   -9.5500   21.9030 C   0  0  0  0  0  3  0  0  0  0  0  0
  -23.7670   -8.3440   22.0820 C   0  0  0  0  0  3  0  0  0  0  0  0
  -22.5940   -8.0930   21.3300 C   0  0  0  0  0  0  0  0  0  0  0  0
  -22.1690   -9.0460   20.3870 C   0  0  0  0  0  3  0  0  0  0  0  0
  -22.8820  -10.2430   20.2050 C   0  0  0  0  0  3  0  0  0  0  0  0
  -21.8530   -6.9400   21.4180 O   0  0  0  0  0  0  0  0  0  0  0  0
  -21.7620   -6.2310   22.5900 C   0  0  0  0  0  0  0  0  0  0  0  0
  -21.2200   -6.8000   23.7630 C   0  0  0  0  0  3  0  0  0  0  0  0
  -21.0800   -6.0150   24.9260 C   0  0  0  0  0  3  0  0  0  0  0  0
  -21.4690   -4.6620   24.9140 C   0  0  0  0  0  0  0  0  0  0  0  0
  -22.0040   -4.0940   23.7450 C   0  0  0  0  0  3  0  0  0  0  0  0
  -22.1460   -4.8760   22.5850 C   0  0  0  0  0  0  0  0  0  0  0  0
  -22.6420   -4.3170   21.4550 F   0  0  0  0  0  0  0  0  0  0  0  0
  -21.3280   -3.9070   26.0280 F   0  0  0  0  0  0  0  0  0  0  0  0
  -22.8810  -13.5870   21.2300 C   0  0  0  0  0  0  0  0  0  0  0  0
  -22.2050  -12.8700   22.1190 N   0  0  0  0  0  0  0  0  0  0  0  0
  -22.4100  -14.6170   20.7510 O   0  0  0  0  0  0  0  0  0  0  0  0
  -22.6020  -12.0370   22.5300 H   0  0  0  0  0  0  0  0  0  0  0  0
  -21.2790  -13.1600   22.3970 H   0  0  0  0  0  0  0  0  0  0  0  0
  -25.4340  -15.3070   20.3320 N   0  0  0  0  0  0  0  0  0  0  0  0
  -24.6520  -15.9340   20.4860 H   0  0  0  0  0  0  0  0  0  0  0  0
  -26.2270  -15.7630   19.9030 H   0  0  0  0  0  0  0  0  0  0  0  0
  -27.8020  -23.8240   20.3320 C   0  0  0  0  0  0  0  0  0  0  0  0
  -26.5910  -23.6860   20.5260 O   0  0  0  0  0  0  0  0  0  0  0  0
  -28.1770  -25.6060   20.2420 O   0  0  0  0  0  0  0  0  0  0  0  0
  -24.6520  -31.8620   23.2180 C   0  0  0  0  0  0  0  0  0  0  0  0
  -27.2320  -26.8370   20.2130 C   0  0  0  0  0  0  0  0  0  0  0  0
  -23.4900  -30.4810   21.5510 C   0  0  0  0  0  3  0  0  0  0  0  0
  -24.9610  -28.8570   20.1470 C   0  0  0  0  0  0  0  0  0  0  0  0
  -26.0700  -30.6320   21.4710 C   0  0  0  0  0  2  0  0  0  0  0  0
  -26.1470  -29.2080   20.8030 C   0  0  0  0  0  0  0  0  0  0  0  0
  -27.2680  -28.2250   20.8110 C   0  0  0  0  0  3  0  0  0  0  0  0
  -26.0120  -26.6980   19.5020 C   0  0  0  0  0  3  0  0  0  0  0  0
  -24.9290  -27.6240   19.4760 C   0  0  0  0  0  3  0  0  0  0  0  0
  -23.7520  -29.8020   20.1770 C   0  0  0  0  0  2  0  0  0  0  0  0
  -24.7600  -31.0230   22.1340 N   0  0  0  0  0  0  0  0  0  0  0  0
  -23.5510  -32.1550   23.7160 O   0  0  0  0  0  0  0  0  0  0  0  0
  -22.7620  -29.4910   22.4990 C   0  0  0  0  0  0  0  0  0  0  0  0
  -21.4290  -29.3440   22.3600 N   0  0  0  0  0  0  0  0  0  0  0  0
  -23.4060  -28.8520   23.3330 O   0  0  0  0  0  0  0  0  0  0  0  0
  -20.9590  -29.9100   21.6660 H   0  0  0  0  0  0  0  0  0  0  0  0
  -18.0250  -28.1810   22.8620 C   0  0  0  0  0  0  0  0  0  0  0  0
  -20.5910  -28.4030   23.1120 C   0  0  0  0  0  3  0  0  0  0  0  0
  -20.6650  -26.9830   22.5010 C   0  0  0  0  0  2  0  0  0  0  0  0
  -19.5510  -26.7050   21.4860 C   0  0  0  0  0  2  0  0  0  0  0  0
  -18.1770  -26.8510   22.1440 C   0  0  0  0  0  2  0  0  0  0  0  0
  -19.1570  -28.9170   23.3030 C   0  0  0  0  0  0  0  0  0  0  0  0
  -18.9580  -30.1610   23.9400 C   0  0  0  0  0  3  0  0  0  0  0  0
  -17.6600  -30.6690   24.1380 C   0  0  0  0  0  3  0  0  0  0  0  0
  -16.5430  -29.9320   23.7100 C   0  0  0  0  0  3  0  0  0  0  0  0
  -16.7260  -28.6890   23.0780 C   0  0  0  0  0  3  0  0  0  0  0  0
  -25.9050  -32.5080   23.8830 C   0  0  0  0  0  3  0  0  0  0  0  0
  -25.5790  -33.9090   24.2160 N   0  0  0  0  0  0  0  0  0  0  0  0
  -25.8850  -34.9720   23.4600 C   0  0  0  0  0  0  0  0  0  0  0  0
  -26.5290  -34.8770   22.4120 O   0  0  0  0  0  0  0  0  0  0  0  0
  -25.0000  -34.0540   25.0300 H   0  0  0  0  0  0  0  0  0  0  0  0
  -24.1200  -36.7510   23.1960 C   0  0  0  0  0  1  0  0  0  0  0  0
  -25.4070  -36.3600   23.9400 C   0  0  0  0  0  3  0  0  0  0  0  0
  -27.5630  -37.2900   24.6660 C   0  0  0  0  0  1  0  0  0  0  0  0
  -26.4190  -37.4260   23.7680 N   0  0  0  0  0  0  0  0  0  0  0  0
  -26.0060  -38.3430   23.9160 H   0  0  0  0  0  0  0  0  0  0  0  0
  -26.3740  -31.7450   25.1850 C   0  0  1  0  0  0  0  0  0  0  0  0
  -25.2430  -31.5180   26.2170 C   0  0  0  0  0  1  0  0  0  0  0  0
  -26.9660  -30.3620   24.8360 C   0  0  0  0  0  1  0  0  0  0  0  0
  -27.5010  -32.5420   25.8800 C   0  0  0  0  0  1  0  0  0  0  0  0
  1  5  1  0
  3  1  2  0
  3  6  1  0
  4  2  1  0
  5 45  1  0
  5  2  2  0
  6  4  2  0
  7 15  1  0
  8 13  1  0
  9 10  1  0
  9  8  1  0
 11 10  1  0
 11 20  1  0
 11 12  1  0
 13  7  1  0
 13 12  1  0
 14  7  2  0
 15  6  1  0
 15 16  1  0
 17 18  2  0
 18 37  1  0
 19 18  1  0
 19 22  1  0
 20 21  1  0
 20 17  1  0
 21 19  2  0
 22 23  1  0
 23 24  2  0
 25 28  1  0
 25 24  1  0
 26 25  2  0
 27 26  1  0
 27 22  2  0
 28 29  1  0
 29 30  1  0
 30 31  2  0
 32 31  1  0
 32 36  1  0
 33 32  2  0
 34 29  2  0
 34 33  1  0
 35 34  1  0
 37 38  1  0
 38 41  1  0
 38 40  1  0
 39 37  2  0
 42 17  1  0
 42 43  1  0
 44 42  1  0
 45 46  2  0
 47 45  1  0
 48 59  2  0
 49 47  1  0
 49 54  1  0
 50 58  1  0
 50 60  1  0
 51 57  1  0
 51 53  1  0
 52 58  1  0
 53 54  2  0
 53 52  1  0
 55 49  2  0
 56 55  1  0
 56 51  2  0
 57 50  1  0
 58 48  1  0
 60 62  2  0
 61 60  1  0
 63 61  1  0
 64 73  2  0
 64 69  1  0
 65 61  1  0
 65 69  1  0
 66 65  1  0
 67 68  1  0
 67 66  1  0
 68 64  1  0
 69 70  2  0
 70 71  1  0
 72 71  2  0
 73 72  1  0
 74 48  1  0
 74 75  1  0
 74 84  1  0
 75 78  1  0
 76 80  1  0
 76 75  1  0
 77 76  2  0
 80 79  1  0
 82 83  1  0
 82 80  1  0
 82 81  1  0
 84 87  1  1
 84 85  1  0
 86 84  1  0
M  ISO  4   7 100  15 100  45 101  47 101
M  END
>  <TORSDO>  (7) 
F 17

>  <SCORE>  (7) 
-16.325

>  <name>  (7) 
6

>  <ligand_id>  (7) 
6

>  <original_smiles>  (7) 
[H]c1c([H])c([H])c2c(c1[H])C([H])([H])C([H])([H])C([H])([H])C2([H])N([H])C(=O)C1([H])N(C(=O)C([H])(N([H])C(=O)C([H])(N([H])C([H])([H])[H])C([H])([H])[H])C(C([H])([H])[H])(C([H])([H])[H])C([H])([H])[H])C([H])([H])c2c([H])c(OC(=O)c3c([H])c([H])c(N([H])C(=O)N4C([H])([H])C([H])([H])C([H])([H])C([H])(n5nc(-c6c([H])c([H])c(Oc7c([H])c([H])c(F)c([H])c7F)c([H])c6[H])c(C(=O)N([H])[H])c5N([H])[H])C4([H])[H])c([H])c3[H])c([H])c([H])c2C1([H])[H]

>  <smiles>  (7) 
[H]c1c([H])c([H])c2c(c1[H])C([H])([H])C([H])([H])C([H])([H])C2([H])N([H])C(=O)C1([H])N(C(=O)C([H])(N([H])C(=O)C([H])(N([H])C([H])([H])[H])C([H])([H])[H])C(C([H])([H])[H])(C([H])([H])[H])C([H])([H])[H])C([H])([H])c2c([H])c(OC(=O)c3c([H])c([H])c(N([H])C(=O)N4C([H])([H])C([H])([H])C([H])([H])C([H])(n5nc(-c6c([H])c([H])c(Oc7c([H])c([H])c(F)c([H])c7F)c([H])c6[H])c(C(=O)N([H])[H])c5N([H])[H])C4([H])[H])c([H])c3[H])c([H])c([H])c2C1([H])[H]

$$$$
7:0:0
     RDKit          3D

 96105  0  0  1  0  0  0  0  0999 V2000
  -28.4990  -19.8320   17.5610 C   0  0  0  0  0  3  0  0  0  0  0  0
  -29.4440  -18.9790   18.1710 C   0  0  0  0  0  3  0  0  0  0  0  0
  -28.2710  -21.1490   18.0230 C   0  0  0  0  0  3  0  0  0  0  0  0
  -29.9450  -20.7720   19.7340 C   0  0  0  0  0  3  0  0  0  0  0  0
  -30.2030  -19.4100   19.2740 C   0  0  0  0  0  0  0  0  0  0  0  0
  -28.9780  -21.6740   19.1260 C   0  0  0  0  0  0  0  0  0  0  0  0
  -28.6950  -23.0180   19.5980 N   0  0  0  0  0  0  0  0  0  0  0  0
  -29.0670  -23.2690   20.5120 H   0  0  0  0  0  0  0  0  0  0  0  0
  -28.0510  -24.1610   18.8220 C   0  0  0  0  0  2  0  0  0  0  0  0
  -27.5830  -25.4900   19.6290 C   0  0  0  0  0  2  0  0  0  0  0  0
  -27.6650  -26.8770   19.0530 O   0  0  0  0  0  0  0  0  0  0  0  0
  -24.5440  -31.9120   23.2670 C   0  0  0  0  0  0  0  0  0  0  0  0
  -26.6170  -27.7870   19.2970 C   0  0  0  0  0  0  0  0  0  0  0  0
  -23.1290  -30.8570   21.5420 C   0  0  0  0  0  3  0  0  0  0  0  0
  -24.3630  -29.4970   19.7580 C   0  0  0  0  0  0  0  0  0  0  0  0
  -25.6580  -31.0940   21.1710 C   0  0  0  0  0  2  0  0  0  0  0  0
  -25.6070  -29.8330   20.3100 C   0  0  0  0  0  0  0  0  0  0  0  0
  -26.7410  -28.9940   20.0640 C   0  0  0  0  0  3  0  0  0  0  0  0
  -25.3540  -27.5140   18.7390 C   0  0  0  0  0  3  0  0  0  0  0  0
  -24.2390  -28.3470   18.9630 C   0  0  0  0  0  3  0  0  0  0  0  0
  -23.1860  -30.4060   20.0590 C   0  0  0  0  0  2  0  0  0  0  0  0
  -24.4690  -31.2950   22.0500 N   0  0  0  0  0  0  0  0  0  0  0  0
  -23.5270  -32.1400   23.9380 O   0  0  0  0  0  0  0  0  0  0  0  0
  -22.4910  -29.7280   22.3870 C   0  0  0  0  0  0  0  0  0  0  0  0
  -21.1510  -29.6280   22.3570 N   0  0  0  0  0  0  0  0  0  0  0  0
  -23.2010  -28.9490   23.0270 O   0  0  0  0  0  0  0  0  0  0  0  0
  -20.6370  -30.3070   21.8140 H   0  0  0  0  0  0  0  0  0  0  0  0
  -17.7760  -28.4430   22.8990 C   0  0  0  0  0  0  0  0  0  0  0  0
  -20.3540  -28.6080   23.0400 C   0  0  0  0  0  3  0  0  0  0  0  0
  -20.3770  -27.2700   22.2640 C   0  0  0  0  0  2  0  0  0  0  0  0
  -19.2080  -27.1260   21.2830 C   0  0  0  0  0  2  0  0  0  0  0  0
  -17.8720  -27.2010   22.0270 C   0  0  0  0  0  2  0  0  0  0  0  0
  -18.9420  -29.1110   23.3610 C   0  0  0  0  0  0  0  0  0  0  0  0
  -18.7970  -30.2800   24.1390 C   0  0  0  0  0  3  0  0  0  0  0  0
  -17.5190  -30.7810   24.4540 C   0  0  0  0  0  3  0  0  0  0  0  0
  -16.3690  -30.1050   24.0100 C   0  0  0  0  0  3  0  0  0  0  0  0
  -16.4990  -28.9360   23.2370 C   0  0  0  0  0  3  0  0  0  0  0  0
  -25.9070  -32.3790   23.8640 C   0  0  0  0  0  3  0  0  0  0  0  0
  -25.7170  -33.7370   24.3950 N   0  0  0  0  0  0  0  0  0  0  0  0
  -26.1320  -34.8570   23.7880 C   0  0  0  0  0  0  0  0  0  0  0  0
  -26.7870  -34.8480   22.7410 O   0  0  0  0  0  0  0  0  0  0  0  0
  -25.1390  -33.8250   25.2180 H   0  0  0  0  0  0  0  0  0  0  0  0
  -24.5620  -36.8220   23.7310 C   0  0  0  0  0  1  0  0  0  0  0  0
  -25.7690  -36.2000   24.4500 C   0  0  0  0  0  3  0  0  0  0  0  0
  -27.9780  -36.7760   25.3570 C   0  0  0  0  0  1  0  0  0  0  0  0
  -26.8860  -37.1700   24.4690 N   0  0  0  0  0  0  0  0  0  0  0  0
  -26.5590  -38.0880   24.7560 H   0  0  0  0  0  0  0  0  0  0  0  0
  -26.4560  -31.4180   24.9900 C   0  0  1  0  0  0  0  0  0  0  0  0
  -25.4320  -31.1330   26.1130 C   0  0  0  0  0  1  0  0  0  0  0  0
  -26.8910  -30.0610   24.3880 C   0  0  0  0  0  1  0  0  0  0  0  0
  -27.7140  -32.0380   25.6430 C   0  0  0  0  0  1  0  0  0  0  0  0
  -31.2820  -18.4210   19.9140 C   0  0  0  0  0  3  0  0  0  0  0  0
  -31.9790  -15.8570   20.0630 C   0  0  0  0  0  0  0  0  0  0  0  0
  -31.9670  -13.3740   19.7590 C   0  0  0  0  0  2  0  0  0  0  0  0
  -31.1720  -13.0330   18.4820 C   0  0  0  0  0  2  0  0  0  0  0  0
  -29.6660  -12.9060   18.8000 C   0  0  0  0  0  2  0  0  0  0  0  0
  -29.1350  -14.0970   19.6440 C   0  0  0  0  0  3  0  0  0  0  0  0
  -30.0610  -14.4080   20.8370 C   0  0  0  0  0  2  0  0  0  0  0  0
  -31.4060  -14.6300   20.2960 N   0  0  0  0  0  0  0  0  0  0  0  0
  -33.1950  -15.9560   19.8900 O   0  0  0  0  0  0  0  0  0  0  0  0
  -31.1120  -16.9090   19.8360 N   0  0  0  0  0  0  0  0  0  0  0  0
  -30.1480  -16.6250   19.8340 H   0  0  0  0  0  0  0  0  0  0  0  0
  -26.7670  -14.8550   20.2660 C   0  0  0  0  0  0  0  0  0  0  0  0
  -25.6340  -14.1560   20.5840 C   0  0  0  0  0  0  0  0  0  0  0  0
  -26.0030  -12.7760   20.5670 C   0  0  0  0  0  0  0  0  0  0  0  0
  -27.7540  -13.9040   20.0680 N   0  0  0  0  0  0  0  0  0  0  0  0
  -27.2990  -12.6480   20.3140 N   0  0  0  0  0  0  0  0  0  0  0  0
  -25.1820  -11.5670   20.7170 C   0  0  0  0  0  0  0  0  0  0  0  0
  -25.5010  -10.5710   21.6670 C   0  0  0  0  0  3  0  0  0  0  0  0
  -24.6890   -9.4250   21.8020 C   0  0  0  0  0  3  0  0  0  0  0  0
  -23.5400   -9.2690   20.9890 C   0  0  0  0  0  0  0  0  0  0  0  0
  -23.2410  -10.2520   20.0270 C   0  0  0  0  0  3  0  0  0  0  0  0
  -24.0540  -11.3890   19.8910 C   0  0  0  0  0  3  0  0  0  0  0  0
  -22.7060   -8.1780   21.0370 O   0  0  0  0  0  0  0  0  0  0  0  0
  -22.4390   -7.5230   22.2130 C   0  0  0  0  0  0  0  0  0  0  0  0
  -21.8750   -8.1850   23.3240 C   0  0  0  0  0  3  0  0  0  0  0  0
  -21.5520   -7.4590   24.4890 C   0  0  0  0  0  3  0  0  0  0  0  0
  -21.7850   -6.0700   24.5390 C   0  0  0  0  0  0  0  0  0  0  0  0
  -22.3400   -5.4080   23.4290 C   0  0  0  0  0  3  0  0  0  0  0  0
  -22.6630   -6.1320   22.2690 C   0  0  0  0  0  0  0  0  0  0  0  0
  -23.1800   -5.4850   21.1960 F   0  0  0  0  0  0  0  0  0  0  0  0
  -21.4690   -5.3690   25.6530 F   0  0  0  0  0  0  0  0  0  0  0  0
  -24.2630  -14.7260   20.7960 C   0  0  0  0  0  0  0  0  0  0  0  0
  -23.4710  -14.1080   21.6640 N   0  0  0  0  0  0  0  0  0  0  0  0
  -23.9010  -15.7550   20.2250 O   0  0  0  0  0  0  0  0  0  0  0  0
  -23.7800  -13.2820   22.1530 H   0  0  0  0  0  0  0  0  0  0  0  0
  -22.5470  -14.4700   21.8460 H   0  0  0  0  0  0  0  0  0  0  0  0
  -27.0340  -16.2130   20.1030 N   0  0  0  0  0  0  0  0  0  0  0  0
  -26.3020  -16.9130   20.1610 H   0  0  0  0  0  0  0  0  0  0  0  0
  -27.9060  -16.5870   19.7520 H   0  0  0  0  0  0  0  0  0  0  0  0
  -31.6750  -19.4490   24.1270 C   0  0  0  0  0  3  0  0  0  0  0  0
  -30.9200  -18.3260   23.7410 C   0  0  0  0  0  3  0  0  0  0  0  0
  -32.3270  -20.2290   23.1530 C   0  0  0  0  0  3  0  0  0  0  0  0
  -30.8060  -17.9890   22.3780 C   0  0  0  0  0  3  0  0  0  0  0  0
  -32.2180  -19.8880   21.7900 C   0  0  0  0  0  3  0  0  0  0  0  0
  -31.4490  -18.7730   21.3900 C   0  0  0  0  0  0  0  0  0  0  0  0
  1  3  2  0
  1  2  1  0
  2  5  2  0
  3  6  1  0
  5  4  1  0
  5 52  1  0
  6  7  1  0
  6  4  2  0
  7  8  1  0
  9  7  1  0
  9 10  1  0
 11 13  1  0
 11 10  1  0
 12 23  2  0
 13 18  1  0
 14 22  1  0
 14 24  1  0
 15 21  1  0
 15 17  1  0
 16 22  1  0
 17 16  1  0
 18 17  2  0
 19 20  1  0
 19 13  2  0
 20 15  2  0
 21 14  1  0
 22 12  1  0
 24 26  2  0
 25 24  1  0
 27 25  1  0
 28 37  2  0
 28 33  1  0
 29 25  1  0
 29 33  1  0
 30 29  1  0
 31 32  1  0
 31 30  1  0
 32 28  1  0
 33 34  2  0
 34 35  1  0
 36 35  2  0
 37 36  1  0
 38 12  1  0
 38 39  1  0
 38 48  1  0
 39 42  1  0
 40 39  1  0
 40 44  1  0
 41 40  2  0
 44 43  1  0
 44 46  1  0
 46 47  1  0
 46 45  1  0
 48 51  1  1
 48 49  1  0
 50 48  1  0
 52 61  1  0
 52 96  1  0
 53 59  1  0
 54 59  1  0
 55 56  1  0
 55 54  1  0
 57 56  1  0
 57 66  1  0
 57 58  1  0
 59 58  1  0
 60 53  2  0
 61 53  1  0
 62 61  1  0
 63 64  2  0
 64 83  1  0
 65 64  1  0
 65 68  1  0
 66 63  1  0
 66 67  1  0
 67 65  2  0
 68 69  1  0
 69 70  2  0
 71 74  1  0
 71 70  1  0
 72 71  2  0
 73 72  1  0
 73 68  2  0
 74 75  1  0
 75 80  2  0
 75 76  1  0
 76 77  2  0
 77 78  1  0
 78 82  1  0
 79 78  2  0
 80 79  1  0
 81 80  1  0
 83 84  1  0
 84 87  1  0
 84 86  1  0
 85 83  2  0
 88 89  1  0
 88 63  1  0
 90 88  1  0
 92 91  1  0
 93 91  2  0
 94 92  2  0
 95 93  1  0
 96 95  2  0
 96 94  1  0
M  ISO  4  10 101  11 101  53 100  61 100
M  END
>  <TORSDO>  (8) 
F 21

>  <SCORE>  (8) 
-9.168

>  <name>  (8) 
7

>  <ligand_id>  (8) 
7

>  <original_smiles>  (8) 
[H]c1c([H])c([H])c(C([H])(c2c([H])c([H])c([H])c(N([H])C([H])([H])C([H])([H])Oc3c([H])c([H])c4c(c3[H])C([H])([H])N(C(=O)C([H])(N([H])C(=O)C([H])(N([H])C([H])([H])[H])C([H])([H])[H])C(C([H])([H])[H])(C([H])([H])[H])C([H])([H])[H])C([H])(C(=O)N([H])C3([H])c5c([H])c([H])c([H])c([H])c5C([H])([H])C([H])([H])C3([H])[H])C4([H])[H])c2[H])N([H])C(=O)N2C([H])([H])C([H])([H])C([H])([H])C([H])(n3nc(-c4c([H])c([H])c(Oc5c([H])c([H])c(F)c([H])c5F)c([H])c4[H])c(C(=O)N([H])[H])c3N([H])[H])C2([H])[H])c([H])c1[H]

>  <smiles>  (8) 
[H]c1c([H])c([H])c(C([H])(c2c([H])c([H])c([H])c(N([H])C([H])([H])C([H])([H])Oc3c([H])c([H])c4c(c3[H])C([H])([H])N(C(=O)C([H])(N([H])C(=O)C([H])(N([H])C([H])([H])[H])C([H])([H])[H])C(C([H])([H])[H])(C([H])([H])[H])C([H])([H])[H])C([H])(C(=O)N([H])C3([H])c5c([H])c([H])c([H])c([H])c5C([H])([H])C([H])([H])C3([H])[H])C4([H])[H])c2[H])N([H])C(=O)N2C([H])([H])C([H])([H])C([H])([H])C([H])(n3nc(-c4c([H])c([H])c(Oc5c([H])c([H])c(F)c([H])c5F)c([H])c4[H])c(C(=O)N([H])[H])c3N([H])[H])C2([H])[H])c([H])c1[H]

$$$$
8:0:0
     RDKit          3D

 93101  0  0  1  0  0  0  0  0999 V2000
  -30.1500  -21.6040   23.5350 C   0  0  0  0  0  2  0  0  0  0  0  0
  -29.3510  -22.5750   22.6570 C   0  0  0  0  0  2  0  0  0  0  0  0
  -29.9330  -20.1600   23.0600 C   0  0  0  0  0  2  0  0  0  0  0  0
  -29.6310  -20.9010   20.7800 C   0  0  0  0  0  2  0  0  0  0  0  0
  -29.7110  -22.4090   21.1610 C   0  0  2  0  0  0  0  0  0  0  0  0
  -30.3620  -19.9710   21.6720 N   0  0  0  0  0  0  0  0  0  0  0  0
  -31.0480  -22.9580   20.8330 C   0  0  0  0  0  0  0  0  0  0  0  0
  -32.0890  -23.4000   20.5690 N   0  0  0  0  0  0  0  0  0  0  0  0
  -30.2090  -18.5740   21.2230 C   0  0  0  0  0  2  0  0  0  0  0  0
  -30.9980  -17.5130   22.0330 C   0  0  0  0  0  2  0  0  0  0  0  0
  -31.6870  -16.4270   21.1780 C   0  0  0  0  0  2  0  0  0  0  0  0
  -31.1990  -14.3600   19.9130 C   0  0  0  0  0  0  0  0  0  0  0  0
  -30.7100  -12.1790   18.8670 C   0  0  0  0  0  2  0  0  0  0  0  0
  -29.7070  -12.3350   17.7100 C   0  0  0  0  0  2  0  0  0  0  0  0
  -28.2620  -12.2580   18.2370 C   0  0  0  0  0  2  0  0  0  0  0  0
  -28.0220  -13.1860   19.4590 C   0  0  0  0  0  3  0  0  0  0  0  0
  -29.1380  -13.0240   20.5150 C   0  0  0  0  0  2  0  0  0  0  0  0
  -30.4370  -13.2360   19.8550 N   0  0  0  0  0  0  0  0  0  0  0  0
  -32.2010  -14.5260   19.2130 O   0  0  0  0  0  0  0  0  0  0  0  0
  -30.8300  -15.2910   20.8070 N   0  0  0  0  0  0  0  0  0  0  0  0
  -29.9940  -15.1190   21.3450 H   0  0  0  0  0  0  0  0  0  0  0  0
  -25.7320  -13.8990   20.3900 C   0  0  0  0  0  0  0  0  0  0  0  0
  -24.6510  -13.1770   20.8180 C   0  0  0  0  0  0  0  0  0  0  0  0
  -25.0230  -11.8020   20.6950 C   0  0  0  0  0  0  0  0  0  0  0  0
  -26.6980  -12.9690   20.0370 N   0  0  0  0  0  0  0  0  0  0  0  0
  -26.2790  -11.7010   20.2770 N   0  0  0  0  0  0  0  0  0  0  0  0
  -24.2370  -10.5780   20.8980 C   0  0  0  0  0  0  0  0  0  0  0  0
  -24.6130   -9.6090   21.8540 C   0  0  0  0  0  3  0  0  0  0  0  0
  -23.8310   -8.4490   22.0420 C   0  0  0  0  0  3  0  0  0  0  0  0
  -22.6580   -8.2500   21.2750 C   0  0  0  0  0  0  0  0  0  0  0  0
  -22.3020   -9.2070   20.3090 C   0  0  0  0  0  3  0  0  0  0  0  0
  -23.0840  -10.3580   20.1170 C   0  0  0  0  0  3  0  0  0  0  0  0
  -21.8520   -7.1410   21.3720 O   0  0  0  0  0  0  0  0  0  0  0  0
  -21.6590   -6.4940   22.5650 C   0  0  0  0  0  0  0  0  0  0  0  0
  -21.0880   -7.1450   23.6810 C   0  0  0  0  0  3  0  0  0  0  0  0
  -20.8420   -6.4230   24.8670 C   0  0  0  0  0  3  0  0  0  0  0  0
  -21.1570   -5.0520   24.9360 C   0  0  0  0  0  0  0  0  0  0  0  0
  -21.7200   -4.4020   23.8240 C   0  0  0  0  0  3  0  0  0  0  0  0
  -21.9660   -5.1210   22.6410 C   0  0  0  0  0  0  0  0  0  0  0  0
  -22.4900   -4.4860   21.5660 F   0  0  0  0  0  0  0  0  0  0  0  0
  -20.9130   -4.3570   26.0720 F   0  0  0  0  0  0  0  0  0  0  0  0
  -23.3140  -13.7230   21.2290 C   0  0  0  0  0  0  0  0  0  0  0  0
  -22.6220  -13.0360   22.1310 N   0  0  0  0  0  0  0  0  0  0  0  0
  -22.8960  -14.7910   20.7830 O   0  0  0  0  0  0  0  0  0  0  0  0
  -22.9750  -12.1700   22.5110 H   0  0  0  0  0  0  0  0  0  0  0  0
  -21.7280  -13.3810   22.4470 H   0  0  0  0  0  0  0  0  0  0  0  0
  -25.9700  -15.2640   20.2530 N   0  0  0  0  0  0  0  0  0  0  0  0
  -25.2660  -15.9640   20.4610 H   0  0  0  0  0  0  0  0  0  0  0  0
  -26.8250  -15.6590   19.8810 H   0  0  0  0  0  0  0  0  0  0  0  0
  -28.7290  -23.0880   20.3590 O   0  0  0  0  0  0  0  0  0  0  0  0
  -28.6510  -24.5120   20.5020 C   0  0  0  0  0  2  0  0  0  0  0  0
  -27.9600  -25.1320   19.2790 C   0  0  0  0  0  2  0  0  0  0  0  0
  -27.9210  -26.5550   19.4180 O   0  0  0  0  0  0  0  0  0  0  0  0
  -24.5860  -31.6130   23.1190 C   0  0  0  0  0  0  0  0  0  0  0  0
  -26.7350  -27.2420   19.5790 C   0  0  0  0  0  0  0  0  0  0  0  0
  -23.1680  -30.3490   21.5300 C   0  0  0  0  0  3  0  0  0  0  0  0
  -24.4100  -28.8280   19.9070 C   0  0  0  0  0  0  0  0  0  0  0  0
  -25.6780  -30.6170   21.1150 C   0  0  0  0  0  2  0  0  0  0  0  0
  -25.6390  -29.2790   20.4040 C   0  0  0  0  0  0  0  0  0  0  0  0
  -26.7990  -28.4930   20.2370 C   0  0  0  0  0  3  0  0  0  0  0  0
  -25.4830  -26.8030   19.0870 C   0  0  0  0  0  3  0  0  0  0  0  0
  -24.3270  -27.5880   19.2520 C   0  0  0  0  0  3  0  0  0  0  0  0
  -23.2180  -29.7320   20.1080 C   0  0  0  0  0  2  0  0  0  0  0  0
  -24.5000  -30.8720   21.9770 N   0  0  0  0  0  0  0  0  0  0  0  0
  -23.5750  -31.9010   23.7710 O   0  0  0  0  0  0  0  0  0  0  0  0
  -22.5600  -29.3090   22.5000 C   0  0  0  0  0  0  0  0  0  0  0  0
  -21.2380  -29.0960   22.3980 N   0  0  0  0  0  0  0  0  0  0  0  0
  -23.2730  -28.6960   23.2980 O   0  0  0  0  0  0  0  0  0  0  0  0
  -20.7210  -29.6410   21.7210 H   0  0  0  0  0  0  0  0  0  0  0  0
  -17.9270  -27.7230   22.8600 C   0  0  0  0  0  0  0  0  0  0  0  0
  -20.4590  -28.1370   23.1810 C   0  0  0  0  0  3  0  0  0  0  0  0
  -20.6580  -26.6960   22.6550 C   0  0  0  0  0  2  0  0  0  0  0  0
  -19.6020  -26.2800   21.6280 C   0  0  0  0  0  2  0  0  0  0  0  0
  -18.1970  -26.3650   22.2340 C   0  0  0  0  0  2  0  0  0  0  0  0
  -18.9900  -28.5600   23.2900 C   0  0  0  0  0  0  0  0  0  0  0  0
  -18.6850  -29.8260   23.8340 C   0  0  0  0  0  3  0  0  0  0  0  0
  -17.3510  -30.2590   23.9520 C   0  0  0  0  0  3  0  0  0  0  0  0
  -16.3020  -29.4190   23.5410 C   0  0  0  0  0  3  0  0  0  0  0  0
  -16.5910  -28.1530   23.0010 C   0  0  0  0  0  3  0  0  0  0  0  0
  -25.9540  -32.1530   23.6400 C   0  0  0  0  0  3  0  0  0  0  0  0
  -25.7420  -33.5400   24.0770 N   0  0  0  0  0  0  0  0  0  0  0  0
  -26.0780  -34.6220   23.3620 C   0  0  0  0  0  0  0  0  0  0  0  0
  -26.6690  -34.5530   22.2810 O   0  0  0  0  0  0  0  0  0  0  0  0
  -25.2130  -33.6710   24.9270 H   0  0  0  0  0  0  0  0  0  0  0  0
  -24.4290  -36.5160   23.2370 C   0  0  0  0  0  1  0  0  0  0  0  0
  -25.6960  -36.0000   23.9360 C   0  0  0  0  0  3  0  0  0  0  0  0
  -27.9200  -36.7240   24.6800 C   0  0  0  0  0  1  0  0  0  0  0  0
  -26.7750  -37.0050   23.8190 N   0  0  0  0  0  0  0  0  0  0  0  0
  -26.4290  -37.9330   24.0460 H   0  0  0  0  0  0  0  0  0  0  0  0
  -26.5640  -31.2840   24.8070 C   0  0  1  0  0  0  0  0  0  0  0  0
  -25.5650  -30.9920   25.9520 C   0  0  0  0  0  1  0  0  0  0  0  0
  -27.0740  -29.9270   24.2680 C   0  0  0  0  0  1  0  0  0  0  0  0
  -27.7910  -32.0070   25.4120 C   0  0  0  0  0  1  0  0  0  0  0  0
  2  1  1  0
  3  1  1  0
  4  5  1  0
  4  6  1  0
  5  7  1  1
  5  2  1  0
  6  3  1  0
  8  7  3  0
  9  6  1  0
  9 10  1  0
 11 10  1  0
 12 20  1  0
 13 18  1  0
 14 15  1  0
 14 13  1  0
 16 15  1  0
 16 25  1  0
 16 17  1  0
 18 12  1  0
 18 17  1  0
 19 12  2  0
 20 11  1  0
 20 21  1  0
 22 23  2  0
 23 42  1  0
 24 23  1  0
 24 27  1  0
 25 26  1  0
 25 22  1  0
 26 24  2  0
 27 28  1  0
 28 29  2  0
 30 33  1  0
 30 29  1  0
 31 30  2  0
 32 31  1  0
 32 27  2  0
 33 34  1  0
 34 39  2  0
 34 35  1  0
 35 36  2  0
 36 37  1  0
 37 41  1  0
 38 37  2  0
 39 38  1  0
 40 39  1  0
 42 43  1  0
 43 46  1  0
 43 45  1  0
 44 42  2  0
 47 22  1  0
 47 48  1  0
 49 47  1  0
 50 51  1  0
 50  5  1  0
 52 53  1  0
 52 51  1  0
 53 55  1  0
 54 65  2  0
 55 60  1  0
 56 64  1  0
 56 66  1  0
 57 63  1  0
 57 59  1  0
 58 64  1  0
 59 58  1  0
 60 59  2  0
 61 62  1  0
 61 55  2  0
 62 57  2  0
 63 56  1  0
 64 54  1  0
 66 68  2  0
 67 66  1  0
 69 67  1  0
 70 79  2  0
 70 75  1  0
 71 67  1  0
 71 75  1  0
 72 71  1  0
 73 74  1  0
 73 72  1  0
 74 70  1  0
 75 76  2  0
 76 77  1  0
 78 77  2  0
 79 78  1  0
 80 54  1  0
 80 81  1  0
 80 90  1  0
 81 84  1  0
 82 86  1  0
 82 81  1  0
 83 82  2  0
 86 85  1  0
 88 86  1  0
 88 89  1  0
 88 87  1  0
 90 93  1  1
 90 91  1  0
 92 90  1  0
M  ISO  4  12 100  20 100  52 101  53 101
M  END
>  <TORSDO>  (9) 
F 23

>  <SCORE>  (9) 
-11.008

>  <name>  (9) 
8

>  <ligand_id>  (9) 
8

>  <original_smiles>  (9) 
[H]c1c([H])c([H])c2c(c1[H])C([H])([H])C([H])([H])C([H])([H])C2([H])N([H])C(=O)C1([H])N(C(=O)C([H])(N([H])C(=O)C([H])(N([H])C([H])([H])[H])C([H])([H])[H])C(C([H])([H])[H])(C([H])([H])[H])C([H])([H])[H])C([H])([H])c2c([H])c(OC([H])([H])C([H])([H])OC3(C#N)C([H])([H])N(C([H])([H])C([H])([H])C([H])([H])N([H])C(=O)N4C([H])([H])C([H])([H])C([H])([H])C([H])(n5nc(-c6c([H])c([H])c(Oc7c([H])c([H])c(F)c([H])c7F)c([H])c6[H])c(C(=O)N([H])[H])c5N([H])[H])C4([H])[H])C([H])([H])C([H])([H])C3([H])[H])c([H])c([H])c2C1([H])[H]

>  <smiles>  (9) 
[H]c1c([H])c([H])c2c(c1[H])C([H])([H])C([H])([H])C([H])([H])C2([H])N([H])C(=O)C1([H])N(C(=O)C([H])(N([H])C(=O)C([H])(N([H])C([H])([H])[H])C([H])([H])[H])C(C([H])([H])[H])(C([H])([H])[H])C([H])([H])[H])C([H])([H])c2c([H])c(OC([H])([H])C([H])([H])OC3(C#N)C([H])([H])N(C([H])([H])C([H])([H])C([H])([H])N([H])C(=O)N4C([H])([H])C([H])([H])C([H])([H])C([H])(n5nc(-c6c([H])c([H])c(Oc7c([H])c([H])c(F)c([H])c7F)c([H])c6[H])c(C(=O)N([H])[H])c5N([H])[H])C4([H])[H])C([H])([H])C([H])([H])C3([H])[H])c([H])c([H])c2C1([H])[H]

$$$$
9:0:0
     RDKit          3D

 97106  0  0  1  0  0  0  0  0999 V2000
  -28.7630  -22.9030   21.3550 C   0  0  0  0  0  2  0  0  0  0  0  0
  -32.1960  -24.0390   20.0370 C   0  0  0  0  0  3  0  0  0  0  0  0
  -31.8620  -25.1930   19.3070 C   0  0  0  0  0  3  0  0  0  0  0  0
  -31.1900  -23.3190   20.7070 C   0  0  0  0  0  3  0  0  0  0  0  0
  -30.5250  -25.6290   19.2640 C   0  0  0  0  0  3  0  0  0  0  0  0
  -29.8400  -23.7370   20.6550 C   0  0  0  0  0  0  0  0  0  0  0  0
  -29.5100  -24.9170   19.9430 C   0  0  0  0  0  0  0  0  0  0  0  0
  -28.0780  -25.4330   19.8780 C   0  0  0  0  0  2  0  0  0  0  0  0
  -28.0580  -26.8140   19.5830 O   0  0  0  0  0  0  0  0  0  0  0  0
  -24.4670  -31.7790   23.1090 C   0  0  0  0  0  0  0  0  0  0  0  0
  -26.8560  -27.4620   19.7090 C   0  0  0  0  0  0  0  0  0  0  0  0
  -23.1290  -30.4320   21.5190 C   0  0  0  0  0  3  0  0  0  0  0  0
  -24.4630  -28.9230   19.9550 C   0  0  0  0  0  0  0  0  0  0  0  0
  -25.6300  -30.7970   21.1400 C   0  0  0  0  0  2  0  0  0  0  0  0
  -25.6590  -29.4460   20.4610 C   0  0  0  0  0  0  0  0  0  0  0  0
  -26.8580  -28.7240   20.3320 C   0  0  0  0  0  3  0  0  0  0  0  0
  -25.6440  -26.9290   19.2160 C   0  0  0  0  0  3  0  0  0  0  0  0
  -24.4470  -27.6600   19.3360 C   0  0  0  0  0  3  0  0  0  0  0  0
  -23.2290  -29.7810   20.1120 C   0  0  0  0  0  2  0  0  0  0  0  0
  -24.4310  -31.0160   21.9810 N   0  0  0  0  0  0  0  0  0  0  0  0
  -23.4330  -32.0420   23.7370 O   0  0  0  0  0  0  0  0  0  0  0  0
  -22.5440  -29.3890   22.4970 C   0  0  0  0  0  0  0  0  0  0  0  0
  -21.2310  -29.1360   22.3840 N   0  0  0  0  0  0  0  0  0  0  0  0
  -23.2670  -28.8080   23.3110 O   0  0  0  0  0  0  0  0  0  0  0  0
  -20.7050  -29.6630   21.7000 H   0  0  0  0  0  0  0  0  0  0  0  0
  -17.9570  -27.6810   22.8260 C   0  0  0  0  0  0  0  0  0  0  0  0
  -20.4710  -28.1640   23.1700 C   0  0  0  0  0  3  0  0  0  0  0  0
  -20.7140  -26.7230   22.6630 C   0  0  0  0  0  2  0  0  0  0  0  0
  -19.6810  -26.2690   21.6270 C   0  0  0  0  0  2  0  0  0  0  0  0
  -18.2690  -26.3240   22.2190 C   0  0  0  0  0  2  0  0  0  0  0  0
  -18.9900  -28.5520   23.2580 C   0  0  0  0  0  0  0  0  0  0  0  0
  -18.6460  -29.8190   23.7790 C   0  0  0  0  0  3  0  0  0  0  0  0
  -17.3000  -30.2150   23.8760 C   0  0  0  0  0  3  0  0  0  0  0  0
  -16.2800  -29.3410   23.4620 C   0  0  0  0  0  3  0  0  0  0  0  0
  -16.6080  -28.0770   22.9430 C   0  0  0  0  0  3  0  0  0  0  0  0
  -25.8030  -32.3800   23.6500 C   0  0  0  0  0  3  0  0  0  0  0  0
  -26.4110  -31.5630   24.8550 C   0  0  1  0  0  0  0  0  0  0  0  0
  -25.4030  -31.2920   25.9960 C   0  0  0  0  0  1  0  0  0  0  0  0
  -26.9520  -30.1990   24.3680 C   0  0  0  0  0  1  0  0  0  0  0  0
  -27.6140  -32.3280   25.4540 C   0  0  0  0  0  1  0  0  0  0  0  0
  -25.5330  -33.7680   24.0470 N   0  0  0  0  0  0  0  0  0  0  0  0
  -25.8670  -34.8440   23.3220 C   0  0  0  0  0  0  0  0  0  0  0  0
  -26.5060  -34.7700   22.2690 O   0  0  0  0  0  0  0  0  0  0  0  0
  -24.9640  -33.8990   24.8700 H   0  0  0  0  0  0  0  0  0  0  0  0
  -24.1800  -36.6900   23.0670 C   0  0  0  0  0  1  0  0  0  0  0  0
  -25.4180  -36.2200   23.8480 C   0  0  0  0  0  3  0  0  0  0  0  0
  -27.5840  -37.0090   24.6920 C   0  0  0  0  0  1  0  0  0  0  0  0
  -26.4750  -37.2520   23.7740 N   0  0  0  0  0  0  0  0  0  0  0  0
  -26.0950  -38.1730   23.9760 H   0  0  0  0  0  0  0  0  0  0  0  0
  -29.1920  -20.7720   20.2070 C   0  0  0  0  0  0  0  0  0  0  0  0
  -29.0270  -21.4750   21.3310 N   0  0  0  0  0  0  0  0  0  0  0  0
  -29.1410  -21.2600   19.0770 O   0  0  0  0  0  0  0  0  0  0  0  0
  -29.1080  -20.9910   22.2150 H   0  0  0  0  0  0  0  0  0  0  0  0
  -28.7800  -18.5320   21.3030 C   0  0  0  0  0  3  0  0  0  0  0  0
  -30.5540  -18.7490   19.6460 C   0  0  0  0  0  3  0  0  0  0  0  0
  -29.0670  -17.1620   21.4320 C   0  0  0  0  0  3  0  0  0  0  0  0
  -30.8500  -17.3840   19.7800 C   0  0  0  0  0  3  0  0  0  0  0  0
  -29.5200  -19.3300   20.4040 C   0  0  0  0  0  0  0  0  0  0  0  0
  -30.0940  -16.5740   20.6620 C   0  0  0  0  0  0  0  0  0  0  0  0
  -30.7780  -14.3430   19.8790 C   0  0  0  0  0  0  0  0  0  0  0  0
  -30.3450  -12.2620   18.6450 C   0  0  0  0  0  2  0  0  0  0  0  0
  -29.2880  -12.5360   17.5560 C   0  0  0  0  0  2  0  0  0  0  0  0
  -27.8610  -12.3930   18.1210 C   0  0  0  0  0  2  0  0  0  0  0  0
  -27.6610  -13.1770   19.4440 C   0  0  0  0  0  3  0  0  0  0  0  0
  -28.8110  -12.8690   20.4290 C   0  0  0  0  0  2  0  0  0  0  0  0
  -30.0900  -13.1800   19.7630 N   0  0  0  0  0  0  0  0  0  0  0  0
  -31.7770  -14.6100   19.2020 O   0  0  0  0  0  0  0  0  0  0  0  0
  -30.2780  -15.1770   20.7970 N   0  0  0  0  0  0  0  0  0  0  0  0
  -29.6210  -14.7270   21.4150 H   0  0  0  0  0  0  0  0  0  0  0  0
  -25.3340  -13.7750   20.3830 C   0  0  0  0  0  0  0  0  0  0  0  0
  -24.3050  -12.9930   20.8360 C   0  0  0  0  0  0  0  0  0  0  0  0
  -24.7580  -11.6430   20.7310 C   0  0  0  0  0  0  0  0  0  0  0  0
  -26.3540  -12.8980   20.0370 N   0  0  0  0  0  0  0  0  0  0  0  0
  -26.0120  -11.6100   20.2980 N   0  0  0  0  0  0  0  0  0  0  0  0
  -24.0530  -10.3770   20.9660 C   0  0  0  0  0  0  0  0  0  0  0  0
  -24.5090   -9.4430   21.9240 C   0  0  0  0  0  3  0  0  0  0  0  0
  -23.8040   -8.2410   22.1430 C   0  0  0  0  0  3  0  0  0  0  0  0
  -22.6300   -7.9620   21.4040 C   0  0  0  0  0  0  0  0  0  0  0  0
  -22.1940   -8.8830   20.4360 C   0  0  0  0  0  3  0  0  0  0  0  0
  -22.8990  -10.0770   20.2150 C   0  0  0  0  0  3  0  0  0  0  0  0
  -21.8950   -6.8070   21.5320 O   0  0  0  0  0  0  0  0  0  0  0  0
  -21.7920   -6.1480   22.7310 C   0  0  0  0  0  0  0  0  0  0  0  0
  -21.2680   -6.7740   23.8830 C   0  0  0  0  0  3  0  0  0  0  0  0
  -21.1150   -6.0390   25.0750 C   0  0  0  0  0  3  0  0  0  0  0  0
  -21.4750   -4.6790   25.1160 C   0  0  0  0  0  0  0  0  0  0  0  0
  -21.9900   -4.0520   23.9680 C   0  0  0  0  0  3  0  0  0  0  0  0
  -22.1450   -4.7840   22.7780 C   0  0  0  0  0  0  0  0  0  0  0  0
  -22.6230   -4.1700   21.6690 F   0  0  0  0  0  0  0  0  0  0  0  0
  -21.3190   -3.9700   26.2590 F   0  0  0  0  0  0  0  0  0  0  0  0
  -22.9410  -13.4640   21.2540 C   0  0  0  0  0  0  0  0  0  0  0  0
  -22.3130  -12.7660   22.1940 N   0  0  0  0  0  0  0  0  0  0  0  0
  -22.4430  -14.4840   20.7800 O   0  0  0  0  0  0  0  0  0  0  0  0
  -22.7290  -11.9410   22.5990 H   0  0  0  0  0  0  0  0  0  0  0  0
  -21.4030  -13.0640   22.5150 H   0  0  0  0  0  0  0  0  0  0  0  0
  -25.4850  -15.1490   20.2210 N   0  0  0  0  0  0  0  0  0  0  0  0
  -24.7370  -15.8030   20.4250 H   0  0  0  0  0  0  0  0  0  0  0  0
  -26.3120  -15.5980   19.8490 H   0  0  0  0  0  0  0  0  0  0  0  0
  2  4  1  0
  3  2  2  0
  5  3  1  0
  5  7  2  0
  6  4  2  0
  6  1  1  0
  7  6  1  0
  8  7  1  0
  9 11  1  0
  9  8  1  0
 10 21  2  0
 11 16  1  0
 12 20  1  0
 12 22  1  0
 13 19  1  0
 13 15  1  0
 14 20  1  0
 15 14  1  0
 16 15  2  0
 17 18  1  0
 17 11  2  0
 18 13  2  0
 19 12  1  0
 20 10  1  0
 22 24  2  0
 23 22  1  0
 25 23  1  0
 26 35  2  0
 26 31  1  0
 27 23  1  0
 27 31  1  0
 28 27  1  0
 29 30  1  0
 29 28  1  0
 30 26  1  0
 31 32  2  0
 32 33  1  0
 34 33  2  0
 35 34  1  0
 36 10  1  0
 36 41  1  0
 36 37  1  0
 37 40  1  1
 37 38  1  0
 39 37  1  0
 41 44  1  0
 42 46  1  0
 42 41  1  0
 43 42  2  0
 46 45  1  0
 48 46  1  0
 48 49  1  0
 48 47  1  0
 50 58  1  0
 50 51  1  0
 51  1  1  0
 51 53  1  0
 52 50  2  0
 54 56  1  0
 55 57  2  0
 55 58  1  0
 57 59  1  0
 58 54  2  0
 59 68  1  0
 59 56  2  0
 60 68  1  0
 61 66  1  0
 62 63  1  0
 62 61  1  0
 64 63  1  0
 64 73  1  0
 64 65  1  0
 66 60  1  0
 66 65  1  0
 67 60  2  0
 68 69  1  0
 70 71  2  0
 71 90  1  0
 72 71  1  0
 72 75  1  0
 73 74  1  0
 73 70  1  0
 74 72  2  0
 75 76  1  0
 76 77  2  0
 78 81  1  0
 78 77  1  0
 79 78  2  0
 80 79  1  0
 80 75  2  0
 81 82  1  0
 82 87  2  0
 82 83  1  0
 83 84  2  0
 84 85  1  0
 85 89  1  0
 86 85  2  0
 87 86  1  0
 88 87  1  0
 90 91  1  0
 91 94  1  0
 91 93  1  0
 92 90  2  0
 95 70  1  0
 95 96  1  0
 97 95  1  0
M  ISO  4   8 101   9 101  60 100  68 100
M  END
>  <TORSDO>  (10) 
F 20

>  <SCORE>  (10) 
-12.322

>  <name>  (10) 
9

>  <ligand_id>  (10) 
9

>  <original_smiles>  (10) 
[H]c1c([H])c([H])c(C([H])([H])N([H])C(=O)c2c([H])c([H])c(N([H])C(=O)N3C([H])([H])C([H])([H])C([H])([H])C([H])(n4nc(-c5c([H])c([H])c(Oc6c([H])c([H])c(F)c([H])c6F)c([H])c5[H])c(C(=O)N([H])[H])c4N([H])[H])C3([H])[H])c([H])c2[H])c(C([H])([H])Oc2c([H])c([H])c3c(c2[H])C([H])([H])N(C(=O)C([H])(N([H])C(=O)C([H])(N([H])C([H])([H])[H])C([H])([H])[H])C(C([H])([H])[H])(C([H])([H])[H])C([H])([H])[H])C([H])(C(=O)N([H])C2([H])c4c([H])c([H])c([H])c([H])c4C([H])([H])C([H])([H])C2([H])[H])C3([H])[H])c1[H]

>  <smiles>  (10) 
[H]c1c([H])c([H])c(C([H])([H])N([H])C(=O)c2c([H])c([H])c(N([H])C(=O)N3C([H])([H])C([H])([H])C([H])([H])C([H])(n4nc(-c5c([H])c([H])c(Oc6c([H])c([H])c(F)c([H])c6F)c([H])c5[H])c(C(=O)N([H])[H])c4N([H])[H])C3([H])[H])c([H])c2[H])c(C([H])([H])Oc2c([H])c([H])c3c(c2[H])C([H])([H])N(C(=O)C([H])(N([H])C(=O)C([H])(N([H])C([H])([H])[H])C([H])([H])[H])C(C([H])([H])[H])(C([H])([H])[H])C([H])([H])[H])C([H])(C(=O)N([H])C2([H])c4c([H])c([H])c([H])c([H])c4C([H])([H])C([H])([H])C2([H])[H])C3([H])[H])c1[H]

$$$$
10:0:0
     RDKit          3D

 93102  0  0  1  0  0  0  0  0999 V2000
  -30.1630  -23.9330   19.9010 C   0  0  0  0  0  3  0  0  0  0  0  0
  -30.7880  -22.6610   19.7160 C   0  0  0  0  0  3  0  0  0  0  0  0
  -28.0890  -22.8220   20.5440 C   0  0  0  0  0  3  0  0  0  0  0  0
  -28.8190  -24.0350   20.3710 C   0  0  0  0  0  0  0  0  0  0  0  0
  -30.0410  -21.4820   19.9710 C   0  0  0  0  0  0  0  0  0  0  0  0
  -28.7090  -21.5720   20.3260 C   0  0  0  0  0  0  0  0  0  0  0  0
  -29.0970  -17.9070   20.5010 C   0  0  0  0  0  0  0  0  0  0  0  0
  -30.4680  -20.0150   19.9560 C   0  0  0  0  0  3  0  0  0  0  0  0
  -28.1080  -20.1930   20.4690 C   0  0  0  0  0  3  0  0  0  0  0  0
  -29.2410  -19.2510   20.3140 N   0  0  0  0  0  0  0  0  0  0  0  0
  -27.9840  -17.4020   20.7030 O   0  0  0  0  0  0  0  0  0  0  0  0
  -28.1190  -25.3140   20.8140 C   0  0  0  0  0  0  0  0  0  0  0  0
  -27.3080  -25.2540   21.7470 O   0  0  0  0  0  0  0  0  0  0  0  0
  -28.3250  -26.5120   20.1060 O   0  0  0  0  0  0  0  0  0  0  0  0
  -24.6050  -31.8560   23.2110 C   0  0  0  0  0  0  0  0  0  0  0  0
  -27.2400  -27.3890   20.0840 C   0  0  0  0  0  0  0  0  0  0  0  0
  -23.4020  -30.4720   21.5590 C   0  0  0  0  0  3  0  0  0  0  0  0
  -24.8600  -28.9510   20.1150 C   0  0  0  0  0  0  0  0  0  0  0  0
  -25.9420  -30.8120   21.3770 C   0  0  0  0  0  2  0  0  0  0  0  0
  -26.0300  -29.4510   20.7060 C   0  0  0  0  0  0  0  0  0  0  0  0
  -27.2280  -28.6820   20.6810 C   0  0  0  0  0  3  0  0  0  0  0  0
  -26.0490  -26.9320   19.4770 C   0  0  0  0  0  3  0  0  0  0  0  0
  -24.8680  -27.6920   19.4960 C   0  0  0  0  0  3  0  0  0  0  0  0
  -23.6190  -29.8180   20.1700 C   0  0  0  0  0  2  0  0  0  0  0  0
  -24.6690  -31.0620   22.1050 N   0  0  0  0  0  0  0  0  0  0  0  0
  -23.5240  -32.1260   23.7480 O   0  0  0  0  0  0  0  0  0  0  0  0
  -22.7500  -29.4390   22.5080 C   0  0  0  0  0  0  0  0  0  0  0  0
  -21.4230  -29.2720   22.3930 N   0  0  0  0  0  0  0  0  0  0  0  0
  -23.4360  -28.7920   23.3050 O   0  0  0  0  0  0  0  0  0  0  0  0
  -20.9300  -29.8440   21.7230 H   0  0  0  0  0  0  0  0  0  0  0  0
  -18.0370  -28.1040   22.9030 C   0  0  0  0  0  0  0  0  0  0  0  0
  -20.6010  -28.3270   23.1510 C   0  0  0  0  0  3  0  0  0  0  0  0
  -20.6790  -26.9050   22.5470 C   0  0  0  0  0  2  0  0  0  0  0  0
  -19.5610  -26.6140   21.5400 C   0  0  0  0  0  2  0  0  0  0  0  0
  -18.1900  -26.7660   22.2000 C   0  0  0  0  0  2  0  0  0  0  0  0
  -19.1710  -28.8450   23.3340 C   0  0  0  0  0  0  0  0  0  0  0  0
  -18.9770  -30.0990   23.9530 C   0  0  0  0  0  3  0  0  0  0  0  0
  -17.6800  -30.6140   24.1460 C   0  0  0  0  0  3  0  0  0  0  0  0
  -16.5620  -29.8700   23.7340 C   0  0  0  0  0  3  0  0  0  0  0  0
  -16.7420  -28.6170   23.1190 C   0  0  0  0  0  3  0  0  0  0  0  0
  -25.8870  -32.4820   23.8390 C   0  0  0  0  0  3  0  0  0  0  0  0
  -25.5810  -33.8770   24.1820 N   0  0  0  0  0  0  0  0  0  0  0  0
  -25.9090  -34.9340   23.4260 C   0  0  0  0  0  0  0  0  0  0  0  0
  -26.5710  -34.8370   22.3900 O   0  0  0  0  0  0  0  0  0  0  0  0
  -25.0070  -34.0300   24.9980 H   0  0  0  0  0  0  0  0  0  0  0  0
  -24.1690  -36.7180   23.0980 C   0  0  0  0  0  1  0  0  0  0  0  0
  -25.4190  -36.3180   23.8970 C   0  0  0  0  0  3  0  0  0  0  0  0
  -27.5570  -37.2000   24.7160 C   0  0  0  0  0  1  0  0  0  0  0  0
  -26.4470  -37.3750   23.7840 N   0  0  0  0  0  0  0  0  0  0  0  0
  -26.0380  -38.2880   23.9540 H   0  0  0  0  0  0  0  0  0  0  0  0
  -26.4020  -31.7000   25.1100 C   0  0  1  0  0  0  0  0  0  0  0  0
  -25.3040  -31.4600   26.1740 C   0  0  0  0  0  1  0  0  0  0  0  0
  -26.9820  -30.3270   24.7010 C   0  0  0  0  0  1  0  0  0  0  0  0
  -27.5540  -32.4870   25.7790 C   0  0  0  0  0  1  0  0  0  0  0  0
  -30.3170  -16.9570   20.5070 C   0  0  0  0  0  2  0  0  0  0  0  0
  -30.6170  -14.4850   20.0920 C   0  0  0  0  0  0  0  0  0  0  0  0
  -30.2800  -12.2960   18.9970 C   0  0  0  0  0  2  0  0  0  0  0  0
  -29.2660  -12.4510   17.8450 C   0  0  0  0  0  2  0  0  0  0  0  0
  -27.8160  -12.3330   18.3580 C   0  0  0  0  0  2  0  0  0  0  0  0
  -27.5530  -13.1970   19.6200 C   0  0  0  0  0  3  0  0  0  0  0  0
  -28.6670  -12.9930   20.6700 C   0  0  0  0  0  2  0  0  0  0  0  0
  -29.9500  -13.2990   20.0230 N   0  0  0  0  0  0  0  0  0  0  0  0
  -31.7250  -14.6530   19.5720 O   0  0  0  0  0  0  0  0  0  0  0  0
  -29.9320  -15.5260   20.6080 N   0  0  0  0  0  0  0  0  0  0  0  0
  -29.0080  -15.3470   20.9780 H   0  0  0  0  0  0  0  0  0  0  0  0
  -25.2120  -13.8340   20.4810 C   0  0  0  0  0  0  0  0  0  0  0  0
  -24.1490  -13.0740   20.8850 C   0  0  0  0  0  0  0  0  0  0  0  0
  -24.5810  -11.7150   20.7990 C   0  0  0  0  0  0  0  0  0  0  0  0
  -26.2250  -12.9380   20.1740 N   0  0  0  0  0  0  0  0  0  0  0  0
  -25.8520  -11.6580   20.4210 N   0  0  0  0  0  0  0  0  0  0  0  0
  -23.8400  -10.4640   21.0050 C   0  0  0  0  0  0  0  0  0  0  0  0
  -24.3030   -9.4740   21.9010 C   0  0  0  0  0  3  0  0  0  0  0  0
  -23.5660   -8.2850   22.0960 C   0  0  0  0  0  3  0  0  0  0  0  0
  -22.3540   -8.0790   21.3970 C   0  0  0  0  0  0  0  0  0  0  0  0
  -21.9090   -9.0570   20.4910 C   0  0  0  0  0  3  0  0  0  0  0  0
  -22.6450  -10.2380   20.2950 C   0  0  0  0  0  3  0  0  0  0  0  0
  -21.5830   -6.9470   21.5060 O   0  0  0  0  0  0  0  0  0  0  0  0
  -21.5720   -6.1900   22.6490 C   0  0  0  0  0  0  0  0  0  0  0  0
  -21.2150   -6.7350   23.9020 C   0  0  0  0  0  3  0  0  0  0  0  0
  -21.1510   -5.9050   25.0390 C   0  0  0  0  0  3  0  0  0  0  0  0
  -21.4330   -4.5310   24.9240 C   0  0  0  0  0  0  0  0  0  0  0  0
  -21.7830   -3.9850   23.6780 C   0  0  0  0  0  3  0  0  0  0  0  0
  -21.8520   -4.8130   22.5420 C   0  0  0  0  0  0  0  0  0  0  0  0
  -22.1690   -4.2770   21.3390 F   0  0  0  0  0  0  0  0  0  0  0  0
  -21.3640   -3.7310   26.0140 F   0  0  0  0  0  0  0  0  0  0  0  0
  -22.7790  -13.5710   21.2460 C   0  0  0  0  0  0  0  0  0  0  0  0
  -22.0890  -12.8720   22.1410 N   0  0  0  0  0  0  0  0  0  0  0  0
  -22.3320  -14.6170   20.7750 O   0  0  0  0  0  0  0  0  0  0  0  0
  -22.4590  -12.0250   22.5410 H   0  0  0  0  0  0  0  0  0  0  0  0
  -21.1760  -13.1910   22.4300 H   0  0  0  0  0  0  0  0  0  0  0  0
  -25.3980  -15.2070   20.3450 N   0  0  0  0  0  0  0  0  0  0  0  0
  -24.6760  -15.8680   20.6100 H   0  0  0  0  0  0  0  0  0  0  0  0
  -26.2910  -15.6550   20.1690 H   0  0  0  0  0  0  0  0  0  0  0  0
  1  4  1  0
  2  1  2  0
  2  5  1  0
  4  3  2  0
  4 12  1  0
  5  6  1  0
  6  9  2  0
  6  3  1  0
  7 55  1  0
  7 11  2  0
  8  5  2  0
  8 10  1  0
 10  9  1  0
 10  7  1  0
 12 13  2  0
 14 12  1  0
 15 26  2  0
 16 14  1  0
 16 21  1  0
 17 25  1  0
 17 27  1  0
 18 24  1  0
 18 20  1  0
 19 25  1  0
 20 19  1  0
 21 20  2  0
 22 23  1  0
 22 16  2  0
 23 18  2  0
 24 17  1  0
 25 15  1  0
 27 29  2  0
 28 27  1  0
 30 28  1  0
 31 40  2  0
 31 36  1  0
 32 28  1  0
 32 36  1  0
 33 32  1  0
 34 35  1  0
 34 33  1  0
 35 31  1  0
 36 37  2  0
 37 38  1  0
 39 38  2  0
 40 39  1  0
 41 15  1  0
 41 42  1  0
 41 51  1  0
 42 45  1  0
 43 47  1  0
 43 42  1  0
 44 43  2  0
 47 46  1  0
 49 47  1  0
 49 50  1  0
 49 48  1  0
 51 54  1  1
 51 52  1  0
 53 51  1  0
 55 64  1  0
 56 64  1  0
 57 62  1  0
 58 59  1  0
 58 57  1  0
 60 59  1  0
 60 69  1  0
 60 61  1  0
 62 56  1  0
 62 61  1  0
 63 56  2  0
 64 65  1  0
 66 67  2  0
 67 86  1  0
 68 67  1  0
 68 71  1  0
 69 70  1  0
 69 66  1  0
 70 68  2  0
 71 72  1  0
 72 73  2  0
 74 77  1  0
 74 73  1  0
 75 74  2  0
 76 75  1  0
 76 71  2  0
 77 78  1  0
 78 79  1  0
 79 80  2  0
 81 80  1  0
 81 85  1  0
 82 81  2  0
 83 78  2  0
 83 82  1  0
 84 83  1  0
 86 87  1  0
 87 90  1  0
 87 89  1  0
 88 86  2  0
 91 66  1  0
 91 92  1  0
 93 91  1  0
M  ISO  4  12 101  14 101  56 100  64 100
M  END
>  <TORSDO>  (11) 
F 18

>  <SCORE>  (11) 
-14.776

>  <name>  (11) 
10

>  <ligand_id>  (11) 
10

>  <original_smiles>  (11) 
[H]c1c([H])c([H])c2c(c1[H])C([H])([H])C([H])([H])C([H])([H])C2([H])N([H])C(=O)C1([H])N(C(=O)C([H])(N([H])C(=O)C([H])(N([H])C([H])([H])[H])C([H])([H])[H])C(C([H])([H])[H])(C([H])([H])[H])C([H])([H])[H])C([H])([H])c2c([H])c(OC(=O)c3c([H])c([H])c4c(c3[H])C([H])([H])N(C(=O)C([H])([H])N([H])C(=O)N3C([H])([H])C([H])([H])C([H])([H])C([H])(n5nc(-c6c([H])c([H])c(Oc7c([H])c([H])c(F)c([H])c7F)c([H])c6[H])c(C(=O)N([H])[H])c5N([H])[H])C3([H])[H])C4([H])[H])c([H])c([H])c2C1([H])[H]

>  <smiles>  (11) 
[H]c1c([H])c([H])c2c(c1[H])C([H])([H])C([H])([H])C([H])([H])C2([H])N([H])C(=O)C1([H])N(C(=O)C([H])(N([H])C(=O)C([H])(N([H])C([H])([H])[H])C([H])([H])[H])C(C([H])([H])[H])(C([H])([H])[H])C([H])([H])[H])C([H])([H])c2c([H])c(OC(=O)c3c([H])c([H])c4c(c3[H])C([H])([H])N(C(=O)C([H])([H])N([H])C(=O)N3C([H])([H])C([H])([H])C([H])([H])C([H])(n5nc(-c6c([H])c([H])c(Oc7c([H])c([H])c(F)c([H])c7F)c([H])c6[H])c(C(=O)N([H])[H])c5N([H])[H])C3([H])[H])C4([H])[H])c([H])c([H])c2C1([H])[H]

$$$$
11:0:0
     RDKit          3D

 97105  0  0  1  0  0  0  0  0999 V2000
  -31.0390  -17.9630   18.5510 C   0  0  0  0  0  3  0  0  0  0  0  0
  -31.7480  -18.8020   17.6630 C   0  0  0  0  0  3  0  0  0  0  0  0
  -30.9820  -20.7220   18.8950 C   0  0  0  0  0  3  0  0  0  0  0  0
  -30.3190  -18.4670   19.6680 C   0  0  0  0  0  0  0  0  0  0  0  0
  -30.1870  -19.9360   19.7560 C   0  0  0  0  0  0  0  0  0  0  0  0
  -31.7820  -20.1960   17.8710 C   0  0  0  0  0  0  0  0  0  0  0  0
  -29.3080  -20.8340   20.7070 C   0  0  0  0  0  2  0  0  0  0  0  0
  -28.6090  -22.1760   20.1040 C   0  0  0  0  0  2  0  0  0  0  0  0
  -29.0460  -23.7000   20.4570 C   0  0  0  0  0  3  0  0  0  0  0  0
  -28.0190  -24.8910   20.0730 C   0  0  0  0  0  3  0  0  0  0  0  0
  -28.2880  -26.3570   20.2760 O   0  0  0  0  0  0  0  0  0  0  0  0
  -24.6010  -31.8670   23.2410 C   0  0  0  0  0  0  0  0  0  0  0  0
  -27.1950  -27.2570   20.2050 C   0  0  0  0  0  0  0  0  0  0  0  0
  -23.3950  -30.4720   21.6040 C   0  0  0  0  0  3  0  0  0  0  0  0
  -24.8410  -28.9090   20.1840 C   0  0  0  0  0  0  0  0  0  0  0  0
  -25.9380  -30.7700   21.4220 C   0  0  0  0  0  2  0  0  0  0  0  0
  -26.0150  -29.3850   20.7830 C   0  0  0  0  0  0  0  0  0  0  0  0
  -27.1940  -28.5710   20.7870 C   0  0  0  0  0  3  0  0  0  0  0  0
  -25.9980  -26.8570   19.5670 C   0  0  0  0  0  3  0  0  0  0  0  0
  -24.8390  -27.6510   19.5690 C   0  0  0  0  0  3  0  0  0  0  0  0
  -23.6100  -29.7930   20.2250 C   0  0  0  0  0  2  0  0  0  0  0  0
  -24.6650  -31.0540   22.1440 N   0  0  0  0  0  0  0  0  0  0  0  0
  -23.5190  -32.1470   23.7740 O   0  0  0  0  0  0  0  0  0  0  0  0
  -22.7240  -29.4590   22.5650 C   0  0  0  0  0  0  0  0  0  0  0  0
  -21.3960  -29.2880   22.4390 N   0  0  0  0  0  0  0  0  0  0  0  0
  -23.3990  -28.8320   23.3850 O   0  0  0  0  0  0  0  0  0  0  0  0
  -20.9070  -29.8520   21.7560 H   0  0  0  0  0  0  0  0  0  0  0  0
  -18.0180  -28.0940   22.9420 C   0  0  0  0  0  0  0  0  0  0  0  0
  -20.5770  -28.3540   23.2120 C   0  0  0  0  0  3  0  0  0  0  0  0
  -20.6770  -26.9170   22.6450 C   0  0  0  0  0  2  0  0  0  0  0  0
  -19.5760  -26.5910   21.6320 C   0  0  0  0  0  2  0  0  0  0  0  0
  -18.1930  -26.7420   22.2720 C   0  0  0  0  0  2  0  0  0  0  0  0
  -19.1370  -28.8560   23.3710 C   0  0  0  0  0  0  0  0  0  0  0  0
  -18.9200  -30.1210   23.9590 C   0  0  0  0  0  3  0  0  0  0  0  0
  -17.6160  -30.6270   24.1160 C   0  0  0  0  0  3  0  0  0  0  0  0
  -16.5110  -29.8620   23.7040 C   0  0  0  0  0  3  0  0  0  0  0  0
  -16.7120  -28.5960   23.1260 C   0  0  0  0  0  3  0  0  0  0  0  0
  -25.8860  -32.4970   23.8620 C   0  0  0  0  0  3  0  0  0  0  0  0
  -26.4010  -31.7260   25.1390 C   0  0  1  0  0  0  0  0  0  0  0  0
  -25.3070  -31.4950   26.2090 C   0  0  0  0  0  1  0  0  0  0  0  0
  -26.9810  -30.3470   24.7500 C   0  0  0  0  0  1  0  0  0  0  0  0
  -27.5530  -32.5190   25.7980 C   0  0  0  0  0  1  0  0  0  0  0  0
  -25.5780  -33.8950   24.1950 N   0  0  0  0  0  0  0  0  0  0  0  0
  -25.9050  -34.9500   23.4380 C   0  0  0  0  0  0  0  0  0  0  0  0
  -26.5670  -34.8460   22.4010 O   0  0  0  0  0  0  0  0  0  0  0  0
  -24.9920  -34.0510   25.0030 H   0  0  0  0  0  0  0  0  0  0  0  0
  -24.1760  -36.7470   23.0980 C   0  0  0  0  0  1  0  0  0  0  0  0
  -25.4240  -36.3390   23.8990 C   0  0  0  0  0  3  0  0  0  0  0  0
  -27.5660  -37.2230   24.7090 C   0  0  0  0  0  1  0  0  0  0  0  0
  -26.4550  -37.3910   23.7750 N   0  0  0  0  0  0  0  0  0  0  0  0
  -26.0520  -38.3110   23.9270 H   0  0  0  0  0  0  0  0  0  0  0  0
  -29.8930  -17.3790   20.7420 C   0  0  0  0  0  2  0  0  0  0  0  0
  -30.5590  -14.7640   20.3770 C   0  0  0  0  0  0  0  0  0  0  0  0
  -30.3780  -12.4840   19.3670 C   0  0  0  0  0  2  0  0  0  0  0  0
  -29.4360  -12.5590   18.1460 C   0  0  0  0  0  2  0  0  0  0  0  0
  -27.9640  -12.3870   18.5740 C   0  0  0  0  0  2  0  0  0  0  0  0
  -27.5860  -13.2620   19.8000 C   0  0  0  0  0  3  0  0  0  0  0  0
  -28.6490  -13.1700   20.9130 C   0  0  0  0  0  2  0  0  0  0  0  0
  -29.9420  -13.5320   20.3110 N   0  0  0  0  0  0  0  0  0  0  0  0
  -31.7670  -14.8680   20.1590 O   0  0  0  0  0  0  0  0  0  0  0  0
  -29.7290  -15.8730   20.4590 N   0  0  0  0  0  0  0  0  0  0  0  0
  -28.7610  -15.5920   20.4740 H   0  0  0  0  0  0  0  0  0  0  0  0
  -25.2000  -13.8620   20.5190 C   0  0  0  0  0  0  0  0  0  0  0  0
  -24.1300  -13.0930   20.8890 C   0  0  0  0  0  0  0  0  0  0  0  0
  -24.5900  -11.7400   20.8640 C   0  0  0  0  0  0  0  0  0  0  0  0
  -26.2430  -12.9770   20.2910 N   0  0  0  0  0  0  0  0  0  0  0  0
  -25.8800  -11.6950   20.5560 N   0  0  0  0  0  0  0  0  0  0  0  0
  -23.8580  -10.4810   21.0580 C   0  0  0  0  0  0  0  0  0  0  0  0
  -24.2920   -9.5100   21.9880 C   0  0  0  0  0  3  0  0  0  0  0  0
  -23.5610   -8.3170   22.1700 C   0  0  0  0  0  3  0  0  0  0  0  0
  -22.3820   -8.0850   21.4230 C   0  0  0  0  0  0  0  0  0  0  0  0
  -21.9680   -9.0450   20.4820 C   0  0  0  0  0  3  0  0  0  0  0  0
  -22.6990  -10.2300   20.2980 C   0  0  0  0  0  3  0  0  0  0  0  0
  -21.6260   -6.9420   21.5110 O   0  0  0  0  0  0  0  0  0  0  0  0
  -21.5910   -6.1880   22.6560 C   0  0  0  0  0  0  0  0  0  0  0  0
  -21.2040   -6.7360   23.8960 C   0  0  0  0  0  3  0  0  0  0  0  0
  -21.1180   -5.9090   25.0360 C   0  0  0  0  0  3  0  0  0  0  0  0
  -21.4070   -4.5360   24.9320 C   0  0  0  0  0  0  0  0  0  0  0  0
  -21.7870   -3.9870   23.6950 C   0  0  0  0  0  3  0  0  0  0  0  0
  -21.8780   -4.8110   22.5600 C   0  0  0  0  0  0  0  0  0  0  0  0
  -22.2240   -4.2750   21.3640 F   0  0  0  0  0  0  0  0  0  0  0  0
  -21.3170   -3.7390   26.0220 F   0  0  0  0  0  0  0  0  0  0  0  0
  -22.7310  -13.5750   21.1440 C   0  0  0  0  0  0  0  0  0  0  0  0
  -21.9950  -12.8870   22.0060 N   0  0  0  0  0  0  0  0  0  0  0  0
  -22.2990  -14.5950   20.6080 O   0  0  0  0  0  0  0  0  0  0  0  0
  -22.3590  -12.0630   22.4590 H   0  0  0  0  0  0  0  0  0  0  0  0
  -21.0530  -13.1880   22.2130 H   0  0  0  0  0  0  0  0  0  0  0  0
  -25.3640  -15.2310   20.3330 N   0  0  0  0  0  0  0  0  0  0  0  0
  -24.5810  -15.8730   20.4140 H   0  0  0  0  0  0  0  0  0  0  0  0
  -26.1940  -15.6760   19.9600 H   0  0  0  0  0  0  0  0  0  0  0  0
  -32.5690  -21.1040   17.1890 O   0  0  0  0  0  0  0  0  0  0  0  0
  -32.9790  -20.8590   15.8430 C   0  0  0  0  0  2  0  0  0  0  0  0
  -34.4980  -21.0820   15.7210 C   0  0  0  0  0  2  0  0  0  0  0  0
  -35.2740  -20.0260   16.4050 N   0  0  0  0  0  4  0  0  0  0  0  0
  -34.9550  -19.9320   17.3540 H   0  0  0  0  0  0  0  0  0  0  0  0
  -36.2530  -20.2570   16.4300 H   0  0  0  0  0  0  0  0  0  0  0  0
  -35.1730  -19.1410   15.9370 H   0  0  0  0  0  0  0  0  0  0  0  0
  1  4  1  0
  2  6  1  0
  2  1  2  0
  3  5  1  0
  4  5  2  0
  4 52  1  0
  5  7  1  0
  6  3  2  0
  8  9  1  0
  8  7  1  0
 10 11  1  0
 10  9  2  0
 12 23  2  0
 13 11  1  0
 13 18  1  0
 14 22  1  0
 14 24  1  0
 15 21  1  0
 15 17  1  0
 16 22  1  0
 17 18  2  0
 17 16  1  0
 19 20  1  0
 19 13  2  0
 20 15  2  0
 21 14  1  0
 22 12  1  0
 24 26  2  0
 25 24  1  0
 27 25  1  0
 28 37  2  0
 28 33  1  0
 29 25  1  0
 29 33  1  0
 30 29  1  0
 31 32  1  0
 31 30  1  0
 32 28  1  0
 33 34  2  0
 34 35  1  0
 36 35  2  0
 37 36  1  0
 38 12  1  0
 38 43  1  0
 38 39  1  0
 39 42  1  1
 39 40  1  0
 41 39  1  0
 43 46  1  0
 44 48  1  0
 44 43  1  0
 45 44  2  0
 48 47  1  0
 50 48  1  0
 50 51  1  0
 50 49  1  0
 53 61  1  0
 54 59  1  0
 55 56  1  0
 55 54  1  0
 57 56  1  0
 57 66  1  0
 57 58  1  0
 59 53  1  0
 59 58  1  0
 60 53  2  0
 61 62  1  0
 61 52  1  0
 63 64  2  0
 64 83  1  0
 65 64  1  0
 65 68  1  0
 66 63  1  0
 66 67  1  0
 67 65  2  0
 68 69  1  0
 69 70  2  0
 71 74  1  0
 71 70  1  0
 72 71  2  0
 73 72  1  0
 73 68  2  0
 74 75  1  0
 75 76  1  0
 76 77  2  0
 78 77  1  0
 78 82  1  0
 79 78  2  0
 80 75  2  0
 80 79  1  0
 81 80  1  0
 83 84  1  0
 84 87  1  0
 84 86  1  0
 85 83  2  0
 88 89  1  0
 88 63  1  0
 90 88  1  0
 91  6  1  0
 92 91  1  0
 93 92  1  0
 93 94  1  0
 94 96  1  0
 94 95  1  0
 97 94  1  0
M  ISO  4  10 101  11 101  53 100  61 100
M  END
>  <TORSDO>  (12) 
F 25

>  <SCORE>  (12) 
-12.315

>  <name>  (12) 
11

>  <ligand_id>  (12) 
11

>  <original_smiles>  (12) 
[H]c1c([H])c([H])c2c(c1[H])C([H])([H])C([H])([H])C([H])([H])C2([H])N([H])C(=O)C1([H])N(C(=O)C([H])(N([H])C(=O)C([H])(N([H])C([H])([H])[H])C([H])([H])[H])C(C([H])([H])[H])(C([H])([H])[H])C([H])([H])[H])C([H])([H])c2c([H])c(OC([H])([H])C([H])([H])C([H])([H])C([H])([H])c3c([H])c(OC([H])([H])C([H])([H])[N+]([H])([H])[H])c([H])c([H])c3C([H])([H])N([H])C(=O)N3C([H])([H])C([H])([H])C([H])([H])C([H])(n4nc(-c5c([H])c([H])c(Oc6c([H])c([H])c(F)c([H])c6F)c([H])c5[H])c(C(=O)N([H])[H])c4N([H])[H])C3([H])[H])c([H])c([H])c2C1([H])[H]

>  <smiles>  (12) 
[H]c1c([H])c([H])c2c(c1[H])C([H])([H])C([H])([H])C([H])([H])C2([H])N([H])C(=O)C1([H])N(C(=O)C([H])(N([H])C(=O)C([H])(N([H])C([H])([H])[H])C([H])([H])[H])C(C([H])([H])[H])(C([H])([H])[H])C([H])([H])[H])C([H])([H])c2c([H])c(OC([H])([H])C([H])([H])C([H])([H])C([H])([H])c3c([H])c(OC([H])([H])C([H])([H])[N+]([H])([H])[H])c([H])c([H])c3C([H])([H])N([H])C(=O)N3C([H])([H])C([H])([H])C([H])([H])C([H])(n4nc(-c5c([H])c([H])c(Oc6c([H])c([H])c(F)c([H])c6F)c([H])c5[H])c(C(=O)N([H])[H])c4N([H])[H])C3([H])[H])c([H])c([H])c2C1([H])[H]

$$$$
12:0:0
     RDKit          3D

 89 97  0  0  1  0  0  0  0  0999 V2000
  -30.4280  -19.7210   19.2600 C   0  0  0  0  0  3  0  0  0  0  0  0
  -29.0950  -18.9880   21.1200 C   0  0  0  0  0  3  0  0  0  0  0  0
  -29.9610  -21.0610   19.4170 C   0  0  0  0  0  3  0  0  0  0  0  0
  -28.6270  -20.3300   21.2760 C   0  0  0  0  0  3  0  0  0  0  0  0
  -30.0260  -18.6490   20.1090 C   0  0  0  0  0  0  0  0  0  0  0  0
  -29.0550  -21.4080   20.4500 C   0  0  0  0  0  0  0  0  0  0  0  0
  -30.7550  -17.2590   19.9870 C   0  0  0  0  0  2  0  0  0  0  0  0
  -30.8180  -14.7460   19.9980 C   0  0  0  0  0  0  0  0  0  0  0  0
  -30.4790  -12.5320   18.9350 C   0  0  0  0  0  2  0  0  0  0  0  0
  -29.4900  -12.6800   17.7610 C   0  0  0  0  0  2  0  0  0  0  0  0
  -28.0400  -12.5230   18.2590 C   0  0  0  0  0  2  0  0  0  0  0  0
  -27.7430  -13.3760   19.5220 C   0  0  0  0  0  3  0  0  0  0  0  0
  -28.8560  -13.2430   20.5850 C   0  0  0  0  0  2  0  0  0  0  0  0
  -30.1300  -13.5640   19.9340 N   0  0  0  0  0  0  0  0  0  0  0  0
  -31.9850  -14.8090   19.6030 O   0  0  0  0  0  0  0  0  0  0  0  0
  -30.1420  -15.9120   20.2680 N   0  0  0  0  0  0  0  0  0  0  0  0
  -29.1690  -15.8640   20.5280 H   0  0  0  0  0  0  0  0  0  0  0  0
  -25.3860  -13.9510   20.3630 C   0  0  0  0  0  0  0  0  0  0  0  0
  -24.3430  -13.1680   20.7780 C   0  0  0  0  0  0  0  0  0  0  0  0
  -24.8130  -11.8200   20.7180 C   0  0  0  0  0  0  0  0  0  0  0  0
  -26.4240  -13.0800   20.0740 N   0  0  0  0  0  0  0  0  0  0  0  0
  -26.0880  -11.7930   20.3510 N   0  0  0  0  0  0  0  0  0  0  0  0
  -24.1050  -10.5520   20.9340 C   0  0  0  0  0  0  0  0  0  0  0  0
  -24.5570   -9.6030   21.8780 C   0  0  0  0  0  3  0  0  0  0  0  0
  -23.8480   -8.3990   22.0800 C   0  0  0  0  0  3  0  0  0  0  0  0
  -22.6710   -8.1360   21.3390 C   0  0  0  0  0  0  0  0  0  0  0  0
  -22.2380   -9.0730   20.3850 C   0  0  0  0  0  3  0  0  0  0  0  0
  -22.9480  -10.2680   20.1800 C   0  0  0  0  0  3  0  0  0  0  0  0
  -21.9310   -6.9840   21.4510 O   0  0  0  0  0  0  0  0  0  0  0  0
  -21.8750   -6.2750   22.6250 C   0  0  0  0  0  0  0  0  0  0  0  0
  -21.3740   -6.8450   23.8170 C   0  0  0  0  0  3  0  0  0  0  0  0
  -21.2680   -6.0610   24.9820 C   0  0  0  0  0  3  0  0  0  0  0  0
  -21.6540   -4.7080   24.9580 C   0  0  0  0  0  0  0  0  0  0  0  0
  -22.1490   -4.1370   23.7720 C   0  0  0  0  0  3  0  0  0  0  0  0
  -22.2550   -4.9190   22.6080 C   0  0  0  0  0  0  0  0  0  0  0  0
  -22.7130   -4.3590   21.4620 F   0  0  0  0  0  0  0  0  0  0  0  0
  -21.5460   -3.9510   26.0760 F   0  0  0  0  0  0  0  0  0  0  0  0
  -22.9560  -13.6340   21.1140 C   0  0  0  0  0  0  0  0  0  0  0  0
  -22.2680  -12.9240   22.0020 N   0  0  0  0  0  0  0  0  0  0  0  0
  -22.4910  -14.6620   20.6240 O   0  0  0  0  0  0  0  0  0  0  0  0
  -22.6580  -12.0930   22.4230 H   0  0  0  0  0  0  0  0  0  0  0  0
  -21.3390  -13.2170   22.2670 H   0  0  0  0  0  0  0  0  0  0  0  0
  -25.5310  -15.3230   20.1840 N   0  0  0  0  0  0  0  0  0  0  0  0
  -24.7630  -15.9690   20.3310 H   0  0  0  0  0  0  0  0  0  0  0  0
  -26.3530  -15.7710   19.7980 H   0  0  0  0  0  0  0  0  0  0  0  0
  -28.5650  -22.7020   20.7240 O   0  0  0  0  0  0  0  0  0  0  0  0
  -28.9530  -23.9200   20.0020 C   0  0  0  0  0  2  0  0  0  0  0  0
  -28.2530  -25.2200   20.6080 C   0  0  0  0  0  2  0  0  0  0  0  0
  -28.4570  -26.5740   20.0400 O   0  0  0  0  0  0  0  0  0  0  0  0
  -24.6040  -31.8390   23.1280 C   0  0  0  0  0  0  0  0  0  0  0  0
  -27.3370  -27.4120   20.0150 C   0  0  0  0  0  0  0  0  0  0  0  0
  -23.4500  -30.4680   21.4290 C   0  0  0  0  0  3  0  0  0  0  0  0
  -24.9500  -28.9750   19.9940 C   0  0  0  0  0  0  0  0  0  0  0  0
  -25.9850  -30.8330   21.2980 C   0  0  0  0  0  2  0  0  0  0  0  0
  -26.0990  -29.4720   20.6230 C   0  0  0  0  0  0  0  0  0  0  0  0
  -27.3000  -28.7040   20.6220 C   0  0  0  0  0  3  0  0  0  0  0  0
  -26.1720  -26.9650   19.3580 C   0  0  0  0  0  3  0  0  0  0  0  0
  -24.9870  -27.7260   19.3510 C   0  0  0  0  0  3  0  0  0  0  0  0
  -23.6990  -29.8290   20.0370 C   0  0  0  0  0  2  0  0  0  0  0  0
  -24.6970  -31.0620   22.0100 N   0  0  0  0  0  0  0  0  0  0  0  0
  -23.5070  -32.0880   23.6500 O   0  0  0  0  0  0  0  0  0  0  0  0
  -22.7840  -29.4180   22.3510 C   0  0  0  0  0  0  0  0  0  0  0  0
  -21.4610  -29.2390   22.2030 N   0  0  0  0  0  0  0  0  0  0  0  0
  -23.4570  -28.7700   23.1560 O   0  0  0  0  0  0  0  0  0  0  0  0
  -20.9770  -29.8140   21.5270 H   0  0  0  0  0  0  0  0  0  0  0  0
  -18.0790  -28.0380   22.6530 C   0  0  0  0  0  0  0  0  0  0  0  0
  -20.6380  -28.2740   22.9350 C   0  0  0  0  0  3  0  0  0  0  0  0
  -20.7340  -26.8670   22.3010 C   0  0  0  0  0  2  0  0  0  0  0  0
  -19.6310  -26.5910   21.2750 C   0  0  0  0  0  2  0  0  0  0  0  0
  -18.2490  -26.7170   21.9240 C   0  0  0  0  0  2  0  0  0  0  0  0
  -19.2010  -28.7770   23.1150 C   0  0  0  0  0  0  0  0  0  0  0  0
  -18.9870  -30.0160   23.7570 C   0  0  0  0  0  3  0  0  0  0  0  0
  -17.6840  -30.5160   23.9430 C   0  0  0  0  0  3  0  0  0  0  0  0
  -16.5770  -29.7740   23.4970 C   0  0  0  0  0  3  0  0  0  0  0  0
  -16.7750  -28.5360   22.8590 C   0  0  0  0  0  3  0  0  0  0  0  0
  -25.8670  -32.4720   23.7920 C   0  0  0  0  0  3  0  0  0  0  0  0
  -26.3400  -31.7010   25.0840 C   0  0  1  0  0  0  0  0  0  0  0  0
  -25.2130  -31.4610   26.1140 C   0  0  0  0  0  1  0  0  0  0  0  0
  -26.9380  -30.3240   24.7110 C   0  0  0  0  0  1  0  0  0  0  0  0
  -27.4680  -32.4950   25.7850 C   0  0  0  0  0  1  0  0  0  0  0  0
  -25.5480  -33.8700   24.1120 N   0  0  0  0  0  0  0  0  0  0  0  0
  -25.9030  -34.9230   23.3630 C   0  0  0  0  0  0  0  0  0  0  0  0
  -26.6030  -34.8180   22.3520 O   0  0  0  0  0  0  0  0  0  0  0  0
  -24.9310  -34.0250   24.8950 H   0  0  0  0  0  0  0  0  0  0  0  0
  -24.1980  -36.7240   22.9420 C   0  0  0  0  0  1  0  0  0  0  0  0
  -25.4030  -36.3120   23.8040 C   0  0  0  0  0  3  0  0  0  0  0  0
  -27.5000  -37.1910   24.7330 C   0  0  0  0  0  1  0  0  0  0  0  0
  -26.4450  -37.3600   23.7370 N   0  0  0  0  0  0  0  0  0  0  0  0
  -26.0370  -38.2830   23.8620 H   0  0  0  0  0  0  0  0  0  0  0  0
  1  3  2  0
  1  5  1  0
  2  4  1  0
  3  6  1  0
  5  2  2  0
  6 46  1  0
  6  4  2  0
  7  5  1  0
  7 16  1  0
  8 16  1  0
  9 14  1  0
 10 11  1  0
 10  9  1  0
 12 11  1  0
 12 21  1  0
 12 13  1  0
 14  8  1  0
 14 13  1  0
 15  8  2  0
 16 17  1  0
 18 19  2  0
 19 38  1  0
 20 19  1  0
 20 23  1  0
 21 22  1  0
 21 18  1  0
 22 20  2  0
 23 24  1  0
 24 25  2  0
 26 29  1  0
 26 25  1  0
 27 26  2  0
 28 27  1  0
 28 23  2  0
 29 30  1  0
 30 31  1  0
 31 32  2  0
 33 32  1  0
 33 37  1  0
 34 33  2  0
 35 30  2  0
 35 34  1  0
 36 35  1  0
 38 39  1  0
 39 42  1  0
 39 41  1  0
 40 38  2  0
 43 44  1  0
 43 18  1  0
 45 43  1  0
 47 48  1  0
 47 46  1  0
 49 48  1  0
 50 61  2  0
 51 49  1  0
 51 56  1  0
 52 60  1  0
 52 62  1  0
 53 59  1  0
 53 55  1  0
 54 60  1  0
 55 54  1  0
 56 55  2  0
 57 51  2  0
 58 57  1  0
 58 53  2  0
 59 52  1  0
 60 50  1  0
 62 64  2  0
 63 62  1  0
 65 63  1  0
 66 75  2  0
 66 71  1  0
 67 63  1  0
 67 71  1  0
 68 67  1  0
 69 70  1  0
 69 68  1  0
 70 66  1  0
 71 72  2  0
 72 73  1  0
 74 73  2  0
 75 74  1  0
 76 50  1  0
 76 81  1  0
 76 77  1  0
 77 80  1  1
 77 78  1  0
 79 77  1  0
 81 84  1  0
 82 86  1  0
 82 81  1  0
 83 82  2  0
 86 85  1  0
 88 86  1  0
 88 89  1  0
 88 87  1  0
M  ISO  4   8 100  16 100  48 101  49 101
M  END
>  <TORSDO>  (13) 
F 20

>  <SCORE>  (13) 
-12.786

>  <name>  (13) 
12

>  <ligand_id>  (13) 
12

>  <original_smiles>  (13) 
[H]c1c([H])c([H])c2c(c1[H])C([H])([H])C([H])([H])C([H])([H])C2([H])N([H])C(=O)C1([H])N(C(=O)C([H])(N([H])C(=O)C([H])(N([H])C([H])([H])[H])C([H])([H])[H])C(C([H])([H])[H])(C([H])([H])[H])C([H])([H])[H])C([H])([H])c2c([H])c(OC([H])([H])C([H])([H])Oc3c([H])c([H])c(C([H])([H])N([H])C(=O)N4C([H])([H])C([H])([H])C([H])([H])C([H])(n5nc(-c6c([H])c([H])c(Oc7c([H])c([H])c(F)c([H])c7F)c([H])c6[H])c(C(=O)N([H])[H])c5N([H])[H])C4([H])[H])c([H])c3[H])c([H])c([H])c2C1([H])[H]

>  <smiles>  (13) 
[H]c1c([H])c([H])c2c(c1[H])C([H])([H])C([H])([H])C([H])([H])C2([H])N([H])C(=O)C1([H])N(C(=O)C([H])(N([H])C(=O)C([H])(N([H])C([H])([H])[H])C([H])([H])[H])C(C([H])([H])[H])(C([H])([H])[H])C([H])([H])[H])C([H])([H])c2c([H])c(OC([H])([H])C([H])([H])Oc3c([H])c([H])c(C([H])([H])N([H])C(=O)N4C([H])([H])C([H])([H])C([H])([H])C([H])(n5nc(-c6c([H])c([H])c(Oc7c([H])c([H])c(F)c([H])c7F)c([H])c6[H])c(C(=O)N([H])[H])c5N([H])[H])C4([H])[H])c([H])c3[H])c([H])c([H])c2C1([H])[H]

$$$$
13:0:0
     RDKit          3D

 99108  0  0  1  0  0  0  0  0999 V2000
  -30.0650  -18.2340   21.7620 C   0  0  0  0  0  3  0  0  0  0  0  0
  -29.7160  -19.4630   21.1730 C   0  0  0  0  0  3  0  0  0  0  0  0
  -31.4000  -17.6820   19.8020 C   0  0  0  0  0  3  0  0  0  0  0  0
  -30.9460  -17.3570   21.0980 C   0  0  0  0  0  0  0  0  0  0  0  0
  -31.0620  -18.9190   19.2080 C   0  0  0  0  0  0  0  0  0  0  0  0
  -30.2430  -19.8350   19.9130 C   0  0  0  0  0  0  0  0  0  0  0  0
  -31.6580  -19.2850   17.8490 C   0  0  0  0  0  2  0  0  0  0  0  0
  -29.0300  -19.1380   14.3800 C   0  0  0  0  0  3  0  0  0  0  0  0
  -30.3760  -19.5230   14.2430 C   0  0  0  0  0  3  0  0  0  0  0  0
  -28.5180  -18.8130   15.6500 C   0  0  0  0  0  3  0  0  0  0  0  0
  -31.2090  -19.5790   15.3780 C   0  0  0  0  0  3  0  0  0  0  0  0
  -29.3490  -18.8710   16.7850 C   0  0  0  0  0  3  0  0  0  0  0  0
  -30.7070  -19.2440   16.6560 C   0  0  0  0  0  0  0  0  0  0  0  0
  -31.4740  -16.1190   21.8060 C   0  0  0  0  0  2  0  0  0  0  0  0
  -31.2620  -13.9250   20.6610 C   0  0  0  0  0  0  0  0  0  0  0  0
  -30.7560  -11.8290   19.4720 C   0  0  0  0  0  2  0  0  0  0  0  0
  -29.8870  -12.1410   18.2420 C   0  0  0  0  0  2  0  0  0  0  0  0
  -28.3950  -12.1290   18.6280 C   0  0  0  0  0  2  0  0  0  0  0  0
  -28.1040  -13.0080   19.8750 C   0  0  0  0  0  3  0  0  0  0  0  0
  -29.0910  -12.6930   21.0180 C   0  0  0  0  0  2  0  0  0  0  0  0
  -30.4590  -12.8420   20.4940 N   0  0  0  0  0  0  0  0  0  0  0  0
  -32.3590  -14.0400   20.1080 O   0  0  0  0  0  0  0  0  0  0  0  0
  -30.7720  -14.8880   21.4560 N   0  0  0  0  0  0  0  0  0  0  0  0
  -29.8720  -14.7240   21.8830 H   0  0  0  0  0  0  0  0  0  0  0  0
  -25.7720  -13.8590   20.5530 C   0  0  0  0  0  0  0  0  0  0  0  0
  -24.6190  -13.2000   20.8840 C   0  0  0  0  0  0  0  0  0  0  0  0
  -24.9310  -11.8060   20.8280 C   0  0  0  0  0  0  0  0  0  0  0  0
  -26.7190  -12.8740   20.3180 N   0  0  0  0  0  0  0  0  0  0  0  0
  -26.2140  -11.6330   20.5380 N   0  0  0  0  0  0  0  0  0  0  0  0
  -24.0680  -10.6280   20.9770 C   0  0  0  0  0  0  0  0  0  0  0  0
  -24.4170   -9.5610   21.8330 C   0  0  0  0  0  3  0  0  0  0  0  0
  -23.5630   -8.4450   21.9730 C   0  0  0  0  0  3  0  0  0  0  0  0
  -22.3450   -8.3910   21.2530 C   0  0  0  0  0  0  0  0  0  0  0  0
  -22.0120   -9.4460   20.3870 C   0  0  0  0  0  3  0  0  0  0  0  0
  -22.8650  -10.5520   20.2450 C   0  0  0  0  0  3  0  0  0  0  0  0
  -21.4660   -7.3340   21.3040 O   0  0  0  0  0  0  0  0  0  0  0  0
  -21.4110   -6.4940   22.3860 C   0  0  0  0  0  0  0  0  0  0  0  0
  -21.1540   -6.9740   23.6890 C   0  0  0  0  0  3  0  0  0  0  0  0
  -21.0370   -6.0700   24.7630 C   0  0  0  0  0  3  0  0  0  0  0  0
  -21.1660   -4.6860   24.5360 C   0  0  0  0  0  0  0  0  0  0  0  0
  -21.4170   -4.2060   23.2380 C   0  0  0  0  0  3  0  0  0  0  0  0
  -21.5360   -5.1060   22.1670 C   0  0  0  0  0  0  0  0  0  0  0  0
  -21.7550   -4.6390   20.9130 F   0  0  0  0  0  0  0  0  0  0  0  0
  -21.0490   -3.8150   25.5650 F   0  0  0  0  0  0  0  0  0  0  0  0
  -23.2770  -13.8210   21.1460 C   0  0  0  0  0  0  0  0  0  0  0  0
  -22.4750  -13.2090   22.0110 N   0  0  0  0  0  0  0  0  0  0  0  0
  -22.9490  -14.8850   20.6220 O   0  0  0  0  0  0  0  0  0  0  0  0
  -22.7500  -12.3490   22.4610 H   0  0  0  0  0  0  0  0  0  0  0  0
  -21.5740  -13.6130   22.2280 H   0  0  0  0  0  0  0  0  0  0  0  0
  -26.0910  -15.2050   20.4180 N   0  0  0  0  0  0  0  0  0  0  0  0
  -25.4050  -15.9420   20.5270 H   0  0  0  0  0  0  0  0  0  0  0  0
  -27.0080  -15.5530   20.1670 H   0  0  0  0  0  0  0  0  0  0  0  0
  -30.0010  -21.0630   19.3460 O   0  0  0  0  0  0  0  0  0  0  0  0
  -30.1400  -22.2080   20.1890 C   0  0  0  0  0  2  0  0  0  0  0  0
  -29.3460  -23.3470   19.5440 C   0  0  0  0  0  2  0  0  0  0  0  0
  -29.9380  -23.6610   18.2850 O   0  0  0  0  0  0  0  0  0  0  0  0
  -29.0680  -24.3970   17.4380 C   0  0  0  0  0  2  0  0  0  0  0  0
  -29.8740  -25.4240   16.6070 C   0  0  0  0  0  2  0  0  0  0  0  0
  -29.0760  -26.3430   15.8520 O   0  0  0  0  0  0  0  0  0  0  0  0
  -25.4050  -27.7630   21.7950 C   0  0  0  0  0  0  0  0  0  0  0  0
  -27.8850  -26.6880   16.4360 C   0  0  0  0  0  0  0  0  0  0  0  0
  -24.0730  -27.4000   19.7410 C   0  0  0  0  0  3  0  0  0  0  0  0
  -25.3880  -27.3620   17.5570 C   0  0  0  0  0  0  0  0  0  0  0  0
  -26.4550  -28.3160   19.6070 C   0  0  0  0  0  2  0  0  0  0  0  0
  -26.5700  -27.6480   18.2540 C   0  0  0  0  0  0  0  0  0  0  0  0
  -27.8240  -27.3130   17.7000 C   0  0  0  0  0  3  0  0  0  0  0  0
  -26.6930  -26.4260   15.7320 C   0  0  0  0  0  3  0  0  0  0  0  0
  -25.4430  -26.7520   16.2890 C   0  0  0  0  0  3  0  0  0  0  0  0
  -24.0880  -27.7430   18.2270 C   0  0  0  0  0  2  0  0  0  0  0  0
  -25.3360  -27.8090   20.4340 N   0  0  0  0  0  0  0  0  0  0  0  0
  -24.4230  -27.4300   22.4740 O   0  0  0  0  0  0  0  0  0  0  0  0
  -23.7390  -25.9010   19.9090 C   0  0  0  0  0  0  0  0  0  0  0  0
  -22.4510  -25.5520   19.7500 N   0  0  0  0  0  0  0  0  0  0  0  0
  -24.6280  -25.0800   20.1470 O   0  0  0  0  0  0  0  0  0  0  0  0
  -21.7780  -26.2840   19.5790 H   0  0  0  0  0  0  0  0  0  0  0  0
  -19.4170  -23.6050   19.5030 C   0  0  0  0  0  0  0  0  0  0  0  0
  -21.9120  -24.1950   19.8300 C   0  0  0  0  0  3  0  0  0  0  0  0
  -22.1620  -23.4220   18.5160 C   0  0  0  0  0  2  0  0  0  0  0  0
  -20.9940  -23.5210   17.5260 C   0  0  0  0  0  2  0  0  0  0  0  0
  -19.7100  -22.9710   18.1550 C   0  0  0  0  0  2  0  0  0  0  0  0
  -20.4490  -24.1960   20.2820 C   0  0  0  0  0  0  0  0  0  0  0  0
  -20.1170  -24.8090   21.5100 C   0  0  0  0  0  3  0  0  0  0  0  0
  -18.7840  -24.8350   21.9650 C   0  0  0  0  0  3  0  0  0  0  0  0
  -17.7710  -24.2350   21.1990 C   0  0  0  0  0  3  0  0  0  0  0  0
  -18.0860  -23.6200   19.9740 C   0  0  0  0  0  3  0  0  0  0  0  0
  -26.7080  -28.1490   22.5630 C   0  0  0  0  0  3  0  0  0  0  0  0
  -27.5000  -26.8980   23.1130 C   0  0  1  0  0  0  0  0  0  0  0  0
  -26.6310  -25.9270   23.9410 C   0  0  0  0  0  1  0  0  0  0  0  0
  -28.1290  -26.0920   21.9510 C   0  0  0  0  0  1  0  0  0  0  0  0
  -28.6680  -27.3730   24.0100 C   0  0  0  0  0  1  0  0  0  0  0  0
  -26.3240  -29.0480   23.6610 N   0  0  0  0  0  0  0  0  0  0  0  0
  -26.4810  -30.3790   23.6440 C   0  0  0  0  0  0  0  0  0  0  0  0
  -27.0430  -30.9750   22.7200 O   0  0  0  0  0  0  0  0  0  0  0  0
  -25.8140  -28.6350   24.4290 H   0  0  0  0  0  0  0  0  0  0  0  0
  -24.5900  -31.8210   24.4570 C   0  0  0  0  0  1  0  0  0  0  0  0
  -25.9300  -31.1730   24.8430 C   0  0  0  0  0  3  0  0  0  0  0  0
  -28.0490  -31.6590   25.9840 C   0  0  0  0  0  1  0  0  0  0  0  0
  -26.8610  -32.2100   25.3390 N   0  0  0  0  0  0  0  0  0  0  0  0
  -26.3960  -32.8260   26.0000 H   0  0  0  0  0  0  0  0  0  0  0  0
  2  1  1  0
  3  4  1  0
  4  1  2  0
  4 14  1  0
  5  3  2  0
  5  6  1  0
  6  2  2  0
  7  5  1  0
  8 10  1  0
  9  8  2  0
  9 11  1  0
 10 12  2  0
 11 13  2  0
 13 12  1  0
 13  7  1  0
 15 23  1  0
 16 21  1  0
 17 18  1  0
 17 16  1  0
 19 18  1  0
 19 28  1  0
 19 20  1  0
 21 15  1  0
 21 20  1  0
 22 15  2  0
 23 14  1  0
 23 24  1  0
 25 26  2  0
 26 45  1  0
 27 26  1  0
 27 30  1  0
 28 29  1  0
 28 25  1  0
 29 27  2  0
 30 31  1  0
 31 32  2  0
 33 36  1  0
 33 32  1  0
 34 33  2  0
 35 34  1  0
 35 30  2  0
 36 37  1  0
 37 38  1  0
 38 39  2  0
 40 39  1  0
 40 44  1  0
 41 40  2  0
 42 37  2  0
 42 41  1  0
 43 42  1  0
 45 46  1  0
 46 49  1  0
 46 48  1  0
 47 45  2  0
 50 51  1  0
 50 25  1  0
 52 50  1  0
 53  6  1  0
 53 54  1  0
 55 54  1  0
 56 55  1  0
 57 56  1  0
 58 57  1  0
 59 61  1  0
 59 58  1  0
 60 71  2  0
 61 66  1  0
 62 72  1  0
 62 70  1  0
 63 69  1  0
 63 65  1  0
 64 70  1  0
 65 64  1  0
 66 65  2  0
 67 68  1  0
 67 61  2  0
 68 63  2  0
 69 62  1  0
 70 60  1  0
 72 74  2  0
 73 72  1  0
 75 73  1  0
 76 85  2  0
 76 81  1  0
 77 73  1  0
 77 81  1  0
 78 77  1  0
 79 80  1  0
 79 78  1  0
 80 76  1  0
 81 82  2  0
 82 83  1  0
 84 83  2  0
 85 84  1  0
 86 60  1  0
 86 87  1  0
 86 91  1  0
 87 88  1  1
 87 90  1  0
 89 87  1  0
 91 94  1  0
 92 91  1  0
 92 96  1  0
 93 92  2  0
 96 95  1  0
 96 98  1  0
 98 97  1  0
 98 99  1  0
M  ISO  4  15 100  23 100  58 101  59 101
M  END
>  <TORSDO>  (14) 
F 25

>  <SCORE>  (14) 
-8.943

>  <name>  (14) 
13

>  <ligand_id>  (14) 
13

>  <original_smiles>  (14) 
[H]c1c([H])c([H])c(C([H])([H])c2c([H])c(C([H])([H])N([H])C(=O)N3C([H])([H])C([H])([H])C([H])([H])C([H])(n4nc(-c5c([H])c([H])c(Oc6c([H])c([H])c(F)c([H])c6F)c([H])c5[H])c(C(=O)N([H])[H])c4N([H])[H])C3([H])[H])c([H])c([H])c2OC([H])([H])C([H])([H])OC([H])([H])C([H])([H])Oc2c([H])c([H])c3c(c2[H])C([H])([H])N(C(=O)C([H])(N([H])C(=O)C([H])(N([H])C([H])([H])[H])C([H])([H])[H])C(C([H])([H])[H])(C([H])([H])[H])C([H])([H])[H])C([H])(C(=O)N([H])C2([H])c4c([H])c([H])c([H])c([H])c4C([H])([H])C([H])([H])C2([H])[H])C3([H])[H])c([H])c1[H]

>  <smiles>  (14) 
[H]c1c([H])c([H])c(C([H])([H])c2c([H])c(C([H])([H])N([H])C(=O)N3C([H])([H])C([H])([H])C([H])([H])C([H])(n4nc(-c5c([H])c([H])c(Oc6c([H])c([H])c(F)c([H])c6F)c([H])c5[H])c(C(=O)N([H])[H])c4N([H])[H])C3([H])[H])c([H])c([H])c2OC([H])([H])C([H])([H])OC([H])([H])C([H])([H])Oc2c([H])c([H])c3c(c2[H])C([H])([H])N(C(=O)C([H])(N([H])C(=O)C([H])(N([H])C([H])([H])[H])C([H])([H])[H])C(C([H])([H])[H])(C([H])([H])[H])C([H])([H])[H])C([H])(C(=O)N([H])C2([H])c4c([H])c([H])c([H])c([H])c4C([H])([H])C([H])([H])C2([H])[H])C3([H])[H])c([H])c1[H]

$$$$
14:0:0
     RDKit          3D

 88 96  0  0  1  0  0  0  0  0999 V2000
  -28.2700  -18.1960   20.5690 C   0  0  0  0  0  3  0  0  0  0  0  0
  -30.5440  -18.6580   20.1620 C   0  0  0  0  0  3  0  0  0  0  0  0
  -27.9690  -19.6050   20.5110 C   0  0  0  0  0  3  0  0  0  0  0  0
  -30.2360  -20.0970   20.1140 C   0  0  0  0  0  3  0  0  0  0  0  0
  -29.5660  -17.6210   20.3920 C   0  0  0  0  0  0  0  0  0  0  0  0
  -28.9130  -20.6520   20.2830 C   0  0  0  0  0  0  0  0  0  0  0  0
  -30.5640  -15.0240   20.2100 C   0  0  0  0  0  0  0  0  0  0  0  0
  -30.4770  -12.6790   19.2500 C   0  0  0  0  0  2  0  0  0  0  0  0
  -29.4990  -12.6500   18.0480 C   0  0  0  0  0  2  0  0  0  0  0  0
  -28.0470  -12.4370   18.5210 C   0  0  0  0  0  2  0  0  0  0  0  0
  -27.6750  -13.3480   19.7200 C   0  0  0  0  0  3  0  0  0  0  0  0
  -28.7640  -13.3150   20.8150 C   0  0  0  0  0  2  0  0  0  0  0  0
  -30.0230  -13.7410   20.1870 N   0  0  0  0  0  0  0  0  0  0  0  0
  -31.7370  -15.1720   19.8490 O   0  0  0  0  0  0  0  0  0  0  0  0
  -29.6830  -16.0950   20.4860 N   0  0  0  0  0  0  0  0  0  0  0  0
  -28.8050  -15.6890   20.7700 H   0  0  0  0  0  0  0  0  0  0  0  0
  -25.3170  -13.9250   20.5440 C   0  0  0  0  0  0  0  0  0  0  0  0
  -24.2620  -13.1460   20.9340 C   0  0  0  0  0  0  0  0  0  0  0  0
  -24.7190  -11.7940   20.8530 C   0  0  0  0  0  0  0  0  0  0  0  0
  -26.3480  -13.0470   20.2490 N   0  0  0  0  0  0  0  0  0  0  0  0
  -25.9980  -11.7600   20.4990 N   0  0  0  0  0  0  0  0  0  0  0  0
  -23.9930  -10.5300   21.0340 C   0  0  0  0  0  0  0  0  0  0  0  0
  -24.4280   -9.5560   21.9590 C   0  0  0  0  0  3  0  0  0  0  0  0
  -23.7020   -8.3560   22.1280 C   0  0  0  0  0  3  0  0  0  0  0  0
  -22.5270   -8.1240   21.3750 C   0  0  0  0  0  0  0  0  0  0  0  0
  -22.1100   -9.0890   20.4410 C   0  0  0  0  0  3  0  0  0  0  0  0
  -22.8370  -10.2790   20.2680 C   0  0  0  0  0  3  0  0  0  0  0  0
  -21.7730   -6.9790   21.4560 O   0  0  0  0  0  0  0  0  0  0  0  0
  -21.6880   -6.2530   22.6170 C   0  0  0  0  0  0  0  0  0  0  0  0
  -21.1540   -6.8030   23.8030 C   0  0  0  0  0  3  0  0  0  0  0  0
  -21.0220   -6.0010   24.9530 C   0  0  0  0  0  3  0  0  0  0  0  0
  -21.4140   -4.6490   24.9190 C   0  0  0  0  0  0  0  0  0  0  0  0
  -21.9400   -4.0980   23.7370 C   0  0  0  0  0  3  0  0  0  0  0  0
  -22.0740   -4.8980   22.5890 C   0  0  0  0  0  0  0  0  0  0  0  0
  -22.5620   -4.3560   21.4470 F   0  0  0  0  0  0  0  0  0  0  0  0
  -21.2790   -3.8750   26.0220 F   0  0  0  0  0  0  0  0  0  0  0  0
  -22.8760  -13.6220   21.2610 C   0  0  0  0  0  0  0  0  0  0  0  0
  -22.1760  -12.9110   22.1370 N   0  0  0  0  0  0  0  0  0  0  0  0
  -22.4260  -14.6590   20.7750 O   0  0  0  0  0  0  0  0  0  0  0  0
  -22.5530  -12.0730   22.5520 H   0  0  0  0  0  0  0  0  0  0  0  0
  -21.2460  -13.2120   22.3990 H   0  0  0  0  0  0  0  0  0  0  0  0
  -25.4790  -15.2980   20.3870 N   0  0  0  0  0  0  0  0  0  0  0  0
  -24.6990  -15.9360   20.5080 H   0  0  0  0  0  0  0  0  0  0  0  0
  -26.2670  -15.7220   19.9170 H   0  0  0  0  0  0  0  0  0  0  0  0
  -28.3850  -22.0170   20.2260 O   0  0  0  0  0  0  0  0  0  0  0  0
  -29.0060  -23.4170   20.2140 C   0  0  0  0  0  3  0  0  0  0  0  0
  -28.0130  -24.7620   20.0050 C   0  0  0  0  0  3  0  0  0  0  0  0
  -28.2930  -26.2800   20.1940 O   0  0  0  0  0  0  0  0  0  0  0  0
  -24.6160  -31.8830   23.2510 C   0  0  0  0  0  0  0  0  0  0  0  0
  -27.2250  -27.2480   20.1450 C   0  0  0  0  0  0  0  0  0  0  0  0
  -23.4230  -30.5100   21.5880 C   0  0  0  0  0  3  0  0  0  0  0  0
  -24.8820  -28.9690   20.1390 C   0  0  0  0  0  0  0  0  0  0  0  0
  -25.9760  -30.7940   21.4300 C   0  0  0  0  0  2  0  0  0  0  0  0
  -26.0590  -29.4160   20.7540 C   0  0  0  0  0  0  0  0  0  0  0  0
  -27.2310  -28.5720   20.7390 C   0  0  0  0  0  3  0  0  0  0  0  0
  -26.0180  -26.9000   19.4960 C   0  0  0  0  0  3  0  0  0  0  0  0
  -24.8750  -27.7250   19.4950 C   0  0  0  0  0  3  0  0  0  0  0  0
  -23.6490  -29.8570   20.1990 C   0  0  0  0  0  2  0  0  0  0  0  0
  -24.6910  -31.0830   22.1440 N   0  0  0  0  0  0  0  0  0  0  0  0
  -23.5270  -32.1530   23.7830 O   0  0  0  0  0  0  0  0  0  0  0  0
  -22.7510  -29.4810   22.5320 C   0  0  0  0  0  0  0  0  0  0  0  0
  -21.4240  -29.3020   22.3970 N   0  0  0  0  0  0  0  0  0  0  0  0
  -23.4240  -28.8480   23.3490 O   0  0  0  0  0  0  0  0  0  0  0  0
  -20.9370  -29.8650   21.7140 H   0  0  0  0  0  0  0  0  0  0  0  0
  -18.0440  -28.1000   22.8940 C   0  0  0  0  0  0  0  0  0  0  0  0
  -20.6060  -28.3490   23.1520 C   0  0  0  0  0  3  0  0  0  0  0  0
  -20.6990  -26.9300   22.5440 C   0  0  0  0  0  2  0  0  0  0  0  0
  -19.5900  -26.6350   21.5290 C   0  0  0  0  0  2  0  0  0  0  0  0
  -18.2130  -26.7680   22.1850 C   0  0  0  0  0  2  0  0  0  0  0  0
  -19.1680  -28.8500   23.3340 C   0  0  0  0  0  0  0  0  0  0  0  0
  -18.9540  -30.0990   23.9590 C   0  0  0  0  0  3  0  0  0  0  0  0
  -17.6520  -30.5970   24.1490 C   0  0  0  0  0  3  0  0  0  0  0  0
  -16.5430  -29.8440   23.7240 C   0  0  0  0  0  3  0  0  0  0  0  0
  -16.7410  -28.5970   23.1030 C   0  0  0  0  0  3  0  0  0  0  0  0
  -25.8900  -32.5140   23.8890 C   0  0  0  0  0  3  0  0  0  0  0  0
  -26.3890  -31.7410   25.1720 C   0  0  1  0  0  0  0  0  0  0  0  0
  -25.2800  -31.5020   26.2240 C   0  0  0  0  0  1  0  0  0  0  0  0
  -26.9790  -30.3650   24.7900 C   0  0  0  0  0  1  0  0  0  0  0  0
  -27.5300  -32.5350   25.8510 C   0  0  0  0  0  1  0  0  0  0  0  0
  -25.5790  -33.9130   24.2220 N   0  0  0  0  0  0  0  0  0  0  0  0
  -25.8850  -34.9680   23.4560 C   0  0  0  0  0  0  0  0  0  0  0  0
  -26.5270  -34.8660   22.4060 O   0  0  0  0  0  0  0  0  0  0  0  0
  -25.0080  -34.0650   25.0400 H   0  0  0  0  0  0  0  0  0  0  0  0
  -24.1320  -36.7490   23.1580 C   0  0  0  0  0  1  0  0  0  0  0  0
  -25.4060  -36.3550   23.9250 C   0  0  0  0  0  3  0  0  0  0  0  0
  -27.5520  -37.2720   24.6870 C   0  0  0  0  0  1  0  0  0  0  0  0
  -26.4250  -37.4160   23.7700 N   0  0  0  0  0  0  0  0  0  0  0  0
  -26.0150  -38.3350   23.9150 H   0  0  0  0  0  0  0  0  0  0  0  0
  2  5  1  0
  3  1  1  0
  4  2  2  0
  4  6  1  0
  5 15  1  0
  5  1  2  0
  6  3  2  0
  7 15  1  0
  8 13  1  0
  9 10  1  0
  9  8  1  0
 11 10  1  0
 11 20  1  0
 11 12  1  0
 13  7  1  0
 13 12  1  0
 14  7  2  0
 15 16  1  0
 17 18  2  0
 18 37  1  0
 19 18  1  0
 19 22  1  0
 20 21  1  0
 20 17  1  0
 21 19  2  0
 22 23  1  0
 23 24  2  0
 25 28  1  0
 25 24  1  0
 26 25  2  0
 27 26  1  0
 27 22  2  0
 28 29  1  0
 29 30  1  0
 30 31  2  0
 32 31  1  0
 32 36  1  0
 33 32  2  0
 34 29  2  0
 34 33  1  0
 35 34  1  0
 37 38  1  0
 38 41  1  0
 38 40  1  0
 39 37  2  0
 42 43  1  0
 42 17  1  0
 44 42  1  0
 45  6  1  0
 46 45  1  0
 47 48  1  0
 47 46  2  0
 49 60  2  0
 50 48  1  0
 50 55  1  0
 51 59  1  0
 51 61  1  0
 52 58  1  0
 52 54  1  0
 53 59  1  0
 54 53  1  0
 55 54  2  0
 56 50  2  0
 57 56  1  0
 57 52  2  0
 58 51  1  0
 59 49  1  0
 61 63  2  0
 62 61  1  0
 64 62  1  0
 65 74  2  0
 65 70  1  0
 66 62  1  0
 66 70  1  0
 67 66  1  0
 68 69  1  0
 68 67  1  0
 69 65  1  0
 70 71  2  0
 71 72  1  0
 73 72  2  0
 74 73  1  0
 75 49  1  0
 75 80  1  0
 75 76  1  0
 76 79  1  1
 76 77  1  0
 78 76  1  0
 80 83  1  0
 81 85  1  0
 81 80  1  0
 82 81  2  0
 85 84  1  0
 87 88  1  0
 87 85  1  0
 87 86  1  0
M  ISO  4   7 100  15 100  47 101  48 101
M  END
>  <TORSDO>  (15) 
F 19

>  <SCORE>  (15) 
-14.020

>  <name>  (15) 
14

>  <ligand_id>  (15) 
14

>  <original_smiles>  (15) 
[H]c1c([H])c([H])c2c(c1[H])C([H])([H])C([H])([H])C([H])([H])C2([H])N([H])C(=O)C1([H])N(C(=O)C([H])(N([H])C(=O)C([H])(N([H])C([H])([H])[H])C([H])([H])[H])C(C([H])([H])[H])(C([H])([H])[H])C([H])([H])[H])C([H])([H])c2c([H])c(OC([H])([H])C([H])([H])Oc3c([H])c([H])c(N([H])C(=O)N4C([H])([H])C([H])([H])C([H])([H])C([H])(n5nc(-c6c([H])c([H])c(Oc7c([H])c([H])c(F)c([H])c7F)c([H])c6[H])c(C(=O)N([H])[H])c5N([H])[H])C4([H])[H])c([H])c3[H])c([H])c([H])c2C1([H])[H]

>  <smiles>  (15) 
[H]c1c([H])c([H])c2c(c1[H])C([H])([H])C([H])([H])C([H])([H])C2([H])N([H])C(=O)C1([H])N(C(=O)C([H])(N([H])C(=O)C([H])(N([H])C([H])([H])[H])C([H])([H])[H])C(C([H])([H])[H])(C([H])([H])[H])C([H])([H])[H])C([H])([H])c2c([H])c(OC([H])([H])C([H])([H])Oc3c([H])c([H])c(N([H])C(=O)N4C([H])([H])C([H])([H])C([H])([H])C([H])(n5nc(-c6c([H])c([H])c(Oc7c([H])c([H])c(F)c([H])c7F)c([H])c6[H])c(C(=O)N([H])[H])c5N([H])[H])C4([H])[H])c([H])c3[H])c([H])c([H])c2C1([H])[H]

$$$$
15:0:0
     RDKit          3D

 89 97  0  0  1  0  0  0  0  0999 V2000
  -30.1540  -21.7130   20.3380 C   0  0  0  0  0  2  0  0  0  0  0  0
  -31.1670  -19.3310   20.2330 C   0  0  0  0  0  3  0  0  0  0  0  0
  -28.7980  -19.4440   20.6040 C   0  0  0  0  0  3  0  0  0  0  0  0
  -31.1360  -17.9070   20.3180 C   0  0  0  0  0  3  0  0  0  0  0  0
  -28.7640  -18.0160   20.6900 C   0  0  0  0  0  3  0  0  0  0  0  0
  -30.0070  -20.1440   20.3720 C   0  0  0  0  0  0  0  0  0  0  0  0
  -29.9260  -17.2010   20.5510 C   0  0  0  0  0  0  0  0  0  0  0  0
  -30.5930  -14.6890   20.2930 C   0  0  0  0  0  0  0  0  0  0  0  0
  -30.3610  -12.4600   19.2140 C   0  0  0  0  0  2  0  0  0  0  0  0
  -29.3960  -12.6020   18.0150 C   0  0  0  0  0  2  0  0  0  0  0  0
  -27.9300  -12.4370   18.4690 C   0  0  0  0  0  2  0  0  0  0  0  0
  -27.5920  -13.2860   19.7230 C   0  0  0  0  0  3  0  0  0  0  0  0
  -28.6710  -13.1220   20.8170 C   0  0  0  0  0  2  0  0  0  0  0  0
  -29.9720  -13.4680   20.2200 N   0  0  0  0  0  0  0  0  0  0  0  0
  -31.7490  -14.8400   19.8870 O   0  0  0  0  0  0  0  0  0  0  0  0
  -29.7980  -15.7440   20.6710 N   0  0  0  0  0  0  0  0  0  0  0  0
  -28.8920  -15.4340   20.9850 H   0  0  0  0  0  0  0  0  0  0  0  0
  -25.2120  -13.8790   20.4900 C   0  0  0  0  0  0  0  0  0  0  0  0
  -24.1520  -13.1030   20.8730 C   0  0  0  0  0  0  0  0  0  0  0  0
  -24.6120  -11.7510   20.8170 C   0  0  0  0  0  0  0  0  0  0  0  0
  -26.2520  -13.0010   20.2280 N   0  0  0  0  0  0  0  0  0  0  0  0
  -25.8970  -11.7150   20.4840 N   0  0  0  0  0  0  0  0  0  0  0  0
  -23.8870  -10.4870   21.0060 C   0  0  0  0  0  0  0  0  0  0  0  0
  -24.3180   -9.5230   21.9450 C   0  0  0  0  0  3  0  0  0  0  0  0
  -23.5930   -8.3250   22.1220 C   0  0  0  0  0  3  0  0  0  0  0  0
  -22.4270   -8.0810   21.3590 C   0  0  0  0  0  0  0  0  0  0  0  0
  -22.0160   -9.0330   20.4110 C   0  0  0  0  0  3  0  0  0  0  0  0
  -22.7410  -10.2240   20.2320 C   0  0  0  0  0  3  0  0  0  0  0  0
  -21.6760   -6.9330   21.4450 O   0  0  0  0  0  0  0  0  0  0  0  0
  -21.5950   -6.2100   22.6090 C   0  0  0  0  0  0  0  0  0  0  0  0
  -21.1100   -6.7780   23.8070 C   0  0  0  0  0  3  0  0  0  0  0  0
  -20.9790   -5.9800   24.9610 C   0  0  0  0  0  3  0  0  0  0  0  0
  -21.3230   -4.6170   24.9180 C   0  0  0  0  0  0  0  0  0  0  0  0
  -21.8010   -4.0480   23.7240 C   0  0  0  0  0  3  0  0  0  0  0  0
  -21.9330   -4.8420   22.5720 C   0  0  0  0  0  0  0  0  0  0  0  0
  -22.3750   -4.2850   21.4180 F   0  0  0  0  0  0  0  0  0  0  0  0
  -21.1890   -3.8480   26.0240 F   0  0  0  0  0  0  0  0  0  0  0  0
  -22.7590  -13.5780   21.1740 C   0  0  0  0  0  0  0  0  0  0  0  0
  -22.0470  -12.8750   22.0480 N   0  0  0  0  0  0  0  0  0  0  0  0
  -22.3130  -14.6080   20.6700 O   0  0  0  0  0  0  0  0  0  0  0  0
  -22.4200  -12.0420   22.4800 H   0  0  0  0  0  0  0  0  0  0  0  0
  -21.1130  -13.1750   22.2910 H   0  0  0  0  0  0  0  0  0  0  0  0
  -25.3710  -15.2510   20.3180 N   0  0  0  0  0  0  0  0  0  0  0  0
  -24.5920  -15.8920   20.4170 H   0  0  0  0  0  0  0  0  0  0  0  0
  -26.1880  -15.6840   19.9090 H   0  0  0  0  0  0  0  0  0  0  0  0
  -28.9870  -22.5910   20.2260 O   0  0  0  0  0  0  0  0  0  0  0  0
  -29.2900  -24.0350   20.2950 C   0  0  0  0  0  3  0  0  0  0  0  0
  -28.1050  -25.0540   20.0050 C   0  0  0  0  0  3  0  0  0  0  0  0
  -28.3170  -26.5120   20.1850 O   0  0  0  0  0  0  0  0  0  0  0  0
  -24.5830  -31.8820   23.2400 C   0  0  0  0  0  0  0  0  0  0  0  0
  -27.1930  -27.3540   20.1440 C   0  0  0  0  0  0  0  0  0  0  0  0
  -23.3760  -30.4970   21.5930 C   0  0  0  0  0  3  0  0  0  0  0  0
  -24.8230  -28.9600   20.1520 C   0  0  0  0  0  0  0  0  0  0  0  0
  -25.9140  -30.8200   21.4050 C   0  0  0  0  0  2  0  0  0  0  0  0
  -25.9940  -29.4470   20.7480 C   0  0  0  0  0  0  0  0  0  0  0  0
  -27.1820  -28.6570   20.7310 C   0  0  0  0  0  3  0  0  0  0  0  0
  -25.9930  -26.9200   19.5290 C   0  0  0  0  0  3  0  0  0  0  0  0
  -24.8260  -27.7020   19.5340 C   0  0  0  0  0  3  0  0  0  0  0  0
  -23.5860  -29.8310   20.2070 C   0  0  0  0  0  2  0  0  0  0  0  0
  -24.6430  -31.0820   22.1360 N   0  0  0  0  0  0  0  0  0  0  0  0
  -23.5000  -32.1570   23.7780 O   0  0  0  0  0  0  0  0  0  0  0  0
  -22.7160  -29.4710   22.5450 C   0  0  0  0  0  0  0  0  0  0  0  0
  -21.3900  -29.2930   22.4150 N   0  0  0  0  0  0  0  0  0  0  0  0
  -23.3950  -28.8400   23.3590 O   0  0  0  0  0  0  0  0  0  0  0  0
  -20.9010  -29.8530   21.7300 H   0  0  0  0  0  0  0  0  0  0  0  0
  -18.0110  -28.1010   22.9090 C   0  0  0  0  0  0  0  0  0  0  0  0
  -20.5700  -28.3520   23.1780 C   0  0  0  0  0  3  0  0  0  0  0  0
  -20.6670  -26.9240   22.5900 C   0  0  0  0  0  2  0  0  0  0  0  0
  -19.5630  -26.6130   21.5750 C   0  0  0  0  0  2  0  0  0  0  0  0
  -18.1830  -26.7570   22.2220 C   0  0  0  0  0  2  0  0  0  0  0  0
  -19.1320  -28.8560   23.3440 C   0  0  0  0  0  0  0  0  0  0  0  0
  -18.9160  -30.1160   23.9450 C   0  0  0  0  0  3  0  0  0  0  0  0
  -17.6130  -30.6170   24.1170 C   0  0  0  0  0  3  0  0  0  0  0  0
  -16.5060  -29.8590   23.6990 C   0  0  0  0  0  3  0  0  0  0  0  0
  -16.7070  -28.6020   23.0990 C   0  0  0  0  0  3  0  0  0  0  0  0
  -25.8670  -32.5080   23.8660 C   0  0  0  0  0  3  0  0  0  0  0  0
  -26.3790  -31.7300   25.1390 C   0  0  1  0  0  0  0  0  0  0  0  0
  -25.2830  -31.4890   26.2030 C   0  0  0  0  0  1  0  0  0  0  0  0
  -26.9610  -30.3530   24.7410 C   0  0  0  0  0  1  0  0  0  0  0  0
  -27.5290  -32.5200   25.8070 C   0  0  0  0  0  1  0  0  0  0  0  0
  -25.5600  -33.9060   24.2030 N   0  0  0  0  0  0  0  0  0  0  0  0
  -25.8660  -34.9590   23.4340 C   0  0  0  0  0  0  0  0  0  0  0  0
  -26.5060  -34.8570   22.3840 O   0  0  0  0  0  0  0  0  0  0  0  0
  -24.9890  -34.0590   25.0210 H   0  0  0  0  0  0  0  0  0  0  0  0
  -24.1080  -36.7330   23.1440 C   0  0  0  0  0  1  0  0  0  0  0  0
  -25.3870  -36.3460   23.9040 C   0  0  0  0  0  3  0  0  0  0  0  0
  -27.5430  -37.2580   24.6420 C   0  0  0  0  0  1  0  0  0  0  0  0
  -26.4040  -37.4080   23.7390 N   0  0  0  0  0  0  0  0  0  0  0  0
  -25.9950  -38.3250   23.8930 H   0  0  0  0  0  0  0  0  0  0  0  0
  1  6  1  0
  2  4  2  0
  2  6  1  0
  3  5  1  0
  4  7  1  0
  6  3  2  0
  7 16  1  0
  7  5  2  0
  8 16  1  0
  9 14  1  0
 10 11  1  0
 10  9  1  0
 12 11  1  0
 12 21  1  0
 12 13  1  0
 14  8  1  0
 14 13  1  0
 15  8  2  0
 16 17  1  0
 18 19  2  0
 19 38  1  0
 20 19  1  0
 20 23  1  0
 21 22  1  0
 21 18  1  0
 22 20  2  0
 23 24  1  0
 24 25  2  0
 26 29  1  0
 26 25  1  0
 27 26  2  0
 28 27  1  0
 28 23  2  0
 29 30  1  0
 30 31  1  0
 31 32  2  0
 33 32  1  0
 33 37  1  0
 34 33  2  0
 35 30  2  0
 35 34  1  0
 36 35  1  0
 38 39  1  0
 39 42  1  0
 39 41  1  0
 40 38  2  0
 43 44  1  0
 43 18  1  0
 45 43  1  0
 46 47  1  0
 46  1  1  0
 48 49  1  0
 48 47  2  0
 50 61  2  0
 51 49  1  0
 51 56  1  0
 52 60  1  0
 52 62  1  0
 53 59  1  0
 53 55  1  0
 54 60  1  0
 55 54  1  0
 56 55  2  0
 57 58  1  0
 57 51  2  0
 58 53  2  0
 59 52  1  0
 60 50  1  0
 62 64  2  0
 63 62  1  0
 65 63  1  0
 66 75  2  0
 66 71  1  0
 67 63  1  0
 67 71  1  0
 68 67  1  0
 69 70  1  0
 69 68  1  0
 70 66  1  0
 71 72  2  0
 72 73  1  0
 74 73  2  0
 75 74  1  0
 76 50  1  0
 76 81  1  0
 76 77  1  0
 77 80  1  1
 77 78  1  0
 79 77  1  0
 81 84  1  0
 82 86  1  0
 82 81  1  0
 83 82  2  0
 86 85  1  0
 88 89  1  0
 88 86  1  0
 88 87  1  0
M  ISO  4   8 100  16 100  48 101  49 101
M  END
>  <TORSDO>  (16) 
F 20

>  <SCORE>  (16) 
-13.802

>  <name>  (16) 
15

>  <ligand_id>  (16) 
15

>  <original_smiles>  (16) 
[H]c1c([H])c([H])c2c(c1[H])C([H])([H])C([H])([H])C([H])([H])C2([H])N([H])C(=O)C1([H])N(C(=O)C([H])(N([H])C(=O)C([H])(N([H])C([H])([H])[H])C([H])([H])[H])C(C([H])([H])[H])(C([H])([H])[H])C([H])([H])[H])C([H])([H])c2c([H])c(OC([H])([H])C([H])([H])OC([H])([H])c3c([H])c([H])c(N([H])C(=O)N4C([H])([H])C([H])([H])C([H])([H])C([H])(n5nc(-c6c([H])c([H])c(Oc7c([H])c([H])c(F)c([H])c7F)c([H])c6[H])c(C(=O)N([H])[H])c5N([H])[H])C4([H])[H])c([H])c3[H])c([H])c([H])c2C1([H])[H]

>  <smiles>  (16) 
[H]c1c([H])c([H])c2c(c1[H])C([H])([H])C([H])([H])C([H])([H])C2([H])N([H])C(=O)C1([H])N(C(=O)C([H])(N([H])C(=O)C([H])(N([H])C([H])([H])[H])C([H])([H])[H])C(C([H])([H])[H])(C([H])([H])[H])C([H])([H])[H])C([H])([H])c2c([H])c(OC([H])([H])C([H])([H])OC([H])([H])c3c([H])c([H])c(N([H])C(=O)N4C([H])([H])C([H])([H])C([H])([H])C([H])(n5nc(-c6c([H])c([H])c(Oc7c([H])c([H])c(F)c([H])c7F)c([H])c6[H])c(C(=O)N([H])[H])c5N([H])[H])C4([H])[H])c([H])c3[H])c([H])c([H])c2C1([H])[H]

$$$$
16:0:0
     RDKit          3D

 88 96  0  0  1  0  0  0  0  0999 V2000
  -31.1660  -22.4350   20.6440 C   0  0  0  0  0  3  0  0  0  0  0  0
  -30.7720  -21.0740   20.5680 C   0  0  0  0  0  3  0  0  0  0  0  0
  -30.2620  -23.5190   20.4940 C   0  0  0  0  0  3  0  0  0  0  0  0
  -28.5210  -21.8630   20.1830 C   0  0  0  0  0  3  0  0  0  0  0  0
  -29.4330  -20.6900   20.3390 C   0  0  0  0  0  0  0  0  0  0  0  0
  -28.8900  -23.3100   20.2540 C   0  0  0  0  0  0  0  0  0  0  0  0
  -29.0640  -19.0670   20.2850 C   0  0  0  0  0  3  0  0  0  0  0  0
  -30.1380  -17.7530   20.4270 C   0  0  0  0  0  3  0  0  0  0  0  0
  -30.5190  -15.0060   20.3280 C   0  0  0  0  0  0  0  0  0  0  0  0
  -30.3980  -12.6520   19.3870 C   0  0  0  0  0  2  0  0  0  0  0  0
  -29.4650  -12.6010   18.1550 C   0  0  0  0  0  2  0  0  0  0  0  0
  -28.0050  -12.3770   18.5890 C   0  0  0  0  0  2  0  0  0  0  0  0
  -27.5920  -13.2960   19.7700 C   0  0  0  0  0  3  0  0  0  0  0  0
  -28.6510  -13.3250   20.8910 C   0  0  0  0  0  2  0  0  0  0  0  0
  -29.9170  -13.7480   20.2760 N   0  0  0  0  0  0  0  0  0  0  0  0
  -31.7260  -15.0580   20.0670 O   0  0  0  0  0  0  0  0  0  0  0  0
  -29.7550  -16.2050   20.4600 N   0  0  0  0  0  0  0  0  0  0  0  0
  -28.7730  -16.0300   20.6060 H   0  0  0  0  0  0  0  0  0  0  0  0
  -25.2090  -13.8510   20.5170 C   0  0  0  0  0  0  0  0  0  0  0  0
  -24.1530  -13.0660   20.8890 C   0  0  0  0  0  0  0  0  0  0  0  0
  -24.6300  -11.7190   20.8570 C   0  0  0  0  0  0  0  0  0  0  0  0
  -26.2590  -12.9820   20.2740 N   0  0  0  0  0  0  0  0  0  0  0  0
  -25.9210  -11.6950   20.5470 N   0  0  0  0  0  0  0  0  0  0  0  0
  -23.9140  -10.4500   21.0470 C   0  0  0  0  0  0  0  0  0  0  0  0
  -24.3540   -9.4860   21.9790 C   0  0  0  0  0  3  0  0  0  0  0  0
  -23.6370   -8.2830   22.1590 C   0  0  0  0  0  3  0  0  0  0  0  0
  -22.4650   -8.0370   21.4060 C   0  0  0  0  0  0  0  0  0  0  0  0
  -22.0430   -8.9890   20.4620 C   0  0  0  0  0  3  0  0  0  0  0  0
  -22.7600  -10.1840   20.2820 C   0  0  0  0  0  3  0  0  0  0  0  0
  -21.7190   -6.8870   21.4940 O   0  0  0  0  0  0  0  0  0  0  0  0
  -21.6800   -6.1410   22.6450 C   0  0  0  0  0  0  0  0  0  0  0  0
  -21.2540   -6.6880   23.8740 C   0  0  0  0  0  3  0  0  0  0  0  0
  -21.1640   -5.8670   25.0170 C   0  0  0  0  0  3  0  0  0  0  0  0
  -21.4890   -4.5000   24.9310 C   0  0  0  0  0  0  0  0  0  0  0  0
  -21.9080   -3.9530   23.7050 C   0  0  0  0  0  3  0  0  0  0  0  0
  -22.0000   -4.7690   22.5650 C   0  0  0  0  0  0  0  0  0  0  0  0
  -22.3840   -4.2320   21.3820 F   0  0  0  0  0  0  0  0  0  0  0  0
  -21.3950   -3.7090   26.0250 F   0  0  0  0  0  0  0  0  0  0  0  0
  -22.7510  -13.5310   21.1550 C   0  0  0  0  0  0  0  0  0  0  0  0
  -22.0280  -12.8330   22.0230 N   0  0  0  0  0  0  0  0  0  0  0  0
  -22.3060  -14.5500   20.6280 O   0  0  0  0  0  0  0  0  0  0  0  0
  -22.4040  -12.0120   22.4750 H   0  0  0  0  0  0  0  0  0  0  0  0
  -21.0860  -13.1250   22.2410 H   0  0  0  0  0  0  0  0  0  0  0  0
  -25.3570  -15.2230   20.3360 N   0  0  0  0  0  0  0  0  0  0  0  0
  -24.5720  -15.8590   20.4340 H   0  0  0  0  0  0  0  0  0  0  0  0
  -26.1840  -15.6700   19.9620 H   0  0  0  0  0  0  0  0  0  0  0  0
  -27.9020  -24.6250   20.0350 C   0  0  0  0  0  2  0  0  0  0  0  0
  -28.2300  -26.1410   20.2680 O   0  0  0  0  0  0  0  0  0  0  0  0
  -24.6420  -31.8930   23.2460 C   0  0  0  0  0  0  0  0  0  0  0  0
  -27.1940  -27.1540   20.2040 C   0  0  0  0  0  0  0  0  0  0  0  0
  -23.4360  -30.5070   21.6060 C   0  0  0  0  0  3  0  0  0  0  0  0
  -24.8760  -28.9260   20.1780 C   0  0  0  0  0  0  0  0  0  0  0  0
  -25.9940  -30.7520   21.4450 C   0  0  0  0  0  2  0  0  0  0  0  0
  -26.0600  -29.3590   20.7890 C   0  0  0  0  0  0  0  0  0  0  0  0
  -27.2190  -28.4890   20.7860 C   0  0  0  0  0  3  0  0  0  0  0  0
  -25.9810  -26.8340   19.5510 C   0  0  0  0  0  3  0  0  0  0  0  0
  -24.8510  -27.6770   19.5430 C   0  0  0  0  0  3  0  0  0  0  0  0
  -23.6540  -29.8310   20.2270 C   0  0  0  0  0  2  0  0  0  0  0  0
  -24.7100  -31.0710   22.1540 N   0  0  0  0  0  0  0  0  0  0  0  0
  -23.5560  -32.1830   23.7730 O   0  0  0  0  0  0  0  0  0  0  0  0
  -22.7480  -29.5030   22.5670 C   0  0  0  0  0  0  0  0  0  0  0  0
  -21.4190  -29.3390   22.4380 N   0  0  0  0  0  0  0  0  0  0  0  0
  -23.4130  -28.8730   23.3930 O   0  0  0  0  0  0  0  0  0  0  0  0
  -20.9370  -29.8980   21.7460 H   0  0  0  0  0  0  0  0  0  0  0  0
  -18.0310  -28.1490   22.9270 C   0  0  0  0  0  0  0  0  0  0  0  0
  -20.5900  -28.4070   23.2090 C   0  0  0  0  0  3  0  0  0  0  0  0
  -20.6920  -26.9720   22.6410 C   0  0  0  0  0  2  0  0  0  0  0  0
  -19.5940  -26.6460   21.6230 C   0  0  0  0  0  2  0  0  0  0  0  0
  -18.2090  -26.7960   22.2580 C   0  0  0  0  0  2  0  0  0  0  0  0
  -19.1490  -28.9120   23.3590 C   0  0  0  0  0  0  0  0  0  0  0  0
  -18.9260  -30.1750   23.9480 C   0  0  0  0  0  3  0  0  0  0  0  0
  -17.6200  -30.6770   24.1060 C   0  0  0  0  0  3  0  0  0  0  0  0
  -16.5180  -29.9110   23.6880 C   0  0  0  0  0  3  0  0  0  0  0  0
  -16.7250  -28.6490   23.1040 C   0  0  0  0  0  3  0  0  0  0  0  0
  -25.9210  -32.5210   23.8760 C   0  0  0  0  0  3  0  0  0  0  0  0
  -26.4300  -31.7450   25.1520 C   0  0  1  0  0  0  0  0  0  0  0  0
  -25.3320  -31.5120   26.2170 C   0  0  0  0  0  1  0  0  0  0  0  0
  -27.0050  -30.3640   24.7630 C   0  0  0  0  0  1  0  0  0  0  0  0
  -27.5830  -32.5300   25.8180 C   0  0  0  0  0  1  0  0  0  0  0  0
  -25.6140  -33.9190   24.2170 N   0  0  0  0  0  0  0  0  0  0  0  0
  -25.9260  -34.9790   23.4580 C   0  0  0  0  0  0  0  0  0  0  0  0
  -26.5690  -34.8820   22.4090 O   0  0  0  0  0  0  0  0  0  0  0  0
  -25.0410  -34.0690   25.0350 H   0  0  0  0  0  0  0  0  0  0  0  0
  -24.1750  -36.7650   23.1780 C   0  0  0  0  0  1  0  0  0  0  0  0
  -25.4520  -36.3660   23.9370 C   0  0  0  0  0  3  0  0  0  0  0  0
  -27.6130  -37.2660   24.6780 C   0  0  0  0  0  1  0  0  0  0  0  0
  -26.4740  -37.4240   23.7780 N   0  0  0  0  0  0  0  0  0  0  0  0
  -26.0690  -38.3430   23.9370 H   0  0  0  0  0  0  0  0  0  0  0  0
  2  1  1  0
  3  1  2  0
  4  6  2  0
  4  5  1  0
  5  2  2  0
  6  3  1  0
  7  5  1  0
  7  8  2  0
  8 17  1  0
  9 17  1  0
 10 15  1  0
 11 12  1  0
 11 10  1  0
 13 12  1  0
 13 22  1  0
 13 14  1  0
 15  9  1  0
 15 14  1  0
 16  9  2  0
 17 18  1  0
 19 20  2  0
 20 39  1  0
 21 20  1  0
 21 24  1  0
 22 19  1  0
 22 23  1  0
 23 21  2  0
 24 25  1  0
 25 26  2  0
 27 30  1  0
 27 26  1  0
 28 27  2  0
 29 28  1  0
 29 24  2  0
 30 31  1  0
 31 32  1  0
 32 33  2  0
 34 33  1  0
 34 38  1  0
 35 34  2  0
 36 31  2  0
 36 35  1  0
 37 36  1  0
 39 40  1  0
 40 43  1  0
 40 42  1  0
 41 39  2  0
 44 45  1  0
 44 19  1  0
 46 44  1  0
 47  6  1  0
 47 48  1  0
 49 60  2  0
 50 48  1  0
 50 55  1  0
 51 59  1  0
 51 61  1  0
 52 58  1  0
 52 54  1  0
 53 59  1  0
 54 53  1  0
 55 54  2  0
 56 50  2  0
 57 56  1  0
 57 52  2  0
 58 51  1  0
 59 49  1  0
 61 63  2  0
 62 61  1  0
 64 62  1  0
 65 74  2  0
 65 70  1  0
 66 62  1  0
 66 70  1  0
 67 66  1  0
 68 69  1  0
 68 67  1  0
 69 65  1  0
 70 71  2  0
 71 72  1  0
 73 72  2  0
 74 73  1  0
 75 49  1  0
 75 80  1  0
 75 76  1  0
 76 79  1  1
 76 77  1  0
 78 76  1  0
 80 83  1  0
 81 85  1  0
 81 80  1  0
 82 81  2  0
 85 84  1  0
 87 85  1  0
 87 88  1  0
 87 86  1  0
M  ISO  4   9 100  17 100  47 101  48 101
M  END
>  <TORSDO>  (17) 
F 19

>  <SCORE>  (17) 
-14.983

>  <name>  (17) 
16

>  <ligand_id>  (17) 
16

>  <original_smiles>  (17) 
[H]c1c([H])c(C([H])([H])Oc2c([H])c([H])c3c(c2[H])C([H])([H])N(C(=O)C([H])(N([H])C(=O)C([H])(N([H])C([H])([H])[H])C([H])([H])[H])C(C([H])([H])[H])(C([H])([H])[H])C([H])([H])[H])C([H])(C(=O)N([H])C2([H])c4c([H])c([H])c([H])c([H])c4C([H])([H])C([H])([H])C2([H])[H])C3([H])[H])c([H])c(C([H])([H])C([H])([H])N([H])C(=O)N2C([H])([H])C([H])([H])C([H])([H])C([H])(n3nc(-c4c([H])c([H])c(Oc5c([H])c([H])c(F)c([H])c5F)c([H])c4[H])c(C(=O)N([H])[H])c3N([H])[H])C2([H])[H])c1[H]

>  <smiles>  (17) 
[H]c1c([H])c(C([H])([H])Oc2c([H])c([H])c3c(c2[H])C([H])([H])N(C(=O)C([H])(N([H])C(=O)C([H])(N([H])C([H])([H])[H])C([H])([H])[H])C(C([H])([H])[H])(C([H])([H])[H])C([H])([H])[H])C([H])(C(=O)N([H])C2([H])c4c([H])c([H])c([H])c([H])c4C([H])([H])C([H])([H])C2([H])[H])C3([H])[H])c([H])c(C([H])([H])C([H])([H])N([H])C(=O)N2C([H])([H])C([H])([H])C([H])([H])C([H])(n3nc(-c4c([H])c([H])c(Oc5c([H])c([H])c(F)c([H])c5F)c([H])c4[H])c(C(=O)N([H])[H])c3N([H])[H])C2([H])[H])c1[H]

$$$$
17:0:0
     RDKit          3D

 89 97  0  0  1  0  0  0  0  0999 V2000
  -28.4230  -21.9800   20.2360 N   0  0  0  0  0  0  0  0  0  0  0  0
  -27.4070  -22.0210   20.2670 H   0  0  0  0  0  0  0  0  0  0  0  0
  -28.2210  -18.1270   20.4770 C   0  0  0  0  0  3  0  0  0  0  0  0
  -30.5180  -18.5690   20.1860 C   0  0  0  0  0  3  0  0  0  0  0  0
  -27.9360  -19.5390   20.4420 C   0  0  0  0  0  3  0  0  0  0  0  0
  -30.2270  -20.0090   20.1650 C   0  0  0  0  0  3  0  0  0  0  0  0
  -29.5170  -17.5420   20.3430 C   0  0  0  0  0  0  0  0  0  0  0  0
  -28.9060  -20.5760   20.2850 C   0  0  0  0  0  0  0  0  0  0  0  0
  -30.4840  -14.9520   20.0880 C   0  0  0  0  0  0  0  0  0  0  0  0
  -30.3570  -12.6400   19.0650 C   0  0  0  0  0  2  0  0  0  0  0  0
  -29.3590  -12.6630   17.8820 C   0  0  0  0  0  2  0  0  0  0  0  0
  -27.9130  -12.4460   18.3730 C   0  0  0  0  0  2  0  0  0  0  0  0
  -27.5710  -13.3200   19.6080 C   0  0  0  0  0  3  0  0  0  0  0  0
  -28.6790  -13.2460   20.6810 C   0  0  0  0  0  2  0  0  0  0  0  0
  -29.9320  -13.6750   20.0430 N   0  0  0  0  0  0  0  0  0  0  0  0
  -31.6500  -15.1040   19.7070 O   0  0  0  0  0  0  0  0  0  0  0  0
  -29.6180  -16.0180   20.4090 N   0  0  0  0  0  0  0  0  0  0  0  0
  -28.7440  -15.6130   20.7050 H   0  0  0  0  0  0  0  0  0  0  0  0
  -25.2200  -13.8850   20.4550 C   0  0  0  0  0  0  0  0  0  0  0  0
  -24.1730  -13.1010   20.8570 C   0  0  0  0  0  0  0  0  0  0  0  0
  -24.6360  -11.7520   20.7750 C   0  0  0  0  0  0  0  0  0  0  0  0
  -26.2520  -13.0130   20.1510 N   0  0  0  0  0  0  0  0  0  0  0  0
  -25.9120  -11.7240   20.4080 N   0  0  0  0  0  0  0  0  0  0  0  0
  -23.9180  -10.4850   20.9680 C   0  0  0  0  0  0  0  0  0  0  0  0
  -24.3600   -9.5210   21.9010 C   0  0  0  0  0  3  0  0  0  0  0  0
  -23.6420   -8.3190   22.0830 C   0  0  0  0  0  3  0  0  0  0  0  0
  -22.4700   -8.0730   21.3320 C   0  0  0  0  0  0  0  0  0  0  0  0
  -22.0460   -9.0260   20.3880 C   0  0  0  0  0  3  0  0  0  0  0  0
  -22.7650  -10.2190   20.2050 C   0  0  0  0  0  3  0  0  0  0  0  0
  -21.7230   -6.9230   21.4220 O   0  0  0  0  0  0  0  0  0  0  0  0
  -21.6360   -6.2120   22.5920 C   0  0  0  0  0  0  0  0  0  0  0  0
  -21.1400   -6.7890   23.7810 C   0  0  0  0  0  3  0  0  0  0  0  0
  -21.0040   -6.0020   24.9420 C   0  0  0  0  0  3  0  0  0  0  0  0
  -21.3530   -4.6390   24.9160 C   0  0  0  0  0  0  0  0  0  0  0  0
  -21.8430   -4.0610   23.7310 C   0  0  0  0  0  3  0  0  0  0  0  0
  -21.9810   -4.8440   22.5720 C   0  0  0  0  0  0  0  0  0  0  0  0
  -22.4330   -4.2770   21.4270 F   0  0  0  0  0  0  0  0  0  0  0  0
  -21.2160   -3.8810   26.0280 F   0  0  0  0  0  0  0  0  0  0  0  0
  -22.7880  -13.5710   21.1980 C   0  0  0  0  0  0  0  0  0  0  0  0
  -22.1010  -12.8590   22.0840 N   0  0  0  0  0  0  0  0  0  0  0  0
  -22.3260  -14.6020   20.7120 O   0  0  0  0  0  0  0  0  0  0  0  0
  -22.4890  -12.0250   22.4980 H   0  0  0  0  0  0  0  0  0  0  0  0
  -21.1730  -13.1550   22.3540 H   0  0  0  0  0  0  0  0  0  0  0  0
  -25.3710  -15.2590   20.2940 N   0  0  0  0  0  0  0  0  0  0  0  0
  -24.5900  -15.8940   20.4230 H   0  0  0  0  0  0  0  0  0  0  0  0
  -26.1580  -15.6910   19.8280 H   0  0  0  0  0  0  0  0  0  0  0  0
  -29.0040  -23.4170   20.3020 C   0  0  0  0  0  3  0  0  0  0  0  0
  -27.9840  -24.7350   20.0800 C   0  0  0  0  0  3  0  0  0  0  0  0
  -28.2720  -26.2470   20.2500 O   0  0  0  0  0  0  0  0  0  0  0  0
  -24.6400  -31.8950   23.2610 C   0  0  0  0  0  0  0  0  0  0  0  0
  -27.2080  -27.2180   20.1940 C   0  0  0  0  0  0  0  0  0  0  0  0
  -23.4350  -30.5170   21.6090 C   0  0  0  0  0  3  0  0  0  0  0  0
  -24.8790  -28.9540   20.1750 C   0  0  0  0  0  0  0  0  0  0  0  0
  -25.9890  -30.7820   21.4470 C   0  0  0  0  0  2  0  0  0  0  0  0
  -26.0590  -29.3960   20.7850 C   0  0  0  0  0  0  0  0  0  0  0  0
  -27.2250  -28.5450   20.7760 C   0  0  0  0  0  3  0  0  0  0  0  0
  -25.9990  -26.8710   19.5490 C   0  0  0  0  0  3  0  0  0  0  0  0
  -24.8600  -27.7030   19.5420 C   0  0  0  0  0  3  0  0  0  0  0  0
  -23.6530  -29.8510   20.2260 C   0  0  0  0  0  2  0  0  0  0  0  0
  -24.7080  -31.0850   22.1610 N   0  0  0  0  0  0  0  0  0  0  0  0
  -23.5540  -32.1800   23.7900 O   0  0  0  0  0  0  0  0  0  0  0  0
  -22.7520  -29.5050   22.5630 C   0  0  0  0  0  0  0  0  0  0  0  0
  -21.4240  -29.3390   22.4300 N   0  0  0  0  0  0  0  0  0  0  0  0
  -23.4200  -28.8700   23.3840 O   0  0  0  0  0  0  0  0  0  0  0  0
  -20.9430  -29.9020   21.7440 H   0  0  0  0  0  0  0  0  0  0  0  0
  -18.0350  -28.1590   22.9260 C   0  0  0  0  0  0  0  0  0  0  0  0
  -20.5960  -28.4000   23.1930 C   0  0  0  0  0  3  0  0  0  0  0  0
  -20.6870  -26.9730   22.6050 C   0  0  0  0  0  2  0  0  0  0  0  0
  -19.5810  -26.6680   21.5890 C   0  0  0  0  0  2  0  0  0  0  0  0
  -18.2010  -26.8160   22.2360 C   0  0  0  0  0  2  0  0  0  0  0  0
  -19.1600  -28.9100   23.3610 C   0  0  0  0  0  0  0  0  0  0  0  0
  -18.9490  -30.1680   23.9680 C   0  0  0  0  0  3  0  0  0  0  0  0
  -17.6470  -30.6750   24.1430 C   0  0  0  0  0  3  0  0  0  0  0  0
  -16.5370  -29.9210   23.7210 C   0  0  0  0  0  3  0  0  0  0  0  0
  -16.7330  -28.6650   23.1200 C   0  0  0  0  0  3  0  0  0  0  0  0
  -25.9200  -32.5200   23.8940 C   0  0  0  0  0  3  0  0  0  0  0  0
  -26.4170  -31.7460   25.1780 C   0  0  1  0  0  0  0  0  0  0  0  0
  -25.3120  -31.5190   26.2350 C   0  0  0  0  0  1  0  0  0  0  0  0
  -26.9930  -30.3620   24.7960 C   0  0  0  0  0  1  0  0  0  0  0  0
  -27.5680  -32.5310   25.8480 C   0  0  0  0  0  1  0  0  0  0  0  0
  -25.6180  -33.9210   24.2260 N   0  0  0  0  0  0  0  0  0  0  0  0
  -25.9290  -34.9720   23.4570 C   0  0  0  0  0  0  0  0  0  0  0  0
  -26.5690  -34.8650   22.4070 O   0  0  0  0  0  0  0  0  0  0  0  0
  -25.0460  -34.0780   25.0430 H   0  0  0  0  0  0  0  0  0  0  0  0
  -24.1790  -36.7580   23.1700 C   0  0  0  0  0  1  0  0  0  0  0  0
  -25.4580  -36.3640   23.9250 C   0  0  0  0  0  3  0  0  0  0  0  0
  -27.6240  -37.2700   24.6500 C   0  0  0  0  0  1  0  0  0  0  0  0
  -26.4810  -37.4200   23.7530 N   0  0  0  0  0  0  0  0  0  0  0  0
  -26.0770  -38.3400   23.9050 H   0  0  0  0  0  0  0  0  0  0  0  0
  1  2  1  0
  1  8  1  0
  1 47  1  0
  4  7  1  0
  5  3  1  0
  6  4  2  0
  6  8  1  0
  7 17  1  0
  7  3  2  0
  8  5  2  0
  9 17  1  0
 10 15  1  0
 11 12  1  0
 11 10  1  0
 13 12  1  0
 13 22  1  0
 13 14  1  0
 15  9  1  0
 15 14  1  0
 16  9  2  0
 17 18  1  0
 19 20  2  0
 20 39  1  0
 21 20  1  0
 21 24  1  0
 22 23  1  0
 22 19  1  0
 23 21  2  0
 24 25  1  0
 25 26  2  0
 27 30  1  0
 27 26  1  0
 28 27  2  0
 29 28  1  0
 29 24  2  0
 30 31  1  0
 31 32  1  0
 32 33  2  0
 34 33  1  0
 34 38  1  0
 35 34  2  0
 36 31  2  0
 36 35  1  0
 37 36  1  0
 39 40  1  0
 40 43  1  0
 40 42  1  0
 41 39  2  0
 44 45  1  0
 44 19  1  0
 46 44  1  0
 48 49  1  0
 48 47  2  0
 50 61  2  0
 51 49  1  0
 51 56  1  0
 52 60  1  0
 52 62  1  0
 53 59  1  0
 53 55  1  0
 54 60  1  0
 55 54  1  0
 56 55  2  0
 57 51  2  0
 58 57  1  0
 58 53  2  0
 59 52  1  0
 60 50  1  0
 62 64  2  0
 63 62  1  0
 65 63  1  0
 66 75  2  0
 66 71  1  0
 67 63  1  0
 67 71  1  0
 68 67  1  0
 69 70  1  0
 69 68  1  0
 70 66  1  0
 71 72  2  0
 72 73  1  0
 74 73  2  0
 75 74  1  0
 76 50  1  0
 76 81  1  0
 76 77  1  0
 77 80  1  1
 77 78  1  0
 79 77  1  0
 81 84  1  0
 82 86  1  0
 82 81  1  0
 83 82  2  0
 86 85  1  0
 88 89  1  0
 88 86  1  0
 88 87  1  0
M  ISO  4   9 100  17 100  48 101  49 101
M  END
>  <TORSDO>  (18) 
F 19

>  <SCORE>  (18) 
-14.107

>  <name>  (18) 
17

>  <ligand_id>  (18) 
17

>  <original_smiles>  (18) 
[H]c1c([H])c([H])c2c(c1[H])C([H])([H])C([H])([H])C([H])([H])C2([H])N([H])C(=O)C1([H])N(C(=O)C([H])(N([H])C(=O)C([H])(N([H])C([H])([H])[H])C([H])([H])[H])C(C([H])([H])[H])(C([H])([H])[H])C([H])([H])[H])C([H])([H])c2c([H])c(OC([H])([H])C([H])([H])N([H])c3c([H])c([H])c(N([H])C(=O)N4C([H])([H])C([H])([H])C([H])([H])C([H])(n5nc(-c6c([H])c([H])c(Oc7c([H])c([H])c(F)c([H])c7F)c([H])c6[H])c(C(=O)N([H])[H])c5N([H])[H])C4([H])[H])c([H])c3[H])c([H])c([H])c2C1([H])[H]

>  <smiles>  (18) 
[H]c1c([H])c([H])c2c(c1[H])C([H])([H])C([H])([H])C([H])([H])C2([H])N([H])C(=O)C1([H])N(C(=O)C([H])(N([H])C(=O)C([H])(N([H])C([H])([H])[H])C([H])([H])[H])C(C([H])([H])[H])(C([H])([H])[H])C([H])([H])[H])C([H])([H])c2c([H])c(OC([H])([H])C([H])([H])N([H])c3c([H])c([H])c(N([H])C(=O)N4C([H])([H])C([H])([H])C([H])([H])C([H])(n5nc(-c6c([H])c([H])c(Oc7c([H])c([H])c(F)c([H])c7F)c([H])c6[H])c(C(=O)N([H])[H])c5N([H])[H])C4([H])[H])c([H])c3[H])c([H])c([H])c2C1([H])[H]

$$$$
18:0:0
     RDKit          3D

 89 97  0  0  1  0  0  0  0  0999 V2000
  -30.6000  -18.5700   20.2420 C   0  0  0  0  0  3  0  0  0  0  0  0
  -30.3030  -20.0010   20.0810 C   0  0  0  0  0  3  0  0  0  0  0  0
  -28.3150  -18.0820   19.9500 C   0  0  0  0  0  3  0  0  0  0  0  0
  -28.0190  -19.4850   19.7730 C   0  0  0  0  0  0  0  0  0  0  0  0
  -29.6070  -17.5220   20.1850 C   0  0  0  0  0  0  0  0  0  0  0  0
  -28.9880  -20.5410   19.8310 C   0  0  0  0  0  0  0  0  0  0  0  0
  -26.5720  -19.8670   19.5120 C   0  0  0  0  0  1  0  0  0  0  0  0
  -30.5680  -14.9060   20.1730 C   0  0  0  0  0  0  0  0  0  0  0  0
  -30.4660  -12.5240   19.3130 C   0  0  0  0  0  2  0  0  0  0  0  0
  -29.5180  -12.4590   18.0900 C   0  0  0  0  0  2  0  0  0  0  0  0
  -28.0520  -12.2890   18.5340 C   0  0  0  0  0  2  0  0  0  0  0  0
  -27.6660  -13.2540   19.6850 C   0  0  0  0  0  3  0  0  0  0  0  0
  -28.7260  -13.2530   20.8080 C   0  0  0  0  0  2  0  0  0  0  0  0
  -30.0070  -13.6320   20.1920 N   0  0  0  0  0  0  0  0  0  0  0  0
  -31.7540  -15.0210   19.8450 O   0  0  0  0  0  0  0  0  0  0  0  0
  -29.6960  -16.0020   20.3630 N   0  0  0  0  0  0  0  0  0  0  0  0
  -28.8000  -15.6220   20.6240 H   0  0  0  0  0  0  0  0  0  0  0  0
  -25.3120  -13.9030   20.4650 C   0  0  0  0  0  0  0  0  0  0  0  0
  -24.2280  -13.1580   20.8400 C   0  0  0  0  0  0  0  0  0  0  0  0
  -24.6460  -11.7930   20.7750 C   0  0  0  0  0  0  0  0  0  0  0  0
  -26.3220  -12.9940   20.1930 N   0  0  0  0  0  0  0  0  0  0  0  0
  -25.9310  -11.7190   20.4430 N   0  0  0  0  0  0  0  0  0  0  0  0
  -23.8800  -10.5520   20.9500 C   0  0  0  0  0  0  0  0  0  0  0  0
  -24.3010   -9.5440   21.8460 C   0  0  0  0  0  3  0  0  0  0  0  0
  -23.5370   -8.3690   22.0110 C   0  0  0  0  0  3  0  0  0  0  0  0
  -22.3370   -8.1940   21.2820 C   0  0  0  0  0  0  0  0  0  0  0  0
  -21.9350   -9.1900   20.3740 C   0  0  0  0  0  3  0  0  0  0  0  0
  -22.6990  -10.3560   20.2070 C   0  0  0  0  0  3  0  0  0  0  0  0
  -21.5450   -7.0740   21.3580 O   0  0  0  0  0  0  0  0  0  0  0  0
  -21.5070   -6.2950   22.4870 C   0  0  0  0  0  0  0  0  0  0  0  0
  -21.1400   -6.8230   23.7440 C   0  0  0  0  0  3  0  0  0  0  0  0
  -21.0460   -5.9740   24.8650 C   0  0  0  0  0  3  0  0  0  0  0  0
  -21.3090   -4.5980   24.7290 C   0  0  0  0  0  0  0  0  0  0  0  0
  -21.6690   -4.0690   23.4770 C   0  0  0  0  0  3  0  0  0  0  0  0
  -21.7640   -4.9160   22.3590 C   0  0  0  0  0  0  0  0  0  0  0  0
  -22.0910   -4.3980   21.1510 F   0  0  0  0  0  0  0  0  0  0  0  0
  -21.2110   -3.7800   25.8040 F   0  0  0  0  0  0  0  0  0  0  0  0
  -22.8510  -13.6760   21.1390 C   0  0  0  0  0  0  0  0  0  0  0  0
  -22.1170  -12.9960   22.0130 N   0  0  0  0  0  0  0  0  0  0  0  0
  -22.4370  -14.7180   20.6340 O   0  0  0  0  0  0  0  0  0  0  0  0
  -22.4660  -12.1520   22.4440 H   0  0  0  0  0  0  0  0  0  0  0  0
  -21.1920  -13.3230   22.2540 H   0  0  0  0  0  0  0  0  0  0  0  0
  -25.5150  -15.2700   20.3020 N   0  0  0  0  0  0  0  0  0  0  0  0
  -24.7520  -15.9300   20.4010 H   0  0  0  0  0  0  0  0  0  0  0  0
  -26.3200  -15.6650   19.8340 H   0  0  0  0  0  0  0  0  0  0  0  0
  -28.5020  -21.9050   19.6020 O   0  0  0  0  0  0  0  0  0  0  0  0
  -29.0970  -23.3080   19.7440 C   0  0  0  0  0  3  0  0  0  0  0  0
  -28.1100  -24.6490   19.4750 C   0  0  0  0  0  3  0  0  0  0  0  0
  -28.3550  -26.1640   19.7190 O   0  0  0  0  0  0  0  0  0  0  0  0
  -24.5930  -31.5780   23.0040 C   0  0  0  0  0  0  0  0  0  0  0  0
  -27.2660  -27.1080   19.7140 C   0  0  0  0  0  0  0  0  0  0  0  0
  -23.4110  -30.2350   21.3090 C   0  0  0  0  0  3  0  0  0  0  0  0
  -24.8840  -28.7770   19.7930 C   0  0  0  0  0  0  0  0  0  0  0  0
  -25.9540  -30.5810   21.1330 C   0  0  0  0  0  2  0  0  0  0  0  0
  -26.0580  -29.2280   20.4100 C   0  0  0  0  0  0  0  0  0  0  0  0
  -27.2490  -28.4120   20.3520 C   0  0  0  0  0  3  0  0  0  0  0  0
  -26.0570  -26.7550   19.0690 C   0  0  0  0  0  3  0  0  0  0  0  0
  -24.8960  -27.5540   19.1080 C   0  0  0  0  0  3  0  0  0  0  0  0
  -23.6340  -29.6350   19.8960 C   0  0  0  0  0  2  0  0  0  0  0  0
  -24.6730  -30.8170   21.8710 N   0  0  0  0  0  0  0  0  0  0  0  0
  -23.5050  -31.8070   23.5560 O   0  0  0  0  0  0  0  0  0  0  0  0
  -22.7700  -29.1630   22.2250 C   0  0  0  0  0  0  0  0  0  0  0  0
  -21.4430  -28.9780   22.1150 N   0  0  0  0  0  0  0  0  0  0  0  0
  -23.4680  -28.5020   22.9980 O   0  0  0  0  0  0  0  0  0  0  0  0
  -20.9350  -29.5640   21.4680 H   0  0  0  0  0  0  0  0  0  0  0  0
  -18.0860  -27.7200   22.6380 C   0  0  0  0  0  0  0  0  0  0  0  0
  -20.6510  -27.9860   22.8480 C   0  0  0  0  0  3  0  0  0  0  0  0
  -20.7430  -26.5950   22.1810 C   0  0  0  0  0  2  0  0  0  0  0  0
  -19.6150  -26.3280   21.1790 C   0  0  0  0  0  2  0  0  0  0  0  0
  -18.2520  -26.4190   21.8720 C   0  0  0  0  0  2  0  0  0  0  0  0
  -19.2120  -28.4640   23.0820 C   0  0  0  0  0  0  0  0  0  0  0  0
  -19.0010  -29.6830   23.7620 C   0  0  0  0  0  3  0  0  0  0  0  0
  -17.6980  -30.1580   24.0030 C   0  0  0  0  0  3  0  0  0  0  0  0
  -16.5870  -29.4110   23.5720 C   0  0  0  0  0  3  0  0  0  0  0  0
  -16.7830  -28.1930   22.8960 C   0  0  0  0  0  3  0  0  0  0  0  0
  -25.8610  -32.2140   23.6500 C   0  0  0  0  0  3  0  0  0  0  0  0
  -26.3970  -31.4010   24.8940 C   0  0  1  0  0  0  0  0  0  0  0  0
  -25.3150  -31.1050   25.9590 C   0  0  0  0  0  1  0  0  0  0  0  0
  -27.0000  -30.0490   24.4480 C   0  0  0  0  0  1  0  0  0  0  0  0
  -27.5400  -32.1860   25.5790 C   0  0  0  0  0  1  0  0  0  0  0  0
  -25.5200  -33.5890   24.0480 N   0  0  0  0  0  0  0  0  0  0  0  0
  -25.8080  -34.6840   23.3340 C   0  0  0  0  0  0  0  0  0  0  0  0
  -26.4590  -34.6450   22.2850 O   0  0  0  0  0  0  0  0  0  0  0  0
  -24.9380  -33.6910   24.8670 H   0  0  0  0  0  0  0  0  0  0  0  0
  -24.0210  -36.4420   23.1090 C   0  0  0  0  0  1  0  0  0  0  0  0
  -25.2980  -36.0380   23.8650 C   0  0  0  0  0  3  0  0  0  0  0  0
  -27.4310  -36.9520   24.6700 C   0  0  0  0  0  1  0  0  0  0  0  0
  -26.2970  -37.1260   23.7650 N   0  0  0  0  0  0  0  0  0  0  0  0
  -25.8700  -38.0270   23.9610 H   0  0  0  0  0  0  0  0  0  0  0  0
  2  1  2  0
  3  5  2  0
  4  6  2  0
  4  3  1  0
  5  1  1  0
  5 16  1  0
  6  2  1  0
  7  4  1  0
  8 14  1  0
  8 16  1  0
  9 14  1  0
 10 11  1  0
 10  9  1  0
 12 11  1  0
 12 21  1  0
 12 13  1  0
 14 13  1  0
 15  8  2  0
 16 17  1  0
 18 19  2  0
 19 38  1  0
 20 19  1  0
 20 23  1  0
 21 22  1  0
 21 18  1  0
 22 20  2  0
 23 24  1  0
 24 25  2  0
 26 29  1  0
 26 25  1  0
 27 26  2  0
 28 27  1  0
 28 23  2  0
 29 30  1  0
 30 31  1  0
 31 32  2  0
 33 32  1  0
 33 37  1  0
 34 33  2  0
 35 30  2  0
 35 34  1  0
 36 35  1  0
 38 39  1  0
 39 42  1  0
 39 41  1  0
 40 38  2  0
 43 44  1  0
 43 18  1  0
 45 43  1  0
 46 47  1  0
 46  6  1  0
 48 49  1  0
 48 47  2  0
 50 61  2  0
 51 49  1  0
 51 56  1  0
 52 60  1  0
 52 62  1  0
 53 59  1  0
 53 55  1  0
 54 60  1  0
 55 54  1  0
 56 55  2  0
 57 58  1  0
 57 51  2  0
 58 53  2  0
 59 52  1  0
 60 50  1  0
 62 64  2  0
 63 62  1  0
 65 63  1  0
 66 75  2  0
 66 71  1  0
 67 63  1  0
 67 71  1  0
 68 67  1  0
 69 70  1  0
 69 68  1  0
 70 66  1  0
 71 72  2  0
 72 73  1  0
 74 73  2  0
 75 74  1  0
 76 50  1  0
 76 81  1  0
 76 77  1  0
 77 80  1  1
 77 78  1  0
 79 77  1  0
 81 84  1  0
 82 86  1  0
 82 81  1  0
 83 82  2  0
 86 85  1  0
 88 86  1  0
 88 89  1  0
 88 87  1  0
M  ISO  4   8 100  16 100  48 101  49 101
M  END
>  <TORSDO>  (19) 
F 19

>  <SCORE>  (19) 
-13.134

>  <name>  (19) 
18

>  <ligand_id>  (19) 
18

>  <original_smiles>  (19) 
[H]c1c([H])c([H])c2c(c1[H])C([H])([H])C([H])([H])C([H])([H])C2([H])N([H])C(=O)C1([H])N(C(=O)C([H])(N([H])C(=O)C([H])(N([H])C([H])([H])[H])C([H])([H])[H])C(C([H])([H])[H])(C([H])([H])[H])C([H])([H])[H])C([H])([H])c2c([H])c(OC([H])([H])C([H])([H])Oc3c([H])c([H])c(N([H])C(=O)N4C([H])([H])C([H])([H])C([H])([H])C([H])(n5nc(-c6c([H])c([H])c(Oc7c([H])c([H])c(F)c([H])c7F)c([H])c6[H])c(C(=O)N([H])[H])c5N([H])[H])C4([H])[H])c([H])c3C([H])([H])[H])c([H])c([H])c2C1([H])[H]

>  <smiles>  (19) 
[H]c1c([H])c([H])c2c(c1[H])C([H])([H])C([H])([H])C([H])([H])C2([H])N([H])C(=O)C1([H])N(C(=O)C([H])(N([H])C(=O)C([H])(N([H])C([H])([H])[H])C([H])([H])[H])C(C([H])([H])[H])(C([H])([H])[H])C([H])([H])[H])C([H])([H])c2c([H])c(OC([H])([H])C([H])([H])Oc3c([H])c([H])c(N([H])C(=O)N4C([H])([H])C([H])([H])C([H])([H])C([H])(n5nc(-c6c([H])c([H])c(Oc7c([H])c([H])c(F)c([H])c7F)c([H])c6[H])c(C(=O)N([H])[H])c5N([H])[H])C4([H])[H])c([H])c3C([H])([H])[H])c([H])c([H])c2C1([H])[H]

$$$$
19:0:0
     RDKit          3D

 85 93  0  0  1  0  0  0  0  0999 V2000
  -27.8690  -20.5330   20.2500 C   0  0  0  0  0  3  0  0  0  0  0  0
  -29.9410  -20.9170   20.2420 C   0  0  0  0  0  3  0  0  0  0  0  0
  -27.5530  -22.1030   20.2650 C   0  0  0  0  0  3  0  0  0  0  0  0
  -29.6220  -22.4840   20.2590 C   0  0  0  0  0  3  0  0  0  0  0  0
  -29.1170  -19.6110   20.2350 C   0  0  0  0  0  0  0  0  0  0  0  0
  -28.3750  -23.4100   20.2720 C   0  0  0  0  0  0  0  0  0  0  0  0
  -30.1350  -16.2720   20.1640 C   0  0  0  0  0  0  0  0  0  0  0  0
  -30.4150  -13.6120   19.3740 C   0  0  0  0  0  2  0  0  0  0  0  0
  -29.5800  -12.9620   18.2160 C   0  0  0  0  0  2  0  0  0  0  0  0
  -28.2080  -12.4820   18.7050 C   0  0  0  0  0  2  0  0  0  0  0  0
  -27.6220  -13.4990   19.7000 C   0  0  0  0  0  3  0  0  0  0  0  0
  -28.6220  -14.0210   20.7740 C   0  0  0  0  0  2  0  0  0  0  0  0
  -29.6930  -14.8130   20.0790 N   0  0  0  0  0  0  0  0  0  0  0  0
  -31.3800  -16.1530   20.0280 O   0  0  0  0  0  0  0  0  0  0  0  0
  -29.3210  -17.7340   20.2220 N   0  0  0  0  0  0  0  0  0  0  0  0
  -28.3760  -17.3810   20.2740 H   0  0  0  0  0  0  0  0  0  0  0  0
  -25.2700  -13.9480   20.5120 C   0  0  0  0  0  0  0  0  0  0  0  0
  -24.2310  -13.1450   20.8780 C   0  0  0  0  0  0  0  0  0  0  0  0
  -24.7240  -11.8040   20.8200 C   0  0  0  0  0  0  0  0  0  0  0  0
  -26.3290  -13.1030   20.2440 N   0  0  0  0  0  0  0  0  0  0  0  0
  -26.0170  -11.8020   20.4920 N   0  0  0  0  0  0  0  0  0  0  0  0
  -24.0140  -10.5290   21.0000 C   0  0  0  0  0  0  0  0  0  0  0  0
  -24.4420   -9.5660   21.9410 C   0  0  0  0  0  3  0  0  0  0  0  0
  -23.7250   -8.3630   22.1140 C   0  0  0  0  0  3  0  0  0  0  0  0
  -22.5630   -8.1110   21.3470 C   0  0  0  0  0  0  0  0  0  0  0  0
  -22.1520   -9.0620   20.3960 C   0  0  0  0  0  3  0  0  0  0  0  0
  -22.8690  -10.2570   20.2220 C   0  0  0  0  0  3  0  0  0  0  0  0
  -21.8180   -6.9590   21.4280 O   0  0  0  0  0  0  0  0  0  0  0  0
  -21.7340   -6.2350   22.5910 C   0  0  0  0  0  0  0  0  0  0  0  0
  -21.2190   -6.7950   23.7800 C   0  0  0  0  0  3  0  0  0  0  0  0
  -21.0870   -5.9970   24.9340 C   0  0  0  0  0  3  0  0  0  0  0  0
  -21.4570   -4.6390   24.8980 C   0  0  0  0  0  0  0  0  0  0  0  0
  -21.9650   -4.0790   23.7130 C   0  0  0  0  0  3  0  0  0  0  0  0
  -22.1000   -4.8740   22.5620 C   0  0  0  0  0  0  0  0  0  0  0  0
  -22.5680   -4.3230   21.4150 F   0  0  0  0  0  0  0  0  0  0  0  0
  -21.3240   -3.8690   26.0030 F   0  0  0  0  0  0  0  0  0  0  0  0
  -22.8300  -13.5980   21.1600 C   0  0  0  0  0  0  0  0  0  0  0  0
  -22.1210  -12.8920   22.0330 N   0  0  0  0  0  0  0  0  0  0  0  0
  -22.3730  -14.6170   20.6430 O   0  0  0  0  0  0  0  0  0  0  0  0
  -22.5050  -12.0690   22.4740 H   0  0  0  0  0  0  0  0  0  0  0  0
  -21.1810  -13.1790   22.2660 H   0  0  0  0  0  0  0  0  0  0  0  0
  -25.4000  -15.3240   20.3460 N   0  0  0  0  0  0  0  0  0  0  0  0
  -24.6150  -15.9550   20.4640 H   0  0  0  0  0  0  0  0  0  0  0  0
  -26.2250  -15.7790   19.9790 H   0  0  0  0  0  0  0  0  0  0  0  0
  -28.2040  -25.1520   20.3060 O   0  0  0  0  0  0  0  0  0  0  0  0
  -24.6990  -31.8750   23.1860 C   0  0  0  0  0  0  0  0  0  0  0  0
  -27.2260  -26.4850   20.2890 C   0  0  0  0  0  0  0  0  0  0  0  0
  -23.5350  -30.4560   21.5570 C   0  0  0  0  0  3  0  0  0  0  0  0
  -24.9910  -28.7300   20.1880 C   0  0  0  0  0  0  0  0  0  0  0  0
  -26.1260  -30.4990   21.4920 C   0  0  0  0  0  2  0  0  0  0  0  0
  -26.1870  -29.0250   20.8520 C   0  0  0  0  0  0  0  0  0  0  0  0
  -27.2670  -27.9420   20.8620 C   0  0  0  0  0  3  0  0  0  0  0  0
  -25.9970  -26.4900   19.5550 C   0  0  0  0  0  3  0  0  0  0  0  0
  -24.9550  -27.4910   19.5150 C   0  0  0  0  0  3  0  0  0  0  0  0
  -23.8000  -29.7230   20.2050 C   0  0  0  0  0  2  0  0  0  0  0  0
  -24.8140  -30.9850   22.1290 N   0  0  0  0  0  0  0  0  0  0  0  0
  -23.5970  -32.1920   23.6700 O   0  0  0  0  0  0  0  0  0  0  0  0
  -22.7800  -29.5160   22.5370 C   0  0  0  0  0  0  0  0  0  0  0  0
  -21.4440  -29.3840   22.4100 N   0  0  0  0  0  0  0  0  0  0  0  0
  -23.4160  -28.8980   23.3940 O   0  0  0  0  0  0  0  0  0  0  0  0
  -20.9760  -29.9330   21.7010 H   0  0  0  0  0  0  0  0  0  0  0  0
  -18.0400  -28.2000   22.9360 C   0  0  0  0  0  0  0  0  0  0  0  0
  -20.6050  -28.4590   23.1850 C   0  0  0  0  0  3  0  0  0  0  0  0
  -20.6930  -27.0230   22.6170 C   0  0  0  0  0  2  0  0  0  0  0  0
  -19.5880  -26.7060   21.6050 C   0  0  0  0  0  2  0  0  0  0  0  0
  -18.2090  -26.8540   22.2510 C   0  0  0  0  0  2  0  0  0  0  0  0
  -19.1640  -28.9620   23.3590 C   0  0  0  0  0  0  0  0  0  0  0  0
  -18.9470  -30.2160   23.9670 C   0  0  0  0  0  3  0  0  0  0  0  0
  -17.6430  -30.7140   24.1500 C   0  0  0  0  0  3  0  0  0  0  0  0
  -16.5350  -29.9530   23.7380 C   0  0  0  0  0  3  0  0  0  0  0  0
  -16.7340  -28.6970   23.1370 C   0  0  0  0  0  3  0  0  0  0  0  0
  -25.9420  -32.5460   23.8440 C   0  0  0  0  0  3  0  0  0  0  0  0
  -25.6070  -33.9530   24.1650 N   0  0  0  0  0  0  0  0  0  0  0  0
  -25.9340  -35.0200   23.4240 C   0  0  0  0  0  0  0  0  0  0  0  0
  -26.5960  -34.9260   22.3880 O   0  0  0  0  0  0  0  0  0  0  0  0
  -25.0120  -34.0970   24.9680 H   0  0  0  0  0  0  0  0  0  0  0  0
  -24.1920  -36.8230   23.1260 C   0  0  0  0  0  1  0  0  0  0  0  0
  -25.4560  -36.4120   23.9000 C   0  0  0  0  0  3  0  0  0  0  0  0
  -27.5990  -37.3240   24.6860 C   0  0  0  0  0  1  0  0  0  0  0  0
  -26.4820  -37.4700   23.7570 N   0  0  0  0  0  0  0  0  0  0  0  0
  -26.0730  -38.3910   23.8940 H   0  0  0  0  0  0  0  0  0  0  0  0
  -26.4160  -31.8110   25.1610 C   0  0  1  0  0  0  0  0  0  0  0  0
  -25.2890  -31.6010   26.2010 C   0  0  0  0  0  1  0  0  0  0  0  0
  -27.0110  -30.4230   24.8420 C   0  0  0  0  0  1  0  0  0  0  0  0
  -27.5460  -32.6230   25.8390 C   0  0  0  0  0  1  0  0  0  0  0  0
  1  3  1  0
  2  4  2  0
  3  6  2  0
  4  6  1  0
  5  2  1  0
  5  1  2  0
  6 45  1  0
  7 15  1  0
  8 13  1  0
  9 10  1  0
  9  8  1  0
 11 10  1  0
 11 20  1  0
 11 12  1  0
 13  7  1  0
 13 12  1  0
 14  7  2  0
 15  5  1  0
 15 16  1  0
 17 18  2  0
 18 37  1  0
 19 18  1  0
 19 22  1  0
 20 21  1  0
 20 17  1  0
 21 19  2  0
 22 23  1  0
 23 24  2  0
 25 28  1  0
 25 24  1  0
 26 25  2  0
 27 26  1  0
 27 22  2  0
 28 29  1  0
 29 30  1  0
 30 31  2  0
 32 31  1  0
 32 36  1  0
 33 32  2  0
 34 29  2  0
 34 33  1  0
 35 34  1  0
 37 38  1  0
 38 41  1  0
 38 40  1  0
 39 37  2  0
 42 43  1  0
 42 17  1  0
 44 42  1  0
 46 57  2  0
 47 45  1  0
 47 52  1  0
 48 56  1  0
 48 58  1  0
 49 55  1  0
 49 51  1  0
 50 56  1  0
 51 52  2  0
 51 50  1  0
 53 47  2  0
 54 53  1  0
 54 49  2  0
 55 48  1  0
 56 46  1  0
 58 60  2  0
 59 58  1  0
 61 59  1  0
 62 71  2  0
 62 67  1  0
 63 59  1  0
 63 67  1  0
 64 63  1  0
 65 66  1  0
 65 64  1  0
 66 62  1  0
 67 68  2  0
 68 69  1  0
 70 69  2  0
 71 70  1  0
 72 46  1  0
 72 73  1  0
 72 82  1  0
 73 76  1  0
 74 78  1  0
 74 73  1  0
 75 74  2  0
 78 77  1  0
 80 81  1  0
 80 78  1  0
 80 79  1  0
 82 85  1  1
 82 83  1  0
 84 82  1  0
M  ISO  4   6 101   7 100  15 100  45 101
M  END
>  <TORSDO>  (20) 
F 16

>  <SCORE>  (20) 
-16.478

>  <name>  (20) 
19

>  <ligand_id>  (20) 
19

>  <original_smiles>  (20) 
[H]c1c([H])c([H])c2c(c1[H])C([H])([H])C([H])([H])C([H])([H])C2([H])N([H])C(=O)C1([H])N(C(=O)C([H])(N([H])C(=O)C([H])(N([H])C([H])([H])[H])C([H])([H])[H])C(C([H])([H])[H])(C([H])([H])[H])C([H])([H])[H])C([H])([H])c2c([H])c(Oc3c([H])c([H])c(N([H])C(=O)N4C([H])([H])C([H])([H])C([H])([H])C([H])(n5nc(-c6c([H])c([H])c(Oc7c([H])c([H])c(F)c([H])c7F)c([H])c6[H])c(C(=O)N([H])[H])c5N([H])[H])C4([H])[H])c([H])c3[H])c([H])c([H])c2C1([H])[H]

>  <smiles>  (20) 
[H]c1c([H])c([H])c2c(c1[H])C([H])([H])C([H])([H])C([H])([H])C2([H])N([H])C(=O)C1([H])N(C(=O)C([H])(N([H])C(=O)C([H])(N([H])C([H])([H])[H])C([H])([H])[H])C(C([H])([H])[H])(C([H])([H])[H])C([H])([H])[H])C([H])([H])c2c([H])c(Oc3c([H])c([H])c(N([H])C(=O)N4C([H])([H])C([H])([H])C([H])([H])C([H])(n5nc(-c6c([H])c([H])c(Oc7c([H])c([H])c(F)c([H])c7F)c([H])c6[H])c(C(=O)N([H])[H])c5N([H])[H])C4([H])[H])c([H])c3[H])c([H])c([H])c2C1([H])[H]

$$$$
20:0:0
     RDKit          3D

104111  0  0  1  0  0  0  0  0999 V2000
  -26.2350  -18.2330   19.5840 C   0  0  0  0  0  3  0  0  0  0  0  0
  -28.4010  -17.5910   20.3770 C   0  0  0  0  0  3  0  0  0  0  0  0
  -26.3830  -19.4850   20.2740 C   0  0  0  0  0  3  0  0  0  0  0  0
  -28.5440  -18.8360   21.0700 C   0  0  0  0  0  3  0  0  0  0  0  0
  -27.2620  -17.2480   19.5860 C   0  0  0  0  0  0  0  0  0  0  0  0
  -27.5480  -19.8490   21.0150 C   0  0  0  0  0  0  0  0  0  0  0  0
  -27.2390  -15.9110   18.7750 C   0  0  0  0  0  0  0  0  0  0  0  0
  -26.3140  -14.9160   18.9910 N   0  0  0  0  0  0  0  0  0  0  0  0
  -28.1740  -15.6990   18.0030 O   0  0  0  0  0  0  0  0  0  0  0  0
  -25.5620  -15.1460   19.6340 H   0  0  0  0  0  0  0  0  0  0  0  0
  -26.4550  -13.4110   18.7390 C   0  0  0  0  0  2  0  0  0  0  0  0
  -25.1910  -11.1250   23.2510 C   0  0  0  0  0  3  0  0  0  0  0  0
  -26.8210  -11.0060   23.4550 C   0  0  0  0  0  3  0  0  0  0  0  0
  -24.5930  -12.2200   20.4930 C   0  0  0  0  0  3  0  0  0  0  0  0
  -24.2150  -11.5890   21.9870 C   0  0  0  0  0  0  0  0  0  0  0  0
  -26.1500  -12.3890   19.9600 C   0  0  0  0  0  3  0  0  0  0  0  0
  -27.9200  -11.4030   22.2910 C   0  0  0  0  0  3  0  0  0  0  0  0
  -31.1150  -11.4070   22.1160 C   0  0  0  0  0  0  0  0  0  0  0  0
  -32.1450  -10.0900   20.1000 C   0  0  0  0  0  2  0  0  0  0  0  0
  -31.5790  -10.5710   18.6820 C   0  0  0  0  0  2  0  0  0  0  0  0
  -30.0630  -10.9420   18.5550 C   0  0  0  0  0  2  0  0  0  0  0  0
  -29.7150  -11.4700   19.8880 C   0  0  0  0  0  3  0  0  0  0  0  0
  -30.0090  -10.1380   20.7410 C   0  0  0  0  0  2  0  0  0  0  0  0
  -31.2360  -10.4010   21.2320 N   0  0  0  0  0  0  0  0  0  0  0  0
  -32.2750  -11.9520   22.2000 O   0  0  0  0  0  0  0  0  0  0  0  0
  -29.6400  -11.6640   22.6440 N   0  0  0  0  0  0  0  0  0  0  0  0
  -29.7250  -12.3150   23.4120 H   0  0  0  0  0  0  0  0  0  0  0  0
  -27.8460  -13.3860   21.0130 C   0  0  0  0  0  0  0  0  0  0  0  0
  -26.4690  -13.0350   21.8980 C   0  0  0  0  0  2  0  0  0  0  0  0
  -26.3450  -10.6150   21.3000 C   0  0  0  0  0  2  0  0  0  0  0  0
  -28.4310  -11.9240   20.1410 N   0  0  0  0  0  0  0  0  0  0  0  0
  -27.5850  -10.4720   20.3170 N   0  0  0  0  0  2  0  0  0  0  0  0
  -25.3110   -9.5300   21.1060 C   0  0  0  0  0  0  0  0  0  0  0  0
  -25.1630   -8.6000   22.1290 C   0  0  0  0  0  3  0  0  0  0  0  0
  -23.9840   -7.8520   22.2140 C   0  0  0  0  0  3  0  0  0  0  0  0
  -22.9020   -8.0930   21.3320 C   0  0  0  0  0  0  0  0  0  0  0  0
  -23.0320   -9.0250   20.3050 C   0  0  0  0  0  3  0  0  0  0  0  0
  -24.2820   -9.6180   20.1150 C   0  0  0  0  0  3  0  0  0  0  0  0
  -21.7300   -7.3960   21.3440 O   0  0  0  0  0  0  0  0  0  0  0  0
  -21.3820   -6.6800   22.4500 C   0  0  0  0  0  0  0  0  0  0  0  0
  -20.9560   -7.3370   23.6220 C   0  0  0  0  0  3  0  0  0  0  0  0
  -20.5490   -6.5820   24.7330 C   0  0  0  0  0  3  0  0  0  0  0  0
  -20.5520   -5.1760   24.6660 C   0  0  0  0  0  0  0  0  0  0  0  0
  -20.9870   -4.5220   23.4990 C   0  0  0  0  0  3  0  0  0  0  0  0
  -21.4050   -5.2740   22.3890 C   0  0  0  0  0  0  0  0  0  0  0  0
  -21.8130   -4.6480   21.2590 F   0  0  0  0  0  0  0  0  0  0  0  0
  -20.1270   -4.4530   25.7270 F   0  0  0  0  0  0  0  0  0  0  0  0
  -25.3990  -14.1780   22.0270 C   0  0  0  0  0  0  0  0  0  0  0  0
  -24.3730  -14.0590   22.8630 N   0  0  0  0  0  0  0  0  0  0  0  0
  -25.2820  -15.0100   21.1320 O   0  0  0  0  0  0  0  0  0  0  0  0
  -24.3930  -13.3450   23.5750 H   0  0  0  0  0  0  0  0  0  0  0  0
  -23.6360  -14.7490   22.8650 H   0  0  0  0  0  0  0  0  0  0  0  0
  -28.5950  -14.5090   21.0890 N   0  0  0  0  0  4  0  0  0  0  0  0
  -28.3200  -15.3400   21.5960 H   0  0  0  0  0  0  0  0  0  0  0  0
  -29.4600  -14.6340   20.5810 H   0  0  0  0  0  0  0  0  0  0  0  0
  -22.7860  -11.4200   22.2300 C   0  0  0  0  0  0  0  0  0  0  0  0
  -21.6550  -11.2800   22.4200 N   0  0  0  0  0  0  0  0  0  0  0  0
  -27.7220  -21.3260   21.5950 C   0  0  0  0  0  2  0  0  0  0  0  0
  -29.0840  -21.8940   22.2220 C   0  0  0  0  0  2  0  0  0  0  0  0
  -30.3430  -24.1560   22.7650 C   0  0  0  0  0  0  0  0  0  0  0  0
  -29.4390  -23.3610   21.9920 N   0  0  0  0  0  0  0  0  0  0  0  0
  -30.8240  -23.7770   23.8320 O   0  0  0  0  0  0  0  0  0  0  0  0
  -29.1370  -23.7850   21.1250 H   0  0  0  0  0  0  0  0  0  0  0  0
  -30.7440  -25.4300   22.1870 O   0  0  0  0  0  0  0  0  0  0  0  0
  -27.7600  -31.0200   25.7280 C   0  0  0  0  0  0  0  0  0  0  0  0
  -29.8890  -26.5310   22.2180 C   0  0  0  0  0  0  0  0  0  0  0  0
  -26.5570  -30.0920   23.7910 C   0  0  0  0  0  3  0  0  0  0  0  0
  -27.8930  -28.5520   22.2680 C   0  0  0  0  0  0  0  0  0  0  0  0
  -29.1230  -29.9770   23.8990 C   0  0  0  0  0  2  0  0  0  0  0  0
  -29.0480  -28.7150   23.0450 C   0  0  0  0  0  0  0  0  0  0  0  0
  -30.0620  -27.7070   23.0200 C   0  0  0  0  0  3  0  0  0  0  0  0
  -28.7450  -26.4590   21.4050 C   0  0  0  0  0  3  0  0  0  0  0  0
  -27.7460  -27.4340   21.4410 C   0  0  0  0  0  3  0  0  0  0  0  0
  -26.8230  -29.6150   22.3450 C   0  0  0  0  0  2  0  0  0  0  0  0
  -27.8300  -30.3680   24.5320 N   0  0  0  0  0  0  0  0  0  0  0  0
  -26.6760  -31.4000   26.1940 O   0  0  0  0  0  0  0  0  0  0  0  0
  -25.6450  -29.0640   24.5050 C   0  0  0  0  0  0  0  0  0  0  0  0
  -24.4570  -28.8090   23.9290 N   0  0  0  0  0  0  0  0  0  0  0  0
  -26.0150  -28.5020   25.5390 O   0  0  0  0  0  0  0  0  0  0  0  0
  -24.2190  -29.3160   23.0890 H   0  0  0  0  0  0  0  0  0  0  0  0
  -21.2610  -27.3030   23.1620 C   0  0  0  0  0  0  0  0  0  0  0  0
  -23.4530  -27.8600   24.4130 C   0  0  0  0  0  3  0  0  0  0  0  0
  -23.8740  -26.4030   24.1130 C   0  0  0  0  0  2  0  0  0  0  0  0
  -23.3150  -25.8730   22.7880 C   0  0  0  0  0  2  0  0  0  0  0  0
  -21.7840  -25.9260   22.7910 C   0  0  0  0  0  2  0  0  0  0  0  0
  -22.0500  -28.2160   23.9090 C   0  0  0  0  0  0  0  0  0  0  0  0
  -21.5290  -29.4960   24.1960 C   0  0  0  0  0  3  0  0  0  0  0  0
  -20.2450  -29.8670   23.7530 C   0  0  0  0  0  3  0  0  0  0  0  0
  -19.4610  -28.9540   23.0270 C   0  0  0  0  0  3  0  0  0  0  0  0
  -19.9670  -27.6740   22.7360 C   0  0  0  0  0  3  0  0  0  0  0  0
  -29.0430  -31.3370   26.5560 C   0  0  0  0  0  3  0  0  0  0  0  0
  -28.8850  -32.6880   27.1100 N   0  0  0  0  0  0  0  0  0  0  0  0
  -29.4460  -33.7920   26.5980 C   0  0  0  0  0  0  0  0  0  0  0  0
  -30.2190  -33.7660   25.6370 O   0  0  0  0  0  0  0  0  0  0  0  0
  -28.2190  -32.7940   27.8620 H   0  0  0  0  0  0  0  0  0  0  0  0
  -28.0410  -35.8720   26.4110 C   0  0  0  0  0  1  0  0  0  0  0  0
  -29.0940  -35.1390   27.2590 C   0  0  0  0  0  3  0  0  0  0  0  0
  -31.1890  -35.5180   28.4810 C   0  0  0  0  0  1  0  0  0  0  0  0
  -30.2650  -36.0180   27.4670 N   0  0  0  0  0  0  0  0  0  0  0  0
  -29.9690  -36.9510   27.7400 H   0  0  0  0  0  0  0  0  0  0  0  0
  -29.3110  -30.2910   27.7070 C   0  0  1  0  0  0  0  0  0  0  0  0
  -28.0430  -29.9020   28.5010 C   0  0  0  0  0  1  0  0  0  0  0  0
  -29.9260  -28.9910   27.1360 C   0  0  0  0  0  1  0  0  0  0  0  0
  -30.3420  -30.8660   28.7060 C   0  0  0  0  0  1  0  0  0  0  0  0
  1  5  2  0
  1  3  1  0
  2  4  2  0
  3  6  2  0
  5  2  1  0
  6  4  1  0
  6 58  1  0
  7  8  1  0
  7  5  1  0
  8 10  1  0
  9  7  2  0
 11  8  1  0
 11 16  1  0
 12 13  1  0
 14 15  1  0
 15 56  1  0
 15 12  2  0
 16 14  2  0
 17 26  1  0
 17 13  2  0
 18 25  2  0
 18 26  1  0
 19 24  1  0
 20 19  1  0
 21 20  1  0
 21 22  1  0
 22 31  1  0
 22 23  1  0
 23 24  1  0
 24 18  1  0
 26 27  1  0
 28 53  2  0
 28 29  1  0
 29 48  1  0
 31 32  1  0
 31 28  1  0
 32 30  1  0
 33 30  1  0
 33 34  1  0
 34 35  2  0
 36 39  1  0
 36 35  1  0
 37 36  2  0
 38 37  1  0
 38 33  2  0
 39 40  1  0
 40 41  1  0
 41 42  2  0
 43 42  1  0
 43 47  1  0
 44 43  2  0
 45 40  2  0
 45 44  1  0
 46 45  1  0
 48 49  1  0
 49 52  1  0
 49 51  1  0
 50 48  2  0
 53 54  1  0
 55 53  1  0
 56 57  3  0
 58 59  1  0
 60 62  2  0
 61 59  1  0
 61 60  1  0
 63 61  1  0
 64 66  1  0
 64 60  1  0
 65 76  2  0
 66 71  1  0
 67 77  1  0
 67 75  1  0
 68 74  1  0
 68 70  1  0
 69 75  1  0
 70 69  1  0
 71 70  2  0
 72 73  1  0
 72 66  2  0
 73 68  2  0
 74 67  1  0
 75 65  1  0
 77 79  2  0
 78 77  1  0
 80 78  1  0
 81 86  1  0
 82 78  1  0
 83 82  1  0
 84 85  1  0
 84 83  1  0
 85 81  1  0
 86 87  2  0
 86 82  1  0
 88 87  1  0
 89 88  2  0
 90 89  1  0
 90 81  2  0
 91 65  1  0
 91 92  1  0
 91101  1  0
 92 95  1  0
 93 92  1  0
 93 97  1  0
 94 93  2  0
 97 96  1  0
 97 99  1  0
 99100  1  0
 99 98  1  0
101102  1  1
101104  1  0
103101  1  0
M  ISO  4  18 100  26 100  60 101  64 101
M  END
>  <TORSDO>  (21) 
F 23

>  <SCORE>  (21) 
5.073

>  <name>  (21) 
20

>  <ligand_id>  (21) 
20

>  <original_smiles>  (21) 
[H]c1c([H])c([H])c2c(c1[H])C([H])([H])C([H])([H])C([H])([H])C2([H])N([H])C(=O)C1([H])N(C(=O)C([H])(N([H])C(=O)C([H])(N([H])C([H])([H])[H])C([H])([H])[H])C(C([H])([H])[H])(C([H])([H])[H])C([H])([H])[H])C([H])([H])c2c([H])c(OC(=O)N([H])C([H])([H])C([H])([H])c3c([H])c([H])c(C(=O)N([H])C([H])([H])c4c([H])c(C#N)c([H])c([H])c4N([H])C(=O)N4C([H])([H])C([H])([H])C([H])([H])C([H])(n5nc(-c6c([H])c([H])c(Oc7c([H])c([H])c(F)c([H])c7F)c([H])c6[H])c(C(=O)N([H])[H])c5N([H])[H])C4([H])[H])c([H])c3[H])c([H])c([H])c2C1([H])[H]

>  <smiles>  (21) 
[H]c1c([H])c([H])c2c(c1[H])C([H])([H])C([H])([H])C([H])([H])C2([H])N([H])C(=O)C1([H])N(C(=O)C([H])(N([H])C(=O)C([H])(N([H])C([H])([H])[H])C([H])([H])[H])C(C([H])([H])[H])(C([H])([H])[H])C([H])([H])[H])C([H])([H])c2c([H])c(OC(=O)N([H])C([H])([H])C([H])([H])c3c([H])c([H])c(C(=O)N([H])C([H])([H])c4c([H])c(C#N)c([H])c([H])c4N([H])C(=O)N4C([H])([H])C([H])([H])C([H])([H])C([H])(n5nc(-c6c([H])c([H])c(Oc7c([H])c([H])c(F)c([H])c7F)c([H])c6[H])c(C(=O)N([H])[H])c5N([H])[H])C4([H])[H])c([H])c3[H])c([H])c([H])c2C1([H])[H]

$$$$
21:0:0
     RDKit          3D

 92100  0  0  1  0  0  0  0  0999 V2000
  -28.9880  -21.7130   20.4490 N   0  0  0  0  0  4  0  0  0  0  0  0
  -28.3960  -21.4960   19.6630 H   0  0  0  0  0  0  0  0  0  0  0  0
  -29.9430  -21.7210   20.1310 H   0  0  0  0  0  0  0  0  0  0  0  0
  -28.8230  -20.6450   21.4710 C   0  0  0  0  0  2  0  0  0  0  0  0
  -28.4770  -18.2230   20.7040 C   0  0  0  0  0  3  0  0  0  0  0  0
  -30.7080  -18.9200   21.3760 C   0  0  0  0  0  3  0  0  0  0  0  0
  -28.9250  -16.8880   20.5870 C   0  0  0  0  0  3  0  0  0  0  0  0
  -31.1550  -17.5840   21.2680 C   0  0  0  0  0  3  0  0  0  0  0  0
  -29.3580  -19.2500   21.1210 C   0  0  0  0  0  0  0  0  0  0  0  0
  -30.2650  -16.5570   20.8820 C   0  0  0  0  0  0  0  0  0  0  0  0
  -30.9060  -14.4760   19.8100 C   0  0  0  0  0  0  0  0  0  0  0  0
  -30.3670  -12.4290   18.5350 C   0  0  0  0  0  2  0  0  0  0  0  0
  -29.2930  -12.6980   17.4650 C   0  0  0  0  0  2  0  0  0  0  0  0
  -27.8860  -12.5400   18.0650 C   0  0  0  0  0  2  0  0  0  0  0  0
  -27.7120  -13.3350   19.3850 C   0  0  0  0  0  3  0  0  0  0  0  0
  -28.8830  -13.0630   20.3540 C   0  0  0  0  0  2  0  0  0  0  0  0
  -30.1480  -13.3560   19.6570 N   0  0  0  0  0  0  0  0  0  0  0  0
  -31.8520  -14.7510   19.0660 O   0  0  0  0  0  0  0  0  0  0  0  0
  -30.6880  -15.2000   20.9160 N   0  0  0  0  0  0  0  0  0  0  0  0
  -31.4700  -15.0740   21.5430 H   0  0  0  0  0  0  0  0  0  0  0  0
  -25.4240  -13.9410   20.3980 C   0  0  0  0  0  0  0  0  0  0  0  0
  -24.3940  -13.1670   20.8620 C   0  0  0  0  0  0  0  0  0  0  0  0
  -24.8220  -11.8130   20.7140 C   0  0  0  0  0  0  0  0  0  0  0  0
  -26.4190  -13.0590   20.0050 N   0  0  0  0  0  0  0  0  0  0  0  0
  -26.0650  -11.7700   20.2480 N   0  0  0  0  0  0  0  0  0  0  0  0
  -24.1000  -10.5520   20.9300 C   0  0  0  0  0  0  0  0  0  0  0  0
  -24.5750   -9.5720   21.8260 C   0  0  0  0  0  3  0  0  0  0  0  0
  -23.8520   -8.3770   22.0310 C   0  0  0  0  0  3  0  0  0  0  0  0
  -22.6380   -8.1560   21.3390 C   0  0  0  0  0  0  0  0  0  0  0  0
  -22.1790   -9.1270   20.4320 C   0  0  0  0  0  3  0  0  0  0  0  0
  -22.9040  -10.3120   20.2250 C   0  0  0  0  0  3  0  0  0  0  0  0
  -21.8830   -7.0130   21.4540 O   0  0  0  0  0  0  0  0  0  0  0  0
  -21.8290   -6.3000   22.6240 C   0  0  0  0  0  0  0  0  0  0  0  0
  -21.4000   -6.8870   23.8360 C   0  0  0  0  0  3  0  0  0  0  0  0
  -21.2950   -6.1000   25.0000 C   0  0  0  0  0  3  0  0  0  0  0  0
  -21.6080   -4.7290   24.9540 C   0  0  0  0  0  0  0  0  0  0  0  0
  -22.0310   -4.1420   23.7490 C   0  0  0  0  0  3  0  0  0  0  0  0
  -22.1380   -4.9250   22.5860 C   0  0  0  0  0  0  0  0  0  0  0  0
  -22.5250   -4.3500   21.4220 F   0  0  0  0  0  0  0  0  0  0  0  0
  -21.4990   -3.9710   26.0710 F   0  0  0  0  0  0  0  0  0  0  0  0
  -23.0490  -13.6510   21.3240 C   0  0  0  0  0  0  0  0  0  0  0  0
  -22.4220  -12.9340   22.2490 N   0  0  0  0  0  0  0  0  0  0  0  0
  -22.5690  -14.7020   20.9020 O   0  0  0  0  0  0  0  0  0  0  0  0
  -22.8260  -12.0840   22.6130 H   0  0  0  0  0  0  0  0  0  0  0  0
  -21.5260  -13.2400   22.5990 H   0  0  0  0  0  0  0  0  0  0  0  0
  -25.5840  -15.3160   20.2550 N   0  0  0  0  0  0  0  0  0  0  0  0
  -24.8290  -15.9630   20.4560 H   0  0  0  0  0  0  0  0  0  0  0  0
  -26.3600  -15.7490   19.7740 H   0  0  0  0  0  0  0  0  0  0  0  0
  -28.6370  -23.0510   21.0070 C   0  0  0  0  0  2  0  0  0  0  0  0
  -28.7550  -24.2730   20.0580 C   0  0  0  0  0  2  0  0  0  0  0  0
  -28.4430  -25.5730   20.8420 C   0  0  0  0  0  2  0  0  0  0  0  0
  -28.4980  -26.7810   20.0700 O   0  0  0  0  0  0  0  0  0  0  0  0
  -24.6380  -31.8850   23.2260 C   0  0  0  0  0  0  0  0  0  0  0  0
  -27.3310  -27.5100   20.0940 C   0  0  0  0  0  0  0  0  0  0  0  0
  -23.4380  -30.4600   21.5970 C   0  0  0  0  0  3  0  0  0  0  0  0
  -24.9030  -28.9540   20.1510 C   0  0  0  0  0  0  0  0  0  0  0  0
  -25.9530  -30.8720   21.3660 C   0  0  0  0  0  2  0  0  0  0  0  0
  -26.0610  -29.5070   20.7200 C   0  0  0  0  0  0  0  0  0  0  0  0
  -27.2800  -28.7920   20.6850 C   0  0  0  0  0  3  0  0  0  0  0  0
  -26.1590  -26.9640   19.5300 C   0  0  0  0  0  3  0  0  0  0  0  0
  -24.9460  -27.6790   19.5580 C   0  0  0  0  0  3  0  0  0  0  0  0
  -23.6420  -29.7850   20.2150 C   0  0  0  0  0  2  0  0  0  0  0  0
  -24.6950  -31.0880   22.1210 N   0  0  0  0  0  0  0  0  0  0  0  0
  -23.5600  -32.1330   23.7820 O   0  0  0  0  0  0  0  0  0  0  0  0
  -22.8230  -29.4210   22.5620 C   0  0  0  0  0  0  0  0  0  0  0  0
  -21.5030  -29.2040   22.4450 N   0  0  0  0  0  0  0  0  0  0  0  0
  -23.5280  -28.8160   23.3730 O   0  0  0  0  0  0  0  0  0  0  0  0
  -20.9940  -29.7500   21.7650 H   0  0  0  0  0  0  0  0  0  0  0  0
  -18.1650  -27.9240   22.9620 C   0  0  0  0  0  0  0  0  0  0  0  0
  -20.7160  -28.2450   23.2190 C   0  0  0  0  0  3  0  0  0  0  0  0
  -20.8530  -26.8170   22.6400 C   0  0  0  0  0  2  0  0  0  0  0  0
  -19.7500  -26.4620   21.6370 C   0  0  0  0  0  2  0  0  0  0  0  0
  -18.3710  -26.5770   22.2920 C   0  0  0  0  0  2  0  0  0  0  0  0
  -19.2660  -28.7140   23.3870 C   0  0  0  0  0  0  0  0  0  0  0  0
  -19.0200  -29.9720   23.9770 C   0  0  0  0  0  3  0  0  0  0  0  0
  -17.7040  -30.4410   24.1480 C   0  0  0  0  0  3  0  0  0  0  0  0
  -16.6160  -29.6480   23.7450 C   0  0  0  0  0  3  0  0  0  0  0  0
  -16.8480  -28.3920   23.1550 C   0  0  0  0  0  3  0  0  0  0  0  0
  -25.9200  -32.5390   23.8280 C   0  0  0  0  0  3  0  0  0  0  0  0
  -25.5860  -33.9280   24.1720 N   0  0  0  0  0  0  0  0  0  0  0  0
  -25.8810  -34.9890   23.4100 C   0  0  0  0  0  0  0  0  0  0  0  0
  -26.5340  -34.9060   22.3660 O   0  0  0  0  0  0  0  0  0  0  0  0
  -25.0090  -34.0660   24.9870 H   0  0  0  0  0  0  0  0  0  0  0  0
  -24.1070  -36.7430   23.0890 C   0  0  0  0  0  1  0  0  0  0  0  0
  -25.3680  -36.3640   23.8830 C   0  0  0  0  0  3  0  0  0  0  0  0
  -27.4930  -37.2910   24.6910 C   0  0  0  0  0  1  0  0  0  0  0  0
  -26.3770  -37.4400   23.7620 N   0  0  0  0  0  0  0  0  0  0  0  0
  -25.9520  -38.3500   23.9180 H   0  0  0  0  0  0  0  0  0  0  0  0
  -26.4780  -31.7710   25.0900 C   0  0  1  0  0  0  0  0  0  0  0  0
  -25.4040  -31.4900   26.1680 C   0  0  0  0  0  1  0  0  0  0  0  0
  -27.0990  -30.4170   24.6750 C   0  0  0  0  0  1  0  0  0  0  0  0
  -27.6110  -32.5940   25.7480 C   0  0  0  0  0  1  0  0  0  0  0  0
  1 49  1  0
  1  4  1  0
  2  1  1  0
  3  1  1  0
  5  9  1  0
  7  5  2  0
  7 10  1  0
  8  6  1  0
  9  6  2  0
  9  4  1  0
 10 19  1  0
 10  8  2  0
 11 19  1  0
 12 17  1  0
 13 14  1  0
 13 12  1  0
 15 14  1  0
 15 24  1  0
 15 16  1  0
 17 11  1  0
 17 16  1  0
 18 11  2  0
 19 20  1  0
 21 22  2  0
 22 41  1  0
 23 22  1  0
 23 26  1  0
 24 25  1  0
 24 21  1  0
 25 23  2  0
 26 27  1  0
 27 28  2  0
 29 32  1  0
 29 28  1  0
 30 29  2  0
 31 30  1  0
 31 26  2  0
 32 33  1  0
 33 34  1  0
 34 35  2  0
 36 35  1  0
 36 40  1  0
 37 36  2  0
 38 33  2  0
 38 37  1  0
 39 38  1  0
 41 42  1  0
 42 45  1  0
 42 44  1  0
 43 41  2  0
 46 21  1  0
 46 47  1  0
 48 46  1  0
 50 51  1  0
 50 49  1  0
 52 54  1  0
 52 51  1  0
 53 64  2  0
 54 59  1  0
 55 63  1  0
 55 65  1  0
 56 62  1  0
 56 58  1  0
 57 63  1  0
 58 57  1  0
 59 58  2  0
 60 61  1  0
 60 54  2  0
 61 56  2  0
 62 55  1  0
 63 53  1  0
 65 67  2  0
 66 65  1  0
 68 66  1  0
 69 78  2  0
 69 74  1  0
 70 66  1  0
 70 74  1  0
 71 70  1  0
 72 73  1  0
 72 71  1  0
 73 69  1  0
 74 75  2  0
 75 76  1  0
 77 76  2  0
 78 77  1  0
 79 53  1  0
 79 80  1  0
 79 89  1  0
 80 83  1  0
 81 85  1  0
 81 80  1  0
 82 81  2  0
 85 84  1  0
 87 85  1  0
 87 88  1  0
 87 86  1  0
 89 92  1  1
 89 90  1  0
 91 89  1  0
M  ISO  4  11 100  19 100  51 101  52 101
M  END
>  <TORSDO>  (22) 
F 21

>  <SCORE>  (22) 
-12.277

>  <name>  (22) 
21

>  <ligand_id>  (22) 
21

>  <original_smiles>  (22) 
[H]c1c([H])c([H])c2c(c1[H])C([H])([H])C([H])([H])C([H])([H])C2([H])N([H])C(=O)C1([H])N(C(=O)C([H])(N([H])C(=O)C([H])(N([H])C([H])([H])[H])C([H])([H])[H])C(C([H])([H])[H])(C([H])([H])[H])C([H])([H])[H])C([H])([H])c2c([H])c(OC([H])([H])C([H])([H])C([H])([H])[N+]([H])([H])C([H])([H])c3c([H])c([H])c(N([H])C(=O)N4C([H])([H])C([H])([H])C([H])([H])C([H])(n5nc(-c6c([H])c([H])c(Oc7c([H])c([H])c(F)c([H])c7F)c([H])c6[H])c(C(=O)N([H])[H])c5N([H])[H])C4([H])[H])c([H])c3[H])c([H])c([H])c2C1([H])[H]

>  <smiles>  (22) 
[H]c1c([H])c([H])c2c(c1[H])C([H])([H])C([H])([H])C([H])([H])C2([H])N([H])C(=O)C1([H])N(C(=O)C([H])(N([H])C(=O)C([H])(N([H])C([H])([H])[H])C([H])([H])[H])C(C([H])([H])[H])(C([H])([H])[H])C([H])([H])[H])C([H])([H])c2c([H])c(OC([H])([H])C([H])([H])C([H])([H])[N+]([H])([H])C([H])([H])c3c([H])c([H])c(N([H])C(=O)N4C([H])([H])C([H])([H])C([H])([H])C([H])(n5nc(-c6c([H])c([H])c(Oc7c([H])c([H])c(F)c([H])c7F)c([H])c6[H])c(C(=O)N([H])[H])c5N([H])[H])C4([H])[H])c([H])c3[H])c([H])c([H])c2C1([H])[H]

$$$$
22:0:0
     RDKit          3D

 90 99  0  0  1  0  0  0  0  0999 V2000
  -30.5470  -22.5500   18.6550 C   0  0  0  0  0  3  0  0  0  0  0  0
  -30.3460  -21.2310   19.1240 C   0  0  0  0  0  3  0  0  0  0  0  0
  -29.8040  -23.6490   19.1430 C   0  0  0  0  0  3  0  0  0  0  0  0
  -28.6360  -22.0930   20.6040 C   0  0  0  0  0  3  0  0  0  0  0  0
  -29.3920  -20.9230   20.1200 C   0  0  0  0  0  0  0  0  0  0  0  0
  -28.8190  -23.4820   20.1340 C   0  0  0  0  0  0  0  0  0  0  0  0
  -30.5830  -14.8580   20.3460 C   0  0  0  0  0  0  0  0  0  0  0  0
  -30.3440  -12.5500   19.3670 C   0  0  0  0  0  2  0  0  0  0  0  0
  -29.4030  -12.5410   18.1450 C   0  0  0  0  0  2  0  0  0  0  0  0
  -27.9450  -12.3410   18.5970 C   0  0  0  0  0  2  0  0  0  0  0  0
  -27.5590  -13.2660   19.7820 C   0  0  0  0  0  3  0  0  0  0  0  0
  -28.6290  -13.2820   20.8940 C   0  0  0  0  0  2  0  0  0  0  0  0
  -29.9010  -13.6520   20.2630 N   0  0  0  0  0  0  0  0  0  0  0  0
  -31.7920  -14.8400   20.0970 O   0  0  0  0  0  0  0  0  0  0  0  0
  -28.8340  -18.2900   19.5230 C   0  0  0  0  0  2  0  0  0  0  0  0
  -30.6080  -18.6770   21.0770 C   0  0  0  0  0  2  0  0  0  0  0  0
  -28.7880  -16.7280   19.9280 C   0  0  0  0  0  2  0  0  0  0  0  0
  -30.5630  -17.1430   21.5300 C   0  0  0  0  0  2  0  0  0  0  0  0
  -29.2790  -19.3630   20.5930 C   0  0  0  0  0  3  0  0  0  0  0  0
  -29.9560  -16.1010   20.6310 N   0  0  0  0  0  0  0  0  0  0  0  0
  -25.1890  -13.8530   20.5420 C   0  0  0  0  0  0  0  0  0  0  0  0
  -24.1260  -13.0800   20.9200 C   0  0  0  0  0  0  0  0  0  0  0  0
  -24.5890  -11.7280   20.8870 C   0  0  0  0  0  0  0  0  0  0  0  0
  -26.2280  -12.9730   20.2970 N   0  0  0  0  0  0  0  0  0  0  0  0
  -25.8780  -11.6900   20.5710 N   0  0  0  0  0  0  0  0  0  0  0  0
  -23.8620  -10.4660   21.0790 C   0  0  0  0  0  0  0  0  0  0  0  0
  -24.3100   -9.4890   21.9940 C   0  0  0  0  0  3  0  0  0  0  0  0
  -23.5820   -8.2930   22.1770 C   0  0  0  0  0  3  0  0  0  0  0  0
  -22.3920   -8.0680   21.4430 C   0  0  0  0  0  0  0  0  0  0  0  0
  -21.9640   -9.0350   20.5170 C   0  0  0  0  0  3  0  0  0  0  0  0
  -22.6930  -10.2220   20.3330 C   0  0  0  0  0  3  0  0  0  0  0  0
  -21.6340   -6.9260   21.5370 O   0  0  0  0  0  0  0  0  0  0  0  0
  -21.6200   -6.1630   22.6770 C   0  0  0  0  0  0  0  0  0  0  0  0
  -21.2540   -6.7030   23.9300 C   0  0  0  0  0  3  0  0  0  0  0  0
  -21.1850   -5.8680   25.0620 C   0  0  0  0  0  3  0  0  0  0  0  0
  -21.4710   -4.4940   24.9450 C   0  0  0  0  0  0  0  0  0  0  0  0
  -21.8300   -3.9540   23.6970 C   0  0  0  0  0  3  0  0  0  0  0  0
  -21.9010   -4.7860   22.5660 C   0  0  0  0  0  0  0  0  0  0  0  0
  -22.2260   -4.2570   21.3620 F   0  0  0  0  0  0  0  0  0  0  0  0
  -21.3970   -3.6900   26.0310 F   0  0  0  0  0  0  0  0  0  0  0  0
  -22.7300  -13.5590   21.1960 C   0  0  0  0  0  0  0  0  0  0  0  0
  -22.0070  -12.8670   22.0680 N   0  0  0  0  0  0  0  0  0  0  0  0
  -22.2920  -14.5820   20.6730 O   0  0  0  0  0  0  0  0  0  0  0  0
  -22.3760  -12.0400   22.5130 H   0  0  0  0  0  0  0  0  0  0  0  0
  -21.0710  -13.1710   22.2970 H   0  0  0  0  0  0  0  0  0  0  0  0
  -25.3500  -15.2220   20.3610 N   0  0  0  0  0  0  0  0  0  0  0  0
  -24.5820  -15.8760   20.4760 H   0  0  0  0  0  0  0  0  0  0  0  0
  -26.1950  -15.6600   20.0200 H   0  0  0  0  0  0  0  0  0  0  0  0
  -27.9610  -24.7790   20.6000 C   0  0  0  0  0  2  0  0  0  0  0  0
  -28.2690  -26.2330   20.2060 O   0  0  0  0  0  0  0  0  0  0  0  0
  -24.6470  -31.8690   23.2130 C   0  0  0  0  0  0  0  0  0  0  0  0
  -27.2060  -27.1900   20.1810 C   0  0  0  0  0  0  0  0  0  0  0  0
  -23.4330  -30.4650   21.5890 C   0  0  0  0  0  3  0  0  0  0  0  0
  -24.8720  -28.8950   20.1600 C   0  0  0  0  0  0  0  0  0  0  0  0
  -25.9820  -30.7470   21.3980 C   0  0  0  0  0  2  0  0  0  0  0  0
  -26.0530  -29.3560   20.7550 C   0  0  0  0  0  0  0  0  0  0  0  0
  -27.2260  -28.5190   20.7500 C   0  0  0  0  0  3  0  0  0  0  0  0
  -26.0050  -26.8240   19.5360 C   0  0  0  0  0  3  0  0  0  0  0  0
  -24.8580  -27.6400   19.5350 C   0  0  0  0  0  3  0  0  0  0  0  0
  -23.6420  -29.7860   20.2100 C   0  0  0  0  0  2  0  0  0  0  0  0
  -24.7070  -31.0470   22.1220 N   0  0  0  0  0  0  0  0  0  0  0  0
  -23.5660  -32.1530   23.7500 O   0  0  0  0  0  0  0  0  0  0  0  0
  -22.7680  -29.4570   22.5590 C   0  0  0  0  0  0  0  0  0  0  0  0
  -21.4400  -29.2840   22.4450 N   0  0  0  0  0  0  0  0  0  0  0  0
  -23.4490  -28.8330   23.3770 O   0  0  0  0  0  0  0  0  0  0  0  0
  -20.9480  -29.8400   21.7570 H   0  0  0  0  0  0  0  0  0  0  0  0
  -18.0650  -28.0800   22.9700 C   0  0  0  0  0  0  0  0  0  0  0  0
  -20.6250  -28.3510   23.2270 C   0  0  0  0  0  3  0  0  0  0  0  0
  -20.7290  -26.9150   22.6640 C   0  0  0  0  0  2  0  0  0  0  0  0
  -19.6240  -26.5790   21.6570 C   0  0  0  0  0  2  0  0  0  0  0  0
  -18.2440  -26.7260   22.3040 C   0  0  0  0  0  2  0  0  0  0  0  0
  -19.1840  -28.8500   23.3890 C   0  0  0  0  0  0  0  0  0  0  0  0
  -18.9620  -30.1160   23.9720 C   0  0  0  0  0  3  0  0  0  0  0  0
  -17.6560  -30.6130   24.1410 C   0  0  0  0  0  3  0  0  0  0  0  0
  -16.5530  -29.8410   23.7380 C   0  0  0  0  0  3  0  0  0  0  0  0
  -16.7590  -28.5760   23.1570 C   0  0  0  0  0  3  0  0  0  0  0  0
  -25.9310  -32.5070   23.8250 C   0  0  0  0  0  3  0  0  0  0  0  0
  -25.6150  -33.9000   24.1730 N   0  0  0  0  0  0  0  0  0  0  0  0
  -25.9240  -34.9650   23.4190 C   0  0  0  0  0  0  0  0  0  0  0  0
  -26.5730  -34.8770   22.3730 O   0  0  0  0  0  0  0  0  0  0  0  0
  -25.0370  -34.0430   24.9880 H   0  0  0  0  0  0  0  0  0  0  0  0
  -24.1710  -36.7470   23.1260 C   0  0  0  0  0  1  0  0  0  0  0  0
  -25.4370  -36.3460   23.9010 C   0  0  0  0  0  3  0  0  0  0  0  0
  -27.5860  -37.2410   24.6800 C   0  0  0  0  0  1  0  0  0  0  0  0
  -26.4560  -37.4090   23.7690 N   0  0  0  0  0  0  0  0  0  0  0  0
  -26.0470  -38.3240   23.9380 H   0  0  0  0  0  0  0  0  0  0  0  0
  -26.4660  -31.7310   25.0900 C   0  0  1  0  0  0  0  0  0  0  0  0
  -25.3880  -31.4830   26.1720 C   0  0  0  0  0  1  0  0  0  0  0  0
  -27.0500  -30.3570   24.6870 C   0  0  0  0  0  1  0  0  0  0  0  0
  -27.6230  -32.5260   25.7410 C   0  0  0  0  0  1  0  0  0  0  0  0
  1  2  2  0
  1  3  1  0
  2  5  1  0
  3  6  2  0
  5  4  2  0
  6 49  1  0
  6  4  1  0
  7 20  1  0
  8 13  1  0
  9 10  1  0
  9  8  1  0
 11 10  1  0
 11 24  1  0
 11 12  1  0
 13  7  1  0
 13 12  1  0
 14  7  2  0
 15 17  1  0
 15 19  1  0
 16 18  1  0
 17 20  1  0
 19  5  1  0
 19 16  1  0
 20 18  1  0
 21 22  2  0
 22 41  1  0
 23 22  1  0
 23 26  1  0
 24 21  1  0
 24 25  1  0
 25 23  2  0
 26 27  1  0
 27 28  2  0
 29 32  1  0
 29 28  1  0
 30 29  2  0
 31 30  1  0
 31 26  2  0
 32 33  1  0
 33 34  1  0
 34 35  2  0
 36 35  1  0
 36 40  1  0
 37 36  2  0
 38 33  2  0
 38 37  1  0
 39 38  1  0
 41 42  1  0
 42 45  1  0
 42 44  1  0
 43 41  2  0
 46 47  1  0
 46 21  1  0
 48 46  1  0
 50 49  1  0
 51 62  2  0
 52 50  1  0
 52 57  1  0
 53 61  1  0
 53 63  1  0
 54 60  1  0
 54 56  1  0
 55 61  1  0
 56 55  1  0
 57 56  2  0
 58 52  2  0
 59 58  1  0
 59 54  2  0
 60 53  1  0
 61 51  1  0
 63 65  2  0
 64 63  1  0
 66 64  1  0
 67 76  2  0
 67 72  1  0
 68 64  1  0
 68 72  1  0
 69 68  1  0
 70 71  1  0
 70 69  1  0
 71 67  1  0
 72 73  2  0
 73 74  1  0
 75 74  2  0
 76 75  1  0
 77 51  1  0
 77 78  1  0
 77 87  1  0
 78 81  1  0
 79 83  1  0
 79 78  1  0
 80 79  2  0
 83 82  1  0
 85 83  1  0
 85 86  1  0
 85 84  1  0
 87 90  1  1
 87 88  1  0
 89 87  1  0
M  ISO  4   7 100  20 100  49 101  50 101
M  END
>  <TORSDO>  (23) 
F 17

>  <SCORE>  (23) 
-15.194

>  <name>  (23) 
22

>  <ligand_id>  (23) 
22

>  <original_smiles>  (23) 
[H]c1c([H])c([H])c2c(c1[H])C([H])([H])C([H])([H])C([H])([H])C2([H])N([H])C(=O)C1([H])N(C(=O)C([H])(N([H])C(=O)C([H])(N([H])C([H])([H])[H])C([H])([H])[H])C(C([H])([H])[H])(C([H])([H])[H])C([H])([H])[H])C([H])([H])c2c([H])c(OC([H])([H])c3c([H])c([H])c([H])c(C4([H])C([H])([H])C([H])([H])N(C(=O)N5C([H])([H])C([H])([H])C([H])([H])C([H])(n6nc(-c7c([H])c([H])c(Oc8c([H])c([H])c(F)c([H])c8F)c([H])c7[H])c(C(=O)N([H])[H])c6N([H])[H])C5([H])[H])C([H])([H])C4([H])[H])c3[H])c([H])c([H])c2C1([H])[H]

>  <smiles>  (23) 
[H]c1c([H])c([H])c2c(c1[H])C([H])([H])C([H])([H])C([H])([H])C2([H])N([H])C(=O)C1([H])N(C(=O)C([H])(N([H])C(=O)C([H])(N([H])C([H])([H])[H])C([H])([H])[H])C(C([H])([H])[H])(C([H])([H])[H])C([H])([H])[H])C([H])([H])c2c([H])c(OC([H])([H])c3c([H])c([H])c([H])c(C4([H])C([H])([H])C([H])([H])N(C(=O)N5C([H])([H])C([H])([H])C([H])([H])C([H])(n6nc(-c7c([H])c([H])c(Oc8c([H])c([H])c(F)c([H])c8F)c([H])c7[H])c(C(=O)N([H])[H])c6N([H])[H])C5([H])[H])C([H])([H])C4([H])[H])c3[H])c([H])c([H])c2C1([H])[H]

$$$$
23:0:0
     RDKit          3D

 89 97  0  0  1  0  0  0  0  0999 V2000
  -30.4280  -19.7210   19.2600 C   0  0  0  0  0  3  0  0  0  0  0  0
  -29.0950  -18.9880   21.1200 C   0  0  0  0  0  3  0  0  0  0  0  0
  -29.9610  -21.0610   19.4170 C   0  0  0  0  0  3  0  0  0  0  0  0
  -28.6270  -20.3300   21.2760 C   0  0  0  0  0  3  0  0  0  0  0  0
  -30.0260  -18.6490   20.1090 C   0  0  0  0  0  0  0  0  0  0  0  0
  -29.0550  -21.4080   20.4500 C   0  0  0  0  0  0  0  0  0  0  0  0
  -30.7550  -17.2590   19.9870 C   0  0  0  0  0  2  0  0  0  0  0  0
  -30.8180  -14.7460   19.9980 C   0  0  0  0  0  0  0  0  0  0  0  0
  -30.4790  -12.5320   18.9350 C   0  0  0  0  0  2  0  0  0  0  0  0
  -29.4900  -12.6800   17.7610 C   0  0  0  0  0  2  0  0  0  0  0  0
  -28.0400  -12.5230   18.2590 C   0  0  0  0  0  2  0  0  0  0  0  0
  -27.7430  -13.3760   19.5220 C   0  0  0  0  0  3  0  0  0  0  0  0
  -28.8560  -13.2430   20.5850 C   0  0  0  0  0  2  0  0  0  0  0  0
  -30.1300  -13.5640   19.9340 N   0  0  0  0  0  0  0  0  0  0  0  0
  -31.9850  -14.8090   19.6030 O   0  0  0  0  0  0  0  0  0  0  0  0
  -30.1420  -15.9120   20.2680 N   0  0  0  0  0  0  0  0  0  0  0  0
  -29.1690  -15.8640   20.5280 H   0  0  0  0  0  0  0  0  0  0  0  0
  -25.3860  -13.9510   20.3630 C   0  0  0  0  0  0  0  0  0  0  0  0
  -24.3430  -13.1680   20.7780 C   0  0  0  0  0  0  0  0  0  0  0  0
  -24.8130  -11.8200   20.7180 C   0  0  0  0  0  0  0  0  0  0  0  0
  -26.4240  -13.0800   20.0740 N   0  0  0  0  0  0  0  0  0  0  0  0
  -26.0880  -11.7930   20.3510 N   0  0  0  0  0  0  0  0  0  0  0  0
  -24.1050  -10.5520   20.9340 C   0  0  0  0  0  0  0  0  0  0  0  0
  -24.5570   -9.6030   21.8780 C   0  0  0  0  0  3  0  0  0  0  0  0
  -23.8480   -8.3990   22.0800 C   0  0  0  0  0  3  0  0  0  0  0  0
  -22.6710   -8.1360   21.3390 C   0  0  0  0  0  0  0  0  0  0  0  0
  -22.2380   -9.0730   20.3850 C   0  0  0  0  0  3  0  0  0  0  0  0
  -22.9480  -10.2680   20.1800 C   0  0  0  0  0  3  0  0  0  0  0  0
  -21.9310   -6.9840   21.4510 O   0  0  0  0  0  0  0  0  0  0  0  0
  -21.8750   -6.2750   22.6250 C   0  0  0  0  0  0  0  0  0  0  0  0
  -21.3740   -6.8450   23.8170 C   0  0  0  0  0  3  0  0  0  0  0  0
  -21.2680   -6.0610   24.9820 C   0  0  0  0  0  3  0  0  0  0  0  0
  -21.6540   -4.7080   24.9580 C   0  0  0  0  0  0  0  0  0  0  0  0
  -22.1490   -4.1370   23.7720 C   0  0  0  0  0  3  0  0  0  0  0  0
  -22.2550   -4.9190   22.6080 C   0  0  0  0  0  0  0  0  0  0  0  0
  -22.7130   -4.3590   21.4620 F   0  0  0  0  0  0  0  0  0  0  0  0
  -21.5460   -3.9510   26.0760 F   0  0  0  0  0  0  0  0  0  0  0  0
  -22.9560  -13.6340   21.1140 C   0  0  0  0  0  0  0  0  0  0  0  0
  -22.2680  -12.9240   22.0020 N   0  0  0  0  0  0  0  0  0  0  0  0
  -22.4910  -14.6620   20.6240 O   0  0  0  0  0  0  0  0  0  0  0  0
  -22.6580  -12.0930   22.4230 H   0  0  0  0  0  0  0  0  0  0  0  0
  -21.3390  -13.2170   22.2670 H   0  0  0  0  0  0  0  0  0  0  0  0
  -25.5310  -15.3230   20.1840 N   0  0  0  0  0  0  0  0  0  0  0  0
  -24.7630  -15.9690   20.3310 H   0  0  0  0  0  0  0  0  0  0  0  0
  -26.3530  -15.7710   19.7980 H   0  0  0  0  0  0  0  0  0  0  0  0
  -28.5650  -22.7020   20.7240 O   0  0  0  0  0  0  0  0  0  0  0  0
  -28.9530  -23.9200   20.0020 C   0  0  0  0  0  2  0  0  0  0  0  0
  -28.2530  -25.2200   20.6080 C   0  0  0  0  0  2  0  0  0  0  0  0
  -28.4570  -26.5740   20.0400 O   0  0  0  0  0  0  0  0  0  0  0  0
  -24.6040  -31.8390   23.1280 C   0  0  0  0  0  0  0  0  0  0  0  0
  -27.3370  -27.4120   20.0150 C   0  0  0  0  0  0  0  0  0  0  0  0
  -23.4500  -30.4680   21.4290 C   0  0  0  0  0  3  0  0  0  0  0  0
  -24.9500  -28.9750   19.9940 C   0  0  0  0  0  0  0  0  0  0  0  0
  -25.9850  -30.8330   21.2980 C   0  0  0  0  0  2  0  0  0  0  0  0
  -26.0990  -29.4720   20.6230 C   0  0  0  0  0  0  0  0  0  0  0  0
  -27.3000  -28.7040   20.6220 C   0  0  0  0  0  3  0  0  0  0  0  0
  -26.1720  -26.9650   19.3580 C   0  0  0  0  0  3  0  0  0  0  0  0
  -24.9870  -27.7260   19.3510 C   0  0  0  0  0  3  0  0  0  0  0  0
  -23.6990  -29.8290   20.0370 C   0  0  0  0  0  2  0  0  0  0  0  0
  -24.6970  -31.0620   22.0100 N   0  0  0  0  0  0  0  0  0  0  0  0
  -23.5070  -32.0880   23.6500 O   0  0  0  0  0  0  0  0  0  0  0  0
  -22.7840  -29.4180   22.3510 C   0  0  0  0  0  0  0  0  0  0  0  0
  -21.4610  -29.2390   22.2030 N   0  0  0  0  0  0  0  0  0  0  0  0
  -23.4570  -28.7700   23.1560 O   0  0  0  0  0  0  0  0  0  0  0  0
  -20.9770  -29.8140   21.5270 H   0  0  0  0  0  0  0  0  0  0  0  0
  -18.0790  -28.0380   22.6530 C   0  0  0  0  0  0  0  0  0  0  0  0
  -20.6380  -28.2740   22.9350 C   0  0  0  0  0  3  0  0  0  0  0  0
  -20.7340  -26.8670   22.3010 C   0  0  0  0  0  2  0  0  0  0  0  0
  -19.6310  -26.5910   21.2750 C   0  0  0  0  0  2  0  0  0  0  0  0
  -18.2490  -26.7170   21.9240 C   0  0  0  0  0  2  0  0  0  0  0  0
  -19.2010  -28.7770   23.1150 C   0  0  0  0  0  0  0  0  0  0  0  0
  -18.9870  -30.0160   23.7570 C   0  0  0  0  0  3  0  0  0  0  0  0
  -17.6840  -30.5160   23.9430 C   0  0  0  0  0  3  0  0  0  0  0  0
  -16.5770  -29.7740   23.4970 C   0  0  0  0  0  3  0  0  0  0  0  0
  -16.7750  -28.5360   22.8590 C   0  0  0  0  0  3  0  0  0  0  0  0
  -25.8670  -32.4720   23.7920 C   0  0  0  0  0  3  0  0  0  0  0  0
  -26.3400  -31.7010   25.0840 C   0  0  1  0  0  0  0  0  0  0  0  0
  -25.2130  -31.4610   26.1140 C   0  0  0  0  0  1  0  0  0  0  0  0
  -26.9380  -30.3240   24.7110 C   0  0  0  0  0  1  0  0  0  0  0  0
  -27.4680  -32.4950   25.7850 C   0  0  0  0  0  1  0  0  0  0  0  0
  -25.5480  -33.8700   24.1120 N   0  0  0  0  0  0  0  0  0  0  0  0
  -25.9030  -34.9230   23.3630 C   0  0  0  0  0  0  0  0  0  0  0  0
  -26.6030  -34.8180   22.3520 O   0  0  0  0  0  0  0  0  0  0  0  0
  -24.9310  -34.0250   24.8950 H   0  0  0  0  0  0  0  0  0  0  0  0
  -24.1980  -36.7240   22.9420 C   0  0  0  0  0  1  0  0  0  0  0  0
  -25.4030  -36.3120   23.8040 C   0  0  0  0  0  3  0  0  0  0  0  0
  -27.5000  -37.1910   24.7330 C   0  0  0  0  0  1  0  0  0  0  0  0
  -26.4450  -37.3600   23.7370 N   0  0  0  0  0  0  0  0  0  0  0  0
  -26.0370  -38.2830   23.8620 H   0  0  0  0  0  0  0  0  0  0  0  0
  1  3  2  0
  1  5  1  0
  2  4  1  0
  3  6  1  0
  5  2  2  0
  6 46  1  0
  6  4  2  0
  7  5  1  0
  7 16  1  0
  8 16  1  0
  9 14  1  0
 10 11  1  0
 10  9  1  0
 12 11  1  0
 12 21  1  0
 12 13  1  0
 14  8  1  0
 14 13  1  0
 15  8  2  0
 16 17  1  0
 18 19  2  0
 19 38  1  0
 20 19  1  0
 20 23  1  0
 21 22  1  0
 21 18  1  0
 22 20  2  0
 23 24  1  0
 24 25  2  0
 26 29  1  0
 26 25  1  0
 27 26  2  0
 28 27  1  0
 28 23  2  0
 29 30  1  0
 30 31  1  0
 31 32  2  0
 33 32  1  0
 33 37  1  0
 34 33  2  0
 35 30  2  0
 35 34  1  0
 36 35  1  0
 38 39  1  0
 39 42  1  0
 39 41  1  0
 40 38  2  0
 43 44  1  0
 43 18  1  0
 45 43  1  0
 47 48  1  0
 47 46  1  0
 49 48  1  0
 50 61  2  0
 51 49  1  0
 51 56  1  0
 52 60  1  0
 52 62  1  0
 53 59  1  0
 53 55  1  0
 54 60  1  0
 55 54  1  0
 56 55  2  0
 57 51  2  0
 58 57  1  0
 58 53  2  0
 59 52  1  0
 60 50  1  0
 62 64  2  0
 63 62  1  0
 65 63  1  0
 66 75  2  0
 66 71  1  0
 67 63  1  0
 67 71  1  0
 68 67  1  0
 69 70  1  0
 69 68  1  0
 70 66  1  0
 71 72  2  0
 72 73  1  0
 74 73  2  0
 75 74  1  0
 76 50  1  0
 76 81  1  0
 76 77  1  0
 77 80  1  1
 77 78  1  0
 79 77  1  0
 81 84  1  0
 82 86  1  0
 82 81  1  0
 83 82  2  0
 86 85  1  0
 88 86  1  0
 88 89  1  0
 88 87  1  0
M  ISO  4   8 100  16 100  48 101  49 101
M  END
>  <TORSDO>  (24) 
F 20

>  <SCORE>  (24) 
-12.786

>  <name>  (24) 
23

>  <ligand_id>  (24) 
23

>  <original_smiles>  (24) 
[H]c1c([H])c([H])c2c(c1[H])C([H])([H])C([H])([H])C([H])([H])C2([H])N([H])C(=O)C1([H])N(C(=O)C([H])(N([H])C(=O)C([H])(N([H])C([H])([H])[H])C([H])([H])[H])C(C([H])([H])[H])(C([H])([H])[H])C([H])([H])[H])C([H])([H])c2c([H])c(OC([H])([H])C([H])([H])Oc3c([H])c([H])c(C([H])([H])N([H])C(=O)N4C([H])([H])C([H])([H])C([H])([H])C([H])(n5nc(-c6c([H])c([H])c(Oc7c([H])c([H])c(F)c([H])c7F)c([H])c6[H])c(C(=O)N([H])[H])c5N([H])[H])C4([H])[H])c([H])c3[H])c([H])c([H])c2C1([H])[H]

>  <smiles>  (24) 
[H]c1c([H])c([H])c2c(c1[H])C([H])([H])C([H])([H])C([H])([H])C2([H])N([H])C(=O)C1([H])N(C(=O)C([H])(N([H])C(=O)C([H])(N([H])C([H])([H])[H])C([H])([H])[H])C(C([H])([H])[H])(C([H])([H])[H])C([H])([H])[H])C([H])([H])c2c([H])c(OC([H])([H])C([H])([H])Oc3c([H])c([H])c(C([H])([H])N([H])C(=O)N4C([H])([H])C([H])([H])C([H])([H])C([H])(n5nc(-c6c([H])c([H])c(Oc7c([H])c([H])c(F)c([H])c7F)c([H])c6[H])c(C(=O)N([H])[H])c5N([H])[H])C4([H])[H])c([H])c3[H])c([H])c([H])c2C1([H])[H]

$$$$
24:0:0
     RDKit          3D

 86 94  0  0  1  0  0  0  0  0999 V2000
  -28.5900  -21.4750   21.3230 C   0  0  0  0  0  3  0  0  0  0  0  0
  -29.0570  -21.6180   19.1640 C   0  0  0  0  0  3  0  0  0  0  0  0
  -28.2500  -22.9760   21.3400 C   0  0  0  0  0  3  0  0  0  0  0  0
  -28.7180  -23.1120   19.1850 C   0  0  0  0  0  3  0  0  0  0  0  0
  -29.0510  -20.5670   20.2250 C   0  0  0  0  0  0  0  0  0  0  0  0
  -28.2540  -24.0250   20.2710 C   0  0  0  0  0  0  0  0  0  0  0  0
  -28.1860  -25.6470   20.3160 O   0  0  0  0  0  0  0  0  0  0  0  0
  -24.6620  -31.9280   23.2350 C   0  0  0  0  0  0  0  0  0  0  0  0
  -27.1690  -26.8190   20.2920 C   0  0  0  0  0  0  0  0  0  0  0  0
  -23.4650  -30.5190   21.6140 C   0  0  0  0  0  3  0  0  0  0  0  0
  -24.9030  -28.8490   20.2170 C   0  0  0  0  0  0  0  0  0  0  0  0
  -26.0410  -30.6540   21.4840 C   0  0  0  0  0  2  0  0  0  0  0  0
  -26.0980  -29.2130   20.8480 C   0  0  0  0  0  0  0  0  0  0  0  0
  -27.2130  -28.2240   20.8550 C   0  0  0  0  0  3  0  0  0  0  0  0
  -25.9420  -26.6630   19.5990 C   0  0  0  0  0  3  0  0  0  0  0  0
  -24.8620  -27.6010   19.5720 C   0  0  0  0  0  3  0  0  0  0  0  0
  -23.6990  -29.8040   20.2510 C   0  0  0  0  0  2  0  0  0  0  0  0
  -24.7480  -31.0670   22.1630 N   0  0  0  0  0  0  0  0  0  0  0  0
  -23.5730  -32.2380   23.7460 O   0  0  0  0  0  0  0  0  0  0  0  0
  -22.7490  -29.5540   22.5970 C   0  0  0  0  0  0  0  0  0  0  0  0
  -21.4170  -29.3950   22.4680 N   0  0  0  0  0  0  0  0  0  0  0  0
  -23.4020  -28.9450   23.4470 O   0  0  0  0  0  0  0  0  0  0  0  0
  -20.9400  -29.9360   21.7590 H   0  0  0  0  0  0  0  0  0  0  0  0
  -18.0330  -28.1730   22.9750 C   0  0  0  0  0  0  0  0  0  0  0  0
  -20.5890  -28.4690   23.2500 C   0  0  0  0  0  3  0  0  0  0  0  0
  -20.7050  -27.0260   22.7040 C   0  0  0  0  0  2  0  0  0  0  0  0
  -19.6150  -26.6760   21.6860 C   0  0  0  0  0  2  0  0  0  0  0  0
  -18.2280  -26.8170   22.3180 C   0  0  0  0  0  2  0  0  0  0  0  0
  -19.1420  -28.9550   23.3970 C   0  0  0  0  0  0  0  0  0  0  0  0
  -18.9030  -30.2210   23.9760 C   0  0  0  0  0  3  0  0  0  0  0  0
  -17.5900  -30.7070   24.1320 C   0  0  0  0  0  3  0  0  0  0  0  0
  -16.4970  -29.9240   23.7210 C   0  0  0  0  0  3  0  0  0  0  0  0
  -16.7200  -28.6580   23.1500 C   0  0  0  0  0  3  0  0  0  0  0  0
  -25.9300  -32.5800   23.8670 C   0  0  0  0  0  3  0  0  0  0  0  0
  -25.6140  -33.9850   24.1920 N   0  0  0  0  0  0  0  0  0  0  0  0
  -25.9280  -35.0440   23.4330 C   0  0  0  0  0  0  0  0  0  0  0  0
  -26.5710  -34.9400   22.3850 O   0  0  0  0  0  0  0  0  0  0  0  0
  -25.0360  -34.1380   25.0060 H   0  0  0  0  0  0  0  0  0  0  0  0
  -24.1800  -36.8370   23.1440 C   0  0  0  0  0  1  0  0  0  0  0  0
  -25.4570  -36.4370   23.9020 C   0  0  0  0  0  3  0  0  0  0  0  0
  -27.6160  -37.3430   24.6430 C   0  0  0  0  0  1  0  0  0  0  0  0
  -26.4800  -37.4950   23.7380 N   0  0  0  0  0  0  0  0  0  0  0  0
  -26.0760  -38.4150   23.8880 H   0  0  0  0  0  0  0  0  0  0  0  0
  -26.4270  -31.8300   25.1660 C   0  0  1  0  0  0  0  0  0  0  0  0
  -25.3220  -31.6200   26.2280 C   0  0  0  0  0  1  0  0  0  0  0  0
  -27.0070  -30.4420   24.8160 C   0  0  0  0  0  1  0  0  0  0  0  0
  -27.5770  -32.6300   25.8250 C   0  0  0  0  0  1  0  0  0  0  0  0
  -29.8100  -18.8500   20.1940 C   0  0  0  0  0  2  0  0  0  0  0  0
  -30.2800  -15.7320   20.1460 C   0  0  0  0  0  0  0  0  0  0  0  0
  -30.3600  -13.2040   19.2870 C   0  0  0  0  0  2  0  0  0  0  0  0
  -29.4450  -12.8240   18.0890 C   0  0  0  0  0  2  0  0  0  0  0  0
  -28.0330  -12.4610   18.5730 C   0  0  0  0  0  2  0  0  0  0  0  0
  -27.5440  -13.4400   19.6650 C   0  0  0  0  0  3  0  0  0  0  0  0
  -28.6000  -13.7350   20.7550 C   0  0  0  0  0  2  0  0  0  0  0  0
  -29.7540  -14.3690   20.0780 N   0  0  0  0  0  0  0  0  0  0  0  0
  -31.5060  -15.6750   19.9330 O   0  0  0  0  0  0  0  0  0  0  0  0
  -29.5360  -17.0970   20.2570 N   0  0  0  0  0  0  0  0  0  0  0  0
  -28.5510  -16.9140   20.3940 H   0  0  0  0  0  0  0  0  0  0  0  0
  -25.1960  -13.9340   20.4960 C   0  0  0  0  0  0  0  0  0  0  0  0
  -24.1560  -13.1360   20.8780 C   0  0  0  0  0  0  0  0  0  0  0  0
  -24.6420  -11.7930   20.8150 C   0  0  0  0  0  0  0  0  0  0  0  0
  -26.2440  -13.0790   20.2120 N   0  0  0  0  0  0  0  0  0  0  0  0
  -25.9270  -11.7830   20.4710 N   0  0  0  0  0  0  0  0  0  0  0  0
  -23.9330  -10.5190   21.0010 C   0  0  0  0  0  0  0  0  0  0  0  0
  -24.3800   -9.5520   21.9290 C   0  0  0  0  0  3  0  0  0  0  0  0
  -23.6660   -8.3470   22.1050 C   0  0  0  0  0  3  0  0  0  0  0  0
  -22.4910   -8.1000   21.3570 C   0  0  0  0  0  0  0  0  0  0  0  0
  -22.0630   -9.0560   20.4180 C   0  0  0  0  0  3  0  0  0  0  0  0
  -22.7780  -10.2520   20.2390 C   0  0  0  0  0  3  0  0  0  0  0  0
  -21.7480   -6.9480   21.4430 O   0  0  0  0  0  0  0  0  0  0  0  0
  -21.6920   -6.2130   22.6010 C   0  0  0  0  0  0  0  0  0  0  0  0
  -21.2140   -6.7660   23.8100 C   0  0  0  0  0  3  0  0  0  0  0  0
  -21.1080   -5.9560   24.9590 C   0  0  0  0  0  3  0  0  0  0  0  0
  -21.4670   -4.5960   24.8990 C   0  0  0  0  0  0  0  0  0  0  0  0
  -21.9370   -4.0440   23.6940 C   0  0  0  0  0  3  0  0  0  0  0  0
  -22.0450   -4.8500   22.5480 C   0  0  0  0  0  0  0  0  0  0  0  0
  -22.4780   -4.3080   21.3830 F   0  0  0  0  0  0  0  0  0  0  0  0
  -21.3590   -3.8160   26.0000 F   0  0  0  0  0  0  0  0  0  0  0  0
  -22.7590  -13.5920   21.1800 C   0  0  0  0  0  0  0  0  0  0  0  0
  -22.0590  -12.8810   22.0560 N   0  0  0  0  0  0  0  0  0  0  0  0
  -22.3000  -14.6170   20.6770 O   0  0  0  0  0  0  0  0  0  0  0  0
  -22.4470  -12.0530   22.4850 H   0  0  0  0  0  0  0  0  0  0  0  0
  -21.1210  -13.1660   22.3000 H   0  0  0  0  0  0  0  0  0  0  0  0
  -25.3340  -15.3090   20.3330 N   0  0  0  0  0  0  0  0  0  0  0  0
  -24.5570  -15.9470   20.4650 H   0  0  0  0  0  0  0  0  0  0  0  0
  -26.1550  -15.7600   19.9510 H   0  0  0  0  0  0  0  0  0  0  0  0
  1  3  1  0
  2  4  2  0
  2  5  1  0
  4  6  1  0
  5  1  2  0
  6  7  1  0
  6  3  2  0
  8 19  2  0
  9  7  1  0
  9 14  1  0
 10 18  1  0
 10 20  1  0
 11 17  1  0
 11 13  1  0
 12 18  1  0
 13 14  2  0
 13 12  1  0
 15  9  2  0
 16 15  1  0
 16 11  2  0
 17 10  1  0
 18  8  1  0
 20 22  2  0
 21 20  1  0
 23 21  1  0
 24 33  2  0
 24 29  1  0
 25 21  1  0
 25 29  1  0
 26 25  1  0
 27 28  1  0
 27 26  1  0
 28 24  1  0
 29 30  2  0
 30 31  1  0
 32 31  2  0
 33 32  1  0
 34  8  1  0
 34 35  1  0
 34 44  1  0
 35 38  1  0
 36 40  1  0
 36 35  1  0
 37 36  2  0
 40 39  1  0
 42 43  1  0
 42 40  1  0
 42 41  1  0
 44 47  1  1
 44 45  1  0
 46 44  1  0
 48  5  1  0
 48 57  1  0
 49 57  1  0
 50 55  1  0
 51 52  1  0
 51 50  1  0
 53 52  1  0
 53 62  1  0
 53 54  1  0
 55 49  1  0
 55 54  1  0
 56 49  2  0
 57 58  1  0
 59 60  2  0
 60 79  1  0
 61 60  1  0
 61 64  1  0
 62 63  1  0
 62 59  1  0
 63 61  2  0
 64 65  1  0
 65 66  2  0
 67 70  1  0
 67 66  1  0
 68 67  2  0
 69 68  1  0
 69 64  2  0
 70 71  1  0
 71 72  1  0
 72 73  2  0
 74 73  1  0
 74 78  1  0
 75 74  2  0
 76 71  2  0
 76 75  1  0
 77 76  1  0
 79 80  1  0
 80 83  1  0
 80 82  1  0
 81 79  2  0
 84 85  1  0
 84 59  1  0
 86 84  1  0
M  ISO  4   6 101   7 101  49 100  57 100
M  END
>  <TORSDO>  (25) 
F 17

>  <SCORE>  (25) 
-15.844

>  <name>  (25) 
24

>  <ligand_id>  (25) 
24

>  <original_smiles>  (25) 
[H]c1c([H])c([H])c2c(c1[H])C([H])([H])C([H])([H])C([H])([H])C2([H])N([H])C(=O)C1([H])N(C(=O)C([H])(N([H])C(=O)C([H])(N([H])C([H])([H])[H])C([H])([H])[H])C(C([H])([H])[H])(C([H])([H])[H])C([H])([H])[H])C([H])([H])c2c([H])c(Oc3c([H])c([H])c(C([H])([H])N([H])C(=O)N4C([H])([H])C([H])([H])C([H])([H])C([H])(n5nc(-c6c([H])c([H])c(Oc7c([H])c([H])c(F)c([H])c7F)c([H])c6[H])c(C(=O)N([H])[H])c5N([H])[H])C4([H])[H])c([H])c3[H])c([H])c([H])c2C1([H])[H]

>  <smiles>  (25) 
[H]c1c([H])c([H])c2c(c1[H])C([H])([H])C([H])([H])C([H])([H])C2([H])N([H])C(=O)C1([H])N(C(=O)C([H])(N([H])C(=O)C([H])(N([H])C([H])([H])[H])C([H])([H])[H])C(C([H])([H])[H])(C([H])([H])[H])C([H])([H])[H])C([H])([H])c2c([H])c(Oc3c([H])c([H])c(C([H])([H])N([H])C(=O)N4C([H])([H])C([H])([H])C([H])([H])C([H])(n5nc(-c6c([H])c([H])c(Oc7c([H])c([H])c(F)c([H])c7F)c([H])c6[H])c(C(=O)N([H])[H])c5N([H])[H])C4([H])[H])c([H])c3[H])c([H])c([H])c2C1([H])[H]

$$$$
25:0:0
     RDKit          3D

 93101  0  0  1  0  0  0  0  0999 V2000
  -30.0720  -21.0950   20.2400 C   0  0  0  0  0  0  0  0  0  0  0  0
  -30.7680  -21.8760   21.0780 N   0  0  0  0  0  0  0  0  0  0  0  0
  -29.4680  -21.5360   19.2600 O   0  0  0  0  0  0  0  0  0  0  0  0
  -31.1860  -21.4160   21.8780 H   0  0  0  0  0  0  0  0  0  0  0  0
  -28.8650  -18.8760   20.3640 C   0  0  0  0  0  3  0  0  0  0  0  0
  -31.2220  -18.9400   20.9660 C   0  0  0  0  0  3  0  0  0  0  0  0
  -28.8490  -17.4830   20.5810 C   0  0  0  0  0  3  0  0  0  0  0  0
  -31.2120  -17.5410   21.1620 C   0  0  0  0  0  3  0  0  0  0  0  0
  -30.0490  -19.6210   20.5550 C   0  0  0  0  0  0  0  0  0  0  0  0
  -30.0270  -16.8000   20.9540 C   0  0  0  0  0  0  0  0  0  0  0  0
  -30.6610  -14.4580   20.4870 C   0  0  0  0  0  0  0  0  0  0  0  0
  -30.3700  -12.3310   19.2700 C   0  0  0  0  0  2  0  0  0  0  0  0
  -29.4130  -12.5670   18.0830 C   0  0  0  0  0  2  0  0  0  0  0  0
  -27.9430  -12.4160   18.5240 C   0  0  0  0  0  2  0  0  0  0  0  0
  -27.6180  -13.2330   19.8030 C   0  0  0  0  0  3  0  0  0  0  0  0
  -28.6770  -12.9580   20.8950 C   0  0  0  0  0  2  0  0  0  0  0  0
  -30.0040  -13.2780   20.3350 N   0  0  0  0  0  0  0  0  0  0  0  0
  -31.7650  -14.6880   19.9820 O   0  0  0  0  0  0  0  0  0  0  0  0
  -29.9590  -15.3950   21.1510 N   0  0  0  0  0  0  0  0  0  0  0  0
  -29.0770  -15.0480   21.4940 H   0  0  0  0  0  0  0  0  0  0  0  0
  -25.2180  -13.8480   20.5090 C   0  0  0  0  0  0  0  0  0  0  0  0
  -24.1510  -13.0770   20.8850 C   0  0  0  0  0  0  0  0  0  0  0  0
  -24.6120  -11.7250   20.8560 C   0  0  0  0  0  0  0  0  0  0  0  0
  -26.2630  -12.9660   20.2800 N   0  0  0  0  0  0  0  0  0  0  0  0
  -25.9010  -11.6840   20.5440 N   0  0  0  0  0  0  0  0  0  0  0  0
  -23.8880  -10.4620   21.0500 C   0  0  0  0  0  0  0  0  0  0  0  0
  -24.3300   -9.4950   21.9790 C   0  0  0  0  0  3  0  0  0  0  0  0
  -23.6080   -8.2960   22.1610 C   0  0  0  0  0  3  0  0  0  0  0  0
  -22.4290   -8.0570   21.4150 C   0  0  0  0  0  0  0  0  0  0  0  0
  -22.0070   -9.0150   20.4750 C   0  0  0  0  0  3  0  0  0  0  0  0
  -22.7300  -10.2050   20.2910 C   0  0  0  0  0  3  0  0  0  0  0  0
  -21.6780   -6.9110   21.5060 O   0  0  0  0  0  0  0  0  0  0  0  0
  -21.6460   -6.1610   22.6540 C   0  0  0  0  0  0  0  0  0  0  0  0
  -21.2400   -6.7090   23.8910 C   0  0  0  0  0  3  0  0  0  0  0  0
  -21.1560   -5.8850   25.0320 C   0  0  0  0  0  3  0  0  0  0  0  0
  -21.4670   -4.5160   24.9370 C   0  0  0  0  0  0  0  0  0  0  0  0
  -21.8680   -3.9680   23.7050 C   0  0  0  0  0  3  0  0  0  0  0  0
  -21.9540   -4.7890   22.5660 C   0  0  0  0  0  0  0  0  0  0  0  0
  -22.3190   -4.2520   21.3780 F   0  0  0  0  0  0  0  0  0  0  0  0
  -21.3790   -3.7230   26.0300 F   0  0  0  0  0  0  0  0  0  0  0  0
  -22.7540  -13.5530   21.1600 C   0  0  0  0  0  0  0  0  0  0  0  0
  -22.0280  -12.8580   22.0280 N   0  0  0  0  0  0  0  0  0  0  0  0
  -22.3140  -14.5770   20.6400 O   0  0  0  0  0  0  0  0  0  0  0  0
  -22.3940  -12.0260   22.4690 H   0  0  0  0  0  0  0  0  0  0  0  0
  -21.0910  -13.1600   22.2560 H   0  0  0  0  0  0  0  0  0  0  0  0
  -25.3790  -15.2170   20.3230 N   0  0  0  0  0  0  0  0  0  0  0  0
  -24.6050  -15.8650   20.4190 H   0  0  0  0  0  0  0  0  0  0  0  0
  -26.2080  -15.6460   19.9320 H   0  0  0  0  0  0  0  0  0  0  0  0
  -31.1350  -23.2760   20.8470 C   0  0  0  0  0  2  0  0  0  0  0  0
  -29.9960  -24.2930   21.0920 C   0  0  0  0  0  2  0  0  0  0  0  0
  -30.4660  -25.7460   20.8550 C   0  0  0  0  0  2  0  0  0  0  0  0
  -29.3900  -26.8320   21.0590 C   0  0  0  0  0  2  0  0  0  0  0  0
  -28.3710  -26.6690   20.0810 O   0  0  0  0  0  0  0  0  0  0  0  0
  -24.5860  -31.8870   23.2320 C   0  0  0  0  0  0  0  0  0  0  0  0
  -27.2450  -27.4570   20.1610 C   0  0  0  0  0  0  0  0  0  0  0  0
  -23.3790  -30.4820   21.5890 C   0  0  0  0  0  3  0  0  0  0  0  0
  -24.8370  -28.9420   20.1720 C   0  0  0  0  0  0  0  0  0  0  0  0
  -25.9010  -30.8460   21.3920 C   0  0  0  0  0  2  0  0  0  0  0  0
  -25.9900  -29.4710   20.7650 C   0  0  0  0  0  0  0  0  0  0  0  0
  -27.1960  -28.7350   20.7690 C   0  0  0  0  0  3  0  0  0  0  0  0
  -26.0780  -26.9430   19.5600 C   0  0  0  0  0  3  0  0  0  0  0  0
  -24.8730  -27.6730   19.5700 C   0  0  0  0  0  3  0  0  0  0  0  0
  -23.5900  -29.7980   20.2120 C   0  0  0  0  0  2  0  0  0  0  0  0
  -24.6390  -31.0860   22.1300 N   0  0  0  0  0  0  0  0  0  0  0  0
  -23.5060  -32.1610   23.7710 O   0  0  0  0  0  0  0  0  0  0  0  0
  -22.7270  -29.4650   22.5510 C   0  0  0  0  0  0  0  0  0  0  0  0
  -21.4010  -29.2860   22.4240 N   0  0  0  0  0  0  0  0  0  0  0  0
  -23.4090  -28.8380   23.3650 O   0  0  0  0  0  0  0  0  0  0  0  0
  -20.9150  -29.8460   21.7380 H   0  0  0  0  0  0  0  0  0  0  0  0
  -18.0220  -28.1120   22.9250 C   0  0  0  0  0  0  0  0  0  0  0  0
  -20.5820  -28.3520   23.1940 C   0  0  0  0  0  3  0  0  0  0  0  0
  -20.6740  -26.9220   22.6130 C   0  0  0  0  0  2  0  0  0  0  0  0
  -19.5690  -26.6090   21.6000 C   0  0  0  0  0  2  0  0  0  0  0  0
  -18.1900  -26.7620   22.2470 C   0  0  0  0  0  2  0  0  0  0  0  0
  -19.1470  -28.8650   23.3550 C   0  0  0  0  0  0  0  0  0  0  0  0
  -18.9390  -30.1290   23.9480 C   0  0  0  0  0  3  0  0  0  0  0  0
  -17.6390  -30.6410   24.1160 C   0  0  0  0  0  3  0  0  0  0  0  0
  -16.5290  -29.8840   23.7030 C   0  0  0  0  0  3  0  0  0  0  0  0
  -16.7210  -28.6220   23.1140 C   0  0  0  0  0  3  0  0  0  0  0  0
  -25.8740  -32.5140   23.8510 C   0  0  0  0  0  3  0  0  0  0  0  0
  -25.5690  -33.9120   24.1820 N   0  0  0  0  0  0  0  0  0  0  0  0
  -25.9040  -34.9640   23.4230 C   0  0  0  0  0  0  0  0  0  0  0  0
  -26.5750  -34.8600   22.3920 O   0  0  0  0  0  0  0  0  0  0  0  0
  -24.9740  -34.0660   24.9830 H   0  0  0  0  0  0  0  0  0  0  0  0
  -24.1800  -36.7590   23.0620 C   0  0  0  0  0  1  0  0  0  0  0  0
  -25.4160  -36.3510   23.8810 C   0  0  0  0  0  3  0  0  0  0  0  0
  -27.5490  -37.2290   24.7230 C   0  0  0  0  0  1  0  0  0  0  0  0
  -26.4510  -37.4030   23.7760 N   0  0  0  0  0  0  0  0  0  0  0  0
  -26.0460  -38.3230   23.9280 H   0  0  0  0  0  0  0  0  0  0  0  0
  -26.3970  -31.7370   25.1210 C   0  0  1  0  0  0  0  0  0  0  0  0
  -25.3090  -31.4970   26.1930 C   0  0  0  0  0  1  0  0  0  0  0  0
  -26.9750  -30.3600   24.7180 C   0  0  0  0  0  1  0  0  0  0  0  0
  -27.5500  -32.5270   25.7820 C   0  0  0  0  0  1  0  0  0  0  0  0
  1  9  1  0
  1  2  1  0
  2  4  1  0
  3  1  2  0
  5  9  2  0
  5  7  1  0
  6  8  2  0
  7 10  2  0
  9  6  1  0
 10 19  1  0
 10  8  1  0
 11 19  1  0
 12 17  1  0
 13 14  1  0
 13 12  1  0
 15 14  1  0
 15 24  1  0
 15 16  1  0
 17 11  1  0
 17 16  1  0
 18 11  2  0
 19 20  1  0
 21 22  2  0
 22 41  1  0
 23 22  1  0
 23 26  1  0
 24 21  1  0
 24 25  1  0
 25 23  2  0
 26 27  1  0
 27 28  2  0
 29 32  1  0
 29 28  1  0
 30 29  2  0
 31 30  1  0
 31 26  2  0
 32 33  1  0
 33 34  1  0
 34 35  2  0
 36 35  1  0
 36 40  1  0
 37 36  2  0
 38 33  2  0
 38 37  1  0
 39 38  1  0
 41 42  1  0
 42 45  1  0
 42 44  1  0
 43 41  2  0
 46 47  1  0
 46 21  1  0
 48 46  1  0
 49  2  1  0
 49 50  1  0
 51 52  1  0
 51 50  1  0
 53 55  1  0
 53 52  1  0
 54 65  2  0
 55 60  1  0
 56 64  1  0
 56 66  1  0
 57 63  1  0
 57 59  1  0
 58 64  1  0
 59 60  2  0
 59 58  1  0
 61 62  1  0
 61 55  2  0
 62 57  2  0
 63 56  1  0
 64 54  1  0
 66 68  2  0
 67 66  1  0
 69 67  1  0
 70 79  2  0
 70 75  1  0
 71 67  1  0
 71 75  1  0
 72 71  1  0
 73 74  1  0
 73 72  1  0
 74 70  1  0
 75 76  2  0
 76 77  1  0
 78 77  2  0
 79 78  1  0
 80 54  1  0
 80 81  1  0
 80 90  1  0
 81 84  1  0
 82 86  1  0
 82 81  1  0
 83 82  2  0
 86 85  1  0
 88 86  1  0
 88 89  1  0
 88 87  1  0
 90 93  1  1
 90 91  1  0
 92 90  1  0
M  ISO  4  11 100  19 100  52 101  53 101
M  END
>  <TORSDO>  (26) 
F 21

>  <SCORE>  (26) 
-13.883

>  <name>  (26) 
25

>  <ligand_id>  (26) 
25

>  <original_smiles>  (26) 
[H]c1c([H])c([H])c2c(c1[H])C([H])([H])C([H])([H])C([H])([H])C2([H])N([H])C(=O)C1([H])N(C(=O)C([H])(N([H])C(=O)C([H])(N([H])C([H])([H])[H])C([H])([H])[H])C(C([H])([H])[H])(C([H])([H])[H])C([H])([H])[H])C([H])([H])c2c([H])c(OC([H])([H])C([H])([H])C([H])([H])C([H])([H])N([H])C(=O)c3c([H])c([H])c(N([H])C(=O)N4C([H])([H])C([H])([H])C([H])([H])C([H])(n5nc(-c6c([H])c([H])c(Oc7c([H])c([H])c(F)c([H])c7F)c([H])c6[H])c(C(=O)N([H])[H])c5N([H])[H])C4([H])[H])c([H])c3[H])c([H])c([H])c2C1([H])[H]

>  <smiles>  (26) 
[H]c1c([H])c([H])c2c(c1[H])C([H])([H])C([H])([H])C([H])([H])C2([H])N([H])C(=O)C1([H])N(C(=O)C([H])(N([H])C(=O)C([H])(N([H])C([H])([H])[H])C([H])([H])[H])C(C([H])([H])[H])(C([H])([H])[H])C([H])([H])[H])C([H])([H])c2c([H])c(OC([H])([H])C([H])([H])C([H])([H])C([H])([H])N([H])C(=O)c3c([H])c([H])c(N([H])C(=O)N4C([H])([H])C([H])([H])C([H])([H])C([H])(n5nc(-c6c([H])c([H])c(Oc7c([H])c([H])c(F)c([H])c7F)c([H])c6[H])c(C(=O)N([H])[H])c5N([H])[H])C4([H])[H])c([H])c3[H])c([H])c([H])c2C1([H])[H]

$$$$
26:0:0
     RDKit          3D

 94103  0  0  1  0  0  0  0  0999 V2000
  -31.7190  -24.0460   19.4410 C   0  0  0  0  0  3  0  0  0  0  0  0
  -30.1070  -23.8020   17.6310 C   0  0  0  0  0  3  0  0  0  0  0  0
  -31.2630  -25.3580   19.6730 C   0  0  0  0  0  3  0  0  0  0  0  0
  -29.6550  -25.1150   17.8580 C   0  0  0  0  0  3  0  0  0  0  0  0
  -31.0740  -23.2290   18.4840 C   0  0  0  0  0  0  0  0  0  0  0  0
  -30.1810  -25.8640   18.9270 C   0  0  0  0  0  0  0  0  0  0  0  0
  -31.1420  -21.7600   18.5520 C   0  0  0  0  0  2  0  0  0  0  0  0
  -31.7530  -21.0370   19.5100 C   0  0  0  0  0  2  0  0  0  0  0  0
  -30.1050  -19.1990   19.6440 C   0  0  0  0  0  3  0  0  0  0  0  0
  -32.3890  -18.7140   20.3030 C   0  0  0  0  0  3  0  0  0  0  0  0
  -29.7070  -17.9050   20.0240 C   0  0  0  0  0  3  0  0  0  0  0  0
  -31.9950  -17.4040   20.6660 C   0  0  0  0  0  3  0  0  0  0  0  0
  -31.4400  -19.6250   19.7910 C   0  0  0  0  0  0  0  0  0  0  0  0
  -30.6430  -16.9740   20.5220 C   0  0  0  0  0  0  0  0  0  0  0  0
  -30.7710  -14.5080   20.4540 C   0  0  0  0  0  0  0  0  0  0  0  0
  -30.3470  -12.3660   19.3470 C   0  0  0  0  0  2  0  0  0  0  0  0
  -29.3990  -12.5690   18.1480 C   0  0  0  0  0  2  0  0  0  0  0  0
  -27.9400  -12.3940   18.5920 C   0  0  0  0  0  2  0  0  0  0  0  0
  -27.6000  -13.2590   19.8330 C   0  0  0  0  0  3  0  0  0  0  0  0
  -28.6780  -13.1380   20.9460 C   0  0  0  0  0  2  0  0  0  0  0  0
  -30.0050  -13.3870   20.3520 N   0  0  0  0  0  0  0  0  0  0  0  0
  -31.9260  -14.5430   20.0250 O   0  0  0  0  0  0  0  0  0  0  0  0
  -30.1790  -15.6500   20.8520 N   0  0  0  0  0  0  0  0  0  0  0  0
  -29.2050  -15.5600   21.1010 H   0  0  0  0  0  0  0  0  0  0  0  0
  -25.2030  -13.8540   20.5520 C   0  0  0  0  0  0  0  0  0  0  0  0
  -24.1380  -13.0790   20.9250 C   0  0  0  0  0  0  0  0  0  0  0  0
  -24.6010  -11.7280   20.8940 C   0  0  0  0  0  0  0  0  0  0  0  0
  -26.2520  -12.9750   20.3240 N   0  0  0  0  0  0  0  0  0  0  0  0
  -25.8930  -11.6900   20.5890 N   0  0  0  0  0  0  0  0  0  0  0  0
  -23.8730  -10.4660   21.0830 C   0  0  0  0  0  0  0  0  0  0  0  0
  -24.3130   -9.4900   22.0020 C   0  0  0  0  0  3  0  0  0  0  0  0
  -23.5860   -8.2930   22.1790 C   0  0  0  0  0  3  0  0  0  0  0  0
  -22.4030   -8.0650   21.4370 C   0  0  0  0  0  0  0  0  0  0  0  0
  -21.9810   -9.0300   20.5060 C   0  0  0  0  0  3  0  0  0  0  0  0
  -22.7100  -10.2180   20.3260 C   0  0  0  0  0  3  0  0  0  0  0  0
  -21.6440   -6.9220   21.5270 O   0  0  0  0  0  0  0  0  0  0  0  0
  -21.6210   -6.1610   22.6680 C   0  0  0  0  0  0  0  0  0  0  0  0
  -21.2390   -6.6990   23.9170 C   0  0  0  0  0  3  0  0  0  0  0  0
  -21.1610   -5.8650   25.0490 C   0  0  0  0  0  3  0  0  0  0  0  0
  -21.4590   -4.4940   24.9360 C   0  0  0  0  0  0  0  0  0  0  0  0
  -21.8380   -3.9550   23.6940 C   0  0  0  0  0  3  0  0  0  0  0  0
  -21.9160   -4.7860   22.5640 C   0  0  0  0  0  0  0  0  0  0  0  0
  -22.2600   -4.2580   21.3640 F   0  0  0  0  0  0  0  0  0  0  0  0
  -21.3780   -3.6900   26.0220 F   0  0  0  0  0  0  0  0  0  0  0  0
  -22.7390  -13.5570   21.1890 C   0  0  0  0  0  0  0  0  0  0  0  0
  -22.0100  -12.8620   22.0580 N   0  0  0  0  0  0  0  0  0  0  0  0
  -22.3010  -14.5790   20.6650 O   0  0  0  0  0  0  0  0  0  0  0  0
  -22.3780  -12.0400   22.5110 H   0  0  0  0  0  0  0  0  0  0  0  0
  -21.0700  -13.1630   22.2740 H   0  0  0  0  0  0  0  0  0  0  0  0
  -25.3550  -15.2240   20.3640 N   0  0  0  0  0  0  0  0  0  0  0  0
  -24.5770  -15.8630   20.4770 H   0  0  0  0  0  0  0  0  0  0  0  0
  -26.1750  -15.6700   19.9720 H   0  0  0  0  0  0  0  0  0  0  0  0
  -29.4590  -27.1170   19.3720 C   0  0  0  0  0  2  0  0  0  0  0  0
  -28.3600  -26.7030   20.1640 O   0  0  0  0  0  0  0  0  0  0  0  0
  -24.5610  -31.8790   23.2160 C   0  0  0  0  0  0  0  0  0  0  0  0
  -27.2360  -27.4820   20.1300 C   0  0  0  0  0  0  0  0  0  0  0  0
  -23.3640  -30.4810   21.5570 C   0  0  0  0  0  3  0  0  0  0  0  0
  -24.8340  -28.9550   20.1380 C   0  0  0  0  0  0  0  0  0  0  0  0
  -25.8960  -30.8370   21.4060 C   0  0  0  0  0  2  0  0  0  0  0  0
  -25.9900  -29.4910   20.7250 C   0  0  0  0  0  0  0  0  0  0  0  0
  -27.1980  -28.7640   20.7140 C   0  0  0  0  0  3  0  0  0  0  0  0
  -26.0620  -26.9360   19.5750 C   0  0  0  0  0  3  0  0  0  0  0  0
  -24.8630  -27.6730   19.5650 C   0  0  0  0  0  3  0  0  0  0  0  0
  -23.5890  -29.8120   20.1740 C   0  0  0  0  0  2  0  0  0  0  0  0
  -24.6200  -31.0850   22.1100 N   0  0  0  0  0  0  0  0  0  0  0  0
  -23.4780  -32.1500   23.7510 O   0  0  0  0  0  0  0  0  0  0  0  0
  -22.7160  -29.4510   22.5070 C   0  0  0  0  0  0  0  0  0  0  0  0
  -21.3920  -29.2670   22.3770 N   0  0  0  0  0  0  0  0  0  0  0  0
  -23.4000  -28.8220   23.3190 O   0  0  0  0  0  0  0  0  0  0  0  0
  -20.8970  -29.8240   21.6940 H   0  0  0  0  0  0  0  0  0  0  0  0
  -18.0180  -28.0890   22.8970 C   0  0  0  0  0  0  0  0  0  0  0  0
  -20.5800  -28.3280   23.1500 C   0  0  0  0  0  3  0  0  0  0  0  0
  -20.6700  -26.9000   22.5640 C   0  0  0  0  0  2  0  0  0  0  0  0
  -19.5580  -26.5900   21.5560 C   0  0  0  0  0  2  0  0  0  0  0  0
  -18.1830  -26.7430   22.2110 C   0  0  0  0  0  2  0  0  0  0  0  0
  -19.1460  -28.8380   23.3240 C   0  0  0  0  0  0  0  0  0  0  0  0
  -18.9420  -30.1020   23.9210 C   0  0  0  0  0  3  0  0  0  0  0  0
  -17.6430  -30.6120   24.1030 C   0  0  0  0  0  3  0  0  0  0  0  0
  -16.5290  -29.8550   23.6970 C   0  0  0  0  0  3  0  0  0  0  0  0
  -16.7170  -28.5950   23.0990 C   0  0  0  0  0  3  0  0  0  0  0  0
  -25.8460  -32.5120   23.8330 C   0  0  0  0  0  3  0  0  0  0  0  0
  -26.3820  -31.7430   25.1050 C   0  0  1  0  0  0  0  0  0  0  0  0
  -25.3040  -31.4960   26.1850 C   0  0  0  0  0  1  0  0  0  0  0  0
  -26.9850  -30.3720   24.7220 C   0  0  0  0  0  1  0  0  0  0  0  0
  -27.5310  -32.5500   25.7540 C   0  0  0  0  0  1  0  0  0  0  0  0
  -25.5380  -33.9090   24.1660 N   0  0  0  0  0  0  0  0  0  0  0  0
  -25.8660  -34.9620   23.4040 C   0  0  0  0  0  0  0  0  0  0  0  0
  -26.5350  -34.8610   22.3730 O   0  0  0  0  0  0  0  0  0  0  0  0
  -24.9660  -34.0680   24.9820 H   0  0  0  0  0  0  0  0  0  0  0  0
  -24.1340  -36.7450   23.0390 C   0  0  0  0  0  1  0  0  0  0  0  0
  -25.3690  -36.3460   23.8610 C   0  0  0  0  0  3  0  0  0  0  0  0
  -27.4930  -37.2340   24.7150 C   0  0  0  0  0  1  0  0  0  0  0  0
  -26.4000  -37.4030   23.7600 N   0  0  0  0  0  0  0  0  0  0  0  0
  -25.9890  -38.3210   23.9090 H   0  0  0  0  0  0  0  0  0  0  0  0
  1  3  1  0
  2  4  2  0
  2  5  1  0
  4  6  1  0
  5  7  1  0
  5  1  2  0
  6 53  1  0
  6  3  2  0
  7  8  1  0
  8 13  1  0
  9 13  2  0
  9 11  1  0
 10 12  2  0
 11 14  2  0
 13 10  1  0
 14 12  1  0
 14 23  1  0
 15 23  1  0
 16 21  1  0
 17 18  1  0
 17 16  1  0
 19 18  1  0
 19 28  1  0
 19 20  1  0
 21 15  1  0
 21 20  1  0
 22 15  2  0
 23 24  1  0
 25 26  2  0
 26 45  1  0
 27 26  1  0
 27 30  1  0
 28 25  1  0
 28 29  1  0
 29 27  2  0
 30 31  1  0
 31 32  2  0
 33 36  1  0
 33 32  1  0
 34 33  2  0
 35 34  1  0
 35 30  2  0
 36 37  1  0
 37 38  1  0
 38 39  2  0
 40 39  1  0
 40 44  1  0
 41 40  2  0
 42 37  2  0
 42 41  1  0
 43 42  1  0
 45 46  1  0
 46 49  1  0
 46 48  1  0
 47 45  2  0
 50 51  1  0
 50 25  1  0
 52 50  1  0
 53 54  1  0
 55 66  2  0
 56 54  1  0
 56 61  1  0
 57 65  1  0
 57 67  1  0
 58 64  1  0
 58 60  1  0
 59 65  1  0
 60 59  1  0
 61 60  2  0
 62 56  2  0
 63 62  1  0
 63 58  2  0
 64 57  1  0
 65 55  1  0
 67 69  2  0
 68 67  1  0
 70 68  1  0
 71 80  2  0
 71 76  1  0
 72 68  1  0
 72 76  1  0
 73 72  1  0
 74 75  1  0
 74 73  1  0
 75 71  1  0
 76 77  2  0
 77 78  1  0
 79 78  2  0
 80 79  1  0
 81 55  1  0
 81 86  1  0
 81 82  1  0
 82 85  1  1
 82 83  1  0
 84 82  1  0
 86 89  1  0
 87 91  1  0
 87 86  1  0
 88 87  2  0
 91 90  1  0
 93 91  1  0
 93 94  1  0
 93 92  1  0
M  ISO  4  15 100  23 100  53 101  54 101
M  END
>  <TORSDO>  (27) 
F 19

>  <SCORE>  (27) 
-14.267

>  <name>  (27) 
26

>  <ligand_id>  (27) 
26

>  <original_smiles>  (27) 
[H]C(=C([H])c1c([H])c([H])c(C([H])([H])Oc2c([H])c([H])c3c(c2[H])C([H])([H])N(C(=O)C([H])(N([H])C(=O)C([H])(N([H])C([H])([H])[H])C([H])([H])[H])C(C([H])([H])[H])(C([H])([H])[H])C([H])([H])[H])C([H])(C(=O)N([H])C2([H])c4c([H])c([H])c([H])c([H])c4C([H])([H])C([H])([H])C2([H])[H])C3([H])[H])c([H])c1[H])c1c([H])c([H])c(N([H])C(=O)N2C([H])([H])C([H])([H])C([H])([H])C([H])(n3nc(-c4c([H])c([H])c(Oc5c([H])c([H])c(F)c([H])c5F)c([H])c4[H])c(C(=O)N([H])[H])c3N([H])[H])C2([H])[H])c([H])c1[H]

>  <smiles>  (27) 
[H]C(=C([H])c1c([H])c([H])c(C([H])([H])Oc2c([H])c([H])c3c(c2[H])C([H])([H])N(C(=O)C([H])(N([H])C(=O)C([H])(N([H])C([H])([H])[H])C([H])([H])[H])C(C([H])([H])[H])(C([H])([H])[H])C([H])([H])[H])C([H])(C(=O)N([H])C2([H])c4c([H])c([H])c([H])c([H])c4C([H])([H])C([H])([H])C2([H])[H])C3([H])[H])c([H])c1[H])c1c([H])c([H])c(N([H])C(=O)N2C([H])([H])C([H])([H])C([H])([H])C([H])(n3nc(-c4c([H])c([H])c(Oc5c([H])c([H])c(F)c([H])c5F)c([H])c4[H])c(C(=O)N([H])[H])c3N([H])[H])C2([H])[H])c([H])c1[H]

$$$$
27:0:0
     RDKit          3D

 82 86  0  0  1  0  0  0  0  0999 V2000
  -28.2030  -25.2140   20.1870 O   0  0  0  0  0  1  0  0  0  0  0  0
  -24.6590  -31.8230   23.1160 C   0  0  0  0  0  0  0  0  0  0  0  0
  -27.2270  -26.5180   20.2190 C   0  0  0  0  0  0  0  0  0  0  0  0
  -23.5030  -30.4040   21.4840 C   0  0  0  0  0  3  0  0  0  0  0  0
  -24.9680  -28.6960   20.1210 C   0  0  0  0  0  0  0  0  0  0  0  0
  -26.0920  -30.4850   21.4080 C   0  0  0  0  0  2  0  0  0  0  0  0
  -26.1660  -29.0180   20.7700 C   0  0  0  0  0  0  0  0  0  0  0  0
  -27.2690  -27.9690   20.7710 C   0  0  0  0  0  3  0  0  0  0  0  0
  -25.9850  -26.4690   19.5130 C   0  0  0  0  0  3  0  0  0  0  0  0
  -24.9320  -27.4500   19.4670 C   0  0  0  0  0  3  0  0  0  0  0  0
  -23.7680  -29.6710   20.1330 C   0  0  0  0  0  2  0  0  0  0  0  0
  -24.7790  -30.9440   22.0540 N   0  0  0  0  0  0  0  0  0  0  0  0
  -23.5550  -32.1300   23.6020 O   0  0  0  0  0  0  0  0  0  0  0  0
  -22.7610  -29.4600   22.4680 C   0  0  0  0  0  0  0  0  0  0  0  0
  -21.4220  -29.3490   22.3610 N   0  0  0  0  0  0  0  0  0  0  0  0
  -23.4040  -28.8170   23.3000 O   0  0  0  0  0  0  0  0  0  0  0  0
  -20.9470  -29.9240   21.6780 H   0  0  0  0  0  0  0  0  0  0  0  0
  -18.0030  -28.1330   22.8590 C   0  0  0  0  0  0  0  0  0  0  0  0
  -20.5950  -28.3830   23.0970 C   0  0  0  0  0  0  0  0  0  0  0  0
  -20.7720  -26.9760   22.4620 C   0  0  0  0  0  3  0  0  0  0  0  0
  -19.5380  -26.4150   21.7220 C   0  0  0  0  0  3  0  0  0  0  0  0
  -18.0990  -26.8440   22.0560 C   0  0  0  0  0  3  0  0  0  0  0  0
  -19.1450  -28.8670   23.2920 C   0  0  0  0  0  0  0  0  0  0  0  0
  -18.9400  -30.1130   23.9270 C   0  0  0  0  0  3  0  0  0  0  0  0
  -17.6430  -30.6230   24.1300 C   0  0  0  0  0  3  0  0  0  0  0  0
  -16.5250  -29.8800   23.7210 C   0  0  0  0  0  3  0  0  0  0  0  0
  -16.7080  -28.6360   23.0960 C   0  0  0  0  0  3  0  0  0  0  0  0
  -25.9010  -32.4970   23.7720 C   0  0  0  0  0  3  0  0  0  0  0  0
  -25.5540  -33.8960   24.1020 N   0  0  0  0  0  0  0  0  0  0  0  0
  -25.8860  -34.9730   23.3740 C   0  0  0  0  0  0  0  0  0  0  0  0
  -26.5670  -34.8910   22.3500 O   0  0  0  0  0  0  0  0  0  0  0  0
  -24.9460  -34.0310   24.8960 H   0  0  0  0  0  0  0  0  0  0  0  0
  -24.1500  -36.7720   23.0460 C   0  0  0  0  0  1  0  0  0  0  0  0
  -25.3900  -36.3550   23.8530 C   0  0  0  0  0  3  0  0  0  0  0  0
  -27.5120  -37.2520   24.7100 C   0  0  0  0  0  1  0  0  0  0  0  0
  -26.4160  -37.4190   23.7590 N   0  0  0  0  0  0  0  0  0  0  0  0
  -26.0000  -38.3340   23.9110 H   0  0  0  0  0  0  0  0  0  0  0  0
  -26.3860  -31.7540   25.0790 C   0  0  1  0  0  0  0  0  0  0  0  0
  -25.2660  -31.5290   26.1240 C   0  0  0  0  0  1  0  0  0  0  0  0
  -26.9880  -30.3730   24.7440 C   0  0  0  0  0  1  0  0  0  0  0  0
  -27.5140  -32.5680   25.7560 C   0  0  0  0  0  1  0  0  0  0  0  0
  -28.2300  -23.3320   20.4390 C   0  0  0  0  0 15  0  0  0  0  0  0
  -28.7870  -21.3790   19.8640 C   0  0  0  0  0 15  0  0  0  0  0  0
  -29.3980  -19.4400   20.4120 C   0  0  0  0  0  1  0  0  0  0  0  0
  -30.1690  -16.0920   20.0360 C   0  0  0  0  0  0  0  0  0  0  0  0
  -30.3590  -13.4710   19.1990 C   0  0  0  0  0  2  0  0  0  0  0  0
  -29.4770  -12.8700   18.0550 C   0  0  0  0  0  2  0  0  0  0  0  0
  -28.1030  -12.4290   18.5740 C   0  0  0  0  0  2  0  0  0  0  0  0
  -27.5630  -13.4490   19.5940 C   0  0  0  0  0  3  0  0  0  0  0  0
  -28.6020  -13.9210   20.6470 C   0  0  0  0  0  2  0  0  0  0  0  0
  -29.6750  -14.6720   19.9180 N   0  0  0  0  0  0  0  0  0  0  0  0
  -31.4150  -15.9560   19.9590 O   0  0  0  0  0  0  0  0  0  0  0  0
  -29.4220  -17.5600   20.0550 N   0  0  0  0  0  0  0  0  0  0  0  0
  -28.4530  -17.3130   19.9040 H   0  0  0  0  0  0  0  0  0  0  0  0
  -25.2310  -13.9310   20.4500 C   0  0  0  0  0  0  0  0  0  0  0  0
  -24.1900  -13.1380   20.8360 C   0  0  0  0  0  0  0  0  0  0  0  0
  -24.6710  -11.7930   20.7770 C   0  0  0  0  0  0  0  0  0  0  0  0
  -26.2760  -13.0750   20.1660 N   0  0  0  0  0  0  0  0  0  0  0  0
  -25.9570  -11.7790   20.4270 N   0  0  0  0  0  0  0  0  0  0  0  0
  -23.9560  -10.5240   20.9740 C   0  0  0  0  0  0  0  0  0  0  0  0
  -24.4050   -9.5560   21.8990 C   0  0  0  0  0  3  0  0  0  0  0  0
  -23.6830   -8.3560   22.0890 C   0  0  0  0  0  3  0  0  0  0  0  0
  -22.4960   -8.1180   21.3550 C   0  0  0  0  0  0  0  0  0  0  0  0
  -22.0660   -9.0740   20.4200 C   0  0  0  0  0  3  0  0  0  0  0  0
  -22.7890  -10.2650   20.2280 C   0  0  0  0  0  3  0  0  0  0  0  0
  -21.7460   -6.9710   21.4550 O   0  0  0  0  0  0  0  0  0  0  0  0
  -21.7090   -6.2310   22.6100 C   0  0  0  0  0  0  0  0  0  0  0  0
  -21.2840   -6.7860   23.8360 C   0  0  0  0  0  3  0  0  0  0  0  0
  -21.1960   -5.9730   24.9840 C   0  0  0  0  0  3  0  0  0  0  0  0
  -21.5230   -4.6050   24.9060 C   0  0  0  0  0  0  0  0  0  0  0  0
  -21.9420   -4.0500   23.6840 C   0  0  0  0  0  3  0  0  0  0  0  0
  -22.0320   -4.8600   22.5390 C   0  0  0  0  0  0  0  0  0  0  0  0
  -22.4140   -4.3150   21.3590 F   0  0  0  0  0  0  0  0  0  0  0  0
  -21.4320   -3.8220   26.0060 F   0  0  0  0  0  0  0  0  0  0  0  0
  -22.7960  -13.6030   21.1400 C   0  0  0  0  0  0  0  0  0  0  0  0
  -22.0920  -12.8960   22.0160 N   0  0  0  0  0  0  0  0  0  0  0  0
  -22.3430  -14.6300   20.6380 O   0  0  0  0  0  0  0  0  0  0  0  0
  -22.4740  -12.0650   22.4440 H   0  0  0  0  0  0  0  0  0  0  0  0
  -21.1580  -13.1890   22.2630 H   0  0  0  0  0  0  0  0  0  0  0  0
  -25.3710  -15.3060   20.2780 N   0  0  0  0  0  0  0  0  0  0  0  0
  -24.5980  -15.9490   20.4140 H   0  0  0  0  0  0  0  0  0  0  0  0
  -26.2020  -15.7550   19.9170 H   0  0  0  0  0  0  0  0  0  0  0  0
  1  3  1  0
  2 13  2  0
  3  8  1  0
  4 12  1  0
  4 14  1  0
  5 11  1  0
  5  7  1  0
  6 12  1  0
  7  8  2  0
  7  6  1  0
  9  3  2  0
 10  9  1  0
 10  5  2  0
 11  4  1  0
 12  2  1  0
 14 16  2  0
 15 14  1  0
 15 19  1  0
 17 15  1  0
 18 27  2  0
 18 23  1  0
 19 23  1  0
 20 19  2  0
 21 22  2  0
 21 20  1  0
 22 18  1  0
 23 24  2  0
 24 25  1  0
 26 25  2  0
 27 26  1  0
 28  2  1  0
 28 29  1  0
 28 38  1  0
 29 32  1  0
 30 34  1  0
 30 29  1  0
 31 30  2  0
 34 33  1  0
 36 34  1  0
 36 37  1  0
 36 35  1  0
 38 41  1  1
 38 39  1  0
 40 38  1  0
 45 53  1  0
 46 51  1  0
 47 48  1  0
 47 46  1  0
 49 48  1  0
 49 58  1  0
 49 50  1  0
 51 45  1  0
 51 50  1  0
 52 45  2  0
 53 44  1  0
 54 53  1  0
 55 56  2  0
 56 75  1  0
 57 56  1  0
 57 60  1  0
 58 59  1  0
 58 55  1  0
 59 57  2  0
 60 61  1  0
 61 62  2  0
 63 66  1  0
 63 62  1  0
 64 63  2  0
 65 64  1  0
 65 60  2  0
 66 67  1  0
 67 68  1  0
 68 69  2  0
 70 69  1  0
 70 74  1  0
 71 70  2  0
 72 67  2  0
 72 71  1  0
 73 72  1  0
 75 76  1  0
 76 79  1  0
 76 78  1  0
 77 75  2  0
 80 81  1  0
 80 55  1  0
 82 80  1  0
M  ISO  4   1 101  42 101  45 100  53 100
M  END
>  <TORSDO>  (28) 
F 18

>  <SCORE>  (28) 
-16.165

>  <name>  (28) 
27

>  <ligand_id>  (28) 
27

>  <original_smiles>  (28) 
[H]c1c([H])c([H])c2c(c1[H])C([H])([H])C([H])([H])C([H])([H])C2([H])N([H])C(=O)C1([H])N(C(=O)C([H])(N([H])C(=O)C([H])(N([H])C([H])([H])[H])C([H])([H])[H])C(C([H])([H])[H])(C([H])([H])[H])C([H])([H])[H])C([H])([H])c2c([H])c(OC([H])([H])C([H])([H])C([H])([H])N([H])C(=O)N3C([H])([H])C([H])([H])C([H])([H])C([H])(n4nc(-c5c([H])c([H])c(Oc6c([H])c([H])c(F)c([H])c6F)c([H])c5[H])c(C(=O)N([H])[H])c4N([H])[H])C3([H])[H])c([H])c([H])c2C1([H])[H]

>  <smiles>  (28) 
[H]c1c([H])c([H])c2c(c1[H])C([H])([H])C([H])([H])C([H])([H])C2([H])N([H])C(=O)C1([H])N(C(=O)C([H])(N([H])C(=O)C([H])(N([H])C([H])([H])[H])C([H])([H])[H])C(C([H])([H])[H])(C([H])([H])[H])C([H])([H])[H])C([H])([H])c2c([H])c(OC([H])([H])C([H])([H])C([H])([H])N([H])C(=O)N3C([H])([H])C([H])([H])C([H])([H])C([H])(n4nc(-c5c([H])c([H])c(Oc6c([H])c([H])c(F)c([H])c6F)c([H])c5[H])c(C(=O)N([H])[H])c4N([H])[H])C3([H])[H])c([H])c([H])c2C1([H])[H]

$$$$
28:0:0
     RDKit          3D

 87 96  0  0  1  0  0  0  0  0999 V2000
  -30.4700  -15.5300   20.2090 C   0  0  0  0  0  0  0  0  0  0  0  0
  -30.4630  -12.9850   19.5060 C   0  0  0  0  0  2  0  0  0  0  0  0
  -29.5690  -12.6090   18.2940 C   0  0  0  0  0  2  0  0  0  0  0  0
  -28.1290  -12.3340   18.7480 C   0  0  0  0  0  2  0  0  0  0  0  0
  -27.6460  -13.3850   19.7770 C   0  0  0  0  0  3  0  0  0  0  0  0
  -28.6770  -13.6890   20.8880 C   0  0  0  0  0  2  0  0  0  0  0  0
  -29.8850  -14.2060   20.2160 N   0  0  0  0  0  0  0  0  0  0  0  0
  -31.6880  -15.4300   19.9710 O   0  0  0  0  0  0  0  0  0  0  0  0
  -28.7810  -20.5640   21.7860 C   0  0  0  0  0  3  0  0  0  0  0  0
  -28.5890  -21.9340   21.2850 C   0  0  0  0  0  3  0  0  0  0  0  0
  -29.1930  -21.1350   19.1630 C   0  0  0  0  0  3  0  0  0  0  0  0
  -29.1820  -19.4190   21.0010 C   0  0  0  0  0  0  0  0  0  0  0  0
  -29.4170  -19.6910   19.6820 C   0  0  0  0  0  0  0  0  0  0  0  0
  -28.7550  -22.4060   19.9260 C   0  0  0  0  0  0  0  0  0  0  0  0
  -29.4080  -17.8430   21.3480 C   0  0  0  0  0  3  0  0  0  0  0  0
  -29.8780  -18.1690   19.1560 C   0  0  0  0  0  3  0  0  0  0  0  0
  -29.7880  -16.9040   20.1680 N   0  0  0  0  0  0  0  0  0  0  0  0
  -25.3020  -13.9890   20.5520 C   0  0  0  0  0  0  0  0  0  0  0  0
  -24.2230  -13.2390   20.9220 C   0  0  0  0  0  0  0  0  0  0  0  0
  -24.6560  -11.8770   20.8890 C   0  0  0  0  0  0  0  0  0  0  0  0
  -26.3200  -13.0900   20.3010 N   0  0  0  0  0  0  0  0  0  0  0  0
  -25.9460  -11.8110   20.5730 N   0  0  0  0  0  0  0  0  0  0  0  0
  -23.8960  -10.6340   21.0810 C   0  0  0  0  0  0  0  0  0  0  0  0
  -24.3190   -9.6400   21.9900 C   0  0  0  0  0  3  0  0  0  0  0  0
  -23.5570   -8.4650   22.1730 C   0  0  0  0  0  3  0  0  0  0  0  0
  -22.3580   -8.2770   21.4460 C   0  0  0  0  0  0  0  0  0  0  0  0
  -21.9530   -9.2580   20.5250 C   0  0  0  0  0  3  0  0  0  0  0  0
  -22.7150  -10.4240   20.3400 C   0  0  0  0  0  3  0  0  0  0  0  0
  -21.5670   -7.1570   21.5400 O   0  0  0  0  0  0  0  0  0  0  0  0
  -21.5430   -6.3850   22.6750 C   0  0  0  0  0  0  0  0  0  0  0  0
  -21.2050   -6.9230   23.9350 C   0  0  0  0  0  3  0  0  0  0  0  0
  -21.1250   -6.0800   25.0620 C   0  0  0  0  0  3  0  0  0  0  0  0
  -21.3740   -4.7010   24.9300 C   0  0  0  0  0  0  0  0  0  0  0  0
  -21.7050   -4.1630   23.6750 C   0  0  0  0  0  3  0  0  0  0  0  0
  -21.7860   -5.0010   22.5500 C   0  0  0  0  0  0  0  0  0  0  0  0
  -22.0850   -4.4740   21.3380 F   0  0  0  0  0  0  0  0  0  0  0  0
  -21.2890   -3.8900   26.0110 F   0  0  0  0  0  0  0  0  0  0  0  0
  -22.8400  -13.7520   21.1920 C   0  0  0  0  0  0  0  0  0  0  0  0
  -22.1000  -13.0850   22.0700 N   0  0  0  0  0  0  0  0  0  0  0  0
  -22.4270  -14.7820   20.6600 O   0  0  0  0  0  0  0  0  0  0  0  0
  -22.4490  -12.2530   22.5220 H   0  0  0  0  0  0  0  0  0  0  0  0
  -21.1710  -13.4130   22.2950 H   0  0  0  0  0  0  0  0  0  0  0  0
  -25.5010  -15.3560   20.3760 N   0  0  0  0  0  0  0  0  0  0  0  0
  -24.7540  -16.0320   20.4990 H   0  0  0  0  0  0  0  0  0  0  0  0
  -26.3650  -15.7750   20.0560 H   0  0  0  0  0  0  0  0  0  0  0  0
  -28.2030  -24.0490   19.3660 C   0  0  0  0  0  2  0  0  0  0  0  0
  -28.3310  -25.6970   19.7940 O   0  0  0  0  0  0  0  0  0  0  0  0
  -24.5700  -31.6000   22.9060 C   0  0  0  0  0  0  0  0  0  0  0  0
  -27.3150  -26.8370   19.7230 C   0  0  0  0  0  0  0  0  0  0  0  0
  -23.4360  -30.2090   21.2240 C   0  0  0  0  0  3  0  0  0  0  0  0
  -24.9500  -28.7010   19.7410 C   0  0  0  0  0  0  0  0  0  0  0  0
  -25.9990  -30.5000   21.0930 C   0  0  0  0  0  2  0  0  0  0  0  0
  -26.1250  -29.1060   20.3870 C   0  0  0  0  0  0  0  0  0  0  0  0
  -27.2920  -28.1960   20.3550 C   0  0  0  0  0  3  0  0  0  0  0  0
  -26.1060  -26.6240   19.0190 C   0  0  0  0  0  3  0  0  0  0  0  0
  -24.9730  -27.4860   19.0360 C   0  0  0  0  0  3  0  0  0  0  0  0
  -23.6950  -29.5790   19.8260 C   0  0  0  0  0  2  0  0  0  0  0  0
  -24.6900  -30.7990   21.7950 N   0  0  0  0  0  0  0  0  0  0  0  0
  -23.4680  -31.8300   23.4340 O   0  0  0  0  0  0  0  0  0  0  0  0
  -22.7790  -29.1600   22.1600 C   0  0  0  0  0  0  0  0  0  0  0  0
  -21.4480  -28.9750   22.0620 N   0  0  0  0  0  0  0  0  0  0  0  0
  -23.4740  -28.5120   22.9450 O   0  0  0  0  0  0  0  0  0  0  0  0
  -20.9360  -29.5520   21.4080 H   0  0  0  0  0  0  0  0  0  0  0  0
  -18.1000  -27.6860   22.6290 C   0  0  0  0  0  0  0  0  0  0  0  0
  -20.6660  -27.9830   22.8080 C   0  0  0  0  0  3  0  0  0  0  0  0
  -20.7640  -26.5880   22.1480 C   0  0  0  0  0  2  0  0  0  0  0  0
  -19.6290  -26.3060   21.1590 C   0  0  0  0  0  2  0  0  0  0  0  0
  -18.2720  -26.3850   21.8620 C   0  0  0  0  0  2  0  0  0  0  0  0
  -19.2230  -28.4440   23.0580 C   0  0  0  0  0  0  0  0  0  0  0  0
  -19.0050  -29.6600   23.7420 C   0  0  0  0  0  3  0  0  0  0  0  0
  -17.6980  -30.1210   23.9950 C   0  0  0  0  0  3  0  0  0  0  0  0
  -16.5920  -29.3600   23.5770 C   0  0  0  0  0  3  0  0  0  0  0  0
  -16.7940  -28.1440   22.9010 C   0  0  0  0  0  3  0  0  0  0  0  0
  -25.8090  -32.2820   23.5620 C   0  0  0  0  0  3  0  0  0  0  0  0
  -25.4160  -33.6390   23.9840 N   0  0  0  0  0  0  0  0  0  0  0  0
  -25.6800  -34.7640   23.3060 C   0  0  0  0  0  0  0  0  0  0  0  0
  -26.3400  -34.7710   22.2630 O   0  0  0  0  0  0  0  0  0  0  0  0
  -24.8260  -33.7020   24.8000 H   0  0  0  0  0  0  0  0  0  0  0  0
  -23.8440  -36.4800   23.1200 C   0  0  0  0  0  1  0  0  0  0  0  0
  -25.1290  -36.0910   23.8690 C   0  0  0  0  0  3  0  0  0  0  0  0
  -27.2320  -37.0470   24.7050 C   0  0  0  0  0  1  0  0  0  0  0  0
  -26.0960  -37.2090   23.8010 N   0  0  0  0  0  0  0  0  0  0  0  0
  -25.6420  -38.0920   24.0180 H   0  0  0  0  0  0  0  0  0  0  0  0
  -26.3750  -31.4770   24.7980 C   0  0  1  0  0  0  0  0  0  0  0  0
  -25.3060  -31.1390   25.8650 C   0  0  0  0  0  1  0  0  0  0  0  0
  -27.0190  -30.1470   24.3490 C   0  0  0  0  0  1  0  0  0  0  0  0
  -27.4940  -32.2940   25.4870 C   0  0  0  0  0  1  0  0  0  0  0  0
  1  7  1  0
  2  7  1  0
  3  4  1  0
  3  2  1  0
  5  4  1  0
  5 21  1  0
  5  6  1  0
  7  6  1  0
  8  1  2  0
 10  9  2  0
 11 13  1  0
 11 14  2  0
 12 15  2  0
 12  9  1  0
 13 12  1  0
 14 10  1  0
 16 13  2  0
 16 17  1  0
 17  1  1  0
 17 15  1  0
 18 19  2  0
 19 38  1  0
 20 19  1  0
 20 23  1  0
 21 18  1  0
 21 22  1  0
 22 20  2  0
 23 24  1  0
 24 25  2  0
 26 29  1  0
 26 25  1  0
 27 26  2  0
 28 27  1  0
 28 23  2  0
 29 30  1  0
 30 31  1  0
 31 32  2  0
 33 32  1  0
 33 37  1  0
 34 33  2  0
 35 30  2  0
 35 34  1  0
 36 35  1  0
 38 39  1  0
 39 42  1  0
 39 41  1  0
 40 38  2  0
 43 44  1  0
 43 18  1  0
 45 43  1  0
 46 47  1  0
 46 14  1  0
 48 59  2  0
 49 47  1  0
 49 54  1  0
 50 58  1  0
 50 60  1  0
 51 57  1  0
 51 53  1  0
 52 58  1  0
 53 52  1  0
 54 53  2  0
 55 56  1  0
 55 49  2  0
 56 51  2  0
 57 50  1  0
 58 48  1  0
 60 62  2  0
 61 60  1  0
 63 61  1  0
 64 73  2  0
 64 69  1  0
 65 61  1  0
 65 69  1  0
 66 65  1  0
 67 68  1  0
 67 66  1  0
 68 64  1  0
 69 70  2  0
 70 71  1  0
 72 71  2  0
 73 72  1  0
 74 48  1  0
 74 75  1  0
 74 84  1  0
 75 78  1  0
 76 80  1  0
 76 75  1  0
 77 76  2  0
 80 79  1  0
 82 80  1  0
 82 83  1  0
 82 81  1  0
 84 87  1  1
 84 85  1  0
 86 84  1  0
M  ISO  4   1 100  17 100  46 101  47 101
M  END
>  <TORSDO>  (29) 
F 16

>  <SCORE>  (29) 
-14.845

>  <name>  (29) 
28

>  <ligand_id>  (29) 
28

>  <original_smiles>  (29) 
[H]c1c([H])c([H])c2c(c1[H])C([H])([H])C([H])([H])C([H])([H])C2([H])N([H])C(=O)C1([H])N(C(=O)C([H])(N([H])C(=O)C([H])(N([H])C([H])([H])[H])C([H])([H])[H])C(C([H])([H])[H])(C([H])([H])[H])C([H])([H])[H])C([H])([H])c2c([H])c(OC([H])([H])c3c([H])c([H])c4c(c3[H])C([H])([H])N(C(=O)N3C([H])([H])C([H])([H])C([H])([H])C([H])(n5nc(-c6c([H])c([H])c(Oc7c([H])c([H])c(F)c([H])c7F)c([H])c6[H])c(C(=O)N([H])[H])c5N([H])[H])C3([H])[H])C4([H])[H])c([H])c([H])c2C1([H])[H]

>  <smiles>  (29) 
[H]c1c([H])c([H])c2c(c1[H])C([H])([H])C([H])([H])C([H])([H])C2([H])N([H])C(=O)C1([H])N(C(=O)C([H])(N([H])C(=O)C([H])(N([H])C([H])([H])[H])C([H])([H])[H])C(C([H])([H])[H])(C([H])([H])[H])C([H])([H])[H])C([H])([H])c2c([H])c(OC([H])([H])c3c([H])c([H])c4c(c3[H])C([H])([H])N(C(=O)N3C([H])([H])C([H])([H])C([H])([H])C([H])(n5nc(-c6c([H])c([H])c(Oc7c([H])c([H])c(F)c([H])c7F)c([H])c6[H])c(C(=O)N([H])[H])c5N([H])[H])C3([H])[H])C4([H])[H])c([H])c([H])c2C1([H])[H]

$$$$
29:0:0
     RDKit          3D

 89 98  0  0  1  0  0  0  0  0999 V2000
  -30.5080  -15.2220   20.3580 C   0  0  0  0  0  0  0  0  0  0  0  0
  -30.4790  -12.8010   19.5000 C   0  0  0  0  0  2  0  0  0  0  0  0
  -29.5610  -12.5820   18.2670 C   0  0  0  0  0  2  0  0  0  0  0  0
  -28.0790  -12.4280   18.6750 C   0  0  0  0  0  2  0  0  0  0  0  0
  -27.6380  -13.3590   19.8360 C   0  0  0  0  0  3  0  0  0  0  0  0
  -28.6940  -13.4660   20.9560 C   0  0  0  0  0  2  0  0  0  0  0  0
  -29.9430  -13.9270   20.3270 N   0  0  0  0  0  0  0  0  0  0  0  0
  -31.7450  -15.2520   20.3070 O   0  0  0  0  0  0  0  0  0  0  0  0
  -29.5710  -19.6560   18.1050 C   0  0  0  0  0  3  0  0  0  0  0  0
  -29.3970  -20.7630   18.9540 C   0  0  0  0  0  3  0  0  0  0  0  0
  -29.6130  -19.2050   20.8450 C   0  0  0  0  0  3  0  0  0  0  0  0
  -29.7300  -18.3520   18.6140 C   0  0  0  0  0  0  0  0  0  0  0  0
  -29.7940  -17.9880   19.9720 C   0  0  0  0  0  0  0  0  0  0  0  0
  -29.3930  -20.6280   20.3520 C   0  0  0  0  0  0  0  0  0  0  0  0
  -29.6200  -17.1650   17.7350 C   0  0  0  0  0  2  0  0  0  0  0  0
  -29.0630  -16.1530   18.7210 C   0  0  0  0  0  2  0  0  0  0  0  0
  -29.6980  -16.4060   20.0370 N   0  0  0  0  0  0  0  0  0  0  0  0
  -25.2600  -13.9510   20.5550 C   0  0  0  0  0  0  0  0  0  0  0  0
  -24.1860  -13.1760   20.8960 C   0  0  0  0  0  0  0  0  0  0  0  0
  -24.6510  -11.8260   20.8670 C   0  0  0  0  0  0  0  0  0  0  0  0
  -26.3040  -13.0670   20.3300 N   0  0  0  0  0  0  0  0  0  0  0  0
  -25.9470  -11.7850   20.5880 N   0  0  0  0  0  0  0  0  0  0  0  0
  -23.9260  -10.5630   21.0320 C   0  0  0  0  0  0  0  0  0  0  0  0
  -24.3540   -9.5830   21.9530 C   0  0  0  0  0  3  0  0  0  0  0  0
  -23.6270   -8.3830   22.1080 C   0  0  0  0  0  3  0  0  0  0  0  0
  -22.4600   -8.1570   21.3410 C   0  0  0  0  0  0  0  0  0  0  0  0
  -22.0530   -9.1260   20.4080 C   0  0  0  0  0  3  0  0  0  0  0  0
  -22.7800  -10.3170   20.2500 C   0  0  0  0  0  3  0  0  0  0  0  0
  -21.7050   -7.0110   21.4080 O   0  0  0  0  0  0  0  0  0  0  0  0
  -21.6560   -6.2490   22.5470 C   0  0  0  0  0  0  0  0  0  0  0  0
  -21.2280   -6.7810   23.7820 C   0  0  0  0  0  3  0  0  0  0  0  0
  -21.1270   -5.9450   24.9120 C   0  0  0  0  0  3  0  0  0  0  0  0
  -21.4420   -4.5770   24.8060 C   0  0  0  0  0  0  0  0  0  0  0  0
  -21.8620   -4.0440   23.5750 C   0  0  0  0  0  3  0  0  0  0  0  0
  -21.9670   -4.8770   22.4480 C   0  0  0  0  0  0  0  0  0  0  0  0
  -22.3520   -4.3540   21.2580 F   0  0  0  0  0  0  0  0  0  0  0  0
  -21.3360   -3.7710   25.8880 F   0  0  0  0  0  0  0  0  0  0  0  0
  -22.7850  -13.6530   21.1380 C   0  0  0  0  0  0  0  0  0  0  0  0
  -22.0390  -12.9520   21.9850 N   0  0  0  0  0  0  0  0  0  0  0  0
  -22.3590  -14.6810   20.6120 O   0  0  0  0  0  0  0  0  0  0  0  0
  -22.3970  -12.1210   22.4310 H   0  0  0  0  0  0  0  0  0  0  0  0
  -21.0970  -13.2520   22.1910 H   0  0  0  0  0  0  0  0  0  0  0  0
  -25.4280  -15.3230   20.3900 N   0  0  0  0  0  0  0  0  0  0  0  0
  -24.6630  -15.9790   20.5030 H   0  0  0  0  0  0  0  0  0  0  0  0
  -26.2980  -15.7690   20.1300 H   0  0  0  0  0  0  0  0  0  0  0  0
  -29.2650  -21.9040   21.0860 O   0  0  0  0  0  0  0  0  0  0  0  0
  -28.3650  -23.1690   20.7930 C   0  0  0  0  0  2  0  0  0  0  0  0
  -28.6440  -24.7500   20.1700 C   0  0  0  0  0  2  0  0  0  0  0  0
  -28.4330  -26.2280   20.6940 O   0  0  0  0  0  0  0  0  0  0  0  0
  -24.6550  -31.9950   23.2980 C   0  0  0  0  0  0  0  0  0  0  0  0
  -27.3530  -27.1790   20.4910 C   0  0  0  0  0  0  0  0  0  0  0  0
  -23.5070  -30.5360   21.6750 C   0  0  0  0  0  3  0  0  0  0  0  0
  -25.0040  -28.9180   20.3330 C   0  0  0  0  0  0  0  0  0  0  0  0
  -26.0610  -30.8090   21.5660 C   0  0  0  0  0  2  0  0  0  0  0  0
  -26.1600  -29.3930   20.9620 C   0  0  0  0  0  0  0  0  0  0  0  0
  -27.3260  -28.5370   21.0240 C   0  0  0  0  0  3  0  0  0  0  0  0
  -26.1720  -26.8080   19.8110 C   0  0  0  0  0  3  0  0  0  0  0  0
  -25.0260  -27.6400   19.7410 C   0  0  0  0  0  3  0  0  0  0  0  0
  -23.7670  -29.8090   20.3250 C   0  0  0  0  0  2  0  0  0  0  0  0
  -24.7600  -31.1390   22.2340 N   0  0  0  0  0  0  0  0  0  0  0  0
  -23.5550  -32.2890   23.7910 O   0  0  0  0  0  0  0  0  0  0  0  0
  -22.8090  -29.5620   22.6560 C   0  0  0  0  0  0  0  0  0  0  0  0
  -21.4830  -29.3840   22.5080 N   0  0  0  0  0  0  0  0  0  0  0  0
  -23.4640  -28.9660   23.5150 O   0  0  0  0  0  0  0  0  0  0  0  0
  -21.0110  -29.9150   21.7900 H   0  0  0  0  0  0  0  0  0  0  0  0
  -18.0930  -28.2040   22.9970 C   0  0  0  0  0  0  0  0  0  0  0  0
  -20.6490  -28.4670   23.2900 C   0  0  0  0  0  3  0  0  0  0  0  0
  -20.7540  -27.0210   22.7490 C   0  0  0  0  0  2  0  0  0  0  0  0
  -19.6630  -26.6790   21.7280 C   0  0  0  0  0  2  0  0  0  0  0  0
  -18.2740  -26.8410   22.3510 C   0  0  0  0  0  2  0  0  0  0  0  0
  -19.2070  -28.9730   23.4230 C   0  0  0  0  0  0  0  0  0  0  0  0
  -18.9830  -30.2480   23.9890 C   0  0  0  0  0  3  0  0  0  0  0  0
  -17.6770  -30.7530   24.1320 C   0  0  0  0  0  3  0  0  0  0  0  0
  -16.5760  -29.9800   23.7210 C   0  0  0  0  0  3  0  0  0  0  0  0
  -16.7850  -28.7080   23.1600 C   0  0  0  0  0  3  0  0  0  0  0  0
  -25.9130  -32.6620   23.9370 C   0  0  0  0  0  3  0  0  0  0  0  0
  -25.5760  -34.0640   24.2380 N   0  0  0  0  0  0  0  0  0  0  0  0
  -25.9130  -35.1130   23.4750 C   0  0  0  0  0  0  0  0  0  0  0  0
  -26.6040  -35.0030   22.4590 O   0  0  0  0  0  0  0  0  0  0  0  0
  -24.9620  -34.2210   25.0240 H   0  0  0  0  0  0  0  0  0  0  0  0
  -24.1710  -36.8840   23.0720 C   0  0  0  0  0  1  0  0  0  0  0  0
  -25.4030  -36.5030   23.9060 C   0  0  0  0  0  3  0  0  0  0  0  0
  -27.5130  -37.4270   24.7580 C   0  0  0  0  0  1  0  0  0  0  0  0
  -26.4260  -37.5660   23.7940 N   0  0  0  0  0  0  0  0  0  0  0  0
  -26.0060  -38.4830   23.9190 H   0  0  0  0  0  0  0  0  0  0  0  0
  -26.4090  -31.9270   25.2440 C   0  0  1  0  0  0  0  0  0  0  0  0
  -25.2890  -31.6780   26.2810 C   0  0  0  0  0  1  0  0  0  0  0  0
  -27.0430  -30.5610   24.9010 C   0  0  0  0  0  1  0  0  0  0  0  0
  -27.5140  -32.7650   25.9290 C   0  0  0  0  0  1  0  0  0  0  0  0
  2  7  1  0
  3  4  1  0
  3  2  1  0
  5  4  1  0
  5 21  1  0
  5  6  1  0
  7  1  1  0
  7  6  1  0
  8  1  2  0
  9 12  2  0
  9 10  1  0
 10 14  2  0
 12 13  1  0
 13 17  1  0
 13 11  2  0
 14 11  1  0
 14 46  1  0
 15 12  1  0
 15 16  1  0
 16 17  1  0
 17  1  1  0
 18 19  2  0
 19 38  1  0
 20 19  1  0
 20 23  1  0
 21 18  1  0
 21 22  1  0
 22 20  2  0
 23 24  1  0
 24 25  2  0
 26 29  1  0
 26 25  1  0
 27 26  2  0
 28 27  1  0
 28 23  2  0
 29 30  1  0
 30 31  1  0
 31 32  2  0
 33 32  1  0
 33 37  1  0
 34 33  2  0
 35 30  2  0
 35 34  1  0
 36 35  1  0
 38 39  1  0
 39 42  1  0
 39 41  1  0
 40 38  2  0
 43 44  1  0
 43 18  1  0
 45 43  1  0
 47 46  1  0
 48 49  1  0
 48 47  1  0
 50 61  2  0
 51 49  1  0
 51 56  1  0
 52 60  1  0
 52 62  1  0
 53 55  1  0
 54 60  1  0
 55 56  2  0
 55 54  1  0
 57 51  2  0
 58 57  1  0
 58 53  2  0
 59 53  1  0
 59 52  1  0
 60 50  1  0
 62 64  2  0
 63 62  1  0
 65 63  1  0
 66 75  2  0
 66 71  1  0
 67 63  1  0
 67 71  1  0
 68 67  1  0
 69 70  1  0
 69 68  1  0
 70 66  1  0
 71 72  2  0
 72 73  1  0
 74 73  2  0
 75 74  1  0
 76 50  1  0
 76 77  1  0
 76 86  1  0
 77 80  1  0
 78 82  1  0
 78 77  1  0
 79 78  2  0
 82 81  1  0
 84 82  1  0
 84 85  1  0
 84 83  1  0
 86 89  1  1
 86 87  1  0
 88 86  1  0
M  ISO  4   1 100  17 100  48 101  49 101
M  END
>  <TORSDO>  (30) 
F 18

>  <SCORE>  (30) 
-14.495

>  <name>  (30) 
29

>  <ligand_id>  (30) 
29

>  <original_smiles>  (30) 
[H]c1c([H])c([H])c2c(c1[H])C([H])([H])C([H])([H])C([H])([H])C2([H])N([H])C(=O)C1([H])N(C(=O)C([H])(N([H])C(=O)C([H])(N([H])C([H])([H])[H])C([H])([H])[H])C(C([H])([H])[H])(C([H])([H])[H])C([H])([H])[H])C([H])([H])c2c([H])c(OC([H])([H])C([H])([H])Oc3c([H])c([H])c4c(c3[H])N(C(=O)N3C([H])([H])C([H])([H])C([H])([H])C([H])(n5nc(-c6c([H])c([H])c(Oc7c([H])c([H])c(F)c([H])c7F)c([H])c6[H])c(C(=O)N([H])[H])c5N([H])[H])C3([H])[H])C([H])([H])C4([H])[H])c([H])c([H])c2C1([H])[H]

>  <smiles>  (30) 
[H]c1c([H])c([H])c2c(c1[H])C([H])([H])C([H])([H])C([H])([H])C2([H])N([H])C(=O)C1([H])N(C(=O)C([H])(N([H])C(=O)C([H])(N([H])C([H])([H])[H])C([H])([H])[H])C(C([H])([H])[H])(C([H])([H])[H])C([H])([H])[H])C([H])([H])c2c([H])c(OC([H])([H])C([H])([H])Oc3c([H])c([H])c4c(c3[H])N(C(=O)N3C([H])([H])C([H])([H])C([H])([H])C([H])(n5nc(-c6c([H])c([H])c(Oc7c([H])c([H])c(F)c([H])c7F)c([H])c6[H])c(C(=O)N([H])[H])c5N([H])[H])C3([H])[H])C([H])([H])C4([H])[H])c([H])c([H])c2C1([H])[H]

$$$$
30:0:0
     RDKit          3D

101107  0  0  1  0  0  0  0  0999 V2000
  -20.3720  -23.4840   21.8690 C   0  0  0  0  0  3  0  0  0  0  0  0
  -20.7290  -24.8480   21.8640 C   0  0  0  0  0  3  0  0  0  0  0  0
  -20.8680  -22.6320   20.8650 C   0  0  0  0  0  3  0  0  0  0  0  0
  -21.5800  -25.3660   20.8640 C   0  0  0  0  0  3  0  0  0  0  0  0
  -21.6950  -23.1790   19.8680 C   0  0  0  0  0  0  0  0  0  0  0  0
  -22.0440  -24.5340   19.8060 C   0  0  0  0  0  0  0  0  0  0  0  0
  -23.1040  -26.4010   18.4340 C   0  0  0  0  0  2  0  0  0  0  0  0
  -22.4350  -22.3600   18.8860 C   0  0  0  0  0  2  0  0  0  0  0  0
  -23.6830  -23.2070   18.6300 C   0  0  0  0  0  3  0  0  0  0  0  0
  -23.0080  -24.8490   18.7520 N   0  0  0  0  0  0  0  0  0  0  0  0
  -22.0410  -26.9840   18.7160 O   0  0  0  0  0  1  0  0  0  0  0  0
  -24.7930  -21.9720   17.9190 C   0  0  0  0  0  0  0  0  0  0  0  0
  -25.7640  -21.0310   18.6220 N   0  0  0  0  0  0  0  0  0  0  0  0
  -24.7180  -21.8570   16.6940 O   0  0  0  0  0  0  0  0  0  0  0  0
  -25.6940  -21.2860   19.6020 H   0  0  0  0  0  0  0  0  0  0  0  0
  -28.0940  -19.6780   19.3560 C   0  0  0  0  0  3  0  0  0  0  0  0
  -26.9940  -18.5130   17.7640 C   0  0  0  0  0  3  0  0  0  0  0  0
  -29.1390  -18.6000   19.4550 C   0  0  0  0  0  3  0  0  0  0  0  0
  -28.0400  -17.4120   17.8830 C   0  0  0  0  0  3  0  0  0  0  0  0
  -26.8780  -19.7800   18.5230 C   0  0  0  0  0  0  0  0  0  0  0  0
  -29.2580  -17.3280   18.7410 C   0  0  0  0  0  0  0  0  0  0  0  0
  -31.6230  -15.4110   19.2990 C   0  0  0  0  0  0  0  0  0  0  0  0
  -32.5380  -12.9570   19.5920 C   0  0  0  0  0  2  0  0  0  0  0  0
  -31.6840  -11.9770   18.7420 C   0  0  0  0  0  2  0  0  0  0  0  0
  -30.2830  -11.7340   19.3510 C   0  0  0  0  0  2  0  0  0  0  0  0
  -29.6920  -13.0400   19.9260 C   0  0  0  0  0  3  0  0  0  0  0  0
  -30.6700  -13.7610   20.8520 C   0  0  0  0  0  2  0  0  0  0  0  0
  -31.7060  -14.1670   19.9480 N   0  0  0  0  0  0  0  0  0  0  0  0
  -32.7410  -15.7250   18.8160 O   0  0  0  0  0  0  0  0  0  0  0  0
  -30.2430  -16.0520   19.1680 N   0  0  0  0  0  0  0  0  0  0  0  0
  -29.6750  -15.4000   19.7050 H   0  0  0  0  0  0  0  0  0  0  0  0
  -27.7240  -13.8590   21.2920 C   0  0  0  0  0  0  0  0  0  0  0  0
  -26.5700  -13.2420   21.6650 C   0  0  0  0  0  0  0  0  0  0  0  0
  -26.6670  -11.8980   21.1880 C   0  0  0  0  0  0  0  0  0  0  0  0
  -28.4320  -12.9030   20.5880 N   0  0  0  0  0  0  0  0  0  0  0  0
  -27.8310  -11.6940   20.5960 N   0  0  0  0  0  0  0  0  0  0  0  0
  -25.6910  -10.8140   21.1950 C   0  0  0  0  0  0  0  0  0  0  0  0
  -25.7710   -9.7560   22.1270 C   0  0  0  0  0  3  0  0  0  0  0  0
  -24.8050   -8.7290   22.1160 C   0  0  0  0  0  3  0  0  0  0  0  0
  -23.7490   -8.7620   21.1720 C   0  0  0  0  0  0  0  0  0  0  0  0
  -23.6930   -9.8050   20.2320 C   0  0  0  0  0  3  0  0  0  0  0  0
  -24.6580  -10.8230   20.2410 C   0  0  0  0  0  3  0  0  0  0  0  0
  -22.7780   -7.7970   21.0730 O   0  0  0  0  0  0  0  0  0  0  0  0
  -22.0200   -7.4290   22.1540 C   0  0  0  0  0  0  0  0  0  0  0  0
  -21.2770   -8.3710   22.9010 C   0  0  0  0  0  3  0  0  0  0  0  0
  -20.4620   -7.9370   23.9640 C   0  0  0  0  0  3  0  0  0  0  0  0
  -20.3770   -6.5660   24.2750 C   0  0  0  0  0  0  0  0  0  0  0  0
  -21.1110   -5.6280   23.5280 C   0  0  0  0  0  3  0  0  0  0  0  0
  -21.9290   -6.0590   22.4700 C   0  0  0  0  0  0  0  0  0  0  0  0
  -22.6200   -5.1510   21.7400 F   0  0  0  0  0  0  0  0  0  0  0  0
  -19.5840   -6.1490   25.2880 F   0  0  0  0  0  0  0  0  0  0  0  0
  -25.4060  -13.8900   22.3450 C   0  0  0  0  0  0  0  0  0  0  0  0
  -24.7270  -13.1560   23.2180 N   0  0  0  0  0  0  0  0  0  0  0  0
  -25.1230  -15.0710   22.1380 O   0  0  0  0  0  0  0  0  0  0  0  0
  -24.9800  -12.1960   23.4020 H   0  0  0  0  0  0  0  0  0  0  0  0
  -23.9460  -13.5580   23.7170 H   0  0  0  0  0  0  0  0  0  0  0  0
  -28.2010  -15.1540   21.4880 N   0  0  0  0  0  0  0  0  0  0  0  0
  -27.5960  -15.8130   21.9660 H   0  0  0  0  0  0  0  0  0  0  0  0
  -29.0980  -15.5620   21.2660 H   0  0  0  0  0  0  0  0  0  0  0  0
  -25.4540  -27.4560   17.1880 C   0  0  0  0  0  1  0  0  0  0  0  0
  -26.6790  -26.1980   16.0700 O   0  0  0  0  0  1  0  0  0  0  0  0
  -31.3970  -26.8120   18.8080 C   0  0  0  0  0  0  0  0  0  0  0  0
  -27.4970  -24.8920   15.7190 C   0  0  0  0  0  3  0  0  0  0  0  0
  -29.5920  -27.6930   17.4220 C   0  0  0  0  0  3  0  0  0  0  0  0
  -29.1770  -26.5790   15.0720 C   0  0  0  0  0  3  0  0  0  0  0  0
  -31.0250  -25.7970   16.5590 C   0  0  0  0  0  2  0  0  0  0  0  0
  -29.7950  -25.5290   15.7340 C   0  0  0  0  0  3  0  0  0  0  0  0
  -28.8820  -24.5060   15.9970 C   0  0  0  0  0  2  0  0  0  0  0  0
  -27.5000  -24.9870   14.3250 C   0  0  0  0  0  2  0  0  0  0  0  0
  -28.1420  -26.2350   14.1390 C   0  0  0  0  0  2  0  0  0  0  0  0
  -29.1990  -27.8590   15.8860 C   0  0  0  0  0  2  0  0  0  0  0  0
  -30.7540  -26.7960   17.6110 N   0  0  0  0  0  0  0  0  0  0  0  0
  -31.1160  -27.6480   19.6810 O   0  0  0  0  0  0  0  0  0  0  0  0
  -28.5250  -27.1130   18.3890 C   0  0  0  0  0  0  0  0  0  0  0  0
  -28.3980  -27.5820   19.5900 N   0  0  0  0  0  0  0  0  0  0  0  0
  -27.8240  -26.1510   18.1260 O   0  0  0  0  0  0  0  0  0  0  0  0
  -29.0400  -28.2830   19.9310 H   0  0  0  0  0  0  0  0  0  0  0  0
  -27.2500  -29.9890   21.8750 C   0  0  0  0  0  0  0  0  0  0  0  0
  -27.0770  -27.5090   20.2340 C   0  0  0  0  0  2  0  0  0  0  0  0
  -25.3010  -27.8250   18.9620 C   0  0  0  0  0  1  0  0  0  0  0  0
  -24.6730  -30.1740   19.4230 C   0  0  0  0  0 15  0  0  0  0  0  0
  -25.9380  -30.8900   20.9650 C   0  0  0  0  0  1  0  0  0  0  0  0
  -27.7360  -28.5960   21.4990 C   0  0  0  0  0  0  0  0  0  0  0  0
  -28.8920  -28.1020   22.2560 C   0  0  0  0  0  3  0  0  0  0  0  0
  -29.4980  -28.6950   23.3990 C   0  0  0  0  0  3  0  0  0  0  0  0
  -28.9040  -29.8490   23.9160 C   0  0  0  0  0  3  0  0  0  0  0  0
  -27.8170  -30.4440   23.1740 C   0  0  0  0  0  3  0  0  0  0  0  0
  -32.5210  -25.7920   19.1160 C   0  0  0  0  0  3  0  0  0  0  0  0
  -32.0050  -24.4690   19.8000 C   0  0  1  0  0  0  0  0  0  0  0  0
  -31.0770  -24.7070   21.0130 C   0  0  0  0  0  1  0  0  0  0  0  0
  -31.2380  -23.5790   18.7970 C   0  0  0  0  0  1  0  0  0  0  0  0
  -33.2210  -23.6380   20.2700 C   0  0  0  0  0  1  0  0  0  0  0  0
  -33.4630  -26.4970   19.9900 N   0  0  0  0  0  0  0  0  0  0  0  0
  -34.4260  -27.3110   19.5450 C   0  0  0  0  0  0  0  0  0  0  0  0
  -34.6740  -27.4650   18.3460 O   0  0  0  0  0  0  0  0  0  0  0  0
  -33.2770  -26.4620   20.9830 H   0  0  0  0  0  0  0  0  0  0  0  0
  -34.6930  -29.4870   20.7780 C   0  0  0  0  0  1  0  0  0  0  0  0
  -35.2530  -28.0670   20.6010 C   0  0  0  0  0  3  0  0  0  0  0  0
  -37.3580  -26.8320   20.3470 C   0  0  0  0  0  1  0  0  0  0  0  0
  -36.6940  -28.1310   20.2730 N   0  0  0  0  0  0  0  0  0  0  0  0
  -37.1780  -28.7700   20.8990 H   0  0  0  0  0  0  0  0  0  0  0  0
  2  1  1  0
  3  1  2  0
  4  2  2  0
  5  3  1  0
  6  5  2  0
  6  4  1  0
  7 11  1  0
  7 10  1  0
  8  5  1  0
  9 12  1  0
  9 10  1  0
  9  8  1  0
 10  6  1  0
 12 13  1  0
 13 15  1  0
 14 12  2  0
 16 18  1  0
 17 19  2  0
 17 20  1  0
 19 21  1  0
 20 13  1  0
 20 16  2  0
 21 30  1  0
 21 18  2  0
 22 28  1  0
 23 28  1  0
 24 25  1  0
 24 23  1  0
 26 25  1  0
 26 35  1  0
 26 27  1  0
 28 27  1  0
 29 22  2  0
 30 22  1  0
 30 31  1  0
 32 57  1  0
 32 33  2  0
 33 52  1  0
 34 37  1  0
 34 33  1  0
 35 36  1  0
 35 32  1  0
 36 34  2  0
 37 38  1  0
 39 38  2  0
 40 39  1  0
 41 42  1  0
 41 40  2  0
 42 37  2  0
 43 40  1  0
 43 44  1  0
 44 49  2  0
 44 45  1  0
 45 46  2  0
 46 47  1  0
 47 51  1  0
 48 47  2  0
 49 48  1  0
 50 49  1  0
 52 53  1  0
 53 55  1  0
 53 56  1  0
 54 52  2  0
 57 58  1  0
 59 57  1  0
 60 80  1  0
 62 73  2  0
 63 68  1  0
 63 61  1  0
 64 72  1  0
 64 74  1  0
 65 70  1  0
 65 67  1  0
 65 71  1  0
 66 72  1  0
 67 68  1  0
 67 66  1  0
 69 63  1  0
 70 69  1  0
 71 64  1  0
 72 62  1  0
 74 75  1  0
 75 77  1  0
 75 79  1  0
 76 74  2  0
 78 87  1  0
 79 83  1  0
 82 78  1  0
 83 78  2  0
 83 84  1  0
 84 85  2  0
 85 86  1  0
 87 86  2  0
 88 62  1  0
 88 89  1  0
 88 93  1  0
 89 92  1  1
 89 90  1  0
 91 89  1  0
 93 96  1  0
 94 93  1  0
 94 98  1  0
 95 94  2  0
 98 97  1  0
100 99  1  0
100 98  1  0
100101  1  0
M  ISO  4  22 100  30 100  60 101  61 101
M  END
>  <TORSDO>  (31) 
F 19

>  <SCORE>  (31) 
-0.419

>  <name>  (31) 
30

>  <ligand_id>  (31) 
30

>  <original_smiles>  (31) 
[H]c1c([H])c([H])c2c(c1[H])N(C(=O)C([H])([H])Oc1c([H])c([H])c3c(c1[H])C([H])([H])N(C(=O)C([H])(N([H])C(=O)C([H])(N([H])C([H])([H])[H])C([H])([H])[H])C(C([H])([H])[H])(C([H])([H])[H])C([H])([H])[H])C([H])(C(=O)N([H])C1([H])c4c([H])c([H])c([H])c([H])c4C([H])([H])C([H])([H])C1([H])[H])C3([H])[H])C([H])(C(=O)N([H])c1c([H])c([H])c(N([H])C(=O)N3C([H])([H])C([H])([H])C([H])([H])C([H])(n4nc(-c5c([H])c([H])c(Oc6c([H])c([H])c(F)c([H])c6F)c([H])c5[H])c(C(=O)N([H])[H])c4N([H])[H])C3([H])[H])c([H])c1[H])C2([H])[H]

>  <smiles>  (31) 
[H]c1c([H])c([H])c2c(c1[H])N(C(=O)C([H])([H])Oc1c([H])c([H])c3c(c1[H])C([H])([H])N(C(=O)C([H])(N([H])C(=O)C([H])(N([H])C([H])([H])[H])C([H])([H])[H])C(C([H])([H])[H])(C([H])([H])[H])C([H])([H])[H])C([H])(C(=O)N([H])C1([H])c4c([H])c([H])c([H])c([H])c4C([H])([H])C([H])([H])C1([H])[H])C3([H])[H])C([H])(C(=O)N([H])c1c([H])c([H])c(N([H])C(=O)N3C([H])([H])C([H])([H])C([H])([H])C([H])(n4nc(-c5c([H])c([H])c(Oc6c([H])c([H])c(F)c([H])c6F)c([H])c5[H])c(C(=O)N([H])[H])c4N([H])[H])C3([H])[H])c([H])c1[H])C2([H])[H]

$$$$
31:0:0
     RDKit          3D

 88 96  0  0  1  0  0  0  0  0999 V2000
  -28.2700  -18.1960   20.5690 C   0  0  0  0  0  3  0  0  0  0  0  0
  -30.5440  -18.6580   20.1620 C   0  0  0  0  0  3  0  0  0  0  0  0
  -27.9690  -19.6050   20.5110 C   0  0  0  0  0  3  0  0  0  0  0  0
  -30.2360  -20.0970   20.1140 C   0  0  0  0  0  3  0  0  0  0  0  0
  -29.5660  -17.6210   20.3920 C   0  0  0  0  0  0  0  0  0  0  0  0
  -28.9130  -20.6520   20.2830 C   0  0  0  0  0  0  0  0  0  0  0  0
  -30.5640  -15.0240   20.2100 C   0  0  0  0  0  0  0  0  0  0  0  0
  -30.4770  -12.6790   19.2500 C   0  0  0  0  0  2  0  0  0  0  0  0
  -29.4990  -12.6500   18.0480 C   0  0  0  0  0  2  0  0  0  0  0  0
  -28.0470  -12.4370   18.5210 C   0  0  0  0  0  2  0  0  0  0  0  0
  -27.6750  -13.3480   19.7200 C   0  0  0  0  0  3  0  0  0  0  0  0
  -28.7640  -13.3150   20.8150 C   0  0  0  0  0  2  0  0  0  0  0  0
  -30.0230  -13.7410   20.1870 N   0  0  0  0  0  0  0  0  0  0  0  0
  -31.7370  -15.1720   19.8490 O   0  0  0  0  0  0  0  0  0  0  0  0
  -29.6830  -16.0950   20.4860 N   0  0  0  0  0  0  0  0  0  0  0  0
  -28.8050  -15.6890   20.7700 H   0  0  0  0  0  0  0  0  0  0  0  0
  -25.3170  -13.9250   20.5440 C   0  0  0  0  0  0  0  0  0  0  0  0
  -24.2620  -13.1460   20.9340 C   0  0  0  0  0  0  0  0  0  0  0  0
  -24.7190  -11.7940   20.8530 C   0  0  0  0  0  0  0  0  0  0  0  0
  -26.3480  -13.0470   20.2490 N   0  0  0  0  0  0  0  0  0  0  0  0
  -25.9980  -11.7600   20.4990 N   0  0  0  0  0  0  0  0  0  0  0  0
  -23.9930  -10.5300   21.0340 C   0  0  0  0  0  0  0  0  0  0  0  0
  -24.4280   -9.5560   21.9590 C   0  0  0  0  0  3  0  0  0  0  0  0
  -23.7020   -8.3560   22.1280 C   0  0  0  0  0  3  0  0  0  0  0  0
  -22.5270   -8.1240   21.3750 C   0  0  0  0  0  0  0  0  0  0  0  0
  -22.1100   -9.0890   20.4410 C   0  0  0  0  0  3  0  0  0  0  0  0
  -22.8370  -10.2790   20.2680 C   0  0  0  0  0  3  0  0  0  0  0  0
  -21.7730   -6.9790   21.4560 O   0  0  0  0  0  0  0  0  0  0  0  0
  -21.6880   -6.2530   22.6170 C   0  0  0  0  0  0  0  0  0  0  0  0
  -21.1540   -6.8030   23.8030 C   0  0  0  0  0  3  0  0  0  0  0  0
  -21.0220   -6.0010   24.9530 C   0  0  0  0  0  3  0  0  0  0  0  0
  -21.4140   -4.6490   24.9190 C   0  0  0  0  0  0  0  0  0  0  0  0
  -21.9400   -4.0980   23.7370 C   0  0  0  0  0  3  0  0  0  0  0  0
  -22.0740   -4.8980   22.5890 C   0  0  0  0  0  0  0  0  0  0  0  0
  -22.5620   -4.3560   21.4470 F   0  0  0  0  0  0  0  0  0  0  0  0
  -21.2790   -3.8750   26.0220 F   0  0  0  0  0  0  0  0  0  0  0  0
  -22.8760  -13.6220   21.2610 C   0  0  0  0  0  0  0  0  0  0  0  0
  -22.1760  -12.9110   22.1370 N   0  0  0  0  0  0  0  0  0  0  0  0
  -22.4260  -14.6590   20.7750 O   0  0  0  0  0  0  0  0  0  0  0  0
  -22.5530  -12.0730   22.5520 H   0  0  0  0  0  0  0  0  0  0  0  0
  -21.2460  -13.2120   22.3990 H   0  0  0  0  0  0  0  0  0  0  0  0
  -25.4790  -15.2980   20.3870 N   0  0  0  0  0  0  0  0  0  0  0  0
  -24.6990  -15.9360   20.5080 H   0  0  0  0  0  0  0  0  0  0  0  0
  -26.2670  -15.7220   19.9170 H   0  0  0  0  0  0  0  0  0  0  0  0
  -28.3850  -22.0170   20.2260 O   0  0  0  0  0  0  0  0  0  0  0  0
  -29.0060  -23.4170   20.2140 C   0  0  0  0  0  3  0  0  0  0  0  0
  -28.0130  -24.7620   20.0050 C   0  0  0  0  0  3  0  0  0  0  0  0
  -28.2930  -26.2800   20.1940 O   0  0  0  0  0  0  0  0  0  0  0  0
  -24.6160  -31.8830   23.2510 C   0  0  0  0  0  0  0  0  0  0  0  0
  -27.2250  -27.2480   20.1450 C   0  0  0  0  0  0  0  0  0  0  0  0
  -23.4230  -30.5100   21.5880 C   0  0  0  0  0  3  0  0  0  0  0  0
  -24.8820  -28.9690   20.1390 C   0  0  0  0  0  0  0  0  0  0  0  0
  -25.9760  -30.7940   21.4300 C   0  0  0  0  0  2  0  0  0  0  0  0
  -26.0590  -29.4160   20.7540 C   0  0  0  0  0  0  0  0  0  0  0  0
  -27.2310  -28.5720   20.7390 C   0  0  0  0  0  3  0  0  0  0  0  0
  -26.0180  -26.9000   19.4960 C   0  0  0  0  0  3  0  0  0  0  0  0
  -24.8750  -27.7250   19.4950 C   0  0  0  0  0  3  0  0  0  0  0  0
  -23.6490  -29.8570   20.1990 C   0  0  0  0  0  2  0  0  0  0  0  0
  -24.6910  -31.0830   22.1440 N   0  0  0  0  0  0  0  0  0  0  0  0
  -23.5270  -32.1530   23.7830 O   0  0  0  0  0  0  0  0  0  0  0  0
  -22.7510  -29.4810   22.5320 C   0  0  0  0  0  0  0  0  0  0  0  0
  -21.4240  -29.3020   22.3970 N   0  0  0  0  0  0  0  0  0  0  0  0
  -23.4240  -28.8480   23.3490 O   0  0  0  0  0  0  0  0  0  0  0  0
  -20.9370  -29.8650   21.7140 H   0  0  0  0  0  0  0  0  0  0  0  0
  -18.0440  -28.1000   22.8940 C   0  0  0  0  0  0  0  0  0  0  0  0
  -20.6060  -28.3490   23.1520 C   0  0  0  0  0  3  0  0  0  0  0  0
  -20.6990  -26.9300   22.5440 C   0  0  0  0  0  2  0  0  0  0  0  0
  -19.5900  -26.6350   21.5290 C   0  0  0  0  0  2  0  0  0  0  0  0
  -18.2130  -26.7680   22.1850 C   0  0  0  0  0  2  0  0  0  0  0  0
  -19.1680  -28.8500   23.3340 C   0  0  0  0  0  0  0  0  0  0  0  0
  -18.9540  -30.0990   23.9590 C   0  0  0  0  0  3  0  0  0  0  0  0
  -17.6520  -30.5970   24.1490 C   0  0  0  0  0  3  0  0  0  0  0  0
  -16.5430  -29.8440   23.7240 C   0  0  0  0  0  3  0  0  0  0  0  0
  -16.7410  -28.5970   23.1030 C   0  0  0  0  0  3  0  0  0  0  0  0
  -25.8900  -32.5140   23.8890 C   0  0  0  0  0  3  0  0  0  0  0  0
  -26.3890  -31.7410   25.1720 C   0  0  1  0  0  0  0  0  0  0  0  0
  -25.2800  -31.5020   26.2240 C   0  0  0  0  0  1  0  0  0  0  0  0
  -26.9790  -30.3650   24.7900 C   0  0  0  0  0  1  0  0  0  0  0  0
  -27.5300  -32.5350   25.8510 C   0  0  0  0  0  1  0  0  0  0  0  0
  -25.5790  -33.9130   24.2220 N   0  0  0  0  0  0  0  0  0  0  0  0
  -25.8850  -34.9680   23.4560 C   0  0  0  0  0  0  0  0  0  0  0  0
  -26.5270  -34.8660   22.4060 O   0  0  0  0  0  0  0  0  0  0  0  0
  -25.0080  -34.0650   25.0400 H   0  0  0  0  0  0  0  0  0  0  0  0
  -24.1320  -36.7490   23.1580 C   0  0  0  0  0  1  0  0  0  0  0  0
  -25.4060  -36.3550   23.9250 C   0  0  0  0  0  3  0  0  0  0  0  0
  -27.5520  -37.2720   24.6870 C   0  0  0  0  0  1  0  0  0  0  0  0
  -26.4250  -37.4160   23.7700 N   0  0  0  0  0  0  0  0  0  0  0  0
  -26.0150  -38.3350   23.9150 H   0  0  0  0  0  0  0  0  0  0  0  0
  2  5  1  0
  3  1  1  0
  4  2  2  0
  4  6  1  0
  5 15  1  0
  5  1  2  0
  6  3  2  0
  7 15  1  0
  8 13  1  0
  9 10  1  0
  9  8  1  0
 11 10  1  0
 11 20  1  0
 11 12  1  0
 13  7  1  0
 13 12  1  0
 14  7  2  0
 15 16  1  0
 17 18  2  0
 18 37  1  0
 19 18  1  0
 19 22  1  0
 20 21  1  0
 20 17  1  0
 21 19  2  0
 22 23  1  0
 23 24  2  0
 25 28  1  0
 25 24  1  0
 26 25  2  0
 27 26  1  0
 27 22  2  0
 28 29  1  0
 29 30  1  0
 30 31  2  0
 32 31  1  0
 32 36  1  0
 33 32  2  0
 34 29  2  0
 34 33  1  0
 35 34  1  0
 37 38  1  0
 38 41  1  0
 38 40  1  0
 39 37  2  0
 42 43  1  0
 42 17  1  0
 44 42  1  0
 45  6  1  0
 46 45  1  0
 47 48  1  0
 47 46  2  0
 49 60  2  0
 50 48  1  0
 50 55  1  0
 51 59  1  0
 51 61  1  0
 52 58  1  0
 52 54  1  0
 53 59  1  0
 54 53  1  0
 55 54  2  0
 56 50  2  0
 57 56  1  0
 57 52  2  0
 58 51  1  0
 59 49  1  0
 61 63  2  0
 62 61  1  0
 64 62  1  0
 65 74  2  0
 65 70  1  0
 66 62  1  0
 66 70  1  0
 67 66  1  0
 68 69  1  0
 68 67  1  0
 69 65  1  0
 70 71  2  0
 71 72  1  0
 73 72  2  0
 74 73  1  0
 75 49  1  0
 75 80  1  0
 75 76  1  0
 76 79  1  1
 76 77  1  0
 78 76  1  0
 80 83  1  0
 81 85  1  0
 81 80  1  0
 82 81  2  0
 85 84  1  0
 87 88  1  0
 87 85  1  0
 87 86  1  0
M  ISO  4   7 100  15 100  47 101  48 101
M  END
>  <TORSDO>  (32) 
F 19

>  <SCORE>  (32) 
-14.020

>  <name>  (32) 
31

>  <ligand_id>  (32) 
31

>  <original_smiles>  (32) 
[H]c1c([H])c([H])c2c(c1[H])C([H])([H])C([H])([H])C([H])([H])C2([H])N([H])C(=O)C1([H])N(C(=O)C([H])(N([H])C(=O)C([H])(N([H])C([H])([H])[H])C([H])([H])[H])C(C([H])([H])[H])(C([H])([H])[H])C([H])([H])[H])C([H])([H])c2c([H])c(OC([H])([H])C([H])([H])Oc3c([H])c([H])c(N([H])C(=O)N4C([H])([H])C([H])([H])C([H])([H])C([H])(n5nc(-c6c([H])c([H])c(Oc7c([H])c([H])c(F)c([H])c7F)c([H])c6[H])c(C(=O)N([H])[H])c5N([H])[H])C4([H])[H])c([H])c3[H])c([H])c([H])c2C1([H])[H]

>  <smiles>  (32) 
[H]c1c([H])c([H])c2c(c1[H])C([H])([H])C([H])([H])C([H])([H])C2([H])N([H])C(=O)C1([H])N(C(=O)C([H])(N([H])C(=O)C([H])(N([H])C([H])([H])[H])C([H])([H])[H])C(C([H])([H])[H])(C([H])([H])[H])C([H])([H])[H])C([H])([H])c2c([H])c(OC([H])([H])C([H])([H])Oc3c([H])c([H])c(N([H])C(=O)N4C([H])([H])C([H])([H])C([H])([H])C([H])(n5nc(-c6c([H])c([H])c(Oc7c([H])c([H])c(F)c([H])c7F)c([H])c6[H])c(C(=O)N([H])[H])c5N([H])[H])C4([H])[H])c([H])c3[H])c([H])c([H])c2C1([H])[H]

$$$$
32:0:0
     RDKit          3D

 81 85  0  0  1  0  0  0  0  0999 V2000
  -28.1090  -24.6470   20.3000 O   0  0  0  0  0  1  0  0  0  0  0  0
  -24.7100  -31.7810   23.1610 C   0  0  0  0  0  0  0  0  0  0  0  0
  -27.2070  -26.1440   20.2640 C   0  0  0  0  0  0  0  0  0  0  0  0
  -23.5560  -30.3680   21.5220 C   0  0  0  0  0  3  0  0  0  0  0  0
  -25.0090  -28.5810   20.1690 C   0  0  0  0  0  0  0  0  0  0  0  0
  -26.1560  -30.3130   21.5020 C   0  0  0  0  0  2  0  0  0  0  0  0
  -26.2110  -28.8120   20.8490 C   0  0  0  0  0  0  0  0  0  0  0  0
  -27.2590  -27.6460   20.8460 C   0  0  0  0  0  3  0  0  0  0  0  0
  -25.9680  -26.2870   19.5230 C   0  0  0  0  0  3  0  0  0  0  0  0
  -24.9660  -27.3480   19.4800 C   0  0  0  0  0  3  0  0  0  0  0  0
  -23.8360  -29.6140   20.1780 C   0  0  0  0  0  2  0  0  0  0  0  0
  -24.8390  -30.8700   22.1140 N   0  0  0  0  0  0  0  0  0  0  0  0
  -23.6010  -32.1150   23.6230 O   0  0  0  0  0  0  0  0  0  0  0  0
  -22.7620  -29.4580   22.5040 C   0  0  0  0  0  0  0  0  0  0  0  0
  -21.4220  -29.3560   22.3730 N   0  0  0  0  0  0  0  0  0  0  0  0
  -23.3780  -28.8290   23.3670 O   0  0  0  0  0  0  0  0  0  0  0  0
  -20.9670  -29.9120   21.6630 H   0  0  0  0  0  0  0  0  0  0  0  0
  -17.9970  -28.2130   22.9010 C   0  0  0  0  0  0  0  0  0  0  0  0
  -20.5670  -28.4380   23.1430 C   0  0  0  0  0  3  0  0  0  0  0  0
  -20.6330  -27.0060   22.5600 C   0  0  0  0  0  2  0  0  0  0  0  0
  -19.5210  -26.7160   21.5460 C   0  0  0  0  0  2  0  0  0  0  0  0
  -18.1460  -26.8740   22.1990 C   0  0  0  0  0  2  0  0  0  0  0  0
  -19.1320  -28.9550   23.3290 C   0  0  0  0  0  0  0  0  0  0  0  0
  -18.9320  -30.2040   23.9560 C   0  0  0  0  0  3  0  0  0  0  0  0
  -17.6350  -30.7130   24.1530 C   0  0  0  0  0  3  0  0  0  0  0  0
  -16.5160  -29.9710   23.7350 C   0  0  0  0  0  3  0  0  0  0  0  0
  -16.6980  -28.7220   23.1160 C   0  0  0  0  0  3  0  0  0  0  0  0
  -25.9400  -32.4590   23.8420 C   0  0  0  0  0  3  0  0  0  0  0  0
  -25.5980  -33.8650   24.1720 N   0  0  0  0  0  0  0  0  0  0  0  0
  -25.9200  -34.9450   23.4450 C   0  0  0  0  0  0  0  0  0  0  0  0
  -26.5760  -34.8640   22.4040 O   0  0  0  0  0  0  0  0  0  0  0  0
  -25.0070  -33.9990   24.9800 H   0  0  0  0  0  0  0  0  0  0  0  0
  -24.1680  -36.7480   23.1980 C   0  0  0  0  0  1  0  0  0  0  0  0
  -25.4480  -36.3330   23.9420 C   0  0  0  0  0  3  0  0  0  0  0  0
  -27.6060  -37.2470   24.6880 C   0  0  0  0  0  1  0  0  0  0  0  0
  -26.4650  -37.3980   23.7880 N   0  0  0  0  0  0  0  0  0  0  0  0
  -26.0550  -38.3150   23.9480 H   0  0  0  0  0  0  0  0  0  0  0  0
  -26.3960  -31.7200   25.1620 C   0  0  1  0  0  0  0  0  0  0  0  0
  -25.2580  -31.5140   26.1910 C   0  0  0  0  0  1  0  0  0  0  0  0
  -26.9880  -30.3300   24.8490 C   0  0  0  0  0  1  0  0  0  0  0  0
  -27.5230  -32.5250   25.8520 C   0  0  0  0  0  1  0  0  0  0  0  0
  -28.1400  -22.5480   20.1630 C   0  0  0  0  0 15  0  0  0  0  0  0
  -29.1420  -20.4180   20.2160 C   0  0  0  0  0 15  0  0  0  0  0  0
  -29.9010  -16.6470   20.0860 C   0  0  0  0  0  0  0  0  0  0  0  0
  -30.2300  -13.8900   19.2940 C   0  0  0  0  0  2  0  0  0  0  0  0
  -29.4480  -13.0530   18.1990 C   0  0  0  0  0  2  0  0  0  0  0  0
  -28.1340  -12.4820   18.7300 C   0  0  0  0  0  2  0  0  0  0  0  0
  -27.5010  -13.5140   19.6750 C   0  0  0  0  0  3  0  0  0  0  0  0
  -28.4750  -14.2100   20.6950 C   0  0  0  0  0  2  0  0  0  0  0  0
  -29.4550  -15.1290   19.9600 N   0  0  0  0  0  0  0  0  0  0  0  0
  -31.1430  -16.3980   20.0040 O   0  0  0  0  0  0  0  0  0  0  0  0
  -29.2570  -18.3100   20.1340 N   0  0  0  0  0  2  0  0  0  0  0  0
  -30.2580  -18.4710   20.1320 H   0  0  0  0  0  0  0  0  0  0  0  0
  -25.1600  -13.9200   20.5080 C   0  0  0  0  0  0  0  0  0  0  0  0
  -24.1280  -13.1120   20.8810 C   0  0  0  0  0  0  0  0  0  0  0  0
  -24.6260  -11.7720   20.8220 C   0  0  0  0  0  0  0  0  0  0  0  0
  -26.2240  -13.0860   20.2420 N   0  0  0  0  0  0  0  0  0  0  0  0
  -25.9190  -11.7780   20.4820 N   0  0  0  0  0  0  0  0  0  0  0  0
  -23.9140  -10.4950   21.0120 C   0  0  0  0  0  0  0  0  0  0  0  0
  -24.3570   -9.5290   21.9420 C   0  0  0  0  0  3  0  0  0  0  0  0
  -23.6350   -8.3280   22.1300 C   0  0  0  0  0  3  0  0  0  0  0  0
  -22.4560   -8.0830   21.3870 C   0  0  0  0  0  0  0  0  0  0  0  0
  -22.0290   -9.0390   20.4470 C   0  0  0  0  0  3  0  0  0  0  0  0
  -22.7510  -10.2310   20.2590 C   0  0  0  0  0  3  0  0  0  0  0  0
  -21.7070   -6.9350   21.4820 O   0  0  0  0  0  0  0  0  0  0  0  0
  -21.6700   -6.1910   22.6350 C   0  0  0  0  0  0  0  0  0  0  0  0
  -21.2140   -6.7320   23.8560 C   0  0  0  0  0  3  0  0  0  0  0  0
  -21.1260   -5.9140   25.0000 C   0  0  0  0  0  3  0  0  0  0  0  0
  -21.4850   -4.5540   24.9250 C   0  0  0  0  0  0  0  0  0  0  0  0
  -21.9340   -4.0110   23.7070 C   0  0  0  0  0  3  0  0  0  0  0  0
  -22.0220   -4.8270   22.5660 C   0  0  0  0  0  0  0  0  0  0  0  0
  -22.4340   -4.2930   21.3900 F   0  0  0  0  0  0  0  0  0  0  0  0
  -21.3950   -3.7660   26.0220 F   0  0  0  0  0  0  0  0  0  0  0  0
  -22.7270  -13.5620   21.1730 C   0  0  0  0  0  0  0  0  0  0  0  0
  -22.0260  -12.8570   22.0520 N   0  0  0  0  0  0  0  0  0  0  0  0
  -22.2670  -14.5820   20.6590 O   0  0  0  0  0  0  0  0  0  0  0  0
  -22.4140  -12.0340   22.4890 H   0  0  0  0  0  0  0  0  0  0  0  0
  -21.0880  -13.1430   22.2910 H   0  0  0  0  0  0  0  0  0  0  0  0
  -25.2790  -15.2960   20.3350 N   0  0  0  0  0  0  0  0  0  0  0  0
  -24.4980  -15.9290   20.4650 H   0  0  0  0  0  0  0  0  0  0  0  0
  -26.1180  -15.7610   20.0090 H   0  0  0  0  0  0  0  0  0  0  0  0
  2 13  2  0
  3  1  1  0
  3  8  1  0
  4 12  1  0
  4 14  1  0
  5 11  1  0
  5  7  1  0
  6 12  1  0
  7  6  1  0
  8  7  2  0
  9  3  2  0
 10  9  1  0
 10  5  2  0
 11  4  1  0
 12  2  1  0
 14 16  2  0
 15 14  1  0
 17 15  1  0
 18 27  2  0
 18 23  1  0
 19 15  1  0
 19 23  1  0
 20 19  1  0
 21 22  1  0
 21 20  1  0
 22 18  1  0
 23 24  2  0
 24 25  1  0
 26 25  2  0
 27 26  1  0
 28  2  1  0
 28 29  1  0
 28 38  1  0
 29 32  1  0
 30 34  1  0
 30 29  1  0
 31 30  2  0
 34 33  1  0
 36 34  1  0
 36 37  1  0
 36 35  1  0
 38 41  1  1
 38 39  1  0
 40 38  1  0
 44 52  1  0
 45 50  1  0
 46 47  1  0
 46 45  1  0
 48 47  1  0
 48 57  1  0
 48 49  1  0
 50 44  1  0
 50 49  1  0
 51 44  2  0
 53 52  1  0
 54 55  2  0
 55 74  1  0
 56 55  1  0
 56 59  1  0
 57 58  1  0
 57 54  1  0
 58 56  2  0
 59 60  1  0
 60 61  2  0
 62 65  1  0
 62 61  1  0
 63 62  2  0
 64 63  1  0
 64 59  2  0
 65 66  1  0
 66 67  1  0
 67 68  2  0
 69 68  1  0
 69 73  1  0
 70 69  2  0
 71 66  2  0
 71 70  1  0
 72 71  1  0
 74 75  1  0
 75 78  1  0
 75 77  1  0
 76 74  2  0
 79 80  1  0
 79 54  1  0
 81 79  1  0
M  ISO  4   1 101  42 101  44 100  52 100
M  END
>  <TORSDO>  (33) 
F 17

>  <SCORE>  (33) 
-16.141

>  <name>  (33) 
32

>  <ligand_id>  (33) 
32

>  <original_smiles>  (33) 
[H]c1c([H])c([H])c2c(c1[H])C([H])([H])C([H])([H])C([H])([H])C2([H])N([H])C(=O)C1([H])N(C(=O)C([H])(N([H])C(=O)C([H])(N([H])C([H])([H])[H])C([H])([H])[H])C(C([H])([H])[H])(C([H])([H])[H])C([H])([H])[H])C([H])([H])c2c([H])c(OC([H])([H])C([H])([H])N([H])C(=O)N3C([H])([H])C([H])([H])C([H])([H])C([H])(n4nc(-c5c([H])c([H])c(Oc6c([H])c([H])c(F)c([H])c6F)c([H])c5[H])c(C(=O)N([H])[H])c4N([H])[H])C3([H])[H])c([H])c([H])c2C1([H])[H]

>  <smiles>  (33) 
[H]c1c([H])c([H])c2c(c1[H])C([H])([H])C([H])([H])C([H])([H])C2([H])N([H])C(=O)C1([H])N(C(=O)C([H])(N([H])C(=O)C([H])(N([H])C([H])([H])[H])C([H])([H])[H])C(C([H])([H])[H])(C([H])([H])[H])C([H])([H])[H])C([H])([H])c2c([H])c(OC([H])([H])C([H])([H])N([H])C(=O)N3C([H])([H])C([H])([H])C([H])([H])C([H])(n4nc(-c5c([H])c([H])c(Oc6c([H])c([H])c(F)c([H])c6F)c([H])c5[H])c(C(=O)N([H])[H])c4N([H])[H])C3([H])[H])c([H])c([H])c2C1([H])[H]

$$$$
33:0:0
     RDKit          3D

 90 98  0  0  1  0  0  0  0  0999 V2000
  -29.6470  -22.0000   20.6810 C   0  0  0  0  0  2  0  0  0  0  0  0
  -28.8430  -23.3070   20.4230 C   0  0  0  0  0  2  0  0  0  0  0  0
  -29.4090  -24.5650   21.1330 C   0  0  0  0  0  2  0  0  0  0  0  0
  -28.4280  -25.7610   21.2880 C   0  0  0  0  0  2  0  0  0  0  0  0
  -28.3950  -26.6750   20.1820 O   0  0  0  0  0  0  0  0  0  0  0  0
  -24.6030  -31.8870   23.2550 C   0  0  0  0  0  0  0  0  0  0  0  0
  -27.2580  -27.4510   20.1750 C   0  0  0  0  0  0  0  0  0  0  0  0
  -23.4000  -30.4840   21.6100 C   0  0  0  0  0  3  0  0  0  0  0  0
  -24.8610  -28.9510   20.1840 C   0  0  0  0  0  0  0  0  0  0  0  0
  -25.9260  -30.8480   21.4150 C   0  0  0  0  0  2  0  0  0  0  0  0
  -26.0170  -29.4770   20.7750 C   0  0  0  0  0  0  0  0  0  0  0  0
  -27.2210  -28.7340   20.7710 C   0  0  0  0  0  3  0  0  0  0  0  0
  -26.0900  -26.9400   19.5750 C   0  0  0  0  0  3  0  0  0  0  0  0
  -24.8920  -27.6800   19.5810 C   0  0  0  0  0  3  0  0  0  0  0  0
  -23.6130  -29.8050   20.2300 C   0  0  0  0  0  2  0  0  0  0  0  0
  -24.6610  -31.0880   22.1520 N   0  0  0  0  0  0  0  0  0  0  0  0
  -23.5210  -32.1570   23.7950 O   0  0  0  0  0  0  0  0  0  0  0  0
  -22.7500  -29.4620   22.5700 C   0  0  0  0  0  0  0  0  0  0  0  0
  -21.4250  -29.2810   22.4440 N   0  0  0  0  0  0  0  0  0  0  0  0
  -23.4330  -28.8350   23.3830 O   0  0  0  0  0  0  0  0  0  0  0  0
  -20.9340  -29.8390   21.7590 H   0  0  0  0  0  0  0  0  0  0  0  0
  -18.0480  -28.0940   22.9460 C   0  0  0  0  0  0  0  0  0  0  0  0
  -20.6080  -28.3420   23.2120 C   0  0  0  0  0  3  0  0  0  0  0  0
  -20.7040  -26.9130   22.6290 C   0  0  0  0  0  2  0  0  0  0  0  0
  -19.5980  -26.5980   21.6170 C   0  0  0  0  0  2  0  0  0  0  0  0
  -18.2190  -26.7450   22.2650 C   0  0  0  0  0  2  0  0  0  0  0  0
  -19.1710  -28.8500   23.3770 C   0  0  0  0  0  0  0  0  0  0  0  0
  -18.9580  -30.1110   23.9730 C   0  0  0  0  0  3  0  0  0  0  0  0
  -17.6550  -30.6170   24.1430 C   0  0  0  0  0  3  0  0  0  0  0  0
  -16.5470  -29.8580   23.7300 C   0  0  0  0  0  3  0  0  0  0  0  0
  -16.7450  -28.5970   23.1380 C   0  0  0  0  0  3  0  0  0  0  0  0
  -25.8880  -32.5190   23.8760 C   0  0  0  0  0  3  0  0  0  0  0  0
  -25.5820  -33.9190   24.1980 N   0  0  0  0  0  0  0  0  0  0  0  0
  -25.9200  -34.9670   23.4350 C   0  0  0  0  0  0  0  0  0  0  0  0
  -26.5950  -34.8560   22.4080 O   0  0  0  0  0  0  0  0  0  0  0  0
  -24.9840  -34.0790   24.9950 H   0  0  0  0  0  0  0  0  0  0  0  0
  -24.1980  -36.7610   23.0600 C   0  0  0  0  0  1  0  0  0  0  0  0
  -25.4320  -36.3580   23.8820 C   0  0  0  0  0  3  0  0  0  0  0  0
  -27.5650  -37.2390   24.7230 C   0  0  0  0  0  1  0  0  0  0  0  0
  -26.4680  -37.4080   23.7730 N   0  0  0  0  0  0  0  0  0  0  0  0
  -26.0630  -38.3290   23.9180 H   0  0  0  0  0  0  0  0  0  0  0  0
  -26.4030  -31.7510   25.1540 C   0  0  1  0  0  0  0  0  0  0  0  0
  -25.3110  -31.5170   26.2230 C   0  0  0  0  0  1  0  0  0  0  0  0
  -26.9860  -30.3720   24.7650 C   0  0  0  0  0  1  0  0  0  0  0  0
  -27.5550  -32.5450   25.8150 C   0  0  0  0  0  1  0  0  0  0  0  0
  -29.0300  -20.9170   19.9790 O   0  0  0  0  0  0  0  0  0  0  0  0
  -28.8060  -17.2360   19.9120 C   0  0  0  0  0  3  0  0  0  0  0  0
  -30.6640  -17.8150   21.3650 C   0  0  0  0  0  3  0  0  0  0  0  0
  -28.5840  -18.6040   19.6560 C   0  0  0  0  0  3  0  0  0  0  0  0
  -30.4340  -19.1910   21.1090 C   0  0  0  0  0  3  0  0  0  0  0  0
  -29.8440  -16.8240   20.7750 C   0  0  0  0  0  0  0  0  0  0  0  0
  -29.3730  -19.6040   20.2610 C   0  0  0  0  0  0  0  0  0  0  0  0
  -30.6440  -14.5020   20.4870 C   0  0  0  0  0  0  0  0  0  0  0  0
  -30.3760  -12.3470   19.3070 C   0  0  0  0  0  2  0  0  0  0  0  0
  -29.4250  -12.5620   18.1100 C   0  0  0  0  0  2  0  0  0  0  0  0
  -27.9510  -12.4190   18.5390 C   0  0  0  0  0  2  0  0  0  0  0  0
  -27.6180  -13.2380   19.8150 C   0  0  0  0  0  3  0  0  0  0  0  0
  -28.6750  -12.9850   20.9140 C   0  0  0  0  0  2  0  0  0  0  0  0
  -30.0010  -13.3070   20.3570 N   0  0  0  0  0  0  0  0  0  0  0  0
  -31.7510  -14.7300   19.9870 O   0  0  0  0  0  0  0  0  0  0  0  0
  -29.9400  -15.4470   21.1360 N   0  0  0  0  0  0  0  0  0  0  0  0
  -29.0990  -15.0650   21.5410 H   0  0  0  0  0  0  0  0  0  0  0  0
  -25.2150  -13.8540   20.5080 C   0  0  0  0  0  0  0  0  0  0  0  0
  -24.1460  -13.0850   20.8810 C   0  0  0  0  0  0  0  0  0  0  0  0
  -24.6070  -11.7330   20.8590 C   0  0  0  0  0  0  0  0  0  0  0  0
  -26.2620  -12.9700   20.2890 N   0  0  0  0  0  0  0  0  0  0  0  0
  -25.8970  -11.6900   20.5550 N   0  0  0  0  0  0  0  0  0  0  0  0
  -23.8800  -10.4720   21.0550 C   0  0  0  0  0  0  0  0  0  0  0  0
  -24.3150   -9.5080   21.9910 C   0  0  0  0  0  3  0  0  0  0  0  0
  -23.5900   -8.3120   22.1750 C   0  0  0  0  0  3  0  0  0  0  0  0
  -22.4170   -8.0700   21.4220 C   0  0  0  0  0  0  0  0  0  0  0  0
  -22.0000   -9.0230   20.4760 C   0  0  0  0  0  3  0  0  0  0  0  0
  -22.7250  -10.2120   20.2900 C   0  0  0  0  0  3  0  0  0  0  0  0
  -21.6630   -6.9250   21.5150 O   0  0  0  0  0  0  0  0  0  0  0  0
  -21.6230   -6.1820   22.6680 C   0  0  0  0  0  0  0  0  0  0  0  0
  -21.2060   -6.7360   23.8980 C   0  0  0  0  0  3  0  0  0  0  0  0
  -21.1130   -5.9190   25.0420 C   0  0  0  0  0  3  0  0  0  0  0  0
  -21.4270   -4.5480   24.9580 C   0  0  0  0  0  0  0  0  0  0  0  0
  -21.8360   -3.9950   23.7320 C   0  0  0  0  0  3  0  0  0  0  0  0
  -21.9310   -4.8090   22.5890 C   0  0  0  0  0  0  0  0  0  0  0  0
  -22.3070   -4.2660   21.4070 F   0  0  0  0  0  0  0  0  0  0  0  0
  -21.3300   -3.7620   26.0540 F   0  0  0  0  0  0  0  0  0  0  0  0
  -22.7480  -13.5650   21.1490 C   0  0  0  0  0  0  0  0  0  0  0  0
  -22.0180  -12.8730   22.0170 N   0  0  0  0  0  0  0  0  0  0  0  0
  -22.3110  -14.5880   20.6230 O   0  0  0  0  0  0  0  0  0  0  0  0
  -22.3840  -12.0450   22.4640 H   0  0  0  0  0  0  0  0  0  0  0  0
  -21.0810  -13.1780   22.2390 H   0  0  0  0  0  0  0  0  0  0  0  0
  -25.3780  -15.2240   20.3220 N   0  0  0  0  0  0  0  0  0  0  0  0
  -24.6070  -15.8740   20.4240 H   0  0  0  0  0  0  0  0  0  0  0  0
  -26.2270  -15.6660   19.9960 H   0  0  0  0  0  0  0  0  0  0  0  0
  2  1  1  0
  2  3  1  0
  3  4  1  0
  5  4  1  0
  6 17  2  0
  7  5  1  0
  7 12  1  0
  8 16  1  0
  8 18  1  0
  9 15  1  0
  9 11  1  0
 10 16  1  0
 11 10  1  0
 12 11  2  0
 13 14  1  0
 13  7  2  0
 14  9  2  0
 15  8  1  0
 16  6  1  0
 18 20  2  0
 19 18  1  0
 21 19  1  0
 22 31  2  0
 22 27  1  0
 23 19  1  0
 23 27  1  0
 24 23  1  0
 25 26  1  0
 25 24  1  0
 26 22  1  0
 27 28  2  0
 28 29  1  0
 30 29  2  0
 31 30  1  0
 32  6  1  0
 32 33  1  0
 32 42  1  0
 33 36  1  0
 34 38  1  0
 34 33  1  0
 35 34  2  0
 38 37  1  0
 40 38  1  0
 40 41  1  0
 40 39  1  0
 42 45  1  1
 42 43  1  0
 44 42  1  0
 46 52  1  0
 46  1  1  0
 47 51  1  0
 49 47  2  0
 49 52  1  0
 50 48  1  0
 51 61  1  0
 51 48  2  0
 52 50  2  0
 53 61  1  0
 54 59  1  0
 55 56  1  0
 55 54  1  0
 57 56  1  0
 57 66  1  0
 57 58  1  0
 59 53  1  0
 59 58  1  0
 60 53  2  0
 61 62  1  0
 63 64  2  0
 64 83  1  0
 65 64  1  0
 65 68  1  0
 66 63  1  0
 66 67  1  0
 67 65  2  0
 68 69  1  0
 69 70  2  0
 71 74  1  0
 71 70  1  0
 72 71  2  0
 73 72  1  0
 73 68  2  0
 74 75  1  0
 75 76  1  0
 76 77  2  0
 78 77  1  0
 78 82  1  0
 79 78  2  0
 80 75  2  0
 80 79  1  0
 81 80  1  0
 83 84  1  0
 84 87  1  0
 84 86  1  0
 85 83  2  0
 88 89  1  0
 88 63  1  0
 90 88  1  0
M  ISO  4   4 101   5 101  53 100  61 100
M  END
>  <TORSDO>  (34) 
F 21

>  <SCORE>  (34) 
-13.693

>  <name>  (34) 
33

>  <ligand_id>  (34) 
33

>  <original_smiles>  (34) 
[H]c1c([H])c([H])c2c(c1[H])C([H])([H])C([H])([H])C([H])([H])C2([H])N([H])C(=O)C1([H])N(C(=O)C([H])(N([H])C(=O)C([H])(N([H])C([H])([H])[H])C([H])([H])[H])C(C([H])([H])[H])(C([H])([H])[H])C([H])([H])[H])C([H])([H])c2c([H])c(OC([H])([H])C([H])([H])C([H])([H])C([H])([H])Oc3c([H])c([H])c(N([H])C(=O)N4C([H])([H])C([H])([H])C([H])([H])C([H])(n5nc(-c6c([H])c([H])c(Oc7c([H])c([H])c(F)c([H])c7F)c([H])c6[H])c(C(=O)N([H])[H])c5N([H])[H])C4([H])[H])c([H])c3[H])c([H])c([H])c2C1([H])[H]

>  <smiles>  (34) 
[H]c1c([H])c([H])c2c(c1[H])C([H])([H])C([H])([H])C([H])([H])C2([H])N([H])C(=O)C1([H])N(C(=O)C([H])(N([H])C(=O)C([H])(N([H])C([H])([H])[H])C([H])([H])[H])C(C([H])([H])[H])(C([H])([H])[H])C([H])([H])[H])C([H])([H])c2c([H])c(OC([H])([H])C([H])([H])C([H])([H])C([H])([H])Oc3c([H])c([H])c(N([H])C(=O)N4C([H])([H])C([H])([H])C([H])([H])C([H])(n5nc(-c6c([H])c([H])c(Oc7c([H])c([H])c(F)c([H])c7F)c([H])c6[H])c(C(=O)N([H])[H])c5N([H])[H])C4([H])[H])c([H])c3[H])c([H])c([H])c2C1([H])[H]

$$$$
34:0:0
     RDKit          3D

 85 93  0  0  1  0  0  0  0  0999 V2000
  -28.7620  -21.3260   21.2890 C   0  0  0  0  0  3  0  0  0  0  0  0
  -28.7930  -21.2830   19.0680 C   0  0  0  0  0  3  0  0  0  0  0  0
  -29.0940  -19.8320   21.3120 C   0  0  0  0  0  3  0  0  0  0  0  0
  -29.1220  -19.7880   19.0930 C   0  0  0  0  0  3  0  0  0  0  0  0
  -28.5590  -22.2740   20.1580 C   0  0  0  0  0  0  0  0  0  0  0  0
  -29.3250  -18.8390   20.2230 C   0  0  0  0  0  0  0  0  0  0  0  0
  -27.7870  -23.9640   20.0740 C   0  0  0  0  0  2  0  0  0  0  0  0
  -28.1010  -25.6630   20.2600 O   0  0  0  0  0  0  0  0  0  0  0  0
  -24.6320  -31.9010   23.2490 C   0  0  0  0  0  0  0  0  0  0  0  0
  -27.1390  -26.8720   20.2090 C   0  0  0  0  0  0  0  0  0  0  0  0
  -23.4290  -30.5120   21.6170 C   0  0  0  0  0  3  0  0  0  0  0  0
  -24.8650  -28.8810   20.1810 C   0  0  0  0  0  0  0  0  0  0  0  0
  -26.0050  -30.6670   21.4680 C   0  0  0  0  0  2  0  0  0  0  0  0
  -26.0660  -29.2420   20.8050 C   0  0  0  0  0  0  0  0  0  0  0  0
  -27.1880  -28.2650   20.7880 C   0  0  0  0  0  3  0  0  0  0  0  0
  -25.9040  -26.7140   19.5310 C   0  0  0  0  0  3  0  0  0  0  0  0
  -24.8220  -27.6420   19.5200 C   0  0  0  0  0  3  0  0  0  0  0  0
  -23.6560  -29.8250   20.2400 C   0  0  0  0  0  2  0  0  0  0  0  0
  -24.7120  -31.0590   22.1640 N   0  0  0  0  0  0  0  0  0  0  0  0
  -23.5440  -32.1970   23.7730 O   0  0  0  0  0  0  0  0  0  0  0  0
  -22.7260  -29.5260   22.5880 C   0  0  0  0  0  0  0  0  0  0  0  0
  -21.3960  -29.3550   22.4600 N   0  0  0  0  0  0  0  0  0  0  0  0
  -23.3870  -28.9140   23.4290 O   0  0  0  0  0  0  0  0  0  0  0  0
  -20.9100  -29.8990   21.7610 H   0  0  0  0  0  0  0  0  0  0  0  0
  -18.0230  -28.0990   22.9630 C   0  0  0  0  0  0  0  0  0  0  0  0
  -20.5770  -28.4120   23.2350 C   0  0  0  0  0  3  0  0  0  0  0  0
  -20.7030  -26.9760   22.6730 C   0  0  0  0  0  2  0  0  0  0  0  0
  -19.6130  -26.6280   21.6540 C   0  0  0  0  0  2  0  0  0  0  0  0
  -18.2250  -26.7520   22.2910 C   0  0  0  0  0  2  0  0  0  0  0  0
  -19.1260  -28.8860   23.3900 C   0  0  0  0  0  0  0  0  0  0  0  0
  -18.8790  -30.1430   23.9840 C   0  0  0  0  0  3  0  0  0  0  0  0
  -17.5630  -30.6160   24.1490 C   0  0  0  0  0  3  0  0  0  0  0  0
  -16.4750  -29.8280   23.7330 C   0  0  0  0  0  3  0  0  0  0  0  0
  -16.7060  -28.5720   23.1470 C   0  0  0  0  0  3  0  0  0  0  0  0
  -25.9010  -32.5480   23.8810 C   0  0  0  0  0  3  0  0  0  0  0  0
  -25.5830  -33.9490   24.2220 N   0  0  0  0  0  0  0  0  0  0  0  0
  -25.8770  -35.0140   23.4660 C   0  0  0  0  0  0  0  0  0  0  0  0
  -26.5050  -34.9220   22.4070 O   0  0  0  0  0  0  0  0  0  0  0  0
  -25.0180  -34.0910   25.0470 H   0  0  0  0  0  0  0  0  0  0  0  0
  -24.1100  -36.7960   23.2310 C   0  0  0  0  0  1  0  0  0  0  0  0
  -25.4060  -36.4010   23.9580 C   0  0  0  0  0  3  0  0  0  0  0  0
  -27.5750  -37.3220   24.6540 C   0  0  0  0  0  1  0  0  0  0  0  0
  -26.4170  -37.4660   23.7760 N   0  0  0  0  0  0  0  0  0  0  0  0
  -26.0080  -38.3820   23.9390 H   0  0  0  0  0  0  0  0  0  0  0  0
  -26.4080  -31.7860   25.1680 C   0  0  1  0  0  0  0  0  0  0  0  0
  -25.3100  -31.5610   26.2340 C   0  0  0  0  0  1  0  0  0  0  0  0
  -26.9880  -30.4020   24.8000 C   0  0  0  0  0  1  0  0  0  0  0  0
  -27.5600  -32.5800   25.8290 C   0  0  0  0  0  1  0  0  0  0  0  0
  -29.3470  -17.2310   20.2900 O   0  0  0  0  0  0  0  0  0  0  0  0
  -30.3400  -15.7230   20.0770 C   0  0  0  0  0  0  0  0  0  0  0  0
  -30.3870  -13.1620   19.2730 C   0  0  0  0  0  2  0  0  0  0  0  0
  -29.4600  -12.8250   18.0710 C   0  0  0  0  0  2  0  0  0  0  0  0
  -28.0420  -12.4780   18.5530 C   0  0  0  0  0  2  0  0  0  0  0  0
  -27.5590  -13.4630   19.6440 C   0  0  0  0  0  3  0  0  0  0  0  0
  -28.6070  -13.7530   20.7390 C   0  0  0  0  0  2  0  0  0  0  0  0
  -29.7950  -14.3130   20.0760 N   0  0  0  0  0  0  0  0  0  0  0  0
  -31.5500  -15.7270   19.7990 O   0  0  0  0  0  0  0  0  0  0  0  0
  -25.2300  -13.9610   20.5200 C   0  0  0  0  0  0  0  0  0  0  0  0
  -24.1910  -13.1630   20.9060 C   0  0  0  0  0  0  0  0  0  0  0  0
  -24.6670  -11.8180   20.8190 C   0  0  0  0  0  0  0  0  0  0  0  0
  -26.2660  -13.1030   20.2030 N   0  0  0  0  0  0  0  0  0  0  0  0
  -25.9450  -11.8050   20.4530 N   0  0  0  0  0  0  0  0  0  0  0  0
  -23.9540  -10.5470   21.0010 C   0  0  0  0  0  0  0  0  0  0  0  0
  -24.3880   -9.5800   21.9360 C   0  0  0  0  0  3  0  0  0  0  0  0
  -23.6690   -8.3770   22.1080 C   0  0  0  0  0  3  0  0  0  0  0  0
  -22.5030   -8.1310   21.3440 C   0  0  0  0  0  0  0  0  0  0  0  0
  -22.0890   -9.0850   20.3980 C   0  0  0  0  0  3  0  0  0  0  0  0
  -22.8080  -10.2790   20.2260 C   0  0  0  0  0  3  0  0  0  0  0  0
  -21.7570   -6.9800   21.4240 O   0  0  0  0  0  0  0  0  0  0  0  0
  -21.6550   -6.2680   22.5930 C   0  0  0  0  0  0  0  0  0  0  0  0
  -21.1270   -6.8400   23.7710 C   0  0  0  0  0  3  0  0  0  0  0  0
  -20.9750   -6.0530   24.9290 C   0  0  0  0  0  3  0  0  0  0  0  0
  -21.3400   -4.6940   24.9110 C   0  0  0  0  0  0  0  0  0  0  0  0
  -21.8610   -4.1210   23.7370 C   0  0  0  0  0  3  0  0  0  0  0  0
  -22.0140   -4.9050   22.5810 C   0  0  0  0  0  0  0  0  0  0  0  0
  -22.4960   -4.3410   21.4470 F   0  0  0  0  0  0  0  0  0  0  0  0
  -21.1890   -3.9360   26.0210 F   0  0  0  0  0  0  0  0  0  0  0  0
  -22.8020  -13.6240   21.2390 C   0  0  0  0  0  0  0  0  0  0  0  0
  -22.1110  -12.9030   22.1130 N   0  0  0  0  0  0  0  0  0  0  0  0
  -22.3430  -14.6590   20.7590 O   0  0  0  0  0  0  0  0  0  0  0  0
  -22.4980  -12.0660   22.5220 H   0  0  0  0  0  0  0  0  0  0  0  0
  -21.1800  -13.1940   22.3780 H   0  0  0  0  0  0  0  0  0  0  0  0
  -25.3790  -15.3370   20.3800 N   0  0  0  0  0  0  0  0  0  0  0  0
  -24.6200  -15.9870   20.5560 H   0  0  0  0  0  0  0  0  0  0  0  0
  -26.2230  -15.7930   20.0550 H   0  0  0  0  0  0  0  0  0  0  0  0
  1  3  1  0
  2  4  2  0
  2  5  1  0
  4  6  1  0
  5  1  2  0
  6 49  1  0
  6  3  2  0
  7  5  1  0
  7  8  1  0
  9 20  2  0
 10  8  1  0
 10 15  1  0
 11 19  1  0
 11 21  1  0
 12 18  1  0
 12 14  1  0
 13 19  1  0
 14 13  1  0
 15 14  2  0
 16 10  2  0
 17 16  1  0
 17 12  2  0
 18 11  1  0
 19  9  1  0
 21 23  2  0
 22 21  1  0
 24 22  1  0
 25 34  2  0
 25 30  1  0
 26 22  1  0
 26 30  1  0
 27 26  1  0
 28 29  1  0
 28 27  1  0
 29 25  1  0
 30 31  2  0
 31 32  1  0
 33 32  2  0
 34 33  1  0
 35  9  1  0
 35 36  1  0
 35 45  1  0
 36 39  1  0
 37 41  1  0
 37 36  1  0
 38 37  2  0
 41 40  1  0
 43 44  1  0
 43 41  1  0
 43 42  1  0
 45 48  1  1
 45 46  1  0
 47 45  1  0
 50 49  1  0
 51 56  1  0
 52 53  1  0
 52 51  1  0
 54 53  1  0
 54 61  1  0
 54 55  1  0
 56 50  1  0
 56 55  1  0
 57 50  2  0
 58 59  2  0
 59 78  1  0
 60 59  1  0
 60 63  1  0
 61 62  1  0
 61 58  1  0
 62 60  2  0
 63 64  1  0
 64 65  2  0
 66 69  1  0
 66 65  1  0
 67 66  2  0
 68 67  1  0
 68 63  2  0
 69 70  1  0
 70 71  1  0
 71 72  2  0
 73 72  1  0
 73 77  1  0
 74 73  2  0
 75 70  2  0
 75 74  1  0
 76 75  1  0
 78 79  1  0
 79 82  1  0
 79 81  1  0
 80 78  2  0
 83 58  1  0
 83 84  1  0
 85 83  1  0
M  ISO  4   7 101   8 101  49 100  50 100
M  END
>  <TORSDO>  (35) 
F 18

>  <SCORE>  (35) 
-15.928

>  <name>  (35) 
34

>  <ligand_id>  (35) 
34

>  <original_smiles>  (35) 
[H]c1c([H])c([H])c2c(c1[H])C([H])([H])C([H])([H])C([H])([H])C2([H])N([H])C(=O)C1([H])N(C(=O)C([H])(N([H])C(=O)C([H])(N([H])C([H])([H])[H])C([H])([H])[H])C(C([H])([H])[H])(C([H])([H])[H])C([H])([H])[H])C([H])([H])c2c([H])c(OC([H])([H])c3c([H])c([H])c(OC(=O)N4C([H])([H])C([H])([H])C([H])([H])C([H])(n5nc(-c6c([H])c([H])c(Oc7c([H])c([H])c(F)c([H])c7F)c([H])c6[H])c(C(=O)N([H])[H])c5N([H])[H])C4([H])[H])c([H])c3[H])c([H])c([H])c2C1([H])[H]

>  <smiles>  (35) 
[H]c1c([H])c([H])c2c(c1[H])C([H])([H])C([H])([H])C([H])([H])C2([H])N([H])C(=O)C1([H])N(C(=O)C([H])(N([H])C(=O)C([H])(N([H])C([H])([H])[H])C([H])([H])[H])C(C([H])([H])[H])(C([H])([H])[H])C([H])([H])[H])C([H])([H])c2c([H])c(OC([H])([H])c3c([H])c([H])c(OC(=O)N4C([H])([H])C([H])([H])C([H])([H])C([H])(n5nc(-c6c([H])c([H])c(Oc7c([H])c([H])c(F)c([H])c7F)c([H])c6[H])c(C(=O)N([H])[H])c5N([H])[H])C4([H])[H])c([H])c3[H])c([H])c([H])c2C1([H])[H]

$$$$
35:0:0
     RDKit          3D

102110  0  0  1  0  0  0  0  0999 V2000
  -31.0190  -22.1990   21.0950 C   0  0  0  0  0  3  0  0  0  0  0  0
  -29.6150  -22.6660   20.6460 C   0  0  0  0  0  0  0  0  0  0  0  0
  -29.0080  -23.6050   21.3870 N   0  0  0  0  0  0  0  0  0  0  0  0
  -29.1200  -22.2150   19.6110 O   0  0  0  0  0  0  0  0  0  0  0  0
  -29.4730  -23.9020   22.2350 H   0  0  0  0  0  0  0  0  0  0  0  0
  -27.7340  -24.2600   21.0680 C   0  0  0  0  0  2  0  0  0  0  0  0
  -27.7970  -25.1280   19.7820 C   0  0  0  0  0  2  0  0  0  0  0  0
  -27.8440  -26.5300   20.0510 O   0  0  0  0  0  0  0  0  0  0  0  0
  -24.4500  -31.8450   23.2740 C   0  0  0  0  0  0  0  0  0  0  0  0
  -26.6810  -27.2710   20.0850 C   0  0  0  0  0  0  0  0  0  0  0  0
  -23.0790  -30.5100   21.7030 C   0  0  0  0  0  3  0  0  0  0  0  0
  -24.3680  -28.8930   20.2100 C   0  0  0  0  0  0  0  0  0  0  0  0
  -25.6050  -30.7350   21.3670 C   0  0  0  0  0  2  0  0  0  0  0  0
  -25.5800  -29.3600   20.7350 C   0  0  0  0  0  0  0  0  0  0  0  0
  -26.7350  -28.5520   20.6750 C   0  0  0  0  0  3  0  0  0  0  0  0
  -25.4480  -26.8130   19.5610 C   0  0  0  0  0  3  0  0  0  0  0  0
  -24.2960  -27.6160   19.6280 C   0  0  0  0  0  3  0  0  0  0  0  0
  -23.1710  -29.8080   20.3210 C   0  0  0  0  0  2  0  0  0  0  0  0
  -24.4000  -31.0440   22.1720 N   0  0  0  0  0  0  0  0  0  0  0  0
  -23.4160  -32.1770   23.8680 O   0  0  0  0  0  0  0  0  0  0  0  0
  -22.4240  -29.5310   22.7030 C   0  0  0  0  0  0  0  0  0  0  0  0
  -21.1050  -29.3230   22.5590 N   0  0  0  0  0  0  0  0  0  0  0  0
  -23.1000  -28.9560   23.5610 O   0  0  0  0  0  0  0  0  0  0  0  0
  -20.6200  -29.8330   21.8330 H   0  0  0  0  0  0  0  0  0  0  0  0
  -17.7670  -28.0010   22.9440 C   0  0  0  0  0  0  0  0  0  0  0  0
  -20.2840  -28.4120   23.3570 C   0  0  0  0  0  3  0  0  0  0  0  0
  -20.4950  -26.9450   22.9150 C   0  0  0  0  0  2  0  0  0  0  0  0
  -19.4820  -26.4810   21.8650 C   0  0  0  0  0  2  0  0  0  0  0  0
  -18.0520  -26.6090   22.4000 C   0  0  0  0  0  2  0  0  0  0  0  0
  -18.8170  -28.8530   23.3760 C   0  0  0  0  0  0  0  0  0  0  0  0
  -18.5020  -30.1490   23.8350 C   0  0  0  0  0  3  0  0  0  0  0  0
  -17.1680  -30.5960   23.8760 C   0  0  0  0  0  3  0  0  0  0  0  0
  -16.1310  -29.7420   23.4660 C   0  0  0  0  0  3  0  0  0  0  0  0
  -16.4300  -28.4470   23.0040 C   0  0  0  0  0  3  0  0  0  0  0  0
  -25.8020  -32.3970   23.8240 C   0  0  0  0  0  3  0  0  0  0  0  0
  -26.3640  -31.5680   25.0430 C   0  0  1  0  0  0  0  0  0  0  0  0
  -25.3300  -31.3510   26.1710 C   0  0  0  0  0  1  0  0  0  0  0  0
  -26.8620  -30.1780   24.5790 C   0  0  0  0  0  1  0  0  0  0  0  0
  -27.5850  -32.2960   25.6520 C   0  0  0  0  0  1  0  0  0  0  0  0
  -25.5810  -33.7980   24.2080 N   0  0  0  0  0  0  0  0  0  0  0  0
  -25.9370  -34.8550   23.4660 C   0  0  0  0  0  0  0  0  0  0  0  0
  -26.5600  -34.7520   22.4060 O   0  0  0  0  0  0  0  0  0  0  0  0
  -25.0310  -33.9570   25.0390 H   0  0  0  0  0  0  0  0  0  0  0  0
  -24.2940  -36.7440   23.2220 C   0  0  0  0  0  1  0  0  0  0  0  0
  -25.5390  -36.2520   23.9800 C   0  0  0  0  0  3  0  0  0  0  0  0
  -27.7450  -36.9960   24.7620 C   0  0  0  0  0  1  0  0  0  0  0  0
  -26.6200  -37.2540   23.8660 N   0  0  0  0  0  0  0  0  0  0  0  0
  -26.2670  -38.1870   24.0620 H   0  0  0  0  0  0  0  0  0  0  0  0
  -31.5330  -21.0880   20.2860 N   0  0  0  0  0  0  0  0  0  0  0  0
  -31.5520  -21.3480   19.3050 H   0  0  0  0  0  0  0  0  0  0  0  0
  -30.8130  -19.0080   19.3300 C   0  0  0  0  0  3  0  0  0  0  0  0
  -30.5160  -17.6340   19.4100 C   0  0  0  0  0  3  0  0  0  0  0  0
  -31.1820  -19.0680   21.7270 C   0  0  0  0  0  3  0  0  0  0  0  0
  -30.8750  -17.6820   21.8120 C   0  0  0  0  0  0  0  0  0  0  0  0
  -31.1630  -19.7420   20.4800 C   0  0  0  0  0  0  0  0  0  0  0  0
  -30.5630  -16.9420   20.6410 C   0  0  0  0  0  0  0  0  0  0  0  0
  -30.9110  -16.9850   23.1630 C   0  0  0  0  0  1  0  0  0  0  0  0
  -30.8250  -14.5450   20.0020 C   0  0  0  0  0  0  0  0  0  0  0  0
  -30.4450  -12.3780   18.8900 C   0  0  0  0  0  2  0  0  0  0  0  0
  -29.4410  -12.5790   17.7380 C   0  0  0  0  0  2  0  0  0  0  0  0
  -27.9930  -12.4320   18.2460 C   0  0  0  0  0  2  0  0  0  0  0  0
  -27.7240  -13.2690   19.5260 C   0  0  0  0  0  3  0  0  0  0  0  0
  -28.8450  -13.0770   20.5740 C   0  0  0  0  0  2  0  0  0  0  0  0
  -30.1360  -13.3720   19.9320 N   0  0  0  0  0  0  0  0  0  0  0  0
  -31.8880  -14.7190   19.4010 O   0  0  0  0  0  0  0  0  0  0  0  0
  -30.2510  -15.5420   20.7130 N   0  0  0  0  0  0  0  0  0  0  0  0
  -29.4720  -15.2770   21.2950 H   0  0  0  0  0  0  0  0  0  0  0  0
  -25.3880  -13.8560   20.4390 C   0  0  0  0  0  0  0  0  0  0  0  0
  -24.3400  -13.0750   20.8470 C   0  0  0  0  0  0  0  0  0  0  0  0
  -24.7790  -11.7230   20.7100 C   0  0  0  0  0  0  0  0  0  0  0  0
  -26.4030  -12.9790   20.0850 N   0  0  0  0  0  0  0  0  0  0  0  0
  -26.0430  -11.6870   20.3030 N   0  0  0  0  0  0  0  0  0  0  0  0
  -24.0500  -10.4600   20.8880 C   0  0  0  0  0  0  0  0  0  0  0  0
  -24.4590   -9.4980   21.8390 C   0  0  0  0  0  3  0  0  0  0  0  0
  -23.7310   -8.3000   22.0050 C   0  0  0  0  0  3  0  0  0  0  0  0
  -22.5800   -8.0540   21.2190 C   0  0  0  0  0  0  0  0  0  0  0  0
  -22.1900   -9.0040   20.2560 C   0  0  0  0  0  3  0  0  0  0  0  0
  -22.9200  -10.1930   20.0900 C   0  0  0  0  0  3  0  0  0  0  0  0
  -21.8240   -6.9090   21.2920 O   0  0  0  0  0  0  0  0  0  0  0  0
  -21.6220   -6.2550   22.4810 C   0  0  0  0  0  0  0  0  0  0  0  0
  -21.0060   -6.8870   23.5840 C   0  0  0  0  0  3  0  0  0  0  0  0
  -20.7560   -6.1580   24.7640 C   0  0  0  0  0  3  0  0  0  0  0  0
  -21.1080   -4.7970   24.8390 C   0  0  0  0  0  0  0  0  0  0  0  0
  -21.7170   -4.1650   23.7390 C   0  0  0  0  0  3  0  0  0  0  0  0
  -21.9680   -4.8920   22.5620 C   0  0  0  0  0  0  0  0  0  0  0  0
  -22.5350   -4.2720   21.4990 F   0  0  0  0  0  0  0  0  0  0  0  0
  -20.8620   -4.0930   25.9680 F   0  0  0  0  0  0  0  0  0  0  0  0
  -22.9740  -13.5500   21.2510 C   0  0  0  0  0  0  0  0  0  0  0  0
  -22.3070  -12.8240   22.1410 N   0  0  0  0  0  0  0  0  0  0  0  0
  -22.5090  -14.6020   20.8130 O   0  0  0  0  0  0  0  0  0  0  0  0
  -22.6960  -11.9700   22.5170 H   0  0  0  0  0  0  0  0  0  0  0  0
  -21.3940  -13.1230   22.4510 H   0  0  0  0  0  0  0  0  0  0  0  0
  -25.5580  -15.2330   20.3250 N   0  0  0  0  0  0  0  0  0  0  0  0
  -24.8100  -15.8870   20.5330 H   0  0  0  0  0  0  0  0  0  0  0  0
  -26.3920  -15.6860   19.9740 H   0  0  0  0  0  0  0  0  0  0  0  0
  -32.0240  -23.3930   21.0530 C   0  0  0  0  0  2  0  0  0  0  0  0
  -32.0590  -24.1970   19.7250 C   0  0  0  0  0  2  0  0  0  0  0  0
  -32.9950  -25.2730   19.8110 O   0  0  0  0  0  0  0  0  0  0  0  0
  -31.7940  -26.9620   18.4740 C   0  0  0  0  0  1  0  0  0  0  0  0
  -34.2170  -27.1510   19.1080 C   0  0  0  0  0  1  0  0  0  0  0  0
  -33.5220  -25.4410   17.4090 C   0  0  0  0  0  1  0  0  0  0  0  0
  -33.1020  -26.1770   18.6980 C   0  0  1  0  0  0  0  0  0  0  0  0
  1 96  1  0
  2  1  1  0
  2  3  1  0
  3  5  1  0
  4  2  2  0
  6  3  1  0
  7  8  1  0
  7  6  1  0
  8 10  1  0
  9 20  2  0
 10 15  1  0
 11 19  1  0
 11 21  1  0
 12 18  1  0
 12 14  1  0
 13 19  1  0
 14 13  1  0
 15 14  2  0
 16 17  1  0
 16 10  2  0
 17 12  2  0
 18 11  1  0
 19  9  1  0
 21 23  2  0
 22 21  1  0
 24 22  1  0
 25 34  2  0
 25 30  1  0
 26 22  1  0
 26 30  1  0
 27 26  1  0
 28 29  1  0
 28 27  1  0
 29 25  1  0
 30 31  2  0
 31 32  1  0
 33 32  2  0
 34 33  1  0
 35  9  1  0
 35 40  1  0
 35 36  1  0
 36 39  1  1
 36 37  1  0
 38 36  1  0
 40 43  1  0
 41 45  1  0
 41 40  1  0
 42 41  2  0
 45 44  1  0
 47 45  1  0
 47 48  1  0
 47 46  1  0
 49 55  1  0
 49  1  1  0
 50 49  1  0
 51 52  2  0
 51 55  1  0
 52 56  1  0
 53 54  1  0
 54 57  1  0
 55 53  2  0
 56 66  1  0
 56 54  2  0
 58 66  1  0
 59 64  1  0
 60 61  1  0
 60 59  1  0
 62 61  1  0
 62 71  1  0
 62 63  1  0
 64 58  1  0
 64 63  1  0
 65 58  2  0
 66 67  1  0
 68 69  2  0
 69 88  1  0
 70 69  1  0
 70 73  1  0
 71 72  1  0
 71 68  1  0
 72 70  2  0
 73 74  1  0
 74 75  2  0
 76 79  1  0
 76 75  1  0
 77 76  2  0
 78 77  1  0
 78 73  2  0
 79 80  1  0
 80 85  2  0
 80 81  1  0
 81 82  2  0
 82 83  1  0
 83 87  1  0
 84 83  2  0
 85 84  1  0
 86 85  1  0
 88 89  1  0
 89 92  1  0
 89 91  1  0
 90 88  2  0
 93 68  1  0
 93 94  1  0
 95 93  1  0
 97 98  1  0
 97 96  1  0
102 99  1  6
101102  1  0
102100  1  0
102 98  1  0
M  ISO  4   7 101   8 101  58 100  66 100
M  END
>  <TORSDO>  (36) 
F 25

>  <SCORE>  (36) 
-11.196

>  <name>  (36) 
35

>  <ligand_id>  (36) 
35

>  <original_smiles>  (36) 
[H]c1c([H])c([H])c2c(c1[H])C([H])([H])C([H])([H])C([H])([H])C2([H])N([H])C(=O)C1([H])N(C(=O)C([H])(N([H])C(=O)C([H])(N([H])C([H])([H])[H])C([H])([H])[H])C(C([H])([H])[H])(C([H])([H])[H])C([H])([H])[H])C([H])([H])c2c([H])c(OC([H])([H])C([H])([H])N([H])C(=O)C([H])(N([H])c3c([H])c([H])c(N([H])C(=O)N4C([H])([H])C([H])([H])C([H])([H])C([H])(n5nc(-c6c([H])c([H])c(Oc7c([H])c([H])c(F)c([H])c7F)c([H])c6[H])c(C(=O)N([H])[H])c5N([H])[H])C4([H])[H])c(C([H])([H])[H])c3[H])C([H])([H])C([H])([H])OC(C([H])([H])[H])(C([H])([H])[H])C([H])([H])[H])c([H])c([H])c2C1([H])[H]

>  <smiles>  (36) 
[H]c1c([H])c([H])c2c(c1[H])C([H])([H])C([H])([H])C([H])([H])C2([H])N([H])C(=O)C1([H])N(C(=O)C([H])(N([H])C(=O)C([H])(N([H])C([H])([H])[H])C([H])([H])[H])C(C([H])([H])[H])(C([H])([H])[H])C([H])([H])[H])C([H])([H])c2c([H])c(OC([H])([H])C([H])([H])N([H])C(=O)C([H])(N([H])c3c([H])c([H])c(N([H])C(=O)N4C([H])([H])C([H])([H])C([H])([H])C([H])(n5nc(-c6c([H])c([H])c(Oc7c([H])c([H])c(F)c([H])c7F)c([H])c6[H])c(C(=O)N([H])[H])c5N([H])[H])C4([H])[H])c(C([H])([H])[H])c3[H])C([H])([H])C([H])([H])OC(C([H])([H])[H])(C([H])([H])[H])C([H])([H])[H])c([H])c([H])c2C1([H])[H]

$$$$
36:0:0
     RDKit          3D

 94102  0  0  1  0  0  0  0  0999 V2000
  -30.9270  -20.7410   20.6260 C   0  0  0  0  0  3  0  0  0  0  0  0
  -31.3880  -18.3080   20.6510 C   0  0  0  0  0  3  0  0  0  0  0  0
  -29.1420  -19.1450   20.3080 C   0  0  0  0  0  3  0  0  0  0  0  0
  -31.8410  -19.6530   20.7370 C   0  0  0  0  0  0  0  0  0  0  0  0
  -29.5380  -20.5990   20.4020 C   0  0  0  0  0  0  0  0  0  0  0  0
  -30.0450  -17.9390   20.4230 C   0  0  0  0  0  0  0  0  0  0  0  0
  -30.5160  -15.1880   20.2830 C   0  0  0  0  0  0  0  0  0  0  0  0
  -30.4310  -12.8040   19.3650 C   0  0  0  0  0  2  0  0  0  0  0  0
  -29.4860  -12.6910   18.1450 C   0  0  0  0  0  2  0  0  0  0  0  0
  -28.0370  -12.4450   18.6020 C   0  0  0  0  0  2  0  0  0  0  0  0
  -27.6200  -13.3800   19.7660 C   0  0  0  0  0  3  0  0  0  0  0  0
  -28.6890  -13.4600   20.8760 C   0  0  0  0  0  2  0  0  0  0  0  0
  -29.9300  -13.9140   20.2350 N   0  0  0  0  0  0  0  0  0  0  0  0
  -31.7260  -15.2160   20.0260 O   0  0  0  0  0  0  0  0  0  0  0  0
  -29.7340  -16.4030   20.3790 N   0  0  0  0  0  0  0  0  0  0  0  0
  -28.7480  -16.1970   20.4320 H   0  0  0  0  0  0  0  0  0  0  0  0
  -25.2520  -13.9180   20.5620 C   0  0  0  0  0  0  0  0  0  0  0  0
  -24.2020  -13.1270   20.9370 C   0  0  0  0  0  0  0  0  0  0  0  0
  -24.6790  -11.7820   20.8800 C   0  0  0  0  0  0  0  0  0  0  0  0
  -26.2980  -13.0550   20.2890 N   0  0  0  0  0  0  0  0  0  0  0  0
  -25.9670  -11.7630   20.5490 N   0  0  0  0  0  0  0  0  0  0  0  0
  -23.9670  -10.5100   21.0620 C   0  0  0  0  0  0  0  0  0  0  0  0
  -24.4130   -9.5380   21.9840 C   0  0  0  0  0  3  0  0  0  0  0  0
  -23.6980   -8.3320   22.1560 C   0  0  0  0  0  3  0  0  0  0  0  0
  -22.5220   -8.0920   21.4060 C   0  0  0  0  0  0  0  0  0  0  0  0
  -22.0950   -9.0540   20.4730 C   0  0  0  0  0  3  0  0  0  0  0  0
  -22.8120  -10.2490   20.2990 C   0  0  0  0  0  3  0  0  0  0  0  0
  -21.7770   -6.9400   21.4870 O   0  0  0  0  0  0  0  0  0  0  0  0
  -21.7290   -6.1950   22.6390 C   0  0  0  0  0  0  0  0  0  0  0  0
  -21.2640   -6.7360   23.8570 C   0  0  0  0  0  3  0  0  0  0  0  0
  -21.1640   -5.9160   24.9990 C   0  0  0  0  0  3  0  0  0  0  0  0
  -21.5190   -4.5570   24.9240 C   0  0  0  0  0  0  0  0  0  0  0  0
  -21.9770   -4.0150   23.7100 C   0  0  0  0  0  3  0  0  0  0  0  0
  -22.0780   -4.8310   22.5700 C   0  0  0  0  0  0  0  0  0  0  0  0
  -22.5000   -4.2990   21.3970 F   0  0  0  0  0  0  0  0  0  0  0  0
  -21.4160   -3.7660   26.0180 F   0  0  0  0  0  0  0  0  0  0  0  0
  -22.8050  -13.5880   21.2320 C   0  0  0  0  0  0  0  0  0  0  0  0
  -22.0960  -12.8750   22.1000 N   0  0  0  0  0  0  0  0  0  0  0  0
  -22.3520  -14.6150   20.7310 O   0  0  0  0  0  0  0  0  0  0  0  0
  -22.4760  -12.0440   22.5270 H   0  0  0  0  0  0  0  0  0  0  0  0
  -21.1590  -13.1660   22.3420 H   0  0  0  0  0  0  0  0  0  0  0  0
  -25.3960  -15.2930   20.3990 N   0  0  0  0  0  0  0  0  0  0  0  0
  -24.6170  -15.9300   20.5250 H   0  0  0  0  0  0  0  0  0  0  0  0
  -26.2170  -15.7460   20.0200 H   0  0  0  0  0  0  0  0  0  0  0  0
  -33.5450  -20.0360   22.5290 C   0  0  0  0  0  1  0  0  0  0  0  0
  -33.8200  -21.2530   20.3550 C   0  0  0  0  0  1  0  0  0  0  0  0
  -34.2600  -18.8220   20.4580 C   0  0  0  0  0  1  0  0  0  0  0  0
  -33.3390  -19.9360   21.0080 C   0  0  2  0  0  0  0  0  0  0  0  0
  -28.9290  -23.3410   20.4020 C   0  0  0  0  0  0  0  0  0  0  0  0
  -28.6790  -21.9130   20.2830 N   0  0  0  0  0  0  0  0  0  0  0  0
  -30.0580  -23.7200   20.7180 O   0  0  0  0  0  0  0  0  0  0  0  0
  -27.7110  -21.7330   20.0550 H   0  0  0  0  0  0  0  0  0  0  0  0
  -27.8300  -24.6010   20.1630 C   0  0  0  0  0  2  0  0  0  0  0  0
  -28.1520  -26.1500   20.3310 O   0  0  0  0  0  0  0  0  0  0  0  0
  -24.6030  -31.9960   23.2590 C   0  0  0  0  0  0  0  0  0  0  0  0
  -27.1230  -27.1840   20.2600 C   0  0  0  0  0  0  0  0  0  0  0  0
  -23.3840  -30.5880   21.6460 C   0  0  0  0  0  3  0  0  0  0  0  0
  -24.8120  -28.9840   20.2240 C   0  0  0  0  0  0  0  0  0  0  0  0
  -25.9420  -30.8220   21.4620 C   0  0  0  0  0  2  0  0  0  0  0  0
  -26.0020  -29.4180   20.8210 C   0  0  0  0  0  0  0  0  0  0  0  0
  -27.1570  -28.5360   20.8180 C   0  0  0  0  0  3  0  0  0  0  0  0
  -25.9040  -26.8710   19.6180 C   0  0  0  0  0  3  0  0  0  0  0  0
  -24.7790  -27.7260   19.6050 C   0  0  0  0  0  3  0  0  0  0  0  0
  -23.5920  -29.8950   20.2740 C   0  0  0  0  0  2  0  0  0  0  0  0
  -24.6650  -31.1600   22.1760 N   0  0  0  0  0  0  0  0  0  0  0  0
  -23.5220  -32.2930   23.7910 O   0  0  0  0  0  0  0  0  0  0  0  0
  -22.7040  -29.5980   22.6260 C   0  0  0  0  0  0  0  0  0  0  0  0
  -21.3800  -29.4080   22.4920 N   0  0  0  0  0  0  0  0  0  0  0  0
  -23.3740  -29.0010   23.4740 O   0  0  0  0  0  0  0  0  0  0  0  0
  -20.8940  -29.9410   21.7830 H   0  0  0  0  0  0  0  0  0  0  0  0
  -18.0150  -28.1480   22.9720 C   0  0  0  0  0  0  0  0  0  0  0  0
  -20.5630  -28.4780   23.2770 C   0  0  0  0  0  3  0  0  0  0  0  0
  -20.7060  -27.0310   22.7530 C   0  0  0  0  0  2  0  0  0  0  0  0
  -19.6330  -26.6500   21.7300 C   0  0  0  0  0  2  0  0  0  0  0  0
  -18.2350  -26.7830   22.3420 C   0  0  0  0  0  2  0  0  0  0  0  0
  -19.1080  -28.9510   23.3960 C   0  0  0  0  0  0  0  0  0  0  0  0
  -18.8460  -30.2240   23.9460 C   0  0  0  0  0  3  0  0  0  0  0  0
  -17.5270  -30.6980   24.0760 C   0  0  0  0  0  3  0  0  0  0  0  0
  -16.4490  -29.8940   23.6660 C   0  0  0  0  0  3  0  0  0  0  0  0
  -16.6950  -28.6200   23.1200 C   0  0  0  0  0  3  0  0  0  0  0  0
  -25.8880  -32.6350   23.8690 C   0  0  0  0  0  3  0  0  0  0  0  0
  -26.4170  -31.8660   25.1420 C   0  0  1  0  0  0  0  0  0  0  0  0
  -25.3310  -31.6160   26.2150 C   0  0  0  0  0  1  0  0  0  0  0  0
  -27.0120  -30.4950   24.7510 C   0  0  0  0  0  1  0  0  0  0  0  0
  -27.5630  -32.6710   25.8000 C   0  0  0  0  0  1  0  0  0  0  0  0
  -25.5760  -34.0330   24.2100 N   0  0  0  0  0  0  0  0  0  0  0  0
  -25.8780  -35.0930   23.4470 C   0  0  0  0  0  0  0  0  0  0  0  0
  -26.5140  -34.9970   22.3950 O   0  0  0  0  0  0  0  0  0  0  0  0
  -25.0070  -34.1800   25.0300 H   0  0  0  0  0  0  0  0  0  0  0  0
  -24.1260  -36.8790   23.1700 C   0  0  0  0  0  1  0  0  0  0  0  0
  -25.4020  -36.4790   23.9280 C   0  0  0  0  0  3  0  0  0  0  0  0
  -27.5600  -37.3830   24.6780 C   0  0  0  0  0  1  0  0  0  0  0  0
  -26.4230  -37.5390   23.7740 N   0  0  0  0  0  0  0  0  0  0  0  0
  -26.0160  -38.4560   23.9330 H   0  0  0  0  0  0  0  0  0  0  0  0
  1  4  1  0
  2  4  2  0
  3  5  1  0
  3  6  2  0
  4 48  1  0
  5  1  2  0
  6  2  1  0
  7 15  1  0
  8 13  1  0
  9 10  1  0
  9  8  1  0
 11 10  1  0
 11 20  1  0
 11 12  1  0
 13  7  1  0
 13 12  1  0
 14  7  2  0
 15  6  1  0
 15 16  1  0
 17 18  2  0
 18 37  1  0
 19 18  1  0
 19 22  1  0
 20 21  1  0
 20 17  1  0
 21 19  2  0
 22 23  1  0
 23 24  2  0
 25 28  1  0
 25 24  1  0
 26 25  2  0
 27 26  1  0
 27 22  2  0
 28 29  1  0
 29 30  1  0
 30 31  2  0
 32 31  1  0
 32 36  1  0
 33 32  2  0
 34 29  2  0
 34 33  1  0
 35 34  1  0
 37 38  1  0
 38 41  1  0
 38 40  1  0
 39 37  2  0
 42 43  1  0
 42 17  1  0
 44 42  1  0
 48 46  1  6
 47 48  1  0
 48 45  1  0
 49 51  2  0
 50 49  1  0
 50  5  1  0
 52 50  1  0
 53 54  1  0
 53 49  1  0
 55 66  2  0
 56 54  1  0
 56 61  1  0
 57 65  1  0
 57 67  1  0
 58 64  1  0
 58 60  1  0
 59 65  1  0
 60 59  1  0
 61 60  2  0
 62 56  2  0
 63 62  1  0
 63 58  2  0
 64 57  1  0
 65 55  1  0
 67 69  2  0
 68 67  1  0
 70 68  1  0
 71 80  2  0
 71 76  1  0
 72 68  1  0
 72 76  1  0
 73 72  1  0
 74 75  1  0
 74 73  1  0
 75 71  1  0
 76 77  2  0
 77 78  1  0
 79 78  2  0
 80 79  1  0
 81 55  1  0
 81 86  1  0
 81 82  1  0
 82 85  1  1
 82 83  1  0
 84 82  1  0
 86 89  1  0
 87 91  1  0
 87 86  1  0
 88 87  2  0
 91 90  1  0
 93 91  1  0
 93 94  1  0
 93 92  1  0
M  ISO  4   7 100  15 100  53 101  54 101
M  END
>  <TORSDO>  (37) 
F 19

>  <SCORE>  (37) 
-14.502

>  <name>  (37) 
36

>  <ligand_id>  (37) 
36

>  <original_smiles>  (37) 
[H]c1c([H])c([H])c2c(c1[H])C([H])([H])C([H])([H])C([H])([H])C2([H])N([H])C(=O)C1([H])N(C(=O)C([H])(N([H])C(=O)C([H])(N([H])C([H])([H])[H])C([H])([H])[H])C(C([H])([H])[H])(C([H])([H])[H])C([H])([H])[H])C([H])([H])c2c([H])c(OC([H])([H])C(=O)N([H])c3c([H])c(N([H])C(=O)N4C([H])([H])C([H])([H])C([H])([H])C([H])(n5nc(-c6c([H])c([H])c(Oc7c([H])c([H])c(F)c([H])c7F)c([H])c6[H])c(C(=O)N([H])[H])c5N([H])[H])C4([H])[H])c([H])c(C(C([H])([H])[H])(C([H])([H])[H])C([H])([H])[H])c3[H])c([H])c([H])c2C1([H])[H]

>  <smiles>  (37) 
[H]c1c([H])c([H])c2c(c1[H])C([H])([H])C([H])([H])C([H])([H])C2([H])N([H])C(=O)C1([H])N(C(=O)C([H])(N([H])C(=O)C([H])(N([H])C([H])([H])[H])C([H])([H])[H])C(C([H])([H])[H])(C([H])([H])[H])C([H])([H])[H])C([H])([H])c2c([H])c(OC([H])([H])C(=O)N([H])c3c([H])c(N([H])C(=O)N4C([H])([H])C([H])([H])C([H])([H])C([H])(n5nc(-c6c([H])c([H])c(Oc7c([H])c([H])c(F)c([H])c7F)c([H])c6[H])c(C(=O)N([H])[H])c5N([H])[H])C4([H])[H])c([H])c(C(C([H])([H])[H])(C([H])([H])[H])C([H])([H])[H])c3[H])c([H])c([H])c2C1([H])[H]

$$$$
37:0:0
     RDKit          3D

 92100  0  0  1  0  0  0  0  0999 V2000
  -30.8840  -18.6190   19.5650 C   0  0  0  0  0  3  0  0  0  0  0  0
  -30.6010  -19.9660   19.0620 C   0  0  0  0  0  3  0  0  0  0  0  0
  -28.5980  -18.1020   19.3690 C   0  0  0  0  0  3  0  0  0  0  0  0
  -28.2800  -19.4350   18.8750 C   0  0  0  0  0  0  0  0  0  0  0  0
  -29.8860  -17.5950   19.7250 C   0  0  0  0  0  0  0  0  0  0  0  0
  -29.2980  -20.4440   18.6670 C   0  0  0  0  0  0  0  0  0  0  0  0
  -30.8700  -15.0170   20.1270 C   0  0  0  0  0  0  0  0  0  0  0  0
  -30.8600  -12.5210   19.6780 C   0  0  0  0  0  2  0  0  0  0  0  0
  -29.9990  -12.2330   18.4240 C   0  0  0  0  0  2  0  0  0  0  0  0
  -28.5090  -12.0980   18.7970 C   0  0  0  0  0  2  0  0  0  0  0  0
  -28.0330  -13.2300   19.7440 C   0  0  0  0  0  3  0  0  0  0  0  0
  -29.0150  -13.4450   20.9160 C   0  0  0  0  0  2  0  0  0  0  0  0
  -30.3290  -13.7500   20.3300 N   0  0  0  0  0  0  0  0  0  0  0  0
  -32.0680  -15.0990   19.8290 O   0  0  0  0  0  0  0  0  0  0  0  0
  -29.9850  -16.1210   20.1390 N   0  0  0  0  0  0  0  0  0  0  0  0
  -29.1040  -15.7910   20.5000 H   0  0  0  0  0  0  0  0  0  0  0  0
  -25.6650  -13.9690   20.3860 C   0  0  0  0  0  0  0  0  0  0  0  0
  -24.5470  -13.2670   20.7430 C   0  0  0  0  0  0  0  0  0  0  0  0
  -24.9320  -11.8920   20.7600 C   0  0  0  0  0  0  0  0  0  0  0  0
  -26.6620  -13.0270   20.2010 N   0  0  0  0  0  0  0  0  0  0  0  0
  -26.2270  -11.7730   20.4910 N   0  0  0  0  0  0  0  0  0  0  0  0
  -24.1290  -10.6780   20.9590 C   0  0  0  0  0  0  0  0  0  0  0  0
  -24.5190   -9.6750   21.8730 C   0  0  0  0  0  3  0  0  0  0  0  0
  -23.7190   -8.5260   22.0610 C   0  0  0  0  0  3  0  0  0  0  0  0
  -22.5130   -8.3750   21.3360 C   0  0  0  0  0  0  0  0  0  0  0  0
  -22.1410   -9.3660   20.4110 C   0  0  0  0  0  3  0  0  0  0  0  0
  -22.9410  -10.5060   20.2210 C   0  0  0  0  0  3  0  0  0  0  0  0
  -21.6870   -7.2820   21.4350 O   0  0  0  0  0  0  0  0  0  0  0  0
  -21.6830   -6.4820   22.5490 C   0  0  0  0  0  0  0  0  0  0  0  0
  -21.4170   -6.9970   23.8360 C   0  0  0  0  0  3  0  0  0  0  0  0
  -21.3520   -6.1280   24.9430 C   0  0  0  0  0  3  0  0  0  0  0  0
  -21.5430   -4.7450   24.7650 C   0  0  0  0  0  0  0  0  0  0  0  0
  -21.8020   -4.2290   23.4840 C   0  0  0  0  0  3  0  0  0  0  0  0
  -21.8680   -5.0950   22.3780 C   0  0  0  0  0  0  0  0  0  0  0  0
  -22.0970   -4.5890   21.1420 F   0  0  0  0  0  0  0  0  0  0  0  0
  -21.4730   -3.9090   25.8280 F   0  0  0  0  0  0  0  0  0  0  0  0
  -23.1720  -13.8300   20.9570 C   0  0  0  0  0  0  0  0  0  0  0  0
  -22.3980  -13.2350   21.8570 N   0  0  0  0  0  0  0  0  0  0  0  0
  -22.7930  -14.8360   20.3570 O   0  0  0  0  0  0  0  0  0  0  0  0
  -22.7170  -12.4220   22.3640 H   0  0  0  0  0  0  0  0  0  0  0  0
  -21.4750  -13.5980   22.0440 H   0  0  0  0  0  0  0  0  0  0  0  0
  -25.9100  -15.3230   20.1770 N   0  0  0  0  0  0  0  0  0  0  0  0
  -25.1680  -16.0110   20.2300 H   0  0  0  0  0  0  0  0  0  0  0  0
  -26.7700  -15.6990   19.7980 H   0  0  0  0  0  0  0  0  0  0  0  0
  -25.7960  -18.6670   18.9810 C   0  0  0  0  0  1  0  0  0  0  0  0
  -26.6100  -19.9360   17.0190 C   0  0  0  0  0  1  0  0  0  0  0  0
  -26.3300  -21.0480   19.2780 C   0  0  0  0  0  1  0  0  0  0  0  0
  -26.7940  -19.7680   18.5430 C   0  0  2  0  0  0  0  0  0  0  0  0
  -28.9560  -21.6820   17.9600 O   0  0  0  0  0  0  0  0  0  0  0  0
  -29.4980  -23.1140   17.9720 C   0  0  0  0  0  3  0  0  0  0  0  0
  -28.4310  -24.4100   17.7910 C   0  0  0  0  0  3  0  0  0  0  0  0
  -28.6260  -25.9360   18.0250 O   0  0  0  0  0  0  0  0  0  0  0  0
  -24.9960  -30.3430   22.6820 C   0  0  0  0  0  0  0  0  0  0  0  0
  -27.5060  -26.7980   18.3100 C   0  0  0  0  0  0  0  0  0  0  0  0
  -23.7070  -29.3040   20.8540 C   0  0  0  0  0  3  0  0  0  0  0  0
  -25.0820  -28.2730   18.9440 C   0  0  0  0  0  0  0  0  0  0  0  0
  -26.2040  -29.8290   20.5280 C   0  0  0  0  0  2  0  0  0  0  0  0
  -26.2910  -28.6580   19.5360 C   0  0  0  0  0  0  0  0  0  0  0  0
  -27.5020  -27.9410   19.2070 C   0  0  0  0  0  3  0  0  0  0  0  0
  -26.2570  -26.5160   17.7120 C   0  0  0  0  0  3  0  0  0  0  0  0
  -25.0740  -27.2200   18.0200 C   0  0  0  0  0  3  0  0  0  0  0  0
  -23.8140  -29.0170   19.3320 C   0  0  0  0  0  2  0  0  0  0  0  0
  -24.9940  -29.8340   21.4110 N   0  0  0  0  0  0  0  0  0  0  0  0
  -23.9600  -30.3880   23.3630 O   0  0  0  0  0  0  0  0  0  0  0  0
  -23.2050  -28.0310   21.5790 C   0  0  0  0  0  0  0  0  0  0  0  0
  -21.9140  -27.6950   21.4040 N   0  0  0  0  0  0  0  0  0  0  0  0
  -23.9770  -27.3560   22.2640 O   0  0  0  0  0  0  0  0  0  0  0  0
  -21.3390  -28.3050   20.8400 H   0  0  0  0  0  0  0  0  0  0  0  0
  -18.8220  -25.8070   21.4190 C   0  0  0  0  0  0  0  0  0  0  0  0
  -21.2520  -26.5100   21.9570 C   0  0  0  0  0  3  0  0  0  0  0  0
  -21.6780  -25.2310   21.2000 C   0  0  0  0  0  2  0  0  0  0  0  0
  -20.7310  -24.8660   20.0530 C   0  0  0  0  0  2  0  0  0  0  0  0
  -19.3120  -24.6400   20.5800 C   0  0  0  0  0  2  0  0  0  0  0  0
  -19.7330  -26.6940   22.0530 C   0  0  0  0  0  0  0  0  0  0  0  0
  -19.2230  -27.7820   22.7950 C   0  0  0  0  0  3  0  0  0  0  0  0
  -17.8360  -27.9890   22.9110 C   0  0  0  0  0  3  0  0  0  0  0  0
  -16.9390  -27.1020   22.2920 C   0  0  0  0  0  3  0  0  0  0  0  0
  -17.4330  -26.0110   21.5530 C   0  0  0  0  0  3  0  0  0  0  0  0
  -26.2950  -30.9090   23.3310 C   0  0  0  0  0  3  0  0  0  0  0  0
  -26.9590  -29.9110   24.3580 C   0  0  1  0  0  0  0  0  0  0  0  0
  -25.9830  -29.3840   25.4360 C   0  0  0  0  0  1  0  0  0  0  0  0
  -27.5550  -28.6860   23.6280 C   0  0  0  0  0  1  0  0  0  0  0  0
  -28.1350  -30.6090   25.0800 C   0  0  0  0  0  1  0  0  0  0  0  0
  -25.9470  -32.1740   23.9990 N   0  0  0  0  0  0  0  0  0  0  0  0
  -26.3110  -33.3890   23.5680 C   0  0  0  0  0  0  0  0  0  0  0  0
  -27.0410  -33.5590   22.5880 O   0  0  0  0  0  0  0  0  0  0  0  0
  -25.3070  -32.1130   24.7760 H   0  0  0  0  0  0  0  0  0  0  0  0
  -24.6460  -35.2750   23.5590 C   0  0  0  0  0  1  0  0  0  0  0  0
  -25.7850  -34.6110   24.3480 C   0  0  0  0  0  3  0  0  0  0  0  0
  -27.8160  -35.1460   25.6210 C   0  0  0  0  0  1  0  0  0  0  0  0
  -26.8310  -35.6140   24.6500 N   0  0  0  0  0  0  0  0  0  0  0  0
  -26.4160  -36.4700   25.0060 H   0  0  0  0  0  0  0  0  0  0  0  0
  1  5  1  0
  2  1  2  0
  3  5  2  0
  4  3  1  0
  5 15  1  0
  6  4  2  0
  6  2  1  0
  7 15  1  0
  7 13  1  0
  8 13  1  0
  9 10  1  0
  9  8  1  0
 11 10  1  0
 11 20  1  0
 11 12  1  0
 13 12  1  0
 14  7  2  0
 15 16  1  0
 17 18  2  0
 18 19  1  0
 18 37  1  0
 19 22  1  0
 20 17  1  0
 20 21  1  0
 21 19  2  0
 22 23  1  0
 23 24  2  0
 25 28  1  0
 25 24  1  0
 26 25  2  0
 27 26  1  0
 27 22  2  0
 28 29  1  0
 29 30  1  0
 30 31  2  0
 32 31  1  0
 32 36  1  0
 33 32  2  0
 34 29  2  0
 34 33  1  0
 35 34  1  0
 37 38  1  0
 38 41  1  0
 38 40  1  0
 39 37  2  0
 42 43  1  0
 42 17  1  0
 44 42  1  0
 48 46  1  6
 48  4  1  0
 48 45  1  0
 48 47  1  0
 49 50  1  0
 49  6  1  0
 51 50  2  0
 51 52  1  0
 52 54  1  0
 53 64  2  0
 54 59  1  0
 55 63  1  0
 55 65  1  0
 56 62  1  0
 56 58  1  0
 57 63  1  0
 58 57  1  0
 59 58  2  0
 60 61  1  0
 60 54  2  0
 61 56  2  0
 62 55  1  0
 63 53  1  0
 65 67  2  0
 66 65  1  0
 68 66  1  0
 69 78  2  0
 69 74  1  0
 70 66  1  0
 70 74  1  0
 71 70  1  0
 72 73  1  0
 72 71  1  0
 73 69  1  0
 74 75  2  0
 75 76  1  0
 77 76  2  0
 78 77  1  0
 79 53  1  0
 79 84  1  0
 79 80  1  0
 80 83  1  1
 80 81  1  0
 82 80  1  0
 84 87  1  0
 85 84  1  0
 85 89  1  0
 86 85  2  0
 89 88  1  0
 89 91  1  0
 91 92  1  0
 91 90  1  0
M  ISO  4   7 100  15 100  51 101  52 101
M  END
>  <TORSDO>  (38) 
F 20

>  <SCORE>  (38) 
-9.466

>  <name>  (38) 
37

>  <ligand_id>  (38) 
37

>  <original_smiles>  (38) 
[H]c1c([H])c([H])c2c(c1[H])C([H])([H])C([H])([H])C([H])([H])C2([H])N([H])C(=O)C1([H])N(C(=O)C([H])(N([H])C(=O)C([H])(N([H])C([H])([H])[H])C([H])([H])[H])C(C([H])([H])[H])(C([H])([H])[H])C([H])([H])[H])C([H])([H])c2c([H])c(OC([H])([H])C([H])([H])Oc3c([H])c([H])c(N([H])C(=O)N4C([H])([H])C([H])([H])C([H])([H])C([H])(n5nc(-c6c([H])c([H])c(Oc7c([H])c([H])c(F)c([H])c7F)c([H])c6[H])c(C(=O)N([H])[H])c5N([H])[H])C4([H])[H])c([H])c3C(C([H])([H])[H])(C([H])([H])[H])C([H])([H])[H])c([H])c([H])c2C1([H])[H]

>  <smiles>  (38) 
[H]c1c([H])c([H])c2c(c1[H])C([H])([H])C([H])([H])C([H])([H])C2([H])N([H])C(=O)C1([H])N(C(=O)C([H])(N([H])C(=O)C([H])(N([H])C([H])([H])[H])C([H])([H])[H])C(C([H])([H])[H])(C([H])([H])[H])C([H])([H])[H])C([H])([H])c2c([H])c(OC([H])([H])C([H])([H])Oc3c([H])c([H])c(N([H])C(=O)N4C([H])([H])C([H])([H])C([H])([H])C([H])(n5nc(-c6c([H])c([H])c(Oc7c([H])c([H])c(F)c([H])c7F)c([H])c6[H])c(C(=O)N([H])[H])c5N([H])[H])C4([H])[H])c([H])c3C(C([H])([H])[H])(C([H])([H])[H])C([H])([H])[H])c([H])c([H])c2C1([H])[H]

$$$$
38:0:0
     RDKit          3D

 92100  0  0  1  0  0  0  0  0999 V2000
  -30.7260  -18.5790   20.1570 C   0  0  0  0  0  3  0  0  0  0  0  0
  -30.4530  -19.9980   19.8930 C   0  0  0  0  0  3  0  0  0  0  0  0
  -28.5000  -18.0650   19.5910 C   0  0  0  0  0  3  0  0  0  0  0  0
  -28.2180  -19.4580   19.3120 C   0  0  0  0  0  0  0  0  0  0  0  0
  -29.7510  -17.5240   20.0140 C   0  0  0  0  0  0  0  0  0  0  0  0
  -29.1810  -20.5180   19.4460 C   0  0  0  0  0  0  0  0  0  0  0  0
  -30.6820  -14.8970   20.1340 C   0  0  0  0  0  0  0  0  0  0  0  0
  -30.5600  -12.4800   19.3830 C   0  0  0  0  0  2  0  0  0  0  0  0
  -29.6350  -12.3780   18.1460 C   0  0  0  0  0  2  0  0  0  0  0  0
  -28.1580  -12.2440   18.5680 C   0  0  0  0  0  2  0  0  0  0  0  0
  -27.7650  -13.2630   19.6670 C   0  0  0  0  0  3  0  0  0  0  0  0
  -28.8040  -13.3030   20.8090 C   0  0  0  0  0  2  0  0  0  0  0  0
  -30.1030  -13.6340   20.2030 N   0  0  0  0  0  0  0  0  0  0  0  0
  -31.8740  -14.9800   19.8180 O   0  0  0  0  0  0  0  0  0  0  0  0
  -29.8220  -16.0120   20.2620 N   0  0  0  0  0  0  0  0  0  0  0  0
  -28.9190  -15.6510   20.5320 H   0  0  0  0  0  0  0  0  0  0  0  0
  -25.4240  -13.9860   20.4180 C   0  0  0  0  0  0  0  0  0  0  0  0
  -24.3140  -13.2750   20.7850 C   0  0  0  0  0  0  0  0  0  0  0  0
  -24.6920  -11.8980   20.7310 C   0  0  0  0  0  0  0  0  0  0  0  0
  -26.4080  -13.0470   20.1610 N   0  0  0  0  0  0  0  0  0  0  0  0
  -25.9770  -11.7840   20.4140 N   0  0  0  0  0  0  0  0  0  0  0  0
  -23.8870  -10.6820   20.9050 C   0  0  0  0  0  0  0  0  0  0  0  0
  -24.2910   -9.6470   21.7770 C   0  0  0  0  0  3  0  0  0  0  0  0
  -23.4910   -8.4970   21.9420 C   0  0  0  0  0  3  0  0  0  0  0  0
  -22.2710   -8.3730   21.2350 C   0  0  0  0  0  0  0  0  0  0  0  0
  -21.8850   -9.3960   20.3500 C   0  0  0  0  0  3  0  0  0  0  0  0
  -22.6860  -10.5380   20.1830 C   0  0  0  0  0  3  0  0  0  0  0  0
  -21.4430   -7.2800   21.3120 O   0  0  0  0  0  0  0  0  0  0  0  0
  -21.4310   -6.4630   22.4140 C   0  0  0  0  0  0  0  0  0  0  0  0
  -21.1630   -6.9600   23.7080 C   0  0  0  0  0  3  0  0  0  0  0  0
  -21.0900   -6.0750   24.8020 C   0  0  0  0  0  3  0  0  0  0  0  0
  -21.2770   -4.6940   24.6040 C   0  0  0  0  0  0  0  0  0  0  0  0
  -21.5400   -4.1960   23.3150 C   0  0  0  0  0  3  0  0  0  0  0  0
  -21.6130   -5.0780   22.2240 C   0  0  0  0  0  0  0  0  0  0  0  0
  -21.8450   -4.5910   20.9810 F   0  0  0  0  0  0  0  0  0  0  0  0
  -21.2000   -3.8420   25.6530 F   0  0  0  0  0  0  0  0  0  0  0  0
  -22.9500  -13.8360   21.0660 C   0  0  0  0  0  0  0  0  0  0  0  0
  -22.1890  -13.1880   21.9400 N   0  0  0  0  0  0  0  0  0  0  0  0
  -22.5710  -14.8850   20.5450 O   0  0  0  0  0  0  0  0  0  0  0  0
  -22.5080  -12.3400   22.3830 H   0  0  0  0  0  0  0  0  0  0  0  0
  -21.2730  -13.5470   22.1690 H   0  0  0  0  0  0  0  0  0  0  0  0
  -25.6710  -15.3460   20.2530 N   0  0  0  0  0  0  0  0  0  0  0  0
  -24.9350  -16.0340   20.3550 H   0  0  0  0  0  0  0  0  0  0  0  0
  -26.4920  -15.7130   19.7920 H   0  0  0  0  0  0  0  0  0  0  0  0
  -26.8070  -19.8250   18.8460 C   0  0  1  0  0  0  0  0  0  0  0  0
  -25.9660  -18.7900   18.8910 F   0  0  0  0  0  0  0  0  0  0  0  0
  -26.3000  -20.7850   19.6200 F   0  0  0  0  0  0  0  0  0  0  0  0
  -26.8420  -20.2630   17.5870 F   0  0  0  0  0  0  0  0  0  0  0  0
  -28.7530  -21.8730   19.0760 O   0  0  0  0  0  0  0  0  0  0  0  0
  -29.3190  -23.2820   19.2540 C   0  0  0  0  0  3  0  0  0  0  0  0
  -28.3250  -24.6100   18.9490 C   0  0  0  0  0  3  0  0  0  0  0  0
  -28.5270  -26.1230   19.2370 O   0  0  0  0  0  0  0  0  0  0  0  0
  -24.6080  -31.2540   22.7830 C   0  0  0  0  0  0  0  0  0  0  0  0
  -27.4080  -27.0320   19.2760 C   0  0  0  0  0  0  0  0  0  0  0  0
  -23.4640  -29.9580   21.0260 C   0  0  0  0  0  3  0  0  0  0  0  0
  -24.9770  -28.6190   19.4400 C   0  0  0  0  0  0  0  0  0  0  0  0
  -25.9940  -30.3900   20.8630 C   0  0  0  0  0  2  0  0  0  0  0  0
  -26.1380  -29.0770   20.0770 C   0  0  0  0  0  0  0  0  0  0  0  0
  -27.3530  -28.3000   19.9800 C   0  0  0  0  0  3  0  0  0  0  0  0
  -26.2120  -26.6750   18.6130 C   0  0  0  0  0  3  0  0  0  0  0  0
  -25.0250  -27.4330   18.6950 C   0  0  0  0  0  3  0  0  0  0  0  0
  -23.7010  -29.4330   19.5860 C   0  0  0  0  0  2  0  0  0  0  0  0
  -24.7080  -30.5510   21.6150 N   0  0  0  0  0  0  0  0  0  0  0  0
  -23.5160  -31.4210   23.3470 O   0  0  0  0  0  0  0  0  0  0  0  0
  -22.8580  -28.8230   21.8900 C   0  0  0  0  0  0  0  0  0  0  0  0
  -21.5330  -28.6150   21.7890 N   0  0  0  0  0  0  0  0  0  0  0  0
  -23.5820  -28.1360   22.6160 O   0  0  0  0  0  0  0  0  0  0  0  0
  -21.0030  -29.2250   21.1810 H   0  0  0  0  0  0  0  0  0  0  0  0
  -18.2140  -27.2560   22.2910 C   0  0  0  0  0  0  0  0  0  0  0  0
  -20.7750  -27.5680   22.4780 C   0  0  0  0  0  3  0  0  0  0  0  0
  -20.8880  -26.2170   21.7340 C   0  0  0  0  0  2  0  0  0  0  0  0
  -19.7490  -25.9800   20.7370 C   0  0  0  0  0  2  0  0  0  0  0  0
  -18.3950  -26.0030   21.4520 C   0  0  0  0  0  2  0  0  0  0  0  0
  -19.3300  -28.0000   22.7610 C   0  0  0  0  0  0  0  0  0  0  0  0
  -19.1030  -29.1740   23.5090 C   0  0  0  0  0  3  0  0  0  0  0  0
  -17.7950  -29.6070   23.7930 C   0  0  0  0  0  3  0  0  0  0  0  0
  -16.6940  -28.8610   23.3370 C   0  0  0  0  0  3  0  0  0  0  0  0
  -16.9040  -27.6860   22.5930 C   0  0  0  0  0  3  0  0  0  0  0  0
  -25.8580  -31.8980   23.4560 C   0  0  0  0  0  3  0  0  0  0  0  0
  -26.4430  -31.0270   24.6360 C   0  0  1  0  0  0  0  0  0  0  0  0
  -25.3880  -30.6160   25.6900 C   0  0  0  0  0  1  0  0  0  0  0  0
  -27.0940  -29.7340   24.0950 C   0  0  0  0  0  1  0  0  0  0  0  0
  -27.5620  -31.8120   25.3610 C   0  0  0  0  0  1  0  0  0  0  0  0
  -25.4660  -33.2280   23.9470 N   0  0  0  0  0  0  0  0  0  0  0  0
  -25.7170  -34.3820   23.3150 C   0  0  0  0  0  0  0  0  0  0  0  0
  -26.3730  -34.4400   22.2700 O   0  0  0  0  0  0  0  0  0  0  0  0
  -24.8770  -33.2510   24.7670 H   0  0  0  0  0  0  0  0  0  0  0  0
  -23.8720  -36.0900   23.2020 C   0  0  0  0  0  1  0  0  0  0  0  0
  -25.1570  -35.6760   23.9360 C   0  0  0  0  0  3  0  0  0  0  0  0
  -27.2530  -36.6010   24.8210 C   0  0  0  0  0  1  0  0  0  0  0  0
  -26.1190  -36.8010   23.9240 N   0  0  0  0  0  0  0  0  0  0  0  0
  -25.6590  -37.6700   24.1820 H   0  0  0  0  0  0  0  0  0  0  0  0
  2  1  2  0
  3  5  2  0
  4  6  2  0
  4  3  1  0
  5  1  1  0
  5 15  1  0
  6  2  1  0
  7 13  1  0
  7 15  1  0
  8 13  1  0
  9 10  1  0
  9  8  1  0
 11 10  1  0
 11 20  1  0
 11 12  1  0
 13 12  1  0
 14  7  2  0
 15 16  1  0
 17 18  2  0
 18 37  1  0
 19 18  1  0
 19 22  1  0
 20 21  1  0
 20 17  1  0
 21 19  2  0
 22 23  1  0
 23 24  2  0
 25 28  1  0
 25 24  1  0
 26 25  2  0
 27 26  1  0
 27 22  2  0
 28 29  1  0
 29 30  1  0
 30 31  2  0
 32 31  1  0
 32 36  1  0
 33 32  2  0
 34 29  2  0
 34 33  1  0
 35 34  1  0
 37 38  1  0
 38 41  1  0
 38 40  1  0
 39 37  2  0
 42 43  1  0
 42 17  1  0
 44 42  1  0
 45 46  1  6
 45  4  1  0
 45 47  1  0
 48 45  1  0
 49 50  1  0
 49  6  1  0
 51 52  1  0
 51 50  2  0
 52 54  1  0
 53 64  2  0
 54 59  1  0
 55 63  1  0
 55 65  1  0
 56 62  1  0
 56 58  1  0
 57 63  1  0
 58 57  1  0
 59 58  2  0
 60 61  1  0
 60 54  2  0
 61 56  2  0
 62 55  1  0
 63 53  1  0
 65 67  2  0
 66 65  1  0
 68 66  1  0
 69 78  2  0
 69 74  1  0
 70 66  1  0
 70 74  1  0
 71 70  1  0
 72 73  1  0
 72 71  1  0
 73 69  1  0
 74 75  2  0
 75 76  1  0
 77 76  2  0
 78 77  1  0
 79 53  1  0
 79 84  1  0
 79 80  1  0
 80 83  1  1
 80 81  1  0
 82 80  1  0
 84 87  1  0
 85 89  1  0
 85 84  1  0
 86 85  2  0
 89 88  1  0
 91 89  1  0
 91 92  1  0
 91 90  1  0
M  ISO  4   7 100  15 100  51 101  52 101
M  END
>  <TORSDO>  (39) 
F 20

>  <SCORE>  (39) 
-11.642

>  <name>  (39) 
38

>  <ligand_id>  (39) 
38

>  <original_smiles>  (39) 
[H]c1c([H])c([H])c2c(c1[H])C([H])([H])C([H])([H])C([H])([H])C2([H])N([H])C(=O)C1([H])N(C(=O)C([H])(N([H])C(=O)C([H])(N([H])C([H])([H])[H])C([H])([H])[H])C(C([H])([H])[H])(C([H])([H])[H])C([H])([H])[H])C([H])([H])c2c([H])c(OC([H])([H])C([H])([H])Oc3c([H])c([H])c(N([H])C(=O)N4C([H])([H])C([H])([H])C([H])([H])C([H])(n5nc(-c6c([H])c([H])c(Oc7c([H])c([H])c(F)c([H])c7F)c([H])c6[H])c(C(=O)N([H])[H])c5N([H])[H])C4([H])[H])c([H])c3C(F)(F)F)c([H])c([H])c2C1([H])[H]

>  <smiles>  (39) 
[H]c1c([H])c([H])c2c(c1[H])C([H])([H])C([H])([H])C([H])([H])C2([H])N([H])C(=O)C1([H])N(C(=O)C([H])(N([H])C(=O)C([H])(N([H])C([H])([H])[H])C([H])([H])[H])C(C([H])([H])[H])(C([H])([H])[H])C([H])([H])[H])C([H])([H])c2c([H])c(OC([H])([H])C([H])([H])Oc3c([H])c([H])c(N([H])C(=O)N4C([H])([H])C([H])([H])C([H])([H])C([H])(n5nc(-c6c([H])c([H])c(Oc7c([H])c([H])c(F)c([H])c7F)c([H])c6[H])c(C(=O)N([H])[H])c5N([H])[H])C4([H])[H])c([H])c3C(F)(F)F)c([H])c([H])c2C1([H])[H]

$$$$
39:0:0
     RDKit          3D

 90 98  0  0  1  0  0  0  0  0999 V2000
  -28.7720  -19.1630   20.8930 C   0  0  0  0  0  3  0  0  0  0  0  0
  -31.0460  -19.5030   20.2150 C   0  0  0  0  0  3  0  0  0  0  0  0
  -28.5210  -20.5740   20.7480 C   0  0  0  0  0  3  0  0  0  0  0  0
  -30.8010  -20.8990   20.0870 C   0  0  0  0  0  3  0  0  0  0  0  0
  -30.0570  -18.5890   20.6610 C   0  0  0  0  0  0  0  0  0  0  0  0
  -29.5490  -21.4920   20.3820 C   0  0  0  0  0  0  0  0  0  0  0  0
  -29.4710  -22.9300   20.3590 N   0  0  0  0  0  0  0  0  0  0  0  0
  -30.3610  -23.3950   20.1990 H   0  0  0  0  0  0  0  0  0  0  0  0
  -28.3020  -23.8430   20.1570 C   0  0  0  0  0  2  0  0  0  0  0  0
  -28.3450  -25.2450   20.9380 C   0  0  0  0  0  2  0  0  0  0  0  0
  -28.4270  -26.5550   20.2540 O   0  0  0  0  0  0  0  0  0  0  0  0
  -24.6080  -31.9110   23.2580 C   0  0  0  0  0  0  0  0  0  0  0  0
  -27.2950  -27.3750   20.2540 C   0  0  0  0  0  0  0  0  0  0  0  0
  -23.4340  -30.4960   21.6080 C   0  0  0  0  0  3  0  0  0  0  0  0
  -24.9140  -28.9480   20.2100 C   0  0  0  0  0  0  0  0  0  0  0  0
  -25.9710  -30.8410   21.4480 C   0  0  0  0  0  2  0  0  0  0  0  0
  -26.0710  -29.4600   20.8120 C   0  0  0  0  0  0  0  0  0  0  0  0
  -27.2680  -28.6860   20.8190 C   0  0  0  0  0  3  0  0  0  0  0  0
  -26.1190  -26.9020   19.6410 C   0  0  0  0  0  3  0  0  0  0  0  0
  -24.9390  -27.6740   19.6150 C   0  0  0  0  0  3  0  0  0  0  0  0
  -23.6700  -29.8120   20.2350 C   0  0  0  0  0  2  0  0  0  0  0  0
  -24.6900  -31.1000   22.1620 N   0  0  0  0  0  0  0  0  0  0  0  0
  -23.5180  -32.1790   23.7820 O   0  0  0  0  0  0  0  0  0  0  0  0
  -22.7700  -29.4780   22.5660 C   0  0  0  0  0  0  0  0  0  0  0  0
  -21.4470  -29.2930   22.4270 N   0  0  0  0  0  0  0  0  0  0  0  0
  -23.4450  -28.8570   23.3920 O   0  0  0  0  0  0  0  0  0  0  0  0
  -20.9620  -29.8450   21.7340 H   0  0  0  0  0  0  0  0  0  0  0  0
  -18.0690  -28.0950   22.9120 C   0  0  0  0  0  0  0  0  0  0  0  0
  -20.6260  -28.3530   23.1920 C   0  0  0  0  0  3  0  0  0  0  0  0
  -20.7300  -26.9240   22.6110 C   0  0  0  0  0  2  0  0  0  0  0  0
  -19.6320  -26.6050   21.5930 C   0  0  0  0  0  2  0  0  0  0  0  0
  -18.2470  -26.7480   22.2320 C   0  0  0  0  0  2  0  0  0  0  0  0
  -19.1860  -28.8560   23.3490 C   0  0  0  0  0  0  0  0  0  0  0  0
  -18.9640  -30.1160   23.9440 C   0  0  0  0  0  3  0  0  0  0  0  0
  -17.6580  -30.6170   24.1070 C   0  0  0  0  0  3  0  0  0  0  0  0
  -16.5560  -29.8530   23.6870 C   0  0  0  0  0  3  0  0  0  0  0  0
  -16.7610  -28.5950   23.0940 C   0  0  0  0  0  3  0  0  0  0  0  0
  -25.8790  -32.5550   23.8940 C   0  0  0  0  0  3  0  0  0  0  0  0
  -26.3740  -31.8050   25.1910 C   0  0  1  0  0  0  0  0  0  0  0  0
  -25.2630  -31.5800   26.2420 C   0  0  0  0  0  1  0  0  0  0  0  0
  -26.9680  -30.4220   24.8290 C   0  0  0  0  0  1  0  0  0  0  0  0
  -27.5100  -32.6110   25.8620 C   0  0  0  0  0  1  0  0  0  0  0  0
  -25.5620  -33.9570   24.1980 N   0  0  0  0  0  0  0  0  0  0  0  0
  -25.9050  -35.0000   23.4300 C   0  0  0  0  0  0  0  0  0  0  0  0
  -26.5910  -34.8830   22.4110 O   0  0  0  0  0  0  0  0  0  0  0  0
  -24.9540  -34.1220   24.9870 H   0  0  0  0  0  0  0  0  0  0  0  0
  -24.1840  -36.7880   23.0170 C   0  0  0  0  0  1  0  0  0  0  0  0
  -25.4080  -36.3940   23.8590 C   0  0  0  0  0  3  0  0  0  0  0  0
  -27.5230  -37.2930   24.7250 C   0  0  0  0  0  1  0  0  0  0  0  0
  -26.4430  -37.4460   23.7540 N   0  0  0  0  0  0  0  0  0  0  0  0
  -26.0330  -38.3680   23.8770 H   0  0  0  0  0  0  0  0  0  0  0  0
  -30.5180  -17.1410   21.1060 C   0  0  0  0  0  2  0  0  0  0  0  0
  -30.6260  -14.7130   20.2850 C   0  0  0  0  0  0  0  0  0  0  0  0
  -30.3500  -12.5020   19.1750 C   0  0  0  0  0  2  0  0  0  0  0  0
  -29.3870  -12.6380   17.9780 C   0  0  0  0  0  2  0  0  0  0  0  0
  -27.9240  -12.4720   18.4360 C   0  0  0  0  0  2  0  0  0  0  0  0
  -27.5890  -13.3230   19.6910 C   0  0  0  0  0  3  0  0  0  0  0  0
  -28.6700  -13.1770   20.7830 C   0  0  0  0  0  2  0  0  0  0  0  0
  -29.9580  -13.5210   20.1700 N   0  0  0  0  0  0  0  0  0  0  0  0
  -31.8020  -14.8070   19.9250 O   0  0  0  0  0  0  0  0  0  0  0  0
  -29.9190  -15.8330   20.6560 N   0  0  0  0  0  0  0  0  0  0  0  0
  -28.9360  -15.7020   20.8390 H   0  0  0  0  0  0  0  0  0  0  0  0
  -25.2080  -13.9030   20.4540 C   0  0  0  0  0  0  0  0  0  0  0  0
  -24.1520  -13.1230   20.8390 C   0  0  0  0  0  0  0  0  0  0  0  0
  -24.6220  -11.7750   20.8000 C   0  0  0  0  0  0  0  0  0  0  0  0
  -26.2540  -13.0300   20.2020 N   0  0  0  0  0  0  0  0  0  0  0  0
  -25.9080  -11.7440   20.4720 N   0  0  0  0  0  0  0  0  0  0  0  0
  -23.9050  -10.5080   20.9970 C   0  0  0  0  0  0  0  0  0  0  0  0
  -24.3500   -9.5440   21.9290 C   0  0  0  0  0  3  0  0  0  0  0  0
  -23.6320   -8.3430   22.1140 C   0  0  0  0  0  3  0  0  0  0  0  0
  -22.4550   -8.0970   21.3670 C   0  0  0  0  0  0  0  0  0  0  0  0
  -22.0300   -9.0490   20.4250 C   0  0  0  0  0  3  0  0  0  0  0  0
  -22.7490  -10.2420   20.2380 C   0  0  0  0  0  3  0  0  0  0  0  0
  -21.7080   -6.9470   21.4630 O   0  0  0  0  0  0  0  0  0  0  0  0
  -21.6650   -6.2100   22.6190 C   0  0  0  0  0  0  0  0  0  0  0  0
  -21.2200   -6.7630   23.8390 C   0  0  0  0  0  3  0  0  0  0  0  0
  -21.1270   -5.9510   24.9870 C   0  0  0  0  0  3  0  0  0  0  0  0
  -21.4680   -4.5870   24.9150 C   0  0  0  0  0  0  0  0  0  0  0  0
  -21.9060   -4.0330   23.7000 C   0  0  0  0  0  3  0  0  0  0  0  0
  -22.0010   -4.8430   22.5540 C   0  0  0  0  0  0  0  0  0  0  0  0
  -22.4040   -4.2990   21.3800 F   0  0  0  0  0  0  0  0  0  0  0  0
  -21.3700   -3.8050   26.0160 F   0  0  0  0  0  0  0  0  0  0  0  0
  -22.7560  -13.5930   21.1310 C   0  0  0  0  0  0  0  0  0  0  0  0
  -22.0430  -12.8890   22.0040 N   0  0  0  0  0  0  0  0  0  0  0  0
  -22.3080  -14.6180   20.6210 O   0  0  0  0  0  0  0  0  0  0  0  0
  -22.4210  -12.0600   22.4380 H   0  0  0  0  0  0  0  0  0  0  0  0
  -21.1080  -13.1850   22.2430 H   0  0  0  0  0  0  0  0  0  0  0  0
  -25.3620  -15.2750   20.2740 N   0  0  0  0  0  0  0  0  0  0  0  0
  -24.5890  -15.9220   20.3890 H   0  0  0  0  0  0  0  0  0  0  0  0
  -26.1930  -15.7160   19.9020 H   0  0  0  0  0  0  0  0  0  0  0  0
  2  5  1  0
  3  1  1  0
  4  2  2  0
  4  6  1  0
  5  1  2  0
  5 52  1  0
  6  3  2  0
  7  6  1  0
  8  7  1  0
  9  7  1  0
  9 10  1  0
 11 13  1  0
 11 10  1  0
 12 23  2  0
 13 18  1  0
 14 22  1  0
 14 24  1  0
 15 21  1  0
 15 17  1  0
 16 22  1  0
 17 18  2  0
 17 16  1  0
 19 13  2  0
 20 19  1  0
 20 15  2  0
 21 14  1  0
 22 12  1  0
 24 26  2  0
 25 24  1  0
 27 25  1  0
 28 37  2  0
 28 33  1  0
 29 25  1  0
 29 33  1  0
 30 29  1  0
 31 32  1  0
 31 30  1  0
 32 28  1  0
 33 34  2  0
 34 35  1  0
 36 35  2  0
 37 36  1  0
 38 12  1  0
 38 43  1  0
 38 39  1  0
 39 42  1  1
 39 40  1  0
 41 39  1  0
 43 46  1  0
 44 48  1  0
 44 43  1  0
 45 44  2  0
 48 47  1  0
 50 48  1  0
 50 51  1  0
 50 49  1  0
 53 61  1  0
 54 59  1  0
 55 56  1  0
 55 54  1  0
 57 56  1  0
 57 66  1  0
 57 58  1  0
 59 53  1  0
 59 58  1  0
 60 53  2  0
 61 62  1  0
 61 52  1  0
 63 64  2  0
 64 83  1  0
 65 64  1  0
 65 68  1  0
 66 63  1  0
 66 67  1  0
 67 65  2  0
 68 69  1  0
 69 70  2  0
 71 74  1  0
 71 70  1  0
 72 71  2  0
 73 72  1  0
 73 68  2  0
 74 75  1  0
 75 76  1  0
 76 77  2  0
 78 77  1  0
 78 82  1  0
 79 78  2  0
 80 75  2  0
 80 79  1  0
 81 80  1  0
 83 84  1  0
 84 87  1  0
 84 86  1  0
 85 83  2  0
 88 89  1  0
 88 63  1  0
 90 88  1  0
M  ISO  4  10 101  11 101  53 100  61 100
M  END
>  <TORSDO>  (40) 
F 20

>  <SCORE>  (40) 
-13.714

>  <name>  (40) 
39

>  <ligand_id>  (40) 
39

>  <original_smiles>  (40) 
[H]c1c([H])c([H])c2c(c1[H])C([H])([H])C([H])([H])C([H])([H])C2([H])N([H])C(=O)C1([H])N(C(=O)C([H])(N([H])C(=O)C([H])(N([H])C([H])([H])[H])C([H])([H])[H])C(C([H])([H])[H])(C([H])([H])[H])C([H])([H])[H])C([H])([H])c2c([H])c(OC([H])([H])C([H])([H])N([H])c3c([H])c([H])c(C([H])([H])N([H])C(=O)N4C([H])([H])C([H])([H])C([H])([H])C([H])(n5nc(-c6c([H])c([H])c(Oc7c([H])c([H])c(F)c([H])c7F)c([H])c6[H])c(C(=O)N([H])[H])c5N([H])[H])C4([H])[H])c([H])c3[H])c([H])c([H])c2C1([H])[H]

>  <smiles>  (40) 
[H]c1c([H])c([H])c2c(c1[H])C([H])([H])C([H])([H])C([H])([H])C2([H])N([H])C(=O)C1([H])N(C(=O)C([H])(N([H])C(=O)C([H])(N([H])C([H])([H])[H])C([H])([H])[H])C(C([H])([H])[H])(C([H])([H])[H])C([H])([H])[H])C([H])([H])c2c([H])c(OC([H])([H])C([H])([H])N([H])c3c([H])c([H])c(C([H])([H])N([H])C(=O)N4C([H])([H])C([H])([H])C([H])([H])C([H])(n5nc(-c6c([H])c([H])c(Oc7c([H])c([H])c(F)c([H])c7F)c([H])c6[H])c(C(=O)N([H])[H])c5N([H])[H])C4([H])[H])c([H])c3[H])c([H])c([H])c2C1([H])[H]

$$$$
40:0:0
     RDKit          3D

 89 97  0  0  1  0  0  0  0  0999 V2000
  -30.6000  -18.5700   20.2420 C   0  0  0  0  0  3  0  0  0  0  0  0
  -30.3030  -20.0010   20.0810 C   0  0  0  0  0  3  0  0  0  0  0  0
  -28.3150  -18.0820   19.9500 C   0  0  0  0  0  3  0  0  0  0  0  0
  -28.0190  -19.4850   19.7730 C   0  0  0  0  0  0  0  0  0  0  0  0
  -29.6070  -17.5220   20.1850 C   0  0  0  0  0  0  0  0  0  0  0  0
  -28.9880  -20.5410   19.8310 C   0  0  0  0  0  0  0  0  0  0  0  0
  -26.5720  -19.8670   19.5120 C   0  0  0  0  0  1  0  0  0  0  0  0
  -30.5680  -14.9060   20.1730 C   0  0  0  0  0  0  0  0  0  0  0  0
  -30.4660  -12.5240   19.3130 C   0  0  0  0  0  2  0  0  0  0  0  0
  -29.5180  -12.4590   18.0900 C   0  0  0  0  0  2  0  0  0  0  0  0
  -28.0520  -12.2890   18.5340 C   0  0  0  0  0  2  0  0  0  0  0  0
  -27.6660  -13.2540   19.6850 C   0  0  0  0  0  3  0  0  0  0  0  0
  -28.7260  -13.2530   20.8080 C   0  0  0  0  0  2  0  0  0  0  0  0
  -30.0070  -13.6320   20.1920 N   0  0  0  0  0  0  0  0  0  0  0  0
  -31.7540  -15.0210   19.8450 O   0  0  0  0  0  0  0  0  0  0  0  0
  -29.6960  -16.0020   20.3630 N   0  0  0  0  0  0  0  0  0  0  0  0
  -28.8000  -15.6220   20.6240 H   0  0  0  0  0  0  0  0  0  0  0  0
  -25.3120  -13.9030   20.4650 C   0  0  0  0  0  0  0  0  0  0  0  0
  -24.2280  -13.1580   20.8400 C   0  0  0  0  0  0  0  0  0  0  0  0
  -24.6460  -11.7930   20.7750 C   0  0  0  0  0  0  0  0  0  0  0  0
  -26.3220  -12.9940   20.1930 N   0  0  0  0  0  0  0  0  0  0  0  0
  -25.9310  -11.7190   20.4430 N   0  0  0  0  0  0  0  0  0  0  0  0
  -23.8800  -10.5520   20.9500 C   0  0  0  0  0  0  0  0  0  0  0  0
  -24.3010   -9.5440   21.8460 C   0  0  0  0  0  3  0  0  0  0  0  0
  -23.5370   -8.3690   22.0110 C   0  0  0  0  0  3  0  0  0  0  0  0
  -22.3370   -8.1940   21.2820 C   0  0  0  0  0  0  0  0  0  0  0  0
  -21.9350   -9.1900   20.3740 C   0  0  0  0  0  3  0  0  0  0  0  0
  -22.6990  -10.3560   20.2070 C   0  0  0  0  0  3  0  0  0  0  0  0
  -21.5450   -7.0740   21.3580 O   0  0  0  0  0  0  0  0  0  0  0  0
  -21.5070   -6.2950   22.4870 C   0  0  0  0  0  0  0  0  0  0  0  0
  -21.1400   -6.8230   23.7440 C   0  0  0  0  0  3  0  0  0  0  0  0
  -21.0460   -5.9740   24.8650 C   0  0  0  0  0  3  0  0  0  0  0  0
  -21.3090   -4.5980   24.7290 C   0  0  0  0  0  0  0  0  0  0  0  0
  -21.6690   -4.0690   23.4770 C   0  0  0  0  0  3  0  0  0  0  0  0
  -21.7640   -4.9160   22.3590 C   0  0  0  0  0  0  0  0  0  0  0  0
  -22.0910   -4.3980   21.1510 F   0  0  0  0  0  0  0  0  0  0  0  0
  -21.2110   -3.7800   25.8040 F   0  0  0  0  0  0  0  0  0  0  0  0
  -22.8510  -13.6760   21.1390 C   0  0  0  0  0  0  0  0  0  0  0  0
  -22.1170  -12.9960   22.0130 N   0  0  0  0  0  0  0  0  0  0  0  0
  -22.4370  -14.7180   20.6340 O   0  0  0  0  0  0  0  0  0  0  0  0
  -22.4660  -12.1520   22.4440 H   0  0  0  0  0  0  0  0  0  0  0  0
  -21.1920  -13.3230   22.2540 H   0  0  0  0  0  0  0  0  0  0  0  0
  -25.5150  -15.2700   20.3020 N   0  0  0  0  0  0  0  0  0  0  0  0
  -24.7520  -15.9300   20.4010 H   0  0  0  0  0  0  0  0  0  0  0  0
  -26.3200  -15.6650   19.8340 H   0  0  0  0  0  0  0  0  0  0  0  0
  -28.5020  -21.9050   19.6020 O   0  0  0  0  0  0  0  0  0  0  0  0
  -29.0970  -23.3080   19.7440 C   0  0  0  0  0  3  0  0  0  0  0  0
  -28.1100  -24.6490   19.4750 C   0  0  0  0  0  3  0  0  0  0  0  0
  -28.3550  -26.1640   19.7190 O   0  0  0  0  0  0  0  0  0  0  0  0
  -24.5930  -31.5780   23.0040 C   0  0  0  0  0  0  0  0  0  0  0  0
  -27.2660  -27.1080   19.7140 C   0  0  0  0  0  0  0  0  0  0  0  0
  -23.4110  -30.2350   21.3090 C   0  0  0  0  0  3  0  0  0  0  0  0
  -24.8840  -28.7770   19.7930 C   0  0  0  0  0  0  0  0  0  0  0  0
  -25.9540  -30.5810   21.1330 C   0  0  0  0  0  2  0  0  0  0  0  0
  -26.0580  -29.2280   20.4100 C   0  0  0  0  0  0  0  0  0  0  0  0
  -27.2490  -28.4120   20.3520 C   0  0  0  0  0  3  0  0  0  0  0  0
  -26.0570  -26.7550   19.0690 C   0  0  0  0  0  3  0  0  0  0  0  0
  -24.8960  -27.5540   19.1080 C   0  0  0  0  0  3  0  0  0  0  0  0
  -23.6340  -29.6350   19.8960 C   0  0  0  0  0  2  0  0  0  0  0  0
  -24.6730  -30.8170   21.8710 N   0  0  0  0  0  0  0  0  0  0  0  0
  -23.5050  -31.8070   23.5560 O   0  0  0  0  0  0  0  0  0  0  0  0
  -22.7700  -29.1630   22.2250 C   0  0  0  0  0  0  0  0  0  0  0  0
  -21.4430  -28.9780   22.1150 N   0  0  0  0  0  0  0  0  0  0  0  0
  -23.4680  -28.5020   22.9980 O   0  0  0  0  0  0  0  0  0  0  0  0
  -20.9350  -29.5640   21.4680 H   0  0  0  0  0  0  0  0  0  0  0  0
  -18.0860  -27.7200   22.6380 C   0  0  0  0  0  0  0  0  0  0  0  0
  -20.6510  -27.9860   22.8480 C   0  0  0  0  0  3  0  0  0  0  0  0
  -20.7430  -26.5950   22.1810 C   0  0  0  0  0  2  0  0  0  0  0  0
  -19.6150  -26.3280   21.1790 C   0  0  0  0  0  2  0  0  0  0  0  0
  -18.2520  -26.4190   21.8720 C   0  0  0  0  0  2  0  0  0  0  0  0
  -19.2120  -28.4640   23.0820 C   0  0  0  0  0  0  0  0  0  0  0  0
  -19.0010  -29.6830   23.7620 C   0  0  0  0  0  3  0  0  0  0  0  0
  -17.6980  -30.1580   24.0030 C   0  0  0  0  0  3  0  0  0  0  0  0
  -16.5870  -29.4110   23.5720 C   0  0  0  0  0  3  0  0  0  0  0  0
  -16.7830  -28.1930   22.8960 C   0  0  0  0  0  3  0  0  0  0  0  0
  -25.8610  -32.2140   23.6500 C   0  0  0  0  0  3  0  0  0  0  0  0
  -26.3970  -31.4010   24.8940 C   0  0  1  0  0  0  0  0  0  0  0  0
  -25.3150  -31.1050   25.9590 C   0  0  0  0  0  1  0  0  0  0  0  0
  -27.0000  -30.0490   24.4480 C   0  0  0  0  0  1  0  0  0  0  0  0
  -27.5400  -32.1860   25.5790 C   0  0  0  0  0  1  0  0  0  0  0  0
  -25.5200  -33.5890   24.0480 N   0  0  0  0  0  0  0  0  0  0  0  0
  -25.8080  -34.6840   23.3340 C   0  0  0  0  0  0  0  0  0  0  0  0
  -26.4590  -34.6450   22.2850 O   0  0  0  0  0  0  0  0  0  0  0  0
  -24.9380  -33.6910   24.8670 H   0  0  0  0  0  0  0  0  0  0  0  0
  -24.0210  -36.4420   23.1090 C   0  0  0  0  0  1  0  0  0  0  0  0
  -25.2980  -36.0380   23.8650 C   0  0  0  0  0  3  0  0  0  0  0  0
  -27.4310  -36.9520   24.6700 C   0  0  0  0  0  1  0  0  0  0  0  0
  -26.2970  -37.1260   23.7650 N   0  0  0  0  0  0  0  0  0  0  0  0
  -25.8700  -38.0270   23.9610 H   0  0  0  0  0  0  0  0  0  0  0  0
  2  1  2  0
  3  5  2  0
  4  6  2  0
  4  3  1  0
  5  1  1  0
  5 16  1  0
  6  2  1  0
  7  4  1  0
  8 14  1  0
  8 16  1  0
  9 14  1  0
 10 11  1  0
 10  9  1  0
 12 11  1  0
 12 21  1  0
 12 13  1  0
 14 13  1  0
 15  8  2  0
 16 17  1  0
 18 19  2  0
 19 38  1  0
 20 19  1  0
 20 23  1  0
 21 22  1  0
 21 18  1  0
 22 20  2  0
 23 24  1  0
 24 25  2  0
 26 29  1  0
 26 25  1  0
 27 26  2  0
 28 27  1  0
 28 23  2  0
 29 30  1  0
 30 31  1  0
 31 32  2  0
 33 32  1  0
 33 37  1  0
 34 33  2  0
 35 30  2  0
 35 34  1  0
 36 35  1  0
 38 39  1  0
 39 42  1  0
 39 41  1  0
 40 38  2  0
 43 44  1  0
 43 18  1  0
 45 43  1  0
 46 47  1  0
 46  6  1  0
 48 49  1  0
 48 47  2  0
 50 61  2  0
 51 49  1  0
 51 56  1  0
 52 60  1  0
 52 62  1  0
 53 59  1  0
 53 55  1  0
 54 60  1  0
 55 54  1  0
 56 55  2  0
 57 58  1  0
 57 51  2  0
 58 53  2  0
 59 52  1  0
 60 50  1  0
 62 64  2  0
 63 62  1  0
 65 63  1  0
 66 75  2  0
 66 71  1  0
 67 63  1  0
 67 71  1  0
 68 67  1  0
 69 70  1  0
 69 68  1  0
 70 66  1  0
 71 72  2  0
 72 73  1  0
 74 73  2  0
 75 74  1  0
 76 50  1  0
 76 81  1  0
 76 77  1  0
 77 80  1  1
 77 78  1  0
 79 77  1  0
 81 84  1  0
 82 86  1  0
 82 81  1  0
 83 82  2  0
 86 85  1  0
 88 86  1  0
 88 89  1  0
 88 87  1  0
M  ISO  4   8 100  16 100  48 101  49 101
M  END
>  <TORSDO>  (41) 
F 19

>  <SCORE>  (41) 
-13.134

>  <name>  (41) 
40

>  <ligand_id>  (41) 
40

>  <original_smiles>  (41) 
[H]c1c([H])c([H])c2c(c1[H])C([H])([H])C([H])([H])C([H])([H])C2([H])N([H])C(=O)C1([H])N(C(=O)C([H])(N([H])C(=O)C([H])(N([H])C([H])([H])[H])C([H])([H])[H])C(C([H])([H])[H])(C([H])([H])[H])C([H])([H])[H])C([H])([H])c2c([H])c(OC([H])([H])C([H])([H])Oc3c([H])c([H])c(N([H])C(=O)N4C([H])([H])C([H])([H])C([H])([H])C([H])(n5nc(-c6c([H])c([H])c(Oc7c([H])c([H])c(F)c([H])c7F)c([H])c6[H])c(C(=O)N([H])[H])c5N([H])[H])C4([H])[H])c([H])c3C([H])([H])[H])c([H])c([H])c2C1([H])[H]

>  <smiles>  (41) 
[H]c1c([H])c([H])c2c(c1[H])C([H])([H])C([H])([H])C([H])([H])C2([H])N([H])C(=O)C1([H])N(C(=O)C([H])(N([H])C(=O)C([H])(N([H])C([H])([H])[H])C([H])([H])[H])C(C([H])([H])[H])(C([H])([H])[H])C([H])([H])[H])C([H])([H])c2c([H])c(OC([H])([H])C([H])([H])Oc3c([H])c([H])c(N([H])C(=O)N4C([H])([H])C([H])([H])C([H])([H])C([H])(n5nc(-c6c([H])c([H])c(Oc7c([H])c([H])c(F)c([H])c7F)c([H])c6[H])c(C(=O)N([H])[H])c5N([H])[H])C4([H])[H])c([H])c3C([H])([H])[H])c([H])c([H])c2C1([H])[H]

$$$$
41:0:0
     RDKit          3D

102111  0  0  1  0  0  0  0  0999 V2000
  -28.1030  -18.5460   20.4190 C   0  0  0  0  0  3  0  0  0  0  0  0
  -28.3290  -17.2040   20.7770 C   0  0  0  0  0  3  0  0  0  0  0  0
  -30.7060  -17.4760   20.2960 C   0  0  0  0  0  3  0  0  0  0  0  0
  -29.1740  -19.3500   19.9840 C   0  0  0  0  0  0  0  0  0  0  0  0
  -30.4840  -18.8260   19.9580 C   0  0  0  0  0  0  0  0  0  0  0  0
  -29.6220  -16.6520   20.6740 C   0  0  0  0  0  0  0  0  0  0  0  0
  -29.8300  -22.8640   20.3960 C   0  0  0  0  0  0  0  0  0  0  0  0
  -31.6570  -19.7110   19.5810 C   0  0  0  0  0  2  0  0  0  0  0  0
  -28.9190  -20.7620   19.4980 C   0  0  0  0  0  2  0  0  0  0  0  0
  -31.3020  -21.1560   19.1420 C   0  0  0  0  0  3  0  0  0  0  0  0
  -30.0490  -21.6800   19.7410 N   0  0  0  0  0  0  0  0  0  0  0  0
  -28.7030  -23.0970   20.8500 O   0  0  0  0  0  0  0  0  0  0  0  0
  -30.4130  -14.3860   20.1990 C   0  0  0  0  0  0  0  0  0  0  0  0
  -30.2930  -12.0930   19.3030 C   0  0  0  0  0  2  0  0  0  0  0  0
  -29.3270  -12.0460   18.1030 C   0  0  0  0  0  2  0  0  0  0  0  0
  -27.8730  -11.8390   18.5680 C   0  0  0  0  0  2  0  0  0  0  0  0
  -27.4690  -12.8270   19.6960 C   0  0  0  0  0  3  0  0  0  0  0  0
  -28.5330  -12.8240   20.8150 C   0  0  0  0  0  2  0  0  0  0  0  0
  -29.8400  -13.1540   20.2140 N   0  0  0  0  0  0  0  0  0  0  0  0
  -31.4220  -14.6580   19.5380 O   0  0  0  0  0  0  0  0  0  0  0  0
  -29.7940  -15.2820   20.9820 N   0  0  0  0  0  0  0  0  0  0  0  0
  -29.0590  -14.8700   21.5350 H   0  0  0  0  0  0  0  0  0  0  0  0
  -25.1020  -13.3860   20.5530 C   0  0  0  0  0  0  0  0  0  0  0  0
  -24.0580  -12.5880   20.9380 C   0  0  0  0  0  0  0  0  0  0  0  0
  -24.5220  -11.2430   20.8090 C   0  0  0  0  0  0  0  0  0  0  0  0
  -26.1380  -12.5250   20.2210 N   0  0  0  0  0  0  0  0  0  0  0  0
  -25.7930  -11.2300   20.4270 N   0  0  0  0  0  0  0  0  0  0  0  0
  -23.8130   -9.9660   20.9730 C   0  0  0  0  0  0  0  0  0  0  0  0
  -24.2380   -9.0020   21.9110 C   0  0  0  0  0  3  0  0  0  0  0  0
  -23.5310   -7.7890   22.0620 C   0  0  0  0  0  3  0  0  0  0  0  0
  -22.3850   -7.5330   21.2730 C   0  0  0  0  0  0  0  0  0  0  0  0
  -21.9800   -8.4880   20.3240 C   0  0  0  0  0  3  0  0  0  0  0  0
  -22.6870   -9.6910   20.1720 C   0  0  0  0  0  3  0  0  0  0  0  0
  -21.6530   -6.3720   21.3290 O   0  0  0  0  0  0  0  0  0  0  0  0
  -21.4140   -5.7310   22.5180 C   0  0  0  0  0  0  0  0  0  0  0  0
  -20.7550   -6.3690   23.5900 C   0  0  0  0  0  3  0  0  0  0  0  0
  -20.4660   -5.6500   24.7690 C   0  0  0  0  0  3  0  0  0  0  0  0
  -20.8270   -4.2930   24.8730 C   0  0  0  0  0  0  0  0  0  0  0  0
  -21.4800   -3.6540   23.8030 C   0  0  0  0  0  3  0  0  0  0  0  0
  -21.7680   -4.3700   22.6280 C   0  0  0  0  0  0  0  0  0  0  0  0
  -22.3780   -3.7440   21.5920 F   0  0  0  0  0  0  0  0  0  0  0  0
  -20.5440   -3.6000   26.0000 F   0  0  0  0  0  0  0  0  0  0  0  0
  -22.6750  -13.0410   21.3130 C   0  0  0  0  0  0  0  0  0  0  0  0
  -21.9980  -12.2950   22.1800 N   0  0  0  0  0  0  0  0  0  0  0  0
  -22.2020  -14.0890   20.8730 O   0  0  0  0  0  0  0  0  0  0  0  0
  -22.3930  -11.4490   22.5640 H   0  0  0  0  0  0  0  0  0  0  0  0
  -21.0730  -12.5790   22.4670 H   0  0  0  0  0  0  0  0  0  0  0  0
  -25.2510  -14.7650   20.4430 N   0  0  0  0  0  0  0  0  0  0  0  0
  -24.4830  -15.4020   20.6180 H   0  0  0  0  0  0  0  0  0  0  0  0
  -26.0690  -15.2260   20.0660 H   0  0  0  0  0  0  0  0  0  0  0  0
  -32.0200  -24.2150   19.6410 C   0  0  0  0  0  1  0  0  0  0  0  0
  -31.5000  -23.7570   22.0740 C   0  0  0  0  0  1  0  0  0  0  0  0
  -30.1460  -25.3600   20.7290 C   0  0  0  0  0  1  0  0  0  0  0  0
  -30.8920  -23.9940   20.6760 C   0  0  2  0  0  0  0  0  0  0  0  0
  -31.3200  -21.3360   17.6010 C   0  0  0  0  0  2  0  0  0  0  0  0
  -30.5080  -22.4370   17.2230 O   0  0  0  0  0  0  0  0  0  0  0  0
  -30.8260  -23.0250   15.9680 C   0  0  0  0  0  2  0  0  0  0  0  0
  -29.6200  -23.8830   15.5650 C   0  0  0  0  0  2  0  0  0  0  0  0
  -29.1800  -24.6310   16.6960 O   0  0  0  0  0  0  0  0  0  0  0  0
  -27.7660  -24.6300   16.8590 C   0  0  0  0  0  2  0  0  0  0  0  0
  -27.4350  -24.9690   18.3210 C   0  0  0  0  0  2  0  0  0  0  0  0
  -27.6920  -26.3440   18.6220 O   0  0  0  0  0  0  0  0  0  0  0  0
  -24.9790  -30.9100   23.3410 C   0  0  0  0  0  0  0  0  0  0  0  0
  -26.6330  -27.1700   18.9280 C   0  0  0  0  0  0  0  0  0  0  0  0
  -23.4550  -30.2280   21.5140 C   0  0  0  0  0  3  0  0  0  0  0  0
  -24.5320  -28.9430   19.5940 C   0  0  0  0  0  0  0  0  0  0  0  0
  -25.9870  -30.2350   21.1680 C   0  0  0  0  0  2  0  0  0  0  0  0
  -25.7930  -29.1010   20.1810 C   0  0  0  0  0  0  0  0  0  0  0  0
  -26.8440  -28.2210   19.8510 C   0  0  0  0  0  3  0  0  0  0  0  0
  -25.3570  -27.0320   18.3350 C   0  0  0  0  0  3  0  0  0  0  0  0
  -24.3070  -27.9040   18.6720 C   0  0  0  0  0  3  0  0  0  0  0  0
  -23.4620  -29.9330   19.9890 C   0  0  0  0  0  2  0  0  0  0  0  0
  -24.8310  -30.4530   22.0660 N   0  0  0  0  0  0  0  0  0  0  0  0
  -23.9930  -31.1840   24.0380 O   0  0  0  0  0  0  0  0  0  0  0  0
  -22.6860  -29.0940   22.2290 C   0  0  0  0  0  0  0  0  0  0  0  0
  -21.3470  -29.1360   22.1510 N   0  0  0  0  0  0  0  0  0  0  0  0
  -23.2930  -28.1930   22.8130 O   0  0  0  0  0  0  0  0  0  0  0  0
  -20.9250  -29.9140   21.6630 H   0  0  0  0  0  0  0  0  0  0  0  0
  -17.8490  -28.2880   22.4800 C   0  0  0  0  0  0  0  0  0  0  0  0
  -20.4220  -28.1540   22.7140 C   0  0  0  0  0  3  0  0  0  0  0  0
  -20.3340  -26.8950   21.8190 C   0  0  0  0  0  2  0  0  0  0  0  0
  -19.1930  -26.9580   20.7980 C   0  0  0  0  0  2  0  0  0  0  0  0
  -17.8460  -27.1210   21.5070 C   0  0  0  0  0  2  0  0  0  0  0  0
  -19.0600  -28.7810   23.0350 C   0  0  0  0  0  0  0  0  0  0  0  0
  -19.0100  -29.8900   23.9070 C   0  0  0  0  0  3  0  0  0  0  0  0
  -17.7830  -30.5030   24.2260 C   0  0  0  0  0  3  0  0  0  0  0  0
  -16.5870  -29.9990   23.6870 C   0  0  0  0  0  3  0  0  0  0  0  0
  -16.6220  -28.8920   22.8210 C   0  0  0  0  0  3  0  0  0  0  0  0
  -26.3880  -31.1320   23.9730 C   0  0  0  0  0  3  0  0  0  0  0  0
  -26.3630  -32.4240   24.6730 N   0  0  0  0  0  0  0  0  0  0  0  0
  -26.8840  -33.5600   24.1910 C   0  0  0  0  0  0  0  0  0  0  0  0
  -27.5110  -33.6100   23.1290 O   0  0  0  0  0  0  0  0  0  0  0  0
  -25.8170  -32.4710   25.5210 H   0  0  0  0  0  0  0  0  0  0  0  0
  -25.5680  -35.6920   24.3840 C   0  0  0  0  0  1  0  0  0  0  0  0
  -26.6790  -34.8420   25.0190 C   0  0  0  0  0  3  0  0  0  0  0  0
  -28.9240  -35.0170   25.9940 C   0  0  0  0  0  1  0  0  0  0  0  0
  -27.9070  -35.6540   25.1620 N   0  0  0  0  0  0  0  0  0  0  0  0
  -27.6920  -36.5650   25.5610 H   0  0  0  0  0  0  0  0  0  0  0  0
  -26.8220  -29.9750   24.9550 C   0  0  1  0  0  0  0  0  0  0  0  0
  -25.7650  -29.6550   26.0360 C   0  0  0  0  0  1  0  0  0  0  0  0
  -27.1050  -28.6710   24.1710 C   0  0  0  0  0  1  0  0  0  0  0  0
  -28.1370  -30.3600   25.6730 C   0  0  0  0  0  1  0  0  0  0  0  0
  1  2  1  0
  3  6  1  0
  4  1  2  0
  5  4  1  0
  5  3  2  0
  6  2  2  0
  6 21  1  0
  7 54  1  0
  7 12  2  0
  8  5  1  0
  9 11  1  0
  9  4  1  0
 10 55  1  0
 10  8  1  0
 10 11  1  0
 11  7  1  0
 13 19  1  0
 13 21  1  0
 14 19  1  0
 15 16  1  0
 15 14  1  0
 17 16  1  0
 17 26  1  0
 17 18  1  0
 19 18  1  0
 20 13  2  0
 21 22  1  0
 23 24  2  0
 24 43  1  0
 25 24  1  0
 25 28  1  0
 26 27  1  0
 26 23  1  0
 27 25  2  0
 28 29  1  0
 29 30  2  0
 31 34  1  0
 31 30  1  0
 32 31  2  0
 33 32  1  0
 33 28  2  0
 34 35  1  0
 35 40  2  0
 35 36  1  0
 36 37  2  0
 37 38  1  0
 38 42  1  0
 39 38  2  0
 40 39  1  0
 41 40  1  0
 43 44  1  0
 44 47  1  0
 44 46  1  0
 45 43  2  0
 48 23  1  0
 48 49  1  0
 50 48  1  0
 54 51  1  6
 54 53  1  0
 54 52  1  0
 56 55  1  0
 57 56  1  0
 58 57  1  0
 58 59  1  0
 59 60  1  0
 60 61  1  0
 61 62  1  0
 62 64  1  0
 63 74  2  0
 64 69  1  0
 65 73  1  0
 65 75  1  0
 66 72  1  0
 66 68  1  0
 67 73  1  0
 68 67  1  0
 69 68  2  0
 70 71  1  0
 70 64  2  0
 71 66  2  0
 72 65  1  0
 73 63  1  0
 75 77  2  0
 76 75  1  0
 78 76  1  0
 79 88  2  0
 79 84  1  0
 80 76  1  0
 80 84  1  0
 81 80  1  0
 82 83  1  0
 82 81  1  0
 83 79  1  0
 84 85  2  0
 85 86  1  0
 87 86  2  0
 88 87  1  0
 89 63  1  0
 89 90  1  0
 89 99  1  0
 90 93  1  0
 91 90  1  0
 91 95  1  0
 92 91  2  0
 95 94  1  0
 95 97  1  0
 97 98  1  0
 97 96  1  0
 99102  1  1
 99100  1  0
101 99  1  0
M  ISO  4  13 100  21 100  61 101  62 101
M  END
>  <TORSDO>  (42) 
F 24

>  <SCORE>  (42) 
-9.133

>  <name>  (42) 
41

>  <ligand_id>  (42) 
41

>  <original_smiles>  (42) 
[H]c1c([H])c([H])c2c(c1[H])C([H])([H])C([H])([H])C([H])([H])C2([H])N([H])C(=O)C1([H])N(C(=O)C([H])(N([H])C(=O)C([H])(N([H])C([H])([H])[H])C([H])([H])[H])C(C([H])([H])[H])(C([H])([H])[H])C([H])([H])[H])C([H])([H])c2c([H])c(OC([H])([H])C([H])([H])OC([H])([H])C([H])([H])OC([H])([H])C3([H])N(C(=O)C(C([H])([H])[H])(C([H])([H])[H])C([H])([H])[H])C([H])([H])c4c([H])c([H])c(N([H])C(=O)N5C([H])([H])C([H])([H])C([H])([H])C([H])(n6nc(-c7c([H])c([H])c(Oc8c([H])c([H])c(F)c([H])c8F)c([H])c7[H])c(C(=O)N([H])[H])c6N([H])[H])C5([H])[H])c([H])c4C3([H])[H])c([H])c([H])c2C1([H])[H]

>  <smiles>  (42) 
[H]c1c([H])c([H])c2c(c1[H])C([H])([H])C([H])([H])C([H])([H])C2([H])N([H])C(=O)C1([H])N(C(=O)C([H])(N([H])C(=O)C([H])(N([H])C([H])([H])[H])C([H])([H])[H])C(C([H])([H])[H])(C([H])([H])[H])C([H])([H])[H])C([H])([H])c2c([H])c(OC([H])([H])C([H])([H])OC([H])([H])C([H])([H])OC([H])([H])C3([H])N(C(=O)C(C([H])([H])[H])(C([H])([H])[H])C([H])([H])[H])C([H])([H])c4c([H])c([H])c(N([H])C(=O)N5C([H])([H])C([H])([H])C([H])([H])C([H])(n6nc(-c7c([H])c([H])c(Oc8c([H])c([H])c(F)c([H])c8F)c([H])c7[H])c(C(=O)N([H])[H])c6N([H])[H])C5([H])[H])c([H])c4C3([H])[H])c([H])c([H])c2C1([H])[H]

$$$$
42:0:0
     RDKit          3D

104112  0  0  1  0  0  0  0  0999 V2000
  -24.9270  -24.4870   23.7330 C   0  0  0  0  0  0  0  0  0  0  0  0
  -24.8400  -25.8580   24.3590 N   0  0  0  0  0  0  0  0  0  0  0  0
  -23.9010  -24.1370   23.1510 O   0  0  0  0  0  0  0  0  0  0  0  0
  -25.7280  -26.1240   24.7660 H   0  0  0  0  0  0  0  0  0  0  0  0
  -27.2150  -23.4060   24.5710 C   0  0  0  0  0  3  0  0  0  0  0  0
  -28.2740  -22.4630   24.6550 C   0  0  0  0  0  3  0  0  0  0  0  0
  -26.3200  -21.9280   22.8890 C   0  0  0  0  0  3  0  0  0  0  0  0
  -26.1440  -23.2820   23.6690 C   0  0  0  0  0  0  0  0  0  0  0  0
  -28.4250  -21.2570   23.8840 C   0  0  0  0  0  0  0  0  0  0  0  0
  -27.4490  -20.8270   22.9300 C   0  0  0  0  0  0  0  0  0  0  0  0
  -29.6730  -20.3900   24.1100 C   0  0  0  0  0  2  0  0  0  0  0  0
  -30.6360  -20.9150   25.0970 N   0  0  0  0  0  4  0  0  0  0  0  0
  -30.1840  -21.0490   25.9820 H   0  0  0  0  0  0  0  0  0  0  0  0
  -31.0190  -21.7890   24.7860 H   0  0  0  0  0  0  0  0  0  0  0  0
  -31.3900  -20.2660   25.2260 H   0  0  0  0  0  0  0  0  0  0  0  0
  -27.6550  -19.1880   22.1900 C   0  0  0  0  0  3  0  0  0  0  0  0
  -29.0420  -18.0110   21.7320 C   0  0  0  0  0  3  0  0  0  0  0  0
  -30.1300  -15.2800   20.7970 C   0  0  0  0  0  0  0  0  0  0  0  0
  -30.4070  -12.8960   19.6480 C   0  0  0  0  0  2  0  0  0  0  0  0
  -29.5510  -12.6540   18.3660 C   0  0  0  0  0  2  0  0  0  0  0  0
  -28.0900  -12.3240   18.7250 C   0  0  0  0  0  2  0  0  0  0  0  0
  -27.5840  -13.2530   19.8540 C   0  0  0  0  0  3  0  0  0  0  0  0
  -28.5380  -13.3000   21.0550 C   0  0  0  0  0  2  0  0  0  0  0  0
  -29.7500  -13.9250   20.5600 N   0  0  0  0  0  0  0  0  0  0  0  0
  -31.3200  -15.4610   20.4560 O   0  0  0  0  0  0  0  0  0  0  0  0
  -29.1690  -16.3530   21.2900 N   0  0  0  0  0  0  0  0  0  0  0  0
  -28.2700  -15.9140   21.4260 H   0  0  0  0  0  0  0  0  0  0  0  0
  -25.2200  -13.8160   20.5650 C   0  0  0  0  0  0  0  0  0  0  0  0
  -24.1570  -13.0390   20.9210 C   0  0  0  0  0  0  0  0  0  0  0  0
  -24.6210  -11.6870   20.8690 C   0  0  0  0  0  0  0  0  0  0  0  0
  -26.2500  -12.9350   20.3010 N   0  0  0  0  0  0  0  0  0  0  0  0
  -25.9100  -11.6500   20.5580 N   0  0  0  0  0  0  0  0  0  0  0  0
  -23.8970  -10.4230   21.0410 C   0  0  0  0  0  0  0  0  0  0  0  0
  -24.3590   -9.4170   21.9180 C   0  0  0  0  0  3  0  0  0  0  0  0
  -23.6270   -8.2200   22.0750 C   0  0  0  0  0  3  0  0  0  0  0  0
  -22.4250   -8.0240   21.3550 C   0  0  0  0  0  0  0  0  0  0  0  0
  -21.9860   -9.0190   20.4650 C   0  0  0  0  0  3  0  0  0  0  0  0
  -22.7150  -10.2070   20.3050 C   0  0  0  0  0  3  0  0  0  0  0  0
  -21.6630   -6.8850   21.4250 O   0  0  0  0  0  0  0  0  0  0  0  0
  -21.6840   -6.0720   22.5290 C   0  0  0  0  0  0  0  0  0  0  0  0
  -21.4000   -6.5640   23.8220 C   0  0  0  0  0  3  0  0  0  0  0  0
  -21.3660   -5.6800   24.9190 C   0  0  0  0  0  3  0  0  0  0  0  0
  -21.6040   -4.3060   24.7230 C   0  0  0  0  0  0  0  0  0  0  0  0
  -21.8820   -3.8150   23.4350 C   0  0  0  0  0  3  0  0  0  0  0  0
  -21.9180   -4.6950   22.3410 C   0  0  0  0  0  0  0  0  0  0  0  0
  -22.1660   -4.2150   21.0980 F   0  0  0  0  0  0  0  0  0  0  0  0
  -21.5610   -3.4540   25.7740 F   0  0  0  0  0  0  0  0  0  0  0  0
  -22.7640  -13.5180   21.1920 C   0  0  0  0  0  0  0  0  0  0  0  0
  -22.0370  -12.8130   22.0500 N   0  0  0  0  0  0  0  0  0  0  0  0
  -22.3310  -14.5500   20.6800 O   0  0  0  0  0  0  0  0  0  0  0  0
  -22.4040  -11.9770   22.4800 H   0  0  0  0  0  0  0  0  0  0  0  0
  -21.1020  -13.1130   22.2850 H   0  0  0  0  0  0  0  0  0  0  0  0
  -25.3930  -15.1910   20.4230 N   0  0  0  0  0  0  0  0  0  0  0  0
  -24.6210  -15.8370   20.5470 H   0  0  0  0  0  0  0  0  0  0  0  0
  -26.2190  -15.6370   20.0440 H   0  0  0  0  0  0  0  0  0  0  0  0
  -23.6080  -26.9800   24.7630 C   0  0  0  0  0  2  0  0  0  0  0  0
  -23.3040  -28.8300   25.1050 C   0  0  0  0  0  2  0  0  0  0  0  0
  -22.6110  -30.3220   24.4300 O   0  0  0  0  0  0  0  0  0  0  0  0
  -22.9260  -31.9100   23.7000 C   0  0  0  0  0  2  0  0  0  0  0  0
  -23.9190  -32.8700   22.3060 C   0  0  0  0  0  2  0  0  0  0  0  0
  -25.6070  -32.8970   21.6580 O   0  0  0  0  0  0  0  0  0  0  0  0
  -27.1740  -32.0000   21.4330 C   0  0  0  0  0  2  0  0  0  0  0  0
  -27.8430  -30.2460   21.7020 C   0  0  0  0  0  2  0  0  0  0  0  0
  -28.1030  -28.6830   21.0640 O   0  0  0  0  0  0  0  0  0  0  0  0
  -25.3230  -30.9260   23.1700 C   0  0  0  0  0  0  0  0  0  0  0  0
  -27.3040  -28.1570   20.0680 C   0  0  0  0  0  3  0  0  0  0  0  0
  -23.3700  -30.1030   21.4020 C   0  0  0  0  0  3  0  0  0  0  0  0
  -24.6540  -28.6730   19.8110 C   0  0  0  0  0  3  0  0  0  0  0  0
  -25.2340  -30.8420   20.4210 C   0  0  0  0  0  2  0  0  0  0  0  0
  -25.6440  -29.5960   19.8570 C   0  0  0  0  0  3  0  0  0  0  0  0
  -26.9270  -29.3040   19.5030 C   0  0  0  0  0  2  0  0  0  0  0  0
  -26.3970  -27.0430   20.0050 C   0  0  0  0  0  3  0  0  0  0  0  0
  -25.0230  -27.3250   19.7300 C   0  0  0  0  0  3  0  0  0  0  0  0
  -23.3000  -29.2870   20.0350 C   0  0  0  0  0  2  0  0  0  0  0  0
  -24.7960  -30.5640   21.8340 N   0  0  0  0  0  0  0  0  0  0  0  0
  -24.8480  -30.3990   24.0380 O   0  0  0  0  0  0  0  0  0  0  0  0
  -22.6740  -29.1330   22.2010 C   0  0  0  0  0  0  0  0  0  0  0  0
  -21.3410  -29.2120   22.3120 N   0  0  0  0  0  0  0  0  0  0  0  0
  -23.3880  -28.2650   22.6180 O   0  0  0  0  0  0  0  0  0  0  0  0
  -20.8550  -29.9630   21.8470 H   0  0  0  0  0  0  0  0  0  0  0  0
  -17.9860  -28.1310   22.8470 C   0  0  0  0  0  0  0  0  0  0  0  0
  -20.5320  -28.3130   23.1120 C   0  0  0  0  0  3  0  0  0  0  0  0
  -20.5920  -26.8740   22.5570 C   0  0  0  0  0  2  0  0  0  0  0  0
  -19.5110  -26.6010   21.5230 C   0  0  0  0  0  2  0  0  0  0  0  0
  -18.1310  -26.7870   22.1570 C   0  0  0  0  0  2  0  0  0  0  0  0
  -19.1190  -28.8620   23.2830 C   0  0  0  0  0  0  0  0  0  0  0  0
  -18.9340  -30.1330   23.8750 C   0  0  0  0  0  3  0  0  0  0  0  0
  -17.6410  -30.6610   24.0430 C   0  0  0  0  0  3  0  0  0  0  0  0
  -16.5200  -29.9220   23.6290 C   0  0  0  0  0  3  0  0  0  0  0  0
  -16.6950  -28.6590   23.0380 C   0  0  0  0  0  3  0  0  0  0  0  0
  -26.1660  -32.1790   23.9650 C   0  0  0  0  0  3  0  0  0  0  0  0
  -25.6600  -33.6270   24.2380 N   0  0  0  0  0  0  0  0  0  0  0  0
  -26.0180  -34.8190   23.6360 C   0  0  0  0  0  0  0  0  0  0  0  0
  -26.8010  -34.8800   22.6830 O   0  0  0  0  0  0  0  0  0  0  0  0
  -25.0100  -33.7060   25.0050 H   0  0  0  0  0  0  0  0  0  0  0  0
  -24.1750  -36.5940   23.3100 C   0  0  0  0  0  1  0  0  0  0  0  0
  -25.4340  -36.1900   24.1100 C   0  0  0  0  0  3  0  0  0  0  0  0
  -27.5630  -37.1700   24.8780 C   0  0  0  0  0  1  0  0  0  0  0  0
  -26.4070  -37.3120   23.9990 N   0  0  0  0  0  0  0  0  0  0  0  0
  -25.9600  -38.2020   24.2030 H   0  0  0  0  0  0  0  0  0  0  0  0
  -26.6420  -31.6220   25.3430 C   0  0  1  0  0  0  0  0  0  0  0  0
  -25.5140  -31.4760   26.4100 C   0  0  0  0  0  1  0  0  0  0  0  0
  -27.3920  -30.2670   25.1470 C   0  0  0  0  0  1  0  0  0  0  0  0
  -27.7170  -32.5470   25.9410 C   0  0  0  0  0  1  0  0  0  0  0  0
  1  2  1  0
  2 56  1  0
  2  4  1  0
  3  1  2  0
  5  6  1  0
  7 10  2  0
  7  8  1  0
  8  1  1  0
  8  5  2  0
  9 11  1  0
  9  6  2  0
 10  9  1  0
 11 12  1  0
 12 15  1  0
 12 13  1  0
 14 12  1  0
 16 10  1  0
 17 16  2  0
 18 26  1  0
 19 24  1  0
 20 21  1  0
 20 19  1  0
 22 21  1  0
 22 31  1  0
 22 23  1  0
 24 18  1  0
 24 23  1  0
 25 18  2  0
 26 27  1  0
 26 17  1  0
 28 29  2  0
 29 48  1  0
 30 29  1  0
 30 33  1  0
 31 32  1  0
 31 28  1  0
 32 30  2  0
 33 34  1  0
 34 35  2  0
 36 39  1  0
 36 35  1  0
 37 36  2  0
 38 37  1  0
 38 33  2  0
 39 40  1  0
 40 41  1  0
 41 42  2  0
 43 42  1  0
 43 47  1  0
 44 43  2  0
 45 40  2  0
 45 44  1  0
 46 45  1  0
 48 49  1  0
 49 52  1  0
 49 51  1  0
 50 48  2  0
 53 54  1  0
 53 28  1  0
 55 53  1  0
 56 57  1  0
 58 57  1  0
 59 58  1  0
 60 59  1  0
 61 60  1  0
 62 61  1  0
 62 63  1  0
 64 63  1  0
 65 76  2  0
 66 64  1  0
 67 75  1  0
 67 77  1  0
 68 73  1  0
 68 70  1  0
 68 74  1  0
 69 75  1  0
 70 71  1  0
 70 69  1  0
 71 66  1  0
 72 66  1  0
 73 72  2  0
 74 67  1  0
 75 65  1  0
 77 78  1  0
 77 79  2  0
 80 78  1  0
 81 90  2  0
 81 86  1  0
 82 78  1  0
 82 86  1  0
 83 82  1  0
 84 85  1  0
 84 83  1  0
 85 81  1  0
 86 87  2  0
 87 88  1  0
 89 88  2  0
 90 89  1  0
 91 65  1  0
 91 92  1  0
 91101  1  0
 92 95  1  0
 93 97  1  0
 93 92  1  0
 94 93  2  0
 97 96  1  0
 99 97  1  0
 99100  1  0
 99 98  1  0
101104  1  1
101102  1  0
103101  1  0
M  ISO  4  18 100  26 100  63 101  64 101
M  END
>  <TORSDO>  (43) 
F 29

>  <SCORE>  (43) 
31.875

>  <name>  (43) 
42

>  <ligand_id>  (43) 
42

>  <original_smiles>  (43) 
[H]c1c([H])c([H])c2c(c1[H])C([H])([H])C([H])([H])C([H])([H])C2([H])N([H])C(=O)C1([H])N(C(=O)C([H])(N([H])C(=O)C([H])(N([H])C([H])([H])[H])C([H])([H])[H])C(C([H])([H])[H])(C([H])([H])[H])C([H])([H])[H])C([H])([H])c2c([H])c(OC([H])([H])C([H])([H])OC([H])([H])C([H])([H])OC([H])([H])C([H])([H])N([H])C(=O)c3c([H])c([H])c(C([H])([H])[N+]([H])([H])[H])c(C([H])([H])C([H])([H])N([H])C(=O)N4C([H])([H])C([H])([H])C([H])([H])C([H])(n5nc(-c6c([H])c([H])c(Oc7c([H])c([H])c(F)c([H])c7F)c([H])c6[H])c(C(=O)N([H])[H])c5N([H])[H])C4([H])[H])c3[H])c([H])c([H])c2C1([H])[H]

>  <smiles>  (43) 
[H]c1c([H])c([H])c2c(c1[H])C([H])([H])C([H])([H])C([H])([H])C2([H])N([H])C(=O)C1([H])N(C(=O)C([H])(N([H])C(=O)C([H])(N([H])C([H])([H])[H])C([H])([H])[H])C(C([H])([H])[H])(C([H])([H])[H])C([H])([H])[H])C([H])([H])c2c([H])c(OC([H])([H])C([H])([H])OC([H])([H])C([H])([H])OC([H])([H])C([H])([H])N([H])C(=O)c3c([H])c([H])c(C([H])([H])[N+]([H])([H])[H])c(C([H])([H])C([H])([H])N([H])C(=O)N4C([H])([H])C([H])([H])C([H])([H])C([H])(n5nc(-c6c([H])c([H])c(Oc7c([H])c([H])c(F)c([H])c7F)c([H])c6[H])c(C(=O)N([H])[H])c5N([H])[H])C4([H])[H])c3[H])c([H])c([H])c2C1([H])[H]

$$$$
43:0:0
     RDKit          3D

 91 99  0  0  1  0  0  0  0  0999 V2000
  -28.7930  -21.0830   20.0620 C   0  0  0  0  0  0  0  0  0  0  0  0
  -29.0170  -22.3780   20.5100 N   0  0  0  0  0  0  0  0  0  0  0  0
  -27.9230  -20.8740   19.2140 O   0  0  0  0  0  0  0  0  0  0  0  0
  -29.6840  -22.4560   21.2650 H   0  0  0  0  0  0  0  0  0  0  0  0
  -31.7600  -19.0240   21.4770 C   0  0  0  0  0  3  0  0  0  0  0  0
  -30.9110  -20.0940   21.1230 C   0  0  0  0  0  3  0  0  0  0  0  0
  -31.3870  -17.6780   21.2760 C   0  0  0  0  0  3  0  0  0  0  0  0
  -29.2740  -18.4590   20.3660 C   0  0  0  0  0  3  0  0  0  0  0  0
  -29.6390  -19.8630   20.5550 C   0  0  0  0  0  0  0  0  0  0  0  0
  -30.1380  -17.3320   20.7120 C   0  0  0  0  0  0  0  0  0  0  0  0
  -30.5650  -14.7560   20.3870 C   0  0  0  0  0  0  0  0  0  0  0  0
  -30.3540  -12.4850   19.3540 C   0  0  0  0  0  2  0  0  0  0  0  0
  -29.4070  -12.5720   18.1370 C   0  0  0  0  0  2  0  0  0  0  0  0
  -27.9400  -12.4020   18.5770 C   0  0  0  0  0  2  0  0  0  0  0  0
  -27.5760  -13.2730   19.8100 C   0  0  0  0  0  3  0  0  0  0  0  0
  -28.6460  -13.1740   20.9190 C   0  0  0  0  0  2  0  0  0  0  0  0
  -29.9330  -13.5340   20.3110 N   0  0  0  0  0  0  0  0  0  0  0  0
  -31.7560  -14.8410   20.0730 O   0  0  0  0  0  0  0  0  0  0  0  0
  -29.7790  -15.8930   20.5680 N   0  0  0  0  0  0  0  0  0  0  0  0
  -28.7920  -15.6950   20.6010 H   0  0  0  0  0  0  0  0  0  0  0  0
  -25.1940  -13.8540   20.5620 C   0  0  0  0  0  0  0  0  0  0  0  0
  -24.1330  -13.0760   20.9380 C   0  0  0  0  0  0  0  0  0  0  0  0
  -24.6000  -11.7260   20.8980 C   0  0  0  0  0  0  0  0  0  0  0  0
  -26.2380  -12.9790   20.3130 N   0  0  0  0  0  0  0  0  0  0  0  0
  -25.8870  -11.6930   20.5780 N   0  0  0  0  0  0  0  0  0  0  0  0
  -23.8770  -10.4620   21.0890 C   0  0  0  0  0  0  0  0  0  0  0  0
  -24.3260   -9.4830   22.0020 C   0  0  0  0  0  3  0  0  0  0  0  0
  -23.6030   -8.2830   22.1810 C   0  0  0  0  0  3  0  0  0  0  0  0
  -22.4150   -8.0550   21.4460 C   0  0  0  0  0  0  0  0  0  0  0  0
  -21.9840   -9.0230   20.5210 C   0  0  0  0  0  3  0  0  0  0  0  0
  -22.7090  -10.2130   20.3400 C   0  0  0  0  0  3  0  0  0  0  0  0
  -21.6600   -6.9110   21.5350 O   0  0  0  0  0  0  0  0  0  0  0  0
  -21.6450   -6.1470   22.6740 C   0  0  0  0  0  0  0  0  0  0  0  0
  -21.2650   -6.6800   23.9250 C   0  0  0  0  0  3  0  0  0  0  0  0
  -21.1970   -5.8430   25.0570 C   0  0  0  0  0  3  0  0  0  0  0  0
  -21.4980   -4.4730   24.9390 C   0  0  0  0  0  0  0  0  0  0  0  0
  -21.8700   -3.9380   23.6930 C   0  0  0  0  0  3  0  0  0  0  0  0
  -21.9410   -4.7720   22.5630 C   0  0  0  0  0  0  0  0  0  0  0  0
  -22.2800   -4.2490   21.3610 F   0  0  0  0  0  0  0  0  0  0  0  0
  -21.4250   -3.6660   26.0230 F   0  0  0  0  0  0  0  0  0  0  0  0
  -22.7370  -13.5500   21.2210 C   0  0  0  0  0  0  0  0  0  0  0  0
  -22.0160  -12.8490   22.0880 N   0  0  0  0  0  0  0  0  0  0  0  0
  -22.2930  -14.5760   20.7070 O   0  0  0  0  0  0  0  0  0  0  0  0
  -22.3870  -12.0200   22.5280 H   0  0  0  0  0  0  0  0  0  0  0  0
  -21.0790  -13.1470   22.3180 H   0  0  0  0  0  0  0  0  0  0  0  0
  -25.3500  -15.2260   20.3840 N   0  0  0  0  0  0  0  0  0  0  0  0
  -24.5700  -15.8690   20.4770 H   0  0  0  0  0  0  0  0  0  0  0  0
  -26.1750  -15.6650   19.9980 H   0  0  0  0  0  0  0  0  0  0  0  0
  -28.6200  -23.7090   19.8510 C   0  0  0  0  0  2  0  0  0  0  0  0
  -28.2330  -25.0180   20.7310 C   0  0  0  0  0  2  0  0  0  0  0  0
  -28.3410  -26.4230   20.1970 O   0  0  0  0  0  0  0  0  0  0  0  0
  -24.6110  -31.8810   23.2350 C   0  0  0  0  0  0  0  0  0  0  0  0
  -27.2230  -27.2820   20.2030 C   0  0  0  0  0  0  0  0  0  0  0  0
  -23.4070  -30.4730   21.6010 C   0  0  0  0  0  3  0  0  0  0  0  0
  -24.8590  -28.9090   20.1820 C   0  0  0  0  0  0  0  0  0  0  0  0
  -25.9470  -30.7900   21.4110 C   0  0  0  0  0  2  0  0  0  0  0  0
  -26.0300  -29.4030   20.7730 C   0  0  0  0  0  0  0  0  0  0  0  0
  -27.2180  -28.6040   20.7650 C   0  0  0  0  0  3  0  0  0  0  0  0
  -26.0300  -26.8470   19.5930 C   0  0  0  0  0  3  0  0  0  0  0  0
  -24.8630  -27.6400   19.5810 C   0  0  0  0  0  3  0  0  0  0  0  0
  -23.6220  -29.7860   20.2260 C   0  0  0  0  0  2  0  0  0  0  0  0
  -24.6750  -31.0670   22.1390 N   0  0  0  0  0  0  0  0  0  0  0  0
  -23.5280  -32.1590   23.7710 O   0  0  0  0  0  0  0  0  0  0  0  0
  -22.7450  -29.4630   22.5690 C   0  0  0  0  0  0  0  0  0  0  0  0
  -21.4190  -29.2830   22.4440 N   0  0  0  0  0  0  0  0  0  0  0  0
  -23.4240  -28.8420   23.3900 O   0  0  0  0  0  0  0  0  0  0  0  0
  -20.9280  -29.8350   21.7540 H   0  0  0  0  0  0  0  0  0  0  0  0
  -18.0450  -28.0760   22.9460 C   0  0  0  0  0  0  0  0  0  0  0  0
  -20.6030  -28.3460   23.2190 C   0  0  0  0  0  3  0  0  0  0  0  0
  -20.7100  -26.9120   22.6500 C   0  0  0  0  0  2  0  0  0  0  0  0
  -19.6110  -26.5810   21.6360 C   0  0  0  0  0  2  0  0  0  0  0  0
  -18.2280  -26.7240   22.2770 C   0  0  0  0  0  2  0  0  0  0  0  0
  -19.1600  -28.8440   23.3750 C   0  0  0  0  0  0  0  0  0  0  0  0
  -18.9350  -30.1080   23.9600 C   0  0  0  0  0  3  0  0  0  0  0  0
  -17.6280  -30.6050   24.1240 C   0  0  0  0  0  3  0  0  0  0  0  0
  -16.5270  -29.8320   23.7140 C   0  0  0  0  0  3  0  0  0  0  0  0
  -16.7370  -28.5700   23.1310 C   0  0  0  0  0  3  0  0  0  0  0  0
  -25.8930  -32.5190   23.8540 C   0  0  0  0  0  3  0  0  0  0  0  0
  -26.4140  -31.7500   25.1310 C   0  0  1  0  0  0  0  0  0  0  0  0
  -25.3230  -31.5120   26.2020 C   0  0  0  0  0  1  0  0  0  0  0  0
  -26.9960  -30.3730   24.7390 C   0  0  0  0  0  1  0  0  0  0  0  0
  -27.5680  -32.5440   25.7880 C   0  0  0  0  0  1  0  0  0  0  0  0
  -25.5810  -33.9170   24.1860 N   0  0  0  0  0  0  0  0  0  0  0  0
  -25.9090  -34.9720   23.4270 C   0  0  0  0  0  0  0  0  0  0  0  0
  -26.5720  -34.8710   22.3920 O   0  0  0  0  0  0  0  0  0  0  0  0
  -24.9930  -34.0700   24.9920 H   0  0  0  0  0  0  0  0  0  0  0  0
  -24.1760  -36.7620   23.0840 C   0  0  0  0  0  1  0  0  0  0  0  0
  -25.4220  -36.3600   23.8880 C   0  0  0  0  0  3  0  0  0  0  0  0
  -27.5590  -37.2470   24.7080 C   0  0  0  0  0  1  0  0  0  0  0  0
  -26.4520  -37.4150   23.7700 N   0  0  0  0  0  0  0  0  0  0  0  0
  -26.0450  -38.3340   23.9210 H   0  0  0  0  0  0  0  0  0  0  0  0
  1  2  1  0
  1  9  1  0
  2  4  1  0
  3  1  2  0
  6  5  2  0
  7  5  1  0
  8  9  2  0
  8 10  1  0
  9  6  1  0
 10  7  2  0
 11 19  1  0
 12 17  1  0
 13 14  1  0
 13 12  1  0
 15 14  1  0
 15 24  1  0
 15 16  1  0
 17 11  1  0
 17 16  1  0
 18 11  2  0
 19 20  1  0
 19 10  1  0
 21 22  2  0
 22 41  1  0
 23 22  1  0
 23 26  1  0
 24 21  1  0
 24 25  1  0
 25 23  2  0
 26 27  1  0
 27 28  2  0
 29 32  1  0
 29 28  1  0
 30 29  2  0
 31 30  1  0
 31 26  2  0
 32 33  1  0
 33 34  1  0
 34 35  2  0
 36 35  1  0
 36 40  1  0
 37 36  2  0
 38 33  2  0
 38 37  1  0
 39 38  1  0
 41 42  1  0
 42 45  1  0
 42 44  1  0
 43 41  2  0
 46 47  1  0
 46 21  1  0
 48 46  1  0
 49  2  1  0
 49 50  1  0
 51 53  1  0
 51 50  1  0
 52 63  2  0
 53 58  1  0
 54 62  1  0
 54 64  1  0
 55 61  1  0
 55 57  1  0
 56 62  1  0
 57 56  1  0
 58 57  2  0
 59 53  2  0
 60 59  1  0
 60 55  2  0
 61 54  1  0
 62 52  1  0
 64 66  2  0
 65 64  1  0
 67 65  1  0
 68 77  2  0
 68 73  1  0
 69 65  1  0
 69 73  1  0
 70 69  1  0
 71 72  1  0
 71 70  1  0
 72 68  1  0
 73 74  2  0
 74 75  1  0
 76 75  2  0
 77 76  1  0
 78 52  1  0
 78 83  1  0
 78 79  1  0
 79 82  1  1
 79 80  1  0
 81 79  1  0
 83 86  1  0
 84 88  1  0
 84 83  1  0
 85 84  2  0
 88 87  1  0
 90 88  1  0
 90 91  1  0
 90 89  1  0
M  ISO  4  11 100  19 100  50 101  51 101
M  END
>  <TORSDO>  (44) 
F 19

>  <SCORE>  (44) 
-14.451

>  <name>  (44) 
43

>  <ligand_id>  (44) 
43

>  <original_smiles>  (44) 
[H]c1c([H])c(C(=O)N([H])C([H])([H])C([H])([H])Oc2c([H])c([H])c3c(c2[H])C([H])([H])N(C(=O)C([H])(N([H])C(=O)C([H])(N([H])C([H])([H])[H])C([H])([H])[H])C(C([H])([H])[H])(C([H])([H])[H])C([H])([H])[H])C([H])(C(=O)N([H])C2([H])c4c([H])c([H])c([H])c([H])c4C([H])([H])C([H])([H])C2([H])[H])C3([H])[H])c([H])c(N([H])C(=O)N2C([H])([H])C([H])([H])C([H])([H])C([H])(n3nc(-c4c([H])c([H])c(Oc5c([H])c([H])c(F)c([H])c5F)c([H])c4[H])c(C(=O)N([H])[H])c3N([H])[H])C2([H])[H])c1[H]

>  <smiles>  (44) 
[H]c1c([H])c(C(=O)N([H])C([H])([H])C([H])([H])Oc2c([H])c([H])c3c(c2[H])C([H])([H])N(C(=O)C([H])(N([H])C(=O)C([H])(N([H])C([H])([H])[H])C([H])([H])[H])C(C([H])([H])[H])(C([H])([H])[H])C([H])([H])[H])C([H])(C(=O)N([H])C2([H])c4c([H])c([H])c([H])c([H])c4C([H])([H])C([H])([H])C2([H])[H])C3([H])[H])c([H])c(N([H])C(=O)N2C([H])([H])C([H])([H])C([H])([H])C([H])(n3nc(-c4c([H])c([H])c(Oc5c([H])c([H])c(F)c([H])c5F)c([H])c4[H])c(C(=O)N([H])[H])c3N([H])[H])C2([H])[H])c1[H]

$$$$
44:0:0
     RDKit          3D

 87 95  0  0  1  0  0  0  0  0999 V2000
  -29.8250  -21.4280   19.9150 C   0  0  0  0  0  3  0  0  0  0  0  0
  -27.7760  -20.9180   20.5780 C   0  0  0  0  0  3  0  0  0  0  0  0
  -30.1740  -19.9210   19.8840 C   0  0  0  0  0  3  0  0  0  0  0  0
  -28.1130  -19.4380   20.5520 C   0  0  0  0  0  3  0  0  0  0  0  0
  -28.5540  -22.1480   20.2660 C   0  0  0  0  0  0  0  0  0  0  0  0
  -29.3510  -18.7060   20.2010 C   0  0  0  0  0  0  0  0  0  0  0  0
  -30.3440  -15.7040   19.9970 C   0  0  0  0  0  0  0  0  0  0  0  0
  -30.4340  -13.1870   19.1200 C   0  0  0  0  0  2  0  0  0  0  0  0
  -29.4800  -12.8360   17.9420 C   0  0  0  0  0  2  0  0  0  0  0  0
  -28.0760  -12.4760   18.4530 C   0  0  0  0  0  2  0  0  0  0  0  0
  -27.6220  -13.4380   19.5750 C   0  0  0  0  0  3  0  0  0  0  0  0
  -28.7080  -13.6960   20.6460 C   0  0  0  0  0  2  0  0  0  0  0  0
  -29.8530  -14.3310   19.9520 N   0  0  0  0  0  0  0  0  0  0  0  0
  -31.5580  -15.7010   19.7150 O   0  0  0  0  0  0  0  0  0  0  0  0
  -29.5090  -16.9920   20.1900 N   0  0  0  0  0  0  0  0  0  0  0  0
  -28.6000  -16.6190   20.4210 H   0  0  0  0  0  0  0  0  0  0  0  0
  -25.2980  -13.9300   20.4780 C   0  0  0  0  0  0  0  0  0  0  0  0
  -24.2660  -13.1300   20.8790 C   0  0  0  0  0  0  0  0  0  0  0  0
  -24.7430  -11.7870   20.7810 C   0  0  0  0  0  0  0  0  0  0  0  0
  -26.3340  -13.0760   20.1500 N   0  0  0  0  0  0  0  0  0  0  0  0
  -26.0180  -11.7770   20.3980 N   0  0  0  0  0  0  0  0  0  0  0  0
  -24.0350  -10.5130   20.9700 C   0  0  0  0  0  0  0  0  0  0  0  0
  -24.4810   -9.5500   21.9030 C   0  0  0  0  0  3  0  0  0  0  0  0
  -23.7670   -8.3440   22.0820 C   0  0  0  0  0  3  0  0  0  0  0  0
  -22.5940   -8.0930   21.3300 C   0  0  0  0  0  0  0  0  0  0  0  0
  -22.1690   -9.0460   20.3870 C   0  0  0  0  0  3  0  0  0  0  0  0
  -22.8820  -10.2430   20.2050 C   0  0  0  0  0  3  0  0  0  0  0  0
  -21.8530   -6.9400   21.4180 O   0  0  0  0  0  0  0  0  0  0  0  0
  -21.7620   -6.2310   22.5900 C   0  0  0  0  0  0  0  0  0  0  0  0
  -21.2200   -6.8000   23.7630 C   0  0  0  0  0  3  0  0  0  0  0  0
  -21.0800   -6.0150   24.9260 C   0  0  0  0  0  3  0  0  0  0  0  0
  -21.4690   -4.6620   24.9140 C   0  0  0  0  0  0  0  0  0  0  0  0
  -22.0040   -4.0940   23.7450 C   0  0  0  0  0  3  0  0  0  0  0  0
  -22.1460   -4.8760   22.5850 C   0  0  0  0  0  0  0  0  0  0  0  0
  -22.6420   -4.3170   21.4550 F   0  0  0  0  0  0  0  0  0  0  0  0
  -21.3280   -3.9070   26.0280 F   0  0  0  0  0  0  0  0  0  0  0  0
  -22.8810  -13.5870   21.2300 C   0  0  0  0  0  0  0  0  0  0  0  0
  -22.2050  -12.8700   22.1190 N   0  0  0  0  0  0  0  0  0  0  0  0
  -22.4100  -14.6170   20.7510 O   0  0  0  0  0  0  0  0  0  0  0  0
  -22.6020  -12.0370   22.5300 H   0  0  0  0  0  0  0  0  0  0  0  0
  -21.2790  -13.1600   22.3970 H   0  0  0  0  0  0  0  0  0  0  0  0
  -25.4340  -15.3070   20.3320 N   0  0  0  0  0  0  0  0  0  0  0  0
  -24.6520  -15.9340   20.4860 H   0  0  0  0  0  0  0  0  0  0  0  0
  -26.2270  -15.7630   19.9030 H   0  0  0  0  0  0  0  0  0  0  0  0
  -27.8020  -23.8240   20.3320 C   0  0  0  0  0  0  0  0  0  0  0  0
  -26.5910  -23.6860   20.5260 O   0  0  0  0  0  0  0  0  0  0  0  0
  -28.1770  -25.6060   20.2420 O   0  0  0  0  0  0  0  0  0  0  0  0
  -24.6520  -31.8620   23.2180 C   0  0  0  0  0  0  0  0  0  0  0  0
  -27.2320  -26.8370   20.2130 C   0  0  0  0  0  0  0  0  0  0  0  0
  -23.4900  -30.4810   21.5510 C   0  0  0  0  0  3  0  0  0  0  0  0
  -24.9610  -28.8570   20.1470 C   0  0  0  0  0  0  0  0  0  0  0  0
  -26.0700  -30.6320   21.4710 C   0  0  0  0  0  2  0  0  0  0  0  0
  -26.1470  -29.2080   20.8030 C   0  0  0  0  0  0  0  0  0  0  0  0
  -27.2680  -28.2250   20.8110 C   0  0  0  0  0  3  0  0  0  0  0  0
  -26.0120  -26.6980   19.5020 C   0  0  0  0  0  3  0  0  0  0  0  0
  -24.9290  -27.6240   19.4760 C   0  0  0  0  0  3  0  0  0  0  0  0
  -23.7520  -29.8020   20.1770 C   0  0  0  0  0  2  0  0  0  0  0  0
  -24.7600  -31.0230   22.1340 N   0  0  0  0  0  0  0  0  0  0  0  0
  -23.5510  -32.1550   23.7160 O   0  0  0  0  0  0  0  0  0  0  0  0
  -22.7620  -29.4910   22.4990 C   0  0  0  0  0  0  0  0  0  0  0  0
  -21.4290  -29.3440   22.3600 N   0  0  0  0  0  0  0  0  0  0  0  0
  -23.4060  -28.8520   23.3330 O   0  0  0  0  0  0  0  0  0  0  0  0
  -20.9590  -29.9100   21.6660 H   0  0  0  0  0  0  0  0  0  0  0  0
  -18.0250  -28.1810   22.8620 C   0  0  0  0  0  0  0  0  0  0  0  0
  -20.5910  -28.4030   23.1120 C   0  0  0  0  0  3  0  0  0  0  0  0
  -20.6650  -26.9830   22.5010 C   0  0  0  0  0  2  0  0  0  0  0  0
  -19.5510  -26.7050   21.4860 C   0  0  0  0  0  2  0  0  0  0  0  0
  -18.1770  -26.8510   22.1440 C   0  0  0  0  0  2  0  0  0  0  0  0
  -19.1570  -28.9170   23.3030 C   0  0  0  0  0  0  0  0  0  0  0  0
  -18.9580  -30.1610   23.9400 C   0  0  0  0  0  3  0  0  0  0  0  0
  -17.6600  -30.6690   24.1380 C   0  0  0  0  0  3  0  0  0  0  0  0
  -16.5430  -29.9320   23.7100 C   0  0  0  0  0  3  0  0  0  0  0  0
  -16.7260  -28.6890   23.0780 C   0  0  0  0  0  3  0  0  0  0  0  0
  -25.9050  -32.5080   23.8830 C   0  0  0  0  0  3  0  0  0  0  0  0
  -25.5790  -33.9090   24.2160 N   0  0  0  0  0  0  0  0  0  0  0  0
  -25.8850  -34.9720   23.4600 C   0  0  0  0  0  0  0  0  0  0  0  0
  -26.5290  -34.8770   22.4120 O   0  0  0  0  0  0  0  0  0  0  0  0
  -25.0000  -34.0540   25.0300 H   0  0  0  0  0  0  0  0  0  0  0  0
  -24.1200  -36.7510   23.1960 C   0  0  0  0  0  1  0  0  0  0  0  0
  -25.4070  -36.3600   23.9400 C   0  0  0  0  0  3  0  0  0  0  0  0
  -27.5630  -37.2900   24.6660 C   0  0  0  0  0  1  0  0  0  0  0  0
  -26.4190  -37.4260   23.7680 N   0  0  0  0  0  0  0  0  0  0  0  0
  -26.0060  -38.3430   23.9160 H   0  0  0  0  0  0  0  0  0  0  0  0
  -26.3740  -31.7450   25.1850 C   0  0  1  0  0  0  0  0  0  0  0  0
  -25.2430  -31.5180   26.2170 C   0  0  0  0  0  1  0  0  0  0  0  0
  -26.9660  -30.3620   24.8360 C   0  0  0  0  0  1  0  0  0  0  0  0
  -27.5010  -32.5420   25.8800 C   0  0  0  0  0  1  0  0  0  0  0  0
  1  5  1  0
  3  1  2  0
  3  6  1  0
  4  2  1  0
  5 45  1  0
  5  2  2  0
  6  4  2  0
  7 15  1  0
  8 13  1  0
  9 10  1  0
  9  8  1  0
 11 10  1  0
 11 20  1  0
 11 12  1  0
 13  7  1  0
 13 12  1  0
 14  7  2  0
 15  6  1  0
 15 16  1  0
 17 18  2  0
 18 37  1  0
 19 18  1  0
 19 22  1  0
 20 21  1  0
 20 17  1  0
 21 19  2  0
 22 23  1  0
 23 24  2  0
 25 28  1  0
 25 24  1  0
 26 25  2  0
 27 26  1  0
 27 22  2  0
 28 29  1  0
 29 30  1  0
 30 31  2  0
 32 31  1  0
 32 36  1  0
 33 32  2  0
 34 29  2  0
 34 33  1  0
 35 34  1  0
 37 38  1  0
 38 41  1  0
 38 40  1  0
 39 37  2  0
 42 17  1  0
 42 43  1  0
 44 42  1  0
 45 46  2  0
 47 45  1  0
 48 59  2  0
 49 47  1  0
 49 54  1  0
 50 58  1  0
 50 60  1  0
 51 57  1  0
 51 53  1  0
 52 58  1  0
 53 54  2  0
 53 52  1  0
 55 49  2  0
 56 55  1  0
 56 51  2  0
 57 50  1  0
 58 48  1  0
 60 62  2  0
 61 60  1  0
 63 61  1  0
 64 73  2  0
 64 69  1  0
 65 61  1  0
 65 69  1  0
 66 65  1  0
 67 68  1  0
 67 66  1  0
 68 64  1  0
 69 70  2  0
 70 71  1  0
 72 71  2  0
 73 72  1  0
 74 48  1  0
 74 75  1  0
 74 84  1  0
 75 78  1  0
 76 80  1  0
 76 75  1  0
 77 76  2  0
 80 79  1  0
 82 83  1  0
 82 80  1  0
 82 81  1  0
 84 87  1  1
 84 85  1  0
 86 84  1  0
M  ISO  4   7 100  15 100  45 101  47 101
M  END
>  <TORSDO>  (45) 
F 17

>  <SCORE>  (45) 
-16.325

>  <name>  (45) 
44

>  <ligand_id>  (45) 
44

>  <original_smiles>  (45) 
[H]c1c([H])c([H])c2c(c1[H])C([H])([H])C([H])([H])C([H])([H])C2([H])N([H])C(=O)C1([H])N(C(=O)C([H])(N([H])C(=O)C([H])(N([H])C([H])([H])[H])C([H])([H])[H])C(C([H])([H])[H])(C([H])([H])[H])C([H])([H])[H])C([H])([H])c2c([H])c(OC(=O)c3c([H])c([H])c(N([H])C(=O)N4C([H])([H])C([H])([H])C([H])([H])C([H])(n5nc(-c6c([H])c([H])c(Oc7c([H])c([H])c(F)c([H])c7F)c([H])c6[H])c(C(=O)N([H])[H])c5N([H])[H])C4([H])[H])c([H])c3[H])c([H])c([H])c2C1([H])[H]

>  <smiles>  (45) 
[H]c1c([H])c([H])c2c(c1[H])C([H])([H])C([H])([H])C([H])([H])C2([H])N([H])C(=O)C1([H])N(C(=O)C([H])(N([H])C(=O)C([H])(N([H])C([H])([H])[H])C([H])([H])[H])C(C([H])([H])[H])(C([H])([H])[H])C([H])([H])[H])C([H])([H])c2c([H])c(OC(=O)c3c([H])c([H])c(N([H])C(=O)N4C([H])([H])C([H])([H])C([H])([H])C([H])(n5nc(-c6c([H])c([H])c(Oc7c([H])c([H])c(F)c([H])c7F)c([H])c6[H])c(C(=O)N([H])[H])c5N([H])[H])C4([H])[H])c([H])c3[H])c([H])c([H])c2C1([H])[H]

$$$$
45:0:0
     RDKit          3D

 90 97  0  0  1  0  0  0  0  0999 V2000
  -27.8060  -22.7890   22.0570 C   0  0  0  0  0  2  0  0  0  0  0  0
  -28.1210  -23.6690   20.9800 O   0  0  0  0  0  0  0  0  0  0  0  0
  -28.3570  -25.0040   21.4180 C   0  0  0  0  0  2  0  0  0  0  0  0
  -29.0330  -25.8100   20.2920 C   0  0  0  0  0  2  0  0  0  0  0  0
  -28.9770  -27.2200   20.5330 O   0  0  0  0  0  0  0  0  0  0  0  0
  -24.8130  -32.1180   23.5430 C   0  0  0  0  0  0  0  0  0  0  0  0
  -27.7520  -27.8490   20.4980 C   0  0  0  0  0  0  0  0  0  0  0  0
  -23.7220  -30.6820   21.8480 C   0  0  0  0  0  3  0  0  0  0  0  0
  -25.2850  -29.2330   20.4560 C   0  0  0  0  0  0  0  0  0  0  0  0
  -26.2290  -31.1650   21.7290 C   0  0  0  0  0  2  0  0  0  0  0  0
  -26.3990  -29.8060   21.0820 C   0  0  0  0  0  0  0  0  0  0  0  0
  -27.6340  -29.1210   21.0980 C   0  0  0  0  0  3  0  0  0  0  0  0
  -26.6140  -27.2830   19.8740 C   0  0  0  0  0  3  0  0  0  0  0  0
  -25.3870  -27.9680   19.8540 C   0  0  0  0  0  3  0  0  0  0  0  0
  -24.0040  -30.0320   20.4680 C   0  0  0  0  0  2  0  0  0  0  0  0
  -24.9370  -31.3350   22.4330 N   0  0  0  0  0  0  0  0  0  0  0  0
  -23.7050  -32.3340   24.0530 O   0  0  0  0  0  0  0  0  0  0  0  0
  -23.0900  -29.6210   22.7760 C   0  0  0  0  0  0  0  0  0  0  0  0
  -21.7860  -29.3620   22.5830 N   0  0  0  0  0  0  0  0  0  0  0  0
  -23.7700  -29.0330   23.6190 O   0  0  0  0  0  0  0  0  0  0  0  0
  -21.2950  -29.8870   21.8700 H   0  0  0  0  0  0  0  0  0  0  0  0
  -18.4720  -27.9650   22.9140 C   0  0  0  0  0  0  0  0  0  0  0  0
  -20.9920  -28.3730   23.3120 C   0  0  0  0  0  3  0  0  0  0  0  0
  -21.2090  -26.9500   22.7440 C   0  0  0  0  0  2  0  0  0  0  0  0
  -20.1790  -26.5620   21.6760 C   0  0  0  0  0  2  0  0  0  0  0  0
  -18.7620  -26.6280   22.2540 C   0  0  0  0  0  2  0  0  0  0  0  0
  -19.5210  -28.7900   23.3990 C   0  0  0  0  0  0  0  0  0  0  0  0
  -19.2030  -30.0400   23.9710 C   0  0  0  0  0  3  0  0  0  0  0  0
  -17.8650  -30.4650   24.0730 C   0  0  0  0  0  3  0  0  0  0  0  0
  -16.8290  -29.6370   23.6090 C   0  0  0  0  0  3  0  0  0  0  0  0
  -17.1330  -28.3910   23.0320 C   0  0  0  0  0  3  0  0  0  0  0  0
  -26.0510  -32.7960   24.2080 C   0  0  0  0  0  3  0  0  0  0  0  0
  -26.4950  -32.0970   25.5500 C   0  0  1  0  0  0  0  0  0  0  0  0
  -25.3360  -31.8630   26.5460 C   0  0  0  0  0  1  0  0  0  0  0  0
  -27.1490  -30.7280   25.2540 C   0  0  0  0  0  1  0  0  0  0  0  0
  -27.5660  -32.9570   26.2590 C   0  0  0  0  0  1  0  0  0  0  0  0
  -25.7090  -34.2050   24.4420 N   0  0  0  0  0  0  0  0  0  0  0  0
  -26.0740  -35.2180   23.6420 C   0  0  0  0  0  0  0  0  0  0  0  0
  -26.8020  -35.0650   22.6570 O   0  0  0  0  0  0  0  0  0  0  0  0
  -25.0670  -34.3930   25.1980 H   0  0  0  0  0  0  0  0  0  0  0  0
  -24.3440  -36.9560   23.0900 C   0  0  0  0  0  1  0  0  0  0  0  0
  -25.5440  -36.6220   23.9910 C   0  0  0  0  0  3  0  0  0  0  0  0
  -27.6240  -37.5810   24.8740 C   0  0  0  0  0  1  0  0  0  0  0  0
  -26.5690  -37.6810   23.8690 N   0  0  0  0  0  0  0  0  0  0  0  0
  -26.1450  -38.6010   23.9460 H   0  0  0  0  0  0  0  0  0  0  0  0
  -27.4930  -21.3830   21.5210 C   0  0  0  0  0  2  0  0  0  0  0  0
  -28.6650  -20.7680   20.9950 O   0  0  0  0  0  0  0  0  0  0  0  0
  -28.3670  -19.5800   20.2660 C   0  0  0  0  0  2  0  0  0  0  0  0
  -29.6620  -18.8370   19.8940 C   0  0  0  0  0  2  0  0  0  0  0  0
  -30.0630  -17.9670   20.9490 O   0  0  0  0  0  0  0  0  0  0  0  0
  -31.4690  -17.8850   21.1710 C   0  0  0  0  0  2  0  0  0  0  0  0
  -32.1640  -16.8510   20.2700 C   0  0  0  0  0  2  0  0  0  0  0  0
  -31.9300  -14.4640   19.7030 C   0  0  0  0  0  0  0  0  0  0  0  0
  -31.3700  -12.1870   18.9420 C   0  0  0  0  0  2  0  0  0  0  0  0
  -30.3890  -12.2580   17.7560 C   0  0  0  0  0  2  0  0  0  0  0  0
  -28.9350  -12.3150   18.2570 C   0  0  0  0  0  2  0  0  0  0  0  0
  -28.7260  -13.3820   19.3650 C   0  0  0  0  0  3  0  0  0  0  0  0
  -29.8210  -13.2870   20.4530 C   0  0  0  0  0  2  0  0  0  0  0  0
  -31.1380  -13.3620   19.7950 N   0  0  0  0  0  0  0  0  0  0  0  0
  -32.9520  -14.5110   19.0150 O   0  0  0  0  0  0  0  0  0  0  0  0
  -31.5220  -15.5410   20.3790 N   0  0  0  0  0  0  0  0  0  0  0  0
  -30.6870  -15.4770   20.9440 H   0  0  0  0  0  0  0  0  0  0  0  0
  -26.5230  -14.3100   20.3180 C   0  0  0  0  0  0  0  0  0  0  0  0
  -25.3730  -13.6950   20.7340 C   0  0  0  0  0  0  0  0  0  0  0  0
  -25.5970  -12.2930   20.5790 C   0  0  0  0  0  0  0  0  0  0  0  0
  -27.3840  -13.2930   19.9390 N   0  0  0  0  0  0  0  0  0  0  0  0
  -26.8320  -12.0680   20.1490 N   0  0  0  0  0  0  0  0  0  0  0  0
  -24.6860  -11.1530   20.7540 C   0  0  0  0  0  0  0  0  0  0  0  0
  -25.0150  -10.0650   21.5910 C   0  0  0  0  0  3  0  0  0  0  0  0
  -24.1140   -8.9910   21.7570 C   0  0  0  0  0  3  0  0  0  0  0  0
  -22.8680   -9.0000   21.0880 C   0  0  0  0  0  0  0  0  0  0  0  0
  -22.5550  -10.0750   20.2360 C   0  0  0  0  0  3  0  0  0  0  0  0
  -23.4560  -11.1380   20.0660 C   0  0  0  0  0  3  0  0  0  0  0  0
  -21.9430   -7.9870   21.1680 O   0  0  0  0  0  0  0  0  0  0  0  0
  -21.8340   -7.1990   22.2860 C   0  0  0  0  0  0  0  0  0  0  0  0
  -21.5870   -7.7470   23.5640 C   0  0  0  0  0  3  0  0  0  0  0  0
  -21.4110   -6.8960   24.6730 C   0  0  0  0  0  3  0  0  0  0  0  0
  -21.4730   -5.4990   24.5060 C   0  0  0  0  0  0  0  0  0  0  0  0
  -21.7140   -4.9520   23.2340 C   0  0  0  0  0  3  0  0  0  0  0  0
  -21.8900   -5.8000   22.1260 C   0  0  0  0  0  0  0  0  0  0  0  0
  -22.1010   -5.2670   20.8980 F   0  0  0  0  0  0  0  0  0  0  0  0
  -21.2960   -4.6800   25.5700 F   0  0  0  0  0  0  0  0  0  0  0  0
  -24.1040  -14.3690   21.1660 C   0  0  0  0  0  0  0  0  0  0  0  0
  -23.3490  -13.7420   22.0620 N   0  0  0  0  0  0  0  0  0  0  0  0
  -23.7960  -15.4850   20.7480 O   0  0  0  0  0  0  0  0  0  0  0  0
  -23.6150  -12.8390   22.4260 H   0  0  0  0  0  0  0  0  0  0  0  0
  -22.4980  -14.1770   22.3890 H   0  0  0  0  0  0  0  0  0  0  0  0
  -26.9010  -15.6450   20.2170 N   0  0  0  0  0  0  0  0  0  0  0  0
  -26.2750  -16.4070   20.4510 H   0  0  0  0  0  0  0  0  0  0  0  0
  -27.7960  -15.9620   19.8690 H   0  0  0  0  0  0  0  0  0  0  0  0
  2  3  1  0
  2  1  1  0
  4  5  1  0
  4  3  1  0
  6 17  2  0
  7  5  1  0
  7 12  1  0
  8 16  1  0
  8 18  1  0
  9 15  1  0
  9 11  1  0
 10 16  1  0
 11 12  2  0
 11 10  1  0
 13  7  2  0
 14 13  1  0
 14  9  2  0
 15  8  1  0
 16  6  1  0
 18 20  2  0
 19 18  1  0
 21 19  1  0
 22 31  2  0
 22 27  1  0
 23 19  1  0
 23 27  1  0
 24 23  1  0
 25 26  1  0
 25 24  1  0
 26 22  1  0
 27 28  2  0
 28 29  1  0
 30 29  2  0
 31 30  1  0
 32  6  1  0
 32 37  1  0
 32 33  1  0
 33 36  1  1
 33 34  1  0
 35 33  1  0
 37 40  1  0
 38 42  1  0
 38 37  1  0
 39 38  2  0
 42 41  1  0
 44 45  1  0
 44 42  1  0
 44 43  1  0
 46  1  1  0
 47 46  1  0
 48 47  1  0
 49 48  1  0
 49 50  1  0
 50 51  1  0
 52 61  1  0
 52 51  1  0
 53 59  1  0
 53 61  1  0
 54 59  1  0
 55 56  1  0
 55 54  1  0
 57 56  1  0
 57 66  1  0
 57 58  1  0
 59 58  1  0
 60 53  2  0
 61 62  1  0
 63 64  2  0
 64 83  1  0
 65 64  1  0
 65 68  1  0
 66 67  1  0
 66 63  1  0
 67 65  2  0
 68 69  1  0
 69 70  2  0
 71 74  1  0
 71 70  1  0
 72 71  2  0
 73 72  1  0
 73 68  2  0
 74 75  1  0
 75 76  1  0
 76 77  2  0
 78 77  1  0
 78 82  1  0
 79 78  2  0
 80 75  2  0
 80 79  1  0
 81 80  1  0
 83 84  1  0
 84 87  1  0
 84 86  1  0
 85 83  2  0
 88 63  1  0
 88 89  1  0
 90 88  1  0
M  ISO  4   4 101   5 101  53 100  61 100
M  END
>  <TORSDO>  (46) 
F 26

>  <SCORE>  (46) 
-9.736

>  <name>  (46) 
45

>  <ligand_id>  (46) 
45

>  <original_smiles>  (46) 
[H]c1c([H])c([H])c2c(c1[H])C([H])([H])C([H])([H])C([H])([H])C2([H])N([H])C(=O)C1([H])N(C(=O)C([H])(N([H])C(=O)C([H])(N([H])C([H])([H])[H])C([H])([H])[H])C(C([H])([H])[H])(C([H])([H])[H])C([H])([H])[H])C([H])([H])c2c([H])c(OC([H])([H])C([H])([H])OC([H])([H])C([H])([H])OC([H])([H])C([H])([H])OC([H])([H])C([H])([H])N([H])C(=O)N3C([H])([H])C([H])([H])C([H])([H])C([H])(n4nc(-c5c([H])c([H])c(Oc6c([H])c([H])c(F)c([H])c6F)c([H])c5[H])c(C(=O)N([H])[H])c4N([H])[H])C3([H])[H])c([H])c([H])c2C1([H])[H]

>  <smiles>  (46) 
[H]c1c([H])c([H])c2c(c1[H])C([H])([H])C([H])([H])C([H])([H])C2([H])N([H])C(=O)C1([H])N(C(=O)C([H])(N([H])C(=O)C([H])(N([H])C([H])([H])[H])C([H])([H])[H])C(C([H])([H])[H])(C([H])([H])[H])C([H])([H])[H])C([H])([H])c2c([H])c(OC([H])([H])C([H])([H])OC([H])([H])C([H])([H])OC([H])([H])C([H])([H])OC([H])([H])C([H])([H])N([H])C(=O)N3C([H])([H])C([H])([H])C([H])([H])C([H])(n4nc(-c5c([H])c([H])c(Oc6c([H])c([H])c(F)c([H])c6F)c([H])c5[H])c(C(=O)N([H])[H])c4N([H])[H])C3([H])[H])c([H])c([H])c2C1([H])[H]

$$$$
46:0:0
     RDKit          3D

 94102  0  0  1  0  0  0  0  0999 V2000
  -31.3370  -22.4250   20.8680 N   0  0  0  0  0  0  0  0  0  0  0  0
  -30.4660  -22.4980   21.3950 H   0  0  0  0  0  0  0  0  0  0  0  0
  -32.4610  -21.1980   18.9100 O   0  0  0  0  0  0  0  0  0  0  0  0
  -29.9650  -21.6350   18.8490 O   0  0  0  0  0  0  0  0  0  0  0  0
  -31.1660  -21.2510   19.6080 S   0  0  2  0  0  0  0  0  0  0  0  0
  -31.7130  -17.3860   20.9090 C   0  0  0  0  0  3  0  0  0  0  0  0
  -29.3230  -17.8190   20.9520 C   0  0  0  0  0  3  0  0  0  0  0  0
  -31.9580  -18.7410   20.5880 C   0  0  0  0  0  3  0  0  0  0  0  0
  -29.5680  -19.1770   20.6340 C   0  0  0  0  0  3  0  0  0  0  0  0
  -30.3900  -16.8870   21.0100 C   0  0  0  0  0  0  0  0  0  0  0  0
  -30.8800  -19.6310   20.3940 C   0  0  0  0  0  0  0  0  0  0  0  0
  -30.6590  -14.4890   20.4050 C   0  0  0  0  0  0  0  0  0  0  0  0
  -30.2640  -12.3650   19.2080 C   0  0  0  0  0  2  0  0  0  0  0  0
  -29.3070  -12.6190   18.0250 C   0  0  0  0  0  2  0  0  0  0  0  0
  -27.8410  -12.4870   18.4820 C   0  0  0  0  0  2  0  0  0  0  0  0
  -27.5430  -13.2950   19.7750 C   0  0  0  0  0  3  0  0  0  0  0  0
  -28.6230  -13.0470   20.8560 C   0  0  0  0  0  2  0  0  0  0  0  0
  -29.9400  -13.3370   20.2680 N   0  0  0  0  0  0  0  0  0  0  0  0
  -31.7400  -14.6460   19.8300 O   0  0  0  0  0  0  0  0  0  0  0  0
  -30.0920  -15.4850   21.1260 N   0  0  0  0  0  0  0  0  0  0  0  0
  -29.2030  -15.2460   21.5370 H   0  0  0  0  0  0  0  0  0  0  0  0
  -25.1600  -13.8970   20.5430 C   0  0  0  0  0  0  0  0  0  0  0  0
  -24.0980  -13.1240   20.9310 C   0  0  0  0  0  0  0  0  0  0  0  0
  -24.5540  -11.7720   20.8710 C   0  0  0  0  0  0  0  0  0  0  0  0
  -26.1980  -13.0170   20.2770 N   0  0  0  0  0  0  0  0  0  0  0  0
  -25.8370  -11.7330   20.5310 N   0  0  0  0  0  0  0  0  0  0  0  0
  -23.8240  -10.5100   21.0630 C   0  0  0  0  0  0  0  0  0  0  0  0
  -24.2850   -9.5230   21.9620 C   0  0  0  0  0  3  0  0  0  0  0  0
  -23.5600   -8.3250   22.1470 C   0  0  0  0  0  3  0  0  0  0  0  0
  -22.3590   -8.1080   21.4320 C   0  0  0  0  0  0  0  0  0  0  0  0
  -21.9140   -9.0850   20.5240 C   0  0  0  0  0  3  0  0  0  0  0  0
  -22.6390  -10.2730   20.3370 C   0  0  0  0  0  3  0  0  0  0  0  0
  -21.5990   -6.9650   21.5270 O   0  0  0  0  0  0  0  0  0  0  0  0
  -21.6040   -6.1930   22.6590 C   0  0  0  0  0  0  0  0  0  0  0  0
  -21.2660   -6.7190   23.9260 C   0  0  0  0  0  3  0  0  0  0  0  0
  -21.2120   -5.8680   25.0480 C   0  0  0  0  0  3  0  0  0  0  0  0
  -21.4930   -4.4980   24.9100 C   0  0  0  0  0  0  0  0  0  0  0  0
  -21.8270   -3.9700   23.6500 C   0  0  0  0  0  3  0  0  0  0  0  0
  -21.8810   -4.8170   22.5270 C   0  0  0  0  0  0  0  0  0  0  0  0
  -22.1810   -4.3010   21.3110 F   0  0  0  0  0  0  0  0  0  0  0  0
  -21.4360   -3.6800   25.9870 F   0  0  0  0  0  0  0  0  0  0  0  0
  -22.7090  -13.6030   21.2420 C   0  0  0  0  0  0  0  0  0  0  0  0
  -21.9990  -12.9030   22.1190 N   0  0  0  0  0  0  0  0  0  0  0  0
  -22.2640  -14.6350   20.7420 O   0  0  0  0  0  0  0  0  0  0  0  0
  -22.3760  -12.0720   22.5490 H   0  0  0  0  0  0  0  0  0  0  0  0
  -21.0690  -13.2080   22.3690 H   0  0  0  0  0  0  0  0  0  0  0  0
  -25.3250  -15.2680   20.3710 N   0  0  0  0  0  0  0  0  0  0  0  0
  -24.5560  -15.9170   20.4970 H   0  0  0  0  0  0  0  0  0  0  0  0
  -26.1520  -15.7050   19.9840 H   0  0  0  0  0  0  0  0  0  0  0  0
  -31.9300  -23.7500   20.5590 C   0  0  0  0  0  2  0  0  0  0  0  0
  -30.8950  -24.8330   20.1430 C   0  0  0  0  0  2  0  0  0  0  0  0
  -30.1800  -25.5220   21.3320 C   0  0  0  0  0  2  0  0  0  0  0  0
  -29.4170  -26.8380   21.0120 C   0  0  0  0  0  2  0  0  0  0  0  0
  -28.3410  -26.6230   20.1000 O   0  0  0  0  0  0  0  0  0  0  0  0
  -24.5830  -31.8810   23.2320 C   0  0  0  0  0  0  0  0  0  0  0  0
  -27.2200  -27.4340   20.1590 C   0  0  0  0  0  0  0  0  0  0  0  0
  -23.3630  -30.4720   21.6050 C   0  0  0  0  0  3  0  0  0  0  0  0
  -24.8110  -28.9250   20.1780 C   0  0  0  0  0  0  0  0  0  0  0  0
  -25.8840  -30.8370   21.3790 C   0  0  0  0  0  2  0  0  0  0  0  0
  -25.9710  -29.4590   20.7560 C   0  0  0  0  0  0  0  0  0  0  0  0
  -27.1780  -28.7240   20.7480 C   0  0  0  0  0  3  0  0  0  0  0  0
  -26.0460  -26.9200   19.5730 C   0  0  0  0  0  3  0  0  0  0  0  0
  -24.8420  -27.6530   19.5840 C   0  0  0  0  0  3  0  0  0  0  0  0
  -23.5620  -29.7780   20.2310 C   0  0  0  0  0  2  0  0  0  0  0  0
  -24.6290  -31.0780   22.1320 N   0  0  0  0  0  0  0  0  0  0  0  0
  -23.5070  -32.1590   23.7790 O   0  0  0  0  0  0  0  0  0  0  0  0
  -22.7150  -29.4600   22.5770 C   0  0  0  0  0  0  0  0  0  0  0  0
  -21.3910  -29.2780   22.4580 N   0  0  0  0  0  0  0  0  0  0  0  0
  -23.4020  -28.8390   23.3910 O   0  0  0  0  0  0  0  0  0  0  0  0
  -20.8970  -29.8270   21.7680 H   0  0  0  0  0  0  0  0  0  0  0  0
  -18.0190  -28.0880   22.9720 C   0  0  0  0  0  0  0  0  0  0  0  0
  -20.5770  -28.3480   23.2390 C   0  0  0  0  0  3  0  0  0  0  0  0
  -20.6790  -26.9130   22.6730 C   0  0  0  0  0  2  0  0  0  0  0  0
  -19.5770  -26.5810   21.6630 C   0  0  0  0  0  2  0  0  0  0  0  0
  -18.1950  -26.7320   22.3080 C   0  0  0  0  0  2  0  0  0  0  0  0
  -19.1390  -28.8530   23.3930 C   0  0  0  0  0  0  0  0  0  0  0  0
  -18.9200  -30.1220   23.9740 C   0  0  0  0  0  3  0  0  0  0  0  0
  -17.6170  -30.6270   24.1350 C   0  0  0  0  0  3  0  0  0  0  0  0
  -16.5120  -29.8570   23.7300 C   0  0  0  0  0  3  0  0  0  0  0  0
  -16.7130  -28.5900   23.1560 C   0  0  0  0  0  3  0  0  0  0  0  0
  -25.8760  -32.5110   23.8380 C   0  0  0  0  0  3  0  0  0  0  0  0
  -25.5740  -33.9100   24.1730 N   0  0  0  0  0  0  0  0  0  0  0  0
  -25.9040  -34.9610   23.4130 C   0  0  0  0  0  0  0  0  0  0  0  0
  -26.5680  -34.8590   22.3780 O   0  0  0  0  0  0  0  0  0  0  0  0
  -24.9800  -34.0640   24.9750 H   0  0  0  0  0  0  0  0  0  0  0  0
  -24.1780  -36.7560   23.0710 C   0  0  0  0  0  1  0  0  0  0  0  0
  -25.4220  -36.3480   23.8760 C   0  0  0  0  0  3  0  0  0  0  0  0
  -27.5640  -37.2260   24.6980 C   0  0  0  0  0  1  0  0  0  0  0  0
  -26.4560  -37.3990   23.7610 N   0  0  0  0  0  0  0  0  0  0  0  0
  -26.0530  -38.3210   23.9160 H   0  0  0  0  0  0  0  0  0  0  0  0
  -26.4130  -31.7350   25.1010 C   0  0  1  0  0  0  0  0  0  0  0  0
  -25.3370  -31.4940   26.1840 C   0  0  0  0  0  1  0  0  0  0  0  0
  -26.9870  -30.3580   24.6900 C   0  0  0  0  0  1  0  0  0  0  0  0
  -27.5720  -32.5280   25.7500 C   0  0  0  0  0  1  0  0  0  0  0  0
  1  2  1  0
  3  5  2  0
  4  5  2  0
  5 11  1  0
  5  1  1  1
  6 10  1  0
  7 10  2  0
  8  6  2  0
  9  7  1  0
 10 20  1  0
 11  8  1  0
 11  9  2  0
 12 20  1  0
 13 18  1  0
 14 15  1  0
 14 13  1  0
 16 15  1  0
 16 25  1  0
 16 17  1  0
 18 12  1  0
 18 17  1  0
 19 12  2  0
 20 21  1  0
 22 23  2  0
 23 42  1  0
 24 23  1  0
 24 27  1  0
 25 26  1  0
 25 22  1  0
 26 24  2  0
 27 28  1  0
 28 29  2  0
 30 33  1  0
 30 29  1  0
 31 30  2  0
 32 31  1  0
 32 27  2  0
 33 34  1  0
 34 35  1  0
 35 36  2  0
 37 36  1  0
 37 41  1  0
 38 37  2  0
 39 34  2  0
 39 38  1  0
 40 39  1  0
 42 43  1  0
 43 46  1  0
 43 45  1  0
 44 42  2  0
 47 48  1  0
 47 22  1  0
 49 47  1  0
 50  1  1  0
 51 50  1  0
 51 52  1  0
 53 52  1  0
 54 56  1  0
 54 53  1  0
 55 66  2  0
 56 61  1  0
 57 65  1  0
 57 67  1  0
 58 64  1  0
 58 60  1  0
 59 65  1  0
 60 59  1  0
 61 60  2  0
 62 63  1  0
 62 56  2  0
 63 58  2  0
 64 57  1  0
 65 55  1  0
 67 69  2  0
 68 67  1  0
 70 68  1  0
 71 80  2  0
 71 76  1  0
 72 68  1  0
 72 76  1  0
 73 72  1  0
 74 75  1  0
 74 73  1  0
 75 71  1  0
 76 77  2  0
 77 78  1  0
 79 78  2  0
 80 79  1  0
 81 55  1  0
 81 82  1  0
 81 91  1  0
 82 85  1  0
 83 87  1  0
 83 82  1  0
 84 83  2  0
 87 86  1  0
 89 87  1  0
 89 90  1  0
 89 88  1  0
 91 94  1  1
 91 92  1  0
 93 91  1  0
M  ISO  4  12 100  20 100  53 101  54 101
M  END
>  <TORSDO>  (47) 
F 22

>  <SCORE>  (47) 
-13.206

>  <name>  (47) 
46

>  <ligand_id>  (47) 
46

>  <original_smiles>  (47) 
[H]c1c([H])c([H])c2c(c1[H])C([H])([H])C([H])([H])C([H])([H])C2([H])N([H])C(=O)C1([H])N(C(=O)C([H])(N([H])C(=O)C([H])(N([H])C([H])([H])[H])C([H])([H])[H])C(C([H])([H])[H])(C([H])([H])[H])C([H])([H])[H])C([H])([H])c2c([H])c(OC([H])([H])C([H])([H])C([H])([H])C([H])([H])N([H])S(=O)(=O)c3c([H])c([H])c(N([H])C(=O)N4C([H])([H])C([H])([H])C([H])([H])C([H])(n5nc(-c6c([H])c([H])c(Oc7c([H])c([H])c(F)c([H])c7F)c([H])c6[H])c(C(=O)N([H])[H])c5N([H])[H])C4([H])[H])c([H])c3[H])c([H])c([H])c2C1([H])[H]

>  <smiles>  (47) 
[H]c1c([H])c([H])c2c(c1[H])C([H])([H])C([H])([H])C([H])([H])C2([H])N([H])C(=O)C1([H])N(C(=O)C([H])(N([H])C(=O)C([H])(N([H])C([H])([H])[H])C([H])([H])[H])C(C([H])([H])[H])(C([H])([H])[H])C([H])([H])[H])C([H])([H])c2c([H])c(OC([H])([H])C([H])([H])C([H])([H])C([H])([H])N([H])S(=O)(=O)c3c([H])c([H])c(N([H])C(=O)N4C([H])([H])C([H])([H])C([H])([H])C([H])(n5nc(-c6c([H])c([H])c(Oc7c([H])c([H])c(F)c([H])c7F)c([H])c6[H])c(C(=O)N([H])[H])c5N([H])[H])C4([H])[H])c([H])c3[H])c([H])c([H])c2C1([H])[H]

$$$$
47:0:0
     RDKit          3D

 92100  0  0  1  0  0  0  0  0999 V2000
  -29.0750  -22.2080   20.9130 C   0  0  0  0  0  0  0  0  0  0  0  0
  -29.6440  -23.1930   20.1960 N   0  0  0  0  0  0  0  0  0  0  0  0
  -28.2160  -22.4460   21.7650 O   0  0  0  0  0  0  0  0  0  0  0  0
  -30.3100  -22.9100   19.4910 H   0  0  0  0  0  0  0  0  0  0  0  0
  -28.9510  -19.7090   21.3930 C   0  0  0  0  0  3  0  0  0  0  0  0
  -30.6970  -20.4830   19.8980 C   0  0  0  0  0  3  0  0  0  0  0  0
  -29.4840  -18.4000   21.3490 C   0  0  0  0  0  3  0  0  0  0  0  0
  -31.2320  -19.1730   19.8570 C   0  0  0  0  0  3  0  0  0  0  0  0
  -29.5660  -20.7830   20.7000 C   0  0  0  0  0  0  0  0  0  0  0  0
  -30.6570  -18.1270   20.6130 C   0  0  0  0  0  0  0  0  0  0  0  0
  -31.3870  -16.7840   20.7660 C   0  0  0  0  0  2  0  0  0  0  0  0
  -31.1570  -14.5320   19.7150 C   0  0  0  0  0  0  0  0  0  0  0  0
  -30.7010  -12.3310   18.6910 C   0  0  0  0  0  2  0  0  0  0  0  0
  -29.6840  -12.4730   17.5420 C   0  0  0  0  0  2  0  0  0  0  0  0
  -28.2430  -12.3960   18.0820 C   0  0  0  0  0  2  0  0  0  0  0  0
  -28.0090  -13.3240   19.3040 C   0  0  0  0  0  3  0  0  0  0  0  0
  -29.1320  -13.1570   20.3510 C   0  0  0  0  0  2  0  0  0  0  0  0
  -30.4200  -13.3890   19.6760 N   0  0  0  0  0  0  0  0  0  0  0  0
  -32.2200  -14.6530   19.0980 O   0  0  0  0  0  0  0  0  0  0  0  0
  -30.6500  -15.5560   20.4250 N   0  0  0  0  0  0  0  0  0  0  0  0
  -29.7580  -15.4100   20.8710 H   0  0  0  0  0  0  0  0  0  0  0  0
  -25.7180  -14.0430   20.2240 C   0  0  0  0  0  0  0  0  0  0  0  0
  -24.6400  -13.3210   20.6630 C   0  0  0  0  0  0  0  0  0  0  0  0
  -25.0180  -11.9470   20.5640 C   0  0  0  0  0  0  0  0  0  0  0  0
  -26.6870  -13.1120   19.8880 N   0  0  0  0  0  0  0  0  0  0  0  0
  -26.2730  -11.8440   20.1480 N   0  0  0  0  0  0  0  0  0  0  0  0
  -24.2360  -10.7240   20.7850 C   0  0  0  0  0  0  0  0  0  0  0  0
  -24.6410   -9.7490   21.7240 C   0  0  0  0  0  3  0  0  0  0  0  0
  -23.8640   -8.5880   21.9320 C   0  0  0  0  0  3  0  0  0  0  0  0
  -22.6680   -8.3950   21.2010 C   0  0  0  0  0  0  0  0  0  0  0  0
  -22.2820   -9.3580   20.2510 C   0  0  0  0  0  3  0  0  0  0  0  0
  -23.0590  -10.5090   20.0410 C   0  0  0  0  0  3  0  0  0  0  0  0
  -21.8620   -7.2880   21.3170 O   0  0  0  0  0  0  0  0  0  0  0  0
  -21.7300   -6.6170   22.5070 C   0  0  0  0  0  0  0  0  0  0  0  0
  -21.2640   -7.2580   23.6750 C   0  0  0  0  0  3  0  0  0  0  0  0
  -21.0770   -6.5150   24.8590 C   0  0  0  0  0  3  0  0  0  0  0  0
  -21.3440   -5.1330   24.8730 C   0  0  0  0  0  0  0  0  0  0  0  0
  -21.8030   -4.4930   23.7080 C   0  0  0  0  0  3  0  0  0  0  0  0
  -21.9920   -5.2330   22.5290 C   0  0  0  0  0  0  0  0  0  0  0  0
  -22.4140   -4.6060   21.4030 F   0  0  0  0  0  0  0  0  0  0  0  0
  -21.1570   -4.4170   26.0060 F   0  0  0  0  0  0  0  0  0  0  0  0
  -23.2990  -13.8690   21.0610 C   0  0  0  0  0  0  0  0  0  0  0  0
  -22.6110  -13.1990   21.9790 N   0  0  0  0  0  0  0  0  0  0  0  0
  -22.8750  -14.9250   20.5940 O   0  0  0  0  0  0  0  0  0  0  0  0
  -22.9680  -12.3420   22.3780 H   0  0  0  0  0  0  0  0  0  0  0  0
  -21.7150  -13.5480   22.2890 H   0  0  0  0  0  0  0  0  0  0  0  0
  -25.9490  -15.4060   20.0640 N   0  0  0  0  0  0  0  0  0  0  0  0
  -25.2370  -16.1030   20.2570 H   0  0  0  0  0  0  0  0  0  0  0  0
  -26.7990  -15.8040   19.6850 H   0  0  0  0  0  0  0  0  0  0  0  0
  -29.5850  -24.6360   20.5090 C   0  0  0  0  0  2  0  0  0  0  0  0
  -28.3170  -25.3720   20.0130 C   0  0  0  0  0  2  0  0  0  0  0  0
  -28.3990  -26.7940   20.2530 O   0  0  0  0  0  0  0  0  0  0  0  0
  -24.5080  -31.9540   23.2780 C   0  0  0  0  0  0  0  0  0  0  0  0
  -27.2200  -27.5230   20.2150 C   0  0  0  0  0  0  0  0  0  0  0  0
  -23.3310  -30.5420   21.6250 C   0  0  0  0  0  3  0  0  0  0  0  0
  -24.8120  -29.0220   20.2100 C   0  0  0  0  0  0  0  0  0  0  0  0
  -25.8570  -30.9220   21.4510 C   0  0  0  0  0  2  0  0  0  0  0  0
  -25.9620  -29.5530   20.8080 C   0  0  0  0  0  0  0  0  0  0  0  0
  -27.1690  -28.8110   20.8050 C   0  0  0  0  0  3  0  0  0  0  0  0
  -26.0500  -27.0170   19.6050 C   0  0  0  0  0  3  0  0  0  0  0  0
  -24.8520  -27.7540   19.6060 C   0  0  0  0  0  3  0  0  0  0  0  0
  -23.5590  -29.8670   20.2470 C   0  0  0  0  0  2  0  0  0  0  0  0
  -24.5830  -31.1550   22.1760 N   0  0  0  0  0  0  0  0  0  0  0  0
  -23.4190  -32.2140   23.8100 O   0  0  0  0  0  0  0  0  0  0  0  0
  -22.6830  -29.5120   22.5790 C   0  0  0  0  0  0  0  0  0  0  0  0
  -21.3670  -29.2940   22.4200 N   0  0  0  0  0  0  0  0  0  0  0  0
  -23.3600  -28.9120   23.4180 O   0  0  0  0  0  0  0  0  0  0  0  0
  -20.8800  -29.8310   21.7160 H   0  0  0  0  0  0  0  0  0  0  0  0
  -18.0190  -27.9930   22.8180 C   0  0  0  0  0  0  0  0  0  0  0  0
  -20.5540  -28.3430   23.1770 C   0  0  0  0  0  3  0  0  0  0  0  0
  -20.7270  -26.9060   22.6320 C   0  0  0  0  0  2  0  0  0  0  0  0
  -19.6740  -26.5290   21.5850 C   0  0  0  0  0  2  0  0  0  0  0  0
  -18.2660  -26.6380   22.1750 C   0  0  0  0  0  2  0  0  0  0  0  0
  -19.0950  -28.8000   23.2730 C   0  0  0  0  0  0  0  0  0  0  0  0
  -18.8120  -30.0660   23.8310 C   0  0  0  0  0  3  0  0  0  0  0  0
  -17.4860  -30.5260   23.9380 C   0  0  0  0  0  3  0  0  0  0  0  0
  -16.4240  -29.7160   23.5010 C   0  0  0  0  0  3  0  0  0  0  0  0
  -16.6910  -28.4520   22.9450 C   0  0  0  0  0  3  0  0  0  0  0  0
  -25.7820  -32.5990   23.9090 C   0  0  0  0  0  3  0  0  0  0  0  0
  -26.2770  -31.8520   25.2080 C   0  0  1  0  0  0  0  0  0  0  0  0
  -25.1640  -31.6220   26.2570 C   0  0  0  0  0  1  0  0  0  0  0  0
  -26.8790  -30.4730   24.8480 C   0  0  0  0  0  1  0  0  0  0  0  0
  -27.4060  -32.6660   25.8810 C   0  0  0  0  0  1  0  0  0  0  0  0
  -25.4660  -34.0030   24.2040 N   0  0  0  0  0  0  0  0  0  0  0  0
  -25.8080  -35.0390   23.4270 C   0  0  0  0  0  0  0  0  0  0  0  0
  -26.4920  -34.9130   22.4070 O   0  0  0  0  0  0  0  0  0  0  0  0
  -24.8590  -34.1740   24.9920 H   0  0  0  0  0  0  0  0  0  0  0  0
  -24.0780  -36.8170   23.0120 C   0  0  0  0  0  1  0  0  0  0  0  0
  -25.3120  -36.4350   23.8460 C   0  0  0  0  0  3  0  0  0  0  0  0
  -27.4340  -37.3480   24.6810 C   0  0  0  0  0  1  0  0  0  0  0  0
  -26.3430  -37.4890   23.7190 N   0  0  0  0  0  0  0  0  0  0  0  0
  -25.9330  -38.4110   23.8380 H   0  0  0  0  0  0  0  0  0  0  0  0
  1  3  2  0
  2 50  1  0
  2  1  1  0
  4  2  1  0
  6  9  1  0
  7  5  1  0
  8  6  2  0
  8 10  1  0
  9  1  1  0
  9  5  2  0
 10 11  1  0
 10  7  2  0
 12 20  1  0
 13 18  1  0
 14 15  1  0
 14 13  1  0
 16 15  1  0
 16 25  1  0
 16 17  1  0
 18 12  1  0
 18 17  1  0
 19 12  2  0
 20 11  1  0
 20 21  1  0
 22 23  2  0
 23 42  1  0
 24 23  1  0
 24 27  1  0
 25 26  1  0
 25 22  1  0
 26 24  2  0
 27 28  1  0
 28 29  2  0
 30 33  1  0
 30 29  1  0
 31 30  2  0
 32 31  1  0
 32 27  2  0
 33 34  1  0
 34 39  2  0
 34 35  1  0
 35 36  2  0
 36 37  1  0
 37 41  1  0
 38 37  2  0
 39 38  1  0
 40 39  1  0
 42 43  1  0
 43 46  1  0
 43 45  1  0
 44 42  2  0
 47 22  1  0
 47 48  1  0
 49 47  1  0
 51 52  1  0
 51 50  1  0
 53 64  2  0
 54 52  1  0
 54 59  1  0
 55 63  1  0
 55 65  1  0
 56 62  1  0
 56 58  1  0
 57 63  1  0
 58 57  1  0
 59 58  2  0
 60 61  1  0
 60 54  2  0
 61 56  2  0
 62 55  1  0
 63 53  1  0
 65 67  2  0
 66 65  1  0
 68 66  1  0
 69 78  2  0
 69 74  1  0
 70 66  1  0
 70 74  1  0
 71 70  1  0
 72 73  1  0
 72 71  1  0
 73 69  1  0
 74 75  2  0
 75 76  1  0
 77 76  2  0
 78 77  1  0
 79 53  1  0
 79 84  1  0
 79 80  1  0
 80 83  1  1
 80 81  1  0
 82 80  1  0
 84 87  1  0
 85 89  1  0
 85 84  1  0
 86 85  2  0
 89 88  1  0
 91 92  1  0
 91 89  1  0
 91 90  1  0
M  ISO  4  12 100  20 100  51 101  52 101
M  END
>  <TORSDO>  (48) 
F 20

>  <SCORE>  (48) 
-12.615

>  <name>  (48) 
47

>  <ligand_id>  (48) 
47

>  <original_smiles>  (48) 
[H]c1c([H])c([H])c2c(c1[H])C([H])([H])C([H])([H])C([H])([H])C2([H])N([H])C(=O)C1([H])N(C(=O)C([H])(N([H])C(=O)C([H])(N([H])C([H])([H])[H])C([H])([H])[H])C(C([H])([H])[H])(C([H])([H])[H])C([H])([H])[H])C([H])([H])c2c([H])c(OC([H])([H])C([H])([H])N([H])C(=O)c3c([H])c([H])c(C([H])([H])N([H])C(=O)N4C([H])([H])C([H])([H])C([H])([H])C([H])(n5nc(-c6c([H])c([H])c(Oc7c([H])c([H])c(F)c([H])c7F)c([H])c6[H])c(C(=O)N([H])[H])c5N([H])[H])C4([H])[H])c([H])c3[H])c([H])c([H])c2C1([H])[H]

>  <smiles>  (48) 
[H]c1c([H])c([H])c2c(c1[H])C([H])([H])C([H])([H])C([H])([H])C2([H])N([H])C(=O)C1([H])N(C(=O)C([H])(N([H])C(=O)C([H])(N([H])C([H])([H])[H])C([H])([H])[H])C(C([H])([H])[H])(C([H])([H])[H])C([H])([H])[H])C([H])([H])c2c([H])c(OC([H])([H])C([H])([H])N([H])C(=O)c3c([H])c([H])c(C([H])([H])N([H])C(=O)N4C([H])([H])C([H])([H])C([H])([H])C([H])(n5nc(-c6c([H])c([H])c(Oc7c([H])c([H])c(F)c([H])c7F)c([H])c6[H])c(C(=O)N([H])[H])c5N([H])[H])C4([H])[H])c([H])c3[H])c([H])c([H])c2C1([H])[H]

$$$$
48:0:0
     RDKit          3D

 87 95  0  0  1  0  0  0  0  0999 V2000
  -31.1950  -20.9020   20.2810 C   0  0  0  0  0  3  0  0  0  0  0  0
  -30.8540  -19.5090   20.2660 C   0  0  0  0  0  3  0  0  0  0  0  0
  -28.6120  -20.3500   20.2780 C   0  0  0  0  0  3  0  0  0  0  0  0
  -30.3200  -22.0460   20.2980 C   0  0  0  0  0  0  0  0  0  0  0  0
  -28.8940  -21.9680   20.2970 C   0  0  0  0  0  0  0  0  0  0  0  0
  -29.5380  -18.9940   20.2660 C   0  0  0  0  0  0  0  0  0  0  0  0
  -31.0070  -23.4010   20.3280 C   0  0  0  0  0  1  0  0  0  0  0  0
  -30.1910  -15.8470   20.1820 C   0  0  0  0  0  0  0  0  0  0  0  0
  -30.3340  -13.2800   19.3350 C   0  0  0  0  0  2  0  0  0  0  0  0
  -29.4380  -12.8120   18.1490 C   0  0  0  0  0  2  0  0  0  0  0  0
  -28.0310  -12.4260   18.6280 C   0  0  0  0  0  2  0  0  0  0  0  0
  -27.5150  -13.4170   19.6950 C   0  0  0  0  0  3  0  0  0  0  0  0
  -28.5590  -13.7750   20.7810 C   0  0  0  0  0  2  0  0  0  0  0  0
  -29.6890  -14.4570   20.0970 N   0  0  0  0  0  0  0  0  0  0  0  0
  -31.4260  -15.7710   20.0160 O   0  0  0  0  0  0  0  0  0  0  0  0
  -29.4120  -17.2350   20.2550 N   0  0  0  0  0  0  0  0  0  0  0  0
  -28.4360  -16.9830   20.3070 H   0  0  0  0  0  0  0  0  0  0  0  0
  -25.1670  -13.9070   20.5200 C   0  0  0  0  0  0  0  0  0  0  0  0
  -24.1220  -13.1110   20.8940 C   0  0  0  0  0  0  0  0  0  0  0  0
  -24.6050  -11.7670   20.8330 C   0  0  0  0  0  0  0  0  0  0  0  0
  -26.2160  -13.0520   20.2410 N   0  0  0  0  0  0  0  0  0  0  0  0
  -25.8940  -11.7550   20.4960 N   0  0  0  0  0  0  0  0  0  0  0  0
  -23.8920  -10.4940   21.0150 C   0  0  0  0  0  0  0  0  0  0  0  0
  -24.3240   -9.5310   21.9540 C   0  0  0  0  0  3  0  0  0  0  0  0
  -23.6040   -8.3290   22.1300 C   0  0  0  0  0  3  0  0  0  0  0  0
  -22.4400   -8.0790   21.3650 C   0  0  0  0  0  0  0  0  0  0  0  0
  -22.0260   -9.0310   20.4160 C   0  0  0  0  0  3  0  0  0  0  0  0
  -22.7470  -10.2240   20.2390 C   0  0  0  0  0  3  0  0  0  0  0  0
  -21.6950   -6.9260   21.4470 O   0  0  0  0  0  0  0  0  0  0  0  0
  -21.6180   -6.2020   22.6090 C   0  0  0  0  0  0  0  0  0  0  0  0
  -21.1140   -6.7610   23.8030 C   0  0  0  0  0  3  0  0  0  0  0  0
  -20.9840   -5.9600   24.9560 C   0  0  0  0  0  3  0  0  0  0  0  0
  -21.3510   -4.6020   24.9150 C   0  0  0  0  0  0  0  0  0  0  0  0
  -21.8490   -4.0420   23.7240 C   0  0  0  0  0  3  0  0  0  0  0  0
  -21.9790   -4.8390   22.5750 C   0  0  0  0  0  0  0  0  0  0  0  0
  -22.4380   -4.2900   21.4240 F   0  0  0  0  0  0  0  0  0  0  0  0
  -21.2200   -3.8300   26.0190 F   0  0  0  0  0  0  0  0  0  0  0  0
  -22.7230  -13.5700   21.1820 C   0  0  0  0  0  0  0  0  0  0  0  0
  -22.0130  -12.8630   22.0540 N   0  0  0  0  0  0  0  0  0  0  0  0
  -22.2700  -14.5950   20.6720 O   0  0  0  0  0  0  0  0  0  0  0  0
  -22.3930  -12.0370   22.4920 H   0  0  0  0  0  0  0  0  0  0  0  0
  -21.0730  -13.1520   22.2870 H   0  0  0  0  0  0  0  0  0  0  0  0
  -25.3040  -15.2820   20.3590 N   0  0  0  0  0  0  0  0  0  0  0  0
  -24.5250  -15.9160   20.5000 H   0  0  0  0  0  0  0  0  0  0  0  0
  -26.1180  -15.7370   19.9670 H   0  0  0  0  0  0  0  0  0  0  0  0
  -27.9090  -23.6180   20.2860 C   0  0  0  0  0  2  0  0  0  0  0  0
  -28.1300  -25.4160   20.3760 O   0  0  0  0  0  0  0  0  0  0  0  0
  -24.6830  -31.8780   23.2680 C   0  0  0  0  0  0  0  0  0  0  0  0
  -27.1790  -26.6830   20.3250 C   0  0  0  0  0  0  0  0  0  0  0  0
  -23.4950  -30.4780   21.6370 C   0  0  0  0  0  3  0  0  0  0  0  0
  -24.9360  -28.7930   20.2440 C   0  0  0  0  0  0  0  0  0  0  0  0
  -26.0800  -30.5730   21.5350 C   0  0  0  0  0  2  0  0  0  0  0  0
  -26.1340  -29.1280   20.8850 C   0  0  0  0  0  0  0  0  0  0  0  0
  -27.2370  -28.1030   20.8890 C   0  0  0  0  0  3  0  0  0  0  0  0
  -25.9460  -26.5850   19.6270 C   0  0  0  0  0  3  0  0  0  0  0  0
  -24.8860  -27.5490   19.5900 C   0  0  0  0  0  3  0  0  0  0  0  0
  -23.7400  -29.7650   20.2740 C   0  0  0  0  0  2  0  0  0  0  0  0
  -24.7780  -31.0130   22.1980 N   0  0  0  0  0  0  0  0  0  0  0  0
  -23.5880  -32.1930   23.7670 O   0  0  0  0  0  0  0  0  0  0  0  0
  -22.7580  -29.5200   22.6130 C   0  0  0  0  0  0  0  0  0  0  0  0
  -21.4260  -29.3710   22.4750 N   0  0  0  0  0  0  0  0  0  0  0  0
  -23.4000  -28.9090   23.4690 O   0  0  0  0  0  0  0  0  0  0  0  0
  -20.9570  -29.9120   21.7640 H   0  0  0  0  0  0  0  0  0  0  0  0
  -18.0300  -28.1650   22.9660 C   0  0  0  0  0  0  0  0  0  0  0  0
  -20.5880  -28.4450   23.2480 C   0  0  0  0  0  3  0  0  0  0  0  0
  -20.6980  -27.0040   22.6950 C   0  0  0  0  0  2  0  0  0  0  0  0
  -19.6060  -26.6670   21.6720 C   0  0  0  0  0  2  0  0  0  0  0  0
  -18.2180  -26.8110   22.3020 C   0  0  0  0  0  2  0  0  0  0  0  0
  -19.1430  -28.9380   23.3960 C   0  0  0  0  0  0  0  0  0  0  0  0
  -18.9100  -30.2000   23.9850 C   0  0  0  0  0  3  0  0  0  0  0  0
  -17.6000  -30.6900   24.1450 C   0  0  0  0  0  3  0  0  0  0  0  0
  -16.5040  -29.9170   23.7280 C   0  0  0  0  0  3  0  0  0  0  0  0
  -16.7190  -28.6550   23.1440 C   0  0  0  0  0  3  0  0  0  0  0  0
  -25.9440  -32.5270   23.9140 C   0  0  0  0  0  3  0  0  0  0  0  0
  -25.6290  -33.9340   24.2370 N   0  0  0  0  0  0  0  0  0  0  0  0
  -25.9420  -34.9930   23.4780 C   0  0  0  0  0  0  0  0  0  0  0  0
  -26.5830  -34.8900   22.4300 O   0  0  0  0  0  0  0  0  0  0  0  0
  -25.0510  -34.0870   25.0510 H   0  0  0  0  0  0  0  0  0  0  0  0
  -24.1910  -36.7870   23.2120 C   0  0  0  0  0  1  0  0  0  0  0  0
  -25.4760  -36.3870   23.9540 C   0  0  0  0  0  3  0  0  0  0  0  0
  -27.6450  -37.3000   24.6660 C   0  0  0  0  0  1  0  0  0  0  0  0
  -26.4970  -37.4440   23.7760 N   0  0  0  0  0  0  0  0  0  0  0  0
  -26.0920  -38.3640   23.9260 H   0  0  0  0  0  0  0  0  0  0  0  0
  -26.4240  -31.7770   25.2200 C   0  0  1  0  0  0  0  0  0  0  0  0
  -25.3070  -31.5750   26.2710 C   0  0  0  0  0  1  0  0  0  0  0  0
  -27.0010  -30.3840   24.8840 C   0  0  0  0  0  1  0  0  0  0  0  0
  -27.5690  -32.5730   25.8900 C   0  0  0  0  0  1  0  0  0  0  0  0
  1  4  1  0
  2  6  1  0
  2  1  2  0
  3  5  1  0
  4  7  1  0
  5  4  2  0
  6  3  2  0
  8 16  1  0
  9 14  1  0
 10 11  1  0
 10  9  1  0
 12 11  1  0
 12 21  1  0
 12 13  1  0
 14  8  1  0
 14 13  1  0
 15  8  2  0
 16  6  1  0
 16 17  1  0
 18 19  2  0
 19 38  1  0
 20 19  1  0
 20 23  1  0
 21 22  1  0
 21 18  1  0
 22 20  2  0
 23 24  1  0
 24 25  2  0
 26 29  1  0
 26 25  1  0
 27 26  2  0
 28 27  1  0
 28 23  2  0
 29 30  1  0
 30 31  1  0
 31 32  2  0
 33 32  1  0
 33 37  1  0
 34 33  2  0
 35 30  2  0
 35 34  1  0
 36 35  1  0
 38 39  1  0
 39 42  1  0
 39 41  1  0
 40 38  2  0
 43 44  1  0
 43 18  1  0
 45 43  1  0
 46  5  1  0
 46 47  1  0
 48 59  2  0
 49 47  1  0
 49 54  1  0
 50 58  1  0
 50 60  1  0
 51 57  1  0
 51 53  1  0
 52 58  1  0
 53 54  2  0
 53 52  1  0
 55 49  2  0
 56 55  1  0
 56 51  2  0
 57 50  1  0
 58 48  1  0
 60 62  2  0
 61 60  1  0
 63 61  1  0
 64 73  2  0
 64 69  1  0
 65 61  1  0
 65 69  1  0
 66 65  1  0
 67 68  1  0
 67 66  1  0
 68 64  1  0
 69 70  2  0
 70 71  1  0
 72 71  2  0
 73 72  1  0
 74 48  1  0
 74 75  1  0
 74 84  1  0
 75 78  1  0
 76 80  1  0
 76 75  1  0
 77 76  2  0
 80 79  1  0
 82 83  1  0
 82 80  1  0
 82 81  1  0
 84 87  1  1
 84 85  1  0
 86 84  1  0
M  ISO  4   8 100  16 100  46 101  47 101
M  END
>  <TORSDO>  (49) 
F 17

>  <SCORE>  (49) 
-16.586

>  <name>  (49) 
48

>  <ligand_id>  (49) 
48

>  <original_smiles>  (49) 
[H]c1c([H])c([H])c2c(c1[H])C([H])([H])C([H])([H])C([H])([H])C2([H])N([H])C(=O)C1([H])N(C(=O)C([H])(N([H])C(=O)C([H])(N([H])C([H])([H])[H])C([H])([H])[H])C(C([H])([H])[H])(C([H])([H])[H])C([H])([H])[H])C([H])([H])c2c([H])c(OC([H])([H])c3c([H])c(N([H])C(=O)N4C([H])([H])C([H])([H])C([H])([H])C([H])(n5nc(-c6c([H])c([H])c(Oc7c([H])c([H])c(F)c([H])c7F)c([H])c6[H])c(C(=O)N([H])[H])c5N([H])[H])C4([H])[H])c([H])c([H])c3C([H])([H])[H])c([H])c([H])c2C1([H])[H]

>  <smiles>  (49) 
[H]c1c([H])c([H])c2c(c1[H])C([H])([H])C([H])([H])C([H])([H])C2([H])N([H])C(=O)C1([H])N(C(=O)C([H])(N([H])C(=O)C([H])(N([H])C([H])([H])[H])C([H])([H])[H])C(C([H])([H])[H])(C([H])([H])[H])C([H])([H])[H])C([H])([H])c2c([H])c(OC([H])([H])c3c([H])c(N([H])C(=O)N4C([H])([H])C([H])([H])C([H])([H])C([H])(n5nc(-c6c([H])c([H])c(Oc7c([H])c([H])c(F)c([H])c7F)c([H])c6[H])c(C(=O)N([H])[H])c5N([H])[H])C4([H])[H])c([H])c([H])c3C([H])([H])[H])c([H])c([H])c2C1([H])[H]

$$$$
49:0:0
     RDKit          3D

 94102  0  0  1  0  0  0  0  0999 V2000
  -30.7660  -18.0560   21.2610 C   0  0  0  0  0  3  0  0  0  0  0  0
  -30.6430  -19.4680   21.0710 C   0  0  0  0  0  3  0  0  0  0  0  0
  -28.9130  -17.7200   19.7770 C   0  0  0  0  0  3  0  0  0  0  0  0
  -28.7760  -19.1310   19.5680 C   0  0  0  0  0  0  0  0  0  0  0  0
  -29.8980  -17.1430   20.6110 C   0  0  0  0  0  0  0  0  0  0  0  0
  -29.6540  -20.0550   20.2340 C   0  0  0  0  0  0  0  0  0  0  0  0
  -30.6260  -14.6780   20.4420 C   0  0  0  0  0  0  0  0  0  0  0  0
  -30.4060  -12.4620   19.3340 C   0  0  0  0  0  2  0  0  0  0  0  0
  -29.4810  -12.6370   18.1090 C   0  0  0  0  0  2  0  0  0  0  0  0
  -28.0000  -12.4760   18.5160 C   0  0  0  0  0  2  0  0  0  0  0  0
  -27.6330  -13.3180   19.7670 C   0  0  0  0  0  3  0  0  0  0  0  0
  -28.6760  -13.1260   20.8940 C   0  0  0  0  0  2  0  0  0  0  0  0
  -30.0010  -13.4620   20.3440 N   0  0  0  0  0  0  0  0  0  0  0  0
  -31.7810  -14.8450   20.0370 O   0  0  0  0  0  0  0  0  0  0  0  0
  -29.8510  -15.7110   20.8880 N   0  0  0  0  0  0  0  0  0  0  0  0
  -28.9450  -15.3840   21.1940 H   0  0  0  0  0  0  0  0  0  0  0  0
  -25.2210  -13.9250   20.4230 C   0  0  0  0  0  0  0  0  0  0  0  0
  -24.1470  -13.1580   20.7880 C   0  0  0  0  0  0  0  0  0  0  0  0
  -24.6120  -11.8080   20.7910 C   0  0  0  0  0  0  0  0  0  0  0  0
  -26.2720  -13.0420   20.2260 N   0  0  0  0  0  0  0  0  0  0  0  0
  -25.9080  -11.7640   20.5050 N   0  0  0  0  0  0  0  0  0  0  0  0
  -23.8830  -10.5490   20.9930 C   0  0  0  0  0  0  0  0  0  0  0  0
  -24.3070   -9.5920   21.9420 C   0  0  0  0  0  3  0  0  0  0  0  0
  -23.5790   -8.3970   22.1280 C   0  0  0  0  0  3  0  0  0  0  0  0
  -22.4130   -8.1510   21.3660 C   0  0  0  0  0  0  0  0  0  0  0  0
  -22.0070   -9.0960   20.4060 C   0  0  0  0  0  3  0  0  0  0  0  0
  -22.7360  -10.2820   20.2180 C   0  0  0  0  0  3  0  0  0  0  0  0
  -21.6560   -7.0070   21.4600 O   0  0  0  0  0  0  0  0  0  0  0  0
  -21.6090   -6.2700   22.6170 C   0  0  0  0  0  0  0  0  0  0  0  0
  -21.2020   -6.8350   23.8450 C   0  0  0  0  0  3  0  0  0  0  0  0
  -21.1000   -6.0230   24.9930 C   0  0  0  0  0  3  0  0  0  0  0  0
  -21.3960   -4.6500   24.9150 C   0  0  0  0  0  0  0  0  0  0  0  0
  -21.7970   -4.0850   23.6910 C   0  0  0  0  0  3  0  0  0  0  0  0
  -21.9010   -4.8930   22.5460 C   0  0  0  0  0  0  0  0  0  0  0  0
  -22.2680   -4.3410   21.3640 F   0  0  0  0  0  0  0  0  0  0  0  0
  -21.2920   -3.8690   26.0160 F   0  0  0  0  0  0  0  0  0  0  0  0
  -22.7460  -13.6410   21.0240 C   0  0  0  0  0  0  0  0  0  0  0  0
  -21.9980  -12.9620   21.8890 N   0  0  0  0  0  0  0  0  0  0  0  0
  -22.3190  -14.6560   20.4760 O   0  0  0  0  0  0  0  0  0  0  0  0
  -22.3560  -12.1460   22.3610 H   0  0  0  0  0  0  0  0  0  0  0  0
  -21.0560  -13.2680   22.0850 H   0  0  0  0  0  0  0  0  0  0  0  0
  -25.3850  -15.2930   20.2230 N   0  0  0  0  0  0  0  0  0  0  0  0
  -24.6080  -15.9400   20.2970 H   0  0  0  0  0  0  0  0  0  0  0  0
  -26.2340  -15.7250   19.8820 H   0  0  0  0  0  0  0  0  0  0  0  0
  -27.6840  -19.5470   18.6300 C   0  0  0  0  0  0  0  0  0  0  0  0
  -26.9210  -18.7470   18.0760 O   0  0  0  0  0  0  0  0  0  0  0  0
  -27.5900  -20.8760   18.4690 O   0  0  0  0  0  0  0  0  0  0  0  0
  -25.2720  -21.5560   18.6010 C   0  0  0  0  0  1  0  0  0  0  0  0
  -26.5330  -21.4610   17.7290 C   0  0  0  0  0  2  0  0  0  0  0  0
  -29.7080  -21.4410   19.9510 O   0  0  0  0  0  0  0  0  0  0  0  0
  -28.9840  -22.4540   20.7330 C   0  0  0  0  0  2  0  0  0  0  0  0
  -29.0840  -23.9480   20.1500 C   0  0  0  0  0  3  0  0  0  0  0  0
  -28.2950  -25.1480   20.8560 C   0  0  0  0  0  3  0  0  0  0  0  0
  -28.4280  -26.5240   20.3050 O   0  0  0  0  0  0  0  0  0  0  0  0
  -24.6180  -31.9000   23.2460 C   0  0  0  0  0  0  0  0  0  0  0  0
  -27.2940  -27.3470   20.2690 C   0  0  0  0  0  0  0  0  0  0  0  0
  -23.4370  -30.4810   21.6020 C   0  0  0  0  0  3  0  0  0  0  0  0
  -24.9120  -28.9270   20.2040 C   0  0  0  0  0  0  0  0  0  0  0  0
  -25.9710  -30.8240   21.4330 C   0  0  0  0  0  2  0  0  0  0  0  0
  -26.0690  -29.4400   20.8030 C   0  0  0  0  0  0  0  0  0  0  0  0
  -27.2650  -28.6640   20.8200 C   0  0  0  0  0  3  0  0  0  0  0  0
  -26.1170  -26.8780   19.6490 C   0  0  0  0  0  3  0  0  0  0  0  0
  -24.9370  -27.6500   19.6160 C   0  0  0  0  0  3  0  0  0  0  0  0
  -23.6680  -29.7920   20.2300 C   0  0  0  0  0  2  0  0  0  0  0  0
  -24.6940  -31.0890   22.1510 N   0  0  0  0  0  0  0  0  0  0  0  0
  -23.5300  -32.1710   23.7730 O   0  0  0  0  0  0  0  0  0  0  0  0
  -22.7760  -29.4690   22.5670 C   0  0  0  0  0  0  0  0  0  0  0  0
  -21.4510  -29.2840   22.4340 N   0  0  0  0  0  0  0  0  0  0  0  0
  -23.4540  -28.8480   23.3900 O   0  0  0  0  0  0  0  0  0  0  0  0
  -20.9630  -29.8330   21.7390 H   0  0  0  0  0  0  0  0  0  0  0  0
  -18.0780  -28.0770   22.9310 C   0  0  0  0  0  0  0  0  0  0  0  0
  -20.6340  -28.3450   23.2060 C   0  0  0  0  0  3  0  0  0  0  0  0
  -20.7440  -26.9130   22.6330 C   0  0  0  0  0  2  0  0  0  0  0  0
  -19.6450  -26.5840   21.6170 C   0  0  0  0  0  2  0  0  0  0  0  0
  -18.2610  -26.7270   22.2580 C   0  0  0  0  0  2  0  0  0  0  0  0
  -19.1930  -28.8440   23.3610 C   0  0  0  0  0  0  0  0  0  0  0  0
  -18.9700  -30.1070   23.9510 C   0  0  0  0  0  3  0  0  0  0  0  0
  -17.6630  -30.6030   24.1160 C   0  0  0  0  0  3  0  0  0  0  0  0
  -16.5620  -29.8340   23.7010 C   0  0  0  0  0  3  0  0  0  0  0  0
  -16.7710  -28.5740   23.1140 C   0  0  0  0  0  3  0  0  0  0  0  0
  -25.8930  -32.5450   23.8750 C   0  0  0  0  0  3  0  0  0  0  0  0
  -25.5730  -33.9430   24.1930 N   0  0  0  0  0  0  0  0  0  0  0  0
  -25.9070  -34.9940   23.4310 C   0  0  0  0  0  0  0  0  0  0  0  0
  -26.5890  -34.8870   22.4070 O   0  0  0  0  0  0  0  0  0  0  0  0
  -24.9710  -34.1010   24.9880 H   0  0  0  0  0  0  0  0  0  0  0  0
  -24.1760  -36.7780   23.0470 C   0  0  0  0  0  1  0  0  0  0  0  0
  -25.4100  -36.3820   23.8750 C   0  0  0  0  0  3  0  0  0  0  0  0
  -27.5320  -37.2800   24.7230 C   0  0  0  0  0  1  0  0  0  0  0  0
  -26.4380  -37.4390   23.7680 N   0  0  0  0  0  0  0  0  0  0  0  0
  -26.0270  -38.3580   23.9090 H   0  0  0  0  0  0  0  0  0  0  0  0
  -26.4040  -31.7870   25.1610 C   0  0  1  0  0  0  0  0  0  0  0  0
  -25.3030  -31.5530   26.2240 C   0  0  0  0  0  1  0  0  0  0  0  0
  -26.9980  -30.4090   24.7860 C   0  0  0  0  0  1  0  0  0  0  0  0
  -27.5460  -32.5920   25.8260 C   0  0  0  0  0  1  0  0  0  0  0  0
  2  1  1  0
  3  5  1  0
  4  3  2  0
  4  6  1  0
  5 15  1  0
  5  1  2  0
  6  2  2  0
  7 15  1  0
  8 13  1  0
  9 10  1  0
  9  8  1  0
 11 10  1  0
 11 20  1  0
 11 12  1  0
 13  7  1  0
 13 12  1  0
 14  7  2  0
 15 16  1  0
 17 18  2  0
 18 19  1  0
 18 37  1  0
 19 22  1  0
 20 17  1  0
 20 21  1  0
 21 19  2  0
 22 23  1  0
 23 24  2  0
 25 28  1  0
 25 24  1  0
 26 25  2  0
 27 26  1  0
 27 22  2  0
 28 29  1  0
 29 30  1  0
 30 31  2  0
 32 31  1  0
 32 36  1  0
 33 32  2  0
 34 29  2  0
 34 33  1  0
 35 34  1  0
 37 38  1  0
 38 41  1  0
 38 40  1  0
 39 37  2  0
 42 43  1  0
 42 17  1  0
 44 42  1  0
 45  4  1  0
 46 45  2  0
 47 45  1  0
 49 47  1  0
 49 48  1  0
 50  6  1  0
 50 51  1  0
 52 51  1  0
 52 53  2  0
 54 53  1  0
 55 66  2  0
 56 54  1  0
 56 61  1  0
 57 65  1  0
 57 67  1  0
 58 64  1  0
 58 60  1  0
 59 65  1  0
 60 61  2  0
 60 59  1  0
 62 56  2  0
 63 62  1  0
 63 58  2  0
 64 57  1  0
 65 55  1  0
 67 69  2  0
 68 67  1  0
 70 68  1  0
 71 80  2  0
 71 76  1  0
 72 68  1  0
 72 76  1  0
 73 72  1  0
 74 75  1  0
 74 73  1  0
 75 71  1  0
 76 77  2  0
 77 78  1  0
 79 78  2  0
 80 79  1  0
 81 55  1  0
 81 82  1  0
 81 91  1  0
 82 85  1  0
 83 87  1  0
 83 82  1  0
 84 83  2  0
 87 86  1  0
 89 87  1  0
 89 90  1  0
 89 88  1  0
 91 94  1  1
 91 92  1  0
 93 91  1  0
M  ISO  4   7 100  15 100  53 101  54 101
M  END
>  <TORSDO>  (50) 
F 23

>  <SCORE>  (50) 
-12.887

>  <name>  (50) 
49

>  <ligand_id>  (50) 
49

>  <original_smiles>  (50) 
[H]c1c([H])c([H])c2c(c1[H])C([H])([H])C([H])([H])C([H])([H])C2([H])N([H])C(=O)C1([H])N(C(=O)C([H])(N([H])C(=O)C([H])(N([H])C([H])([H])[H])C([H])([H])[H])C(C([H])([H])[H])(C([H])([H])[H])C([H])([H])[H])C([H])([H])c2c([H])c(OC([H])([H])C([H])([H])C([H])([H])Oc3c([H])c([H])c(N([H])C(=O)N4C([H])([H])C([H])([H])C([H])([H])C([H])(n5nc(-c6c([H])c([H])c(Oc7c([H])c([H])c(F)c([H])c7F)c([H])c6[H])c(C(=O)N([H])[H])c5N([H])[H])C4([H])[H])c([H])c3C(=O)OC([H])([H])C([H])([H])[H])c([H])c([H])c2C1([H])[H]

>  <smiles>  (50) 
[H]c1c([H])c([H])c2c(c1[H])C([H])([H])C([H])([H])C([H])([H])C2([H])N([H])C(=O)C1([H])N(C(=O)C([H])(N([H])C(=O)C([H])(N([H])C([H])([H])[H])C([H])([H])[H])C(C([H])([H])[H])(C([H])([H])[H])C([H])([H])[H])C([H])([H])c2c([H])c(OC([H])([H])C([H])([H])C([H])([H])Oc3c([H])c([H])c(N([H])C(=O)N4C([H])([H])C([H])([H])C([H])([H])C([H])(n5nc(-c6c([H])c([H])c(Oc7c([H])c([H])c(F)c([H])c7F)c([H])c6[H])c(C(=O)N([H])[H])c5N([H])[H])C4([H])[H])c([H])c3C(=O)OC([H])([H])C([H])([H])[H])c([H])c([H])c2C1([H])[H]

$$$$
50:0:0
     RDKit          3D

 97106  0  0  1  0  0  0  0  0999 V2000
  -31.7430  -19.6520   19.3060 C   0  0  0  0  0  3  0  0  0  0  0  0
  -31.1850  -20.9020   19.7100 C   0  0  0  0  0  3  0  0  0  0  0  0
  -31.3860  -21.6840   17.4500 C   0  0  0  0  0  3  0  0  0  0  0  0
  -31.9580  -20.4330   17.0430 C   0  0  0  0  0  0  0  0  0  0  0  0
  -32.1560  -19.3660   17.9700 C   0  0  0  0  0  0  0  0  0  0  0  0
  -31.0030  -21.9670   18.7930 C   0  0  0  0  0  0  0  0  0  0  0  0
  -30.7710  -24.2400   20.0620 C   0  0  0  0  0  0  0  0  0  0  0  0
  -29.6230  -25.7440   21.6760 C   0  0  0  0  0  2  0  0  0  0  0  0
  -28.5460  -24.9220   22.4190 C   0  0  0  0  0  2  0  0  0  0  0  0
  -27.2230  -24.8950   21.6240 C   0  0  0  0  0  2  0  0  0  0  0  0
  -27.4360  -24.5550   20.1250 C   0  0  0  0  0  3  0  0  0  0  0  0
  -28.5840  -25.3940   19.5190 C   0  0  0  0  0  2  0  0  0  0  0  0
  -29.7870  -25.1570   20.3320 N   0  0  0  0  0  0  0  0  0  0  0  0
  -31.8070  -24.2040   20.7320 O   0  0  0  0  0  0  0  0  0  0  0  0
  -30.4560  -23.2890   19.1230 N   0  0  0  0  0  0  0  0  0  0  0  0
  -29.6080  -23.5190   18.6280 H   0  0  0  0  0  0  0  0  0  0  0  0
  -26.0310  -24.8390   17.9910 C   0  0  0  0  0  0  0  0  0  0  0  0
  -24.6790  -24.8380   17.7770 C   0  0  0  0  0  0  0  0  0  0  0  0
  -24.0760  -24.6790   19.0620 C   0  0  0  0  0  0  0  0  0  0  0  0
  -26.1990  -24.6860   19.3580 N   0  0  0  0  0  0  0  0  0  0  0  0
  -25.0080  -24.6480   20.0080 N   0  0  0  0  0  0  0  0  0  0  0  0
  -22.6690  -24.4940   19.4410 C   0  0  0  0  0  0  0  0  0  0  0  0
  -22.0880  -25.2260   20.4990 C   0  0  0  0  0  3  0  0  0  0  0  0
  -20.7280  -25.0450   20.8330 C   0  0  0  0  0  3  0  0  0  0  0  0
  -19.9350  -24.1270   20.1040 C   0  0  0  0  0  0  0  0  0  0  0  0
  -20.5250  -23.3840   19.0670 C   0  0  0  0  0  3  0  0  0  0  0  0
  -21.8790  -23.5620   18.7400 C   0  0  0  0  0  3  0  0  0  0  0  0
  -18.6130  -23.8670   20.3720 O   0  0  0  0  0  0  0  0  0  0  0  0
  -17.8500  -24.7210   21.1270 C   0  0  0  0  0  0  0  0  0  0  0  0
  -17.6990  -26.0840   20.7890 C   0  0  0  0  0  3  0  0  0  0  0  0
  -16.8510  -26.9100   21.5530 C   0  0  0  0  0  3  0  0  0  0  0  0
  -16.1470  -26.3750   22.6480 C   0  0  0  0  0  0  0  0  0  0  0  0
  -16.2900  -25.0170   22.9830 C   0  0  0  0  0  3  0  0  0  0  0  0
  -17.1380  -24.1930   22.2230 C   0  0  0  0  0  0  0  0  0  0  0  0
  -17.2560  -22.8800   22.5370 F   0  0  0  0  0  0  0  0  0  0  0  0
  -15.3250  -27.1660   23.3780 F   0  0  0  0  0  0  0  0  0  0  0  0
  -23.9850  -24.8840   16.4470 C   0  0  0  0  0  0  0  0  0  0  0  0
  -22.8470  -25.5650   16.3710 N   0  0  0  0  0  0  0  0  0  0  0  0
  -24.4760  -24.3530   15.4510 O   0  0  0  0  0  0  0  0  0  0  0  0
  -22.4550  -26.0190   17.1830 H   0  0  0  0  0  0  0  0  0  0  0  0
  -22.3610  -25.6330   15.4880 H   0  0  0  0  0  0  0  0  0  0  0  0
  -27.1290  -24.9340   17.1400 N   0  0  0  0  0  0  0  0  0  0  0  0
  -27.0250  -24.9840   16.1330 H   0  0  0  0  0  0  0  0  0  0  0  0
  -28.0920  -24.8400   17.4340 H   0  0  0  0  0  0  0  0  0  0  0  0
  -33.6040  -20.5650   15.2570 C   0  0  0  0  0  3  0  0  0  0  0  0
  -32.3390  -20.2880   15.6330 C   0  0  0  0  0  0  0  0  0  0  0  0
  -34.1280  -20.4410   13.8360 C   0  0  0  0  0  2  0  0  0  0  0  0
  -31.3010  -19.8180   14.6230 C   0  0  0  0  0  2  0  0  0  0  0  0
  -33.0000  -20.2790   12.8030 C   0  0  0  0  0  2  0  0  0  0  0  0
  -31.9230  -19.3120   13.3070 C   0  0  0  0  0  2  0  0  0  0  0  0
  -32.9150  -18.0430   17.6820 C   0  0  0  0  0  0  0  0  0  0  0  0
  -32.7930  -17.3130   16.5300 N   0  0  0  0  0  0  0  0  0  0  0  0
  -33.6460  -17.6140   18.5780 O   0  0  0  0  0  0  0  0  0  0  0  0
  -32.1890  -17.6750   15.8060 H   0  0  0  0  0  0  0  0  0  0  0  0
  -33.5690  -16.0450   16.2440 C   0  0  0  0  0  2  0  0  0  0  0  0
  -33.2670  -15.2420   14.9090 C   0  0  0  0  0  2  0  0  0  0  0  0
  -33.5940  -13.7960   14.8780 O   0  0  0  0  0  0  0  0  0  0  0  0
  -37.3220   -8.6570   11.4560 C   0  0  0  0  0  0  0  0  0  0  0  0
  -33.9670  -13.2180   13.6540 C   0  0  0  0  0  0  0  0  0  0  0  0
  -36.6050  -10.5890   10.0950 C   0  0  0  0  0  3  0  0  0  0  0  0
  -34.8650  -12.1260   11.1660 C   0  0  0  0  0  0  0  0  0  0  0  0
  -35.2280   -9.8540   12.1300 C   0  0  0  0  0  2  0  0  0  0  0  0
  -34.7870  -11.3040   12.2970 C   0  0  0  0  0  0  0  0  0  0  0  0
  -34.3250  -11.8400   13.5350 C   0  0  0  0  0  3  0  0  0  0  0  0
  -34.0280  -14.0020   12.4770 C   0  0  0  0  0  3  0  0  0  0  0  0
  -34.4760  -13.4710   11.2520 C   0  0  0  0  0  3  0  0  0  0  0  0
  -35.3750  -11.5090    9.8790 C   0  0  0  0  0  2  0  0  0  0  0  0
  -36.4240   -9.6670   11.2630 N   0  0  0  0  0  0  0  0  0  0  0  0
  -38.2620   -8.4710   10.6700 O   0  0  0  0  0  0  0  0  0  0  0  0
  -37.8760  -11.4670   10.1980 C   0  0  0  0  0  0  0  0  0  0  0  0
  -38.3060  -12.0440    9.0640 N   0  0  0  0  0  0  0  0  0  0  0  0
  -38.4380  -11.6350   11.2840 O   0  0  0  0  0  0  0  0  0  0  0  0
  -37.7980  -11.8510    8.2130 H   0  0  0  0  0  0  0  0  0  0  0  0
  -40.1280  -14.1460    6.7520 C   0  0  0  0  0  0  0  0  0  0  0  0
  -39.4560  -12.9420    8.9390 C   0  0  0  0  0  3  0  0  0  0  0  0
  -39.1290  -14.3480    9.4920 C   0  0  0  0  0  2  0  0  0  0  0  0
  -38.6240  -15.3170    8.4170 C   0  0  0  0  0  2  0  0  0  0  0  0
  -39.6690  -15.4830    7.3100 C   0  0  0  0  0  2  0  0  0  0  0  0
  -40.0140  -12.9520    7.5110 C   0  0  0  0  0  0  0  0  0  0  0  0
  -40.4250  -11.7310    6.9320 C   0  0  0  0  0  3  0  0  0  0  0  0
  -40.9420  -11.6930    5.6230 C   0  0  0  0  0  3  0  0  0  0  0  0
  -41.0670  -12.8810    4.8820 C   0  0  0  0  0  3  0  0  0  0  0  0
  -40.6650  -14.1030    5.4480 C   0  0  0  0  0  3  0  0  0  0  0  0
  -37.1980   -7.6740   12.6610 C   0  0  0  0  0  3  0  0  0  0  0  0
  -38.2380   -7.9670   13.8110 C   0  0  1  0  0  0  0  0  0  0  0  0
  -39.7040   -8.0280   13.3230 C   0  0  0  0  0  1  0  0  0  0  0  0
  -37.9180   -9.3110   14.5090 C   0  0  0  0  0  1  0  0  0  0  0  0
  -38.1410   -6.8710   14.8980 C   0  0  0  0  0  1  0  0  0  0  0  0
  -37.3720   -6.3110   12.1410 N   0  0  0  0  0  0  0  0  0  0  0  0
  -36.3700   -5.4650   11.8710 C   0  0  0  0  0  0  0  0  0  0  0  0
  -35.1880   -5.7330   12.1020 O   0  0  0  0  0  0  0  0  0  0  0  0
  -38.3110   -6.0440   11.8780 H   0  0  0  0  0  0  0  0  0  0  0  0
  -36.4680   -4.1450    9.7310 C   0  0  0  0  0  1  0  0  0  0  0  0
  -36.7360   -4.1050   11.2450 C   0  0  0  0  0  3  0  0  0  0  0  0
  -36.4240   -2.6800   13.2190 C   0  0  0  0  0  1  0  0  0  0  0  0
  -36.0120   -2.9660   11.8470 N   0  0  0  0  0  0  0  0  0  0  0  0
  -36.1450   -2.1220   11.2950 H   0  0  0  0  0  0  0  0  0  0  0  0
  1  2  1  0
  3  6  1  0
  4  3  2  0
  4  5  1  0
  5  1  2  0
  6 15  1  0
  6  2  2  0
  7 13  1  0
  7 14  2  0
  8  9  1  0
 10  9  1  0
 11 20  1  0
 11 10  1  0
 12 11  1  0
 12 13  1  0
 13  8  1  0
 15  7  1  0
 16 15  1  0
 17 20  1  0
 18 17  2  0
 18 19  1  0
 19 22  1  0
 19 21  2  0
 20 21  1  0
 22 23  1  0
 23 24  2  0
 25 28  1  0
 25 24  1  0
 26 25  2  0
 27 26  1  0
 27 22  2  0
 28 29  1  0
 29 34  1  0
 30 29  2  0
 30 31  1  0
 31 32  2  0
 32 33  1  0
 32 36  1  0
 34 35  1  0
 34 33  2  0
 37 18  1  0
 38 37  1  0
 38 40  1  0
 39 37  2  0
 41 38  1  0
 42 44  1  0
 42 17  1  0
 43 42  1  0
 45 46  2  0
 46  4  1  0
 47 45  1  0
 48 46  1  0
 49 50  1  0
 49 47  1  0
 50 48  1  0
 51  5  1  0
 51 53  2  0
 52 51  1  0
 54 52  1  0
 55 52  1  0
 56 55  1  0
 57 56  1  0
 59 57  1  0
 60 70  1  0
 60 68  1  0
 61 66  2  0
 61 63  1  0
 62 63  1  0
 63 64  2  0
 64 59  1  0
 65 59  2  0
 66 65  1  0
 67 60  1  0
 67 61  1  0
 68 58  1  0
 68 62  1  0
 69 58  2  0
 70 72  2  0
 71 70  1  0
 73 71  1  0
 74 78  1  0
 74 79  1  0
 75 71  1  0
 75 76  1  0
 77 76  1  0
 78 77  1  0
 79 75  1  0
 80 79  2  0
 81 80  1  0
 82 83  1  0
 82 81  2  0
 83 74  2  0
 84 58  1  0
 84 85  1  0
 85 87  1  1
 85 88  1  0
 86 85  1  0
 89 84  1  0
 90 91  2  0
 90 89  1  0
 92 89  1  0
 94 93  1  0
 94 96  1  0
 94 90  1  0
 96 95  1  0
 97 96  1  0
M  ISO  4   7 100  15 100  56 101  57 101
M  END
>  <TORSDO>  (51) 
F 20

>  <SCORE>  (51) 
-4.114

>  <name>  (51) 
50

>  <ligand_id>  (51) 
50

>  <original_smiles>  (51) 
[H]C1=C(c2c([H])c(N([H])C(=O)N3C([H])([H])C([H])([H])C([H])([H])C([H])(n4nc(-c5c([H])c([H])c(Oc6c([H])c([H])c(F)c([H])c6F)c([H])c5[H])c(C(=O)N([H])[H])c4N([H])[H])C3([H])[H])c([H])c([H])c2C(=O)N([H])C([H])([H])C([H])([H])Oc2c([H])c([H])c3c(c2[H])C([H])([H])N(C(=O)C([H])(N([H])C(=O)C([H])(N([H])C([H])([H])[H])C([H])([H])[H])C(C([H])([H])[H])(C([H])([H])[H])C([H])([H])[H])C([H])(C(=O)N([H])C2([H])c4c([H])c([H])c([H])c([H])c4C([H])([H])C([H])([H])C2([H])[H])C3([H])[H])C([H])([H])C([H])([H])C([H])([H])C1([H])[H]

>  <smiles>  (51) 
[H]C1=C(c2c([H])c(N([H])C(=O)N3C([H])([H])C([H])([H])C([H])([H])C([H])(n4nc(-c5c([H])c([H])c(Oc6c([H])c([H])c(F)c([H])c6F)c([H])c5[H])c(C(=O)N([H])[H])c4N([H])[H])C3([H])[H])c([H])c([H])c2C(=O)N([H])C([H])([H])C([H])([H])Oc2c([H])c([H])c3c(c2[H])C([H])([H])N(C(=O)C([H])(N([H])C(=O)C([H])(N([H])C([H])([H])[H])C([H])([H])[H])C(C([H])([H])[H])(C([H])([H])[H])C([H])([H])[H])C([H])(C(=O)N([H])C2([H])c4c([H])c([H])c([H])c([H])c4C([H])([H])C([H])([H])C2([H])[H])C3([H])[H])C([H])([H])C([H])([H])C([H])([H])C1([H])[H]

$$$$
51:0:0
     RDKit          3D

 87 95  0  0  1  0  0  0  0  0999 V2000
  -30.1450  -20.5220   19.4660 C   0  0  0  0  0  3  0  0  0  0  0  0
  -28.2500  -20.3140   20.7540 C   0  0  0  0  0  3  0  0  0  0  0  0
  -30.3540  -19.0480   19.4910 C   0  0  0  0  0  3  0  0  0  0  0  0
  -28.4500  -18.8430   20.7680 C   0  0  0  0  0  3  0  0  0  0  0  0
  -29.0780  -21.3060   20.0880 C   0  0  0  0  0  0  0  0  0  0  0  0
  -29.5210  -18.0610   20.1570 C   0  0  0  0  0  0  0  0  0  0  0  0
  -30.4010  -15.2820   19.8810 C   0  0  0  0  0  0  0  0  0  0  0  0
  -30.3280  -12.8670   18.9610 C   0  0  0  0  0  2  0  0  0  0  0  0
  -29.3220  -12.7380   17.7870 C   0  0  0  0  0  2  0  0  0  0  0  0
  -27.8970  -12.4820   18.3100 C   0  0  0  0  0  2  0  0  0  0  0  0
  -27.5420  -13.4090   19.5010 C   0  0  0  0  0  3  0  0  0  0  0  0
  -28.6630  -13.4760   20.5600 C   0  0  0  0  0  2  0  0  0  0  0  0
  -29.8680  -13.9700   19.8740 N   0  0  0  0  0  0  0  0  0  0  0  0
  -31.5720  -15.3550   19.4830 O   0  0  0  0  0  0  0  0  0  0  0  0
  -29.5840  -16.4570   20.2070 N   0  0  0  0  0  0  0  0  0  0  0  0
  -28.7340  -16.0980   20.6130 H   0  0  0  0  0  0  0  0  0  0  0  0
  -25.2340  -13.9690   20.4290 C   0  0  0  0  0  0  0  0  0  0  0  0
  -24.1940  -13.1910   20.8530 C   0  0  0  0  0  0  0  0  0  0  0  0
  -24.6440  -11.8380   20.7500 C   0  0  0  0  0  0  0  0  0  0  0  0
  -26.2480  -13.0930   20.0870 N   0  0  0  0  0  0  0  0  0  0  0  0
  -25.9100  -11.8020   20.3450 N   0  0  0  0  0  0  0  0  0  0  0  0
  -23.9210  -10.5760   20.9570 C   0  0  0  0  0  0  0  0  0  0  0  0
  -24.3890   -9.5930   21.8570 C   0  0  0  0  0  3  0  0  0  0  0  0
  -23.6630   -8.3980   22.0530 C   0  0  0  0  0  3  0  0  0  0  0  0
  -22.4540   -8.1780   21.3500 C   0  0  0  0  0  0  0  0  0  0  0  0
  -22.0060   -9.1500   20.4380 C   0  0  0  0  0  3  0  0  0  0  0  0
  -22.7330  -10.3360   20.2400 C   0  0  0  0  0  3  0  0  0  0  0  0
  -21.6960   -7.0380   21.4580 O   0  0  0  0  0  0  0  0  0  0  0  0
  -21.6720   -6.2950   22.6110 C   0  0  0  0  0  0  0  0  0  0  0  0
  -21.2440   -6.8410   23.8410 C   0  0  0  0  0  3  0  0  0  0  0  0
  -21.1710   -6.0230   24.9860 C   0  0  0  0  0  3  0  0  0  0  0  0
  -21.5130   -4.6610   24.9030 C   0  0  0  0  0  0  0  0  0  0  0  0
  -21.9320   -4.1130   23.6780 C   0  0  0  0  0  3  0  0  0  0  0  0
  -22.0090   -4.9280   22.5350 C   0  0  0  0  0  0  0  0  0  0  0  0
  -22.3940   -4.3900   21.3530 F   0  0  0  0  0  0  0  0  0  0  0  0
  -21.4350   -3.8730   26.0020 F   0  0  0  0  0  0  0  0  0  0  0  0
  -22.8240  -13.6690   21.2360 C   0  0  0  0  0  0  0  0  0  0  0  0
  -22.1570  -12.9580   22.1370 N   0  0  0  0  0  0  0  0  0  0  0  0
  -22.3600  -14.7110   20.7730 O   0  0  0  0  0  0  0  0  0  0  0  0
  -22.5500  -12.1150   22.5320 H   0  0  0  0  0  0  0  0  0  0  0  0
  -21.2410  -13.2590   22.4400 H   0  0  0  0  0  0  0  0  0  0  0  0
  -25.3970  -15.3440   20.2780 N   0  0  0  0  0  0  0  0  0  0  0  0
  -24.6420  -15.9990   20.4520 H   0  0  0  0  0  0  0  0  0  0  0  0
  -26.2130  -15.7820   19.8750 H   0  0  0  0  0  0  0  0  0  0  0  0
  -29.0670  -23.0380   20.2600 C   0  0  0  0  0  3  0  0  0  0  0  0
  -28.0290  -24.4150   19.8500 C   0  0  0  0  0  3  0  0  0  0  0  0
  -28.2340  -26.0170   20.0780 O   0  0  0  0  0  0  0  0  0  0  0  0
  -24.6030  -31.8040   23.1570 C   0  0  0  0  0  0  0  0  0  0  0  0
  -27.2040  -27.0750   20.0200 C   0  0  0  0  0  0  0  0  0  0  0  0
  -23.4220  -30.4460   21.4770 C   0  0  0  0  0  3  0  0  0  0  0  0
  -24.8860  -28.9030   20.0100 C   0  0  0  0  0  0  0  0  0  0  0  0
  -25.9820  -30.6970   21.3390 C   0  0  0  0  0  2  0  0  0  0  0  0
  -26.0650  -29.3110   20.6460 C   0  0  0  0  0  0  0  0  0  0  0  0
  -27.2200  -28.4170   20.6290 C   0  0  0  0  0  3  0  0  0  0  0  0
  -26.0000  -26.8070   19.3340 C   0  0  0  0  0  3  0  0  0  0  0  0
  -24.8760  -27.6730   19.3330 C   0  0  0  0  0  3  0  0  0  0  0  0
  -23.6590  -29.8090   20.0800 C   0  0  0  0  0  2  0  0  0  0  0  0
  -24.6900  -31.0080   22.0450 N   0  0  0  0  0  0  0  0  0  0  0  0
  -23.5110  -32.0670   23.6870 O   0  0  0  0  0  0  0  0  0  0  0  0
  -22.7370  -29.4140   22.4120 C   0  0  0  0  0  0  0  0  0  0  0  0
  -21.4060  -29.2590   22.2980 N   0  0  0  0  0  0  0  0  0  0  0  0
  -23.4110  -28.7540   23.2070 O   0  0  0  0  0  0  0  0  0  0  0  0
  -20.9130  -29.8520   21.6430 H   0  0  0  0  0  0  0  0  0  0  0  0
  -18.0240  -28.0570   22.8340 C   0  0  0  0  0  0  0  0  0  0  0  0
  -20.5910  -28.2900   23.0390 C   0  0  0  0  0  3  0  0  0  0  0  0
  -20.6650  -26.8880   22.3900 C   0  0  0  0  0  2  0  0  0  0  0  0
  -19.5270  -26.6190   21.3990 C   0  0  0  0  0  2  0  0  0  0  0  0
  -18.1710  -26.7360   22.0990 C   0  0  0  0  0  2  0  0  0  0  0  0
  -19.1590  -28.7950   23.2640 C   0  0  0  0  0  0  0  0  0  0  0  0
  -18.9640  -30.0290   23.9200 C   0  0  0  0  0  3  0  0  0  0  0  0
  -17.6680  -30.5300   24.1420 C   0  0  0  0  0  3  0  0  0  0  0  0
  -16.5470  -29.7920   23.7240 C   0  0  0  0  0  3  0  0  0  0  0  0
  -16.7260  -28.5550   23.0780 C   0  0  0  0  0  3  0  0  0  0  0  0
  -25.8680  -32.4380   23.8100 C   0  0  0  0  0  3  0  0  0  0  0  0
  -25.5480  -33.8360   24.1520 N   0  0  0  0  0  0  0  0  0  0  0  0
  -25.8710  -34.9000   23.4070 C   0  0  0  0  0  0  0  0  0  0  0  0
  -26.5320  -34.8090   22.3670 O   0  0  0  0  0  0  0  0  0  0  0  0
  -24.9600  -33.9780   24.9600 H   0  0  0  0  0  0  0  0  0  0  0  0
  -24.1270  -36.6900   23.1080 C   0  0  0  0  0  1  0  0  0  0  0  0
  -25.3890  -36.2850   23.8860 C   0  0  0  0  0  3  0  0  0  0  0  0
  -27.5330  -37.1870   24.6800 C   0  0  0  0  0  1  0  0  0  0  0  0
  -26.4130  -37.3450   23.7530 N   0  0  0  0  0  0  0  0  0  0  0  0
  -26.0050  -38.2630   23.9060 H   0  0  0  0  0  0  0  0  0  0  0  0
  -26.3600  -31.6610   25.0940 C   0  0  1  0  0  0  0  0  0  0  0  0
  -25.2470  -31.4190   26.1400 C   0  0  0  0  0  1  0  0  0  0  0  0
  -26.9490  -30.2830   24.7150 C   0  0  0  0  0  1  0  0  0  0  0  0
  -27.5000  -32.4500   25.7790 C   0  0  0  0  0  1  0  0  0  0  0  0
  1  3  2  0
  1  5  1  0
  2  4  1  0
  3  6  1  0
  5 45  1  0
  5  2  2  0
  6 15  1  0
  6  4  2  0
  7 15  1  0
  8 13  1  0
  9 10  1  0
  9  8  1  0
 11 10  1  0
 11 20  1  0
 11 12  1  0
 13  7  1  0
 13 12  1  0
 14  7  2  0
 15 16  1  0
 17 18  2  0
 18 37  1  0
 19 18  1  0
 19 22  1  0
 20 21  1  0
 20 17  1  0
 21 19  2  0
 22 23  1  0
 23 24  2  0
 25 28  1  0
 25 24  1  0
 26 25  2  0
 27 26  1  0
 27 22  2  0
 28 29  1  0
 29 30  1  0
 30 31  2  0
 32 31  1  0
 32 36  1  0
 33 32  2  0
 34 29  2  0
 34 33  1  0
 35 34  1  0
 37 38  1  0
 38 41  1  0
 38 40  1  0
 39 37  2  0
 42 17  1  0
 42 43  1  0
 44 42  1  0
 46 47  1  0
 46 45  2  0
 48 59  2  0
 49 47  1  0
 49 54  1  0
 50 58  1  0
 50 60  1  0
 51 57  1  0
 51 53  1  0
 52 58  1  0
 53 52  1  0
 54 53  2  0
 55 49  2  0
 56 55  1  0
 56 51  2  0
 57 50  1  0
 58 48  1  0
 60 62  2  0
 61 60  1  0
 63 61  1  0
 64 73  2  0
 64 69  1  0
 65 61  1  0
 65 69  1  0
 66 65  1  0
 67 68  1  0
 67 66  1  0
 68 64  1  0
 69 70  2  0
 70 71  1  0
 72 71  2  0
 73 72  1  0
 74 48  1  0
 74 75  1  0
 74 84  1  0
 75 78  1  0
 76 80  1  0
 76 75  1  0
 77 76  2  0
 80 79  1  0
 82 80  1  0
 82 83  1  0
 82 81  1  0
 84 87  1  1
 84 85  1  0
 86 84  1  0
M  ISO  4   7 100  15 100  46 101  47 101
M  END
>  <TORSDO>  (52) 
F 18

>  <SCORE>  (52) 
-15.173

>  <name>  (52) 
51

>  <ligand_id>  (52) 
51

>  <original_smiles>  (52) 
[H]c1c([H])c([H])c2c(c1[H])C([H])([H])C([H])([H])C([H])([H])C2([H])N([H])C(=O)C1([H])N(C(=O)C([H])(N([H])C(=O)C([H])(N([H])C([H])([H])[H])C([H])([H])[H])C(C([H])([H])[H])(C([H])([H])[H])C([H])([H])[H])C([H])([H])c2c([H])c(OC([H])([H])C([H])([H])c3c([H])c([H])c(N([H])C(=O)N4C([H])([H])C([H])([H])C([H])([H])C([H])(n5nc(-c6c([H])c([H])c(Oc7c([H])c([H])c(F)c([H])c7F)c([H])c6[H])c(C(=O)N([H])[H])c5N([H])[H])C4([H])[H])c([H])c3[H])c([H])c([H])c2C1([H])[H]

>  <smiles>  (52) 
[H]c1c([H])c([H])c2c(c1[H])C([H])([H])C([H])([H])C([H])([H])C2([H])N([H])C(=O)C1([H])N(C(=O)C([H])(N([H])C(=O)C([H])(N([H])C([H])([H])[H])C([H])([H])[H])C(C([H])([H])[H])(C([H])([H])[H])C([H])([H])[H])C([H])([H])c2c([H])c(OC([H])([H])C([H])([H])c3c([H])c([H])c(N([H])C(=O)N4C([H])([H])C([H])([H])C([H])([H])C([H])(n5nc(-c6c([H])c([H])c(Oc7c([H])c([H])c(F)c([H])c7F)c([H])c6[H])c(C(=O)N([H])[H])c5N([H])[H])C4([H])[H])c([H])c3[H])c([H])c([H])c2C1([H])[H]

$$$$
52:0:0
     RDKit          3D

 99107  0  0  1  0  0  0  0  0999 V2000
  -35.6750  -20.0910   12.2050 C   0  0  0  0  0  3  0  0  0  0  0  0
  -36.4890  -20.2520   13.4160 C   0  0  0  0  0  3  0  0  0  0  0  0
  -34.8440  -18.0570   13.0500 C   0  0  0  0  0  3  0  0  0  0  0  0
  -35.6600  -18.1900   14.2370 C   0  0  0  0  0  0  0  0  0  0  0  0
  -34.7830  -18.9840   11.9640 C   0  0  0  0  0  0  0  0  0  0  0  0
  -36.5090  -19.3200   14.5170 C   0  0  0  0  0  0  0  0  0  0  0  0
  -32.4840  -19.2400   10.4190 C   0  0  0  0  0  0  0  0  0  0  0  0
  -30.3040  -18.4170    9.4220 C   0  0  0  0  0  2  0  0  0  0  0  0
  -29.8640  -17.1250   10.1530 C   0  0  0  0  0  2  0  0  0  0  0  0
  -30.5260  -15.8830    9.5260 C   0  0  0  0  0  2  0  0  0  0  0  0
  -32.0460  -16.0840    9.2960 C   0  0  0  0  0  3  0  0  0  0  0  0
  -32.3480  -17.4350    8.6140 C   0  0  0  0  0  2  0  0  0  0  0  0
  -31.7910  -18.4900    9.4730 N   0  0  0  0  0  0  0  0  0  0  0  0
  -31.9200  -20.2260   10.9080 O   0  0  0  0  0  0  0  0  0  0  0  0
  -33.7390  -18.7590   10.8630 N   0  0  0  0  0  0  0  0  0  0  0  0
  -34.0320  -18.0320   10.2280 H   0  0  0  0  0  0  0  0  0  0  0  0
  -32.9950  -14.8710    7.2490 C   0  0  0  0  0  0  0  0  0  0  0  0
  -33.5960  -13.6510    7.0990 C   0  0  0  0  0  0  0  0  0  0  0  0
  -33.5810  -13.0410    8.3910 C   0  0  0  0  0  0  0  0  0  0  0  0
  -32.6470  -14.9590    8.5860 N   0  0  0  0  0  0  0  0  0  0  0  0
  -32.9490  -13.8190    9.2610 N   0  0  0  0  0  0  0  0  0  0  0  0
  -34.1840  -11.7860    8.8590 C   0  0  0  0  0  0  0  0  0  0  0  0
  -35.5650  -11.6890    9.1400 C   0  0  0  0  0  3  0  0  0  0  0  0
  -36.1170  -10.4770    9.6080 C   0  0  0  0  0  3  0  0  0  0  0  0
  -35.2880   -9.3470    9.8020 C   0  0  0  0  0  0  0  0  0  0  0  0
  -33.9180   -9.4420    9.4990 C   0  0  0  0  0  3  0  0  0  0  0  0
  -33.3700  -10.6480    9.0290 C   0  0  0  0  0  3  0  0  0  0  0  0
  -35.7410   -8.1220   10.2280 O   0  0  0  0  0  0  0  0  0  0  0  0
  -35.4820   -6.9740    9.5250 C   0  0  0  0  0  0  0  0  0  0  0  0
  -36.0190   -6.7530    8.2380 C   0  0  0  0  0  3  0  0  0  0  0  0
  -35.7860   -5.5290    7.5780 C   0  0  0  0  0  3  0  0  0  0  0  0
  -35.0250   -4.5240    8.2060 C   0  0  0  0  0  0  0  0  0  0  0  0
  -34.4950   -4.7410    9.4900 C   0  0  0  0  0  3  0  0  0  0  0  0
  -34.7260   -5.9620   10.1480 C   0  0  0  0  0  0  0  0  0  0  0  0
  -34.2300   -6.1570   11.3940 F   0  0  0  0  0  0  0  0  0  0  0  0
  -34.8070   -3.3460    7.5760 F   0  0  0  0  0  0  0  0  0  0  0  0
  -34.2400  -13.1230    5.8490 C   0  0  0  0  0  0  0  0  0  0  0  0
  -33.8600  -11.9230    5.4260 N   0  0  0  0  0  0  0  0  0  0  0  0
  -35.0490  -13.7970    5.2120 O   0  0  0  0  0  0  0  0  0  0  0  0
  -33.1810  -11.3790    5.9370 H   0  0  0  0  0  0  0  0  0  0  0  0
  -34.2540  -11.5420    4.5760 H   0  0  0  0  0  0  0  0  0  0  0  0
  -32.7380  -15.9190    6.3700 N   0  0  0  0  0  0  0  0  0  0  0  0
  -33.0480  -15.8990    5.4050 H   0  0  0  0  0  0  0  0  0  0  0  0
  -32.3410  -16.8110    6.6360 H   0  0  0  0  0  0  0  0  0  0  0  0
  -35.6330  -17.0360   15.1570 C   0  0  0  0  0  3  0  0  0  0  0  0
  -34.5650  -16.2340   15.3480 C   0  0  0  0  0  3  0  0  0  0  0  0
  -34.6130  -15.1120   16.2670 C   0  0  0  0  0  0  0  0  0  0  0  0
  -35.4470  -14.1630   15.8300 N   0  0  0  0  0  0  0  0  0  0  0  0
  -33.9710  -15.0100   17.3150 O   0  0  0  0  0  0  0  0  0  0  0  0
  -35.9400  -14.3420   14.9650 H   0  0  0  0  0  0  0  0  0  0  0  0
  -35.6900  -12.8700   16.4660 C   0  0  0  0  0  2  0  0  0  0  0  0
  -36.7850  -12.9360   17.5520 C   0  0  0  0  0  2  0  0  0  0  0  0
  -38.9200  -11.6680   18.0580 C   0  0  0  0  0  1  0  0  0  0  0  0
  -36.9690  -10.4320   17.0410 C   0  0  0  0  0  1  0  0  0  0  0  0
  -37.3890  -11.5770   17.9760 C   0  0  0  0  0  3  0  0  0  0  0  0
  -37.1440  -19.3980   15.8380 O   0  0  0  0  0  0  0  0  0  0  0  0
  -37.9740  -18.4460   16.6990 C   0  0  0  0  0  3  0  0  0  0  0  0
  -38.6450  -17.0660   16.0020 C   0  0  0  0  0  3  0  0  0  0  0  0
  -39.8170  -16.1520   16.4690 O   0  0  0  0  0  0  0  0  0  0  0  0
  -41.5010  -14.0400    9.6050 C   0  0  0  0  0  0  0  0  0  0  0  0
  -40.7420  -15.5800   15.5220 C   0  0  0  0  0  0  0  0  0  0  0  0
  -42.7560  -13.0100   11.4600 C   0  0  0  0  0  3  0  0  0  0  0  0
  -42.5570  -14.1700   13.7420 C   0  0  0  0  0  0  0  0  0  0  0  0
  -41.8300  -15.3960   11.7050 C   0  0  0  0  0  2  0  0  0  0  0  0
  -41.7260  -15.1690   13.2210 C   0  0  0  0  0  0  0  0  0  0  0  0
  -40.8360  -15.8840   14.1050 C   0  0  0  0  0  3  0  0  0  0  0  0
  -41.6680  -14.6160   15.9780 C   0  0  0  0  0  3  0  0  0  0  0  0
  -42.5400  -13.9140   15.1200 C   0  0  0  0  0  3  0  0  0  0  0  0
  -43.4560  -13.4010   12.7880 C   0  0  0  0  0  2  0  0  0  0  0  0
  -41.9850  -14.1560   10.8790 N   0  0  0  0  0  0  0  0  0  0  0  0
  -41.7000  -13.0210    8.9270 O   0  0  0  0  0  0  0  0  0  0  0  0
  -41.8910  -11.7460   11.6930 C   0  0  0  0  0  0  0  0  0  0  0  0
  -41.4260  -11.1100   10.6020 N   0  0  0  0  0  0  0  0  0  0  0  0
  -41.6680  -11.3420   12.8390 O   0  0  0  0  0  0  0  0  0  0  0  0
  -41.6390  -11.5070    9.6980 H   0  0  0  0  0  0  0  0  0  0  0  0
  -41.0580   -7.8670   12.1730 C   0  0  0  0  0  0  0  0  0  0  0  0
  -40.6360   -9.8760   10.5990 C   0  0  0  0  0  3  0  0  0  0  0  0
  -39.3050  -10.0630   11.3660 C   0  0  0  0  0  2  0  0  0  0  0  0
  -39.3960   -9.6560   12.8400 C   0  0  0  0  0  2  0  0  0  0  0  0
  -39.8010   -8.1850   12.9660 C   0  0  0  0  0  2  0  0  0  0  0  0
  -41.4590   -8.6700   11.0720 C   0  0  0  0  0  0  0  0  0  0  0  0
  -42.6510   -8.3500   10.3890 C   0  0  0  0  0  3  0  0  0  0  0  0
  -43.4360   -7.2510   10.7870 C   0  0  0  0  0  3  0  0  0  0  0  0
  -43.0270   -6.4510   11.8680 C   0  0  0  0  0  3  0  0  0  0  0  0
  -41.8400   -6.7560   12.5560 C   0  0  0  0  0  3  0  0  0  0  0  0
  -40.6910  -15.1900    8.9330 C   0  0  0  0  0  3  0  0  0  0  0  0
  -41.1880  -15.3420    7.5570 N   0  0  0  0  0  0  0  0  0  0  0  0
  -41.6670  -16.4820    7.0380 C   0  0  0  0  0  0  0  0  0  0  0  0
  -41.6750  -17.5470    7.6620 O   0  0  0  0  0  0  0  0  0  0  0  0
  -41.2590  -14.4990    7.0060 H   0  0  0  0  0  0  0  0  0  0  0  0
  -43.1740  -17.6200    5.3750 C   0  0  0  0  0  1  0  0  0  0  0  0
  -42.2230  -16.4340    5.6010 C   0  0  0  0  0  3  0  0  0  0  0  0
  -40.6500  -15.1080    4.2600 C   0  0  0  0  0  1  0  0  0  0  0  0
  -41.1710  -16.4390    4.5620 N   0  0  0  0  0  0  0  0  0  0  0  0
  -41.5190  -16.8460    3.6980 H   0  0  0  0  0  0  0  0  0  0  0  0
  -39.1330  -14.9280    8.9290 C   0  0  1  0  0  0  0  0  0  0  0  0
  -38.7500  -13.4520    8.6740 C   0  0  0  0  0  1  0  0  0  0  0  0
  -38.5010  -15.3520   10.2740 C   0  0  0  0  0  1  0  0  0  0  0  0
  -38.4610  -15.7910    7.8330 C   0  0  0  0  0  1  0  0  0  0  0  0
  1  2  1  0
  2  6  2  0
  3  4  2  0
  4  6  1  0
  4 45  1  0
  5  1  2  0
  5  3  1  0
  6 56  1  0
  7 15  1  0
  7 14  2  0
  8 13  1  0
  8  9  1  0
 10  9  1  0
 11 20  1  0
 11 10  1  0
 12 11  1  0
 12 13  1  0
 13  7  1  0
 15  5  1  0
 16 15  1  0
 17 20  1  0
 18 17  2  0
 18 19  1  0
 19 22  1  0
 19 21  2  0
 20 21  1  0
 22 27  2  0
 22 23  1  0
 23 24  2  0
 24 25  1  0
 25 28  1  0
 26 25  2  0
 27 26  1  0
 29 34  1  0
 29 28  1  0
 30 29  2  0
 31 32  2  0
 31 30  1  0
 32 33  1  0
 33 34  2  0
 34 35  1  0
 36 32  1  0
 37 18  1  0
 38 37  1  0
 38 40  1  0
 39 37  2  0
 41 38  1  0
 42 44  1  0
 42 17  1  0
 43 42  1  0
 45 46  2  0
 46 47  1  0
 47 49  2  0
 48 47  1  0
 48 51  1  0
 50 48  1  0
 51 52  1  0
 52 55  1  0
 54 55  1  0
 55 53  1  0
 56 57  1  0
 58 59  1  0
 58 57  2  0
 60 70  1  0
 61 67  1  0
 61 59  1  0
 62 72  1  0
 62 69  1  0
 63 68  1  0
 64 65  1  0
 65 63  2  0
 65 66  1  0
 66 61  2  0
 68 67  2  0
 69 63  1  0
 70 62  1  0
 70 64  1  0
 71 60  2  0
 72 74  2  0
 73 72  1  0
 75 73  1  0
 76 85  1  0
 76 80  1  0
 77 73  1  0
 77 81  1  0
 77 78  1  0
 78 79  1  0
 79 80  1  0
 81 76  2  0
 82 83  2  0
 82 81  1  0
 83 84  1  0
 84 85  2  0
 86 60  1  0
 87 86  1  0
 88 87  1  0
 88 89  2  0
 90 87  1  0
 92 91  1  0
 92 88  1  0
 93 94  1  0
 94 92  1  0
 95 94  1  0
 96 86  1  0
 96 98  1  1
 97 96  1  0
 99 96  1  0
M  ISO  4   7 100  15 100  58 101  59 101
M  END
>  <TORSDO>  (53) 
F 24

>  <SCORE>  (53) 
-1.257

>  <name>  (53) 
52

>  <ligand_id>  (53) 
52

>  <original_smiles>  (53) 
[H]C(C(=O)N([H])C([H])([H])C([H])([H])C([H])(C([H])([H])[H])C([H])([H])[H])=C([H])c1c([H])c(N([H])C(=O)N2C([H])([H])C([H])([H])C([H])([H])C([H])(n3nc(-c4c([H])c([H])c(Oc5c([H])c([H])c(F)c([H])c5F)c([H])c4[H])c(C(=O)N([H])[H])c3N([H])[H])C2([H])[H])c([H])c([H])c1OC([H])([H])C([H])([H])Oc1c([H])c([H])c2c(c1[H])C([H])([H])N(C(=O)C([H])(N([H])C(=O)C([H])(N([H])C([H])([H])[H])C([H])([H])[H])C(C([H])([H])[H])(C([H])([H])[H])C([H])([H])[H])C([H])(C(=O)N([H])C1([H])c3c([H])c([H])c([H])c([H])c3C([H])([H])C([H])([H])C1([H])[H])C2([H])[H]

>  <smiles>  (53) 
[H]C(C(=O)N([H])C([H])([H])C([H])([H])C([H])(C([H])([H])[H])C([H])([H])[H])=C([H])c1c([H])c(N([H])C(=O)N2C([H])([H])C([H])([H])C([H])([H])C([H])(n3nc(-c4c([H])c([H])c(Oc5c([H])c([H])c(F)c([H])c5F)c([H])c4[H])c(C(=O)N([H])[H])c3N([H])[H])C2([H])[H])c([H])c([H])c1OC([H])([H])C([H])([H])Oc1c([H])c([H])c2c(c1[H])C([H])([H])N(C(=O)C([H])(N([H])C(=O)C([H])(N([H])C([H])([H])[H])C([H])([H])[H])C(C([H])([H])[H])(C([H])([H])[H])C([H])([H])[H])C([H])(C(=O)N([H])C1([H])c3c([H])c([H])c([H])c([H])c3C([H])([H])C([H])([H])C1([H])[H])C2([H])[H]

$$$$
53:0:0
     RDKit          3D

 92100  0  0  1  0  0  0  0  0999 V2000
  -30.8840  -18.6190   19.5650 C   0  0  0  0  0  3  0  0  0  0  0  0
  -30.6010  -19.9660   19.0620 C   0  0  0  0  0  3  0  0  0  0  0  0
  -28.5980  -18.1020   19.3690 C   0  0  0  0  0  3  0  0  0  0  0  0
  -28.2800  -19.4350   18.8750 C   0  0  0  0  0  0  0  0  0  0  0  0
  -29.8860  -17.5950   19.7250 C   0  0  0  0  0  0  0  0  0  0  0  0
  -29.2980  -20.4440   18.6670 C   0  0  0  0  0  0  0  0  0  0  0  0
  -30.8700  -15.0170   20.1270 C   0  0  0  0  0  0  0  0  0  0  0  0
  -30.8600  -12.5210   19.6780 C   0  0  0  0  0  2  0  0  0  0  0  0
  -29.9990  -12.2330   18.4240 C   0  0  0  0  0  2  0  0  0  0  0  0
  -28.5090  -12.0980   18.7970 C   0  0  0  0  0  2  0  0  0  0  0  0
  -28.0330  -13.2300   19.7440 C   0  0  0  0  0  3  0  0  0  0  0  0
  -29.0150  -13.4450   20.9160 C   0  0  0  0  0  2  0  0  0  0  0  0
  -30.3290  -13.7500   20.3300 N   0  0  0  0  0  0  0  0  0  0  0  0
  -32.0680  -15.0990   19.8290 O   0  0  0  0  0  0  0  0  0  0  0  0
  -29.9850  -16.1210   20.1390 N   0  0  0  0  0  0  0  0  0  0  0  0
  -29.1040  -15.7910   20.5000 H   0  0  0  0  0  0  0  0  0  0  0  0
  -25.6650  -13.9690   20.3860 C   0  0  0  0  0  0  0  0  0  0  0  0
  -24.5470  -13.2670   20.7430 C   0  0  0  0  0  0  0  0  0  0  0  0
  -24.9320  -11.8920   20.7600 C   0  0  0  0  0  0  0  0  0  0  0  0
  -26.6620  -13.0270   20.2010 N   0  0  0  0  0  0  0  0  0  0  0  0
  -26.2270  -11.7730   20.4910 N   0  0  0  0  0  0  0  0  0  0  0  0
  -24.1290  -10.6780   20.9590 C   0  0  0  0  0  0  0  0  0  0  0  0
  -24.5190   -9.6750   21.8730 C   0  0  0  0  0  3  0  0  0  0  0  0
  -23.7190   -8.5260   22.0610 C   0  0  0  0  0  3  0  0  0  0  0  0
  -22.5130   -8.3750   21.3360 C   0  0  0  0  0  0  0  0  0  0  0  0
  -22.1410   -9.3660   20.4110 C   0  0  0  0  0  3  0  0  0  0  0  0
  -22.9410  -10.5060   20.2210 C   0  0  0  0  0  3  0  0  0  0  0  0
  -21.6870   -7.2820   21.4350 O   0  0  0  0  0  0  0  0  0  0  0  0
  -21.6830   -6.4820   22.5490 C   0  0  0  0  0  0  0  0  0  0  0  0
  -21.4170   -6.9970   23.8360 C   0  0  0  0  0  3  0  0  0  0  0  0
  -21.3520   -6.1280   24.9430 C   0  0  0  0  0  3  0  0  0  0  0  0
  -21.5430   -4.7450   24.7650 C   0  0  0  0  0  0  0  0  0  0  0  0
  -21.8020   -4.2290   23.4840 C   0  0  0  0  0  3  0  0  0  0  0  0
  -21.8680   -5.0950   22.3780 C   0  0  0  0  0  0  0  0  0  0  0  0
  -22.0970   -4.5890   21.1420 F   0  0  0  0  0  0  0  0  0  0  0  0
  -21.4730   -3.9090   25.8280 F   0  0  0  0  0  0  0  0  0  0  0  0
  -23.1720  -13.8300   20.9570 C   0  0  0  0  0  0  0  0  0  0  0  0
  -22.3980  -13.2350   21.8570 N   0  0  0  0  0  0  0  0  0  0  0  0
  -22.7930  -14.8360   20.3570 O   0  0  0  0  0  0  0  0  0  0  0  0
  -22.7170  -12.4220   22.3640 H   0  0  0  0  0  0  0  0  0  0  0  0
  -21.4750  -13.5980   22.0440 H   0  0  0  0  0  0  0  0  0  0  0  0
  -25.9100  -15.3230   20.1770 N   0  0  0  0  0  0  0  0  0  0  0  0
  -25.1680  -16.0110   20.2300 H   0  0  0  0  0  0  0  0  0  0  0  0
  -26.7700  -15.6990   19.7980 H   0  0  0  0  0  0  0  0  0  0  0  0
  -25.7960  -18.6670   18.9810 C   0  0  0  0  0  1  0  0  0  0  0  0
  -26.6100  -19.9360   17.0190 C   0  0  0  0  0  1  0  0  0  0  0  0
  -26.3300  -21.0480   19.2780 C   0  0  0  0  0  1  0  0  0  0  0  0
  -26.7940  -19.7680   18.5430 C   0  0  2  0  0  0  0  0  0  0  0  0
  -28.9560  -21.6820   17.9600 O   0  0  0  0  0  0  0  0  0  0  0  0
  -29.4980  -23.1140   17.9720 C   0  0  0  0  0  3  0  0  0  0  0  0
  -28.4310  -24.4100   17.7910 C   0  0  0  0  0  3  0  0  0  0  0  0
  -28.6260  -25.9360   18.0250 O   0  0  0  0  0  0  0  0  0  0  0  0
  -24.9960  -30.3430   22.6820 C   0  0  0  0  0  0  0  0  0  0  0  0
  -27.5060  -26.7980   18.3100 C   0  0  0  0  0  0  0  0  0  0  0  0
  -23.7070  -29.3040   20.8540 C   0  0  0  0  0  3  0  0  0  0  0  0
  -25.0820  -28.2730   18.9440 C   0  0  0  0  0  0  0  0  0  0  0  0
  -26.2040  -29.8290   20.5280 C   0  0  0  0  0  2  0  0  0  0  0  0
  -26.2910  -28.6580   19.5360 C   0  0  0  0  0  0  0  0  0  0  0  0
  -27.5020  -27.9410   19.2070 C   0  0  0  0  0  3  0  0  0  0  0  0
  -26.2570  -26.5160   17.7120 C   0  0  0  0  0  3  0  0  0  0  0  0
  -25.0740  -27.2200   18.0200 C   0  0  0  0  0  3  0  0  0  0  0  0
  -23.8140  -29.0170   19.3320 C   0  0  0  0  0  2  0  0  0  0  0  0
  -24.9940  -29.8340   21.4110 N   0  0  0  0  0  0  0  0  0  0  0  0
  -23.9600  -30.3880   23.3630 O   0  0  0  0  0  0  0  0  0  0  0  0
  -23.2050  -28.0310   21.5790 C   0  0  0  0  0  0  0  0  0  0  0  0
  -21.9140  -27.6950   21.4040 N   0  0  0  0  0  0  0  0  0  0  0  0
  -23.9770  -27.3560   22.2640 O   0  0  0  0  0  0  0  0  0  0  0  0
  -21.3390  -28.3050   20.8400 H   0  0  0  0  0  0  0  0  0  0  0  0
  -18.8220  -25.8070   21.4190 C   0  0  0  0  0  0  0  0  0  0  0  0
  -21.2520  -26.5100   21.9570 C   0  0  0  0  0  3  0  0  0  0  0  0
  -21.6780  -25.2310   21.2000 C   0  0  0  0  0  2  0  0  0  0  0  0
  -20.7310  -24.8660   20.0530 C   0  0  0  0  0  2  0  0  0  0  0  0
  -19.3120  -24.6400   20.5800 C   0  0  0  0  0  2  0  0  0  0  0  0
  -19.7330  -26.6940   22.0530 C   0  0  0  0  0  0  0  0  0  0  0  0
  -19.2230  -27.7820   22.7950 C   0  0  0  0  0  3  0  0  0  0  0  0
  -17.8360  -27.9890   22.9110 C   0  0  0  0  0  3  0  0  0  0  0  0
  -16.9390  -27.1020   22.2920 C   0  0  0  0  0  3  0  0  0  0  0  0
  -17.4330  -26.0110   21.5530 C   0  0  0  0  0  3  0  0  0  0  0  0
  -26.2950  -30.9090   23.3310 C   0  0  0  0  0  3  0  0  0  0  0  0
  -26.9590  -29.9110   24.3580 C   0  0  1  0  0  0  0  0  0  0  0  0
  -25.9830  -29.3840   25.4360 C   0  0  0  0  0  1  0  0  0  0  0  0
  -27.5550  -28.6860   23.6280 C   0  0  0  0  0  1  0  0  0  0  0  0
  -28.1350  -30.6090   25.0800 C   0  0  0  0  0  1  0  0  0  0  0  0
  -25.9470  -32.1740   23.9990 N   0  0  0  0  0  0  0  0  0  0  0  0
  -26.3110  -33.3890   23.5680 C   0  0  0  0  0  0  0  0  0  0  0  0
  -27.0410  -33.5590   22.5880 O   0  0  0  0  0  0  0  0  0  0  0  0
  -25.3070  -32.1130   24.7760 H   0  0  0  0  0  0  0  0  0  0  0  0
  -24.6460  -35.2750   23.5590 C   0  0  0  0  0  1  0  0  0  0  0  0
  -25.7850  -34.6110   24.3480 C   0  0  0  0  0  3  0  0  0  0  0  0
  -27.8160  -35.1460   25.6210 C   0  0  0  0  0  1  0  0  0  0  0  0
  -26.8310  -35.6140   24.6500 N   0  0  0  0  0  0  0  0  0  0  0  0
  -26.4160  -36.4700   25.0060 H   0  0  0  0  0  0  0  0  0  0  0  0
  1  5  1  0
  2  1  2  0
  3  5  2  0
  4  3  1  0
  5 15  1  0
  6  4  2  0
  6  2  1  0
  7 15  1  0
  7 13  1  0
  8 13  1  0
  9 10  1  0
  9  8  1  0
 11 10  1  0
 11 20  1  0
 11 12  1  0
 13 12  1  0
 14  7  2  0
 15 16  1  0
 17 18  2  0
 18 19  1  0
 18 37  1  0
 19 22  1  0
 20 17  1  0
 20 21  1  0
 21 19  2  0
 22 23  1  0
 23 24  2  0
 25 28  1  0
 25 24  1  0
 26 25  2  0
 27 26  1  0
 27 22  2  0
 28 29  1  0
 29 30  1  0
 30 31  2  0
 32 31  1  0
 32 36  1  0
 33 32  2  0
 34 29  2  0
 34 33  1  0
 35 34  1  0
 37 38  1  0
 38 41  1  0
 38 40  1  0
 39 37  2  0
 42 43  1  0
 42 17  1  0
 44 42  1  0
 48 46  1  6
 48  4  1  0
 48 45  1  0
 48 47  1  0
 49 50  1  0
 49  6  1  0
 51 50  2  0
 51 52  1  0
 52 54  1  0
 53 64  2  0
 54 59  1  0
 55 63  1  0
 55 65  1  0
 56 62  1  0
 56 58  1  0
 57 63  1  0
 58 57  1  0
 59 58  2  0
 60 61  1  0
 60 54  2  0
 61 56  2  0
 62 55  1  0
 63 53  1  0
 65 67  2  0
 66 65  1  0
 68 66  1  0
 69 78  2  0
 69 74  1  0
 70 66  1  0
 70 74  1  0
 71 70  1  0
 72 73  1  0
 72 71  1  0
 73 69  1  0
 74 75  2  0
 75 76  1  0
 77 76  2  0
 78 77  1  0
 79 53  1  0
 79 84  1  0
 79 80  1  0
 80 83  1  1
 80 81  1  0
 82 80  1  0
 84 87  1  0
 85 84  1  0
 85 89  1  0
 86 85  2  0
 89 88  1  0
 89 91  1  0
 91 92  1  0
 91 90  1  0
M  ISO  4   7 100  15 100  51 101  52 101
M  END
>  <TORSDO>  (54) 
F 20

>  <SCORE>  (54) 
-9.466

>  <name>  (54) 
53

>  <ligand_id>  (54) 
53

>  <original_smiles>  (54) 
[H]c1c([H])c([H])c2c(c1[H])C([H])([H])C([H])([H])C([H])([H])C2([H])N([H])C(=O)C1([H])N(C(=O)C([H])(N([H])C(=O)C([H])(N([H])C([H])([H])[H])C([H])([H])[H])C(C([H])([H])[H])(C([H])([H])[H])C([H])([H])[H])C([H])([H])c2c([H])c(OC([H])([H])C([H])([H])Oc3c([H])c([H])c(N([H])C(=O)N4C([H])([H])C([H])([H])C([H])([H])C([H])(n5nc(-c6c([H])c([H])c(Oc7c([H])c([H])c(F)c([H])c7F)c([H])c6[H])c(C(=O)N([H])[H])c5N([H])[H])C4([H])[H])c([H])c3C(C([H])([H])[H])(C([H])([H])[H])C([H])([H])[H])c([H])c([H])c2C1([H])[H]

>  <smiles>  (54) 
[H]c1c([H])c([H])c2c(c1[H])C([H])([H])C([H])([H])C([H])([H])C2([H])N([H])C(=O)C1([H])N(C(=O)C([H])(N([H])C(=O)C([H])(N([H])C([H])([H])[H])C([H])([H])[H])C(C([H])([H])[H])(C([H])([H])[H])C([H])([H])[H])C([H])([H])c2c([H])c(OC([H])([H])C([H])([H])Oc3c([H])c([H])c(N([H])C(=O)N4C([H])([H])C([H])([H])C([H])([H])C([H])(n5nc(-c6c([H])c([H])c(Oc7c([H])c([H])c(F)c([H])c7F)c([H])c6[H])c(C(=O)N([H])[H])c5N([H])[H])C4([H])[H])c([H])c3C(C([H])([H])[H])(C([H])([H])[H])C([H])([H])[H])c([H])c([H])c2C1([H])[H]

$$$$
54:0:0
     RDKit          3D

 88 96  0  0  1  0  0  0  0  0999 V2000
  -29.8350  -22.3690   20.0930 C   0  0  0  0  0  3  0  0  0  0  0  0
  -27.7520  -21.6140   20.6940 C   0  0  0  0  0  3  0  0  0  0  0  0
  -30.2760  -20.9480   20.0280 C   0  0  0  0  0  3  0  0  0  0  0  0
  -28.1880  -20.1970   20.6290 C   0  0  0  0  0  3  0  0  0  0  0  0
  -28.5080  -22.8460   20.4360 C   0  0  0  0  0  0  0  0  0  0  0  0
  -29.5110  -19.7240   20.2850 C   0  0  0  0  0  0  0  0  0  0  0  0
  -27.7670  -24.3790   20.5860 C   0  0  0  0  0  0  0  0  0  0  0  0
  -26.6210  -24.2740   21.0330 O   0  0  0  0  0  0  0  0  0  0  0  0
  -28.2030  -25.9460   20.2910 O   0  0  0  0  0  0  0  0  0  0  0  0
  -24.6650  -31.9140   23.2540 C   0  0  0  0  0  0  0  0  0  0  0  0
  -27.2370  -27.0750   20.2380 C   0  0  0  0  0  0  0  0  0  0  0  0
  -23.4780  -30.5190   21.6100 C   0  0  0  0  0  3  0  0  0  0  0  0
  -24.9360  -28.9340   20.1870 C   0  0  0  0  0  0  0  0  0  0  0  0
  -26.0450  -30.7430   21.4740 C   0  0  0  0  0  2  0  0  0  0  0  0
  -26.1190  -29.3380   20.8200 C   0  0  0  0  0  0  0  0  0  0  0  0
  -27.2660  -28.4250   20.8340 C   0  0  0  0  0  3  0  0  0  0  0  0
  -26.0320  -26.8360   19.5340 C   0  0  0  0  0  3  0  0  0  0  0  0
  -24.9140  -27.7000   19.5260 C   0  0  0  0  0  3  0  0  0  0  0  0
  -23.7140  -29.8470   20.2320 C   0  0  0  0  0  2  0  0  0  0  0  0
  -24.7500  -31.0840   22.1660 N   0  0  0  0  0  0  0  0  0  0  0  0
  -23.5730  -32.1990   23.7720 O   0  0  0  0  0  0  0  0  0  0  0  0
  -22.7880  -29.5130   22.5690 C   0  0  0  0  0  0  0  0  0  0  0  0
  -21.4590  -29.3420   22.4390 N   0  0  0  0  0  0  0  0  0  0  0  0
  -23.4530  -28.8900   23.4010 O   0  0  0  0  0  0  0  0  0  0  0  0
  -20.9740  -29.8990   21.7480 H   0  0  0  0  0  0  0  0  0  0  0  0
  -18.0780  -28.1240   22.9380 C   0  0  0  0  0  0  0  0  0  0  0  0
  -20.6370  -28.4000   23.2070 C   0  0  0  0  0  3  0  0  0  0  0  0
  -20.7440  -26.9690   22.6330 C   0  0  0  0  0  2  0  0  0  0  0  0
  -19.6450  -26.6410   21.6170 C   0  0  0  0  0  2  0  0  0  0  0  0
  -18.2620  -26.7780   22.2600 C   0  0  0  0  0  2  0  0  0  0  0  0
  -19.1930  -28.8930   23.3710 C   0  0  0  0  0  0  0  0  0  0  0  0
  -18.9650  -30.1510   23.9700 C   0  0  0  0  0  3  0  0  0  0  0  0
  -17.6570  -30.6410   24.1390 C   0  0  0  0  0  3  0  0  0  0  0  0
  -16.5580  -29.8720   23.7210 C   0  0  0  0  0  3  0  0  0  0  0  0
  -16.7690  -28.6140   23.1280 C   0  0  0  0  0  3  0  0  0  0  0  0
  -25.9340  -32.5590   23.8870 C   0  0  0  0  0  3  0  0  0  0  0  0
  -25.6130  -33.9580   24.2170 N   0  0  0  0  0  0  0  0  0  0  0  0
  -25.9150  -35.0160   23.4520 C   0  0  0  0  0  0  0  0  0  0  0  0
  -26.5590  -34.9170   22.4050 O   0  0  0  0  0  0  0  0  0  0  0  0
  -25.0380  -34.1070   25.0330 H   0  0  0  0  0  0  0  0  0  0  0  0
  -24.1550  -36.7930   23.1600 C   0  0  0  0  0  1  0  0  0  0  0  0
  -25.4300  -36.4020   23.9230 C   0  0  0  0  0  3  0  0  0  0  0  0
  -27.5820  -37.3230   24.6710 C   0  0  0  0  0  1  0  0  0  0  0  0
  -26.4450  -37.4680   23.7660 N   0  0  0  0  0  0  0  0  0  0  0  0
  -26.0320  -38.3830   23.9240 H   0  0  0  0  0  0  0  0  0  0  0  0
  -26.4350  -31.7980   25.1770 C   0  0  1  0  0  0  0  0  0  0  0  0
  -25.3300  -31.5660   26.2340 C   0  0  0  0  0  1  0  0  0  0  0  0
  -27.0290  -30.4180   24.8110 C   0  0  0  0  0  1  0  0  0  0  0  0
  -27.5750  -32.6020   25.8480 C   0  0  0  0  0  1  0  0  0  0  0  0
  -30.2090  -18.1350   20.1960 C   0  0  0  0  0  2  0  0  0  0  0  0
  -30.4660  -15.2870   20.1210 C   0  0  0  0  0  0  0  0  0  0  0  0
  -30.3520  -12.8860   19.1820 C   0  0  0  0  0  2  0  0  0  0  0  0
  -29.3810  -12.7440   17.9830 C   0  0  0  0  0  2  0  0  0  0  0  0
  -27.9500  -12.4770   18.4790 C   0  0  0  0  0  2  0  0  0  0  0  0
  -27.5550  -13.4150   19.6470 C   0  0  0  0  0  3  0  0  0  0  0  0
  -28.6490  -13.5190   20.7310 C   0  0  0  0  0  2  0  0  0  0  0  0
  -29.8640  -14.0050   20.0620 N   0  0  0  0  0  0  0  0  0  0  0  0
  -31.6690  -15.2810   19.8340 O   0  0  0  0  0  0  0  0  0  0  0  0
  -29.7500  -16.5600   20.2940 N   0  0  0  0  0  0  0  0  0  0  0  0
  -28.7670  -16.4370   20.4840 H   0  0  0  0  0  0  0  0  0  0  0  0
  -25.2170  -13.9600   20.5110 C   0  0  0  0  0  0  0  0  0  0  0  0
  -24.1690  -13.1750   20.9020 C   0  0  0  0  0  0  0  0  0  0  0  0
  -24.6300  -11.8260   20.8160 C   0  0  0  0  0  0  0  0  0  0  0  0
  -26.2470  -13.0910   20.2020 N   0  0  0  0  0  0  0  0  0  0  0  0
  -25.9090  -11.7990   20.4530 N   0  0  0  0  0  0  0  0  0  0  0  0
  -23.9090  -10.5600   20.9980 C   0  0  0  0  0  0  0  0  0  0  0  0
  -24.3450   -9.5850   21.9230 C   0  0  0  0  0  3  0  0  0  0  0  0
  -23.6190   -8.3870   22.0970 C   0  0  0  0  0  3  0  0  0  0  0  0
  -22.4430   -8.1530   21.3450 C   0  0  0  0  0  0  0  0  0  0  0  0
  -22.0260   -9.1160   20.4100 C   0  0  0  0  0  3  0  0  0  0  0  0
  -22.7520  -10.3060   20.2340 C   0  0  0  0  0  3  0  0  0  0  0  0
  -21.6890   -7.0080   21.4280 O   0  0  0  0  0  0  0  0  0  0  0  0
  -21.6060   -6.2830   22.5910 C   0  0  0  0  0  0  0  0  0  0  0  0
  -21.1030   -6.8460   23.7840 C   0  0  0  0  0  3  0  0  0  0  0  0
  -20.9690   -6.0470   24.9370 C   0  0  0  0  0  3  0  0  0  0  0  0
  -21.3280   -4.6870   24.8980 C   0  0  0  0  0  0  0  0  0  0  0  0
  -21.8250   -4.1240   23.7090 C   0  0  0  0  0  3  0  0  0  0  0  0
  -21.9600   -4.9200   22.5570 C   0  0  0  0  0  0  0  0  0  0  0  0
  -22.4190   -4.3680   21.4090 F   0  0  0  0  0  0  0  0  0  0  0  0
  -21.1930   -3.9170   26.0020 F   0  0  0  0  0  0  0  0  0  0  0  0
  -22.7840  -13.6460   21.2380 C   0  0  0  0  0  0  0  0  0  0  0  0
  -22.0890  -12.9300   22.1130 N   0  0  0  0  0  0  0  0  0  0  0  0
  -22.3300  -14.6850   20.7600 O   0  0  0  0  0  0  0  0  0  0  0  0
  -22.4720  -12.0890   22.5200 H   0  0  0  0  0  0  0  0  0  0  0  0
  -21.1620  -13.2250   22.3810 H   0  0  0  0  0  0  0  0  0  0  0  0
  -25.3730  -15.3350   20.3630 N   0  0  0  0  0  0  0  0  0  0  0  0
  -24.6060  -15.9820   20.5130 H   0  0  0  0  0  0  0  0  0  0  0  0
  -26.1950  -15.7820   19.9780 H   0  0  0  0  0  0  0  0  0  0  0  0
  1  5  1  0
  3  1  2  0
  3  6  1  0
  4  2  1  0
  5  7  1  0
  5  2  2  0
  6  4  2  0
  7  8  2  0
  9  7  1  0
 10 21  2  0
 11  9  1  0
 11 16  1  0
 12 20  1  0
 12 22  1  0
 13 19  1  0
 13 15  1  0
 14 20  1  0
 15 16  2  0
 15 14  1  0
 17 11  2  0
 18 17  1  0
 18 13  2  0
 19 12  1  0
 20 10  1  0
 22 24  2  0
 23 22  1  0
 25 23  1  0
 26 35  2  0
 26 31  1  0
 27 23  1  0
 27 31  1  0
 28 27  1  0
 29 30  1  0
 29 28  1  0
 30 26  1  0
 31 32  2  0
 32 33  1  0
 34 33  2  0
 35 34  1  0
 36 10  1  0
 36 37  1  0
 36 46  1  0
 37 40  1  0
 38 42  1  0
 38 37  1  0
 39 38  2  0
 42 41  1  0
 44 42  1  0
 44 45  1  0
 44 43  1  0
 46 49  1  1
 46 47  1  0
 48 46  1  0
 50  6  1  0
 50 59  1  0
 51 59  1  0
 52 57  1  0
 53 54  1  0
 53 52  1  0
 55 54  1  0
 55 64  1  0
 55 56  1  0
 57 51  1  0
 57 56  1  0
 58 51  2  0
 59 60  1  0
 61 62  2  0
 62 81  1  0
 63 62  1  0
 63 66  1  0
 64 65  1  0
 64 61  1  0
 65 63  2  0
 66 67  1  0
 67 68  2  0
 69 72  1  0
 69 68  1  0
 70 69  2  0
 71 70  1  0
 71 66  2  0
 72 73  1  0
 73 74  1  0
 74 75  2  0
 76 75  1  0
 76 80  1  0
 77 76  2  0
 78 73  2  0
 78 77  1  0
 79 78  1  0
 81 82  1  0
 82 85  1  0
 82 84  1  0
 83 81  2  0
 86 61  1  0
 86 87  1  0
 88 86  1  0
M  ISO  4   7 101   9 101  51 100  59 100
M  END
>  <TORSDO>  (55) 
F 18

>  <SCORE>  (55) 
-16.310

>  <name>  (55) 
54

>  <ligand_id>  (55) 
54

>  <original_smiles>  (55) 
[H]c1c([H])c([H])c2c(c1[H])C([H])([H])C([H])([H])C([H])([H])C2([H])N([H])C(=O)C1([H])N(C(=O)C([H])(N([H])C(=O)C([H])(N([H])C([H])([H])[H])C([H])([H])[H])C(C([H])([H])[H])(C([H])([H])[H])C([H])([H])[H])C([H])([H])c2c([H])c(OC(=O)c3c([H])c([H])c(C([H])([H])N([H])C(=O)N4C([H])([H])C([H])([H])C([H])([H])C([H])(n5nc(-c6c([H])c([H])c(Oc7c([H])c([H])c(F)c([H])c7F)c([H])c6[H])c(C(=O)N([H])[H])c5N([H])[H])C4([H])[H])c([H])c3[H])c([H])c([H])c2C1([H])[H]

>  <smiles>  (55) 
[H]c1c([H])c([H])c2c(c1[H])C([H])([H])C([H])([H])C([H])([H])C2([H])N([H])C(=O)C1([H])N(C(=O)C([H])(N([H])C(=O)C([H])(N([H])C([H])([H])[H])C([H])([H])[H])C(C([H])([H])[H])(C([H])([H])[H])C([H])([H])[H])C([H])([H])c2c([H])c(OC(=O)c3c([H])c([H])c(C([H])([H])N([H])C(=O)N4C([H])([H])C([H])([H])C([H])([H])C([H])(n5nc(-c6c([H])c([H])c(Oc7c([H])c([H])c(F)c([H])c7F)c([H])c6[H])c(C(=O)N([H])[H])c5N([H])[H])C4([H])[H])c([H])c3[H])c([H])c([H])c2C1([H])[H]

$$$$
55:0:0
     RDKit          3D

 96104  0  0  1  0  0  0  0  0999 V2000
  -29.9910  -19.7340   21.1380 C   0  0  0  0  0  3  0  0  0  0  0  0
  -30.4580  -18.7450   22.0120 C   0  0  0  0  0  3  0  0  0  0  0  0
  -29.8480  -18.0700   19.3740 C   0  0  0  0  0  3  0  0  0  0  0  0
  -29.6480  -19.4260   19.8110 C   0  0  0  0  0  0  0  0  0  0  0  0
  -30.5890  -17.3860   21.6260 C   0  0  0  0  0  0  0  0  0  0  0  0
  -30.2980  -17.0330   20.2600 C   0  0  0  0  0  0  0  0  0  0  0  0
  -30.9660  -14.7120   19.2070 C   0  0  0  0  0  0  0  0  0  0  0  0
  -30.6180  -12.4960   18.0940 C   0  0  0  0  0  2  0  0  0  0  0  0
  -29.4790  -12.6200   17.0520 C   0  0  0  0  0  2  0  0  0  0  0  0
  -28.0830  -12.5080   17.7050 C   0  0  0  0  0  2  0  0  0  0  0  0
  -27.9510  -13.3840   18.9790 C   0  0  0  0  0  3  0  0  0  0  0  0
  -29.1500  -13.1120   19.9080 C   0  0  0  0  0  2  0  0  0  0  0  0
  -30.3720  -13.4780   19.1660 N   0  0  0  0  0  0  0  0  0  0  0  0
  -32.0070  -14.9580   18.5810 O   0  0  0  0  0  0  0  0  0  0  0  0
  -30.2240  -15.6270   19.9040 N   0  0  0  0  0  0  0  0  0  0  0  0
  -29.4860  -15.1550   20.4000 H   0  0  0  0  0  0  0  0  0  0  0  0
  -25.7580  -14.1150   20.1120 C   0  0  0  0  0  0  0  0  0  0  0  0
  -24.7160  -13.3950   20.6320 C   0  0  0  0  0  0  0  0  0  0  0  0
  -25.0650  -12.0200   20.4620 C   0  0  0  0  0  0  0  0  0  0  0  0
  -26.6800  -13.1800   19.6680 N   0  0  0  0  0  0  0  0  0  0  0  0
  -26.2760  -11.9120   19.9330 N   0  0  0  0  0  0  0  0  0  0  0  0
  -24.2940  -10.7980   20.7200 C   0  0  0  0  0  0  0  0  0  0  0  0
  -24.7450   -9.8210   21.6350 C   0  0  0  0  0  3  0  0  0  0  0  0
  -23.9800   -8.6610   21.8770 C   0  0  0  0  0  3  0  0  0  0  0  0
  -22.7510   -8.4680   21.2030 C   0  0  0  0  0  0  0  0  0  0  0  0
  -22.3170   -9.4340   20.2760 C   0  0  0  0  0  3  0  0  0  0  0  0
  -23.0820  -10.5850   20.0340 C   0  0  0  0  0  3  0  0  0  0  0  0
  -21.9540   -7.3590   21.3520 O   0  0  0  0  0  0  0  0  0  0  0  0
  -21.8210   -6.7250   22.5610 C   0  0  0  0  0  0  0  0  0  0  0  0
  -21.3870   -7.4090   23.7180 C   0  0  0  0  0  3  0  0  0  0  0  0
  -21.1960   -6.7020   24.9210 C   0  0  0  0  0  3  0  0  0  0  0  0
  -21.4330   -5.3160   24.9700 C   0  0  0  0  0  0  0  0  0  0  0  0
  -21.8620   -4.6330   23.8170 C   0  0  0  0  0  3  0  0  0  0  0  0
  -22.0510   -5.3360   22.6150 C   0  0  0  0  0  0  0  0  0  0  0  0
  -22.4440   -4.6690   21.5030 F   0  0  0  0  0  0  0  0  0  0  0  0
  -21.2420   -4.6370   26.1240 F   0  0  0  0  0  0  0  0  0  0  0  0
  -23.4220  -13.9430   21.1650 C   0  0  0  0  0  0  0  0  0  0  0  0
  -22.8270  -13.2670   22.1410 N   0  0  0  0  0  0  0  0  0  0  0  0
  -22.9550  -15.0030   20.7480 O   0  0  0  0  0  0  0  0  0  0  0  0
  -23.2230  -12.4080   22.4920 H   0  0  0  0  0  0  0  0  0  0  0  0
  -21.9670  -13.6140   22.5420 H   0  0  0  0  0  0  0  0  0  0  0  0
  -25.9890  -15.4780   19.9550 N   0  0  0  0  0  0  0  0  0  0  0  0
  -25.2810  -16.1730   20.1670 H   0  0  0  0  0  0  0  0  0  0  0  0
  -26.7640  -15.8600   19.4300 H   0  0  0  0  0  0  0  0  0  0  0  0
  -29.1090  -20.5280   18.8960 C   0  0  0  0  0  0  0  0  0  0  0  0
  -28.8450  -21.7660   19.4140 N   0  0  0  0  0  0  0  0  0  0  0  0
  -28.9380  -20.2830   17.7000 O   0  0  0  0  0  0  0  0  0  0  0  0
  -28.9520  -21.8700   20.4130 H   0  0  0  0  0  0  0  0  0  0  0  0
  -28.5730  -23.0080   18.6270 C   0  0  0  0  0  2  0  0  0  0  0  0
  -27.5280  -24.0610   19.1760 C   0  0  0  0  0  2  0  0  0  0  0  0
  -27.9950  -25.2260   20.1200 C   0  0  0  0  0  2  0  0  0  0  0  0
  -28.0550  -26.5740   19.5570 O   0  0  0  0  0  0  0  0  0  0  0  0
  -24.8390  -31.8220   23.2620 C   0  0  0  0  0  0  0  0  0  0  0  0
  -26.9530  -27.4080   19.7060 C   0  0  0  0  0  0  0  0  0  0  0  0
  -23.4290  -30.6040   21.6410 C   0  0  0  0  0  3  0  0  0  0  0  0
  -24.6730  -29.0820   20.0040 C   0  0  0  0  0  0  0  0  0  0  0  0
  -25.9520  -30.8220   21.2600 C   0  0  0  0  0  2  0  0  0  0  0  0
  -25.9070  -29.4910   20.5240 C   0  0  0  0  0  0  0  0  0  0  0  0
  -27.0530  -28.6680   20.3590 C   0  0  0  0  0  3  0  0  0  0  0  0
  -25.7000  -27.0280   19.1850 C   0  0  0  0  0  3  0  0  0  0  0  0
  -24.5680  -27.8560   19.3240 C   0  0  0  0  0  3  0  0  0  0  0  0
  -23.4910  -30.0070   20.2070 C   0  0  0  0  0  2  0  0  0  0  0  0
  -24.7650  -31.0950   22.1100 N   0  0  0  0  0  0  0  0  0  0  0  0
  -23.8220  -32.1190   23.9030 O   0  0  0  0  0  0  0  0  0  0  0  0
  -22.7960  -29.5560   22.5850 C   0  0  0  0  0  0  0  0  0  0  0  0
  -21.4840  -29.3210   22.4200 N   0  0  0  0  0  0  0  0  0  0  0  0
  -23.4800  -28.9610   23.4210 O   0  0  0  0  0  0  0  0  0  0  0  0
  -20.9950  -29.8540   21.7150 H   0  0  0  0  0  0  0  0  0  0  0  0
  -18.1790  -27.8860   22.7250 C   0  0  0  0  0  0  0  0  0  0  0  0
  -20.6830  -28.3480   23.1640 C   0  0  0  0  0  3  0  0  0  0  0  0
  -20.9320  -26.9110   22.6500 C   0  0  0  0  0  2  0  0  0  0  0  0
  -19.9320  -26.4730   21.5740 C   0  0  0  0  0  2  0  0  0  0  0  0
  -18.5010  -26.5330   22.1140 C   0  0  0  0  0  2  0  0  0  0  0  0
  -19.2040  -28.7460   23.2020 C   0  0  0  0  0  0  0  0  0  0  0  0
  -18.8490  -30.0080   23.7240 C   0  0  0  0  0  3  0  0  0  0  0  0
  -17.5000  -30.4130   23.7760 C   0  0  0  0  0  3  0  0  0  0  0  0
  -16.4890  -29.5510   23.3160 C   0  0  0  0  0  3  0  0  0  0  0  0
  -16.8290  -28.2900   22.7970 C   0  0  0  0  0  3  0  0  0  0  0  0
  -26.2060  -32.3360   23.8150 C   0  0  0  0  0  3  0  0  0  0  0  0
  -26.0030  -33.7140   24.2820 N   0  0  0  0  0  0  0  0  0  0  0  0
  -26.3360  -34.8090   23.5870 C   0  0  0  0  0  0  0  0  0  0  0  0
  -26.9180  -34.7610   22.4990 O   0  0  0  0  0  0  0  0  0  0  0  0
  -25.4830  -33.8310   25.1380 H   0  0  0  0  0  0  0  0  0  0  0  0
  -24.6810  -36.7010   23.5260 C   0  0  0  0  0  1  0  0  0  0  0  0
  -25.9640  -36.1760   24.1910 C   0  0  0  0  0  3  0  0  0  0  0  0
  -28.2060  -36.8870   24.8980 C   0  0  0  0  0  1  0  0  0  0  0  0
  -27.0380  -37.1850   24.0700 N   0  0  0  0  0  0  0  0  0  0  0  0
  -26.6950  -38.1070   24.3230 H   0  0  0  0  0  0  0  0  0  0  0  0
  -26.7870  -31.4370   24.9740 C   0  0  1  0  0  0  0  0  0  0  0  0
  -25.7620  -31.1290   26.0900 C   0  0  0  0  0  1  0  0  0  0  0  0
  -27.2950  -30.0870   24.4130 C   0  0  0  0  0  1  0  0  0  0  0  0
  -28.0080  -32.1360   25.6170 C   0  0  0  0  0  1  0  0  0  0  0  0
  -31.3090  -17.0220   24.1030 C   0  0  0  0  0  1  0  0  0  0  0  0
  -32.1660  -15.4780   22.4100 C   0  0  0  0  0  1  0  0  0  0  0  0
  -29.6790  -15.5060   23.0250 C   0  0  0  0  0  1  0  0  0  0  0  0
  -30.9370  -16.3560   22.7480 C   0  0  2  0  0  0  0  0  0  0  0  0
  1  2  1  0
  3  4  1  0
  3  6  2  0
  4  1  2  0
  5  2  2  0
  5 96  1  0
  6  5  1  0
  7 15  1  0
  8 13  1  0
  9 10  1  0
  9  8  1  0
 11 10  1  0
 11 20  1  0
 11 12  1  0
 13  7  1  0
 13 12  1  0
 14  7  2  0
 15  6  1  0
 15 16  1  0
 17 18  2  0
 18 37  1  0
 19 18  1  0
 19 22  1  0
 20 21  1  0
 20 17  1  0
 21 19  2  0
 22 23  1  0
 23 24  2  0
 25 28  1  0
 25 24  1  0
 26 25  2  0
 27 26  1  0
 27 22  2  0
 28 29  1  0
 29 34  2  0
 29 30  1  0
 30 31  2  0
 31 32  1  0
 32 36  1  0
 33 32  2  0
 34 33  1  0
 35 34  1  0
 37 38  1  0
 38 40  1  0
 38 41  1  0
 39 37  2  0
 42 17  1  0
 42 43  1  0
 44 42  1  0
 45 46  1  0
 45  4  1  0
 46 48  1  0
 47 45  2  0
 49 50  1  0
 49 46  1  0
 50 51  1  0
 52 54  1  0
 52 51  1  0
 53 64  2  0
 54 59  1  0
 55 63  1  0
 55 65  1  0
 56 62  1  0
 56 58  1  0
 57 63  1  0
 58 57  1  0
 59 58  2  0
 60 61  1  0
 60 54  2  0
 61 56  2  0
 62 55  1  0
 63 53  1  0
 65 67  2  0
 66 65  1  0
 68 66  1  0
 69 78  2  0
 69 74  1  0
 70 66  1  0
 70 74  1  0
 71 70  1  0
 72 73  1  0
 72 71  1  0
 73 69  1  0
 74 75  2  0
 75 76  1  0
 77 76  2  0
 78 77  1  0
 79 53  1  0
 79 80  1  0
 79 89  1  0
 80 83  1  0
 81 85  1  0
 81 80  1  0
 82 81  2  0
 85 84  1  0
 87 85  1  0
 87 88  1  0
 87 86  1  0
 89 92  1  1
 89 90  1  0
 91 89  1  0
 96 94  1  6
 96 95  1  0
 96 93  1  0
M  ISO  4   7 100  15 100  51 101  52 101
M  END
>  <TORSDO>  (56) 
F 21

>  <SCORE>  (56) 
-3.306

>  <name>  (56) 
55

>  <ligand_id>  (56) 
55

>  <original_smiles>  (56) 
[H]c1c([H])c([H])c2c(c1[H])C([H])([H])C([H])([H])C([H])([H])C2([H])N([H])C(=O)C1([H])N(C(=O)C([H])(N([H])C(=O)C([H])(N([H])C([H])([H])[H])C([H])([H])[H])C(C([H])([H])[H])(C([H])([H])[H])C([H])([H])[H])C([H])([H])c2c([H])c(OC([H])([H])C([H])([H])C([H])([H])N([H])C(=O)c3c([H])c([H])c(C(C([H])([H])[H])(C([H])([H])[H])C([H])([H])[H])c(N([H])C(=O)N4C([H])([H])C([H])([H])C([H])([H])C([H])(n5nc(-c6c([H])c([H])c(Oc7c([H])c([H])c(F)c([H])c7F)c([H])c6[H])c(C(=O)N([H])[H])c5N([H])[H])C4([H])[H])c3[H])c([H])c([H])c2C1([H])[H]

>  <smiles>  (56) 
[H]c1c([H])c([H])c2c(c1[H])C([H])([H])C([H])([H])C([H])([H])C2([H])N([H])C(=O)C1([H])N(C(=O)C([H])(N([H])C(=O)C([H])(N([H])C([H])([H])[H])C([H])([H])[H])C(C([H])([H])[H])(C([H])([H])[H])C([H])([H])[H])C([H])([H])c2c([H])c(OC([H])([H])C([H])([H])C([H])([H])N([H])C(=O)c3c([H])c([H])c(C(C([H])([H])[H])(C([H])([H])[H])C([H])([H])[H])c(N([H])C(=O)N4C([H])([H])C([H])([H])C([H])([H])C([H])(n5nc(-c6c([H])c([H])c(Oc7c([H])c([H])c(F)c([H])c7F)c([H])c6[H])c(C(=O)N([H])[H])c5N([H])[H])C4([H])[H])c3[H])c([H])c([H])c2C1([H])[H]

$$$$
56:0:0
     RDKit          3D

 87 94  0  0  1  0  0  0  0  0999 V2000
  -31.1720  -20.9140   20.4010 C   0  0  0  0  0  3  0  0  0  0  0  0
  -30.2650  -22.0300   20.3860 C   0  0  0  0  0  3  0  0  0  0  0  0
  -30.8570  -19.5100   20.3560 C   0  0  0  0  0  3  0  0  0  0  0  0
  -28.6030  -20.3030   20.2770 C   0  0  0  0  0  3  0  0  0  0  0  0
  -28.8540  -21.9210   20.3190 C   0  0  0  0  0  0  0  0  0  0  0  0
  -29.5470  -18.9690   20.2900 C   0  0  0  0  0  0  0  0  0  0  0  0
  -30.2090  -15.8290   20.1980 C   0  0  0  0  0  0  0  0  0  0  0  0
  -30.3590  -13.2660   19.3530 C   0  0  0  0  0  2  0  0  0  0  0  0
  -29.4810  -12.8090   18.1500 C   0  0  0  0  0  2  0  0  0  0  0  0
  -28.0690  -12.4170   18.6080 C   0  0  0  0  0  2  0  0  0  0  0  0
  -27.5380  -13.4080   19.6660 C   0  0  0  0  0  3  0  0  0  0  0  0
  -28.5620  -13.7640   20.7720 C   0  0  0  0  0  2  0  0  0  0  0  0
  -29.7070  -14.4410   20.1070 N   0  0  0  0  0  0  0  0  0  0  0  0
  -31.4460  -15.7550   20.0420 O   0  0  0  0  0  0  0  0  0  0  0  0
  -29.4280  -17.2130   20.2630 N   0  0  0  0  0  0  0  0  0  0  0  0
  -28.4520  -16.9570   20.3020 H   0  0  0  0  0  0  0  0  0  0  0  0
  -25.1680  -13.8930   20.4280 C   0  0  0  0  0  0  0  0  0  0  0  0
  -24.1230  -13.0940   20.7950 C   0  0  0  0  0  0  0  0  0  0  0  0
  -24.6190  -11.7540   20.7710 C   0  0  0  0  0  0  0  0  0  0  0  0
  -26.2290  -13.0410   20.1890 N   0  0  0  0  0  0  0  0  0  0  0  0
  -25.9140  -11.7470   20.4630 N   0  0  0  0  0  0  0  0  0  0  0  0
  -23.9120  -10.4800   20.9630 C   0  0  0  0  0  0  0  0  0  0  0  0
  -24.3380   -9.5340   21.9220 C   0  0  0  0  0  3  0  0  0  0  0  0
  -23.6260   -8.3280   22.1030 C   0  0  0  0  0  3  0  0  0  0  0  0
  -22.4740   -8.0590   21.3280 C   0  0  0  0  0  0  0  0  0  0  0  0
  -22.0670   -8.9940   20.3600 C   0  0  0  0  0  3  0  0  0  0  0  0
  -22.7800  -10.1910   20.1750 C   0  0  0  0  0  3  0  0  0  0  0  0
  -21.7340   -6.9040   21.4170 O   0  0  0  0  0  0  0  0  0  0  0  0
  -21.6550   -6.1900   22.5860 C   0  0  0  0  0  0  0  0  0  0  0  0
  -21.1510   -6.7600   23.7750 C   0  0  0  0  0  3  0  0  0  0  0  0
  -21.0210   -5.9700   24.9340 C   0  0  0  0  0  3  0  0  0  0  0  0
  -21.3860   -4.6100   24.9060 C   0  0  0  0  0  0  0  0  0  0  0  0
  -21.8830   -4.0390   23.7210 C   0  0  0  0  0  3  0  0  0  0  0  0
  -22.0140   -4.8260   22.5640 C   0  0  0  0  0  0  0  0  0  0  0  0
  -22.4730   -4.2660   21.4190 F   0  0  0  0  0  0  0  0  0  0  0  0
  -21.2550   -3.8490   26.0170 F   0  0  0  0  0  0  0  0  0  0  0  0
  -22.7150  -13.5460   21.0490 C   0  0  0  0  0  0  0  0  0  0  0  0
  -21.9970  -12.8510   21.9220 N   0  0  0  0  0  0  0  0  0  0  0  0
  -22.2630  -14.5560   20.5090 O   0  0  0  0  0  0  0  0  0  0  0  0
  -22.3770  -12.0360   22.3800 H   0  0  0  0  0  0  0  0  0  0  0  0
  -21.0520  -13.1380   22.1370 H   0  0  0  0  0  0  0  0  0  0  0  0
  -25.3000  -15.2650   20.2410 N   0  0  0  0  0  0  0  0  0  0  0  0
  -24.5140  -15.8990   20.3400 H   0  0  0  0  0  0  0  0  0  0  0  0
  -26.1260  -15.7150   19.8720 H   0  0  0  0  0  0  0  0  0  0  0  0
  -27.8660  -23.5190   20.2940 C   0  0  0  0  0  2  0  0  0  0  0  0
  -26.6640  -23.2500   20.2140 O   0  0  0  0  0  1  0  0  0  0  0  0
  -28.1230  -25.4160   20.3590 O   0  0  0  0  0  1  0  0  0  0  0  0
  -24.6620  -31.8640   23.2530 C   0  0  0  0  0  0  0  0  0  0  0  0
  -27.1860  -26.6900   20.3070 C   0  0  0  0  0  0  0  0  0  0  0  0
  -23.4850  -30.4670   21.6110 C   0  0  0  0  0  3  0  0  0  0  0  0
  -24.9370  -28.7920   20.2230 C   0  0  0  0  0  0  0  0  0  0  0  0
  -26.0690  -30.5680   21.5260 C   0  0  0  0  0  2  0  0  0  0  0  0
  -26.1300  -29.1230   20.8750 C   0  0  0  0  0  0  0  0  0  0  0  0
  -27.2320  -28.1020   20.8890 C   0  0  0  0  0  3  0  0  0  0  0  0
  -25.9570  -26.5940   19.5970 C   0  0  0  0  0  3  0  0  0  0  0  0
  -24.8940  -27.5520   19.5600 C   0  0  0  0  0  3  0  0  0  0  0  0
  -23.7380  -29.7590   20.2480 C   0  0  0  0  0  2  0  0  0  0  0  0
  -24.7640  -31.0010   22.1820 N   0  0  0  0  0  0  0  0  0  0  0  0
  -23.5640  -32.1770   23.7470 O   0  0  0  0  0  0  0  0  0  0  0  0
  -22.7450  -29.5040   22.5800 C   0  0  0  0  0  0  0  0  0  0  0  0
  -21.4110  -29.3680   22.4490 N   0  0  0  0  0  0  0  0  0  0  0  0
  -23.3860  -28.8750   23.4250 O   0  0  0  0  0  0  0  0  0  0  0  0
  -20.9420  -29.9250   21.7480 H   0  0  0  0  0  0  0  0  0  0  0  0
  -18.0050  -28.1990   22.9540 C   0  0  0  0  0  0  0  0  0  0  0  0
  -20.5690  -28.4420   23.2180 C   0  0  0  0  0  3  0  0  0  0  0  0
  -20.6540  -27.0080   22.6450 C   0  0  0  0  0  2  0  0  0  0  0  0
  -19.5510  -26.6980   21.6270 C   0  0  0  0  0  2  0  0  0  0  0  0
  -18.1700  -26.8520   22.2690 C   0  0  0  0  0  2  0  0  0  0  0  0
  -19.1300  -28.9520   23.3840 C   0  0  0  0  0  0  0  0  0  0  0  0
  -18.9170  -30.2100   23.9900 C   0  0  0  0  0  3  0  0  0  0  0  0
  -17.6150  -30.7150   24.1650 C   0  0  0  0  0  3  0  0  0  0  0  0
  -16.5050  -29.9600   23.7460 C   0  0  0  0  0  3  0  0  0  0  0  0
  -16.7020  -28.7030   23.1470 C   0  0  0  0  0  3  0  0  0  0  0  0
  -25.9190  -32.5130   23.9070 C   0  0  0  0  0  3  0  0  0  0  0  0
  -25.6020  -33.9200   24.2290 N   0  0  0  0  0  0  0  0  0  0  0  0
  -25.9260  -34.9790   23.4760 C   0  0  0  0  0  0  0  0  0  0  0  0
  -26.5810  -34.8770   22.4360 O   0  0  0  0  0  0  0  0  0  0  0  0
  -25.0170  -34.0720   25.0370 H   0  0  0  0  0  0  0  0  0  0  0  0
  -24.1850  -36.7790   23.1830 C   0  0  0  0  0  1  0  0  0  0  0  0
  -25.4560  -36.3740   23.9470 C   0  0  0  0  0  3  0  0  0  0  0  0
  -27.6150  -37.2760   24.6970 C   0  0  0  0  0  1  0  0  0  0  0  0
  -26.4820  -37.4290   23.7890 N   0  0  0  0  0  0  0  0  0  0  0  0
  -26.0780  -38.3490   23.9390 H   0  0  0  0  0  0  0  0  0  0  0  0
  -26.3910  -31.7630   25.2150 C   0  0  1  0  0  0  0  0  0  0  0  0
  -25.2670  -31.5590   26.2580 C   0  0  0  0  0  1  0  0  0  0  0  0
  -26.9700  -30.3710   24.8810 C   0  0  0  0  0  1  0  0  0  0  0  0
  -27.5330  -32.5580   25.8920 C   0  0  0  0  0  1  0  0  0  0  0  0
  2  1  1  0
  3  1  2  0
  4  6  2  0
  4  5  1  0
  5  2  2  0
  6  3  1  0
  7 15  1  0
  8 13  1  0
  9 10  1  0
  9  8  1  0
 11 10  1  0
 11 20  1  0
 11 12  1  0
 13  7  1  0
 13 12  1  0
 14  7  2  0
 15  6  1  0
 15 16  1  0
 17 18  2  0
 18 37  1  0
 19 18  1  0
 19 22  1  0
 20 17  1  0
 20 21  1  0
 21 19  2  0
 22 23  1  0
 23 24  2  0
 25 28  1  0
 25 24  1  0
 26 25  2  0
 27 26  1  0
 27 22  2  0
 28 29  1  0
 29 30  1  0
 30 31  2  0
 32 31  1  0
 32 36  1  0
 33 32  2  0
 34 29  2  0
 34 33  1  0
 35 34  1  0
 37 38  1  0
 38 41  1  0
 38 40  1  0
 39 37  2  0
 42 43  1  0
 42 17  1  0
 44 42  1  0
 45  5  1  0
 46 45  1  0
 48 59  2  0
 49 47  1  0
 49 54  1  0
 50 58  1  0
 50 60  1  0
 51 57  1  0
 51 53  1  0
 52 58  1  0
 53 54  2  0
 53 52  1  0
 55 49  2  0
 56 55  1  0
 56 51  2  0
 57 50  1  0
 58 48  1  0
 60 62  2  0
 61 60  1  0
 63 61  1  0
 64 73  2  0
 64 69  1  0
 65 61  1  0
 65 69  1  0
 66 65  1  0
 67 68  1  0
 67 66  1  0
 68 64  1  0
 69 70  2  0
 70 71  1  0
 72 71  2  0
 73 72  1  0
 74 48  1  0
 74 75  1  0
 74 84  1  0
 75 78  1  0
 76 80  1  0
 76 75  1  0
 77 76  2  0
 80 79  1  0
 82 83  1  0
 82 80  1  0
 82 81  1  0
 84 87  1  1
 84 85  1  0
 86 84  1  0
M  ISO  4   7 100  15 100  45 101  47 101
M  END
>  <TORSDO>  (57) 
F 17

>  <SCORE>  (57) 
-16.517

>  <name>  (57) 
56

>  <ligand_id>  (57) 
56

>  <original_smiles>  (57) 
[H]c1c([H])c(C(=O)Oc2c([H])c([H])c3c(c2[H])C([H])([H])N(C(=O)C([H])(N([H])C(=O)C([H])(N([H])C([H])([H])[H])C([H])([H])[H])C(C([H])([H])[H])(C([H])([H])[H])C([H])([H])[H])C([H])(C(=O)N([H])C2([H])c4c([H])c([H])c([H])c([H])c4C([H])([H])C([H])([H])C2([H])[H])C3([H])[H])c([H])c(N([H])C(=O)N2C([H])([H])C([H])([H])C([H])([H])C([H])(n3nc(-c4c([H])c([H])c(Oc5c([H])c([H])c(F)c([H])c5F)c([H])c4[H])c(C(=O)N([H])[H])c3N([H])[H])C2([H])[H])c1[H]

>  <smiles>  (57) 
[H]c1c([H])c(C(=O)Oc2c([H])c([H])c3c(c2[H])C([H])([H])N(C(=O)C([H])(N([H])C(=O)C([H])(N([H])C([H])([H])[H])C([H])([H])[H])C(C([H])([H])[H])(C([H])([H])[H])C([H])([H])[H])C([H])(C(=O)N([H])C2([H])c4c([H])c([H])c([H])c([H])c4C([H])([H])C([H])([H])C2([H])[H])C3([H])[H])c([H])c(N([H])C(=O)N2C([H])([H])C([H])([H])C([H])([H])C([H])(n3nc(-c4c([H])c([H])c(Oc5c([H])c([H])c(F)c([H])c5F)c([H])c4[H])c(C(=O)N([H])[H])c3N([H])[H])C2([H])[H])c1[H]

$$$$
57:0:0
     RDKit          3D

 87 95  0  0  1  0  0  0  0  0999 V2000
  -28.9390  -21.2050   17.9940 C   0  0  0  0  0  3  0  0  0  0  0  0
  -29.2130  -19.9730   18.6570 C   0  0  0  0  0  3  0  0  0  0  0  0
  -28.6620  -22.4480   18.6370 C   0  0  0  0  0  3  0  0  0  0  0  0
  -28.9330  -21.2290   20.6960 C   0  0  0  0  0  3  0  0  0  0  0  0
  -29.2580  -19.8410   20.0610 C   0  0  0  0  0  0  0  0  0  0  0  0
  -28.6150  -22.6060   20.0390 C   0  0  0  0  0  0  0  0  0  0  0  0
  -29.8030  -18.2760   20.6910 C   0  0  0  0  0  2  0  0  0  0  0  0
  -30.3880  -15.3430   20.2990 C   0  0  0  0  0  0  0  0  0  0  0  0
  -30.4000  -12.8810   19.4180 C   0  0  0  0  0  2  0  0  0  0  0  0
  -29.4870  -12.6140   18.1940 C   0  0  0  0  0  2  0  0  0  0  0  0
  -28.0420  -12.3250   18.6390 C   0  0  0  0  0  2  0  0  0  0  0  0
  -27.5720  -13.3030   19.7440 C   0  0  0  0  0  3  0  0  0  0  0  0
  -28.6160  -13.4960   20.8630 C   0  0  0  0  0  2  0  0  0  0  0  0
  -29.8260  -14.0310   20.2140 N   0  0  0  0  0  0  0  0  0  0  0  0
  -31.6220  -15.3240   20.1670 O   0  0  0  0  0  0  0  0  0  0  0  0
  -29.6180  -16.6300   20.3330 N   0  0  0  0  0  0  0  0  0  0  0  0
  -28.6350  -16.4140   20.2560 H   0  0  0  0  0  0  0  0  0  0  0  0
  -25.2010  -13.8510   20.4940 C   0  0  0  0  0  0  0  0  0  0  0  0
  -24.1410  -13.0710   20.8610 C   0  0  0  0  0  0  0  0  0  0  0  0
  -24.6140  -11.7230   20.8370 C   0  0  0  0  0  0  0  0  0  0  0  0
  -26.2470  -12.9800   20.2560 N   0  0  0  0  0  0  0  0  0  0  0  0
  -25.9070  -11.6930   20.5320 N   0  0  0  0  0  0  0  0  0  0  0  0
  -23.8900  -10.4580   21.0250 C   0  0  0  0  0  0  0  0  0  0  0  0
  -24.3180   -9.4930   21.9640 C   0  0  0  0  0  3  0  0  0  0  0  0
  -23.5900   -8.2960   22.1420 C   0  0  0  0  0  3  0  0  0  0  0  0
  -22.4220   -8.0550   21.3810 C   0  0  0  0  0  0  0  0  0  0  0  0
  -22.0140   -9.0090   20.4310 C   0  0  0  0  0  3  0  0  0  0  0  0
  -22.7420  -10.1970   20.2510 C   0  0  0  0  0  3  0  0  0  0  0  0
  -21.6670   -6.9100   21.4680 O   0  0  0  0  0  0  0  0  0  0  0  0
  -21.6120   -6.1720   22.6220 C   0  0  0  0  0  0  0  0  0  0  0  0
  -21.1730   -6.7290   23.8430 C   0  0  0  0  0  3  0  0  0  0  0  0
  -21.0640   -5.9160   24.9890 C   0  0  0  0  0  3  0  0  0  0  0  0
  -21.3830   -4.5480   24.9160 C   0  0  0  0  0  0  0  0  0  0  0  0
  -21.8150   -3.9900   23.7000 C   0  0  0  0  0  3  0  0  0  0  0  0
  -21.9250   -4.7990   22.5560 C   0  0  0  0  0  0  0  0  0  0  0  0
  -22.3220   -4.2510   21.3810 F   0  0  0  0  0  0  0  0  0  0  0  0
  -21.2720   -3.7650   26.0150 F   0  0  0  0  0  0  0  0  0  0  0  0
  -22.7390  -13.5430   21.1150 C   0  0  0  0  0  0  0  0  0  0  0  0
  -22.0050  -12.8480   21.9770 N   0  0  0  0  0  0  0  0  0  0  0  0
  -22.3050  -14.5660   20.5870 O   0  0  0  0  0  0  0  0  0  0  0  0
  -22.3710  -12.0210   22.4260 H   0  0  0  0  0  0  0  0  0  0  0  0
  -21.0640  -13.1470   22.1910 H   0  0  0  0  0  0  0  0  0  0  0  0
  -25.3540  -15.2220   20.3120 N   0  0  0  0  0  0  0  0  0  0  0  0
  -24.5790  -15.8670   20.4130 H   0  0  0  0  0  0  0  0  0  0  0  0
  -26.1890  -15.6640   19.9490 H   0  0  0  0  0  0  0  0  0  0  0  0
  -28.0290  -24.1710   20.6330 C   0  0  0  0  0  2  0  0  0  0  0  0
  -28.2310  -25.7760   20.2190 O   0  0  0  0  0  0  0  0  0  0  0  0
  -24.6410  -31.8200   23.1860 C   0  0  0  0  0  0  0  0  0  0  0  0
  -27.2150  -26.8870   20.2340 C   0  0  0  0  0  0  0  0  0  0  0  0
  -23.4580  -30.4100   21.5550 C   0  0  0  0  0  3  0  0  0  0  0  0
  -24.9170  -28.7870   20.1590 C   0  0  0  0  0  0  0  0  0  0  0  0
  -26.0280  -30.6150   21.4210 C   0  0  0  0  0  2  0  0  0  0  0  0
  -26.1040  -29.1930   20.7790 C   0  0  0  0  0  0  0  0  0  0  0  0
  -27.2510  -28.2680   20.7830 C   0  0  0  0  0  3  0  0  0  0  0  0
  -25.9920  -26.6400   19.5700 C   0  0  0  0  0  3  0  0  0  0  0  0
  -24.8870  -27.5310   19.5330 C   0  0  0  0  0  3  0  0  0  0  0  0
  -23.6990  -29.7120   20.1870 C   0  0  0  0  0  2  0  0  0  0  0  0
  -24.7310  -30.9760   22.1070 N   0  0  0  0  0  0  0  0  0  0  0  0
  -23.5460  -32.1130   23.6990 O   0  0  0  0  0  0  0  0  0  0  0  0
  -22.7580  -29.4220   22.5260 C   0  0  0  0  0  0  0  0  0  0  0  0
  -21.4260  -29.2660   22.4040 N   0  0  0  0  0  0  0  0  0  0  0  0
  -23.4200  -28.7970   23.3560 O   0  0  0  0  0  0  0  0  0  0  0  0
  -20.9440  -29.8210   21.7120 H   0  0  0  0  0  0  0  0  0  0  0  0
  -18.0370  -28.0790   22.9330 C   0  0  0  0  0  0  0  0  0  0  0  0
  -20.6000  -28.3340   23.1810 C   0  0  0  0  0  3  0  0  0  0  0  0
  -20.6900  -26.9010   22.6070 C   0  0  0  0  0  2  0  0  0  0  0  0
  -19.5810  -26.5830   21.5990 C   0  0  0  0  0  2  0  0  0  0  0  0
  -18.2040  -26.7310   22.2520 C   0  0  0  0  0  2  0  0  0  0  0  0
  -19.1610  -28.8390   23.3550 C   0  0  0  0  0  0  0  0  0  0  0  0
  -18.9480  -30.0980   23.9560 C   0  0  0  0  0  3  0  0  0  0  0  0
  -17.6450  -30.5990   24.1370 C   0  0  0  0  0  3  0  0  0  0  0  0
  -16.5360  -29.8380   23.7290 C   0  0  0  0  0  3  0  0  0  0  0  0
  -16.7330  -28.5800   23.1330 C   0  0  0  0  0  3  0  0  0  0  0  0
  -25.9040  -32.4730   23.8220 C   0  0  0  0  0  3  0  0  0  0  0  0
  -25.5790  -33.8730   24.1490 N   0  0  0  0  0  0  0  0  0  0  0  0
  -25.9110  -34.9350   23.4030 C   0  0  0  0  0  0  0  0  0  0  0  0
  -26.5860  -34.8380   22.3750 O   0  0  0  0  0  0  0  0  0  0  0  0
  -24.9780  -34.0200   24.9470 H   0  0  0  0  0  0  0  0  0  0  0  0
  -24.1810  -36.7330   23.0580 C   0  0  0  0  0  1  0  0  0  0  0  0
  -25.4230  -36.3220   23.8680 C   0  0  0  0  0  3  0  0  0  0  0  0
  -27.5530  -37.2130   24.7060 C   0  0  0  0  0  1  0  0  0  0  0  0
  -26.4530  -37.3790   23.7600 N   0  0  0  0  0  0  0  0  0  0  0  0
  -26.0440  -38.2980   23.9080 H   0  0  0  0  0  0  0  0  0  0  0  0
  -26.4060  -31.7190   25.1170 C   0  0  1  0  0  0  0  0  0  0  0  0
  -25.3000  -31.4950   26.1750 C   0  0  0  0  0  1  0  0  0  0  0  0
  -26.9930  -30.3350   24.7580 C   0  0  0  0  0  1  0  0  0  0  0  0
  -27.5480  -32.5220   25.7810 C   0  0  0  0  0  1  0  0  0  0  0  0
  1  3  2  0
  1  2  1  0
  2  5  2  0
  3  6  1  0
  5  7  1  0
  5  4  1  0
  6 46  1  0
  6  4  2  0
  8 16  1  0
  9 14  1  0
 10 11  1  0
 10  9  1  0
 12 11  1  0
 12 21  1  0
 12 13  1  0
 14  8  1  0
 14 13  1  0
 15  8  2  0
 16  7  1  0
 17 16  1  0
 18 19  2  0
 19 38  1  0
 20 19  1  0
 20 23  1  0
 21 18  1  0
 21 22  1  0
 22 20  2  0
 23 24  1  0
 24 25  2  0
 26 29  1  0
 26 25  1  0
 27 26  2  0
 28 27  1  0
 28 23  2  0
 29 30  1  0
 30 31  1  0
 31 32  2  0
 33 32  1  0
 33 37  1  0
 34 33  2  0
 35 30  2  0
 35 34  1  0
 36 35  1  0
 38 39  1  0
 39 42  1  0
 39 41  1  0
 40 38  2  0
 43 44  1  0
 43 18  1  0
 45 43  1  0
 47 49  1  0
 47 46  1  0
 48 59  2  0
 49 54  1  0
 50 58  1  0
 50 60  1  0
 51 57  1  0
 51 53  1  0
 52 58  1  0
 53 54  2  0
 53 52  1  0
 55 49  2  0
 56 55  1  0
 56 51  2  0
 57 50  1  0
 58 48  1  0
 60 62  2  0
 61 60  1  0
 63 61  1  0
 64 73  2  0
 64 69  1  0
 65 61  1  0
 65 69  1  0
 66 65  1  0
 67 68  1  0
 67 66  1  0
 68 64  1  0
 69 70  2  0
 70 71  1  0
 72 71  2  0
 73 72  1  0
 74 48  1  0
 74 75  1  0
 74 84  1  0
 75 78  1  0
 76 80  1  0
 76 75  1  0
 77 76  2  0
 80 79  1  0
 82 80  1  0
 82 83  1  0
 82 81  1  0
 84 87  1  1
 84 85  1  0
 86 84  1  0
M  ISO  4   8 100  16 100  46 101  47 101
M  END
>  <TORSDO>  (58) 
F 18

>  <SCORE>  (58) 
-16.530

>  <name>  (58) 
57

>  <ligand_id>  (58) 
57

>  <original_smiles>  (58) 
[H]c1c([H])c(C([H])([H])Oc2c([H])c([H])c3c(c2[H])C([H])([H])N(C(=O)C([H])(N([H])C(=O)C([H])(N([H])C([H])([H])[H])C([H])([H])[H])C(C([H])([H])[H])(C([H])([H])[H])C([H])([H])[H])C([H])(C(=O)N([H])C2([H])c4c([H])c([H])c([H])c([H])c4C([H])([H])C([H])([H])C2([H])[H])C3([H])[H])c([H])c(C([H])([H])N([H])C(=O)N2C([H])([H])C([H])([H])C([H])([H])C([H])(n3nc(-c4c([H])c([H])c(Oc5c([H])c([H])c(F)c([H])c5F)c([H])c4[H])c(C(=O)N([H])[H])c3N([H])[H])C2([H])[H])c1[H]

>  <smiles>  (58) 
[H]c1c([H])c(C([H])([H])Oc2c([H])c([H])c3c(c2[H])C([H])([H])N(C(=O)C([H])(N([H])C(=O)C([H])(N([H])C([H])([H])[H])C([H])([H])[H])C(C([H])([H])[H])(C([H])([H])[H])C([H])([H])[H])C([H])(C(=O)N([H])C2([H])c4c([H])c([H])c([H])c([H])c4C([H])([H])C([H])([H])C2([H])[H])C3([H])[H])c([H])c(C([H])([H])N([H])C(=O)N2C([H])([H])C([H])([H])C([H])([H])C([H])(n3nc(-c4c([H])c([H])c(Oc5c([H])c([H])c(F)c([H])c5F)c([H])c4[H])c(C(=O)N([H])[H])c3N([H])[H])C2([H])[H])c1[H]

$$$$
58:0:0
     RDKit          3D

 81 85  0  0  1  0  0  0  0  0999 V2000
  -28.1090  -24.6470   20.3000 O   0  0  0  0  0  1  0  0  0  0  0  0
  -24.7100  -31.7810   23.1610 C   0  0  0  0  0  0  0  0  0  0  0  0
  -27.2070  -26.1440   20.2640 C   0  0  0  0  0  0  0  0  0  0  0  0
  -23.5560  -30.3680   21.5220 C   0  0  0  0  0  3  0  0  0  0  0  0
  -25.0090  -28.5810   20.1690 C   0  0  0  0  0  0  0  0  0  0  0  0
  -26.1560  -30.3130   21.5020 C   0  0  0  0  0  2  0  0  0  0  0  0
  -26.2110  -28.8120   20.8490 C   0  0  0  0  0  0  0  0  0  0  0  0
  -27.2590  -27.6460   20.8460 C   0  0  0  0  0  3  0  0  0  0  0  0
  -25.9680  -26.2870   19.5230 C   0  0  0  0  0  3  0  0  0  0  0  0
  -24.9660  -27.3480   19.4800 C   0  0  0  0  0  3  0  0  0  0  0  0
  -23.8360  -29.6140   20.1780 C   0  0  0  0  0  2  0  0  0  0  0  0
  -24.8390  -30.8700   22.1140 N   0  0  0  0  0  0  0  0  0  0  0  0
  -23.6010  -32.1150   23.6230 O   0  0  0  0  0  0  0  0  0  0  0  0
  -22.7620  -29.4580   22.5040 C   0  0  0  0  0  0  0  0  0  0  0  0
  -21.4220  -29.3560   22.3730 N   0  0  0  0  0  0  0  0  0  0  0  0
  -23.3780  -28.8290   23.3670 O   0  0  0  0  0  0  0  0  0  0  0  0
  -20.9670  -29.9120   21.6630 H   0  0  0  0  0  0  0  0  0  0  0  0
  -17.9970  -28.2130   22.9010 C   0  0  0  0  0  0  0  0  0  0  0  0
  -20.5670  -28.4380   23.1430 C   0  0  0  0  0  3  0  0  0  0  0  0
  -20.6330  -27.0060   22.5600 C   0  0  0  0  0  2  0  0  0  0  0  0
  -19.5210  -26.7160   21.5460 C   0  0  0  0  0  2  0  0  0  0  0  0
  -18.1460  -26.8740   22.1990 C   0  0  0  0  0  2  0  0  0  0  0  0
  -19.1320  -28.9550   23.3290 C   0  0  0  0  0  0  0  0  0  0  0  0
  -18.9320  -30.2040   23.9560 C   0  0  0  0  0  3  0  0  0  0  0  0
  -17.6350  -30.7130   24.1530 C   0  0  0  0  0  3  0  0  0  0  0  0
  -16.5160  -29.9710   23.7350 C   0  0  0  0  0  3  0  0  0  0  0  0
  -16.6980  -28.7220   23.1160 C   0  0  0  0  0  3  0  0  0  0  0  0
  -25.9400  -32.4590   23.8420 C   0  0  0  0  0  3  0  0  0  0  0  0
  -25.5980  -33.8650   24.1720 N   0  0  0  0  0  0  0  0  0  0  0  0
  -25.9200  -34.9450   23.4450 C   0  0  0  0  0  0  0  0  0  0  0  0
  -26.5760  -34.8640   22.4040 O   0  0  0  0  0  0  0  0  0  0  0  0
  -25.0070  -33.9990   24.9800 H   0  0  0  0  0  0  0  0  0  0  0  0
  -24.1680  -36.7480   23.1980 C   0  0  0  0  0  1  0  0  0  0  0  0
  -25.4480  -36.3330   23.9420 C   0  0  0  0  0  3  0  0  0  0  0  0
  -27.6060  -37.2470   24.6880 C   0  0  0  0  0  1  0  0  0  0  0  0
  -26.4650  -37.3980   23.7880 N   0  0  0  0  0  0  0  0  0  0  0  0
  -26.0550  -38.3150   23.9480 H   0  0  0  0  0  0  0  0  0  0  0  0
  -26.3960  -31.7200   25.1620 C   0  0  1  0  0  0  0  0  0  0  0  0
  -25.2580  -31.5140   26.1910 C   0  0  0  0  0  1  0  0  0  0  0  0
  -26.9880  -30.3300   24.8490 C   0  0  0  0  0  1  0  0  0  0  0  0
  -27.5230  -32.5250   25.8520 C   0  0  0  0  0  1  0  0  0  0  0  0
  -28.1400  -22.5480   20.1630 C   0  0  0  0  0 15  0  0  0  0  0  0
  -29.1420  -20.4180   20.2160 C   0  0  0  0  0 15  0  0  0  0  0  0
  -29.9010  -16.6470   20.0860 C   0  0  0  0  0  0  0  0  0  0  0  0
  -30.2300  -13.8900   19.2940 C   0  0  0  0  0  2  0  0  0  0  0  0
  -29.4480  -13.0530   18.1990 C   0  0  0  0  0  2  0  0  0  0  0  0
  -28.1340  -12.4820   18.7300 C   0  0  0  0  0  2  0  0  0  0  0  0
  -27.5010  -13.5140   19.6750 C   0  0  0  0  0  3  0  0  0  0  0  0
  -28.4750  -14.2100   20.6950 C   0  0  0  0  0  2  0  0  0  0  0  0
  -29.4550  -15.1290   19.9600 N   0  0  0  0  0  0  0  0  0  0  0  0
  -31.1430  -16.3980   20.0040 O   0  0  0  0  0  0  0  0  0  0  0  0
  -29.2570  -18.3100   20.1340 N   0  0  0  0  0  2  0  0  0  0  0  0
  -30.2580  -18.4710   20.1320 H   0  0  0  0  0  0  0  0  0  0  0  0
  -25.1600  -13.9200   20.5080 C   0  0  0  0  0  0  0  0  0  0  0  0
  -24.1280  -13.1120   20.8810 C   0  0  0  0  0  0  0  0  0  0  0  0
  -24.6260  -11.7720   20.8220 C   0  0  0  0  0  0  0  0  0  0  0  0
  -26.2240  -13.0860   20.2420 N   0  0  0  0  0  0  0  0  0  0  0  0
  -25.9190  -11.7780   20.4820 N   0  0  0  0  0  0  0  0  0  0  0  0
  -23.9140  -10.4950   21.0120 C   0  0  0  0  0  0  0  0  0  0  0  0
  -24.3570   -9.5290   21.9420 C   0  0  0  0  0  3  0  0  0  0  0  0
  -23.6350   -8.3280   22.1300 C   0  0  0  0  0  3  0  0  0  0  0  0
  -22.4560   -8.0830   21.3870 C   0  0  0  0  0  0  0  0  0  0  0  0
  -22.0290   -9.0390   20.4470 C   0  0  0  0  0  3  0  0  0  0  0  0
  -22.7510  -10.2310   20.2590 C   0  0  0  0  0  3  0  0  0  0  0  0
  -21.7070   -6.9350   21.4820 O   0  0  0  0  0  0  0  0  0  0  0  0
  -21.6700   -6.1910   22.6350 C   0  0  0  0  0  0  0  0  0  0  0  0
  -21.2140   -6.7320   23.8560 C   0  0  0  0  0  3  0  0  0  0  0  0
  -21.1260   -5.9140   25.0000 C   0  0  0  0  0  3  0  0  0  0  0  0
  -21.4850   -4.5540   24.9250 C   0  0  0  0  0  0  0  0  0  0  0  0
  -21.9340   -4.0110   23.7070 C   0  0  0  0  0  3  0  0  0  0  0  0
  -22.0220   -4.8270   22.5660 C   0  0  0  0  0  0  0  0  0  0  0  0
  -22.4340   -4.2930   21.3900 F   0  0  0  0  0  0  0  0  0  0  0  0
  -21.3950   -3.7660   26.0220 F   0  0  0  0  0  0  0  0  0  0  0  0
  -22.7270  -13.5620   21.1730 C   0  0  0  0  0  0  0  0  0  0  0  0
  -22.0260  -12.8570   22.0520 N   0  0  0  0  0  0  0  0  0  0  0  0
  -22.2670  -14.5820   20.6590 O   0  0  0  0  0  0  0  0  0  0  0  0
  -22.4140  -12.0340   22.4890 H   0  0  0  0  0  0  0  0  0  0  0  0
  -21.0880  -13.1430   22.2910 H   0  0  0  0  0  0  0  0  0  0  0  0
  -25.2790  -15.2960   20.3350 N   0  0  0  0  0  0  0  0  0  0  0  0
  -24.4980  -15.9290   20.4650 H   0  0  0  0  0  0  0  0  0  0  0  0
  -26.1180  -15.7610   20.0090 H   0  0  0  0  0  0  0  0  0  0  0  0
  2 13  2  0
  3  1  1  0
  3  8  1  0
  4 12  1  0
  4 14  1  0
  5 11  1  0
  5  7  1  0
  6 12  1  0
  7  6  1  0
  8  7  2  0
  9  3  2  0
 10  9  1  0
 10  5  2  0
 11  4  1  0
 12  2  1  0
 14 16  2  0
 15 14  1  0
 17 15  1  0
 18 27  2  0
 18 23  1  0
 19 15  1  0
 19 23  1  0
 20 19  1  0
 21 22  1  0
 21 20  1  0
 22 18  1  0
 23 24  2  0
 24 25  1  0
 26 25  2  0
 27 26  1  0
 28  2  1  0
 28 29  1  0
 28 38  1  0
 29 32  1  0
 30 34  1  0
 30 29  1  0
 31 30  2  0
 34 33  1  0
 36 34  1  0
 36 37  1  0
 36 35  1  0
 38 41  1  1
 38 39  1  0
 40 38  1  0
 44 52  1  0
 45 50  1  0
 46 47  1  0
 46 45  1  0
 48 47  1  0
 48 57  1  0
 48 49  1  0
 50 44  1  0
 50 49  1  0
 51 44  2  0
 53 52  1  0
 54 55  2  0
 55 74  1  0
 56 55  1  0
 56 59  1  0
 57 58  1  0
 57 54  1  0
 58 56  2  0
 59 60  1  0
 60 61  2  0
 62 65  1  0
 62 61  1  0
 63 62  2  0
 64 63  1  0
 64 59  2  0
 65 66  1  0
 66 67  1  0
 67 68  2  0
 69 68  1  0
 69 73  1  0
 70 69  2  0
 71 66  2  0
 71 70  1  0
 72 71  1  0
 74 75  1  0
 75 78  1  0
 75 77  1  0
 76 74  2  0
 79 80  1  0
 79 54  1  0
 81 79  1  0
M  ISO  4   1 101  42 101  44 100  52 100
M  END
>  <TORSDO>  (59) 
F 17

>  <SCORE>  (59) 
-16.141

>  <name>  (59) 
58

>  <ligand_id>  (59) 
58

>  <original_smiles>  (59) 
[H]c1c([H])c([H])c2c(c1[H])C([H])([H])C([H])([H])C([H])([H])C2([H])N([H])C(=O)C1([H])N(C(=O)C([H])(N([H])C(=O)C([H])(N([H])C([H])([H])[H])C([H])([H])[H])C(C([H])([H])[H])(C([H])([H])[H])C([H])([H])[H])C([H])([H])c2c([H])c(OC([H])([H])C([H])([H])N([H])C(=O)N3C([H])([H])C([H])([H])C([H])([H])C([H])(n4nc(-c5c([H])c([H])c(Oc6c([H])c([H])c(F)c([H])c6F)c([H])c5[H])c(C(=O)N([H])[H])c4N([H])[H])C3([H])[H])c([H])c([H])c2C1([H])[H]

>  <smiles>  (59) 
[H]c1c([H])c([H])c2c(c1[H])C([H])([H])C([H])([H])C([H])([H])C2([H])N([H])C(=O)C1([H])N(C(=O)C([H])(N([H])C(=O)C([H])(N([H])C([H])([H])[H])C([H])([H])[H])C(C([H])([H])[H])(C([H])([H])[H])C([H])([H])[H])C([H])([H])c2c([H])c(OC([H])([H])C([H])([H])N([H])C(=O)N3C([H])([H])C([H])([H])C([H])([H])C([H])(n4nc(-c5c([H])c([H])c(Oc6c([H])c([H])c(F)c([H])c6F)c([H])c5[H])c(C(=O)N([H])[H])c4N([H])[H])C3([H])[H])c([H])c([H])c2C1([H])[H]

$$$$
59:0:0
     RDKit          3D

 93101  0  0  1  0  0  0  0  0999 V2000
  -30.3510  -20.4480   21.7150 C   0  0  0  0  0  0  0  0  0  0  0  0
  -30.6010  -21.5510   20.9950 N   0  0  0  0  0  0  0  0  0  0  0  0
  -29.5760  -20.4150   22.6710 O   0  0  0  0  0  0  0  0  0  0  0  0
  -31.1840  -21.4300   20.1770 H   0  0  0  0  0  0  0  0  0  0  0  0
  -33.2010  -18.1700   20.6060 C   0  0  0  0  0  3  0  0  0  0  0  0
  -32.4790  -19.3140   20.9870 C   0  0  0  0  0  3  0  0  0  0  0  0
  -32.5430  -16.9330   20.5030 C   0  0  0  0  0  3  0  0  0  0  0  0
  -30.4510  -17.9670   21.2060 C   0  0  0  0  0  3  0  0  0  0  0  0
  -31.1000  -19.2240   21.2800 C   0  0  0  0  0  0  0  0  0  0  0  0
  -31.1550  -16.8180   20.7760 C   0  0  0  0  0  0  0  0  0  0  0  0
  -30.8140  -14.5950   19.7710 C   0  0  0  0  0  0  0  0  0  0  0  0
  -30.3580  -12.3860   18.7920 C   0  0  0  0  0  2  0  0  0  0  0  0
  -29.3200  -12.4780   17.6590 C   0  0  0  0  0  2  0  0  0  0  0  0
  -27.9020  -12.3350   18.2360 C   0  0  0  0  0  2  0  0  0  0  0  0
  -27.6500  -13.2770   19.4440 C   0  0  0  0  0  3  0  0  0  0  0  0
  -28.8050  -13.2080   20.4730 C   0  0  0  0  0  2  0  0  0  0  0  0
  -30.0770  -13.4500   19.7710 N   0  0  0  0  0  0  0  0  0  0  0  0
  -31.7650  -14.7470   19.0030 O   0  0  0  0  0  0  0  0  0  0  0  0
  -30.4640  -15.5720   20.6310 N   0  0  0  0  0  0  0  0  0  0  0  0
  -29.6000  -15.4500   21.1360 H   0  0  0  0  0  0  0  0  0  0  0  0
  -25.3790  -13.8930   20.4840 C   0  0  0  0  0  0  0  0  0  0  0  0
  -24.3290  -13.1260   20.9140 C   0  0  0  0  0  0  0  0  0  0  0  0
  -24.7250  -11.7680   20.7160 C   0  0  0  0  0  0  0  0  0  0  0  0
  -26.3530  -13.0040   20.0600 N   0  0  0  0  0  0  0  0  0  0  0  0
  -25.9680  -11.7160   20.2540 N   0  0  0  0  0  0  0  0  0  0  0  0
  -23.9730  -10.5170   20.8860 C   0  0  0  0  0  0  0  0  0  0  0  0
  -24.4060   -9.5090   21.7750 C   0  0  0  0  0  3  0  0  0  0  0  0
  -23.6540   -8.3240   21.9360 C   0  0  0  0  0  3  0  0  0  0  0  0
  -22.4550   -8.1410   21.2070 C   0  0  0  0  0  0  0  0  0  0  0  0
  -22.0410   -9.1380   20.3070 C   0  0  0  0  0  3  0  0  0  0  0  0
  -22.7930  -10.3130   20.1440 C   0  0  0  0  0  3  0  0  0  0  0  0
  -21.6750   -7.0110   21.2790 O   0  0  0  0  0  0  0  0  0  0  0  0
  -21.5800   -6.2750   22.4330 C   0  0  0  0  0  0  0  0  0  0  0  0
  -21.0890   -6.8320   23.6350 C   0  0  0  0  0  3  0  0  0  0  0  0
  -20.9430   -6.0220   24.7780 C   0  0  0  0  0  3  0  0  0  0  0  0
  -21.2770   -4.6550   24.7210 C   0  0  0  0  0  0  0  0  0  0  0  0
  -21.7620   -4.0980   23.5250 C   0  0  0  0  0  3  0  0  0  0  0  0
  -21.9090   -4.9050   22.3830 C   0  0  0  0  0  0  0  0  0  0  0  0
  -22.3560   -4.3570   21.2270 F   0  0  0  0  0  0  0  0  0  0  0  0
  -21.1300   -3.8750   25.8170 F   0  0  0  0  0  0  0  0  0  0  0  0
  -22.9950  -13.6220   21.3910 C   0  0  0  0  0  0  0  0  0  0  0  0
  -22.3420  -12.8710   22.2710 N   0  0  0  0  0  0  0  0  0  0  0  0
  -22.5460  -14.7080   21.0250 O   0  0  0  0  0  0  0  0  0  0  0  0
  -22.7210  -11.9890   22.5860 H   0  0  0  0  0  0  0  0  0  0  0  0
  -21.4510  -13.1800   22.6340 H   0  0  0  0  0  0  0  0  0  0  0  0
  -25.5810  -15.2670   20.4010 N   0  0  0  0  0  0  0  0  0  0  0  0
  -24.8640  -15.9400   20.6510 H   0  0  0  0  0  0  0  0  0  0  0  0
  -26.4140  -15.7000   20.0190 H   0  0  0  0  0  0  0  0  0  0  0  0
  -30.2210  -22.9130   21.3580 C   0  0  0  0  0  2  0  0  0  0  0  0
  -29.4500  -23.6270   20.2390 C   0  0  0  0  0  2  0  0  0  0  0  0
  -29.0260  -25.0390   20.6630 C   0  0  0  0  0  2  0  0  0  0  0  0
  -28.1470  -25.7410   19.6210 C   0  0  0  0  0  2  0  0  0  0  0  0
  -28.1250  -27.1350   19.9240 O   0  0  0  0  0  0  0  0  0  0  0  0
  -24.5020  -32.1170   23.4350 C   0  0  0  0  0  0  0  0  0  0  0  0
  -26.9240  -27.8050   20.0180 C   0  0  0  0  0  0  0  0  0  0  0  0
  -23.1830  -30.7750   21.8260 C   0  0  0  0  0  3  0  0  0  0  0  0
  -24.5330  -29.2960   20.2470 C   0  0  0  0  0  0  0  0  0  0  0  0
  -25.6870  -31.1460   21.4710 C   0  0  0  0  0  2  0  0  0  0  0  0
  -25.7250  -29.8000   20.7800 C   0  0  0  0  0  0  0  0  0  0  0  0
  -26.9210  -29.0590   20.6660 C   0  0  0  0  0  3  0  0  0  0  0  0
  -25.7140  -27.3160   19.4720 C   0  0  0  0  0  3  0  0  0  0  0  0
  -24.5190  -28.0520   19.5930 C   0  0  0  0  0  3  0  0  0  0  0  0
  -23.2990  -30.1550   20.4070 C   0  0  0  0  0  2  0  0  0  0  0  0
  -24.4790  -31.3580   22.3030 N   0  0  0  0  0  0  0  0  0  0  0  0
  -23.4600  -32.3730   24.0560 O   0  0  0  0  0  0  0  0  0  0  0  0
  -22.5970  -29.7160   22.7880 C   0  0  0  0  0  0  0  0  0  0  0  0
  -21.3080  -29.3900   22.6000 N   0  0  0  0  0  0  0  0  0  0  0  0
  -23.2990  -29.1960   23.6590 O   0  0  0  0  0  0  0  0  0  0  0  0
  -20.8040  -29.8680   21.8680 H   0  0  0  0  0  0  0  0  0  0  0  0
  -18.1060  -27.7330   22.8500 C   0  0  0  0  0  0  0  0  0  0  0  0
  -20.5550  -28.3920   23.3580 C   0  0  0  0  0  3  0  0  0  0  0  0
  -20.9260  -26.9580   22.9140 C   0  0  0  0  0  2  0  0  0  0  0  0
  -20.0020  -26.4060   21.8240 C   0  0  0  0  0  2  0  0  0  0  0  0
  -18.5510  -26.3830   22.3110 C   0  0  0  0  0  2  0  0  0  0  0  0
  -19.0490  -28.6820   23.3270 C   0  0  0  0  0  0  0  0  0  0  0  0
  -18.5890  -29.9370   23.7830 C   0  0  0  0  0  3  0  0  0  0  0  0
  -17.2160  -30.2470   23.7710 C   0  0  0  0  0  3  0  0  0  0  0  0
  -16.2860  -29.2970   23.3160 C   0  0  0  0  0  3  0  0  0  0  0  0
  -16.7300  -28.0430   22.8590 C   0  0  0  0  0  3  0  0  0  0  0  0
  -25.8300  -32.7220   23.9870 C   0  0  0  0  0  3  0  0  0  0  0  0
  -25.5820  -34.1410   24.2800 N   0  0  0  0  0  0  0  0  0  0  0  0
  -25.9200  -35.1550   23.4710 C   0  0  0  0  0  0  0  0  0  0  0  0
  -26.5460  -34.9950   22.4200 O   0  0  0  0  0  0  0  0  0  0  0  0
  -25.0280  -34.3420   25.0990 H   0  0  0  0  0  0  0  0  0  0  0  0
  -24.2430  -36.9910   23.1050 C   0  0  0  0  0  1  0  0  0  0  0  0
  -25.4930  -36.5730   23.8950 C   0  0  0  0  0  3  0  0  0  0  0  0
  -27.6740  -37.4140   24.6440 C   0  0  0  0  0  1  0  0  0  0  0  0
  -26.5580  -37.5840   23.7180 N   0  0  0  0  0  0  0  0  0  0  0  0
  -26.1860  -38.5230   23.8400 H   0  0  0  0  0  0  0  0  0  0  0  0
  -26.3720  -31.9740   25.2660 C   0  0  1  0  0  0  0  0  0  0  0  0
  -25.2940  -31.7400   26.3510 C   0  0  0  0  0  1  0  0  0  0  0  0
  -26.9540  -30.5940   24.8790 C   0  0  0  0  0  1  0  0  0  0  0  0
  -27.5230  -32.7880   25.9040 C   0  0  0  0  0  1  0  0  0  0  0  0
  1  3  2  0
  2 49  1  0
  2  1  1  0
  4  2  1  0
  5  6  1  0
  6  9  2  0
  7  5  2  0
  7 10  1  0
  8  9  1  0
  9  1  1  0
 10  8  2  0
 11 19  1  0
 12 17  1  0
 13 14  1  0
 13 12  1  0
 15 14  1  0
 15 24  1  0
 15 16  1  0
 17 11  1  0
 17 16  1  0
 18 11  2  0
 19 10  1  0
 19 20  1  0
 21 22  2  0
 22 41  1  0
 23 26  1  0
 23 22  1  0
 24 25  1  0
 24 21  1  0
 25 23  2  0
 26 27  1  0
 27 28  2  0
 29 32  1  0
 29 28  1  0
 30 29  2  0
 31 30  1  0
 31 26  2  0
 32 33  1  0
 33 34  1  0
 34 35  2  0
 36 35  1  0
 36 40  1  0
 37 36  2  0
 38 33  2  0
 38 37  1  0
 39 38  1  0
 41 42  1  0
 42 44  1  0
 42 45  1  0
 43 41  2  0
 46 21  1  0
 46 47  1  0
 48 46  1  0
 50 51  1  0
 50 49  1  0
 52 53  1  0
 52 51  1  0
 53 55  1  0
 54 65  2  0
 55 60  1  0
 56 64  1  0
 56 66  1  0
 57 63  1  0
 57 59  1  0
 58 64  1  0
 59 58  1  0
 60 59  2  0
 61 62  1  0
 61 55  2  0
 62 57  2  0
 63 56  1  0
 64 54  1  0
 66 68  2  0
 67 66  1  0
 69 67  1  0
 70 79  2  0
 70 75  1  0
 71 67  1  0
 72 71  1  0
 73 74  1  0
 73 72  1  0
 74 70  1  0
 75 71  1  0
 75 76  2  0
 77 76  1  0
 78 77  2  0
 79 78  1  0
 80 54  1  0
 80 81  1  0
 80 90  1  0
 81 84  1  0
 82 86  1  0
 82 81  1  0
 83 82  2  0
 86 85  1  0
 88 89  1  0
 88 86  1  0
 88 87  1  0
 90 93  1  1
 90 91  1  0
 92 90  1  0
M  ISO  4  11 100  19 100  52 101  53 101
M  END
>  <TORSDO>  (60) 
F 21

>  <SCORE>  (60) 
-11.874

>  <name>  (60) 
59

>  <ligand_id>  (60) 
59

>  <original_smiles>  (60) 
[H]c1c([H])c(C(=O)N([H])C([H])([H])C([H])([H])C([H])([H])C([H])([H])Oc2c([H])c([H])c3c(c2[H])C([H])([H])N(C(=O)C([H])(N([H])C(=O)C([H])(N([H])C([H])([H])[H])C([H])([H])[H])C(C([H])([H])[H])(C([H])([H])[H])C([H])([H])[H])C([H])(C(=O)N([H])C2([H])c4c([H])c([H])c([H])c([H])c4C([H])([H])C([H])([H])C2([H])[H])C3([H])[H])c([H])c(N([H])C(=O)N2C([H])([H])C([H])([H])C([H])([H])C([H])(n3nc(-c4c([H])c([H])c(Oc5c([H])c([H])c(F)c([H])c5F)c([H])c4[H])c(C(=O)N([H])[H])c3N([H])[H])C2([H])[H])c1[H]

>  <smiles>  (60) 
[H]c1c([H])c(C(=O)N([H])C([H])([H])C([H])([H])C([H])([H])C([H])([H])Oc2c([H])c([H])c3c(c2[H])C([H])([H])N(C(=O)C([H])(N([H])C(=O)C([H])(N([H])C([H])([H])[H])C([H])([H])[H])C(C([H])([H])[H])(C([H])([H])[H])C([H])([H])[H])C([H])(C(=O)N([H])C2([H])c4c([H])c([H])c([H])c([H])c4C([H])([H])C([H])([H])C2([H])[H])C3([H])[H])c([H])c(N([H])C(=O)N2C([H])([H])C([H])([H])C([H])([H])C([H])(n3nc(-c4c([H])c([H])c(Oc5c([H])c([H])c(F)c([H])c5F)c([H])c4[H])c(C(=O)N([H])[H])c3N([H])[H])C2([H])[H])c1[H]

$$$$
60:0:0
     RDKit          3D

 88 96  0  0  1  0  0  0  0  0999 V2000
  -29.8350  -22.3690   20.0930 C   0  0  0  0  0  3  0  0  0  0  0  0
  -27.7520  -21.6140   20.6940 C   0  0  0  0  0  3  0  0  0  0  0  0
  -30.2760  -20.9480   20.0280 C   0  0  0  0  0  3  0  0  0  0  0  0
  -28.1880  -20.1970   20.6290 C   0  0  0  0  0  3  0  0  0  0  0  0
  -28.5080  -22.8460   20.4360 C   0  0  0  0  0  0  0  0  0  0  0  0
  -29.5110  -19.7240   20.2850 C   0  0  0  0  0  0  0  0  0  0  0  0
  -27.7670  -24.3790   20.5860 C   0  0  0  0  0  0  0  0  0  0  0  0
  -26.6210  -24.2740   21.0330 O   0  0  0  0  0  0  0  0  0  0  0  0
  -28.2030  -25.9460   20.2910 O   0  0  0  0  0  0  0  0  0  0  0  0
  -24.6650  -31.9140   23.2540 C   0  0  0  0  0  0  0  0  0  0  0  0
  -27.2370  -27.0750   20.2380 C   0  0  0  0  0  0  0  0  0  0  0  0
  -23.4780  -30.5190   21.6100 C   0  0  0  0  0  3  0  0  0  0  0  0
  -24.9360  -28.9340   20.1870 C   0  0  0  0  0  0  0  0  0  0  0  0
  -26.0450  -30.7430   21.4740 C   0  0  0  0  0  2  0  0  0  0  0  0
  -26.1190  -29.3380   20.8200 C   0  0  0  0  0  0  0  0  0  0  0  0
  -27.2660  -28.4250   20.8340 C   0  0  0  0  0  3  0  0  0  0  0  0
  -26.0320  -26.8360   19.5340 C   0  0  0  0  0  3  0  0  0  0  0  0
  -24.9140  -27.7000   19.5260 C   0  0  0  0  0  3  0  0  0  0  0  0
  -23.7140  -29.8470   20.2320 C   0  0  0  0  0  2  0  0  0  0  0  0
  -24.7500  -31.0840   22.1660 N   0  0  0  0  0  0  0  0  0  0  0  0
  -23.5730  -32.1990   23.7720 O   0  0  0  0  0  0  0  0  0  0  0  0
  -22.7880  -29.5130   22.5690 C   0  0  0  0  0  0  0  0  0  0  0  0
  -21.4590  -29.3420   22.4390 N   0  0  0  0  0  0  0  0  0  0  0  0
  -23.4530  -28.8900   23.4010 O   0  0  0  0  0  0  0  0  0  0  0  0
  -20.9740  -29.8990   21.7480 H   0  0  0  0  0  0  0  0  0  0  0  0
  -18.0780  -28.1240   22.9380 C   0  0  0  0  0  0  0  0  0  0  0  0
  -20.6370  -28.4000   23.2070 C   0  0  0  0  0  3  0  0  0  0  0  0
  -20.7440  -26.9690   22.6330 C   0  0  0  0  0  2  0  0  0  0  0  0
  -19.6450  -26.6410   21.6170 C   0  0  0  0  0  2  0  0  0  0  0  0
  -18.2620  -26.7780   22.2600 C   0  0  0  0  0  2  0  0  0  0  0  0
  -19.1930  -28.8930   23.3710 C   0  0  0  0  0  0  0  0  0  0  0  0
  -18.9650  -30.1510   23.9700 C   0  0  0  0  0  3  0  0  0  0  0  0
  -17.6570  -30.6410   24.1390 C   0  0  0  0  0  3  0  0  0  0  0  0
  -16.5580  -29.8720   23.7210 C   0  0  0  0  0  3  0  0  0  0  0  0
  -16.7690  -28.6140   23.1280 C   0  0  0  0  0  3  0  0  0  0  0  0
  -25.9340  -32.5590   23.8870 C   0  0  0  0  0  3  0  0  0  0  0  0
  -25.6130  -33.9580   24.2170 N   0  0  0  0  0  0  0  0  0  0  0  0
  -25.9150  -35.0160   23.4520 C   0  0  0  0  0  0  0  0  0  0  0  0
  -26.5590  -34.9170   22.4050 O   0  0  0  0  0  0  0  0  0  0  0  0
  -25.0380  -34.1070   25.0330 H   0  0  0  0  0  0  0  0  0  0  0  0
  -24.1550  -36.7930   23.1600 C   0  0  0  0  0  1  0  0  0  0  0  0
  -25.4300  -36.4020   23.9230 C   0  0  0  0  0  3  0  0  0  0  0  0
  -27.5820  -37.3230   24.6710 C   0  0  0  0  0  1  0  0  0  0  0  0
  -26.4450  -37.4680   23.7660 N   0  0  0  0  0  0  0  0  0  0  0  0
  -26.0320  -38.3830   23.9240 H   0  0  0  0  0  0  0  0  0  0  0  0
  -26.4350  -31.7980   25.1770 C   0  0  1  0  0  0  0  0  0  0  0  0
  -25.3300  -31.5660   26.2340 C   0  0  0  0  0  1  0  0  0  0  0  0
  -27.0290  -30.4180   24.8110 C   0  0  0  0  0  1  0  0  0  0  0  0
  -27.5750  -32.6020   25.8480 C   0  0  0  0  0  1  0  0  0  0  0  0
  -30.2090  -18.1350   20.1960 C   0  0  0  0  0  2  0  0  0  0  0  0
  -30.4660  -15.2870   20.1210 C   0  0  0  0  0  0  0  0  0  0  0  0
  -30.3520  -12.8860   19.1820 C   0  0  0  0  0  2  0  0  0  0  0  0
  -29.3810  -12.7440   17.9830 C   0  0  0  0  0  2  0  0  0  0  0  0
  -27.9500  -12.4770   18.4790 C   0  0  0  0  0  2  0  0  0  0  0  0
  -27.5550  -13.4150   19.6470 C   0  0  0  0  0  3  0  0  0  0  0  0
  -28.6490  -13.5190   20.7310 C   0  0  0  0  0  2  0  0  0  0  0  0
  -29.8640  -14.0050   20.0620 N   0  0  0  0  0  0  0  0  0  0  0  0
  -31.6690  -15.2810   19.8340 O   0  0  0  0  0  0  0  0  0  0  0  0
  -29.7500  -16.5600   20.2940 N   0  0  0  0  0  0  0  0  0  0  0  0
  -28.7670  -16.4370   20.4840 H   0  0  0  0  0  0  0  0  0  0  0  0
  -25.2170  -13.9600   20.5110 C   0  0  0  0  0  0  0  0  0  0  0  0
  -24.1690  -13.1750   20.9020 C   0  0  0  0  0  0  0  0  0  0  0  0
  -24.6300  -11.8260   20.8160 C   0  0  0  0  0  0  0  0  0  0  0  0
  -26.2470  -13.0910   20.2020 N   0  0  0  0  0  0  0  0  0  0  0  0
  -25.9090  -11.7990   20.4530 N   0  0  0  0  0  0  0  0  0  0  0  0
  -23.9090  -10.5600   20.9980 C   0  0  0  0  0  0  0  0  0  0  0  0
  -24.3450   -9.5850   21.9230 C   0  0  0  0  0  3  0  0  0  0  0  0
  -23.6190   -8.3870   22.0970 C   0  0  0  0  0  3  0  0  0  0  0  0
  -22.4430   -8.1530   21.3450 C   0  0  0  0  0  0  0  0  0  0  0  0
  -22.0260   -9.1160   20.4100 C   0  0  0  0  0  3  0  0  0  0  0  0
  -22.7520  -10.3060   20.2340 C   0  0  0  0  0  3  0  0  0  0  0  0
  -21.6890   -7.0080   21.4280 O   0  0  0  0  0  0  0  0  0  0  0  0
  -21.6060   -6.2830   22.5910 C   0  0  0  0  0  0  0  0  0  0  0  0
  -21.1030   -6.8460   23.7840 C   0  0  0  0  0  3  0  0  0  0  0  0
  -20.9690   -6.0470   24.9370 C   0  0  0  0  0  3  0  0  0  0  0  0
  -21.3280   -4.6870   24.8980 C   0  0  0  0  0  0  0  0  0  0  0  0
  -21.8250   -4.1240   23.7090 C   0  0  0  0  0  3  0  0  0  0  0  0
  -21.9600   -4.9200   22.5570 C   0  0  0  0  0  0  0  0  0  0  0  0
  -22.4190   -4.3680   21.4090 F   0  0  0  0  0  0  0  0  0  0  0  0
  -21.1930   -3.9170   26.0020 F   0  0  0  0  0  0  0  0  0  0  0  0
  -22.7840  -13.6460   21.2380 C   0  0  0  0  0  0  0  0  0  0  0  0
  -22.0890  -12.9300   22.1130 N   0  0  0  0  0  0  0  0  0  0  0  0
  -22.3300  -14.6850   20.7600 O   0  0  0  0  0  0  0  0  0  0  0  0
  -22.4720  -12.0890   22.5200 H   0  0  0  0  0  0  0  0  0  0  0  0
  -21.1620  -13.2250   22.3810 H   0  0  0  0  0  0  0  0  0  0  0  0
  -25.3730  -15.3350   20.3630 N   0  0  0  0  0  0  0  0  0  0  0  0
  -24.6060  -15.9820   20.5130 H   0  0  0  0  0  0  0  0  0  0  0  0
  -26.1950  -15.7820   19.9780 H   0  0  0  0  0  0  0  0  0  0  0  0
  1  5  1  0
  3  1  2  0
  3  6  1  0
  4  2  1  0
  5  7  1  0
  5  2  2  0
  6  4  2  0
  7  8  2  0
  9  7  1  0
 10 21  2  0
 11  9  1  0
 11 16  1  0
 12 20  1  0
 12 22  1  0
 13 19  1  0
 13 15  1  0
 14 20  1  0
 15 16  2  0
 15 14  1  0
 17 11  2  0
 18 17  1  0
 18 13  2  0
 19 12  1  0
 20 10  1  0
 22 24  2  0
 23 22  1  0
 25 23  1  0
 26 35  2  0
 26 31  1  0
 27 23  1  0
 27 31  1  0
 28 27  1  0
 29 30  1  0
 29 28  1  0
 30 26  1  0
 31 32  2  0
 32 33  1  0
 34 33  2  0
 35 34  1  0
 36 10  1  0
 36 37  1  0
 36 46  1  0
 37 40  1  0
 38 42  1  0
 38 37  1  0
 39 38  2  0
 42 41  1  0
 44 42  1  0
 44 45  1  0
 44 43  1  0
 46 49  1  1
 46 47  1  0
 48 46  1  0
 50  6  1  0
 50 59  1  0
 51 59  1  0
 52 57  1  0
 53 54  1  0
 53 52  1  0
 55 54  1  0
 55 64  1  0
 55 56  1  0
 57 51  1  0
 57 56  1  0
 58 51  2  0
 59 60  1  0
 61 62  2  0
 62 81  1  0
 63 62  1  0
 63 66  1  0
 64 65  1  0
 64 61  1  0
 65 63  2  0
 66 67  1  0
 67 68  2  0
 69 72  1  0
 69 68  1  0
 70 69  2  0
 71 70  1  0
 71 66  2  0
 72 73  1  0
 73 74  1  0
 74 75  2  0
 76 75  1  0
 76 80  1  0
 77 76  2  0
 78 73  2  0
 78 77  1  0
 79 78  1  0
 81 82  1  0
 82 85  1  0
 82 84  1  0
 83 81  2  0
 86 61  1  0
 86 87  1  0
 88 86  1  0
M  ISO  4   7 101   9 101  51 100  59 100
M  END
>  <TORSDO>  (61) 
F 18

>  <SCORE>  (61) 
-16.310

>  <name>  (61) 
60

>  <ligand_id>  (61) 
60

>  <original_smiles>  (61) 
[H]c1c([H])c([H])c2c(c1[H])C([H])([H])C([H])([H])C([H])([H])C2([H])N([H])C(=O)C1([H])N(C(=O)C([H])(N([H])C(=O)C([H])(N([H])C([H])([H])[H])C([H])([H])[H])C(C([H])([H])[H])(C([H])([H])[H])C([H])([H])[H])C([H])([H])c2c([H])c(OC(=O)c3c([H])c([H])c(C([H])([H])N([H])C(=O)N4C([H])([H])C([H])([H])C([H])([H])C([H])(n5nc(-c6c([H])c([H])c(Oc7c([H])c([H])c(F)c([H])c7F)c([H])c6[H])c(C(=O)N([H])[H])c5N([H])[H])C4([H])[H])c([H])c3[H])c([H])c([H])c2C1([H])[H]

>  <smiles>  (61) 
[H]c1c([H])c([H])c2c(c1[H])C([H])([H])C([H])([H])C([H])([H])C2([H])N([H])C(=O)C1([H])N(C(=O)C([H])(N([H])C(=O)C([H])(N([H])C([H])([H])[H])C([H])([H])[H])C(C([H])([H])[H])(C([H])([H])[H])C([H])([H])[H])C([H])([H])c2c([H])c(OC(=O)c3c([H])c([H])c(C([H])([H])N([H])C(=O)N4C([H])([H])C([H])([H])C([H])([H])C([H])(n5nc(-c6c([H])c([H])c(Oc7c([H])c([H])c(F)c([H])c7F)c([H])c6[H])c(C(=O)N([H])[H])c5N([H])[H])C4([H])[H])c([H])c3[H])c([H])c([H])c2C1([H])[H]

$$$$
61:0:0
     RDKit          3D

 90 98  0  0  1  0  0  0  0  0999 V2000
  -29.6470  -22.0000   20.6810 C   0  0  0  0  0  2  0  0  0  0  0  0
  -28.8430  -23.3070   20.4230 C   0  0  0  0  0  2  0  0  0  0  0  0
  -29.4090  -24.5650   21.1330 C   0  0  0  0  0  2  0  0  0  0  0  0
  -28.4280  -25.7610   21.2880 C   0  0  0  0  0  2  0  0  0  0  0  0
  -28.3950  -26.6750   20.1820 O   0  0  0  0  0  0  0  0  0  0  0  0
  -24.6030  -31.8870   23.2550 C   0  0  0  0  0  0  0  0  0  0  0  0
  -27.2580  -27.4510   20.1750 C   0  0  0  0  0  0  0  0  0  0  0  0
  -23.4000  -30.4840   21.6100 C   0  0  0  0  0  3  0  0  0  0  0  0
  -24.8610  -28.9510   20.1840 C   0  0  0  0  0  0  0  0  0  0  0  0
  -25.9260  -30.8480   21.4150 C   0  0  0  0  0  2  0  0  0  0  0  0
  -26.0170  -29.4770   20.7750 C   0  0  0  0  0  0  0  0  0  0  0  0
  -27.2210  -28.7340   20.7710 C   0  0  0  0  0  3  0  0  0  0  0  0
  -26.0900  -26.9400   19.5750 C   0  0  0  0  0  3  0  0  0  0  0  0
  -24.8920  -27.6800   19.5810 C   0  0  0  0  0  3  0  0  0  0  0  0
  -23.6130  -29.8050   20.2300 C   0  0  0  0  0  2  0  0  0  0  0  0
  -24.6610  -31.0880   22.1520 N   0  0  0  0  0  0  0  0  0  0  0  0
  -23.5210  -32.1570   23.7950 O   0  0  0  0  0  0  0  0  0  0  0  0
  -22.7500  -29.4620   22.5700 C   0  0  0  0  0  0  0  0  0  0  0  0
  -21.4250  -29.2810   22.4440 N   0  0  0  0  0  0  0  0  0  0  0  0
  -23.4330  -28.8350   23.3830 O   0  0  0  0  0  0  0  0  0  0  0  0
  -20.9340  -29.8390   21.7590 H   0  0  0  0  0  0  0  0  0  0  0  0
  -18.0480  -28.0940   22.9460 C   0  0  0  0  0  0  0  0  0  0  0  0
  -20.6080  -28.3420   23.2120 C   0  0  0  0  0  3  0  0  0  0  0  0
  -20.7040  -26.9130   22.6290 C   0  0  0  0  0  2  0  0  0  0  0  0
  -19.5980  -26.5980   21.6170 C   0  0  0  0  0  2  0  0  0  0  0  0
  -18.2190  -26.7450   22.2650 C   0  0  0  0  0  2  0  0  0  0  0  0
  -19.1710  -28.8500   23.3770 C   0  0  0  0  0  0  0  0  0  0  0  0
  -18.9580  -30.1110   23.9730 C   0  0  0  0  0  3  0  0  0  0  0  0
  -17.6550  -30.6170   24.1430 C   0  0  0  0  0  3  0  0  0  0  0  0
  -16.5470  -29.8580   23.7300 C   0  0  0  0  0  3  0  0  0  0  0  0
  -16.7450  -28.5970   23.1380 C   0  0  0  0  0  3  0  0  0  0  0  0
  -25.8880  -32.5190   23.8760 C   0  0  0  0  0  3  0  0  0  0  0  0
  -25.5820  -33.9190   24.1980 N   0  0  0  0  0  0  0  0  0  0  0  0
  -25.9200  -34.9670   23.4350 C   0  0  0  0  0  0  0  0  0  0  0  0
  -26.5950  -34.8560   22.4080 O   0  0  0  0  0  0  0  0  0  0  0  0
  -24.9840  -34.0790   24.9950 H   0  0  0  0  0  0  0  0  0  0  0  0
  -24.1980  -36.7610   23.0600 C   0  0  0  0  0  1  0  0  0  0  0  0
  -25.4320  -36.3580   23.8820 C   0  0  0  0  0  3  0  0  0  0  0  0
  -27.5650  -37.2390   24.7230 C   0  0  0  0  0  1  0  0  0  0  0  0
  -26.4680  -37.4080   23.7730 N   0  0  0  0  0  0  0  0  0  0  0  0
  -26.0630  -38.3290   23.9180 H   0  0  0  0  0  0  0  0  0  0  0  0
  -26.4030  -31.7510   25.1540 C   0  0  1  0  0  0  0  0  0  0  0  0
  -25.3110  -31.5170   26.2230 C   0  0  0  0  0  1  0  0  0  0  0  0
  -26.9860  -30.3720   24.7650 C   0  0  0  0  0  1  0  0  0  0  0  0
  -27.5550  -32.5450   25.8150 C   0  0  0  0  0  1  0  0  0  0  0  0
  -29.0300  -20.9170   19.9790 O   0  0  0  0  0  0  0  0  0  0  0  0
  -28.8060  -17.2360   19.9120 C   0  0  0  0  0  3  0  0  0  0  0  0
  -30.6640  -17.8150   21.3650 C   0  0  0  0  0  3  0  0  0  0  0  0
  -28.5840  -18.6040   19.6560 C   0  0  0  0  0  3  0  0  0  0  0  0
  -30.4340  -19.1910   21.1090 C   0  0  0  0  0  3  0  0  0  0  0  0
  -29.8440  -16.8240   20.7750 C   0  0  0  0  0  0  0  0  0  0  0  0
  -29.3730  -19.6040   20.2610 C   0  0  0  0  0  0  0  0  0  0  0  0
  -30.6440  -14.5020   20.4870 C   0  0  0  0  0  0  0  0  0  0  0  0
  -30.3760  -12.3470   19.3070 C   0  0  0  0  0  2  0  0  0  0  0  0
  -29.4250  -12.5620   18.1100 C   0  0  0  0  0  2  0  0  0  0  0  0
  -27.9510  -12.4190   18.5390 C   0  0  0  0  0  2  0  0  0  0  0  0
  -27.6180  -13.2380   19.8150 C   0  0  0  0  0  3  0  0  0  0  0  0
  -28.6750  -12.9850   20.9140 C   0  0  0  0  0  2  0  0  0  0  0  0
  -30.0010  -13.3070   20.3570 N   0  0  0  0  0  0  0  0  0  0  0  0
  -31.7510  -14.7300   19.9870 O   0  0  0  0  0  0  0  0  0  0  0  0
  -29.9400  -15.4470   21.1360 N   0  0  0  0  0  0  0  0  0  0  0  0
  -29.0990  -15.0650   21.5410 H   0  0  0  0  0  0  0  0  0  0  0  0
  -25.2150  -13.8540   20.5080 C   0  0  0  0  0  0  0  0  0  0  0  0
  -24.1460  -13.0850   20.8810 C   0  0  0  0  0  0  0  0  0  0  0  0
  -24.6070  -11.7330   20.8590 C   0  0  0  0  0  0  0  0  0  0  0  0
  -26.2620  -12.9700   20.2890 N   0  0  0  0  0  0  0  0  0  0  0  0
  -25.8970  -11.6900   20.5550 N   0  0  0  0  0  0  0  0  0  0  0  0
  -23.8800  -10.4720   21.0550 C   0  0  0  0  0  0  0  0  0  0  0  0
  -24.3150   -9.5080   21.9910 C   0  0  0  0  0  3  0  0  0  0  0  0
  -23.5900   -8.3120   22.1750 C   0  0  0  0  0  3  0  0  0  0  0  0
  -22.4170   -8.0700   21.4220 C   0  0  0  0  0  0  0  0  0  0  0  0
  -22.0000   -9.0230   20.4760 C   0  0  0  0  0  3  0  0  0  0  0  0
  -22.7250  -10.2120   20.2900 C   0  0  0  0  0  3  0  0  0  0  0  0
  -21.6630   -6.9250   21.5150 O   0  0  0  0  0  0  0  0  0  0  0  0
  -21.6230   -6.1820   22.6680 C   0  0  0  0  0  0  0  0  0  0  0  0
  -21.2060   -6.7360   23.8980 C   0  0  0  0  0  3  0  0  0  0  0  0
  -21.1130   -5.9190   25.0420 C   0  0  0  0  0  3  0  0  0  0  0  0
  -21.4270   -4.5480   24.9580 C   0  0  0  0  0  0  0  0  0  0  0  0
  -21.8360   -3.9950   23.7320 C   0  0  0  0  0  3  0  0  0  0  0  0
  -21.9310   -4.8090   22.5890 C   0  0  0  0  0  0  0  0  0  0  0  0
  -22.3070   -4.2660   21.4070 F   0  0  0  0  0  0  0  0  0  0  0  0
  -21.3300   -3.7620   26.0540 F   0  0  0  0  0  0  0  0  0  0  0  0
  -22.7480  -13.5650   21.1490 C   0  0  0  0  0  0  0  0  0  0  0  0
  -22.0180  -12.8730   22.0170 N   0  0  0  0  0  0  0  0  0  0  0  0
  -22.3110  -14.5880   20.6230 O   0  0  0  0  0  0  0  0  0  0  0  0
  -22.3840  -12.0450   22.4640 H   0  0  0  0  0  0  0  0  0  0  0  0
  -21.0810  -13.1780   22.2390 H   0  0  0  0  0  0  0  0  0  0  0  0
  -25.3780  -15.2240   20.3220 N   0  0  0  0  0  0  0  0  0  0  0  0
  -24.6070  -15.8740   20.4240 H   0  0  0  0  0  0  0  0  0  0  0  0
  -26.2270  -15.6660   19.9960 H   0  0  0  0  0  0  0  0  0  0  0  0
  2  1  1  0
  2  3  1  0
  3  4  1  0
  5  4  1  0
  6 17  2  0
  7  5  1  0
  7 12  1  0
  8 16  1  0
  8 18  1  0
  9 15  1  0
  9 11  1  0
 10 16  1  0
 11 10  1  0
 12 11  2  0
 13 14  1  0
 13  7  2  0
 14  9  2  0
 15  8  1  0
 16  6  1  0
 18 20  2  0
 19 18  1  0
 21 19  1  0
 22 31  2  0
 22 27  1  0
 23 19  1  0
 23 27  1  0
 24 23  1  0
 25 26  1  0
 25 24  1  0
 26 22  1  0
 27 28  2  0
 28 29  1  0
 30 29  2  0
 31 30  1  0
 32  6  1  0
 32 33  1  0
 32 42  1  0
 33 36  1  0
 34 38  1  0
 34 33  1  0
 35 34  2  0
 38 37  1  0
 40 38  1  0
 40 41  1  0
 40 39  1  0
 42 45  1  1
 42 43  1  0
 44 42  1  0
 46 52  1  0
 46  1  1  0
 47 51  1  0
 49 47  2  0
 49 52  1  0
 50 48  1  0
 51 61  1  0
 51 48  2  0
 52 50  2  0
 53 61  1  0
 54 59  1  0
 55 56  1  0
 55 54  1  0
 57 56  1  0
 57 66  1  0
 57 58  1  0
 59 53  1  0
 59 58  1  0
 60 53  2  0
 61 62  1  0
 63 64  2  0
 64 83  1  0
 65 64  1  0
 65 68  1  0
 66 63  1  0
 66 67  1  0
 67 65  2  0
 68 69  1  0
 69 70  2  0
 71 74  1  0
 71 70  1  0
 72 71  2  0
 73 72  1  0
 73 68  2  0
 74 75  1  0
 75 76  1  0
 76 77  2  0
 78 77  1  0
 78 82  1  0
 79 78  2  0
 80 75  2  0
 80 79  1  0
 81 80  1  0
 83 84  1  0
 84 87  1  0
 84 86  1  0
 85 83  2  0
 88 89  1  0
 88 63  1  0
 90 88  1  0
M  ISO  4   4 101   5 101  53 100  61 100
M  END
>  <TORSDO>  (62) 
F 21

>  <SCORE>  (62) 
-13.693

>  <name>  (62) 
61

>  <ligand_id>  (62) 
61

>  <original_smiles>  (62) 
[H]c1c([H])c([H])c2c(c1[H])C([H])([H])C([H])([H])C([H])([H])C2([H])N([H])C(=O)C1([H])N(C(=O)C([H])(N([H])C(=O)C([H])(N([H])C([H])([H])[H])C([H])([H])[H])C(C([H])([H])[H])(C([H])([H])[H])C([H])([H])[H])C([H])([H])c2c([H])c(OC([H])([H])C([H])([H])C([H])([H])C([H])([H])Oc3c([H])c([H])c(N([H])C(=O)N4C([H])([H])C([H])([H])C([H])([H])C([H])(n5nc(-c6c([H])c([H])c(Oc7c([H])c([H])c(F)c([H])c7F)c([H])c6[H])c(C(=O)N([H])[H])c5N([H])[H])C4([H])[H])c([H])c3[H])c([H])c([H])c2C1([H])[H]

>  <smiles>  (62) 
[H]c1c([H])c([H])c2c(c1[H])C([H])([H])C([H])([H])C([H])([H])C2([H])N([H])C(=O)C1([H])N(C(=O)C([H])(N([H])C(=O)C([H])(N([H])C([H])([H])[H])C([H])([H])[H])C(C([H])([H])[H])(C([H])([H])[H])C([H])([H])[H])C([H])([H])c2c([H])c(OC([H])([H])C([H])([H])C([H])([H])C([H])([H])Oc3c([H])c([H])c(N([H])C(=O)N4C([H])([H])C([H])([H])C([H])([H])C([H])(n5nc(-c6c([H])c([H])c(Oc7c([H])c([H])c(F)c([H])c7F)c([H])c6[H])c(C(=O)N([H])[H])c5N([H])[H])C4([H])[H])c([H])c3[H])c([H])c([H])c2C1([H])[H]

$$$$
62:0:0
     RDKit          3D

100109  0  0  1  0  0  0  0  0999 V2000
  -24.5050  -24.4910   23.0970 C   0  0  0  0  0  3  0  0  0  0  0  0
  -25.5170  -23.5630   23.4000 C   0  0  0  0  0  3  0  0  0  0  0  0
  -24.8480  -25.7720   22.6360 C   0  0  0  0  0  3  0  0  0  0  0  0
  -27.2230  -25.1840   22.7370 C   0  0  0  0  0  3  0  0  0  0  0  0
  -26.8810  -23.8980   23.2300 C   0  0  0  0  0  0  0  0  0  0  0  0
  -26.2010  -26.1220   22.4510 C   0  0  0  0  0  0  0  0  0  0  0  0
  -26.2030  -28.0060   20.8180 C   0  0  0  0  0  0  0  0  0  0  0  0
  -26.4550  -27.4590   22.0730 N   0  0  0  0  0  0  0  0  0  0  0  0
  -26.5870  -27.5460   19.7420 O   0  0  0  0  0  0  0  0  0  0  0  0
  -26.2410  -28.1270   22.8000 H   0  0  0  0  0  0  0  0  0  0  0  0
  -25.5380  -29.2090   20.9220 O   0  0  0  0  0  0  0  0  0  0  0  0
  -27.6510  -32.9280   26.5900 C   0  0  0  0  0  0  0  0  0  0  0  0
  -25.2030  -29.6980   22.1670 C   0  0  0  0  0  0  0  0  0  0  0  0
  -25.6690  -31.4840   26.9180 C   0  0  0  0  0  3  0  0  0  0  0  0
  -24.6240  -30.5390   24.7920 C   0  0  0  0  0  0  0  0  0  0  0  0
  -26.1990  -32.4760   24.6210 C   0  0  0  0  0  2  0  0  0  0  0  0
  -25.5370  -31.2610   24.0100 C   0  0  0  0  0  0  0  0  0  0  0  0
  -25.8240  -30.8520   22.6910 C   0  0  0  0  0  3  0  0  0  0  0  0
  -24.2700  -28.9900   22.9540 C   0  0  0  0  0  3  0  0  0  0  0  0
  -23.9870  -29.4020   24.2690 C   0  0  0  0  0  3  0  0  0  0  0  0
  -24.3680  -31.0470   26.1910 C   0  0  0  0  0  2  0  0  0  0  0  0
  -26.5700  -32.3050   26.0450 N   0  0  0  0  0  0  0  0  0  0  0  0
  -27.8800  -32.8650   27.8070 O   0  0  0  0  0  0  0  0  0  0  0  0
  -26.3570  -30.2270   27.4950 C   0  0  0  0  0  0  0  0  0  0  0  0
  -25.8520  -29.7420   28.6410 N   0  0  0  0  0  0  0  0  0  0  0  0
  -27.2990  -29.6930   26.9030 O   0  0  0  0  0  0  0  0  0  0  0  0
  -25.0840  -30.2420   29.0670 H   0  0  0  0  0  0  0  0  0  0  0  0
  -25.2800  -27.6790   31.5490 C   0  0  0  0  0  0  0  0  0  0  0  0
  -26.3170  -28.5500   29.3480 C   0  0  0  0  0  3  0  0  0  0  0  0
  -25.7650  -27.2620   28.6950 C   0  0  0  0  0  2  0  0  0  0  0  0
  -24.4580  -26.7790   29.3310 C   0  0  0  0  0  2  0  0  0  0  0  0
  -24.6560  -26.4980   30.8240 C   0  0  0  0  0  2  0  0  0  0  0  0
  -26.0470  -28.6510   30.8530 C   0  0  0  0  0  0  0  0  0  0  0  0
  -26.5760  -29.7470   31.5670 C   0  0  0  0  0  3  0  0  0  0  0  0
  -26.3530  -29.8810   32.9500 C   0  0  0  0  0  3  0  0  0  0  0  0
  -25.6060  -28.9090   33.6380 C   0  0  0  0  0  3  0  0  0  0  0  0
  -25.0760  -27.8090   32.9390 C   0  0  0  0  0  3  0  0  0  0  0  0
  -28.6380  -33.7690   25.7190 C   0  0  0  0  0  3  0  0  0  0  0  0
  -29.9660  -32.9980   25.3620 C   0  0  1  0  0  0  0  0  0  0  0  0
  -30.6720  -32.3810   26.5910 C   0  0  0  0  0  1  0  0  0  0  0  0
  -29.6820  -31.8580   24.3570 C   0  0  0  0  0  1  0  0  0  0  0  0
  -30.9600  -33.9610   24.6720 C   0  0  0  0  0  1  0  0  0  0  0  0
  -28.9310  -35.0030   26.4560 N   0  0  0  0  0  0  0  0  0  0  0  0
  -28.3590  -36.1890   26.2120 C   0  0  0  0  0  0  0  0  0  0  0  0
  -27.5680  -36.3740   25.2830 O   0  0  0  0  0  0  0  0  0  0  0  0
  -29.5270  -34.9150   27.2650 H   0  0  0  0  0  0  0  0  0  0  0  0
  -27.6060  -37.5400   28.1940 C   0  0  0  0  0  1  0  0  0  0  0  0
  -28.7190  -37.3560   27.1500 C   0  0  0  0  0  3  0  0  0  0  0  0
  -30.1420  -38.6150   25.5960 C   0  0  0  0  0  1  0  0  0  0  0  0
  -28.9510  -38.6330   26.4410 N   0  0  0  0  0  0  0  0  0  0  0  0
  -29.0420  -39.4010   27.1000 H   0  0  0  0  0  0  0  0  0  0  0  0
  -27.9180  -22.9160   23.7010 C   0  0  0  0  0  0  0  0  0  0  0  0
  -29.0600  -22.8180   23.0070 N   0  0  0  0  0  0  0  0  0  0  0  0
  -27.6820  -22.2100   24.6850 O   0  0  0  0  0  0  0  0  0  0  0  0
  -29.1920  -23.4030   22.1950 H   0  0  0  0  0  0  0  0  0  0  0  0
  -30.1570  -21.9390   23.4210 C   0  0  0  0  0  2  0  0  0  0  0  0
  -30.4770  -21.2750   20.9590 C   0  0  0  0  0  3  0  0  0  0  0  0
  -32.0980  -20.5320   22.6150 C   0  0  0  0  0  3  0  0  0  0  0  0
  -31.2060  -20.6070   19.9580 C   0  0  0  0  0  3  0  0  0  0  0  0
  -32.8310  -19.8590   21.6170 C   0  0  0  0  0  3  0  0  0  0  0  0
  -30.9240  -21.2500   22.2960 C   0  0  0  0  0  0  0  0  0  0  0  0
  -32.3830  -19.8990   20.2770 C   0  0  0  0  0  0  0  0  0  0  0  0
  -34.1780  -18.5410   19.2190 C   0  0  0  0  0  0  0  0  0  0  0  0
  -34.4740  -16.3990   18.0790 C   0  0  0  0  0  2  0  0  0  0  0  0
  -33.3640  -16.2970   17.0100 C   0  0  0  0  0  2  0  0  0  0  0  0
  -32.0820  -15.6820   17.6060 C   0  0  0  0  0  2  0  0  0  0  0  0
  -31.6590  -16.3490   18.9420 C   0  0  0  0  0  3  0  0  0  0  0  0
  -32.8610  -16.5070   19.9010 C   0  0  0  0  0  2  0  0  0  0  0  0
  -33.9340  -17.2080   19.1760 N   0  0  0  0  0  0  0  0  0  0  0  0
  -35.2000  -19.0640   18.7760 O   0  0  0  0  0  0  0  0  0  0  0  0
  -33.0600  -19.2780   19.2000 N   0  0  0  0  0  0  0  0  0  0  0  0
  -33.0060  -19.8280   18.3560 H   0  0  0  0  0  0  0  0  0  0  0  0
  -29.3520  -16.1380   20.0610 C   0  0  0  0  0  0  0  0  0  0  0  0
  -28.6330  -15.0470   20.4720 C   0  0  0  0  0  0  0  0  0  0  0  0
  -29.4540  -13.9080   20.1990 C   0  0  0  0  0  0  0  0  0  0  0  0
  -30.5500  -15.6380   19.5720 N   0  0  0  0  0  0  0  0  0  0  0  0
  -30.6260  -14.2900   19.7090 N   0  0  0  0  0  0  0  0  0  0  0  0
  -29.1700  -12.4740   20.3230 C   0  0  0  0  0  0  0  0  0  0  0  0
  -30.0500  -11.6050   21.0030 C   0  0  0  0  0  3  0  0  0  0  0  0
  -29.7500  -10.2300   21.1220 C   0  0  0  0  0  3  0  0  0  0  0  0
  -28.5560   -9.7150   20.5600 C   0  0  0  0  0  0  0  0  0  0  0  0
  -27.6960  -10.5810   19.8610 C   0  0  0  0  0  3  0  0  0  0  0  0
  -28.0000  -11.9460   19.7400 C   0  0  0  0  0  3  0  0  0  0  0  0
  -28.1920   -8.3900   20.6050 O   0  0  0  0  0  0  0  0  0  0  0  0
  -28.6400   -7.5520   21.5950 C   0  0  0  0  0  0  0  0  0  0  0  0
  -28.5140   -7.8800   22.9630 C   0  0  0  0  0  3  0  0  0  0  0  0
  -28.9260   -6.9610   23.9470 C   0  0  0  0  0  3  0  0  0  0  0  0
  -29.4540   -5.7130   23.5700 C   0  0  0  0  0  0  0  0  0  0  0  0
  -29.5760   -5.3810   22.2080 C   0  0  0  0  0  3  0  0  0  0  0  0
  -29.1700   -6.2990   21.2240 C   0  0  0  0  0  0  0  0  0  0  0  0
  -29.2720   -5.9670   19.9150 F   0  0  0  0  0  0  0  0  0  0  0  0
  -29.8400   -4.8260   24.5170 F   0  0  0  0  0  0  0  0  0  0  0  0
  -27.2270  -15.0490   21.0020 C   0  0  0  0  0  0  0  0  0  0  0  0
  -26.8980  -14.0960   21.8660 N   0  0  0  0  0  0  0  0  0  0  0  0
  -26.4260  -15.9270   20.6860 O   0  0  0  0  0  0  0  0  0  0  0  0
  -27.5640  -13.3910   22.1460 H   0  0  0  0  0  0  0  0  0  0  0  0
  -25.9680  -14.0670   22.2560 H   0  0  0  0  0  0  0  0  0  0  0  0
  -29.0830  -17.5030   20.0420 N   0  0  0  0  0  0  0  0  0  0  0  0
  -28.2060  -17.8930   20.3670 H   0  0  0  0  0  0  0  0  0  0  0  0
  -29.7300  -18.2070   19.7080 H   0  0  0  0  0  0  0  0  0  0  0  0
  1  2  1  0
  3  1  2  0
  4  5  1  0
  5  2  2  0
  5 52  1  0
  6  3  1  0
  6  4  2  0
  7 11  1  0
  7  8  1  0
  8  6  1  0
  8 10  1  0
  9  7  2  0
 11 13  1  0
 12 23  2  0
 13 18  2  0
 13 19  1  0
 14 24  1  0
 15 21  1  0
 16 22  1  0
 17 16  1  0
 17 15  2  0
 18 17  1  0
 19 20  2  0
 20 15  1  0
 21 14  1  0
 22 12  1  0
 22 14  1  0
 24 25  1  0
 25 27  1  0
 26 24  2  0
 28 37  1  0
 29 25  1  0
 29 33  1  0
 30 31  1  0
 30 29  1  0
 31 32  1  0
 32 28  1  0
 33 28  2  0
 33 34  1  0
 34 35  2  0
 35 36  1  0
 37 36  2  0
 38 43  1  0
 38 12  1  0
 39 38  1  0
 39 40  1  1
 41 39  1  0
 42 39  1  0
 43 46  1  0
 44 43  1  0
 44 48  1  0
 45 44  2  0
 48 47  1  0
 49 50  1  0
 50 51  1  0
 50 48  1  0
 52 54  2  0
 53 56  1  0
 53 52  1  0
 55 53  1  0
 57 61  1  0
 59 62  1  0
 59 57  2  0
 60 58  1  0
 61 58  2  0
 61 56  1  0
 62 60  2  0
 64 69  1  0
 65 66  1  0
 65 64  1  0
 67 66  1  0
 67 76  1  0
 67 68  1  0
 69 63  1  0
 69 68  1  0
 70 63  2  0
 71 63  1  0
 71 62  1  0
 72 71  1  0
 73 74  2  0
 74 93  1  0
 75 78  1  0
 75 74  1  0
 76 77  1  0
 76 73  1  0
 77 75  2  0
 78 79  1  0
 79 80  2  0
 81 84  1  0
 81 80  1  0
 82 81  2  0
 83 82  1  0
 83 78  2  0
 84 85  1  0
 85 86  1  0
 86 87  2  0
 88 87  1  0
 88 92  1  0
 89 88  2  0
 90 85  2  0
 90 89  1  0
 91 90  1  0
 93 94  1  0
 94 96  1  0
 94 97  1  0
 95 93  2  0
 98 73  1  0
 98 99  1  0
100 98  1  0
M  ISO  4   7 101  11 101  63 100  71 100
M  END
>  <TORSDO>  (63) 
F 20

>  <SCORE>  (63) 
8.884

>  <name>  (63) 
62

>  <ligand_id>  (63) 
62

>  <original_smiles>  (63) 
[H]c1c([H])c(C(=O)N([H])C([H])([H])c2c([H])c([H])c(N([H])C(=O)N3C([H])([H])C([H])([H])C([H])([H])C([H])(n4nc(-c5c([H])c([H])c(Oc6c([H])c([H])c(F)c([H])c6F)c([H])c5[H])c(C(=O)N([H])[H])c4N([H])[H])C3([H])[H])c([H])c2[H])c([H])c(N([H])C(=O)Oc2c([H])c([H])c3c(c2[H])C([H])([H])N(C(=O)C([H])(N([H])C(=O)C([H])(N([H])C([H])([H])[H])C([H])([H])[H])C(C([H])([H])[H])(C([H])([H])[H])C([H])([H])[H])C([H])(C(=O)N([H])C2([H])c4c([H])c([H])c([H])c([H])c4C([H])([H])C([H])([H])C2([H])[H])C3([H])[H])c1[H]

>  <smiles>  (63) 
[H]c1c([H])c(C(=O)N([H])C([H])([H])c2c([H])c([H])c(N([H])C(=O)N3C([H])([H])C([H])([H])C([H])([H])C([H])(n4nc(-c5c([H])c([H])c(Oc6c([H])c([H])c(F)c([H])c6F)c([H])c5[H])c(C(=O)N([H])[H])c4N([H])[H])C3([H])[H])c([H])c2[H])c([H])c(N([H])C(=O)Oc2c([H])c([H])c3c(c2[H])C([H])([H])N(C(=O)C([H])(N([H])C(=O)C([H])(N([H])C([H])([H])[H])C([H])([H])[H])C(C([H])([H])[H])(C([H])([H])[H])C([H])([H])[H])C([H])(C(=O)N([H])C2([H])c4c([H])c([H])c([H])c([H])c4C([H])([H])C([H])([H])C2([H])[H])C3([H])[H])c1[H]

$$$$
63:0:0
     RDKit          3D

 93102  0  0  1  0  0  0  0  0999 V2000
  -30.5100  -19.5360   19.8730 C   0  0  0  0  0  3  0  0  0  0  0  0
  -30.8670  -18.1580   20.1010 C   0  0  0  0  0  3  0  0  0  0  0  0
  -28.5430  -17.5770   20.0950 C   0  0  0  0  0  3  0  0  0  0  0  0
  -29.1540  -19.9700   19.7230 C   0  0  0  0  0  0  0  0  0  0  0  0
  -29.8820  -17.1370   20.2220 C   0  0  0  0  0  0  0  0  0  0  0  0
  -28.1880  -18.9260   19.8360 C   0  0  0  0  0  0  0  0  0  0  0  0
  -27.3540  -21.5470   19.2770 C   0  0  0  0  0  0  0  0  0  0  0  0
  -26.5300  -20.3120   18.8950 C   0  0  0  0  0  2  0  0  0  0  0  0
  -28.6830  -21.3680   19.4930 N   0  0  0  0  0  0  0  0  0  0  0  0
  -26.7630  -22.6260   19.4040 O   0  0  0  0  0  0  0  0  0  0  0  0
  -26.8490  -19.1990   19.7200 O   0  0  0  0  0  0  0  0  0  0  0  0
  -30.8700  -14.6990   19.9930 C   0  0  0  0  0  0  0  0  0  0  0  0
  -30.6900  -12.3770   19.0880 C   0  0  0  0  0  2  0  0  0  0  0  0
  -29.7270  -12.4020   17.8770 C   0  0  0  0  0  2  0  0  0  0  0  0
  -28.2560  -12.2960   18.3240 C   0  0  0  0  0  2  0  0  0  0  0  0
  -27.9180  -13.2670   19.4860 C   0  0  0  0  0  3  0  0  0  0  0  0
  -28.9740  -13.1500   20.6090 C   0  0  0  0  0  2  0  0  0  0  0  0
  -30.2890  -13.4560   20.0150 N   0  0  0  0  0  0  0  0  0  0  0  0
  -31.9970  -14.8780   19.5130 O   0  0  0  0  0  0  0  0  0  0  0  0
  -30.0640  -15.7020   20.4630 N   0  0  0  0  0  0  0  0  0  0  0  0
  -29.2720  -15.2940   20.9380 H   0  0  0  0  0  0  0  0  0  0  0  0
  -25.5730  -14.0010   20.2410 C   0  0  0  0  0  0  0  0  0  0  0  0
  -24.4720  -13.2880   20.6300 C   0  0  0  0  0  0  0  0  0  0  0  0
  -24.8590  -11.9130   20.5880 C   0  0  0  0  0  0  0  0  0  0  0  0
  -26.5630  -13.0640   19.9880 N   0  0  0  0  0  0  0  0  0  0  0  0
  -26.1380  -11.8020   20.2550 N   0  0  0  0  0  0  0  0  0  0  0  0
  -24.0700  -10.6910   20.7910 C   0  0  0  0  0  0  0  0  0  0  0  0
  -24.4980   -9.6750   21.6730 C   0  0  0  0  0  3  0  0  0  0  0  0
  -23.7150   -8.5170   21.8650 C   0  0  0  0  0  3  0  0  0  0  0  0
  -22.4870   -8.3690   21.1760 C   0  0  0  0  0  0  0  0  0  0  0  0
  -22.0750   -9.3740   20.2830 C   0  0  0  0  0  3  0  0  0  0  0  0
  -22.8590  -10.5240   20.0900 C   0  0  0  0  0  3  0  0  0  0  0  0
  -21.6700   -7.2680   21.2800 O   0  0  0  0  0  0  0  0  0  0  0  0
  -21.6900   -6.4620   22.3900 C   0  0  0  0  0  0  0  0  0  0  0  0
  -21.4470   -6.9700   23.6840 C   0  0  0  0  0  3  0  0  0  0  0  0
  -21.4070   -6.0950   24.7880 C   0  0  0  0  0  3  0  0  0  0  0  0
  -21.6000   -4.7130   24.5990 C   0  0  0  0  0  0  0  0  0  0  0  0
  -21.8370   -4.2040   23.3100 C   0  0  0  0  0  3  0  0  0  0  0  0
  -21.8800   -5.0760   22.2090 C   0  0  0  0  0  0  0  0  0  0  0  0
  -22.0870   -4.5800   20.9660 F   0  0  0  0  0  0  0  0  0  0  0  0
  -21.5540   -3.8710   25.6590 F   0  0  0  0  0  0  0  0  0  0  0  0
  -23.1090  -13.8400   20.9310 C   0  0  0  0  0  0  0  0  0  0  0  0
  -22.3730  -13.1980   21.8300 N   0  0  0  0  0  0  0  0  0  0  0  0
  -22.7070  -14.8750   20.4020 O   0  0  0  0  0  0  0  0  0  0  0  0
  -22.7110  -12.3610   22.2790 H   0  0  0  0  0  0  0  0  0  0  0  0
  -21.4590  -13.5520   22.0770 H   0  0  0  0  0  0  0  0  0  0  0  0
  -25.8110  -15.3610   20.0600 N   0  0  0  0  0  0  0  0  0  0  0  0
  -25.0790  -16.0540   20.1790 H   0  0  0  0  0  0  0  0  0  0  0  0
  -26.6620  -15.7450   19.6680 H   0  0  0  0  0  0  0  0  0  0  0  0
  -29.5100  -22.6210   19.7090 C   0  0  0  0  0  2  0  0  0  0  0  0
  -29.0870  -24.0260   19.0320 C   0  0  0  0  0  2  0  0  0  0  0  0
  -28.5010  -25.2180   19.9210 C   0  0  0  0  0  2  0  0  0  0  0  0
  -28.5660  -26.6060   19.4150 O   0  0  0  0  0  0  0  0  0  0  0  0
  -24.7790  -31.5170   23.1020 C   0  0  0  0  0  0  0  0  0  0  0  0
  -27.4220  -27.4020   19.5220 C   0  0  0  0  0  0  0  0  0  0  0  0
  -23.5700  -30.2870   21.3290 C   0  0  0  0  0  3  0  0  0  0  0  0
  -25.0260  -28.9360   19.7190 C   0  0  0  0  0  0  0  0  0  0  0  0
  -26.0960  -30.6860   21.1400 C   0  0  0  0  0  2  0  0  0  0  0  0
  -26.1940  -29.3900   20.3460 C   0  0  0  0  0  0  0  0  0  0  0  0
  -27.3980  -28.6380   20.2340 C   0  0  0  0  0  3  0  0  0  0  0  0
  -26.2350  -26.9870   18.8830 C   0  0  0  0  0  3  0  0  0  0  0  0
  -25.0470  -27.7400   18.9800 C   0  0  0  0  0  3  0  0  0  0  0  0
  -23.7720  -29.7730   19.8790 C   0  0  0  0  0  2  0  0  0  0  0  0
  -24.8360  -30.8390   21.9170 N   0  0  0  0  0  0  0  0  0  0  0  0
  -23.7000  -31.7120   23.6810 O   0  0  0  0  0  0  0  0  0  0  0  0
  -22.9420  -29.1590   22.1790 C   0  0  0  0  0  0  0  0  0  0  0  0
  -21.6150  -28.9870   22.0710 N   0  0  0  0  0  0  0  0  0  0  0  0
  -23.6480  -28.4440   22.8970 O   0  0  0  0  0  0  0  0  0  0  0  0
  -21.1060  -29.6250   21.4760 H   0  0  0  0  0  0  0  0  0  0  0  0
  -18.2550  -27.7280   22.5230 C   0  0  0  0  0  0  0  0  0  0  0  0
  -20.8210  -27.9560   22.7370 C   0  0  0  0  0  3  0  0  0  0  0  0
  -20.8990  -26.6090   21.9790 C   0  0  0  0  0  2  0  0  0  0  0  0
  -19.7610  -26.4190   20.9700 C   0  0  0  0  0  2  0  0  0  0  0  0
  -18.4030  -26.4770   21.6750 C   0  0  0  0  0  2  0  0  0  0  0  0
  -19.3890  -28.4320   23.0080 C   0  0  0  0  0  0  0  0  0  0  0  0
  -19.1940  -29.6100   23.7610 C   0  0  0  0  0  3  0  0  0  0  0  0
  -17.8970  -30.0820   24.0350 C   0  0  0  0  0  3  0  0  0  0  0  0
  -16.7770  -29.3730   23.5660 C   0  0  0  0  0  3  0  0  0  0  0  0
  -16.9580  -28.1980   22.8150 C   0  0  0  0  0  3  0  0  0  0  0  0
  -26.0640  -32.0960   23.7740 C   0  0  0  0  0  3  0  0  0  0  0  0
  -26.6040  -31.2000   24.9550 C   0  0  1  0  0  0  0  0  0  0  0  0
  -25.5270  -30.8410   26.0070 C   0  0  0  0  0  1  0  0  0  0  0  0
  -27.1900  -29.8780   24.4090 C   0  0  0  0  0  1  0  0  0  0  0  0
  -27.7600  -31.9290   25.6790 C   0  0  0  0  0  1  0  0  0  0  0  0
  -25.7410  -33.4470   24.2560 N   0  0  0  0  0  0  0  0  0  0  0  0
  -26.0740  -34.5800   23.6240 C   0  0  0  0  0  0  0  0  0  0  0  0
  -26.7530  -34.5970   22.5930 O   0  0  0  0  0  0  0  0  0  0  0  0
  -25.1370  -33.5090   25.0620 H   0  0  0  0  0  0  0  0  0  0  0  0
  -24.3320  -36.3900   23.4650 C   0  0  0  0  0  1  0  0  0  0  0  0
  -25.5760  -35.9060   24.2300 C   0  0  0  0  0  3  0  0  0  0  0  0
  -27.7020  -36.7090   25.1590 C   0  0  0  0  0  1  0  0  0  0  0  0
  -26.6010  -36.9740   24.2370 N   0  0  0  0  0  0  0  0  0  0  0  0
  -26.1880  -37.8670   24.4870 H   0  0  0  0  0  0  0  0  0  0  0  0
  1  2  1  0
  2  5  2  0
  3  5  1  0
  4  6  1  0
  4  1  2  0
  5 20  1  0
  6  3  2  0
  7 10  2  0
  7  9  1  0
  8  7  1  0
  8 11  1  0
  9 50  1  0
  9  4  1  0
 11  6  1  0
 12 18  1  0
 12 20  1  0
 13 18  1  0
 14 15  1  0
 14 13  1  0
 16 15  1  0
 16 25  1  0
 16 17  1  0
 18 17  1  0
 19 12  2  0
 20 21  1  0
 22 23  2  0
 23 42  1  0
 24 23  1  0
 24 27  1  0
 25 22  1  0
 25 26  1  0
 26 24  2  0
 27 28  1  0
 28 29  2  0
 30 33  1  0
 30 29  1  0
 31 30  2  0
 32 31  1  0
 32 27  2  0
 33 34  1  0
 34 35  1  0
 35 36  2  0
 37 36  1  0
 37 41  1  0
 38 37  2  0
 39 34  2  0
 39 38  1  0
 40 39  1  0
 42 43  1  0
 43 46  1  0
 43 45  1  0
 44 42  2  0
 47 48  1  0
 47 22  1  0
 49 47  1  0
 51 50  1  0
 51 52  1  0
 53 55  1  0
 53 52  1  0
 54 65  2  0
 55 60  1  0
 56 64  1  0
 56 66  1  0
 57 63  1  0
 57 59  1  0
 58 64  1  0
 59 58  1  0
 60 59  2  0
 61 62  1  0
 61 55  2  0
 62 57  2  0
 63 56  1  0
 64 54  1  0
 66 68  2  0
 67 66  1  0
 69 67  1  0
 70 79  2  0
 70 75  1  0
 71 67  1  0
 71 75  1  0
 72 71  1  0
 73 74  1  0
 73 72  1  0
 74 70  1  0
 75 76  2  0
 76 77  1  0
 78 77  2  0
 79 78  1  0
 80 54  1  0
 80 85  1  0
 80 81  1  0
 81 84  1  1
 81 82  1  0
 83 81  1  0
 85 88  1  0
 86 90  1  0
 86 85  1  0
 87 86  2  0
 90 89  1  0
 90 92  1  0
 92 93  1  0
 92 91  1  0
M  ISO  4  12 100  20 100  52 101  53 101
M  END
>  <TORSDO>  (64) 
F 19

>  <SCORE>  (64) 
-12.773

>  <name>  (64) 
63

>  <ligand_id>  (64) 
63

>  <original_smiles>  (64) 
[H]c1c([H])c([H])c2c(c1[H])C([H])([H])C([H])([H])C([H])([H])C2([H])N([H])C(=O)C1([H])N(C(=O)C([H])(N([H])C(=O)C([H])(N([H])C([H])([H])[H])C([H])([H])[H])C(C([H])([H])[H])(C([H])([H])[H])C([H])([H])[H])C([H])([H])c2c([H])c(OC([H])([H])C([H])([H])C([H])([H])N3C(=O)C([H])([H])Oc4c([H])c(N([H])C(=O)N5C([H])([H])C([H])([H])C([H])([H])C([H])(n6nc(-c7c([H])c([H])c(Oc8c([H])c([H])c(F)c([H])c8F)c([H])c7[H])c(C(=O)N([H])[H])c6N([H])[H])C5([H])[H])c([H])c([H])c43)c([H])c([H])c2C1([H])[H]

>  <smiles>  (64) 
[H]c1c([H])c([H])c2c(c1[H])C([H])([H])C([H])([H])C([H])([H])C2([H])N([H])C(=O)C1([H])N(C(=O)C([H])(N([H])C(=O)C([H])(N([H])C([H])([H])[H])C([H])([H])[H])C(C([H])([H])[H])(C([H])([H])[H])C([H])([H])[H])C([H])([H])c2c([H])c(OC([H])([H])C([H])([H])C([H])([H])N3C(=O)C([H])([H])Oc4c([H])c(N([H])C(=O)N5C([H])([H])C([H])([H])C([H])([H])C([H])(n6nc(-c7c([H])c([H])c(Oc8c([H])c([H])c(F)c([H])c8F)c([H])c7[H])c(C(=O)N([H])[H])c6N([H])[H])C5([H])[H])c([H])c([H])c43)c([H])c([H])c2C1([H])[H]

$$$$
64:0:0
     RDKit          3D

101109  0  0  1  0  0  0  0  0999 V2000
  -27.1060  -19.7840   17.2900 C   0  0  0  0  0  2  0  0  0  0  0  0
  -27.4710  -19.8210   15.9220 O   0  0  0  0  0  0  0  0  0  0  0  0
  -27.0360  -18.6850   15.1860 C   0  0  0  0  0  2  0  0  0  0  0  0
  -28.0530  -18.4560   14.0630 C   0  0  0  0  0  2  0  0  0  0  0  0
  -29.2640  -18.0440   14.6800 O   0  0  0  0  0  0  0  0  0  0  0  0
  -30.4280  -18.6450   14.1330 C   0  0  0  0  0  2  0  0  0  0  0  0
  -31.6390  -17.9010   14.7030 C   0  0  0  0  0  2  0  0  0  0  0  0
  -31.6350  -18.0580   16.1170 O   0  0  0  0  0  0  0  0  0  0  0  0
  -32.5330  -17.1710   16.7640 C   0  0  0  0  0  2  0  0  0  0  0  0
  -32.7470  -17.6030   18.2210 C   0  0  0  0  0  2  0  0  0  0  0  0
  -31.7500  -17.0150   19.0540 O   0  0  0  0  0  0  0  0  0  0  0  0
  -32.0850  -17.0730   20.4370 C   0  0  0  0  0  2  0  0  0  0  0  0
  -30.9140  -16.5830   21.3140 C   0  0  0  0  0  2  0  0  0  0  0  0
  -31.2630  -14.1290   20.7050 C   0  0  0  0  0  0  0  0  0  0  0  0
  -30.9370  -11.9490   19.6090 C   0  0  0  0  0  2  0  0  0  0  0  0
  -30.0760  -12.1490   18.3450 C   0  0  0  0  0  2  0  0  0  0  0  0
  -28.5730  -12.0940   18.6880 C   0  0  0  0  0  2  0  0  0  0  0  0
  -28.1990  -13.0000   19.8910 C   0  0  0  0  0  3  0  0  0  0  0  0
  -29.1720  -12.7680   21.0680 C   0  0  0  0  0  2  0  0  0  0  0  0
  -30.5450  -12.9850   20.5720 N   0  0  0  0  0  0  0  0  0  0  0  0
  -32.4240  -14.2430   20.3040 O   0  0  0  0  0  0  0  0  0  0  0  0
  -30.5620  -15.1610   21.1940 N   0  0  0  0  0  0  0  0  0  0  0  0
  -29.6170  -14.9300   21.4610 H   0  0  0  0  0  0  0  0  0  0  0  0
  -25.8140  -13.7540   20.4990 C   0  0  0  0  0  0  0  0  0  0  0  0
  -24.6770  -13.0460   20.7890 C   0  0  0  0  0  0  0  0  0  0  0  0
  -25.0470  -11.6680   20.7370 C   0  0  0  0  0  0  0  0  0  0  0  0
  -26.8070  -12.8080   20.2920 N   0  0  0  0  0  0  0  0  0  0  0  0
  -26.3450  -11.5460   20.4900 N   0  0  0  0  0  0  0  0  0  0  0  0
  -24.2290  -10.4540   20.8540 C   0  0  0  0  0  0  0  0  0  0  0  0
  -24.5280   -9.4480   21.7980 C   0  0  0  0  0  3  0  0  0  0  0  0
  -23.7160   -8.2980   21.9000 C   0  0  0  0  0  3  0  0  0  0  0  0
  -22.5900   -8.1460   21.0570 C   0  0  0  0  0  0  0  0  0  0  0  0
  -22.3100   -9.1410   20.1020 C   0  0  0  0  0  3  0  0  0  0  0  0
  -23.1220  -10.2820   19.9990 C   0  0  0  0  0  3  0  0  0  0  0  0
  -21.7600   -7.0510   21.0680 O   0  0  0  0  0  0  0  0  0  0  0  0
  -21.4640   -6.3850   22.2290 C   0  0  0  0  0  0  0  0  0  0  0  0
  -20.9420   -7.0520   23.3590 C   0  0  0  0  0  3  0  0  0  0  0  0
  -20.5860   -6.3180   24.5090 C   0  0  0  0  0  3  0  0  0  0  0  0
  -20.7410   -4.9200   24.5280 C   0  0  0  0  0  0  0  0  0  0  0  0
  -21.2550   -4.2530   23.4030 C   0  0  0  0  0  3  0  0  0  0  0  0
  -21.6120   -4.9820   22.2560 C   0  0  0  0  0  0  0  0  0  0  0  0
  -22.0870   -4.3330   21.1660 F   0  0  0  0  0  0  0  0  0  0  0  0
  -20.3900   -4.2140   25.6290 F   0  0  0  0  0  0  0  0  0  0  0  0
  -23.3030  -13.6110   21.0110 C   0  0  0  0  0  0  0  0  0  0  0  0
  -22.5040  -12.9660   21.8540 N   0  0  0  0  0  0  0  0  0  0  0  0
  -22.9460  -14.6590   20.4740 O   0  0  0  0  0  0  0  0  0  0  0  0
  -22.8040  -12.1160   22.3100 H   0  0  0  0  0  0  0  0  0  0  0  0
  -21.5820  -13.3280   22.0470 H   0  0  0  0  0  0  0  0  0  0  0  0
  -26.0790  -15.1140   20.3730 N   0  0  0  0  0  0  0  0  0  0  0  0
  -25.3550  -15.8190   20.4700 H   0  0  0  0  0  0  0  0  0  0  0  0
  -26.9770  -15.5020   20.1160 H   0  0  0  0  0  0  0  0  0  0  0  0
  -27.8440  -20.9230   18.0030 C   0  0  0  0  0  2  0  0  0  0  0  0
  -27.7380  -20.8250   19.5340 C   0  0  0  0  0  2  0  0  0  0  0  0
  -29.7470  -22.3900   19.8830 C   0  0  0  0  0  3  0  0  0  0  0  0
  -27.9290  -22.4000   21.5040 C   0  0  0  0  0  3  0  0  0  0  0  0
  -30.4270  -23.3640   20.6430 C   0  0  0  0  0  3  0  0  0  0  0  0
  -28.6110  -23.3680   22.2650 C   0  0  0  0  0  3  0  0  0  0  0  0
  -28.4920  -21.9000   20.3100 C   0  0  0  0  0  0  0  0  0  0  0  0
  -29.8650  -23.8520   21.8390 C   0  0  0  0  0  0  0  0  0  0  0  0
  -30.6340  -24.8550   22.6820 C   0  0  0  0  0  2  0  0  0  0  0  0
  -30.8510  -26.0980   22.0190 O   0  0  0  0  0  0  0  0  0  0  0  0
  -26.7490  -31.3870   24.3890 C   0  0  0  0  0  0  0  0  0  0  0  0
  -29.7140  -26.8400   21.8360 C   0  0  0  0  0  0  0  0  0  0  0  0
  -25.7850  -30.0050   22.5760 C   0  0  0  0  0  3  0  0  0  0  0  0
  -27.4000  -28.3950   21.4350 C   0  0  0  0  0  0  0  0  0  0  0  0
  -28.3160  -30.2800   22.8040 C   0  0  0  0  0  2  0  0  0  0  0  0
  -28.4590  -28.8990   22.2000 C   0  0  0  0  0  0  0  0  0  0  0  0
  -29.6210  -28.1290   22.3990 C   0  0  0  0  0  3  0  0  0  0  0  0
  -28.6430  -26.3340   21.0720 C   0  0  0  0  0  3  0  0  0  0  0  0
  -27.4840  -27.1080   20.8710 C   0  0  0  0  0  3  0  0  0  0  0  0
  -26.1980  -29.2940   21.2590 C   0  0  0  0  0  2  0  0  0  0  0  0
  -26.9580  -30.5730   23.3170 N   0  0  0  0  0  0  0  0  0  0  0  0
  -25.6030  -31.7050   24.7370 O   0  0  0  0  0  0  0  0  0  0  0  0
  -24.9430  -29.0230   23.4220 C   0  0  0  0  0  0  0  0  0  0  0  0
  -23.7050  -28.7590   22.9730 N   0  0  0  0  0  0  0  0  0  0  0  0
  -25.4140  -28.4940   24.4330 O   0  0  0  0  0  0  0  0  0  0  0  0
  -23.3940  -29.2380   22.1380 H   0  0  0  0  0  0  0  0  0  0  0  0
  -20.3250  -27.5080   22.7490 C   0  0  0  0  0  0  0  0  0  0  0  0
  -22.7480  -27.8380   23.5830 C   0  0  0  0  0  3  0  0  0  0  0  0
  -22.9990  -26.3850   23.1140 C   0  0  0  0  0  2  0  0  0  0  0  0
  -22.1610  -25.9910   21.8940 C   0  0  0  0  0  2  0  0  0  0  0  0
  -20.6680  -26.1330   22.1980 C   0  0  0  0  0  2  0  0  0  0  0  0
  -21.3040  -28.3150   23.3840 C   0  0  0  0  0  0  0  0  0  0  0  0
  -20.9420  -29.5990   23.8450 C   0  0  0  0  0  3  0  0  0  0  0  0
  -19.6280  -30.0770   23.6820 C   0  0  0  0  0  3  0  0  0  0  0  0
  -18.6570  -29.2670   23.0680 C   0  0  0  0  0  3  0  0  0  0  0  0
  -19.0050  -27.9860   22.6070 C   0  0  0  0  0  3  0  0  0  0  0  0
  -27.9360  -31.9780   25.2130 C   0  0  0  0  0  3  0  0  0  0  0  0
  -28.0580  -33.3980   24.8560 N   0  0  0  0  0  0  0  0  0  0  0  0
  -29.1130  -33.9360   24.2310 C   0  0  0  0  0  0  0  0  0  0  0  0
  -30.1290  -33.2920   23.9550 O   0  0  0  0  0  0  0  0  0  0  0  0
  -27.2440  -33.9730   25.0080 H   0  0  0  0  0  0  0  0  0  0  0  0
  -28.9680  -35.5620   22.3190 C   0  0  0  0  0  1  0  0  0  0  0  0
  -29.0280  -35.4260   23.8490 C   0  0  0  0  0  3  0  0  0  0  0  0
  -30.0970  -36.4090   25.8270 C   0  0  0  0  0  1  0  0  0  0  0  0
  -30.1470  -36.2340   24.3780 N   0  0  0  0  0  0  0  0  0  0  0  0
  -30.1620  -37.1550   23.9480 H   0  0  0  0  0  0  0  0  0  0  0  0
  -27.7590  -31.8060   26.7720 C   0  0  1  0  0  0  0  0  0  0  0  0
  -26.3770  -32.2590   27.2940 C   0  0  0  0  0  1  0  0  0  0  0  0
  -27.9620  -30.3300   27.1840 C   0  0  0  0  0  1  0  0  0  0  0  0
  -28.8440  -32.6240   27.5150 C   0  0  0  0  0  1  0  0  0  0  0  0
  1 52  1  0
  2  1  1  0
  3  2  1  0
  4  5  1  0
  4  3  1  0
  6  5  1  0
  6  7  1  0
  7  8  1  0
  8  9  1  0
  9 10  1  0
 10 11  1  0
 11 12  1  0
 12 13  1  0
 14 22  1  0
 15 20  1  0
 16 17  1  0
 16 15  1  0
 18 17  1  0
 18 27  1  0
 18 19  1  0
 20 14  1  0
 20 19  1  0
 21 14  2  0
 22 13  1  0
 22 23  1  0
 24 25  2  0
 25 44  1  0
 26 25  1  0
 26 29  1  0
 27 28  1  0
 27 24  1  0
 28 26  2  0
 29 30  1  0
 30 31  2  0
 32 35  1  0
 32 31  1  0
 33 32  2  0
 34 33  1  0
 34 29  2  0
 35 36  1  0
 36 41  2  0
 36 37  1  0
 37 38  2  0
 38 39  1  0
 39 43  1  0
 40 39  2  0
 41 40  1  0
 42 41  1  0
 44 45  1  0
 45 48  1  0
 45 47  1  0
 46 44  2  0
 49 50  1  0
 49 24  1  0
 51 49  1  0
 52 53  1  0
 53 58  1  0
 54 58  2  0
 54 56  1  0
 55 57  2  0
 56 59  2  0
 58 55  1  0
 59 57  1  0
 59 60  1  0
 61 60  1  0
 62 73  2  0
 63 61  1  0
 63 68  1  0
 64 72  1  0
 64 74  1  0
 65 67  1  0
 66 72  1  0
 67 68  2  0
 67 66  1  0
 69 63  2  0
 70 69  1  0
 70 65  2  0
 71 65  1  0
 71 64  1  0
 72 62  1  0
 74 76  2  0
 75 74  1  0
 77 75  1  0
 78 83  1  0
 79 75  1  0
 80 79  1  0
 81 82  1  0
 81 80  1  0
 82 78  1  0
 83 79  1  0
 83 84  2  0
 85 84  1  0
 86 85  2  0
 87 78  2  0
 87 86  1  0
 88 62  1  0
 88 98  1  0
 89 92  1  0
 89 88  1  0
 90 89  1  0
 91 90  2  0
 94 93  1  0
 94 90  1  0
 94 96  1  0
 96 95  1  0
 97 96  1  0
 98100  1  6
 98 99  1  0
 98101  1  0
M  ISO  4  14 100  22 100  60 101  61 101
M  END
>  <TORSDO>  (65) 
F 32

>  <SCORE>  (65) 
-5.470

>  <name>  (65) 
64

>  <ligand_id>  (65) 
64

>  <original_smiles>  (65) 
[H]c1c([H])c([H])c2c(c1[H])C([H])([H])C([H])([H])C([H])([H])C2([H])N([H])C(=O)C1([H])N(C(=O)C([H])(N([H])C(=O)C([H])(N([H])C([H])([H])[H])C([H])([H])[H])C(C([H])([H])[H])(C([H])([H])[H])C([H])([H])[H])C([H])([H])c2c([H])c(OC([H])([H])c3c([H])c([H])c(C([H])([H])C([H])([H])C([H])([H])OC([H])([H])C([H])([H])OC([H])([H])C([H])([H])OC([H])([H])C([H])([H])OC([H])([H])C([H])([H])N([H])C(=O)N4C([H])([H])C([H])([H])C([H])([H])C([H])(n5nc(-c6c([H])c([H])c(Oc7c([H])c([H])c(F)c([H])c7F)c([H])c6[H])c(C(=O)N([H])[H])c5N([H])[H])C4([H])[H])c([H])c3[H])c([H])c([H])c2C1([H])[H]

>  <smiles>  (65) 
[H]c1c([H])c([H])c2c(c1[H])C([H])([H])C([H])([H])C([H])([H])C2([H])N([H])C(=O)C1([H])N(C(=O)C([H])(N([H])C(=O)C([H])(N([H])C([H])([H])[H])C([H])([H])[H])C(C([H])([H])[H])(C([H])([H])[H])C([H])([H])[H])C([H])([H])c2c([H])c(OC([H])([H])c3c([H])c([H])c(C([H])([H])C([H])([H])C([H])([H])OC([H])([H])C([H])([H])OC([H])([H])C([H])([H])OC([H])([H])C([H])([H])OC([H])([H])C([H])([H])N([H])C(=O)N4C([H])([H])C([H])([H])C([H])([H])C([H])(n5nc(-c6c([H])c([H])c(Oc7c([H])c([H])c(F)c([H])c7F)c([H])c6[H])c(C(=O)N([H])[H])c5N([H])[H])C4([H])[H])c([H])c3[H])c([H])c([H])c2C1([H])[H]

$$$$
65:0:0
     RDKit          3D

 89 97  0  0  1  0  0  0  0  0999 V2000
  -30.1540  -21.7130   20.3380 C   0  0  0  0  0  2  0  0  0  0  0  0
  -31.1670  -19.3310   20.2330 C   0  0  0  0  0  3  0  0  0  0  0  0
  -28.7980  -19.4440   20.6040 C   0  0  0  0  0  3  0  0  0  0  0  0
  -31.1360  -17.9070   20.3180 C   0  0  0  0  0  3  0  0  0  0  0  0
  -28.7640  -18.0160   20.6900 C   0  0  0  0  0  3  0  0  0  0  0  0
  -30.0070  -20.1440   20.3720 C   0  0  0  0  0  0  0  0  0  0  0  0
  -29.9260  -17.2010   20.5510 C   0  0  0  0  0  0  0  0  0  0  0  0
  -30.5930  -14.6890   20.2930 C   0  0  0  0  0  0  0  0  0  0  0  0
  -30.3610  -12.4600   19.2140 C   0  0  0  0  0  2  0  0  0  0  0  0
  -29.3960  -12.6020   18.0150 C   0  0  0  0  0  2  0  0  0  0  0  0
  -27.9300  -12.4370   18.4690 C   0  0  0  0  0  2  0  0  0  0  0  0
  -27.5920  -13.2860   19.7230 C   0  0  0  0  0  3  0  0  0  0  0  0
  -28.6710  -13.1220   20.8170 C   0  0  0  0  0  2  0  0  0  0  0  0
  -29.9720  -13.4680   20.2200 N   0  0  0  0  0  0  0  0  0  0  0  0
  -31.7490  -14.8400   19.8870 O   0  0  0  0  0  0  0  0  0  0  0  0
  -29.7980  -15.7440   20.6710 N   0  0  0  0  0  0  0  0  0  0  0  0
  -28.8920  -15.4340   20.9850 H   0  0  0  0  0  0  0  0  0  0  0  0
  -25.2120  -13.8790   20.4900 C   0  0  0  0  0  0  0  0  0  0  0  0
  -24.1520  -13.1030   20.8730 C   0  0  0  0  0  0  0  0  0  0  0  0
  -24.6120  -11.7510   20.8170 C   0  0  0  0  0  0  0  0  0  0  0  0
  -26.2520  -13.0010   20.2280 N   0  0  0  0  0  0  0  0  0  0  0  0
  -25.8970  -11.7150   20.4840 N   0  0  0  0  0  0  0  0  0  0  0  0
  -23.8870  -10.4870   21.0060 C   0  0  0  0  0  0  0  0  0  0  0  0
  -24.3180   -9.5230   21.9450 C   0  0  0  0  0  3  0  0  0  0  0  0
  -23.5930   -8.3250   22.1220 C   0  0  0  0  0  3  0  0  0  0  0  0
  -22.4270   -8.0810   21.3590 C   0  0  0  0  0  0  0  0  0  0  0  0
  -22.0160   -9.0330   20.4110 C   0  0  0  0  0  3  0  0  0  0  0  0
  -22.7410  -10.2240   20.2320 C   0  0  0  0  0  3  0  0  0  0  0  0
  -21.6760   -6.9330   21.4450 O   0  0  0  0  0  0  0  0  0  0  0  0
  -21.5950   -6.2100   22.6090 C   0  0  0  0  0  0  0  0  0  0  0  0
  -21.1100   -6.7780   23.8070 C   0  0  0  0  0  3  0  0  0  0  0  0
  -20.9790   -5.9800   24.9610 C   0  0  0  0  0  3  0  0  0  0  0  0
  -21.3230   -4.6170   24.9180 C   0  0  0  0  0  0  0  0  0  0  0  0
  -21.8010   -4.0480   23.7240 C   0  0  0  0  0  3  0  0  0  0  0  0
  -21.9330   -4.8420   22.5720 C   0  0  0  0  0  0  0  0  0  0  0  0
  -22.3750   -4.2850   21.4180 F   0  0  0  0  0  0  0  0  0  0  0  0
  -21.1890   -3.8480   26.0240 F   0  0  0  0  0  0  0  0  0  0  0  0
  -22.7590  -13.5780   21.1740 C   0  0  0  0  0  0  0  0  0  0  0  0
  -22.0470  -12.8750   22.0480 N   0  0  0  0  0  0  0  0  0  0  0  0
  -22.3130  -14.6080   20.6700 O   0  0  0  0  0  0  0  0  0  0  0  0
  -22.4200  -12.0420   22.4800 H   0  0  0  0  0  0  0  0  0  0  0  0
  -21.1130  -13.1750   22.2910 H   0  0  0  0  0  0  0  0  0  0  0  0
  -25.3710  -15.2510   20.3180 N   0  0  0  0  0  0  0  0  0  0  0  0
  -24.5920  -15.8920   20.4170 H   0  0  0  0  0  0  0  0  0  0  0  0
  -26.1880  -15.6840   19.9090 H   0  0  0  0  0  0  0  0  0  0  0  0
  -28.9870  -22.5910   20.2260 O   0  0  0  0  0  0  0  0  0  0  0  0
  -29.2900  -24.0350   20.2950 C   0  0  0  0  0  3  0  0  0  0  0  0
  -28.1050  -25.0540   20.0050 C   0  0  0  0  0  3  0  0  0  0  0  0
  -28.3170  -26.5120   20.1850 O   0  0  0  0  0  0  0  0  0  0  0  0
  -24.5830  -31.8820   23.2400 C   0  0  0  0  0  0  0  0  0  0  0  0
  -27.1930  -27.3540   20.1440 C   0  0  0  0  0  0  0  0  0  0  0  0
  -23.3760  -30.4970   21.5930 C   0  0  0  0  0  3  0  0  0  0  0  0
  -24.8230  -28.9600   20.1520 C   0  0  0  0  0  0  0  0  0  0  0  0
  -25.9140  -30.8200   21.4050 C   0  0  0  0  0  2  0  0  0  0  0  0
  -25.9940  -29.4470   20.7480 C   0  0  0  0  0  0  0  0  0  0  0  0
  -27.1820  -28.6570   20.7310 C   0  0  0  0  0  3  0  0  0  0  0  0
  -25.9930  -26.9200   19.5290 C   0  0  0  0  0  3  0  0  0  0  0  0
  -24.8260  -27.7020   19.5340 C   0  0  0  0  0  3  0  0  0  0  0  0
  -23.5860  -29.8310   20.2070 C   0  0  0  0  0  2  0  0  0  0  0  0
  -24.6430  -31.0820   22.1360 N   0  0  0  0  0  0  0  0  0  0  0  0
  -23.5000  -32.1570   23.7780 O   0  0  0  0  0  0  0  0  0  0  0  0
  -22.7160  -29.4710   22.5450 C   0  0  0  0  0  0  0  0  0  0  0  0
  -21.3900  -29.2930   22.4150 N   0  0  0  0  0  0  0  0  0  0  0  0
  -23.3950  -28.8400   23.3590 O   0  0  0  0  0  0  0  0  0  0  0  0
  -20.9010  -29.8530   21.7300 H   0  0  0  0  0  0  0  0  0  0  0  0
  -18.0110  -28.1010   22.9090 C   0  0  0  0  0  0  0  0  0  0  0  0
  -20.5700  -28.3520   23.1780 C   0  0  0  0  0  3  0  0  0  0  0  0
  -20.6670  -26.9240   22.5900 C   0  0  0  0  0  2  0  0  0  0  0  0
  -19.5630  -26.6130   21.5750 C   0  0  0  0  0  2  0  0  0  0  0  0
  -18.1830  -26.7570   22.2220 C   0  0  0  0  0  2  0  0  0  0  0  0
  -19.1320  -28.8560   23.3440 C   0  0  0  0  0  0  0  0  0  0  0  0
  -18.9160  -30.1160   23.9450 C   0  0  0  0  0  3  0  0  0  0  0  0
  -17.6130  -30.6170   24.1170 C   0  0  0  0  0  3  0  0  0  0  0  0
  -16.5060  -29.8590   23.6990 C   0  0  0  0  0  3  0  0  0  0  0  0
  -16.7070  -28.6020   23.0990 C   0  0  0  0  0  3  0  0  0  0  0  0
  -25.8670  -32.5080   23.8660 C   0  0  0  0  0  3  0  0  0  0  0  0
  -26.3790  -31.7300   25.1390 C   0  0  1  0  0  0  0  0  0  0  0  0
  -25.2830  -31.4890   26.2030 C   0  0  0  0  0  1  0  0  0  0  0  0
  -26.9610  -30.3530   24.7410 C   0  0  0  0  0  1  0  0  0  0  0  0
  -27.5290  -32.5200   25.8070 C   0  0  0  0  0  1  0  0  0  0  0  0
  -25.5600  -33.9060   24.2030 N   0  0  0  0  0  0  0  0  0  0  0  0
  -25.8660  -34.9590   23.4340 C   0  0  0  0  0  0  0  0  0  0  0  0
  -26.5060  -34.8570   22.3840 O   0  0  0  0  0  0  0  0  0  0  0  0
  -24.9890  -34.0590   25.0210 H   0  0  0  0  0  0  0  0  0  0  0  0
  -24.1080  -36.7330   23.1440 C   0  0  0  0  0  1  0  0  0  0  0  0
  -25.3870  -36.3460   23.9040 C   0  0  0  0  0  3  0  0  0  0  0  0
  -27.5430  -37.2580   24.6420 C   0  0  0  0  0  1  0  0  0  0  0  0
  -26.4040  -37.4080   23.7390 N   0  0  0  0  0  0  0  0  0  0  0  0
  -25.9950  -38.3250   23.8930 H   0  0  0  0  0  0  0  0  0  0  0  0
  1  6  1  0
  2  4  2  0
  2  6  1  0
  3  5  1  0
  4  7  1  0
  6  3  2  0
  7 16  1  0
  7  5  2  0
  8 16  1  0
  9 14  1  0
 10 11  1  0
 10  9  1  0
 12 11  1  0
 12 21  1  0
 12 13  1  0
 14  8  1  0
 14 13  1  0
 15  8  2  0
 16 17  1  0
 18 19  2  0
 19 38  1  0
 20 19  1  0
 20 23  1  0
 21 22  1  0
 21 18  1  0
 22 20  2  0
 23 24  1  0
 24 25  2  0
 26 29  1  0
 26 25  1  0
 27 26  2  0
 28 27  1  0
 28 23  2  0
 29 30  1  0
 30 31  1  0
 31 32  2  0
 33 32  1  0
 33 37  1  0
 34 33  2  0
 35 30  2  0
 35 34  1  0
 36 35  1  0
 38 39  1  0
 39 42  1  0
 39 41  1  0
 40 38  2  0
 43 44  1  0
 43 18  1  0
 45 43  1  0
 46 47  1  0
 46  1  1  0
 48 49  1  0
 48 47  2  0
 50 61  2  0
 51 49  1  0
 51 56  1  0
 52 60  1  0
 52 62  1  0
 53 59  1  0
 53 55  1  0
 54 60  1  0
 55 54  1  0
 56 55  2  0
 57 58  1  0
 57 51  2  0
 58 53  2  0
 59 52  1  0
 60 50  1  0
 62 64  2  0
 63 62  1  0
 65 63  1  0
 66 75  2  0
 66 71  1  0
 67 63  1  0
 67 71  1  0
 68 67  1  0
 69 70  1  0
 69 68  1  0
 70 66  1  0
 71 72  2  0
 72 73  1  0
 74 73  2  0
 75 74  1  0
 76 50  1  0
 76 81  1  0
 76 77  1  0
 77 80  1  1
 77 78  1  0
 79 77  1  0
 81 84  1  0
 82 86  1  0
 82 81  1  0
 83 82  2  0
 86 85  1  0
 88 89  1  0
 88 86  1  0
 88 87  1  0
M  ISO  4   8 100  16 100  48 101  49 101
M  END
>  <TORSDO>  (66) 
F 20

>  <SCORE>  (66) 
-13.802

>  <name>  (66) 
65

>  <ligand_id>  (66) 
65

>  <original_smiles>  (66) 
[H]c1c([H])c([H])c2c(c1[H])C([H])([H])C([H])([H])C([H])([H])C2([H])N([H])C(=O)C1([H])N(C(=O)C([H])(N([H])C(=O)C([H])(N([H])C([H])([H])[H])C([H])([H])[H])C(C([H])([H])[H])(C([H])([H])[H])C([H])([H])[H])C([H])([H])c2c([H])c(OC([H])([H])C([H])([H])OC([H])([H])c3c([H])c([H])c(N([H])C(=O)N4C([H])([H])C([H])([H])C([H])([H])C([H])(n5nc(-c6c([H])c([H])c(Oc7c([H])c([H])c(F)c([H])c7F)c([H])c6[H])c(C(=O)N([H])[H])c5N([H])[H])C4([H])[H])c([H])c3[H])c([H])c([H])c2C1([H])[H]

>  <smiles>  (66) 
[H]c1c([H])c([H])c2c(c1[H])C([H])([H])C([H])([H])C([H])([H])C2([H])N([H])C(=O)C1([H])N(C(=O)C([H])(N([H])C(=O)C([H])(N([H])C([H])([H])[H])C([H])([H])[H])C(C([H])([H])[H])(C([H])([H])[H])C([H])([H])[H])C([H])([H])c2c([H])c(OC([H])([H])C([H])([H])OC([H])([H])c3c([H])c([H])c(N([H])C(=O)N4C([H])([H])C([H])([H])C([H])([H])C([H])(n5nc(-c6c([H])c([H])c(Oc7c([H])c([H])c(F)c([H])c7F)c([H])c6[H])c(C(=O)N([H])[H])c5N([H])[H])C4([H])[H])c([H])c3[H])c([H])c([H])c2C1([H])[H]

$$$$
66:0:0
     RDKit          3D

 93101  0  0  1  0  0  0  0  0999 V2000
  -27.6530  -22.7410   20.9390 C   0  0  0  0  0  2  0  0  0  0  0  0
  -28.0840  -23.8850   20.1040 N   0  0  0  0  0  4  0  0  0  0  0  0
  -27.3250  -24.5490   20.1150 H   0  0  0  0  0  0  0  0  0  0  0  0
  -28.1880  -23.5890   19.1470 H   0  0  0  0  0  0  0  0  0  0  0  0
  -29.2950  -24.6200   20.5430 C   0  0  0  0  0  2  0  0  0  0  0  0
  -28.9960  -26.1130   20.7910 C   0  0  0  0  0  2  0  0  0  0  0  0
  -28.5780  -26.7380   19.5750 O   0  0  0  0  0  0  0  0  0  0  0  0
  -24.7160  -31.6080   23.0720 C   0  0  0  0  0  0  0  0  0  0  0  0
  -27.4080  -27.4510   19.6760 C   0  0  0  0  0  0  0  0  0  0  0  0
  -23.5040  -30.2570   21.3880 C   0  0  0  0  0  3  0  0  0  0  0  0
  -24.9650  -28.8480   19.8440 C   0  0  0  0  0  0  0  0  0  0  0  0
  -26.0090  -30.7150   21.1410 C   0  0  0  0  0  2  0  0  0  0  0  0
  -26.1200  -29.3830   20.4310 C   0  0  0  0  0  0  0  0  0  0  0  0
  -27.3470  -28.6870   20.3550 C   0  0  0  0  0  3  0  0  0  0  0  0
  -26.2460  -26.9320   19.0730 C   0  0  0  0  0  3  0  0  0  0  0  0
  -25.0210  -27.6190   19.1640 C   0  0  0  0  0  3  0  0  0  0  0  0
  -23.6950  -29.6580   19.9690 C   0  0  0  0  0  2  0  0  0  0  0  0
  -24.7620  -30.8710   21.9250 N   0  0  0  0  0  0  0  0  0  0  0  0
  -23.6430  -31.8130   23.6570 O   0  0  0  0  0  0  0  0  0  0  0  0
  -22.9180  -29.1640   22.3100 C   0  0  0  0  0  0  0  0  0  0  0  0
  -21.6020  -28.9240   22.1910 N   0  0  0  0  0  0  0  0  0  0  0  0
  -23.6430  -28.5350   23.0860 O   0  0  0  0  0  0  0  0  0  0  0  0
  -21.0760  -29.4880   21.5390 H   0  0  0  0  0  0  0  0  0  0  0  0
  -18.3040  -27.5170   22.6380 C   0  0  0  0  0  0  0  0  0  0  0  0
  -20.8420  -27.9140   22.9250 C   0  0  0  0  0  3  0  0  0  0  0  0
  -21.0300  -26.5140   22.2980 C   0  0  0  0  0  2  0  0  0  0  0  0
  -19.9470  -26.1560   21.2760 C   0  0  0  0  0  2  0  0  0  0  0  0
  -18.5600  -26.2000   21.9250 C   0  0  0  0  0  2  0  0  0  0  0  0
  -19.3760  -28.3280   23.0960 C   0  0  0  0  0  0  0  0  0  0  0  0
  -19.0850  -29.5580   23.7250 C   0  0  0  0  0  3  0  0  0  0  0  0
  -17.7530  -29.9780   23.9010 C   0  0  0  0  0  3  0  0  0  0  0  0
  -16.6950  -29.1650   23.4590 C   0  0  0  0  0  3  0  0  0  0  0  0
  -16.9720  -27.9370   22.8320 C   0  0  0  0  0  3  0  0  0  0  0  0
  -26.0000  -32.2470   23.6860 C   0  0  0  0  0  3  0  0  0  0  0  0
  -25.6600  -33.6170   24.0910 N   0  0  0  0  0  0  0  0  0  0  0  0
  -25.9460  -34.7120   23.3740 C   0  0  0  0  0  0  0  0  0  0  0  0
  -26.5950  -34.6770   22.3250 O   0  0  0  0  0  0  0  0  0  0  0  0
  -25.0840  -33.7170   24.9130 H   0  0  0  0  0  0  0  0  0  0  0  0
  -24.1560  -36.4630   23.1490 C   0  0  0  0  0  1  0  0  0  0  0  0
  -25.4320  -36.0630   23.9080 C   0  0  0  0  0  3  0  0  0  0  0  0
  -27.5620  -36.9750   24.7210 C   0  0  0  0  0  1  0  0  0  0  0  0
  -26.4290  -37.1510   23.8150 N   0  0  0  0  0  0  0  0  0  0  0  0
  -25.9990  -38.0500   24.0160 H   0  0  0  0  0  0  0  0  0  0  0  0
  -26.5770  -31.4300   24.9070 C   0  0  1  0  0  0  0  0  0  0  0  0
  -25.5230  -31.1060   25.9910 C   0  0  0  0  0  1  0  0  0  0  0  0
  -27.1890  -30.0920   24.4280 C   0  0  0  0  0  1  0  0  0  0  0  0
  -27.7220  -32.2260   25.5770 C   0  0  0  0  0  1  0  0  0  0  0  0
  -29.0910  -20.7050   21.4060 C   0  0  0  0  0  3  0  0  0  0  0  0
  -28.3070  -21.4150   20.5690 C   0  0  0  0  0  3  0  0  0  0  0  0
  -29.6340  -18.7060   19.9230 C   0  0  0  0  0  3  0  0  0  0  0  0
  -30.1520  -18.6520   22.2930 C   0  0  0  0  0  3  0  0  0  0  0  0
  -30.0570  -17.3630   19.8000 C   0  0  0  0  0  3  0  0  0  0  0  0
  -30.5610  -17.3090   22.1770 C   0  0  0  0  0  3  0  0  0  0  0  0
  -29.6600  -19.3600   21.1780 C   0  0  0  0  0  0  0  0  0  0  0  0
  -30.4950  -16.6410   20.9380 C   0  0  0  0  0  0  0  0  0  0  0  0
  -31.1340  -14.4650   19.9050 C   0  0  0  0  0  0  0  0  0  0  0  0
  -30.7190  -12.3130   18.7630 C   0  0  0  0  0  2  0  0  0  0  0  0
  -29.6530  -12.4960   17.6620 C   0  0  0  0  0  2  0  0  0  0  0  0
  -28.2320  -12.3540   18.2400 C   0  0  0  0  0  2  0  0  0  0  0  0
  -28.0210  -13.2230   19.5080 C   0  0  0  0  0  3  0  0  0  0  0  0
  -29.1760  -13.0020   20.5100 C   0  0  0  0  0  2  0  0  0  0  0  0
  -30.4570  -13.2880   19.8310 N   0  0  0  0  0  0  0  0  0  0  0  0
  -32.0630  -14.7650   19.1490 O   0  0  0  0  0  0  0  0  0  0  0  0
  -30.7750  -15.2460   20.9370 N   0  0  0  0  0  0  0  0  0  0  0  0
  -30.3140  -14.7340   21.6750 H   0  0  0  0  0  0  0  0  0  0  0  0
  -25.7630  -13.8660   20.5690 C   0  0  0  0  0  0  0  0  0  0  0  0
  -24.7030  -13.1080   20.9960 C   0  0  0  0  0  0  0  0  0  0  0  0
  -25.0750  -11.7480   20.7690 C   0  0  0  0  0  0  0  0  0  0  0  0
  -26.7180  -12.9660   20.1220 N   0  0  0  0  0  0  0  0  0  0  0  0
  -26.3110  -11.6820   20.2930 N   0  0  0  0  0  0  0  0  0  0  0  0
  -24.3050  -10.5070   20.9270 C   0  0  0  0  0  0  0  0  0  0  0  0
  -24.7210   -9.4860   21.8100 C   0  0  0  0  0  3  0  0  0  0  0  0
  -23.9540   -8.3100   21.9580 C   0  0  0  0  0  3  0  0  0  0  0  0
  -22.7580   -8.1460   21.2210 C   0  0  0  0  0  0  0  0  0  0  0  0
  -22.3590   -9.1560   20.3270 C   0  0  0  0  0  3  0  0  0  0  0  0
  -23.1260  -10.3240   20.1780 C   0  0  0  0  0  3  0  0  0  0  0  0
  -21.9630   -7.0280   21.2800 O   0  0  0  0  0  0  0  0  0  0  0  0
  -21.8190   -6.3080   22.4380 C   0  0  0  0  0  0  0  0  0  0  0  0
  -21.3450   -6.8990   23.6290 C   0  0  0  0  0  3  0  0  0  0  0  0
  -21.1450   -6.1050   24.7770 C   0  0  0  0  0  3  0  0  0  0  0  0
  -21.4110   -4.7240   24.7350 C   0  0  0  0  0  0  0  0  0  0  0  0
  -21.8790   -4.1330   23.5480 C   0  0  0  0  0  3  0  0  0  0  0  0
  -22.0790   -4.9220   22.4010 C   0  0  0  0  0  0  0  0  0  0  0  0
  -22.5090   -4.3440   21.2560 F   0  0  0  0  0  0  0  0  0  0  0  0
  -21.2120   -3.9610   25.8350 F   0  0  0  0  0  0  0  0  0  0  0  0
  -23.3820  -13.6180   21.4960 C   0  0  0  0  0  0  0  0  0  0  0  0
  -22.7450  -12.8840   22.4020 N   0  0  0  0  0  0  0  0  0  0  0  0
  -22.9290  -14.6980   21.1180 O   0  0  0  0  0  0  0  0  0  0  0  0
  -23.1230  -12.0070   22.7260 H   0  0  0  0  0  0  0  0  0  0  0  0
  -21.8650  -13.2080   22.7790 H   0  0  0  0  0  0  0  0  0  0  0  0
  -25.9840  -15.2390   20.5090 N   0  0  0  0  0  0  0  0  0  0  0  0
  -25.2860  -15.9170   20.7930 H   0  0  0  0  0  0  0  0  0  0  0  0
  -26.8230  -15.6680   20.1370 H   0  0  0  0  0  0  0  0  0  0  0  0
  2  3  1  0
  2  5  1  0
  2  1  1  0
  4  2  1  0
  5  6  1  0
  7  9  1  0
  7  6  1  0
  8 19  2  0
  9 14  1  0
 10 18  1  0
 10 20  1  0
 11 17  1  0
 11 13  1  0
 12 18  1  0
 13 12  1  0
 14 13  2  0
 15 16  1  0
 15  9  2  0
 16 11  2  0
 17 10  1  0
 18  8  1  0
 20 22  2  0
 21 20  1  0
 23 21  1  0
 24 33  2  0
 24 29  1  0
 25 21  1  0
 25 29  1  0
 26 25  1  0
 27 28  1  0
 27 26  1  0
 28 24  1  0
 29 30  2  0
 30 31  1  0
 32 31  2  0
 33 32  1  0
 34  8  1  0
 34 35  1  0
 34 44  1  0
 35 38  1  0
 36 40  1  0
 36 35  1  0
 37 36  2  0
 40 39  1  0
 42 40  1  0
 42 43  1  0
 42 41  1  0
 44 47  1  1
 44 45  1  0
 46 44  1  0
 49  1  1  0
 49 48  2  0
 50 54  1  0
 52 50  2  0
 52 55  1  0
 53 51  1  0
 54 48  1  0
 54 51  2  0
 55 53  2  0
 56 64  1  0
 57 62  1  0
 58 59  1  0
 58 57  1  0
 60 59  1  0
 60 69  1  0
 60 61  1  0
 62 56  1  0
 62 61  1  0
 63 56  2  0
 64 55  1  0
 64 65  1  0
 66 67  2  0
 67 86  1  0
 68 71  1  0
 68 67  1  0
 69 70  1  0
 69 66  1  0
 70 68  2  0
 71 72  1  0
 72 73  2  0
 74 77  1  0
 74 73  1  0
 75 74  2  0
 76 75  1  0
 76 71  2  0
 77 78  1  0
 78 79  1  0
 79 80  2  0
 81 80  1  0
 81 85  1  0
 82 81  2  0
 83 78  2  0
 83 82  1  0
 84 83  1  0
 86 87  1  0
 87 89  1  0
 87 90  1  0
 88 86  2  0
 91 66  1  0
 91 92  1  0
 93 91  1  0
M  ISO  4   6 101   7 101  56 100  64 100
M  END
>  <TORSDO>  (67) 
F 21

>  <SCORE>  (67) 
-11.449

>  <name>  (67) 
66

>  <ligand_id>  (67) 
66

>  <original_smiles>  (67) 
[H]C(=C([H])C([H])([H])[N+]([H])([H])C([H])([H])C([H])([H])Oc1c([H])c([H])c2c(c1[H])C([H])([H])N(C(=O)C([H])(N([H])C(=O)C([H])(N([H])C([H])([H])[H])C([H])([H])[H])C(C([H])([H])[H])(C([H])([H])[H])C([H])([H])[H])C([H])(C(=O)N([H])C1([H])c3c([H])c([H])c([H])c([H])c3C([H])([H])C([H])([H])C1([H])[H])C2([H])[H])c1c([H])c([H])c(N([H])C(=O)N2C([H])([H])C([H])([H])C([H])([H])C([H])(n3nc(-c4c([H])c([H])c(Oc5c([H])c([H])c(F)c([H])c5F)c([H])c4[H])c(C(=O)N([H])[H])c3N([H])[H])C2([H])[H])c([H])c1[H]

>  <smiles>  (67) 
[H]C(=C([H])C([H])([H])[N+]([H])([H])C([H])([H])C([H])([H])Oc1c([H])c([H])c2c(c1[H])C([H])([H])N(C(=O)C([H])(N([H])C(=O)C([H])(N([H])C([H])([H])[H])C([H])([H])[H])C(C([H])([H])[H])(C([H])([H])[H])C([H])([H])[H])C([H])(C(=O)N([H])C1([H])c3c([H])c([H])c([H])c([H])c3C([H])([H])C([H])([H])C1([H])[H])C2([H])[H])c1c([H])c([H])c(N([H])C(=O)N2C([H])([H])C([H])([H])C([H])([H])C([H])(n3nc(-c4c([H])c([H])c(Oc5c([H])c([H])c(F)c([H])c5F)c([H])c4[H])c(C(=O)N([H])[H])c3N([H])[H])C2([H])[H])c([H])c1[H]

$$$$
67:0:0
     RDKit          3D

 88 96  0  0  1  0  0  0  0  0999 V2000
  -28.2700  -18.1960   20.5690 C   0  0  0  0  0  3  0  0  0  0  0  0
  -30.5440  -18.6580   20.1620 C   0  0  0  0  0  3  0  0  0  0  0  0
  -27.9690  -19.6050   20.5110 C   0  0  0  0  0  3  0  0  0  0  0  0
  -30.2360  -20.0970   20.1140 C   0  0  0  0  0  3  0  0  0  0  0  0
  -29.5660  -17.6210   20.3920 C   0  0  0  0  0  0  0  0  0  0  0  0
  -28.9130  -20.6520   20.2830 C   0  0  0  0  0  0  0  0  0  0  0  0
  -30.5640  -15.0240   20.2100 C   0  0  0  0  0  0  0  0  0  0  0  0
  -30.4770  -12.6790   19.2500 C   0  0  0  0  0  2  0  0  0  0  0  0
  -29.4990  -12.6500   18.0480 C   0  0  0  0  0  2  0  0  0  0  0  0
  -28.0470  -12.4370   18.5210 C   0  0  0  0  0  2  0  0  0  0  0  0
  -27.6750  -13.3480   19.7200 C   0  0  0  0  0  3  0  0  0  0  0  0
  -28.7640  -13.3150   20.8150 C   0  0  0  0  0  2  0  0  0  0  0  0
  -30.0230  -13.7410   20.1870 N   0  0  0  0  0  0  0  0  0  0  0  0
  -31.7370  -15.1720   19.8490 O   0  0  0  0  0  0  0  0  0  0  0  0
  -29.6830  -16.0950   20.4860 N   0  0  0  0  0  0  0  0  0  0  0  0
  -28.8050  -15.6890   20.7700 H   0  0  0  0  0  0  0  0  0  0  0  0
  -25.3170  -13.9250   20.5440 C   0  0  0  0  0  0  0  0  0  0  0  0
  -24.2620  -13.1460   20.9340 C   0  0  0  0  0  0  0  0  0  0  0  0
  -24.7190  -11.7940   20.8530 C   0  0  0  0  0  0  0  0  0  0  0  0
  -26.3480  -13.0470   20.2490 N   0  0  0  0  0  0  0  0  0  0  0  0
  -25.9980  -11.7600   20.4990 N   0  0  0  0  0  0  0  0  0  0  0  0
  -23.9930  -10.5300   21.0340 C   0  0  0  0  0  0  0  0  0  0  0  0
  -24.4280   -9.5560   21.9590 C   0  0  0  0  0  3  0  0  0  0  0  0
  -23.7020   -8.3560   22.1280 C   0  0  0  0  0  3  0  0  0  0  0  0
  -22.5270   -8.1240   21.3750 C   0  0  0  0  0  0  0  0  0  0  0  0
  -22.1100   -9.0890   20.4410 C   0  0  0  0  0  3  0  0  0  0  0  0
  -22.8370  -10.2790   20.2680 C   0  0  0  0  0  3  0  0  0  0  0  0
  -21.7730   -6.9790   21.4560 O   0  0  0  0  0  0  0  0  0  0  0  0
  -21.6880   -6.2530   22.6170 C   0  0  0  0  0  0  0  0  0  0  0  0
  -21.1540   -6.8030   23.8030 C   0  0  0  0  0  3  0  0  0  0  0  0
  -21.0220   -6.0010   24.9530 C   0  0  0  0  0  3  0  0  0  0  0  0
  -21.4140   -4.6490   24.9190 C   0  0  0  0  0  0  0  0  0  0  0  0
  -21.9400   -4.0980   23.7370 C   0  0  0  0  0  3  0  0  0  0  0  0
  -22.0740   -4.8980   22.5890 C   0  0  0  0  0  0  0  0  0  0  0  0
  -22.5620   -4.3560   21.4470 F   0  0  0  0  0  0  0  0  0  0  0  0
  -21.2790   -3.8750   26.0220 F   0  0  0  0  0  0  0  0  0  0  0  0
  -22.8760  -13.6220   21.2610 C   0  0  0  0  0  0  0  0  0  0  0  0
  -22.1760  -12.9110   22.1370 N   0  0  0  0  0  0  0  0  0  0  0  0
  -22.4260  -14.6590   20.7750 O   0  0  0  0  0  0  0  0  0  0  0  0
  -22.5530  -12.0730   22.5520 H   0  0  0  0  0  0  0  0  0  0  0  0
  -21.2460  -13.2120   22.3990 H   0  0  0  0  0  0  0  0  0  0  0  0
  -25.4790  -15.2980   20.3870 N   0  0  0  0  0  0  0  0  0  0  0  0
  -24.6990  -15.9360   20.5080 H   0  0  0  0  0  0  0  0  0  0  0  0
  -26.2670  -15.7220   19.9170 H   0  0  0  0  0  0  0  0  0  0  0  0
  -28.3850  -22.0170   20.2260 O   0  0  0  0  0  0  0  0  0  0  0  0
  -29.0060  -23.4170   20.2140 C   0  0  0  0  0  3  0  0  0  0  0  0
  -28.0130  -24.7620   20.0050 C   0  0  0  0  0  3  0  0  0  0  0  0
  -28.2930  -26.2800   20.1940 O   0  0  0  0  0  0  0  0  0  0  0  0
  -24.6160  -31.8830   23.2510 C   0  0  0  0  0  0  0  0  0  0  0  0
  -27.2250  -27.2480   20.1450 C   0  0  0  0  0  0  0  0  0  0  0  0
  -23.4230  -30.5100   21.5880 C   0  0  0  0  0  3  0  0  0  0  0  0
  -24.8820  -28.9690   20.1390 C   0  0  0  0  0  0  0  0  0  0  0  0
  -25.9760  -30.7940   21.4300 C   0  0  0  0  0  2  0  0  0  0  0  0
  -26.0590  -29.4160   20.7540 C   0  0  0  0  0  0  0  0  0  0  0  0
  -27.2310  -28.5720   20.7390 C   0  0  0  0  0  3  0  0  0  0  0  0
  -26.0180  -26.9000   19.4960 C   0  0  0  0  0  3  0  0  0  0  0  0
  -24.8750  -27.7250   19.4950 C   0  0  0  0  0  3  0  0  0  0  0  0
  -23.6490  -29.8570   20.1990 C   0  0  0  0  0  2  0  0  0  0  0  0
  -24.6910  -31.0830   22.1440 N   0  0  0  0  0  0  0  0  0  0  0  0
  -23.5270  -32.1530   23.7830 O   0  0  0  0  0  0  0  0  0  0  0  0
  -22.7510  -29.4810   22.5320 C   0  0  0  0  0  0  0  0  0  0  0  0
  -21.4240  -29.3020   22.3970 N   0  0  0  0  0  0  0  0  0  0  0  0
  -23.4240  -28.8480   23.3490 O   0  0  0  0  0  0  0  0  0  0  0  0
  -20.9370  -29.8650   21.7140 H   0  0  0  0  0  0  0  0  0  0  0  0
  -18.0440  -28.1000   22.8940 C   0  0  0  0  0  0  0  0  0  0  0  0
  -20.6060  -28.3490   23.1520 C   0  0  0  0  0  3  0  0  0  0  0  0
  -20.6990  -26.9300   22.5440 C   0  0  0  0  0  2  0  0  0  0  0  0
  -19.5900  -26.6350   21.5290 C   0  0  0  0  0  2  0  0  0  0  0  0
  -18.2130  -26.7680   22.1850 C   0  0  0  0  0  2  0  0  0  0  0  0
  -19.1680  -28.8500   23.3340 C   0  0  0  0  0  0  0  0  0  0  0  0
  -18.9540  -30.0990   23.9590 C   0  0  0  0  0  3  0  0  0  0  0  0
  -17.6520  -30.5970   24.1490 C   0  0  0  0  0  3  0  0  0  0  0  0
  -16.5430  -29.8440   23.7240 C   0  0  0  0  0  3  0  0  0  0  0  0
  -16.7410  -28.5970   23.1030 C   0  0  0  0  0  3  0  0  0  0  0  0
  -25.8900  -32.5140   23.8890 C   0  0  0  0  0  3  0  0  0  0  0  0
  -26.3890  -31.7410   25.1720 C   0  0  1  0  0  0  0  0  0  0  0  0
  -25.2800  -31.5020   26.2240 C   0  0  0  0  0  1  0  0  0  0  0  0
  -26.9790  -30.3650   24.7900 C   0  0  0  0  0  1  0  0  0  0  0  0
  -27.5300  -32.5350   25.8510 C   0  0  0  0  0  1  0  0  0  0  0  0
  -25.5790  -33.9130   24.2220 N   0  0  0  0  0  0  0  0  0  0  0  0
  -25.8850  -34.9680   23.4560 C   0  0  0  0  0  0  0  0  0  0  0  0
  -26.5270  -34.8660   22.4060 O   0  0  0  0  0  0  0  0  0  0  0  0
  -25.0080  -34.0650   25.0400 H   0  0  0  0  0  0  0  0  0  0  0  0
  -24.1320  -36.7490   23.1580 C   0  0  0  0  0  1  0  0  0  0  0  0
  -25.4060  -36.3550   23.9250 C   0  0  0  0  0  3  0  0  0  0  0  0
  -27.5520  -37.2720   24.6870 C   0  0  0  0  0  1  0  0  0  0  0  0
  -26.4250  -37.4160   23.7700 N   0  0  0  0  0  0  0  0  0  0  0  0
  -26.0150  -38.3350   23.9150 H   0  0  0  0  0  0  0  0  0  0  0  0
  2  5  1  0
  3  1  1  0
  4  2  2  0
  4  6  1  0
  5 15  1  0
  5  1  2  0
  6  3  2  0
  7 15  1  0
  8 13  1  0
  9 10  1  0
  9  8  1  0
 11 10  1  0
 11 20  1  0
 11 12  1  0
 13  7  1  0
 13 12  1  0
 14  7  2  0
 15 16  1  0
 17 18  2  0
 18 37  1  0
 19 18  1  0
 19 22  1  0
 20 21  1  0
 20 17  1  0
 21 19  2  0
 22 23  1  0
 23 24  2  0
 25 28  1  0
 25 24  1  0
 26 25  2  0
 27 26  1  0
 27 22  2  0
 28 29  1  0
 29 30  1  0
 30 31  2  0
 32 31  1  0
 32 36  1  0
 33 32  2  0
 34 29  2  0
 34 33  1  0
 35 34  1  0
 37 38  1  0
 38 41  1  0
 38 40  1  0
 39 37  2  0
 42 43  1  0
 42 17  1  0
 44 42  1  0
 45  6  1  0
 46 45  1  0
 47 48  1  0
 47 46  2  0
 49 60  2  0
 50 48  1  0
 50 55  1  0
 51 59  1  0
 51 61  1  0
 52 58  1  0
 52 54  1  0
 53 59  1  0
 54 53  1  0
 55 54  2  0
 56 50  2  0
 57 56  1  0
 57 52  2  0
 58 51  1  0
 59 49  1  0
 61 63  2  0
 62 61  1  0
 64 62  1  0
 65 74  2  0
 65 70  1  0
 66 62  1  0
 66 70  1  0
 67 66  1  0
 68 69  1  0
 68 67  1  0
 69 65  1  0
 70 71  2  0
 71 72  1  0
 73 72  2  0
 74 73  1  0
 75 49  1  0
 75 80  1  0
 75 76  1  0
 76 79  1  1
 76 77  1  0
 78 76  1  0
 80 83  1  0
 81 85  1  0
 81 80  1  0
 82 81  2  0
 85 84  1  0
 87 88  1  0
 87 85  1  0
 87 86  1  0
M  ISO  4   7 100  15 100  47 101  48 101
M  END
>  <TORSDO>  (68) 
F 19

>  <SCORE>  (68) 
-14.020

>  <name>  (68) 
67

>  <ligand_id>  (68) 
67

>  <original_smiles>  (68) 
[H]c1c([H])c([H])c2c(c1[H])C([H])([H])C([H])([H])C([H])([H])C2([H])N([H])C(=O)C1([H])N(C(=O)C([H])(N([H])C(=O)C([H])(N([H])C([H])([H])[H])C([H])([H])[H])C(C([H])([H])[H])(C([H])([H])[H])C([H])([H])[H])C([H])([H])c2c([H])c(OC([H])([H])C([H])([H])Oc3c([H])c([H])c(N([H])C(=O)N4C([H])([H])C([H])([H])C([H])([H])C([H])(n5nc(-c6c([H])c([H])c(Oc7c([H])c([H])c(F)c([H])c7F)c([H])c6[H])c(C(=O)N([H])[H])c5N([H])[H])C4([H])[H])c([H])c3[H])c([H])c([H])c2C1([H])[H]

>  <smiles>  (68) 
[H]c1c([H])c([H])c2c(c1[H])C([H])([H])C([H])([H])C([H])([H])C2([H])N([H])C(=O)C1([H])N(C(=O)C([H])(N([H])C(=O)C([H])(N([H])C([H])([H])[H])C([H])([H])[H])C(C([H])([H])[H])(C([H])([H])[H])C([H])([H])[H])C([H])([H])c2c([H])c(OC([H])([H])C([H])([H])Oc3c([H])c([H])c(N([H])C(=O)N4C([H])([H])C([H])([H])C([H])([H])C([H])(n5nc(-c6c([H])c([H])c(Oc7c([H])c([H])c(F)c([H])c7F)c([H])c6[H])c(C(=O)N([H])[H])c5N([H])[H])C4([H])[H])c([H])c3[H])c([H])c([H])c2C1([H])[H]

$$$$
68:0:0
     RDKit          3D

 87 95  0  0  1  0  0  0  0  0999 V2000
  -30.0490  -21.0050   23.3030 C   0  0  0  0  0  3  0  0  0  0  0  0
  -29.7170  -22.3490   23.3330 C   0  0  0  0  0  3  0  0  0  0  0  0
  -29.9690  -20.2860   22.1100 C   0  0  0  0  0  3  0  0  0  0  0  0
  -29.3240  -23.0030   22.1640 C   0  0  0  0  0  3  0  0  0  0  0  0
  -29.5800  -20.7790   20.8340 C   0  0  0  0  0  0  0  0  0  0  0  0
  -29.2010  -22.4380   20.8590 C   0  0  0  0  0  0  0  0  0  0  0  0
  -29.8610  -19.1720   19.9140 C   0  0  0  0  0  2  0  0  0  0  0  0
  -30.6380  -16.0050   20.0190 C   0  0  0  0  0  0  0  0  0  0  0  0
  -30.6680  -13.4690   19.1450 C   0  0  0  0  0  2  0  0  0  0  0  0
  -29.7310  -13.0710   17.9640 C   0  0  0  0  0  2  0  0  0  0  0  0
  -28.3350  -12.6980   18.4720 C   0  0  0  0  0  2  0  0  0  0  0  0
  -27.8620  -13.6880   19.5530 C   0  0  0  0  0  3  0  0  0  0  0  0
  -28.9310  -13.9990   20.6350 C   0  0  0  0  0  2  0  0  0  0  0  0
  -30.0880  -14.6390   19.9580 N   0  0  0  0  0  0  0  0  0  0  0  0
  -31.8460  -15.9250   19.7100 O   0  0  0  0  0  0  0  0  0  0  0  0
  -29.9180  -17.3870   20.2380 N   0  0  0  0  0  0  0  0  0  0  0  0
  -29.0150  -17.1360   20.6060 H   0  0  0  0  0  0  0  0  0  0  0  0
  -25.5370  -14.2200   20.4170 C   0  0  0  0  0  0  0  0  0  0  0  0
  -24.4860  -13.4440   20.8060 C   0  0  0  0  0  0  0  0  0  0  0  0
  -24.9380  -12.0900   20.7170 C   0  0  0  0  0  0  0  0  0  0  0  0
  -26.5620  -13.3470   20.1100 N   0  0  0  0  0  0  0  0  0  0  0  0
  -26.2190  -12.0570   20.3590 N   0  0  0  0  0  0  0  0  0  0  0  0
  -24.2020  -10.8290   20.9030 C   0  0  0  0  0  0  0  0  0  0  0  0
  -24.6220   -9.8570   21.8370 C   0  0  0  0  0  3  0  0  0  0  0  0
  -23.8830   -8.6640   22.0120 C   0  0  0  0  0  3  0  0  0  0  0  0
  -22.7110   -8.4350   21.2540 C   0  0  0  0  0  0  0  0  0  0  0  0
  -22.3110   -9.3980   20.3080 C   0  0  0  0  0  3  0  0  0  0  0  0
  -23.0490  -10.5790   20.1300 C   0  0  0  0  0  3  0  0  0  0  0  0
  -21.9460   -7.2980   21.3390 O   0  0  0  0  0  0  0  0  0  0  0  0
  -21.8490   -6.5820   22.5060 C   0  0  0  0  0  0  0  0  0  0  0  0
  -21.3470   -7.1590   23.6940 C   0  0  0  0  0  3  0  0  0  0  0  0
  -21.1980   -6.3670   24.8510 C   0  0  0  0  0  3  0  0  0  0  0  0
  -21.5380   -5.0010   24.8220 C   0  0  0  0  0  0  0  0  0  0  0  0
  -22.0330   -4.4260   23.6380 C   0  0  0  0  0  3  0  0  0  0  0  0
  -22.1860   -5.2120   22.4830 C   0  0  0  0  0  0  0  0  0  0  0  0
  -22.6410   -4.6480   21.3390 F   0  0  0  0  0  0  0  0  0  0  0  0
  -21.3880   -4.2400   25.9310 F   0  0  0  0  0  0  0  0  0  0  0  0
  -23.1030  -13.9240   21.1360 C   0  0  0  0  0  0  0  0  0  0  0  0
  -22.4030  -13.2200   22.0170 N   0  0  0  0  0  0  0  0  0  0  0  0
  -22.6550  -14.9610   20.6450 O   0  0  0  0  0  0  0  0  0  0  0  0
  -22.7810  -12.3860   22.4430 H   0  0  0  0  0  0  0  0  0  0  0  0
  -21.4730  -13.5210   22.2770 H   0  0  0  0  0  0  0  0  0  0  0  0
  -25.7010  -15.5930   20.2630 N   0  0  0  0  0  0  0  0  0  0  0  0
  -24.9450  -16.2510   20.4130 H   0  0  0  0  0  0  0  0  0  0  0  0
  -26.5280  -16.0260   19.8770 H   0  0  0  0  0  0  0  0  0  0  0  0
  -28.6250  -23.9980   19.9990 C   0  0  0  0  0  2  0  0  0  0  0  0
  -28.5130  -25.7350   20.4330 O   0  0  0  0  0  0  0  0  0  0  0  0
  -24.7610  -31.9330   23.2430 C   0  0  0  0  0  0  0  0  0  0  0  0
  -27.5140  -26.9390   20.2810 C   0  0  0  0  0  0  0  0  0  0  0  0
  -23.6450  -30.5200   21.5620 C   0  0  0  0  0  3  0  0  0  0  0  0
  -25.1810  -28.9210   20.1620 C   0  0  0  0  0  0  0  0  0  0  0  0
  -26.2230  -30.7360   21.4990 C   0  0  0  0  0  2  0  0  0  0  0  0
  -26.3460  -29.3080   20.8360 C   0  0  0  0  0  0  0  0  0  0  0  0
  -27.4890  -28.3430   20.8650 C   0  0  0  0  0  3  0  0  0  0  0  0
  -26.3170  -26.7790   19.5340 C   0  0  0  0  0  3  0  0  0  0  0  0
  -25.2080  -27.6890   19.4840 C   0  0  0  0  0  3  0  0  0  0  0  0
  -23.9390  -29.8340   20.1920 C   0  0  0  0  0  2  0  0  0  0  0  0
  -24.8980  -31.0980   22.1540 N   0  0  0  0  0  0  0  0  0  0  0  0
  -23.6500  -32.1990   23.7340 O   0  0  0  0  0  0  0  0  0  0  0  0
  -22.9340  -29.5180   22.5120 C   0  0  0  0  0  0  0  0  0  0  0  0
  -21.6070  -29.3410   22.3690 N   0  0  0  0  0  0  0  0  0  0  0  0
  -23.5920  -28.8940   23.3490 O   0  0  0  0  0  0  0  0  0  0  0  0
  -21.1270  -29.8940   21.6720 H   0  0  0  0  0  0  0  0  0  0  0  0
  -18.2350  -28.0650   22.8380 C   0  0  0  0  0  0  0  0  0  0  0  0
  -20.7900  -28.3760   23.1150 C   0  0  0  0  0  3  0  0  0  0  0  0
  -20.9180  -26.9580   22.5130 C   0  0  0  0  0  2  0  0  0  0  0  0
  -19.8260  -26.6380   21.4860 C   0  0  0  0  0  2  0  0  0  0  0  0
  -18.4390  -26.7400   22.1260 C   0  0  0  0  0  2  0  0  0  0  0  0
  -19.3380  -28.8410   23.2880 C   0  0  0  0  0  0  0  0  0  0  0  0
  -19.0890  -30.0800   23.9190 C   0  0  0  0  0  3  0  0  0  0  0  0
  -17.7720  -30.5440   24.1030 C   0  0  0  0  0  3  0  0  0  0  0  0
  -16.6860  -29.7690   23.6640 C   0  0  0  0  0  3  0  0  0  0  0  0
  -16.9180  -28.5320   23.0390 C   0  0  0  0  0  3  0  0  0  0  0  0
  -25.9930  -32.6120   23.9140 C   0  0  0  0  0  3  0  0  0  0  0  0
  -25.6380  -34.0110   24.2260 N   0  0  0  0  0  0  0  0  0  0  0  0
  -25.9670  -35.0770   23.4830 C   0  0  0  0  0  0  0  0  0  0  0  0
  -26.6570  -34.9840   22.4640 O   0  0  0  0  0  0  0  0  0  0  0  0
  -25.0240  -34.1520   25.0160 H   0  0  0  0  0  0  0  0  0  0  0  0
  -24.2100  -36.8480   23.1220 C   0  0  0  0  0  1  0  0  0  0  0  0
  -25.4540  -36.4600   23.9380 C   0  0  0  0  0  3  0  0  0  0  0  0
  -27.5590  -37.4020   24.7880 C   0  0  0  0  0  1  0  0  0  0  0  0
  -26.4680  -37.5330   23.8260 N   0  0  0  0  0  0  0  0  0  0  0  0
  -26.0420  -38.4460   23.9520 H   0  0  0  0  0  0  0  0  0  0  0  0
  -26.4630  -31.8730   25.2310 C   0  0  1  0  0  0  0  0  0  0  0  0
  -25.3230  -31.6370   26.2520 C   0  0  0  0  0  1  0  0  0  0  0  0
  -27.0860  -30.4970   24.9060 C   0  0  0  0  0  1  0  0  0  0  0  0
  -27.5660  -32.7010   25.9320 C   0  0  0  0  0  1  0  0  0  0  0  0
  1  2  1  0
  3  1  2  0
  4  2  2  0
  5  6  2  0
  5  3  1  0
  6  4  1  0
  7 16  1  0
  7  5  1  0
  8 16  1  0
  9 14  1  0
 10 11  1  0
 10  9  1  0
 12 11  1  0
 12 21  1  0
 12 13  1  0
 14  8  1  0
 14 13  1  0
 15  8  2  0
 16 17  1  0
 18 19  2  0
 19 38  1  0
 20 19  1  0
 20 23  1  0
 21 22  1  0
 21 18  1  0
 22 20  2  0
 23 24  1  0
 24 25  2  0
 26 29  1  0
 26 25  1  0
 27 26  2  0
 28 27  1  0
 28 23  2  0
 29 30  1  0
 30 31  1  0
 31 32  2  0
 33 32  1  0
 33 37  1  0
 34 33  2  0
 35 30  2  0
 35 34  1  0
 36 35  1  0
 38 39  1  0
 39 42  1  0
 39 41  1  0
 40 38  2  0
 43 44  1  0
 43 18  1  0
 45 43  1  0
 46 47  1  0
 46  6  1  0
 48 59  2  0
 49 47  1  0
 49 54  1  0
 50 58  1  0
 50 60  1  0
 51 57  1  0
 51 53  1  0
 52 58  1  0
 53 54  2  0
 53 52  1  0
 55 49  2  0
 56 55  1  0
 56 51  2  0
 57 50  1  0
 58 48  1  0
 60 62  2  0
 61 60  1  0
 63 61  1  0
 64 73  2  0
 64 69  1  0
 65 61  1  0
 65 69  1  0
 66 65  1  0
 67 68  1  0
 67 66  1  0
 68 64  1  0
 69 70  2  0
 70 71  1  0
 72 71  2  0
 73 72  1  0
 74 48  1  0
 74 75  1  0
 74 84  1  0
 75 78  1  0
 76 80  1  0
 76 75  1  0
 77 76  2  0
 80 79  1  0
 82 80  1  0
 82 83  1  0
 82 81  1  0
 84 87  1  1
 84 85  1  0
 86 84  1  0
M  ISO  4   8 100  16 100  46 101  47 101
M  END
>  <TORSDO>  (69) 
F 18

>  <SCORE>  (69) 
-15.900

>  <name>  (69) 
68

>  <ligand_id>  (69) 
68

>  <original_smiles>  (69) 
[H]c1c([H])c([H])c(C([H])([H])N([H])C(=O)N2C([H])([H])C([H])([H])C([H])([H])C([H])(n3nc(-c4c([H])c([H])c(Oc5c([H])c([H])c(F)c([H])c5F)c([H])c4[H])c(C(=O)N([H])[H])c3N([H])[H])C2([H])[H])c(C([H])([H])Oc2c([H])c([H])c3c(c2[H])C([H])([H])N(C(=O)C([H])(N([H])C(=O)C([H])(N([H])C([H])([H])[H])C([H])([H])[H])C(C([H])([H])[H])(C([H])([H])[H])C([H])([H])[H])C([H])(C(=O)N([H])C2([H])c4c([H])c([H])c([H])c([H])c4C([H])([H])C([H])([H])C2([H])[H])C3([H])[H])c1[H]

>  <smiles>  (69) 
[H]c1c([H])c([H])c(C([H])([H])N([H])C(=O)N2C([H])([H])C([H])([H])C([H])([H])C([H])(n3nc(-c4c([H])c([H])c(Oc5c([H])c([H])c(F)c([H])c5F)c([H])c4[H])c(C(=O)N([H])[H])c3N([H])[H])C2([H])[H])c(C([H])([H])Oc2c([H])c([H])c3c(c2[H])C([H])([H])N(C(=O)C([H])(N([H])C(=O)C([H])(N([H])C([H])([H])[H])C([H])([H])[H])C(C([H])([H])[H])(C([H])([H])[H])C([H])([H])[H])C([H])(C(=O)N([H])C2([H])c4c([H])c([H])c([H])c([H])c4C([H])([H])C([H])([H])C2([H])[H])C3([H])[H])c1[H]

$$$$
69:0:0
     RDKit          3D

 89 97  0  0  1  0  0  0  0  0999 V2000
  -30.1540  -21.7130   20.3380 C   0  0  0  0  0  2  0  0  0  0  0  0
  -31.1670  -19.3310   20.2330 C   0  0  0  0  0  3  0  0  0  0  0  0
  -28.7980  -19.4440   20.6040 C   0  0  0  0  0  3  0  0  0  0  0  0
  -31.1360  -17.9070   20.3180 C   0  0  0  0  0  3  0  0  0  0  0  0
  -28.7640  -18.0160   20.6900 C   0  0  0  0  0  3  0  0  0  0  0  0
  -30.0070  -20.1440   20.3720 C   0  0  0  0  0  0  0  0  0  0  0  0
  -29.9260  -17.2010   20.5510 C   0  0  0  0  0  0  0  0  0  0  0  0
  -30.5930  -14.6890   20.2930 C   0  0  0  0  0  0  0  0  0  0  0  0
  -30.3610  -12.4600   19.2140 C   0  0  0  0  0  2  0  0  0  0  0  0
  -29.3960  -12.6020   18.0150 C   0  0  0  0  0  2  0  0  0  0  0  0
  -27.9300  -12.4370   18.4690 C   0  0  0  0  0  2  0  0  0  0  0  0
  -27.5920  -13.2860   19.7230 C   0  0  0  0  0  3  0  0  0  0  0  0
  -28.6710  -13.1220   20.8170 C   0  0  0  0  0  2  0  0  0  0  0  0
  -29.9720  -13.4680   20.2200 N   0  0  0  0  0  0  0  0  0  0  0  0
  -31.7490  -14.8400   19.8870 O   0  0  0  0  0  0  0  0  0  0  0  0
  -29.7980  -15.7440   20.6710 N   0  0  0  0  0  0  0  0  0  0  0  0
  -28.8920  -15.4340   20.9850 H   0  0  0  0  0  0  0  0  0  0  0  0
  -25.2120  -13.8790   20.4900 C   0  0  0  0  0  0  0  0  0  0  0  0
  -24.1520  -13.1030   20.8730 C   0  0  0  0  0  0  0  0  0  0  0  0
  -24.6120  -11.7510   20.8170 C   0  0  0  0  0  0  0  0  0  0  0  0
  -26.2520  -13.0010   20.2280 N   0  0  0  0  0  0  0  0  0  0  0  0
  -25.8970  -11.7150   20.4840 N   0  0  0  0  0  0  0  0  0  0  0  0
  -23.8870  -10.4870   21.0060 C   0  0  0  0  0  0  0  0  0  0  0  0
  -24.3180   -9.5230   21.9450 C   0  0  0  0  0  3  0  0  0  0  0  0
  -23.5930   -8.3250   22.1220 C   0  0  0  0  0  3  0  0  0  0  0  0
  -22.4270   -8.0810   21.3590 C   0  0  0  0  0  0  0  0  0  0  0  0
  -22.0160   -9.0330   20.4110 C   0  0  0  0  0  3  0  0  0  0  0  0
  -22.7410  -10.2240   20.2320 C   0  0  0  0  0  3  0  0  0  0  0  0
  -21.6760   -6.9330   21.4450 O   0  0  0  0  0  0  0  0  0  0  0  0
  -21.5950   -6.2100   22.6090 C   0  0  0  0  0  0  0  0  0  0  0  0
  -21.1100   -6.7780   23.8070 C   0  0  0  0  0  3  0  0  0  0  0  0
  -20.9790   -5.9800   24.9610 C   0  0  0  0  0  3  0  0  0  0  0  0
  -21.3230   -4.6170   24.9180 C   0  0  0  0  0  0  0  0  0  0  0  0
  -21.8010   -4.0480   23.7240 C   0  0  0  0  0  3  0  0  0  0  0  0
  -21.9330   -4.8420   22.5720 C   0  0  0  0  0  0  0  0  0  0  0  0
  -22.3750   -4.2850   21.4180 F   0  0  0  0  0  0  0  0  0  0  0  0
  -21.1890   -3.8480   26.0240 F   0  0  0  0  0  0  0  0  0  0  0  0
  -22.7590  -13.5780   21.1740 C   0  0  0  0  0  0  0  0  0  0  0  0
  -22.0470  -12.8750   22.0480 N   0  0  0  0  0  0  0  0  0  0  0  0
  -22.3130  -14.6080   20.6700 O   0  0  0  0  0  0  0  0  0  0  0  0
  -22.4200  -12.0420   22.4800 H   0  0  0  0  0  0  0  0  0  0  0  0
  -21.1130  -13.1750   22.2910 H   0  0  0  0  0  0  0  0  0  0  0  0
  -25.3710  -15.2510   20.3180 N   0  0  0  0  0  0  0  0  0  0  0  0
  -24.5920  -15.8920   20.4170 H   0  0  0  0  0  0  0  0  0  0  0  0
  -26.1880  -15.6840   19.9090 H   0  0  0  0  0  0  0  0  0  0  0  0
  -28.9870  -22.5910   20.2260 O   0  0  0  0  0  0  0  0  0  0  0  0
  -29.2900  -24.0350   20.2950 C   0  0  0  0  0  3  0  0  0  0  0  0
  -28.1050  -25.0540   20.0050 C   0  0  0  0  0  3  0  0  0  0  0  0
  -28.3170  -26.5120   20.1850 O   0  0  0  0  0  0  0  0  0  0  0  0
  -24.5830  -31.8820   23.2400 C   0  0  0  0  0  0  0  0  0  0  0  0
  -27.1930  -27.3540   20.1440 C   0  0  0  0  0  0  0  0  0  0  0  0
  -23.3760  -30.4970   21.5930 C   0  0  0  0  0  3  0  0  0  0  0  0
  -24.8230  -28.9600   20.1520 C   0  0  0  0  0  0  0  0  0  0  0  0
  -25.9140  -30.8200   21.4050 C   0  0  0  0  0  2  0  0  0  0  0  0
  -25.9940  -29.4470   20.7480 C   0  0  0  0  0  0  0  0  0  0  0  0
  -27.1820  -28.6570   20.7310 C   0  0  0  0  0  3  0  0  0  0  0  0
  -25.9930  -26.9200   19.5290 C   0  0  0  0  0  3  0  0  0  0  0  0
  -24.8260  -27.7020   19.5340 C   0  0  0  0  0  3  0  0  0  0  0  0
  -23.5860  -29.8310   20.2070 C   0  0  0  0  0  2  0  0  0  0  0  0
  -24.6430  -31.0820   22.1360 N   0  0  0  0  0  0  0  0  0  0  0  0
  -23.5000  -32.1570   23.7780 O   0  0  0  0  0  0  0  0  0  0  0  0
  -22.7160  -29.4710   22.5450 C   0  0  0  0  0  0  0  0  0  0  0  0
  -21.3900  -29.2930   22.4150 N   0  0  0  0  0  0  0  0  0  0  0  0
  -23.3950  -28.8400   23.3590 O   0  0  0  0  0  0  0  0  0  0  0  0
  -20.9010  -29.8530   21.7300 H   0  0  0  0  0  0  0  0  0  0  0  0
  -18.0110  -28.1010   22.9090 C   0  0  0  0  0  0  0  0  0  0  0  0
  -20.5700  -28.3520   23.1780 C   0  0  0  0  0  3  0  0  0  0  0  0
  -20.6670  -26.9240   22.5900 C   0  0  0  0  0  2  0  0  0  0  0  0
  -19.5630  -26.6130   21.5750 C   0  0  0  0  0  2  0  0  0  0  0  0
  -18.1830  -26.7570   22.2220 C   0  0  0  0  0  2  0  0  0  0  0  0
  -19.1320  -28.8560   23.3440 C   0  0  0  0  0  0  0  0  0  0  0  0
  -18.9160  -30.1160   23.9450 C   0  0  0  0  0  3  0  0  0  0  0  0
  -17.6130  -30.6170   24.1170 C   0  0  0  0  0  3  0  0  0  0  0  0
  -16.5060  -29.8590   23.6990 C   0  0  0  0  0  3  0  0  0  0  0  0
  -16.7070  -28.6020   23.0990 C   0  0  0  0  0  3  0  0  0  0  0  0
  -25.8670  -32.5080   23.8660 C   0  0  0  0  0  3  0  0  0  0  0  0
  -26.3790  -31.7300   25.1390 C   0  0  1  0  0  0  0  0  0  0  0  0
  -25.2830  -31.4890   26.2030 C   0  0  0  0  0  1  0  0  0  0  0  0
  -26.9610  -30.3530   24.7410 C   0  0  0  0  0  1  0  0  0  0  0  0
  -27.5290  -32.5200   25.8070 C   0  0  0  0  0  1  0  0  0  0  0  0
  -25.5600  -33.9060   24.2030 N   0  0  0  0  0  0  0  0  0  0  0  0
  -25.8660  -34.9590   23.4340 C   0  0  0  0  0  0  0  0  0  0  0  0
  -26.5060  -34.8570   22.3840 O   0  0  0  0  0  0  0  0  0  0  0  0
  -24.9890  -34.0590   25.0210 H   0  0  0  0  0  0  0  0  0  0  0  0
  -24.1080  -36.7330   23.1440 C   0  0  0  0  0  1  0  0  0  0  0  0
  -25.3870  -36.3460   23.9040 C   0  0  0  0  0  3  0  0  0  0  0  0
  -27.5430  -37.2580   24.6420 C   0  0  0  0  0  1  0  0  0  0  0  0
  -26.4040  -37.4080   23.7390 N   0  0  0  0  0  0  0  0  0  0  0  0
  -25.9950  -38.3250   23.8930 H   0  0  0  0  0  0  0  0  0  0  0  0
  1  6  1  0
  2  4  2  0
  2  6  1  0
  3  5  1  0
  4  7  1  0
  6  3  2  0
  7 16  1  0
  7  5  2  0
  8 16  1  0
  9 14  1  0
 10 11  1  0
 10  9  1  0
 12 11  1  0
 12 21  1  0
 12 13  1  0
 14  8  1  0
 14 13  1  0
 15  8  2  0
 16 17  1  0
 18 19  2  0
 19 38  1  0
 20 19  1  0
 20 23  1  0
 21 22  1  0
 21 18  1  0
 22 20  2  0
 23 24  1  0
 24 25  2  0
 26 29  1  0
 26 25  1  0
 27 26  2  0
 28 27  1  0
 28 23  2  0
 29 30  1  0
 30 31  1  0
 31 32  2  0
 33 32  1  0
 33 37  1  0
 34 33  2  0
 35 30  2  0
 35 34  1  0
 36 35  1  0
 38 39  1  0
 39 42  1  0
 39 41  1  0
 40 38  2  0
 43 44  1  0
 43 18  1  0
 45 43  1  0
 46 47  1  0
 46  1  1  0
 48 49  1  0
 48 47  2  0
 50 61  2  0
 51 49  1  0
 51 56  1  0
 52 60  1  0
 52 62  1  0
 53 59  1  0
 53 55  1  0
 54 60  1  0
 55 54  1  0
 56 55  2  0
 57 58  1  0
 57 51  2  0
 58 53  2  0
 59 52  1  0
 60 50  1  0
 62 64  2  0
 63 62  1  0
 65 63  1  0
 66 75  2  0
 66 71  1  0
 67 63  1  0
 67 71  1  0
 68 67  1  0
 69 70  1  0
 69 68  1  0
 70 66  1  0
 71 72  2  0
 72 73  1  0
 74 73  2  0
 75 74  1  0
 76 50  1  0
 76 81  1  0
 76 77  1  0
 77 80  1  1
 77 78  1  0
 79 77  1  0
 81 84  1  0
 82 86  1  0
 82 81  1  0
 83 82  2  0
 86 85  1  0
 88 89  1  0
 88 86  1  0
 88 87  1  0
M  ISO  4   8 100  16 100  48 101  49 101
M  END
>  <TORSDO>  (70) 
F 20

>  <SCORE>  (70) 
-13.802

>  <name>  (70) 
69

>  <ligand_id>  (70) 
69

>  <original_smiles>  (70) 
[H]c1c([H])c([H])c2c(c1[H])C([H])([H])C([H])([H])C([H])([H])C2([H])N([H])C(=O)C1([H])N(C(=O)C([H])(N([H])C(=O)C([H])(N([H])C([H])([H])[H])C([H])([H])[H])C(C([H])([H])[H])(C([H])([H])[H])C([H])([H])[H])C([H])([H])c2c([H])c(OC([H])([H])C([H])([H])OC([H])([H])c3c([H])c([H])c(N([H])C(=O)N4C([H])([H])C([H])([H])C([H])([H])C([H])(n5nc(-c6c([H])c([H])c(Oc7c([H])c([H])c(F)c([H])c7F)c([H])c6[H])c(C(=O)N([H])[H])c5N([H])[H])C4([H])[H])c([H])c3[H])c([H])c([H])c2C1([H])[H]

>  <smiles>  (70) 
[H]c1c([H])c([H])c2c(c1[H])C([H])([H])C([H])([H])C([H])([H])C2([H])N([H])C(=O)C1([H])N(C(=O)C([H])(N([H])C(=O)C([H])(N([H])C([H])([H])[H])C([H])([H])[H])C(C([H])([H])[H])(C([H])([H])[H])C([H])([H])[H])C([H])([H])c2c([H])c(OC([H])([H])C([H])([H])OC([H])([H])c3c([H])c([H])c(N([H])C(=O)N4C([H])([H])C([H])([H])C([H])([H])C([H])(n5nc(-c6c([H])c([H])c(Oc7c([H])c([H])c(F)c([H])c7F)c([H])c6[H])c(C(=O)N([H])[H])c5N([H])[H])C4([H])[H])c([H])c3[H])c([H])c([H])c2C1([H])[H]

$$$$
70:0:0
     RDKit          3D

 90 98  0  0  1  0  0  0  0  0999 V2000
  -30.1960  -19.3130   18.8000 C   0  0  0  0  0  3  0  0  0  0  0  0
  -29.0050  -18.5860   20.7800 C   0  0  0  0  0  3  0  0  0  0  0  0
  -29.7580  -20.6370   19.0050 C   0  0  0  0  0  3  0  0  0  0  0  0
  -28.5710  -19.9270   20.9950 C   0  0  0  0  0  3  0  0  0  0  0  0
  -29.8150  -18.2590   19.6630 C   0  0  0  0  0  0  0  0  0  0  0  0
  -28.9260  -20.9680   20.0890 C   0  0  0  0  0  0  0  0  0  0  0  0
  -30.2980  -16.8400   19.2870 C   0  0  0  0  0  2  0  0  0  0  0  0
  -30.8140  -14.5440   20.0020 C   0  0  0  0  0  0  0  0  0  0  0  0
  -30.4420  -12.3680   18.9250 C   0  0  0  0  0  2  0  0  0  0  0  0
  -29.4500  -12.6040   17.7700 C   0  0  0  0  0  2  0  0  0  0  0  0
  -28.0010  -12.4660   18.2720 C   0  0  0  0  0  2  0  0  0  0  0  0
  -27.7310  -13.2840   19.5670 C   0  0  0  0  0  3  0  0  0  0  0  0
  -28.8490  -13.0750   20.6170 C   0  0  0  0  0  2  0  0  0  0  0  0
  -30.1370  -13.3620   19.9700 N   0  0  0  0  0  0  0  0  0  0  0  0
  -31.9760  -14.6420   19.6010 O   0  0  0  0  0  0  0  0  0  0  0  0
  -30.0600  -15.6610   20.1540 N   0  0  0  0  0  0  0  0  0  0  0  0
  -29.1250  -15.5310   20.5030 H   0  0  0  0  0  0  0  0  0  0  0  0
  -25.3770  -13.8780   20.4130 C   0  0  0  0  0  0  0  0  0  0  0  0
  -24.3310  -13.0980   20.8220 C   0  0  0  0  0  0  0  0  0  0  0  0
  -24.7860  -11.7470   20.7440 C   0  0  0  0  0  0  0  0  0  0  0  0
  -26.4090  -13.0010   20.1150 N   0  0  0  0  0  0  0  0  0  0  0  0
  -26.0590  -11.7140   20.3720 N   0  0  0  0  0  0  0  0  0  0  0  0
  -24.0720  -10.4820   20.9490 C   0  0  0  0  0  0  0  0  0  0  0  0
  -24.5170   -9.5260   21.8880 C   0  0  0  0  0  3  0  0  0  0  0  0
  -23.7980   -8.3280   22.0830 C   0  0  0  0  0  3  0  0  0  0  0  0
  -22.6190   -8.0790   21.3390 C   0  0  0  0  0  0  0  0  0  0  0  0
  -22.1940   -9.0240   20.3890 C   0  0  0  0  0  3  0  0  0  0  0  0
  -22.9140  -10.2150   20.1920 C   0  0  0  0  0  3  0  0  0  0  0  0
  -21.8680   -6.9330   21.4410 O   0  0  0  0  0  0  0  0  0  0  0  0
  -21.8040   -6.2180   22.6100 C   0  0  0  0  0  0  0  0  0  0  0  0
  -21.3100   -6.7820   23.8050 C   0  0  0  0  0  3  0  0  0  0  0  0
  -21.1960   -5.9910   24.9650 C   0  0  0  0  0  3  0  0  0  0  0  0
  -21.5680   -4.6330   24.9310 C   0  0  0  0  0  0  0  0  0  0  0  0
  -22.0570   -4.0680   23.7390 C   0  0  0  0  0  3  0  0  0  0  0  0
  -22.1720   -4.8570   22.5830 C   0  0  0  0  0  0  0  0  0  0  0  0
  -22.6210   -4.3000   21.4320 F   0  0  0  0  0  0  0  0  0  0  0  0
  -21.4540   -3.8690   26.0430 F   0  0  0  0  0  0  0  0  0  0  0  0
  -22.9500  -13.5720   21.1740 C   0  0  0  0  0  0  0  0  0  0  0  0
  -22.2690  -12.8540   22.0570 N   0  0  0  0  0  0  0  0  0  0  0  0
  -22.4870  -14.6080   20.7020 O   0  0  0  0  0  0  0  0  0  0  0  0
  -22.6640  -12.0170   22.4620 H   0  0  0  0  0  0  0  0  0  0  0  0
  -21.3390  -13.1430   22.3280 H   0  0  0  0  0  0  0  0  0  0  0  0
  -25.5260  -15.2540   20.2470 N   0  0  0  0  0  0  0  0  0  0  0  0
  -24.7520  -15.8900   20.4020 H   0  0  0  0  0  0  0  0  0  0  0  0
  -26.3370  -15.7130   19.8570 H   0  0  0  0  0  0  0  0  0  0  0  0
  -28.4610  -22.2740   20.1350 O   0  0  0  0  0  0  0  0  0  0  0  0
  -28.3720  -22.9400   21.3940 C   0  0  0  0  0  2  0  0  0  0  0  0
  -27.8880  -24.4250   21.2630 C   0  0  0  0  0  2  0  0  0  0  0  0
  -28.5590  -25.2930   20.1570 C   0  0  0  0  0  2  0  0  0  0  0  0
  -28.5020  -26.7250   20.3620 O   0  0  0  0  0  0  0  0  0  0  0  0
  -24.5440  -31.8420   23.2750 C   0  0  0  0  0  0  0  0  0  0  0  0
  -27.3130  -27.4230   20.2660 C   0  0  0  0  0  0  0  0  0  0  0  0
  -23.4000  -30.4500   21.5780 C   0  0  0  0  0  3  0  0  0  0  0  0
  -24.9100  -28.9300   20.1850 C   0  0  0  0  0  0  0  0  0  0  0  0
  -25.9280  -30.8240   21.4630 C   0  0  0  0  0  2  0  0  0  0  0  0
  -26.0440  -29.4570   20.8130 C   0  0  0  0  0  0  0  0  0  0  0  0
  -27.2460  -28.7150   20.8430 C   0  0  0  0  0  3  0  0  0  0  0  0
  -26.1630  -26.9110   19.6240 C   0  0  0  0  0  3  0  0  0  0  0  0
  -24.9670  -27.6590   19.5830 C   0  0  0  0  0  3  0  0  0  0  0  0
  -23.6580  -29.7800   20.2000 C   0  0  0  0  0  2  0  0  0  0  0  0
  -24.6410  -31.0530   22.1650 N   0  0  0  0  0  0  0  0  0  0  0  0
  -23.4430  -32.1050   23.7840 O   0  0  0  0  0  0  0  0  0  0  0  0
  -22.7210  -29.4190   22.5070 C   0  0  0  0  0  0  0  0  0  0  0  0
  -21.3970  -29.2610   22.3610 N   0  0  0  0  0  0  0  0  0  0  0  0
  -23.3860  -28.7630   23.3140 O   0  0  0  0  0  0  0  0  0  0  0  0
  -20.9220  -29.8430   21.6860 H   0  0  0  0  0  0  0  0  0  0  0  0
  -17.9920  -28.1530   22.8360 C   0  0  0  0  0  0  0  0  0  0  0  0
  -20.5570  -28.3150   23.0970 C   0  0  0  0  0  3  0  0  0  0  0  0
  -20.6090  -26.9090   22.4550 C   0  0  0  0  0  2  0  0  0  0  0  0
  -19.4910  -26.6660   21.4370 C   0  0  0  0  0  2  0  0  0  0  0  0
  -18.1200  -26.8310   22.1000 C   0  0  0  0  0  2  0  0  0  0  0  0
  -19.1380  -28.8580   23.2900 C   0  0  0  0  0  0  0  0  0  0  0  0
  -18.9660  -30.1030   23.9350 C   0  0  0  0  0  3  0  0  0  0  0  0
  -17.6800  -30.6390   24.1320 C   0  0  0  0  0  3  0  0  0  0  0  0
  -16.5480  -29.9280   23.6970 C   0  0  0  0  0  3  0  0  0  0  0  0
  -16.7050  -28.6860   23.0550 C   0  0  0  0  0  3  0  0  0  0  0  0
  -25.8060  -32.4710   23.9470 C   0  0  0  0  0  3  0  0  0  0  0  0
  -25.4960  -33.8750   24.2460 N   0  0  0  0  0  0  0  0  0  0  0  0
  -25.8660  -34.9130   23.4840 C   0  0  0  0  0  0  0  0  0  0  0  0
  -26.5720  -34.7910   22.4800 O   0  0  0  0  0  0  0  0  0  0  0  0
  -24.8800  -34.0490   25.0270 H   0  0  0  0  0  0  0  0  0  0  0  0
  -24.1770  -36.7160   23.0270 C   0  0  0  0  0  1  0  0  0  0  0  0
  -25.3720  -36.3100   23.9040 C   0  0  0  0  0  3  0  0  0  0  0  0
  -27.4640  -37.1890   24.8400 C   0  0  0  0  0  1  0  0  0  0  0  0
  -26.4200  -37.3500   23.8320 N   0  0  0  0  0  0  0  0  0  0  0  0
  -26.0170  -38.2760   23.9380 H   0  0  0  0  0  0  0  0  0  0  0  0
  -26.2650  -31.7100   25.2500 C   0  0  1  0  0  0  0  0  0  0  0  0
  -25.1310  -31.4820   26.2770 C   0  0  0  0  0  1  0  0  0  0  0  0
  -26.8580  -30.3290   24.8890 C   0  0  0  0  0  1  0  0  0  0  0  0
  -27.3880  -32.5100   25.9530 C   0  0  0  0  0  1  0  0  0  0  0  0
  1  3  2  0
  1  5  1  0
  2  4  1  0
  3  6  1  0
  5  2  2  0
  6 46  1  0
  6  4  2  0
  7  5  1  0
  7 16  1  0
  8 16  1  0
  9 14  1  0
 10 11  1  0
 10  9  1  0
 12 11  1  0
 12 21  1  0
 12 13  1  0
 14  8  1  0
 14 13  1  0
 15  8  2  0
 16 17  1  0
 18 19  2  0
 19 38  1  0
 20 19  1  0
 20 23  1  0
 21 22  1  0
 21 18  1  0
 22 20  2  0
 23 24  1  0
 24 25  2  0
 26 29  1  0
 26 25  1  0
 27 26  2  0
 28 27  1  0
 28 23  2  0
 29 30  1  0
 30 31  1  0
 31 32  2  0
 33 32  1  0
 33 37  1  0
 34 33  2  0
 35 30  2  0
 35 34  1  0
 36 35  1  0
 38 39  1  0
 39 42  1  0
 39 41  1  0
 40 38  2  0
 43 44  1  0
 43 18  1  0
 45 43  1  0
 46 47  1  0
 48 47  1  0
 49 50  1  0
 49 48  1  0
 51 62  2  0
 52 50  1  0
 52 57  1  0
 53 61  1  0
 53 63  1  0
 54 60  1  0
 54 56  1  0
 55 61  1  0
 56 57  2  0
 56 55  1  0
 58 52  2  0
 59 58  1  0
 59 54  2  0
 60 53  1  0
 61 51  1  0
 63 65  2  0
 64 63  1  0
 66 64  1  0
 67 76  2  0
 67 72  1  0
 68 64  1  0
 68 72  1  0
 69 68  1  0
 70 71  1  0
 70 69  1  0
 71 67  1  0
 72 73  2  0
 73 74  1  0
 75 74  2  0
 76 75  1  0
 77 51  1  0
 77 78  1  0
 77 87  1  0
 78 81  1  0
 79 83  1  0
 79 78  1  0
 80 79  2  0
 83 82  1  0
 85 83  1  0
 85 86  1  0
 85 84  1  0
 87 90  1  1
 87 88  1  0
 89 87  1  0
M  ISO  4   8 100  16 100  49 101  50 101
M  END
>  <TORSDO>  (71) 
F 21

>  <SCORE>  (71) 
-13.069

>  <name>  (71) 
70

>  <ligand_id>  (71) 
70

>  <original_smiles>  (71) 
[H]c1c([H])c([H])c2c(c1[H])C([H])([H])C([H])([H])C([H])([H])C2([H])N([H])C(=O)C1([H])N(C(=O)C([H])(N([H])C(=O)C([H])(N([H])C([H])([H])[H])C([H])([H])[H])C(C([H])([H])[H])(C([H])([H])[H])C([H])([H])[H])C([H])([H])c2c([H])c(OC([H])([H])C([H])([H])C([H])([H])Oc3c([H])c([H])c(C([H])([H])N([H])C(=O)N4C([H])([H])C([H])([H])C([H])([H])C([H])(n5nc(-c6c([H])c([H])c(Oc7c([H])c([H])c(F)c([H])c7F)c([H])c6[H])c(C(=O)N([H])[H])c5N([H])[H])C4([H])[H])c([H])c3[H])c([H])c([H])c2C1([H])[H]

>  <smiles>  (71) 
[H]c1c([H])c([H])c2c(c1[H])C([H])([H])C([H])([H])C([H])([H])C2([H])N([H])C(=O)C1([H])N(C(=O)C([H])(N([H])C(=O)C([H])(N([H])C([H])([H])[H])C([H])([H])[H])C(C([H])([H])[H])(C([H])([H])[H])C([H])([H])[H])C([H])([H])c2c([H])c(OC([H])([H])C([H])([H])C([H])([H])Oc3c([H])c([H])c(C([H])([H])N([H])C(=O)N4C([H])([H])C([H])([H])C([H])([H])C([H])(n5nc(-c6c([H])c([H])c(Oc7c([H])c([H])c(F)c([H])c7F)c([H])c6[H])c(C(=O)N([H])[H])c5N([H])[H])C4([H])[H])c([H])c3[H])c([H])c([H])c2C1([H])[H]

$$$$
71:0:0
     RDKit          3D

 83 90  0  0  1  0  0  0  0  0999 V2000
  -27.9490  -23.9120   20.2000 C   0  0  0  0  0  3  0  0  0  0  0  0
  -28.1500  -25.6420   20.2980 O   0  0  0  0  0  0  0  0  0  0  0  0
  -24.6720  -31.8880   23.2420 C   0  0  0  0  0  0  0  0  0  0  0  0
  -27.1710  -26.8340   20.2470 C   0  0  0  0  0  0  0  0  0  0  0  0
  -23.4710  -30.4970   21.6080 C   0  0  0  0  0  3  0  0  0  0  0  0
  -24.9060  -28.8480   20.1930 C   0  0  0  0  0  0  0  0  0  0  0  0
  -26.0490  -30.6390   21.4750 C   0  0  0  0  0  2  0  0  0  0  0  0
  -26.1040  -29.2100   20.8200 C   0  0  0  0  0  0  0  0  0  0  0  0
  -27.2230  -28.2300   20.8150 C   0  0  0  0  0  3  0  0  0  0  0  0
  -25.9390  -26.6690   19.5680 C   0  0  0  0  0  3  0  0  0  0  0  0
  -24.8600  -27.6020   19.5430 C   0  0  0  0  0  3  0  0  0  0  0  0
  -23.7020  -29.8000   20.2370 C   0  0  0  0  0  2  0  0  0  0  0  0
  -24.7550  -31.0400   22.1610 N   0  0  0  0  0  0  0  0  0  0  0  0
  -23.5830  -32.1920   23.7560 O   0  0  0  0  0  0  0  0  0  0  0  0
  -22.7560  -29.5220   22.5800 C   0  0  0  0  0  0  0  0  0  0  0  0
  -21.4230  -29.3690   22.4550 N   0  0  0  0  0  0  0  0  0  0  0  0
  -23.4110  -28.8980   23.4200 O   0  0  0  0  0  0  0  0  0  0  0  0
  -20.9460  -29.9220   21.7570 H   0  0  0  0  0  0  0  0  0  0  0  0
  -18.0330  -28.1690   22.9680 C   0  0  0  0  0  0  0  0  0  0  0  0
  -20.5930  -28.4390   23.2300 C   0  0  0  0  0  3  0  0  0  0  0  0
  -20.6940  -27.0020   22.6640 C   0  0  0  0  0  2  0  0  0  0  0  0
  -19.5940  -26.6750   21.6500 C   0  0  0  0  0  2  0  0  0  0  0  0
  -18.2110  -26.8200   22.2910 C   0  0  0  0  0  2  0  0  0  0  0  0
  -19.1500  -28.9350   23.3940 C   0  0  0  0  0  0  0  0  0  0  0  0
  -18.9270  -30.1950   23.9910 C   0  0  0  0  0  3  0  0  0  0  0  0
  -17.6200  -30.6890   24.1620 C   0  0  0  0  0  3  0  0  0  0  0  0
  -16.5170  -29.9210   23.7490 C   0  0  0  0  0  3  0  0  0  0  0  0
  -16.7250  -28.6620   23.1580 C   0  0  0  0  0  3  0  0  0  0  0  0
  -25.9420  -32.5310   23.8780 C   0  0  0  0  0  3  0  0  0  0  0  0
  -26.4400  -31.7670   25.1680 C   0  0  1  0  0  0  0  0  0  0  0  0
  -25.3350  -31.5460   26.2290 C   0  0  0  0  0  1  0  0  0  0  0  0
  -27.0170  -30.3800   24.8050 C   0  0  0  0  0  1  0  0  0  0  0  0
  -27.5910  -32.5580   25.8350 C   0  0  0  0  0  1  0  0  0  0  0  0
  -25.6270  -33.9320   24.2180 N   0  0  0  0  0  0  0  0  0  0  0  0
  -25.9330  -34.9970   23.4640 C   0  0  0  0  0  0  0  0  0  0  0  0
  -26.5690  -34.9020   22.4100 O   0  0  0  0  0  0  0  0  0  0  0  0
  -25.0570  -34.0770   25.0370 H   0  0  0  0  0  0  0  0  0  0  0  0
  -24.1800  -36.7890   23.2110 C   0  0  0  0  0  1  0  0  0  0  0  0
  -25.4650  -36.3850   23.9520 C   0  0  0  0  0  3  0  0  0  0  0  0
  -27.6320  -37.2910   24.6730 C   0  0  0  0  0  1  0  0  0  0  0  0
  -26.4840  -37.4450   23.7830 N   0  0  0  0  0  0  0  0  0  0  0  0
  -26.0790  -38.3630   23.9460 H   0  0  0  0  0  0  0  0  0  0  0  0
  -28.9470  -22.2690   20.2790 C   0  0  0  0  0  3  0  0  0  0  0  0
  -28.7110  -20.3580   20.2370 C   0  0  0  0  0  3  0  0  0  0  0  0
  -29.7530  -18.7430   20.2450 C   0  0  0  0  0  3  0  0  0  0  0  0
  -30.2820  -15.6460   20.1480 C   0  0  0  0  0  0  0  0  0  0  0  0
  -30.3500  -13.1330   19.2860 C   0  0  0  0  0  2  0  0  0  0  0  0
  -29.4300  -12.7740   18.0850 C   0  0  0  0  0  2  0  0  0  0  0  0
  -28.0130  -12.4240   18.5630 C   0  0  0  0  0  2  0  0  0  0  0  0
  -27.5300  -13.4030   19.6600 C   0  0  0  0  0  3  0  0  0  0  0  0
  -28.5860  -13.6800   20.7550 C   0  0  0  0  0  2  0  0  0  0  0  0
  -29.7510  -14.2930   20.0790 N   0  0  0  0  0  0  0  0  0  0  0  0
  -31.5110  -15.5990   19.9480 O   0  0  0  0  0  0  0  0  0  0  0  0
  -29.5270  -16.9940   20.2480 N   0  0  0  0  0  0  0  0  0  0  0  0
  -28.5450  -16.7820   20.3500 H   0  0  0  0  0  0  0  0  0  0  0  0
  -25.1770  -13.9060   20.4730 C   0  0  0  0  0  0  0  0  0  0  0  0
  -24.1340  -13.1120   20.8550 C   0  0  0  0  0  0  0  0  0  0  0  0
  -24.6200  -11.7680   20.8040 C   0  0  0  0  0  0  0  0  0  0  0  0
  -26.2270  -13.0500   20.2020 N   0  0  0  0  0  0  0  0  0  0  0  0
  -25.9070  -11.7560   20.4690 N   0  0  0  0  0  0  0  0  0  0  0  0
  -23.9110  -10.4960   20.9970 C   0  0  0  0  0  0  0  0  0  0  0  0
  -24.3510   -9.5380   21.9370 C   0  0  0  0  0  3  0  0  0  0  0  0
  -23.6360   -8.3340   22.1190 C   0  0  0  0  0  3  0  0  0  0  0  0
  -22.4690   -8.0770   21.3610 C   0  0  0  0  0  0  0  0  0  0  0  0
  -22.0480   -9.0240   20.4100 C   0  0  0  0  0  3  0  0  0  0  0  0
  -22.7630  -10.2200   20.2260 C   0  0  0  0  0  3  0  0  0  0  0  0
  -21.7270   -6.9240   21.4530 O   0  0  0  0  0  0  0  0  0  0  0  0
  -21.6590   -6.2030   22.6170 C   0  0  0  0  0  0  0  0  0  0  0  0
  -21.1670   -6.7650   23.8150 C   0  0  0  0  0  3  0  0  0  0  0  0
  -21.0490   -5.9670   24.9700 C   0  0  0  0  0  3  0  0  0  0  0  0
  -21.4130   -4.6090   24.9290 C   0  0  0  0  0  0  0  0  0  0  0  0
  -21.8990   -4.0450   23.7360 C   0  0  0  0  0  3  0  0  0  0  0  0
  -22.0180   -4.8400   22.5820 C   0  0  0  0  0  0  0  0  0  0  0  0
  -22.4660   -4.2870   21.4300 F   0  0  0  0  0  0  0  0  0  0  0  0
  -21.2940   -3.8400   26.0380 F   0  0  0  0  0  0  0  0  0  0  0  0
  -22.7360  -13.5700   21.1460 C   0  0  0  0  0  0  0  0  0  0  0  0
  -22.0320  -12.8660   22.0240 N   0  0  0  0  0  0  0  0  0  0  0  0
  -22.2780  -14.5880   20.6300 O   0  0  0  0  0  0  0  0  0  0  0  0
  -22.4170  -12.0420   22.4630 H   0  0  0  0  0  0  0  0  0  0  0  0
  -21.0930  -13.1550   22.2630 H   0  0  0  0  0  0  0  0  0  0  0  0
  -25.3150  -15.2810   20.3020 N   0  0  0  0  0  0  0  0  0  0  0  0
  -24.5370  -15.9190   20.4270 H   0  0  0  0  0  0  0  0  0  0  0  0
  -26.1390  -15.7310   19.9280 H   0  0  0  0  0  0  0  0  0  0  0  0
  1 43  2  0
  1  2  1  0
  3 14  2  0
  4  2  1  0
  4  9  1  0
  5 13  1  0
  5 15  1  0
  6 12  1  0
  6  8  1  0
  7 13  1  0
  8  7  1  0
  9  8  2  0
 10  4  2  0
 11 10  1  0
 11  6  2  0
 12  5  1  0
 13  3  1  0
 15 17  2  0
 16 15  1  0
 18 16  1  0
 19 28  2  0
 19 24  1  0
 20 16  1  0
 20 24  1  0
 21 20  1  0
 22 23  1  0
 22 21  1  0
 23 19  1  0
 24 25  2  0
 25 26  1  0
 27 26  2  0
 28 27  1  0
 29  3  1  0
 29 34  1  0
 29 30  1  0
 30 33  1  1
 30 31  1  0
 32 30  1  0
 34 37  1  0
 35 39  1  0
 35 34  1  0
 36 35  2  0
 39 38  1  0
 41 42  1  0
 41 39  1  0
 41 40  1  0
 44 45  2  0
 44 43  1  0
 45 54  1  0
 46 54  1  0
 47 52  1  0
 48 49  1  0
 48 47  1  0
 50 49  1  0
 50 59  1  0
 50 51  1  0
 52 46  1  0
 52 51  1  0
 53 46  2  0
 54 55  1  0
 56 57  2  0
 57 76  1  0
 58 57  1  0
 58 61  1  0
 59 60  1  0
 59 56  1  0
 60 58  2  0
 61 62  1  0
 62 63  2  0
 64 67  1  0
 64 63  1  0
 65 64  2  0
 66 65  1  0
 66 61  2  0
 67 68  1  0
 68 69  1  0
 69 70  2  0
 71 70  1  0
 71 75  1  0
 72 71  2  0
 73 68  2  0
 73 72  1  0
 74 73  1  0
 76 77  1  0
 77 80  1  0
 77 79  1  0
 78 76  2  0
 81 82  1  0
 81 56  1  0
 83 81  1  0
M  ISO  4   1 101   2 101  46 100  54 100
M  END
>  <TORSDO>  (72) 
F 19

>  <SCORE>  (72) 
-16.287

>  <name>  (72) 
71

>  <ligand_id>  (72) 
71

>  <original_smiles>  (72) 
[H]c1c([H])c([H])c2c(c1[H])C([H])([H])C([H])([H])C([H])([H])C2([H])N([H])C(=O)C1([H])N(C(=O)C([H])(N([H])C(=O)C([H])(N([H])C([H])([H])[H])C([H])([H])[H])C(C([H])([H])[H])(C([H])([H])[H])C([H])([H])[H])C([H])([H])c2c([H])c(OC([H])([H])C([H])([H])C([H])([H])C([H])([H])N([H])C(=O)N3C([H])([H])C([H])([H])C([H])([H])C([H])(n4nc(-c5c([H])c([H])c(Oc6c([H])c([H])c(F)c([H])c6F)c([H])c5[H])c(C(=O)N([H])[H])c4N([H])[H])C3([H])[H])c([H])c([H])c2C1([H])[H]

>  <smiles>  (72) 
[H]c1c([H])c([H])c2c(c1[H])C([H])([H])C([H])([H])C([H])([H])C2([H])N([H])C(=O)C1([H])N(C(=O)C([H])(N([H])C(=O)C([H])(N([H])C([H])([H])[H])C([H])([H])[H])C(C([H])([H])[H])(C([H])([H])[H])C([H])([H])[H])C([H])([H])c2c([H])c(OC([H])([H])C([H])([H])C([H])([H])C([H])([H])N([H])C(=O)N3C([H])([H])C([H])([H])C([H])([H])C([H])(n4nc(-c5c([H])c([H])c(Oc6c([H])c([H])c(F)c([H])c6F)c([H])c5[H])c(C(=O)N([H])[H])c4N([H])[H])C3([H])[H])c([H])c([H])c2C1([H])[H]

$$$$
72:0:0
     RDKit          3D

 89 97  0  0  1  0  0  0  0  0999 V2000
  -28.4230  -21.9800   20.2360 N   0  0  0  0  0  0  0  0  0  0  0  0
  -27.4070  -22.0210   20.2670 H   0  0  0  0  0  0  0  0  0  0  0  0
  -28.2210  -18.1270   20.4770 C   0  0  0  0  0  3  0  0  0  0  0  0
  -30.5180  -18.5690   20.1860 C   0  0  0  0  0  3  0  0  0  0  0  0
  -27.9360  -19.5390   20.4420 C   0  0  0  0  0  3  0  0  0  0  0  0
  -30.2270  -20.0090   20.1650 C   0  0  0  0  0  3  0  0  0  0  0  0
  -29.5170  -17.5420   20.3430 C   0  0  0  0  0  0  0  0  0  0  0  0
  -28.9060  -20.5760   20.2850 C   0  0  0  0  0  0  0  0  0  0  0  0
  -30.4840  -14.9520   20.0880 C   0  0  0  0  0  0  0  0  0  0  0  0
  -30.3570  -12.6400   19.0650 C   0  0  0  0  0  2  0  0  0  0  0  0
  -29.3590  -12.6630   17.8820 C   0  0  0  0  0  2  0  0  0  0  0  0
  -27.9130  -12.4460   18.3730 C   0  0  0  0  0  2  0  0  0  0  0  0
  -27.5710  -13.3200   19.6080 C   0  0  0  0  0  3  0  0  0  0  0  0
  -28.6790  -13.2460   20.6810 C   0  0  0  0  0  2  0  0  0  0  0  0
  -29.9320  -13.6750   20.0430 N   0  0  0  0  0  0  0  0  0  0  0  0
  -31.6500  -15.1040   19.7070 O   0  0  0  0  0  0  0  0  0  0  0  0
  -29.6180  -16.0180   20.4090 N   0  0  0  0  0  0  0  0  0  0  0  0
  -28.7440  -15.6130   20.7050 H   0  0  0  0  0  0  0  0  0  0  0  0
  -25.2200  -13.8850   20.4550 C   0  0  0  0  0  0  0  0  0  0  0  0
  -24.1730  -13.1010   20.8570 C   0  0  0  0  0  0  0  0  0  0  0  0
  -24.6360  -11.7520   20.7750 C   0  0  0  0  0  0  0  0  0  0  0  0
  -26.2520  -13.0130   20.1510 N   0  0  0  0  0  0  0  0  0  0  0  0
  -25.9120  -11.7240   20.4080 N   0  0  0  0  0  0  0  0  0  0  0  0
  -23.9180  -10.4850   20.9680 C   0  0  0  0  0  0  0  0  0  0  0  0
  -24.3600   -9.5210   21.9010 C   0  0  0  0  0  3  0  0  0  0  0  0
  -23.6420   -8.3190   22.0830 C   0  0  0  0  0  3  0  0  0  0  0  0
  -22.4700   -8.0730   21.3320 C   0  0  0  0  0  0  0  0  0  0  0  0
  -22.0460   -9.0260   20.3880 C   0  0  0  0  0  3  0  0  0  0  0  0
  -22.7650  -10.2190   20.2050 C   0  0  0  0  0  3  0  0  0  0  0  0
  -21.7230   -6.9230   21.4220 O   0  0  0  0  0  0  0  0  0  0  0  0
  -21.6360   -6.2120   22.5920 C   0  0  0  0  0  0  0  0  0  0  0  0
  -21.1400   -6.7890   23.7810 C   0  0  0  0  0  3  0  0  0  0  0  0
  -21.0040   -6.0020   24.9420 C   0  0  0  0  0  3  0  0  0  0  0  0
  -21.3530   -4.6390   24.9160 C   0  0  0  0  0  0  0  0  0  0  0  0
  -21.8430   -4.0610   23.7310 C   0  0  0  0  0  3  0  0  0  0  0  0
  -21.9810   -4.8440   22.5720 C   0  0  0  0  0  0  0  0  0  0  0  0
  -22.4330   -4.2770   21.4270 F   0  0  0  0  0  0  0  0  0  0  0  0
  -21.2160   -3.8810   26.0280 F   0  0  0  0  0  0  0  0  0  0  0  0
  -22.7880  -13.5710   21.1980 C   0  0  0  0  0  0  0  0  0  0  0  0
  -22.1010  -12.8590   22.0840 N   0  0  0  0  0  0  0  0  0  0  0  0
  -22.3260  -14.6020   20.7120 O   0  0  0  0  0  0  0  0  0  0  0  0
  -22.4890  -12.0250   22.4980 H   0  0  0  0  0  0  0  0  0  0  0  0
  -21.1730  -13.1550   22.3540 H   0  0  0  0  0  0  0  0  0  0  0  0
  -25.3710  -15.2590   20.2940 N   0  0  0  0  0  0  0  0  0  0  0  0
  -24.5900  -15.8940   20.4230 H   0  0  0  0  0  0  0  0  0  0  0  0
  -26.1580  -15.6910   19.8280 H   0  0  0  0  0  0  0  0  0  0  0  0
  -29.0040  -23.4170   20.3020 C   0  0  0  0  0  3  0  0  0  0  0  0
  -27.9840  -24.7350   20.0800 C   0  0  0  0  0  3  0  0  0  0  0  0
  -28.2720  -26.2470   20.2500 O   0  0  0  0  0  0  0  0  0  0  0  0
  -24.6400  -31.8950   23.2610 C   0  0  0  0  0  0  0  0  0  0  0  0
  -27.2080  -27.2180   20.1940 C   0  0  0  0  0  0  0  0  0  0  0  0
  -23.4350  -30.5170   21.6090 C   0  0  0  0  0  3  0  0  0  0  0  0
  -24.8790  -28.9540   20.1750 C   0  0  0  0  0  0  0  0  0  0  0  0
  -25.9890  -30.7820   21.4470 C   0  0  0  0  0  2  0  0  0  0  0  0
  -26.0590  -29.3960   20.7850 C   0  0  0  0  0  0  0  0  0  0  0  0
  -27.2250  -28.5450   20.7760 C   0  0  0  0  0  3  0  0  0  0  0  0
  -25.9990  -26.8710   19.5490 C   0  0  0  0  0  3  0  0  0  0  0  0
  -24.8600  -27.7030   19.5420 C   0  0  0  0  0  3  0  0  0  0  0  0
  -23.6530  -29.8510   20.2260 C   0  0  0  0  0  2  0  0  0  0  0  0
  -24.7080  -31.0850   22.1610 N   0  0  0  0  0  0  0  0  0  0  0  0
  -23.5540  -32.1800   23.7900 O   0  0  0  0  0  0  0  0  0  0  0  0
  -22.7520  -29.5050   22.5630 C   0  0  0  0  0  0  0  0  0  0  0  0
  -21.4240  -29.3390   22.4300 N   0  0  0  0  0  0  0  0  0  0  0  0
  -23.4200  -28.8700   23.3840 O   0  0  0  0  0  0  0  0  0  0  0  0
  -20.9430  -29.9020   21.7440 H   0  0  0  0  0  0  0  0  0  0  0  0
  -18.0350  -28.1590   22.9260 C   0  0  0  0  0  0  0  0  0  0  0  0
  -20.5960  -28.4000   23.1930 C   0  0  0  0  0  3  0  0  0  0  0  0
  -20.6870  -26.9730   22.6050 C   0  0  0  0  0  2  0  0  0  0  0  0
  -19.5810  -26.6680   21.5890 C   0  0  0  0  0  2  0  0  0  0  0  0
  -18.2010  -26.8160   22.2360 C   0  0  0  0  0  2  0  0  0  0  0  0
  -19.1600  -28.9100   23.3610 C   0  0  0  0  0  0  0  0  0  0  0  0
  -18.9490  -30.1680   23.9680 C   0  0  0  0  0  3  0  0  0  0  0  0
  -17.6470  -30.6750   24.1430 C   0  0  0  0  0  3  0  0  0  0  0  0
  -16.5370  -29.9210   23.7210 C   0  0  0  0  0  3  0  0  0  0  0  0
  -16.7330  -28.6650   23.1200 C   0  0  0  0  0  3  0  0  0  0  0  0
  -25.9200  -32.5200   23.8940 C   0  0  0  0  0  3  0  0  0  0  0  0
  -26.4170  -31.7460   25.1780 C   0  0  1  0  0  0  0  0  0  0  0  0
  -25.3120  -31.5190   26.2350 C   0  0  0  0  0  1  0  0  0  0  0  0
  -26.9930  -30.3620   24.7960 C   0  0  0  0  0  1  0  0  0  0  0  0
  -27.5680  -32.5310   25.8480 C   0  0  0  0  0  1  0  0  0  0  0  0
  -25.6180  -33.9210   24.2260 N   0  0  0  0  0  0  0  0  0  0  0  0
  -25.9290  -34.9720   23.4570 C   0  0  0  0  0  0  0  0  0  0  0  0
  -26.5690  -34.8650   22.4070 O   0  0  0  0  0  0  0  0  0  0  0  0
  -25.0460  -34.0780   25.0430 H   0  0  0  0  0  0  0  0  0  0  0  0
  -24.1790  -36.7580   23.1700 C   0  0  0  0  0  1  0  0  0  0  0  0
  -25.4580  -36.3640   23.9250 C   0  0  0  0  0  3  0  0  0  0  0  0
  -27.6240  -37.2700   24.6500 C   0  0  0  0  0  1  0  0  0  0  0  0
  -26.4810  -37.4200   23.7530 N   0  0  0  0  0  0  0  0  0  0  0  0
  -26.0770  -38.3400   23.9050 H   0  0  0  0  0  0  0  0  0  0  0  0
  1  2  1  0
  1  8  1  0
  1 47  1  0
  4  7  1  0
  5  3  1  0
  6  4  2  0
  6  8  1  0
  7 17  1  0
  7  3  2  0
  8  5  2  0
  9 17  1  0
 10 15  1  0
 11 12  1  0
 11 10  1  0
 13 12  1  0
 13 22  1  0
 13 14  1  0
 15  9  1  0
 15 14  1  0
 16  9  2  0
 17 18  1  0
 19 20  2  0
 20 39  1  0
 21 20  1  0
 21 24  1  0
 22 23  1  0
 22 19  1  0
 23 21  2  0
 24 25  1  0
 25 26  2  0
 27 30  1  0
 27 26  1  0
 28 27  2  0
 29 28  1  0
 29 24  2  0
 30 31  1  0
 31 32  1  0
 32 33  2  0
 34 33  1  0
 34 38  1  0
 35 34  2  0
 36 31  2  0
 36 35  1  0
 37 36  1  0
 39 40  1  0
 40 43  1  0
 40 42  1  0
 41 39  2  0
 44 45  1  0
 44 19  1  0
 46 44  1  0
 48 49  1  0
 48 47  2  0
 50 61  2  0
 51 49  1  0
 51 56  1  0
 52 60  1  0
 52 62  1  0
 53 59  1  0
 53 55  1  0
 54 60  1  0
 55 54  1  0
 56 55  2  0
 57 51  2  0
 58 57  1  0
 58 53  2  0
 59 52  1  0
 60 50  1  0
 62 64  2  0
 63 62  1  0
 65 63  1  0
 66 75  2  0
 66 71  1  0
 67 63  1  0
 67 71  1  0
 68 67  1  0
 69 70  1  0
 69 68  1  0
 70 66  1  0
 71 72  2  0
 72 73  1  0
 74 73  2  0
 75 74  1  0
 76 50  1  0
 76 81  1  0
 76 77  1  0
 77 80  1  1
 77 78  1  0
 79 77  1  0
 81 84  1  0
 82 86  1  0
 82 81  1  0
 83 82  2  0
 86 85  1  0
 88 89  1  0
 88 86  1  0
 88 87  1  0
M  ISO  4   9 100  17 100  48 101  49 101
M  END
>  <TORSDO>  (73) 
F 19

>  <SCORE>  (73) 
-14.107

>  <name>  (73) 
72

>  <ligand_id>  (73) 
72

>  <original_smiles>  (73) 
[H]c1c([H])c([H])c2c(c1[H])C([H])([H])C([H])([H])C([H])([H])C2([H])N([H])C(=O)C1([H])N(C(=O)C([H])(N([H])C(=O)C([H])(N([H])C([H])([H])[H])C([H])([H])[H])C(C([H])([H])[H])(C([H])([H])[H])C([H])([H])[H])C([H])([H])c2c([H])c(OC([H])([H])C([H])([H])N([H])c3c([H])c([H])c(N([H])C(=O)N4C([H])([H])C([H])([H])C([H])([H])C([H])(n5nc(-c6c([H])c([H])c(Oc7c([H])c([H])c(F)c([H])c7F)c([H])c6[H])c(C(=O)N([H])[H])c5N([H])[H])C4([H])[H])c([H])c3[H])c([H])c([H])c2C1([H])[H]

>  <smiles>  (73) 
[H]c1c([H])c([H])c2c(c1[H])C([H])([H])C([H])([H])C([H])([H])C2([H])N([H])C(=O)C1([H])N(C(=O)C([H])(N([H])C(=O)C([H])(N([H])C([H])([H])[H])C([H])([H])[H])C(C([H])([H])[H])(C([H])([H])[H])C([H])([H])[H])C([H])([H])c2c([H])c(OC([H])([H])C([H])([H])N([H])c3c([H])c([H])c(N([H])C(=O)N4C([H])([H])C([H])([H])C([H])([H])C([H])(n5nc(-c6c([H])c([H])c(Oc7c([H])c([H])c(F)c([H])c7F)c([H])c6[H])c(C(=O)N([H])[H])c5N([H])[H])C4([H])[H])c([H])c3[H])c([H])c([H])c2C1([H])[H]

$$$$
73:0:0
     RDKit          3D

 92 99  0  0  1  0  0  0  0  0999 V2000
  -27.9330  -22.1500   22.4490 C   0  0  0  0  0  2  0  0  0  0  0  0
  -27.2170  -23.3020   21.7130 C   0  0  0  0  0  2  0  0  0  0  0  0
  -28.0950  -24.3770   21.3630 O   0  0  0  0  0  0  0  0  0  0  0  0
  -27.4370  -25.3370   20.5310 C   0  0  0  0  0  2  0  0  0  0  0  0
  -28.4100  -26.3370   19.8510 C   0  0  0  0  0  2  0  0  0  0  0  0
  -27.7990  -27.1310   18.8210 O   0  0  0  0  0  0  0  0  0  0  0  0
  -25.7390  -31.3860   24.1290 C   0  0  0  0  0  0  0  0  0  0  0  0
  -26.8670  -28.0220   19.2900 C   0  0  0  0  0  0  0  0  0  0  0  0
  -24.0240  -30.8600   22.4260 C   0  0  0  0  0  3  0  0  0  0  0  0
  -24.8840  -29.7580   20.2910 C   0  0  0  0  0  0  0  0  0  0  0  0
  -26.5080  -30.9020   21.8080 C   0  0  0  0  0  2  0  0  0  0  0  0
  -26.2020  -29.8540   20.7590 C   0  0  0  0  0  0  0  0  0  0  0  0
  -27.2000  -28.9850   20.2670 C   0  0  0  0  0  3  0  0  0  0  0  0
  -25.5480  -27.9670   18.7940 C   0  0  0  0  0  3  0  0  0  0  0  0
  -24.5500  -28.8120   19.3080 C   0  0  0  0  0  3  0  0  0  0  0  0
  -23.8680  -30.7070   20.8890 C   0  0  0  0  0  2  0  0  0  0  0  0
  -25.4530  -31.0380   22.8420 N   0  0  0  0  0  0  0  0  0  0  0  0
  -24.8380  -31.5940   24.9520 O   0  0  0  0  0  0  0  0  0  0  0  0
  -23.3290  -29.6630   23.1170 C   0  0  0  0  0  0  0  0  0  0  0  0
  -22.0080  -29.5380   22.9080 N   0  0  0  0  0  0  0  0  0  0  0  0
  -23.9770  -28.8640   23.7970 O   0  0  0  0  0  0  0  0  0  0  0  0
  -21.5490  -30.2360   22.3410 H   0  0  0  0  0  0  0  0  0  0  0  0
  -18.7290  -28.0460   22.6370 C   0  0  0  0  0  0  0  0  0  0  0  0
  -21.1540  -28.4700   23.4260 C   0  0  0  0  0  3  0  0  0  0  0  0
  -21.4970  -27.1120   22.7720 C   0  0  0  0  0  2  0  0  0  0  0  0
  -20.6420  -26.8010   21.5420 C   0  0  0  0  0  2  0  0  0  0  0  0
  -19.1550  -26.7820   21.9080 C   0  0  0  0  0  2  0  0  0  0  0  0
  -19.6700  -28.8450   23.3370 C   0  0  0  0  0  0  0  0  0  0  0  0
  -19.2270  -30.0260   23.9680 C   0  0  0  0  0  3  0  0  0  0  0  0
  -17.8750  -30.4110   23.9100 C   0  0  0  0  0  3  0  0  0  0  0  0
  -16.9440  -29.6060   23.2320 C   0  0  0  0  0  3  0  0  0  0  0  0
  -17.3700  -28.4230   22.6010 C   0  0  0  0  0  3  0  0  0  0  0  0
  -27.2100  -31.5580   24.6210 C   0  0  0  0  0  3  0  0  0  0  0  0
  -27.7290  -30.3340   25.4690 C   0  0  1  0  0  0  0  0  0  0  0  0
  -26.7800  -29.9280   26.6200 C   0  0  0  0  0  1  0  0  0  0  0  0
  -27.9350  -29.0970   24.5680 C   0  0  0  0  0  1  0  0  0  0  0  0
  -29.1120  -30.6640   26.0770 C   0  0  0  0  0  1  0  0  0  0  0  0
  -27.2730  -32.8000   25.4050 N   0  0  0  0  0  0  0  0  0  0  0  0
  -27.8140  -33.9440   24.9720 C   0  0  0  0  0  0  0  0  0  0  0  0
  -28.3830  -34.0440   23.8810 O   0  0  0  0  0  0  0  0  0  0  0  0
  -26.7740  -32.8040   26.2830 H   0  0  0  0  0  0  0  0  0  0  0  0
  -26.6080  -36.1120   25.3650 C   0  0  0  0  0  1  0  0  0  0  0  0
  -27.7060  -35.1740   25.8930 C   0  0  0  0  0  3  0  0  0  0  0  0
  -29.9980  -35.1810   26.7720 C   0  0  0  0  0  1  0  0  0  0  0  0
  -28.9760  -35.9170   26.0320 N   0  0  0  0  0  0  0  0  0  0  0  0
  -28.8270  -36.8080   26.4950 H   0  0  0  0  0  0  0  0  0  0  0  0
  -29.0260  -21.6090   21.7020 O   0  0  0  0  0  0  0  0  0  0  0  0
  -30.0920  -21.1690   22.5590 C   0  0  0  0  0  2  0  0  0  0  0  0
  -31.1230  -20.3340   21.7780 C   0  0  0  0  0  0  0  0  0  0  0  0
  -30.6560  -19.5290   20.8160 N   0  0  0  0  0  0  0  0  0  0  0  0
  -32.3250  -20.4250   22.0370 O   0  0  0  0  0  0  0  0  0  0  0  0
  -29.6520  -19.5500   20.6800 H   0  0  0  0  0  0  0  0  0  0  0  0
  -31.4600  -18.7740   19.8550 C   0  0  0  0  0  2  0  0  0  0  0  0
  -31.6480  -17.2910   20.2480 C   0  0  0  0  0  2  0  0  0  0  0  0
  -32.9560  -15.3890   19.1940 C   0  0  0  0  0  0  0  0  0  0  0  0
  -32.5120  -13.0260   18.6730 C   0  0  0  0  0  2  0  0  0  0  0  0
  -31.5780  -12.9630   17.4460 C   0  0  0  0  0  2  0  0  0  0  0  0
  -30.1000  -13.0370   17.8790 C   0  0  0  0  0  2  0  0  0  0  0  0
  -29.8280  -14.2100   18.8570 C   0  0  0  0  0  3  0  0  0  0  0  0
  -30.8670  -14.2020   19.9990 C   0  0  0  0  0  2  0  0  0  0  0  0
  -32.2040  -14.2740   19.3900 N   0  0  0  0  0  0  0  0  0  0  0  0
  -34.0810  -15.3570   18.6900 O   0  0  0  0  0  0  0  0  0  0  0  0
  -32.3040  -16.5610   19.1600 N   0  0  0  0  0  0  0  0  0  0  0  0
  -32.7700  -17.1950   18.5280 H   0  0  0  0  0  0  0  0  0  0  0  0
  -27.5780  -15.2200   19.5860 C   0  0  0  0  0  0  0  0  0  0  0  0
  -26.4140  -14.6420   20.0240 C   0  0  0  0  0  0  0  0  0  0  0  0
  -26.6600  -13.2360   20.0520 C   0  0  0  0  0  0  0  0  0  0  0  0
  -28.4620  -14.1760   19.3740 N   0  0  0  0  0  0  0  0  0  0  0  0
  -27.9160  -12.9790   19.7100 N   0  0  0  0  0  0  0  0  0  0  0  0
  -25.7590  -12.1100   20.3280 C   0  0  0  0  0  0  0  0  0  0  0  0
  -26.0380  -11.1710   21.3450 C   0  0  0  0  0  3  0  0  0  0  0  0
  -25.1460  -10.1070   21.6010 C   0  0  0  0  0  3  0  0  0  0  0  0
  -23.9590   -9.9800   20.8440 C   0  0  0  0  0  0  0  0  0  0  0  0
  -23.6970  -10.9040   19.8180 C   0  0  0  0  0  3  0  0  0  0  0  0
  -24.5880  -11.9590   19.5600 C   0  0  0  0  0  3  0  0  0  0  0  0
  -23.0470   -8.9660   21.0060 O   0  0  0  0  0  0  0  0  0  0  0  0
  -22.7160   -8.4860   22.2470 C   0  0  0  0  0  0  0  0  0  0  0  0
  -22.1230   -9.3080   23.2300 C   0  0  0  0  0  3  0  0  0  0  0  0
  -21.7390   -8.7580   24.4680 C   0  0  0  0  0  3  0  0  0  0  0  0
  -21.9320   -7.3870   24.7210 C   0  0  0  0  0  0  0  0  0  0  0  0
  -22.5190   -6.5660   23.7420 C   0  0  0  0  0  3  0  0  0  0  0  0
  -22.9040   -7.1150   22.5050 C   0  0  0  0  0  0  0  0  0  0  0  0
  -23.4490   -6.3150   21.5580 F   0  0  0  0  0  0  0  0  0  0  0  0
  -21.5540   -6.8550   25.9080 F   0  0  0  0  0  0  0  0  0  0  0  0
  -25.1160  -15.3430   20.3050 C   0  0  0  0  0  0  0  0  0  0  0  0
  -24.2880  -14.7720   21.1740 N   0  0  0  0  0  0  0  0  0  0  0  0
  -24.8500  -16.4260   19.7900 O   0  0  0  0  0  0  0  0  0  0  0  0
  -24.5140  -13.8880   21.6070 H   0  0  0  0  0  0  0  0  0  0  0  0
  -23.4210  -15.2300   21.4160 H   0  0  0  0  0  0  0  0  0  0  0  0
  -27.9540  -16.5370   19.3400 N   0  0  0  0  0  0  0  0  0  0  0  0
  -27.3170  -17.3190   19.4380 H   0  0  0  0  0  0  0  0  0  0  0  0
  -28.8610  -16.8050   18.9770 H   0  0  0  0  0  0  0  0  0  0  0  0
  2  1  1  0
  3  2  1  0
  4  3  1  0
  5  4  1  0
  6  8  1  0
  6  5  1  0
  7 18  2  0
  8 13  1  0
  9 17  1  0
  9 19  1  0
 10 12  1  0
 10 16  1  0
 11 17  1  0
 12 11  1  0
 13 12  2  0
 14  8  2  0
 14 15  1  0
 15 10  2  0
 16  9  1  0
 17  7  1  0
 19 21  2  0
 20 19  1  0
 22 20  1  0
 23 28  1  0
 24 20  1  0
 25 24  1  0
 26 27  1  0
 26 25  1  0
 27 23  1  0
 28 24  1  0
 28 29  2  0
 30 29  1  0
 31 30  2  0
 32 23  2  0
 32 31  1  0
 33  7  1  0
 33 38  1  0
 33 34  1  0
 34 37  1  1
 34 35  1  0
 36 34  1  0
 38 41  1  0
 39 38  1  0
 39 43  1  0
 40 39  2  0
 43 42  1  0
 43 45  1  0
 45 46  1  0
 45 44  1  0
 47  1  1  0
 47 48  1  0
 49 51  2  0
 49 48  1  0
 50 49  1  0
 52 50  1  0
 53 54  1  0
 53 50  1  0
 55 61  1  0
 56 61  1  0
 57 58  1  0
 57 56  1  0
 59 58  1  0
 59 68  1  0
 59 60  1  0
 61 60  1  0
 62 55  2  0
 63 55  1  0
 63 54  1  0
 64 63  1  0
 65 66  2  0
 66 67  1  0
 66 85  1  0
 67 70  1  0
 68 65  1  0
 68 69  1  0
 69 67  2  0
 70 71  1  0
 71 72  2  0
 73 76  1  0
 73 72  1  0
 74 73  2  0
 75 74  1  0
 75 70  2  0
 76 77  1  0
 77 82  2  0
 77 78  1  0
 78 79  2  0
 79 80  1  0
 80 84  1  0
 81 80  2  0
 82 81  1  0
 83 82  1  0
 85 86  1  0
 86 89  1  0
 86 88  1  0
 87 85  2  0
 90 91  1  0
 90 65  1  0
 92 90  1  0
M  ISO  4   5 101   6 101  55 100  63 100
M  END
>  <TORSDO>  (74) 
F 25

>  <SCORE>  (74) 
-5.851

>  <name>  (74) 
73

>  <ligand_id>  (74) 
73

>  <original_smiles>  (74) 
[H]c1c([H])c([H])c2c(c1[H])C([H])([H])C([H])([H])C([H])([H])C2([H])N([H])C(=O)C1([H])N(C(=O)C([H])(N([H])C(=O)C([H])(N([H])C([H])([H])[H])C([H])([H])[H])C(C([H])([H])[H])(C([H])([H])[H])C([H])([H])[H])C([H])([H])c2c([H])c(OC([H])([H])C([H])([H])OC([H])([H])C([H])([H])OC([H])([H])C(=O)N([H])C([H])([H])C([H])([H])N([H])C(=O)N3C([H])([H])C([H])([H])C([H])([H])C([H])(n4nc(-c5c([H])c([H])c(Oc6c([H])c([H])c(F)c([H])c6F)c([H])c5[H])c(C(=O)N([H])[H])c4N([H])[H])C3([H])[H])c([H])c([H])c2C1([H])[H]

>  <smiles>  (74) 
[H]c1c([H])c([H])c2c(c1[H])C([H])([H])C([H])([H])C([H])([H])C2([H])N([H])C(=O)C1([H])N(C(=O)C([H])(N([H])C(=O)C([H])(N([H])C([H])([H])[H])C([H])([H])[H])C(C([H])([H])[H])(C([H])([H])[H])C([H])([H])[H])C([H])([H])c2c([H])c(OC([H])([H])C([H])([H])OC([H])([H])C([H])([H])OC([H])([H])C(=O)N([H])C([H])([H])C([H])([H])N([H])C(=O)N3C([H])([H])C([H])([H])C([H])([H])C([H])(n4nc(-c5c([H])c([H])c(Oc6c([H])c([H])c(F)c([H])c6F)c([H])c5[H])c(C(=O)N([H])[H])c4N([H])[H])C3([H])[H])c([H])c([H])c2C1([H])[H]

$$$$
74:0:0
     RDKit          3D

 87 95  0  0  1  0  0  0  0  0999 V2000
  -29.8250  -21.4280   19.9150 C   0  0  0  0  0  3  0  0  0  0  0  0
  -27.7760  -20.9180   20.5780 C   0  0  0  0  0  3  0  0  0  0  0  0
  -30.1740  -19.9210   19.8840 C   0  0  0  0  0  3  0  0  0  0  0  0
  -28.1130  -19.4380   20.5520 C   0  0  0  0  0  3  0  0  0  0  0  0
  -28.5540  -22.1480   20.2660 C   0  0  0  0  0  0  0  0  0  0  0  0
  -29.3510  -18.7060   20.2010 C   0  0  0  0  0  0  0  0  0  0  0  0
  -30.3440  -15.7040   19.9970 C   0  0  0  0  0  0  0  0  0  0  0  0
  -30.4340  -13.1870   19.1200 C   0  0  0  0  0  2  0  0  0  0  0  0
  -29.4800  -12.8360   17.9420 C   0  0  0  0  0  2  0  0  0  0  0  0
  -28.0760  -12.4760   18.4530 C   0  0  0  0  0  2  0  0  0  0  0  0
  -27.6220  -13.4380   19.5750 C   0  0  0  0  0  3  0  0  0  0  0  0
  -28.7080  -13.6960   20.6460 C   0  0  0  0  0  2  0  0  0  0  0  0
  -29.8530  -14.3310   19.9520 N   0  0  0  0  0  0  0  0  0  0  0  0
  -31.5580  -15.7010   19.7150 O   0  0  0  0  0  0  0  0  0  0  0  0
  -29.5090  -16.9920   20.1900 N   0  0  0  0  0  0  0  0  0  0  0  0
  -28.6000  -16.6190   20.4210 H   0  0  0  0  0  0  0  0  0  0  0  0
  -25.2980  -13.9300   20.4780 C   0  0  0  0  0  0  0  0  0  0  0  0
  -24.2660  -13.1300   20.8790 C   0  0  0  0  0  0  0  0  0  0  0  0
  -24.7430  -11.7870   20.7810 C   0  0  0  0  0  0  0  0  0  0  0  0
  -26.3340  -13.0760   20.1500 N   0  0  0  0  0  0  0  0  0  0  0  0
  -26.0180  -11.7770   20.3980 N   0  0  0  0  0  0  0  0  0  0  0  0
  -24.0350  -10.5130   20.9700 C   0  0  0  0  0  0  0  0  0  0  0  0
  -24.4810   -9.5500   21.9030 C   0  0  0  0  0  3  0  0  0  0  0  0
  -23.7670   -8.3440   22.0820 C   0  0  0  0  0  3  0  0  0  0  0  0
  -22.5940   -8.0930   21.3300 C   0  0  0  0  0  0  0  0  0  0  0  0
  -22.1690   -9.0460   20.3870 C   0  0  0  0  0  3  0  0  0  0  0  0
  -22.8820  -10.2430   20.2050 C   0  0  0  0  0  3  0  0  0  0  0  0
  -21.8530   -6.9400   21.4180 O   0  0  0  0  0  0  0  0  0  0  0  0
  -21.7620   -6.2310   22.5900 C   0  0  0  0  0  0  0  0  0  0  0  0
  -21.2200   -6.8000   23.7630 C   0  0  0  0  0  3  0  0  0  0  0  0
  -21.0800   -6.0150   24.9260 C   0  0  0  0  0  3  0  0  0  0  0  0
  -21.4690   -4.6620   24.9140 C   0  0  0  0  0  0  0  0  0  0  0  0
  -22.0040   -4.0940   23.7450 C   0  0  0  0  0  3  0  0  0  0  0  0
  -22.1460   -4.8760   22.5850 C   0  0  0  0  0  0  0  0  0  0  0  0
  -22.6420   -4.3170   21.4550 F   0  0  0  0  0  0  0  0  0  0  0  0
  -21.3280   -3.9070   26.0280 F   0  0  0  0  0  0  0  0  0  0  0  0
  -22.8810  -13.5870   21.2300 C   0  0  0  0  0  0  0  0  0  0  0  0
  -22.2050  -12.8700   22.1190 N   0  0  0  0  0  0  0  0  0  0  0  0
  -22.4100  -14.6170   20.7510 O   0  0  0  0  0  0  0  0  0  0  0  0
  -22.6020  -12.0370   22.5300 H   0  0  0  0  0  0  0  0  0  0  0  0
  -21.2790  -13.1600   22.3970 H   0  0  0  0  0  0  0  0  0  0  0  0
  -25.4340  -15.3070   20.3320 N   0  0  0  0  0  0  0  0  0  0  0  0
  -24.6520  -15.9340   20.4860 H   0  0  0  0  0  0  0  0  0  0  0  0
  -26.2270  -15.7630   19.9030 H   0  0  0  0  0  0  0  0  0  0  0  0
  -27.8020  -23.8240   20.3320 C   0  0  0  0  0  0  0  0  0  0  0  0
  -26.5910  -23.6860   20.5260 O   0  0  0  0  0  0  0  0  0  0  0  0
  -28.1770  -25.6060   20.2420 O   0  0  0  0  0  0  0  0  0  0  0  0
  -24.6520  -31.8620   23.2180 C   0  0  0  0  0  0  0  0  0  0  0  0
  -27.2320  -26.8370   20.2130 C   0  0  0  0  0  0  0  0  0  0  0  0
  -23.4900  -30.4810   21.5510 C   0  0  0  0  0  3  0  0  0  0  0  0
  -24.9610  -28.8570   20.1470 C   0  0  0  0  0  0  0  0  0  0  0  0
  -26.0700  -30.6320   21.4710 C   0  0  0  0  0  2  0  0  0  0  0  0
  -26.1470  -29.2080   20.8030 C   0  0  0  0  0  0  0  0  0  0  0  0
  -27.2680  -28.2250   20.8110 C   0  0  0  0  0  3  0  0  0  0  0  0
  -26.0120  -26.6980   19.5020 C   0  0  0  0  0  3  0  0  0  0  0  0
  -24.9290  -27.6240   19.4760 C   0  0  0  0  0  3  0  0  0  0  0  0
  -23.7520  -29.8020   20.1770 C   0  0  0  0  0  2  0  0  0  0  0  0
  -24.7600  -31.0230   22.1340 N   0  0  0  0  0  0  0  0  0  0  0  0
  -23.5510  -32.1550   23.7160 O   0  0  0  0  0  0  0  0  0  0  0  0
  -22.7620  -29.4910   22.4990 C   0  0  0  0  0  0  0  0  0  0  0  0
  -21.4290  -29.3440   22.3600 N   0  0  0  0  0  0  0  0  0  0  0  0
  -23.4060  -28.8520   23.3330 O   0  0  0  0  0  0  0  0  0  0  0  0
  -20.9590  -29.9100   21.6660 H   0  0  0  0  0  0  0  0  0  0  0  0
  -18.0250  -28.1810   22.8620 C   0  0  0  0  0  0  0  0  0  0  0  0
  -20.5910  -28.4030   23.1120 C   0  0  0  0  0  3  0  0  0  0  0  0
  -20.6650  -26.9830   22.5010 C   0  0  0  0  0  2  0  0  0  0  0  0
  -19.5510  -26.7050   21.4860 C   0  0  0  0  0  2  0  0  0  0  0  0
  -18.1770  -26.8510   22.1440 C   0  0  0  0  0  2  0  0  0  0  0  0
  -19.1570  -28.9170   23.3030 C   0  0  0  0  0  0  0  0  0  0  0  0
  -18.9580  -30.1610   23.9400 C   0  0  0  0  0  3  0  0  0  0  0  0
  -17.6600  -30.6690   24.1380 C   0  0  0  0  0  3  0  0  0  0  0  0
  -16.5430  -29.9320   23.7100 C   0  0  0  0  0  3  0  0  0  0  0  0
  -16.7260  -28.6890   23.0780 C   0  0  0  0  0  3  0  0  0  0  0  0
  -25.9050  -32.5080   23.8830 C   0  0  0  0  0  3  0  0  0  0  0  0
  -25.5790  -33.9090   24.2160 N   0  0  0  0  0  0  0  0  0  0  0  0
  -25.8850  -34.9720   23.4600 C   0  0  0  0  0  0  0  0  0  0  0  0
  -26.5290  -34.8770   22.4120 O   0  0  0  0  0  0  0  0  0  0  0  0
  -25.0000  -34.0540   25.0300 H   0  0  0  0  0  0  0  0  0  0  0  0
  -24.1200  -36.7510   23.1960 C   0  0  0  0  0  1  0  0  0  0  0  0
  -25.4070  -36.3600   23.9400 C   0  0  0  0  0  3  0  0  0  0  0  0
  -27.5630  -37.2900   24.6660 C   0  0  0  0  0  1  0  0  0  0  0  0
  -26.4190  -37.4260   23.7680 N   0  0  0  0  0  0  0  0  0  0  0  0
  -26.0060  -38.3430   23.9160 H   0  0  0  0  0  0  0  0  0  0  0  0
  -26.3740  -31.7450   25.1850 C   0  0  1  0  0  0  0  0  0  0  0  0
  -25.2430  -31.5180   26.2170 C   0  0  0  0  0  1  0  0  0  0  0  0
  -26.9660  -30.3620   24.8360 C   0  0  0  0  0  1  0  0  0  0  0  0
  -27.5010  -32.5420   25.8800 C   0  0  0  0  0  1  0  0  0  0  0  0
  1  5  1  0
  3  1  2  0
  3  6  1  0
  4  2  1  0
  5 45  1  0
  5  2  2  0
  6  4  2  0
  7 15  1  0
  8 13  1  0
  9 10  1  0
  9  8  1  0
 11 10  1  0
 11 20  1  0
 11 12  1  0
 13  7  1  0
 13 12  1  0
 14  7  2  0
 15  6  1  0
 15 16  1  0
 17 18  2  0
 18 37  1  0
 19 18  1  0
 19 22  1  0
 20 21  1  0
 20 17  1  0
 21 19  2  0
 22 23  1  0
 23 24  2  0
 25 28  1  0
 25 24  1  0
 26 25  2  0
 27 26  1  0
 27 22  2  0
 28 29  1  0
 29 30  1  0
 30 31  2  0
 32 31  1  0
 32 36  1  0
 33 32  2  0
 34 29  2  0
 34 33  1  0
 35 34  1  0
 37 38  1  0
 38 41  1  0
 38 40  1  0
 39 37  2  0
 42 17  1  0
 42 43  1  0
 44 42  1  0
 45 46  2  0
 47 45  1  0
 48 59  2  0
 49 47  1  0
 49 54  1  0
 50 58  1  0
 50 60  1  0
 51 57  1  0
 51 53  1  0
 52 58  1  0
 53 54  2  0
 53 52  1  0
 55 49  2  0
 56 55  1  0
 56 51  2  0
 57 50  1  0
 58 48  1  0
 60 62  2  0
 61 60  1  0
 63 61  1  0
 64 73  2  0
 64 69  1  0
 65 61  1  0
 65 69  1  0
 66 65  1  0
 67 68  1  0
 67 66  1  0
 68 64  1  0
 69 70  2  0
 70 71  1  0
 72 71  2  0
 73 72  1  0
 74 48  1  0
 74 75  1  0
 74 84  1  0
 75 78  1  0
 76 80  1  0
 76 75  1  0
 77 76  2  0
 80 79  1  0
 82 83  1  0
 82 80  1  0
 82 81  1  0
 84 87  1  1
 84 85  1  0
 86 84  1  0
M  ISO  4   7 100  15 100  45 101  47 101
M  END
>  <TORSDO>  (75) 
F 17

>  <SCORE>  (75) 
-16.325

>  <name>  (75) 
74

>  <ligand_id>  (75) 
74

>  <original_smiles>  (75) 
[H]c1c([H])c([H])c2c(c1[H])C([H])([H])C([H])([H])C([H])([H])C2([H])N([H])C(=O)C1([H])N(C(=O)C([H])(N([H])C(=O)C([H])(N([H])C([H])([H])[H])C([H])([H])[H])C(C([H])([H])[H])(C([H])([H])[H])C([H])([H])[H])C([H])([H])c2c([H])c(OC(=O)c3c([H])c([H])c(N([H])C(=O)N4C([H])([H])C([H])([H])C([H])([H])C([H])(n5nc(-c6c([H])c([H])c(Oc7c([H])c([H])c(F)c([H])c7F)c([H])c6[H])c(C(=O)N([H])[H])c5N([H])[H])C4([H])[H])c([H])c3[H])c([H])c([H])c2C1([H])[H]

>  <smiles>  (75) 
[H]c1c([H])c([H])c2c(c1[H])C([H])([H])C([H])([H])C([H])([H])C2([H])N([H])C(=O)C1([H])N(C(=O)C([H])(N([H])C(=O)C([H])(N([H])C([H])([H])[H])C([H])([H])[H])C(C([H])([H])[H])(C([H])([H])[H])C([H])([H])[H])C([H])([H])c2c([H])c(OC(=O)c3c([H])c([H])c(N([H])C(=O)N4C([H])([H])C([H])([H])C([H])([H])C([H])(n5nc(-c6c([H])c([H])c(Oc7c([H])c([H])c(F)c([H])c7F)c([H])c6[H])c(C(=O)N([H])[H])c5N([H])[H])C4([H])[H])c([H])c3[H])c([H])c([H])c2C1([H])[H]

$$$$
75:0:0
     RDKit          3D

 90 99  0  0  1  0  0  0  0  0999 V2000
  -30.1840  -21.8100   20.7200 C   0  0  0  0  0  3  0  0  0  0  0  0
  -28.1580  -21.2730   19.5830 C   0  0  0  0  0  3  0  0  0  0  0  0
  -29.9000  -23.2140   20.5930 C   0  0  0  0  0  3  0  0  0  0  0  0
  -27.8720  -22.6780   19.4600 C   0  0  0  0  0  3  0  0  0  0  0  0
  -29.3500  -20.7780   20.1860 C   0  0  0  0  0  0  0  0  0  0  0  0
  -28.7440  -23.7110   19.9250 C   0  0  0  0  0  0  0  0  0  0  0  0
  -30.7420  -14.8140   20.0410 C   0  0  0  0  0  0  0  0  0  0  0  0
  -30.4540  -12.5510   19.0250 C   0  0  0  0  0  2  0  0  0  0  0  0
  -29.4630  -12.6320   17.8460 C   0  0  0  0  0  2  0  0  0  0  0  0
  -28.0200  -12.4480   18.3490 C   0  0  0  0  0  2  0  0  0  0  0  0
  -27.7010  -13.3280   19.5900 C   0  0  0  0  0  3  0  0  0  0  0  0
  -28.8140  -13.2640   20.6560 C   0  0  0  0  0  2  0  0  0  0  0  0
  -30.0710  -13.6120   19.9860 N   0  0  0  0  0  0  0  0  0  0  0  0
  -31.9260  -14.8500   19.6910 O   0  0  0  0  0  0  0  0  0  0  0  0
  -29.5540  -18.3270   21.4100 C   0  0  0  0  0  2  0  0  0  0  0  0
  -29.3370  -18.3260   19.0090 C   0  0  0  0  0  2  0  0  0  0  0  0
  -30.2310  -16.8810   21.3580 C   0  0  0  0  0  2  0  0  0  0  0  0
  -30.0510  -16.9120   18.9410 C   0  0  0  0  0  2  0  0  0  0  0  0
  -29.8180  -19.2370   20.1730 C   0  0  0  0  0  3  0  0  0  0  0  0
  -30.0310  -16.0200   20.1480 N   0  0  0  0  0  0  0  0  0  0  0  0
  -25.3600  -13.8900   20.4660 C   0  0  0  0  0  0  0  0  0  0  0  0
  -24.3150  -13.1040   20.8680 C   0  0  0  0  0  0  0  0  0  0  0  0
  -24.7750  -11.7560   20.7760 C   0  0  0  0  0  0  0  0  0  0  0  0
  -26.3880  -13.0190   20.1470 N   0  0  0  0  0  0  0  0  0  0  0  0
  -26.0490  -11.7290   20.3990 N   0  0  0  0  0  0  0  0  0  0  0  0
  -24.0580  -10.4870   20.9680 C   0  0  0  0  0  0  0  0  0  0  0  0
  -24.5040   -9.5190   21.8950 C   0  0  0  0  0  3  0  0  0  0  0  0
  -23.7850   -8.3170   22.0760 C   0  0  0  0  0  3  0  0  0  0  0  0
  -22.6070   -8.0760   21.3320 C   0  0  0  0  0  0  0  0  0  0  0  0
  -22.1800   -9.0320   20.3940 C   0  0  0  0  0  3  0  0  0  0  0  0
  -22.8990  -10.2250   20.2100 C   0  0  0  0  0  3  0  0  0  0  0  0
  -21.8590   -6.9260   21.4220 O   0  0  0  0  0  0  0  0  0  0  0  0
  -21.7770   -6.2110   22.5900 C   0  0  0  0  0  0  0  0  0  0  0  0
  -21.2660   -6.7800   23.7770 C   0  0  0  0  0  3  0  0  0  0  0  0
  -21.1320   -5.9900   24.9360 C   0  0  0  0  0  3  0  0  0  0  0  0
  -21.5020   -4.6320   24.9100 C   0  0  0  0  0  0  0  0  0  0  0  0
  -22.0070   -4.0620   23.7270 C   0  0  0  0  0  3  0  0  0  0  0  0
  -22.1410   -4.8490   22.5710 C   0  0  0  0  0  0  0  0  0  0  0  0
  -22.6080   -4.2910   21.4280 F   0  0  0  0  0  0  0  0  0  0  0  0
  -21.3670   -3.8710   26.0200 F   0  0  0  0  0  0  0  0  0  0  0  0
  -22.9340  -13.5730   21.2250 C   0  0  0  0  0  0  0  0  0  0  0  0
  -22.2470  -12.8470   22.1000 N   0  0  0  0  0  0  0  0  0  0  0  0
  -22.4730  -14.6160   20.7630 O   0  0  0  0  0  0  0  0  0  0  0  0
  -22.6330  -12.0030   22.4970 H   0  0  0  0  0  0  0  0  0  0  0  0
  -21.3210  -13.1400   22.3790 H   0  0  0  0  0  0  0  0  0  0  0  0
  -25.5170  -15.2660   20.3210 N   0  0  0  0  0  0  0  0  0  0  0  0
  -24.7630  -15.9210   20.5020 H   0  0  0  0  0  0  0  0  0  0  0  0
  -26.3630  -15.7140   19.9930 H   0  0  0  0  0  0  0  0  0  0  0  0
  -28.5730  -25.2300   19.4350 C   0  0  0  0  0  2  0  0  0  0  0  0
  -28.3860  -26.4310   20.3140 O   0  0  0  0  0  0  0  0  0  0  0  0
  -24.6430  -31.9260   23.2190 C   0  0  0  0  0  0  0  0  0  0  0  0
  -27.2730  -27.3050   20.2080 C   0  0  0  0  0  0  0  0  0  0  0  0
  -23.4490  -30.5080   21.5910 C   0  0  0  0  0  3  0  0  0  0  0  0
  -24.9080  -28.9480   20.1770 C   0  0  0  0  0  0  0  0  0  0  0  0
  -25.9920  -30.8230   21.4120 C   0  0  0  0  0  2  0  0  0  0  0  0
  -26.0770  -29.4350   20.7740 C   0  0  0  0  0  0  0  0  0  0  0  0
  -27.2580  -28.6240   20.7820 C   0  0  0  0  0  3  0  0  0  0  0  0
  -26.0700  -26.8810   19.5990 C   0  0  0  0  0  3  0  0  0  0  0  0
  -24.9100  -27.6790   19.5820 C   0  0  0  0  0  3  0  0  0  0  0  0
  -23.6710  -29.8240   20.2170 C   0  0  0  0  0  2  0  0  0  0  0  0
  -24.7150  -31.1040   22.1300 N   0  0  0  0  0  0  0  0  0  0  0  0
  -23.5570  -32.2040   23.7480 O   0  0  0  0  0  0  0  0  0  0  0  0
  -22.7890  -29.4970   22.5600 C   0  0  0  0  0  0  0  0  0  0  0  0
  -21.4610  -29.3180   22.4390 N   0  0  0  0  0  0  0  0  0  0  0  0
  -23.4680  -28.8770   23.3820 O   0  0  0  0  0  0  0  0  0  0  0  0
  -20.9700  -29.8690   21.7490 H   0  0  0  0  0  0  0  0  0  0  0  0
  -18.0850  -28.1290   22.9670 C   0  0  0  0  0  0  0  0  0  0  0  0
  -20.6450  -28.3850   23.2200 C   0  0  0  0  0  3  0  0  0  0  0  0
  -20.7400  -26.9510   22.6510 C   0  0  0  0  0  2  0  0  0  0  0  0
  -19.6310  -26.6260   21.6440 C   0  0  0  0  0  2  0  0  0  0  0  0
  -18.2540  -26.7770   22.2960 C   0  0  0  0  0  2  0  0  0  0  0  0
  -19.2080  -28.8910   23.3870 C   0  0  0  0  0  0  0  0  0  0  0  0
  -18.9940  -30.1560   23.9780 C   0  0  0  0  0  3  0  0  0  0  0  0
  -17.6920  -30.6590   24.1500 C   0  0  0  0  0  3  0  0  0  0  0  0
  -16.5830  -29.8950   23.7460 C   0  0  0  0  0  3  0  0  0  0  0  0
  -16.7800  -28.6310   23.1610 C   0  0  0  0  0  3  0  0  0  0  0  0
  -25.9200  -32.5720   23.8380 C   0  0  0  0  0  3  0  0  0  0  0  0
  -25.5970  -33.9690   24.1700 N   0  0  0  0  0  0  0  0  0  0  0  0
  -25.9180  -35.0260   23.4120 C   0  0  0  0  0  0  0  0  0  0  0  0
  -26.5870  -34.9300   22.3800 O   0  0  0  0  0  0  0  0  0  0  0  0
  -25.0020  -34.1170   24.9720 H   0  0  0  0  0  0  0  0  0  0  0  0
  -24.1840  -36.8120   23.0530 C   0  0  0  0  0  1  0  0  0  0  0  0
  -25.4200  -36.4100   23.8730 C   0  0  0  0  0  3  0  0  0  0  0  0
  -27.5390  -37.3060   24.7320 C   0  0  0  0  0  1  0  0  0  0  0  0
  -26.4470  -37.4690   23.7750 N   0  0  0  0  0  0  0  0  0  0  0  0
  -26.0340  -38.3860   23.9190 H   0  0  0  0  0  0  0  0  0  0  0  0
  -26.4450  -31.8090   25.1150 C   0  0  1  0  0  0  0  0  0  0  0  0
  -25.3560  -31.5600   26.1840 C   0  0  0  0  0  1  0  0  0  0  0  0
  -27.0440  -30.4380   24.7250 C   0  0  0  0  0  1  0  0  0  0  0  0
  -27.5870  -32.6170   25.7770 C   0  0  0  0  0  1  0  0  0  0  0  0
  2  5  1  0
  3  1  1  0
  4  2  2  0
  4  6  1  0
  5  1  2  0
  6  3  2  0
  7 20  1  0
  8 13  1  0
  9 10  1  0
  9  8  1  0
 11 10  1  0
 11 24  1  0
 11 12  1  0
 13  7  1  0
 13 12  1  0
 14  7  2  0
 16 19  1  0
 17 15  1  0
 18 16  1  0
 18 20  1  0
 19  5  1  0
 19 15  1  0
 20 17  1  0
 21 22  2  0
 22 41  1  0
 23 22  1  0
 23 26  1  0
 24 25  1  0
 24 21  1  0
 25 23  2  0
 26 27  1  0
 27 28  2  0
 29 32  1  0
 29 28  1  0
 30 29  2  0
 31 30  1  0
 31 26  2  0
 32 33  1  0
 33 34  1  0
 34 35  2  0
 36 35  1  0
 36 40  1  0
 37 36  2  0
 38 33  2  0
 38 37  1  0
 39 38  1  0
 41 42  1  0
 42 45  1  0
 42 44  1  0
 43 41  2  0
 46 21  1  0
 46 47  1  0
 48 46  1  0
 49  6  1  0
 49 50  1  0
 51 62  2  0
 52 50  1  0
 52 57  1  0
 53 61  1  0
 53 63  1  0
 54 60  1  0
 54 56  1  0
 55 61  1  0
 56 57  2  0
 56 55  1  0
 58 52  2  0
 59 58  1  0
 59 54  2  0
 60 53  1  0
 61 51  1  0
 63 65  2  0
 64 63  1  0
 66 64  1  0
 67 76  2  0
 67 72  1  0
 68 64  1  0
 68 72  1  0
 69 68  1  0
 70 71  1  0
 70 69  1  0
 71 67  1  0
 72 73  2  0
 73 74  1  0
 75 74  2  0
 76 75  1  0
 77 51  1  0
 77 78  1  0
 77 87  1  0
 78 81  1  0
 79 83  1  0
 79 78  1  0
 80 79  2  0
 83 82  1  0
 85 83  1  0
 85 86  1  0
 85 84  1  0
 87 90  1  1
 87 88  1  0
 89 87  1  0
M  ISO  4   7 100  20 100  49 101  50 101
M  END
>  <TORSDO>  (76) 
F 17

>  <SCORE>  (76) 
-14.780

>  <name>  (76) 
75

>  <ligand_id>  (76) 
75

>  <original_smiles>  (76) 
[H]c1c([H])c([H])c2c(c1[H])C([H])([H])C([H])([H])C([H])([H])C2([H])N([H])C(=O)C1([H])N(C(=O)C([H])(N([H])C(=O)C([H])(N([H])C([H])([H])[H])C([H])([H])[H])C(C([H])([H])[H])(C([H])([H])[H])C([H])([H])[H])C([H])([H])c2c([H])c(OC([H])([H])c3c([H])c([H])c(C4([H])C([H])([H])C([H])([H])N(C(=O)N5C([H])([H])C([H])([H])C([H])([H])C([H])(n6nc(-c7c([H])c([H])c(Oc8c([H])c([H])c(F)c([H])c8F)c([H])c7[H])c(C(=O)N([H])[H])c6N([H])[H])C5([H])[H])C([H])([H])C4([H])[H])c([H])c3[H])c([H])c([H])c2C1([H])[H]

>  <smiles>  (76) 
[H]c1c([H])c([H])c2c(c1[H])C([H])([H])C([H])([H])C([H])([H])C2([H])N([H])C(=O)C1([H])N(C(=O)C([H])(N([H])C(=O)C([H])(N([H])C([H])([H])[H])C([H])([H])[H])C(C([H])([H])[H])(C([H])([H])[H])C([H])([H])[H])C([H])([H])c2c([H])c(OC([H])([H])c3c([H])c([H])c(C4([H])C([H])([H])C([H])([H])N(C(=O)N5C([H])([H])C([H])([H])C([H])([H])C([H])(n6nc(-c7c([H])c([H])c(Oc8c([H])c([H])c(F)c([H])c8F)c([H])c7[H])c(C(=O)N([H])[H])c6N([H])[H])C5([H])[H])C([H])([H])C4([H])[H])c([H])c3[H])c([H])c([H])c2C1([H])[H]

$$$$
76:0:0
     RDKit          3D

 86 94  0  0  1  0  0  0  0  0999 V2000
  -31.1700  -20.9320   20.4430 C   0  0  0  0  0  3  0  0  0  0  0  0
  -30.2760  -22.0570   20.4060 C   0  0  0  0  0  3  0  0  0  0  0  0
  -30.8430  -19.5330   20.3890 C   0  0  0  0  0  3  0  0  0  0  0  0
  -28.5970  -20.3530   20.2540 C   0  0  0  0  0  3  0  0  0  0  0  0
  -28.8660  -21.9710   20.3050 C   0  0  0  0  0  0  0  0  0  0  0  0
  -29.5320  -19.0050   20.2890 C   0  0  0  0  0  0  0  0  0  0  0  0
  -30.1920  -15.8550   20.2000 C   0  0  0  0  0  0  0  0  0  0  0  0
  -30.3410  -13.2850   19.3630 C   0  0  0  0  0  2  0  0  0  0  0  0
  -29.4560  -12.8160   18.1690 C   0  0  0  0  0  2  0  0  0  0  0  0
  -28.0490  -12.4220   18.6400 C   0  0  0  0  0  2  0  0  0  0  0  0
  -27.5220  -13.4180   19.6950 C   0  0  0  0  0  3  0  0  0  0  0  0
  -28.5540  -13.7840   20.7920 C   0  0  0  0  0  2  0  0  0  0  0  0
  -29.6910  -14.4650   20.1150 N   0  0  0  0  0  0  0  0  0  0  0  0
  -31.4300  -15.7760   20.0400 O   0  0  0  0  0  0  0  0  0  0  0  0
  -29.4130  -17.2430   20.2600 N   0  0  0  0  0  0  0  0  0  0  0  0
  -28.4360  -16.9880   20.2920 H   0  0  0  0  0  0  0  0  0  0  0  0
  -25.1650  -13.9080   20.4880 C   0  0  0  0  0  0  0  0  0  0  0  0
  -24.1200  -13.1120   20.8580 C   0  0  0  0  0  0  0  0  0  0  0  0
  -24.6060  -11.7690   20.8140 C   0  0  0  0  0  0  0  0  0  0  0  0
  -26.2190  -13.0530   20.2290 N   0  0  0  0  0  0  0  0  0  0  0  0
  -25.8990  -11.7570   20.4910 N   0  0  0  0  0  0  0  0  0  0  0  0
  -23.8950  -10.4960   20.9990 C   0  0  0  0  0  0  0  0  0  0  0  0
  -24.3210   -9.5410   21.9480 C   0  0  0  0  0  3  0  0  0  0  0  0
  -23.6030   -8.3370   22.1240 C   0  0  0  0  0  3  0  0  0  0  0  0
  -22.4450   -8.0810   21.3530 C   0  0  0  0  0  0  0  0  0  0  0  0
  -22.0370   -9.0260   20.3930 C   0  0  0  0  0  3  0  0  0  0  0  0
  -22.7560  -10.2200   20.2160 C   0  0  0  0  0  3  0  0  0  0  0  0
  -21.7000   -6.9290   21.4370 O   0  0  0  0  0  0  0  0  0  0  0  0
  -21.6170   -6.2090   22.6020 C   0  0  0  0  0  0  0  0  0  0  0  0
  -21.1080   -6.7740   23.7910 C   0  0  0  0  0  3  0  0  0  0  0  0
  -20.9740   -5.9790   24.9470 C   0  0  0  0  0  3  0  0  0  0  0  0
  -21.3410   -4.6210   24.9140 C   0  0  0  0  0  0  0  0  0  0  0  0
  -21.8440   -4.0550   23.7290 C   0  0  0  0  0  3  0  0  0  0  0  0
  -21.9780   -4.8470   22.5760 C   0  0  0  0  0  0  0  0  0  0  0  0
  -22.4430   -4.2910   21.4310 F   0  0  0  0  0  0  0  0  0  0  0  0
  -21.2070   -3.8540   26.0220 F   0  0  0  0  0  0  0  0  0  0  0  0
  -22.7170  -13.5690   21.1330 C   0  0  0  0  0  0  0  0  0  0  0  0
  -22.0030  -12.8670   22.0040 N   0  0  0  0  0  0  0  0  0  0  0  0
  -22.2660  -14.5890   20.6110 O   0  0  0  0  0  0  0  0  0  0  0  0
  -22.3830  -12.0440   22.4480 H   0  0  0  0  0  0  0  0  0  0  0  0
  -21.0620  -13.1570   22.2300 H   0  0  0  0  0  0  0  0  0  0  0  0
  -25.3030  -15.2820   20.3150 N   0  0  0  0  0  0  0  0  0  0  0  0
  -24.5210  -15.9180   20.4310 H   0  0  0  0  0  0  0  0  0  0  0  0
  -26.1290  -15.7320   19.9470 H   0  0  0  0  0  0  0  0  0  0  0  0
  -27.9040  -23.6280   20.2440 C   0  0  0  0  0  2  0  0  0  0  0  0
  -28.1320  -25.4200   20.3730 O   0  0  0  0  0  0  0  0  0  0  0  0
  -24.6750  -31.8720   23.2620 C   0  0  0  0  0  0  0  0  0  0  0  0
  -27.1850  -26.6880   20.3150 C   0  0  0  0  0  0  0  0  0  0  0  0
  -23.4950  -30.4780   21.6190 C   0  0  0  0  0  3  0  0  0  0  0  0
  -24.9430  -28.7980   20.2290 C   0  0  0  0  0  0  0  0  0  0  0  0
  -26.0790  -30.5740   21.5310 C   0  0  0  0  0  2  0  0  0  0  0  0
  -26.1380  -29.1300   20.8780 C   0  0  0  0  0  0  0  0  0  0  0  0
  -27.2390  -28.1060   20.8840 C   0  0  0  0  0  3  0  0  0  0  0  0
  -25.9550  -26.5930   19.6070 C   0  0  0  0  0  3  0  0  0  0  0  0
  -24.8960  -27.5580   19.5690 C   0  0  0  0  0  3  0  0  0  0  0  0
  -23.7460  -29.7690   20.2550 C   0  0  0  0  0  2  0  0  0  0  0  0
  -24.7750  -31.0100   22.1900 N   0  0  0  0  0  0  0  0  0  0  0  0
  -23.5770  -32.1850   23.7580 O   0  0  0  0  0  0  0  0  0  0  0  0
  -22.7530  -29.5170   22.5880 C   0  0  0  0  0  0  0  0  0  0  0  0
  -21.4200  -29.3750   22.4510 N   0  0  0  0  0  0  0  0  0  0  0  0
  -23.3920  -28.8940   23.4400 O   0  0  0  0  0  0  0  0  0  0  0  0
  -20.9530  -29.9280   21.7440 H   0  0  0  0  0  0  0  0  0  0  0  0
  -18.0190  -28.1820   22.9320 C   0  0  0  0  0  0  0  0  0  0  0  0
  -20.5780  -28.4480   23.2190 C   0  0  0  0  0  3  0  0  0  0  0  0
  -20.6800  -27.0100   22.6570 C   0  0  0  0  0  2  0  0  0  0  0  0
  -19.5890  -26.6850   21.6310 C   0  0  0  0  0  2  0  0  0  0  0  0
  -18.2010  -26.8320   22.2590 C   0  0  0  0  0  2  0  0  0  0  0  0
  -19.1330  -28.9480   23.3680 C   0  0  0  0  0  0  0  0  0  0  0  0
  -18.9060  -30.2070   23.9630 C   0  0  0  0  0  3  0  0  0  0  0  0
  -17.5980  -30.7030   24.1240 C   0  0  0  0  0  3  0  0  0  0  0  0
  -16.4980  -29.9370   23.7000 C   0  0  0  0  0  3  0  0  0  0  0  0
  -16.7090  -28.6770   23.1110 C   0  0  0  0  0  3  0  0  0  0  0  0
  -25.9330  -32.5200   23.9170 C   0  0  0  0  0  3  0  0  0  0  0  0
  -25.6150  -33.9250   24.2440 N   0  0  0  0  0  0  0  0  0  0  0  0
  -25.9320  -34.9870   23.4900 C   0  0  0  0  0  0  0  0  0  0  0  0
  -26.5750  -34.8860   22.4430 O   0  0  0  0  0  0  0  0  0  0  0  0
  -25.0360  -34.0750   25.0570 H   0  0  0  0  0  0  0  0  0  0  0  0
  -24.1820  -36.7830   23.2210 C   0  0  0  0  0  1  0  0  0  0  0  0
  -25.4640  -36.3790   23.9670 C   0  0  0  0  0  3  0  0  0  0  0  0
  -27.6290  -37.2890   24.6910 C   0  0  0  0  0  1  0  0  0  0  0  0
  -26.4850  -37.4380   23.7970 N   0  0  0  0  0  0  0  0  0  0  0  0
  -26.0790  -38.3570   23.9500 H   0  0  0  0  0  0  0  0  0  0  0  0
  -26.4050  -31.7660   25.2230 C   0  0  1  0  0  0  0  0  0  0  0  0
  -25.2830  -31.5600   26.2680 C   0  0  0  0  0  1  0  0  0  0  0  0
  -26.9830  -30.3740   24.8840 C   0  0  0  0  0  1  0  0  0  0  0  0
  -27.5480  -32.5590   25.9010 C   0  0  0  0  0  1  0  0  0  0  0  0
  2  1  1  0
  3  1  2  0
  4  6  2  0
  4  5  1  0
  5  2  2  0
  6  3  1  0
  7 15  1  0
  8 13  1  0
  9 10  1  0
  9  8  1  0
 11 10  1  0
 11 20  1  0
 11 12  1  0
 13  7  1  0
 13 12  1  0
 14  7  2  0
 15  6  1  0
 15 16  1  0
 17 18  2  0
 18 37  1  0
 19 18  1  0
 19 22  1  0
 20 17  1  0
 20 21  1  0
 21 19  2  0
 22 23  1  0
 23 24  2  0
 25 28  1  0
 25 24  1  0
 26 25  2  0
 27 26  1  0
 27 22  2  0
 28 29  1  0
 29 30  1  0
 30 31  2  0
 32 31  1  0
 32 36  1  0
 33 32  2  0
 34 29  2  0
 34 33  1  0
 35 34  1  0
 37 38  1  0
 38 41  1  0
 38 40  1  0
 39 37  2  0
 42 43  1  0
 42 17  1  0
 44 42  1  0
 45  5  1  0
 45 46  1  0
 47 58  2  0
 48 46  1  0
 48 53  1  0
 49 57  1  0
 49 59  1  0
 50 56  1  0
 50 52  1  0
 51 57  1  0
 52 53  2  0
 52 51  1  0
 54 48  2  0
 55 54  1  0
 55 50  2  0
 56 49  1  0
 57 47  1  0
 59 61  2  0
 60 59  1  0
 62 60  1  0
 63 72  2  0
 63 68  1  0
 64 60  1  0
 64 68  1  0
 65 64  1  0
 66 67  1  0
 66 65  1  0
 67 63  1  0
 68 69  2  0
 69 70  1  0
 71 70  2  0
 72 71  1  0
 73 47  1  0
 73 74  1  0
 73 83  1  0
 74 77  1  0
 75 79  1  0
 75 74  1  0
 76 75  2  0
 79 78  1  0
 81 82  1  0
 81 79  1  0
 81 80  1  0
 83 86  1  1
 83 84  1  0
 85 83  1  0
M  ISO  4   7 100  15 100  45 101  46 101
M  END
>  <TORSDO>  (77) 
F 17

>  <SCORE>  (77) 
-16.516

>  <name>  (77) 
76

>  <ligand_id>  (77) 
76

>  <original_smiles>  (77) 
[H]c1c([H])c(N([H])C(=O)N2C([H])([H])C([H])([H])C([H])([H])C([H])(n3nc(-c4c([H])c([H])c(Oc5c([H])c([H])c(F)c([H])c5F)c([H])c4[H])c(C(=O)N([H])[H])c3N([H])[H])C2([H])[H])c([H])c(C([H])([H])Oc2c([H])c([H])c3c(c2[H])C([H])([H])N(C(=O)C([H])(N([H])C(=O)C([H])(N([H])C([H])([H])[H])C([H])([H])[H])C(C([H])([H])[H])(C([H])([H])[H])C([H])([H])[H])C([H])(C(=O)N([H])C2([H])c4c([H])c([H])c([H])c([H])c4C([H])([H])C([H])([H])C2([H])[H])C3([H])[H])c1[H]

>  <smiles>  (77) 
[H]c1c([H])c(N([H])C(=O)N2C([H])([H])C([H])([H])C([H])([H])C([H])(n3nc(-c4c([H])c([H])c(Oc5c([H])c([H])c(F)c([H])c5F)c([H])c4[H])c(C(=O)N([H])[H])c3N([H])[H])C2([H])[H])c([H])c(C([H])([H])Oc2c([H])c([H])c3c(c2[H])C([H])([H])N(C(=O)C([H])(N([H])C(=O)C([H])(N([H])C([H])([H])[H])C([H])([H])[H])C(C([H])([H])[H])(C([H])([H])[H])C([H])([H])[H])C([H])(C(=O)N([H])C2([H])c4c([H])c([H])c([H])c([H])c4C([H])([H])C([H])([H])C2([H])[H])C3([H])[H])c1[H]

$$$$
77:0:0
     RDKit          3D

 84 91  0  0  1  0  0  0  0  0999 V2000
  -28.0360  -24.2690   20.5090 C   0  0  0  0  0  2  0  0  0  0  0  0
  -28.2220  -25.8810   20.2090 O   0  0  0  0  0  0  0  0  0  0  0  0
  -24.6160  -31.8370   23.1800 C   0  0  0  0  0  0  0  0  0  0  0  0
  -27.1870  -26.9520   20.2070 C   0  0  0  0  0  0  0  0  0  0  0  0
  -23.4240  -30.4230   21.5540 C   0  0  0  0  0  3  0  0  0  0  0  0
  -24.8760  -28.8110   20.1480 C   0  0  0  0  0  0  0  0  0  0  0  0
  -25.9900  -30.6480   21.3990 C   0  0  0  0  0  2  0  0  0  0  0  0
  -26.0650  -29.2330   20.7580 C   0  0  0  0  0  0  0  0  0  0  0  0
  -27.2180  -28.3250   20.7560 C   0  0  0  0  0  3  0  0  0  0  0  0
  -25.9650  -26.6750   19.5560 C   0  0  0  0  0  3  0  0  0  0  0  0
  -24.8500  -27.5530   19.5260 C   0  0  0  0  0  3  0  0  0  0  0  0
  -23.6540  -29.7270   20.1840 C   0  0  0  0  0  2  0  0  0  0  0  0
  -24.6980  -30.9970   22.0980 N   0  0  0  0  0  0  0  0  0  0  0  0
  -23.5260  -32.1260   23.7010 O   0  0  0  0  0  0  0  0  0  0  0  0
  -22.7360  -29.4330   22.5290 C   0  0  0  0  0  0  0  0  0  0  0  0
  -21.4040  -29.2710   22.4160 N   0  0  0  0  0  0  0  0  0  0  0  0
  -23.4070  -28.8080   23.3540 O   0  0  0  0  0  0  0  0  0  0  0  0
  -20.9170  -29.8260   21.7270 H   0  0  0  0  0  0  0  0  0  0  0  0
  -18.0230  -28.0690   22.9520 C   0  0  0  0  0  0  0  0  0  0  0  0
  -20.5850  -28.3390   23.1970 C   0  0  0  0  0  3  0  0  0  0  0  0
  -20.6840  -26.9040   22.6300 C   0  0  0  0  0  2  0  0  0  0  0  0
  -19.5750  -26.5740   21.6240 C   0  0  0  0  0  2  0  0  0  0  0  0
  -18.1970  -26.7180   22.2770 C   0  0  0  0  0  2  0  0  0  0  0  0
  -19.1440  -28.8370   23.3690 C   0  0  0  0  0  0  0  0  0  0  0  0
  -18.9240  -30.0980   23.9630 C   0  0  0  0  0  3  0  0  0  0  0  0
  -17.6200  -30.5940   24.1420 C   0  0  0  0  0  3  0  0  0  0  0  0
  -16.5140  -29.8250   23.7380 C   0  0  0  0  0  3  0  0  0  0  0  0
  -16.7170  -28.5640   23.1490 C   0  0  0  0  0  3  0  0  0  0  0  0
  -25.8860  -32.4890   23.8060 C   0  0  0  0  0  3  0  0  0  0  0  0
  -26.4090  -31.7230   25.0840 C   0  0  1  0  0  0  0  0  0  0  0  0
  -25.3200  -31.4800   26.1550 C   0  0  0  0  0  1  0  0  0  0  0  0
  -27.0000  -30.3470   24.6990 C   0  0  0  0  0  1  0  0  0  0  0  0
  -27.5570  -32.5240   25.7410 C   0  0  0  0  0  1  0  0  0  0  0  0
  -25.5550  -33.8830   24.1530 N   0  0  0  0  0  0  0  0  0  0  0  0
  -25.8660  -34.9530   23.4100 C   0  0  0  0  0  0  0  0  0  0  0  0
  -26.5250  -34.8730   22.3700 O   0  0  0  0  0  0  0  0  0  0  0  0
  -24.9660  -34.0180   24.9610 H   0  0  0  0  0  0  0  0  0  0  0  0
  -24.1090  -36.7340   23.1180 C   0  0  0  0  0  1  0  0  0  0  0  0
  -25.3720  -36.3320   23.8960 C   0  0  0  0  0  3  0  0  0  0  0  0
  -27.5150  -37.2360   24.6870 C   0  0  0  0  0  1  0  0  0  0  0  0
  -26.3890  -37.4000   23.7720 N   0  0  0  0  0  0  0  0  0  0  0  0
  -25.9750  -38.3130   23.9390 H   0  0  0  0  0  0  0  0  0  0  0  0
  -28.7190  -22.6990   19.9240 C   0  0  0  0  0  2  0  0  0  0  0  0
  -28.9900  -21.2170   20.5850 O   0  0  0  0  0  0  0  0  0  0  0  0
  -29.0780  -19.6810   19.9990 C   0  0  0  0  0  2  0  0  0  0  0  0
  -29.8810  -18.1670   20.5600 C   0  0  0  0  0  2  0  0  0  0  0  0
  -30.3820  -15.2640   20.2540 C   0  0  0  0  0  0  0  0  0  0  0  0
  -30.3490  -12.8260   19.3660 C   0  0  0  0  0  2  0  0  0  0  0  0
  -29.4210  -12.6110   18.1440 C   0  0  0  0  0  2  0  0  0  0  0  0
  -27.9740  -12.3490   18.5940 C   0  0  0  0  0  2  0  0  0  0  0  0
  -27.5290  -13.3180   19.7180 C   0  0  0  0  0  3  0  0  0  0  0  0
  -28.5830  -13.4670   20.8330 C   0  0  0  0  0  2  0  0  0  0  0  0
  -29.8060  -13.9670   20.1860 N   0  0  0  0  0  0  0  0  0  0  0  0
  -31.6080  -15.2630   20.0800 O   0  0  0  0  0  0  0  0  0  0  0  0
  -29.6180  -16.5330   20.3180 N   0  0  0  0  0  0  0  0  0  0  0  0
  -28.6290  -16.3280   20.3210 H   0  0  0  0  0  0  0  0  0  0  0  0
  -25.1610  -13.8840   20.4750 C   0  0  0  0  0  0  0  0  0  0  0  0
  -24.0990  -13.1090   20.8510 C   0  0  0  0  0  0  0  0  0  0  0  0
  -24.5680  -11.7590   20.8280 C   0  0  0  0  0  0  0  0  0  0  0  0
  -26.2030  -13.0060   20.2350 N   0  0  0  0  0  0  0  0  0  0  0  0
  -25.8590  -11.7220   20.5170 N   0  0  0  0  0  0  0  0  0  0  0  0
  -23.8400  -10.4970   21.0260 C   0  0  0  0  0  0  0  0  0  0  0  0
  -24.2820   -9.5240   21.9500 C   0  0  0  0  0  3  0  0  0  0  0  0
  -23.5520   -8.3310   22.1370 C   0  0  0  0  0  3  0  0  0  0  0  0
  -22.3660   -8.1010   21.4000 C   0  0  0  0  0  0  0  0  0  0  0  0
  -21.9430   -9.0620   20.4650 C   0  0  0  0  0  3  0  0  0  0  0  0
  -22.6730  -10.2470   20.2760 C   0  0  0  0  0  3  0  0  0  0  0  0
  -21.6060   -6.9600   21.4960 O   0  0  0  0  0  0  0  0  0  0  0  0
  -21.5890   -6.2020   22.6400 C   0  0  0  0  0  0  0  0  0  0  0  0
  -21.2240   -6.7480   23.8900 C   0  0  0  0  0  3  0  0  0  0  0  0
  -21.1520   -5.9180   25.0260 C   0  0  0  0  0  3  0  0  0  0  0  0
  -21.4340   -4.5440   24.9150 C   0  0  0  0  0  0  0  0  0  0  0  0
  -21.7920   -3.9970   23.6700 C   0  0  0  0  0  3  0  0  0  0  0  0
  -21.8660   -4.8250   22.5350 C   0  0  0  0  0  0  0  0  0  0  0  0
  -22.1910   -4.2890   21.3340 F   0  0  0  0  0  0  0  0  0  0  0  0
  -21.3580   -3.7440   26.0040 F   0  0  0  0  0  0  0  0  0  0  0  0
  -22.7020  -13.5880   21.1150 C   0  0  0  0  0  0  0  0  0  0  0  0
  -21.9740  -12.9020   21.9880 N   0  0  0  0  0  0  0  0  0  0  0  0
  -22.2660  -14.6070   20.5800 O   0  0  0  0  0  0  0  0  0  0  0  0
  -22.3410  -12.0790   22.4420 H   0  0  0  0  0  0  0  0  0  0  0  0
  -21.0360  -13.2060   22.2080 H   0  0  0  0  0  0  0  0  0  0  0  0
  -25.3200  -15.2530   20.2870 N   0  0  0  0  0  0  0  0  0  0  0  0
  -24.5470  -15.9020   20.3920 H   0  0  0  0  0  0  0  0  0  0  0  0
  -26.1550  -15.6900   19.9190 H   0  0  0  0  0  0  0  0  0  0  0  0
  2  1  1  0
  3 14  2  0
  4  2  1  0
  4  9  1  0
  5 13  1  0
  5 15  1  0
  6 12  1  0
  6  8  1  0
  7 13  1  0
  8  7  1  0
  9  8  2  0
 10  4  2  0
 11 10  1  0
 11  6  2  0
 12  5  1  0
 13  3  1  0
 15 17  2  0
 16 15  1  0
 18 16  1  0
 19 28  2  0
 19 24  1  0
 20 16  1  0
 20 24  1  0
 21 20  1  0
 22 23  1  0
 22 21  1  0
 23 19  1  0
 24 25  2  0
 25 26  1  0
 27 26  2  0
 28 27  1  0
 29  3  1  0
 29 34  1  0
 29 30  1  0
 30 33  1  1
 30 31  1  0
 32 30  1  0
 34 37  1  0
 35 39  1  0
 35 34  1  0
 36 35  2  0
 39 38  1  0
 41 39  1  0
 41 42  1  0
 41 40  1  0
 43  1  1  0
 43 44  1  0
 45 46  1  0
 45 44  1  0
 47 55  1  0
 48 53  1  0
 49 50  1  0
 49 48  1  0
 51 50  1  0
 51 60  1  0
 51 52  1  0
 53 47  1  0
 53 52  1  0
 54 47  2  0
 55 56  1  0
 55 46  1  0
 57 58  2  0
 58 77  1  0
 59 58  1  0
 59 62  1  0
 60 57  1  0
 60 61  1  0
 61 59  2  0
 62 63  1  0
 63 64  2  0
 65 68  1  0
 65 64  1  0
 66 65  2  0
 67 66  1  0
 67 62  2  0
 68 69  1  0
 69 70  1  0
 70 71  2  0
 72 71  1  0
 72 76  1  0
 73 72  2  0
 74 69  2  0
 74 73  1  0
 75 74  1  0
 77 78  1  0
 78 81  1  0
 78 80  1  0
 79 77  2  0
 82 83  1  0
 82 57  1  0
 84 82  1  0
M  ISO  4   1 101   2 101  47 100  55 100
M  END
>  <TORSDO>  (78) 
F 20

>  <SCORE>  (78) 
-15.761

>  <name>  (78) 
77

>  <ligand_id>  (78) 
77

>  <original_smiles>  (78) 
[H]c1c([H])c([H])c2c(c1[H])C([H])([H])C([H])([H])C([H])([H])C2([H])N([H])C(=O)C1([H])N(C(=O)C([H])(N([H])C(=O)C([H])(N([H])C([H])([H])[H])C([H])([H])[H])C(C([H])([H])[H])(C([H])([H])[H])C([H])([H])[H])C([H])([H])c2c([H])c(OC([H])([H])C([H])([H])OC([H])([H])C([H])([H])N([H])C(=O)N3C([H])([H])C([H])([H])C([H])([H])C([H])(n4nc(-c5c([H])c([H])c(Oc6c([H])c([H])c(F)c([H])c6F)c([H])c5[H])c(C(=O)N([H])[H])c4N([H])[H])C3([H])[H])c([H])c([H])c2C1([H])[H]

>  <smiles>  (78) 
[H]c1c([H])c([H])c2c(c1[H])C([H])([H])C([H])([H])C([H])([H])C2([H])N([H])C(=O)C1([H])N(C(=O)C([H])(N([H])C(=O)C([H])(N([H])C([H])([H])[H])C([H])([H])[H])C(C([H])([H])[H])(C([H])([H])[H])C([H])([H])[H])C([H])([H])c2c([H])c(OC([H])([H])C([H])([H])OC([H])([H])C([H])([H])N([H])C(=O)N3C([H])([H])C([H])([H])C([H])([H])C([H])(n4nc(-c5c([H])c([H])c(Oc6c([H])c([H])c(F)c([H])c6F)c([H])c5[H])c(C(=O)N([H])[H])c4N([H])[H])C3([H])[H])c([H])c([H])c2C1([H])[H]

$$$$
78:0:0
     RDKit          3D

 86 94  0  0  1  0  0  0  0  0999 V2000
  -26.5990  -21.9870   20.5570 C   0  0  0  0  0  3  0  0  0  0  0  0
  -27.4920  -20.8700   20.4110 C   0  0  0  0  0  3  0  0  0  0  0  0
  -26.9010  -23.3880   20.4480 C   0  0  0  0  0  3  0  0  0  0  0  0
  -29.1150  -22.5910   20.0270 C   0  0  0  0  0  3  0  0  0  0  0  0
  -28.8770  -20.9670   20.1300 C   0  0  0  0  0  0  0  0  0  0  0  0
  -28.1790  -23.9350   20.1660 C   0  0  0  0  0  0  0  0  0  0  0  0
  -28.2790  -25.5900   20.1230 O   0  0  0  0  0  0  0  0  0  0  0  0
  -24.7630  -31.9440   23.2280 C   0  0  0  0  0  0  0  0  0  0  0  0
  -27.3020  -26.8420   20.1480 C   0  0  0  0  0  0  0  0  0  0  0  0
  -23.5790  -30.5650   21.5730 C   0  0  0  0  0  3  0  0  0  0  0  0
  -25.0320  -28.9320   20.1320 C   0  0  0  0  0  0  0  0  0  0  0  0
  -26.1610  -30.6930   21.4570 C   0  0  0  0  0  2  0  0  0  0  0  0
  -26.2280  -29.2590   20.7800 C   0  0  0  0  0  0  0  0  0  0  0  0
  -27.3390  -28.2450   20.7580 C   0  0  0  0  0  3  0  0  0  0  0  0
  -26.0730  -26.7620   19.4350 C   0  0  0  0  0  3  0  0  0  0  0  0
  -24.9980  -27.7100   19.4360 C   0  0  0  0  0  3  0  0  0  0  0  0
  -23.8230  -29.8870   20.1930 C   0  0  0  0  0  2  0  0  0  0  0  0
  -24.8600  -31.1030   22.1390 N   0  0  0  0  0  0  0  0  0  0  0  0
  -23.6680  -32.2320   23.7440 O   0  0  0  0  0  0  0  0  0  0  0  0
  -22.8650  -29.5750   22.5330 C   0  0  0  0  0  0  0  0  0  0  0  0
  -21.5350  -29.4030   22.3990 N   0  0  0  0  0  0  0  0  0  0  0  0
  -23.5210  -28.9560   23.3740 O   0  0  0  0  0  0  0  0  0  0  0  0
  -21.0520  -29.9530   21.7010 H   0  0  0  0  0  0  0  0  0  0  0  0
  -18.1610  -28.1420   22.8970 C   0  0  0  0  0  0  0  0  0  0  0  0
  -20.7180  -28.4460   23.1580 C   0  0  0  0  0  3  0  0  0  0  0  0
  -20.8390  -27.0220   22.5650 C   0  0  0  0  0  2  0  0  0  0  0  0
  -19.7400  -26.6990   21.5470 C   0  0  0  0  0  2  0  0  0  0  0  0
  -18.3580  -26.8090   22.1950 C   0  0  0  0  0  2  0  0  0  0  0  0
  -19.2670  -28.9180   23.3350 C   0  0  0  0  0  0  0  0  0  0  0  0
  -19.0260  -30.1610   23.9580 C   0  0  0  0  0  3  0  0  0  0  0  0
  -17.7120  -30.6310   24.1450 C   0  0  0  0  0  3  0  0  0  0  0  0
  -16.6210  -29.8540   23.7180 C   0  0  0  0  0  3  0  0  0  0  0  0
  -16.8450  -28.6100   23.1020 C   0  0  0  0  0  3  0  0  0  0  0  0
  -26.0210  -32.5950   23.8780 C   0  0  0  0  0  3  0  0  0  0  0  0
  -25.6920  -33.9930   24.2280 N   0  0  0  0  0  0  0  0  0  0  0  0
  -25.9920  -35.0690   23.4880 C   0  0  0  0  0  0  0  0  0  0  0  0
  -26.6300  -34.9900   22.4360 O   0  0  0  0  0  0  0  0  0  0  0  0
  -25.1170  -34.1250   25.0480 H   0  0  0  0  0  0  0  0  0  0  0  0
  -24.2270  -36.8540   23.2530 C   0  0  0  0  0  1  0  0  0  0  0  0
  -25.5140  -36.4490   23.9900 C   0  0  0  0  0  3  0  0  0  0  0  0
  -27.6710  -37.3690   24.7270 C   0  0  0  0  0  1  0  0  0  0  0  0
  -26.5260  -37.5190   23.8330 N   0  0  0  0  0  0  0  0  0  0  0  0
  -26.1130  -38.4330   23.9970 H   0  0  0  0  0  0  0  0  0  0  0  0
  -26.5160  -31.8280   25.1680 C   0  0  1  0  0  0  0  0  0  0  0  0
  -25.4050  -31.5930   26.2190 C   0  0  0  0  0  1  0  0  0  0  0  0
  -27.1080  -30.4500   24.8040 C   0  0  0  0  0  1  0  0  0  0  0  0
  -27.6550  -32.6260   25.8460 C   0  0  0  0  0  1  0  0  0  0  0  0
  -29.8430  -19.3070   20.0050 C   0  0  0  0  0  2  0  0  0  0  0  0
  -30.4500  -16.0790   19.9870 C   0  0  0  0  0  0  0  0  0  0  0  0
  -30.6000  -13.4980   19.1790 C   0  0  0  0  0  2  0  0  0  0  0  0
  -29.6870  -12.9980   18.0180 C   0  0  0  0  0  2  0  0  0  0  0  0
  -28.3040  -12.5850   18.5390 C   0  0  0  0  0  2  0  0  0  0  0  0
  -27.7940  -13.5890   19.5940 C   0  0  0  0  0  3  0  0  0  0  0  0
  -28.8510  -13.9910   20.6540 C   0  0  0  0  0  2  0  0  0  0  0  0
  -29.9570  -14.6810   19.9380 N   0  0  0  0  0  0  0  0  0  0  0  0
  -31.6790  -16.0010   19.7760 O   0  0  0  0  0  0  0  0  0  0  0  0
  -29.6890  -17.4810   20.0810 N   0  0  0  0  0  0  0  0  0  0  0  0
  -28.7130  -17.2610   20.2160 H   0  0  0  0  0  0  0  0  0  0  0  0
  -25.4750  -14.0620   20.5010 C   0  0  0  0  0  0  0  0  0  0  0  0
  -24.4420  -13.2600   20.8920 C   0  0  0  0  0  0  0  0  0  0  0  0
  -24.9200  -11.9170   20.7870 C   0  0  0  0  0  0  0  0  0  0  0  0
  -26.5120  -13.2120   20.1720 N   0  0  0  0  0  0  0  0  0  0  0  0
  -26.1970  -11.9110   20.4090 N   0  0  0  0  0  0  0  0  0  0  0  0
  -24.2090  -10.6440   20.9650 C   0  0  0  0  0  0  0  0  0  0  0  0
  -24.6290   -9.6870   21.9140 C   0  0  0  0  0  3  0  0  0  0  0  0
  -23.9130   -8.4810   22.0820 C   0  0  0  0  0  3  0  0  0  0  0  0
  -22.7620   -8.2240   21.3010 C   0  0  0  0  0  0  0  0  0  0  0  0
  -22.3600   -9.1700   20.3410 C   0  0  0  0  0  3  0  0  0  0  0  0
  -23.0780  -10.3650   20.1710 C   0  0  0  0  0  3  0  0  0  0  0  0
  -22.0190   -7.0700   21.3780 O   0  0  0  0  0  0  0  0  0  0  0  0
  -21.8620   -6.3920   22.5600 C   0  0  0  0  0  0  0  0  0  0  0  0
  -21.2590   -6.9900   23.6880 C   0  0  0  0  0  3  0  0  0  0  0  0
  -21.0540   -6.2360   24.8600 C   0  0  0  0  0  3  0  0  0  0  0  0
  -21.4420   -4.8840   24.9050 C   0  0  0  0  0  0  0  0  0  0  0  0
  -22.0390   -4.2840   23.7810 C   0  0  0  0  0  3  0  0  0  0  0  0
  -22.2440   -5.0360   22.6110 C   0  0  0  0  0  0  0  0  0  0  0  0
  -22.7990   -4.4490   21.5240 F   0  0  0  0  0  0  0  0  0  0  0  0
  -21.2400   -4.1560   26.0280 F   0  0  0  0  0  0  0  0  0  0  0  0
  -23.0560  -13.7160   21.2400 C   0  0  0  0  0  0  0  0  0  0  0  0
  -22.3770  -12.9930   22.1220 N   0  0  0  0  0  0  0  0  0  0  0  0
  -22.5880  -14.7510   20.7680 O   0  0  0  0  0  0  0  0  0  0  0  0
  -22.7710  -12.1560   22.5260 H   0  0  0  0  0  0  0  0  0  0  0  0
  -21.4480  -13.2790   22.3970 H   0  0  0  0  0  0  0  0  0  0  0  0
  -25.6140  -15.4410   20.3640 N   0  0  0  0  0  0  0  0  0  0  0  0
  -24.8430  -16.0790   20.5290 H   0  0  0  0  0  0  0  0  0  0  0  0
  -26.4300  -15.8970   19.9770 H   0  0  0  0  0  0  0  0  0  0  0  0
  2  1  2  0
  3  1  1  0
  4  5  2  0
  4  6  1  0
  5  2  1  0
  6  3  2  0
  7  9  1  0
  7  6  1  0
  8 19  2  0
  9 14  1  0
 10 18  1  0
 10 20  1  0
 11 17  1  0
 11 13  1  0
 12 18  1  0
 13 12  1  0
 14 13  2  0
 15 16  1  0
 15  9  2  0
 16 11  2  0
 17 10  1  0
 18  8  1  0
 20 22  2  0
 21 20  1  0
 23 21  1  0
 24 33  2  0
 24 29  1  0
 25 21  1  0
 25 29  1  0
 26 25  1  0
 27 28  1  0
 27 26  1  0
 28 24  1  0
 29 30  2  0
 30 31  1  0
 32 31  2  0
 33 32  1  0
 34  8  1  0
 34 35  1  0
 34 44  1  0
 35 38  1  0
 36 40  1  0
 36 35  1  0
 37 36  2  0
 40 39  1  0
 42 40  1  0
 42 43  1  0
 42 41  1  0
 44 47  1  1
 44 45  1  0
 46 44  1  0
 48 57  1  0
 48  5  1  0
 49 57  1  0
 50 55  1  0
 51 52  1  0
 51 50  1  0
 53 52  1  0
 53 62  1  0
 53 54  1  0
 55 49  1  0
 55 54  1  0
 56 49  2  0
 57 58  1  0
 59 60  2  0
 60 79  1  0
 61 60  1  0
 61 64  1  0
 62 63  1  0
 62 59  1  0
 63 61  2  0
 64 65  1  0
 65 66  2  0
 67 70  1  0
 67 66  1  0
 68 67  2  0
 69 68  1  0
 69 64  2  0
 70 71  1  0
 71 76  2  0
 71 72  1  0
 72 73  2  0
 73 74  1  0
 74 78  1  0
 75 74  2  0
 76 75  1  0
 77 76  1  0
 79 80  1  0
 80 83  1  0
 80 82  1  0
 81 79  2  0
 84 59  1  0
 84 85  1  0
 86 84  1  0
M  ISO  4   6 101   7 101  49 100  57 100
M  END
>  <TORSDO>  (79) 
F 17

>  <SCORE>  (79) 
-15.190

>  <name>  (79) 
78

>  <ligand_id>  (79) 
78

>  <original_smiles>  (79) 
[H]c1c([H])c(Oc2c([H])c([H])c3c(c2[H])C([H])([H])N(C(=O)C([H])(N([H])C(=O)C([H])(N([H])C([H])([H])[H])C([H])([H])[H])C(C([H])([H])[H])(C([H])([H])[H])C([H])([H])[H])C([H])(C(=O)N([H])C2([H])c4c([H])c([H])c([H])c([H])c4C([H])([H])C([H])([H])C2([H])[H])C3([H])[H])c([H])c(C([H])([H])N([H])C(=O)N2C([H])([H])C([H])([H])C([H])([H])C([H])(n3nc(-c4c([H])c([H])c(Oc5c([H])c([H])c(F)c([H])c5F)c([H])c4[H])c(C(=O)N([H])[H])c3N([H])[H])C2([H])[H])c1[H]

>  <smiles>  (79) 
[H]c1c([H])c(Oc2c([H])c([H])c3c(c2[H])C([H])([H])N(C(=O)C([H])(N([H])C(=O)C([H])(N([H])C([H])([H])[H])C([H])([H])[H])C(C([H])([H])[H])(C([H])([H])[H])C([H])([H])[H])C([H])(C(=O)N([H])C2([H])c4c([H])c([H])c([H])c([H])c4C([H])([H])C([H])([H])C2([H])[H])C3([H])[H])c([H])c(C([H])([H])N([H])C(=O)N2C([H])([H])C([H])([H])C([H])([H])C([H])(n3nc(-c4c([H])c([H])c(Oc5c([H])c([H])c(F)c([H])c5F)c([H])c4[H])c(C(=O)N([H])[H])c3N([H])[H])C2([H])[H])c1[H]

$$$$
79:0:0
     RDKit          3D

 90 98  0  0  1  0  0  0  0  0999 V2000
  -28.9470  -21.8440   19.8530 C   0  0  0  0  0  3  0  0  0  0  0  0
  -29.7890  -21.9810   22.0900 C   0  0  0  0  0  3  0  0  0  0  0  0
  -28.6110  -23.2450   19.8980 C   0  0  0  0  0  3  0  0  0  0  0  0
  -29.4300  -23.3530   22.1470 C   0  0  0  0  0  3  0  0  0  0  0  0
  -29.5680  -21.1720   20.9470 C   0  0  0  0  0  0  0  0  0  0  0  0
  -28.8350  -24.0440   21.0580 C   0  0  0  0  0  0  0  0  0  0  0  0
  -30.0500  -19.7230   21.0160 C   0  0  0  0  0  3  0  0  0  0  0  0
  -29.7350  -18.5430   20.3870 C   0  0  0  0  0  3  0  0  0  0  0  0
  -30.5640  -17.2160   20.5690 C   0  0  0  0  0  2  0  0  0  0  0  0
  -30.6320  -14.6810   20.3040 C   0  0  0  0  0  0  0  0  0  0  0  0
  -30.3270  -12.4600   19.2350 C   0  0  0  0  0  2  0  0  0  0  0  0
  -29.3600  -12.5930   18.0410 C   0  0  0  0  0  2  0  0  0  0  0  0
  -27.9020  -12.4310   18.5110 C   0  0  0  0  0  2  0  0  0  0  0  0
  -27.5750  -13.2960   19.7600 C   0  0  0  0  0  3  0  0  0  0  0  0
  -28.6640  -13.1690   20.8480 C   0  0  0  0  0  2  0  0  0  0  0  0
  -29.9500  -13.4940   20.2220 N   0  0  0  0  0  0  0  0  0  0  0  0
  -31.8070  -14.7500   19.9390 O   0  0  0  0  0  0  0  0  0  0  0  0
  -29.9420  -15.8380   20.5850 N   0  0  0  0  0  0  0  0  0  0  0  0
  -28.9650  -15.7560   20.8280 H   0  0  0  0  0  0  0  0  0  0  0  0
  -25.2070  -13.8820   20.5580 C   0  0  0  0  0  0  0  0  0  0  0  0
  -24.1490  -13.1030   20.9410 C   0  0  0  0  0  0  0  0  0  0  0  0
  -24.6080  -11.7520   20.8760 C   0  0  0  0  0  0  0  0  0  0  0  0
  -26.2430  -13.0040   20.2820 N   0  0  0  0  0  0  0  0  0  0  0  0
  -25.8900  -11.7170   20.5350 N   0  0  0  0  0  0  0  0  0  0  0  0
  -23.8840  -10.4880   21.0630 C   0  0  0  0  0  0  0  0  0  0  0  0
  -24.3270   -9.5090   21.9800 C   0  0  0  0  0  3  0  0  0  0  0  0
  -23.6020   -8.3110   22.1550 C   0  0  0  0  0  3  0  0  0  0  0  0
  -22.4180   -8.0820   21.4140 C   0  0  0  0  0  0  0  0  0  0  0  0
  -21.9940   -9.0490   20.4850 C   0  0  0  0  0  3  0  0  0  0  0  0
  -22.7200  -10.2390   20.3080 C   0  0  0  0  0  3  0  0  0  0  0  0
  -21.6640   -6.9370   21.4990 O   0  0  0  0  0  0  0  0  0  0  0  0
  -21.6190   -6.1890   22.6480 C   0  0  0  0  0  0  0  0  0  0  0  0
  -21.1780   -6.7320   23.8740 C   0  0  0  0  0  3  0  0  0  0  0  0
  -21.0820   -5.9090   25.0150 C   0  0  0  0  0  3  0  0  0  0  0  0
  -21.4170   -4.5450   24.9300 C   0  0  0  0  0  0  0  0  0  0  0  0
  -21.8520   -4.0010   23.7080 C   0  0  0  0  0  3  0  0  0  0  0  0
  -21.9500   -4.8200   22.5690 C   0  0  0  0  0  0  0  0  0  0  0  0
  -22.3490   -4.2870   21.3900 F   0  0  0  0  0  0  0  0  0  0  0  0
  -21.3170   -3.7520   26.0220 F   0  0  0  0  0  0  0  0  0  0  0  0
  -22.7600  -13.5790   21.2550 C   0  0  0  0  0  0  0  0  0  0  0  0
  -22.0500  -12.8660   22.1230 N   0  0  0  0  0  0  0  0  0  0  0  0
  -22.3140  -14.6160   20.7660 O   0  0  0  0  0  0  0  0  0  0  0  0
  -22.4250  -12.0270   22.5390 H   0  0  0  0  0  0  0  0  0  0  0  0
  -21.1200  -13.1670   22.3760 H   0  0  0  0  0  0  0  0  0  0  0  0
  -25.3700  -15.2540   20.3980 N   0  0  0  0  0  0  0  0  0  0  0  0
  -24.6050  -15.9060   20.5330 H   0  0  0  0  0  0  0  0  0  0  0  0
  -26.2060  -15.6980   20.0400 H   0  0  0  0  0  0  0  0  0  0  0  0
  -28.3730  -25.5020   21.3050 C   0  0  0  0  0  0  0  0  0  0  0  0
  -28.0130  -25.8320   22.4400 O   0  0  0  0  0  0  0  0  0  0  0  0
  -28.3380  -26.4500   20.2530 O   0  0  0  0  0  0  0  0  0  0  0  0
  -24.6160  -31.8900   23.2540 C   0  0  0  0  0  0  0  0  0  0  0  0
  -27.2730  -27.3570   20.2270 C   0  0  0  0  0  0  0  0  0  0  0  0
  -23.4310  -30.4790   21.6090 C   0  0  0  0  0  3  0  0  0  0  0  0
  -24.9040  -28.9430   20.1910 C   0  0  0  0  0  0  0  0  0  0  0  0
  -25.9680  -30.8230   21.4380 C   0  0  0  0  0  2  0  0  0  0  0  0
  -26.0650  -29.4450   20.7950 C   0  0  0  0  0  0  0  0  0  0  0  0
  -27.2610  -28.6640   20.8050 C   0  0  0  0  0  3  0  0  0  0  0  0
  -26.1010  -26.9120   19.5860 C   0  0  0  0  0  3  0  0  0  0  0  0
  -24.9230  -27.6810   19.5750 C   0  0  0  0  0  3  0  0  0  0  0  0
  -23.6570  -29.8040   20.2310 C   0  0  0  0  0  2  0  0  0  0  0  0
  -24.6900  -31.0800   22.1570 N   0  0  0  0  0  0  0  0  0  0  0  0
  -23.5280  -32.1600   23.7830 O   0  0  0  0  0  0  0  0  0  0  0  0
  -22.7720  -29.4580   22.5680 C   0  0  0  0  0  0  0  0  0  0  0  0
  -21.4460  -29.2780   22.4410 N   0  0  0  0  0  0  0  0  0  0  0  0
  -23.4510  -28.8320   23.3850 O   0  0  0  0  0  0  0  0  0  0  0  0
  -20.9570  -29.8350   21.7540 H   0  0  0  0  0  0  0  0  0  0  0  0
  -18.0700  -28.0840   22.9480 C   0  0  0  0  0  0  0  0  0  0  0  0
  -20.6290  -28.3390   23.2110 C   0  0  0  0  0  3  0  0  0  0  0  0
  -20.7280  -26.9090   22.6290 C   0  0  0  0  0  2  0  0  0  0  0  0
  -19.6210  -26.5920   21.6170 C   0  0  0  0  0  2  0  0  0  0  0  0
  -18.2420  -26.7360   22.2660 C   0  0  0  0  0  2  0  0  0  0  0  0
  -19.1910  -28.8420   23.3760 C   0  0  0  0  0  0  0  0  0  0  0  0
  -18.9760  -30.1030   23.9740 C   0  0  0  0  0  3  0  0  0  0  0  0
  -17.6720  -30.6060   24.1470 C   0  0  0  0  0  3  0  0  0  0  0  0
  -16.5660  -29.8440   23.7340 C   0  0  0  0  0  3  0  0  0  0  0  0
  -16.7650  -28.5850   23.1410 C   0  0  0  0  0  3  0  0  0  0  0  0
  -25.8910  -32.5320   23.8810 C   0  0  0  0  0  3  0  0  0  0  0  0
  -26.3960  -31.7770   25.1720 C   0  0  1  0  0  0  0  0  0  0  0  0
  -25.2930  -31.5480   26.2300 C   0  0  0  0  0  1  0  0  0  0  0  0
  -26.9900  -30.3980   24.8010 C   0  0  0  0  0  1  0  0  0  0  0  0
  -27.5380  -32.5830   25.8360 C   0  0  0  0  0  1  0  0  0  0  0  0
  -25.5750  -33.9340   24.1930 N   0  0  0  0  0  0  0  0  0  0  0  0
  -25.9110  -34.9780   23.4250 C   0  0  0  0  0  0  0  0  0  0  0  0
  -26.5900  -34.8650   22.4010 O   0  0  0  0  0  0  0  0  0  0  0  0
  -24.9720  -34.0960   24.9870 H   0  0  0  0  0  0  0  0  0  0  0  0
  -24.1880  -36.7680   23.0300 C   0  0  0  0  0  1  0  0  0  0  0  0
  -25.4170  -36.3710   23.8630 C   0  0  0  0  0  3  0  0  0  0  0  0
  -27.5380  -37.2650   24.7200 C   0  0  0  0  0  1  0  0  0  0  0  0
  -26.4510  -37.4240   23.7560 N   0  0  0  0  0  0  0  0  0  0  0  0
  -26.0420  -38.3440   23.8870 H   0  0  0  0  0  0  0  0  0  0  0  0
  1  3  2  0
  1  5  1  0
  2  4  1  0
  3  6  1  0
  5  7  1  0
  5  2  2  0
  6 48  1  0
  6  4  2  0
  8  9  1  0
  8  7  2  0
  9 18  1  0
 10 18  1  0
 11 16  1  0
 12 13  1  0
 12 11  1  0
 14 13  1  0
 14 23  1  0
 14 15  1  0
 16 10  1  0
 16 15  1  0
 17 10  2  0
 18 19  1  0
 20 21  2  0
 21 40  1  0
 22 21  1  0
 22 25  1  0
 23 24  1  0
 23 20  1  0
 24 22  2  0
 25 26  1  0
 26 27  2  0
 28 31  1  0
 28 27  1  0
 29 28  2  0
 30 29  1  0
 30 25  2  0
 31 32  1  0
 32 33  1  0
 33 34  2  0
 35 34  1  0
 35 39  1  0
 36 35  2  0
 37 32  2  0
 37 36  1  0
 38 37  1  0
 40 41  1  0
 41 44  1  0
 41 43  1  0
 42 40  2  0
 45 46  1  0
 45 20  1  0
 47 45  1  0
 48 49  2  0
 50 48  1  0
 51 62  2  0
 52 50  1  0
 52 57  1  0
 53 61  1  0
 53 63  1  0
 54 60  1  0
 54 56  1  0
 55 61  1  0
 56 57  2  0
 56 55  1  0
 58 52  2  0
 59 58  1  0
 59 54  2  0
 60 53  1  0
 61 51  1  0
 63 65  2  0
 64 63  1  0
 66 64  1  0
 67 76  2  0
 67 72  1  0
 68 64  1  0
 68 72  1  0
 69 68  1  0
 70 71  1  0
 70 69  1  0
 71 67  1  0
 72 73  2  0
 73 74  1  0
 75 74  2  0
 76 75  1  0
 77 51  1  0
 77 82  1  0
 77 78  1  0
 78 81  1  1
 78 79  1  0
 80 78  1  0
 82 85  1  0
 83 87  1  0
 83 82  1  0
 84 83  2  0
 87 86  1  0
 89 87  1  0
 89 90  1  0
 89 88  1  0
M  ISO  4  10 100  18 100  48 101  50 101
M  END
>  <TORSDO>  (80) 
F 19

>  <SCORE>  (80) 
-14.335

>  <name>  (80) 
79

>  <ligand_id>  (80) 
79

>  <original_smiles>  (80) 
[H]C(=C([H])C([H])([H])N([H])C(=O)N1C([H])([H])C([H])([H])C([H])([H])C([H])(n2nc(-c3c([H])c([H])c(Oc4c([H])c([H])c(F)c([H])c4F)c([H])c3[H])c(C(=O)N([H])[H])c2N([H])[H])C1([H])[H])c1c([H])c([H])c(C(=O)Oc2c([H])c([H])c3c(c2[H])C([H])([H])N(C(=O)C([H])(N([H])C(=O)C([H])(N([H])C([H])([H])[H])C([H])([H])[H])C(C([H])([H])[H])(C([H])([H])[H])C([H])([H])[H])C([H])(C(=O)N([H])C2([H])c4c([H])c([H])c([H])c([H])c4C([H])([H])C([H])([H])C2([H])[H])C3([H])[H])c([H])c1[H]

>  <smiles>  (80) 
[H]C(=C([H])C([H])([H])N([H])C(=O)N1C([H])([H])C([H])([H])C([H])([H])C([H])(n2nc(-c3c([H])c([H])c(Oc4c([H])c([H])c(F)c([H])c4F)c([H])c3[H])c(C(=O)N([H])[H])c2N([H])[H])C1([H])[H])c1c([H])c([H])c(C(=O)Oc2c([H])c([H])c3c(c2[H])C([H])([H])N(C(=O)C([H])(N([H])C(=O)C([H])(N([H])C([H])([H])[H])C([H])([H])[H])C(C([H])([H])[H])(C([H])([H])[H])C([H])([H])[H])C([H])(C(=O)N([H])C2([H])c4c([H])c([H])c([H])c([H])c4C([H])([H])C([H])([H])C2([H])[H])C3([H])[H])c([H])c1[H]

$$$$
80:0:0
     RDKit          3D

 89 97  0  0  1  0  0  0  0  0999 V2000
  -29.2950  -21.0210   20.6670 O   0  0  0  0  0  0  0  0  0  0  0  0
  -29.9360  -18.4520   17.9800 C   0  0  0  0  0  3  0  0  0  0  0  0
  -30.0500  -17.2450   18.6970 C   0  0  0  0  0  3  0  0  0  0  0  0
  -29.6640  -19.6750   18.6240 C   0  0  0  0  0  3  0  0  0  0  0  0
  -29.6110  -18.4860   20.7420 C   0  0  0  0  0  3  0  0  0  0  0  0
  -29.8800  -17.2050   20.0990 C   0  0  0  0  0  0  0  0  0  0  0  0
  -29.5100  -19.7580   20.0290 C   0  0  0  0  0  0  0  0  0  0  0  0
  -30.6010  -14.7370   20.4170 C   0  0  0  0  0  0  0  0  0  0  0  0
  -30.3770  -12.4630   19.4240 C   0  0  0  0  0  2  0  0  0  0  0  0
  -29.4550  -12.5730   18.1880 C   0  0  0  0  0  2  0  0  0  0  0  0
  -27.9790  -12.4180   18.5990 C   0  0  0  0  0  2  0  0  0  0  0  0
  -27.6070  -13.2920   19.8260 C   0  0  0  0  0  3  0  0  0  0  0  0
  -28.6550  -13.1820   20.9580 C   0  0  0  0  0  2  0  0  0  0  0  0
  -29.9670  -13.5140   20.3850 N   0  0  0  0  0  0  0  0  0  0  0  0
  -31.7670  -14.8330   20.0240 O   0  0  0  0  0  0  0  0  0  0  0  0
  -29.8780  -15.8700   20.7530 N   0  0  0  0  0  0  0  0  0  0  0  0
  -29.0650  -15.6850   21.3230 H   0  0  0  0  0  0  0  0  0  0  0  0
  -25.2110  -13.8880   20.5220 C   0  0  0  0  0  0  0  0  0  0  0  0
  -24.1410  -13.1180   20.8890 C   0  0  0  0  0  0  0  0  0  0  0  0
  -24.6030  -11.7650   20.8710 C   0  0  0  0  0  0  0  0  0  0  0  0
  -26.2560  -13.0060   20.3030 N   0  0  0  0  0  0  0  0  0  0  0  0
  -25.8960  -11.7250   20.5750 N   0  0  0  0  0  0  0  0  0  0  0  0
  -23.8720  -10.5060   21.0630 C   0  0  0  0  0  0  0  0  0  0  0  0
  -24.3070   -9.5330   21.9900 C   0  0  0  0  0  3  0  0  0  0  0  0
  -23.5760   -8.3390   22.1720 C   0  0  0  0  0  3  0  0  0  0  0  0
  -22.3950   -8.1100   21.4260 C   0  0  0  0  0  0  0  0  0  0  0  0
  -21.9790   -9.0710   20.4880 C   0  0  0  0  0  3  0  0  0  0  0  0
  -22.7110  -10.2550   20.3040 C   0  0  0  0  0  3  0  0  0  0  0  0
  -21.6360   -6.9680   21.5170 O   0  0  0  0  0  0  0  0  0  0  0  0
  -21.6070   -6.2110   22.6600 C   0  0  0  0  0  0  0  0  0  0  0  0
  -21.2230   -6.7560   23.9050 C   0  0  0  0  0  3  0  0  0  0  0  0
  -21.1400   -5.9270   25.0420 C   0  0  0  0  0  3  0  0  0  0  0  0
  -21.4290   -4.5530   24.9340 C   0  0  0  0  0  0  0  0  0  0  0  0
  -21.8060   -4.0080   23.6940 C   0  0  0  0  0  3  0  0  0  0  0  0
  -21.8920   -4.8340   22.5600 C   0  0  0  0  0  0  0  0  0  0  0  0
  -22.2340   -4.2990   21.3640 F   0  0  0  0  0  0  0  0  0  0  0  0
  -21.3430   -3.7540   26.0230 F   0  0  0  0  0  0  0  0  0  0  0  0
  -22.7420  -13.5990   21.1430 C   0  0  0  0  0  0  0  0  0  0  0  0
  -22.0050  -12.9120   22.0090 N   0  0  0  0  0  0  0  0  0  0  0  0
  -22.3110  -14.6210   20.6110 O   0  0  0  0  0  0  0  0  0  0  0  0
  -22.3650  -12.0850   22.4620 H   0  0  0  0  0  0  0  0  0  0  0  0
  -21.0670  -13.2170   22.2210 H   0  0  0  0  0  0  0  0  0  0  0  0
  -25.3780  -15.2570   20.3340 N   0  0  0  0  0  0  0  0  0  0  0  0
  -24.6100  -15.9130   20.4280 H   0  0  0  0  0  0  0  0  0  0  0  0
  -26.2290  -15.6900   19.9960 H   0  0  0  0  0  0  0  0  0  0  0  0
  -28.9080  -22.2590   19.9150 C   0  0  0  0  0  3  0  0  0  0  0  0
  -28.9510  -23.7300   20.5960 C   0  0  0  0  0  3  0  0  0  0  0  0
  -28.1250  -24.9400   19.9070 C   0  0  0  0  0  2  0  0  0  0  0  0
  -28.2870  -26.3920   20.2760 O   0  0  0  0  0  0  0  0  0  0  0  0
  -24.6020  -31.8830   23.2620 C   0  0  0  0  0  0  0  0  0  0  0  0
  -27.1880  -27.2840   20.1920 C   0  0  0  0  0  0  0  0  0  0  0  0
  -23.3890  -30.4870   21.6280 C   0  0  0  0  0  3  0  0  0  0  0  0
  -24.8330  -28.9380   20.1890 C   0  0  0  0  0  0  0  0  0  0  0  0
  -25.9320  -30.7900   21.4390 C   0  0  0  0  0  2  0  0  0  0  0  0
  -26.0060  -29.4090   20.7890 C   0  0  0  0  0  0  0  0  0  0  0  0
  -27.1820  -28.5920   20.7870 C   0  0  0  0  0  3  0  0  0  0  0  0
  -25.9950  -26.8960   19.5370 C   0  0  0  0  0  3  0  0  0  0  0  0
  -24.8330  -27.6880   19.5520 C   0  0  0  0  0  3  0  0  0  0  0  0
  -23.5980  -29.8170   20.2450 C   0  0  0  0  0  2  0  0  0  0  0  0
  -24.6600  -31.0720   22.1650 N   0  0  0  0  0  0  0  0  0  0  0  0
  -23.5200  -32.1630   23.8010 O   0  0  0  0  0  0  0  0  0  0  0  0
  -22.7280  -29.4710   22.5900 C   0  0  0  0  0  0  0  0  0  0  0  0
  -21.4020  -29.2910   22.4650 N   0  0  0  0  0  0  0  0  0  0  0  0
  -23.4080  -28.8490   23.4100 O   0  0  0  0  0  0  0  0  0  0  0  0
  -20.9100  -29.8450   21.7780 H   0  0  0  0  0  0  0  0  0  0  0  0
  -18.0310  -28.0740   22.9630 C   0  0  0  0  0  0  0  0  0  0  0  0
  -20.5860  -28.3530   23.2400 C   0  0  0  0  0  3  0  0  0  0  0  0
  -20.7000  -26.9170   22.6750 C   0  0  0  0  0  2  0  0  0  0  0  0
  -19.6040  -26.5800   21.6590 C   0  0  0  0  0  2  0  0  0  0  0  0
  -18.2190  -26.7210   22.2970 C   0  0  0  0  0  2  0  0  0  0  0  0
  -19.1430  -28.8470   23.3920 C   0  0  0  0  0  0  0  0  0  0  0  0
  -18.9130  -30.1120   23.9750 C   0  0  0  0  0  3  0  0  0  0  0  0
  -17.6040  -30.6050   24.1340 C   0  0  0  0  0  3  0  0  0  0  0  0
  -16.5070  -29.8300   23.7210 C   0  0  0  0  0  3  0  0  0  0  0  0
  -16.7200  -28.5660   23.1410 C   0  0  0  0  0  3  0  0  0  0  0  0
  -25.8860  -32.5160   23.8780 C   0  0  0  0  0  3  0  0  0  0  0  0
  -26.4050  -31.7460   25.1540 C   0  0  1  0  0  0  0  0  0  0  0  0
  -25.3140  -31.5150   26.2270 C   0  0  0  0  0  1  0  0  0  0  0  0
  -26.9810  -30.3650   24.7650 C   0  0  0  0  0  1  0  0  0  0  0  0
  -27.5610  -32.5370   25.8080 C   0  0  0  0  0  1  0  0  0  0  0  0
  -25.5810  -33.9160   24.2080 N   0  0  0  0  0  0  0  0  0  0  0  0
  -25.9070  -34.9680   23.4450 C   0  0  0  0  0  0  0  0  0  0  0  0
  -26.5670  -34.8610   22.4080 O   0  0  0  0  0  0  0  0  0  0  0  0
  -24.9960  -34.0710   25.0160 H   0  0  0  0  0  0  0  0  0  0  0  0
  -24.1760  -36.7610   23.1060 C   0  0  0  0  0  1  0  0  0  0  0  0
  -25.4260  -36.3570   23.9050 C   0  0  0  0  0  3  0  0  0  0  0  0
  -27.5730  -37.2410   24.7060 C   0  0  0  0  0  1  0  0  0  0  0  0
  -26.4580  -37.4100   23.7790 N   0  0  0  0  0  0  0  0  0  0  0  0
  -26.0550  -38.3300   23.9340 H   0  0  0  0  0  0  0  0  0  0  0  0
  2  4  2  0
  2  3  1  0
  3  6  2  0
  4  7  1  0
  6  5  1  0
  6 16  1  0
  7  1  1  0
  7  5  2  0
  8 16  1  0
  9 14  1  0
 10 11  1  0
 10  9  1  0
 12 11  1  0
 12 21  1  0
 12 13  1  0
 14  8  1  0
 14 13  1  0
 15  8  2  0
 16 17  1  0
 18 19  2  0
 19 38  1  0
 20 19  1  0
 20 23  1  0
 21 18  1  0
 21 22  1  0
 22 20  2  0
 23 24  1  0
 24 25  2  0
 26 29  1  0
 26 25  1  0
 27 26  2  0
 28 27  1  0
 28 23  2  0
 29 30  1  0
 30 31  1  0
 31 32  2  0
 33 32  1  0
 33 37  1  0
 34 33  2  0
 35 30  2  0
 35 34  1  0
 36 35  1  0
 38 39  1  0
 39 42  1  0
 39 41  1  0
 40 38  2  0
 43 44  1  0
 43 18  1  0
 45 43  1  0
 46 47  2  0
 46  1  1  0
 48 49  1  0
 48 47  1  0
 50 61  2  0
 51 49  1  0
 51 56  1  0
 52 60  1  0
 52 62  1  0
 53 59  1  0
 53 55  1  0
 54 60  1  0
 55 54  1  0
 56 55  2  0
 57 58  1  0
 57 51  2  0
 58 53  2  0
 59 52  1  0
 60 50  1  0
 62 64  2  0
 63 62  1  0
 65 63  1  0
 66 75  2  0
 66 71  1  0
 67 63  1  0
 67 71  1  0
 68 67  1  0
 69 70  1  0
 69 68  1  0
 70 66  1  0
 71 72  2  0
 72 73  1  0
 74 73  2  0
 75 74  1  0
 76 50  1  0
 76 81  1  0
 76 77  1  0
 77 80  1  1
 77 78  1  0
 79 77  1  0
 81 84  1  0
 82 86  1  0
 82 81  1  0
 83 82  2  0
 86 85  1  0
 88 86  1  0
 88 89  1  0
 88 87  1  0
M  ISO  4   8 100  16 100  48 101  49 101
M  END
>  <TORSDO>  (81) 
F 20

>  <SCORE>  (81) 
-13.721

>  <name>  (81) 
80

>  <ligand_id>  (81) 
80

>  <original_smiles>  (81) 
[H]c1c([H])c(OC([H])([H])C([H])([H])C([H])([H])Oc2c([H])c([H])c3c(c2[H])C([H])([H])N(C(=O)C([H])(N([H])C(=O)C([H])(N([H])C([H])([H])[H])C([H])([H])[H])C(C([H])([H])[H])(C([H])([H])[H])C([H])([H])[H])C([H])(C(=O)N([H])C2([H])c4c([H])c([H])c([H])c([H])c4C([H])([H])C([H])([H])C2([H])[H])C3([H])[H])c([H])c(N([H])C(=O)N2C([H])([H])C([H])([H])C([H])([H])C([H])(n3nc(-c4c([H])c([H])c(Oc5c([H])c([H])c(F)c([H])c5F)c([H])c4[H])c(C(=O)N([H])[H])c3N([H])[H])C2([H])[H])c1[H]

>  <smiles>  (81) 
[H]c1c([H])c(OC([H])([H])C([H])([H])C([H])([H])Oc2c([H])c([H])c3c(c2[H])C([H])([H])N(C(=O)C([H])(N([H])C(=O)C([H])(N([H])C([H])([H])[H])C([H])([H])[H])C(C([H])([H])[H])(C([H])([H])[H])C([H])([H])[H])C([H])(C(=O)N([H])C2([H])c4c([H])c([H])c([H])c([H])c4C([H])([H])C([H])([H])C2([H])[H])C3([H])[H])c([H])c(N([H])C(=O)N2C([H])([H])C([H])([H])C([H])([H])C([H])(n3nc(-c4c([H])c([H])c(Oc5c([H])c([H])c(F)c([H])c5F)c([H])c4[H])c(C(=O)N([H])[H])c3N([H])[H])C2([H])[H])c1[H]

$$$$
81:0:0
     RDKit          3D

 97105  0  0  1  0  0  0  0  0999 V2000
  -31.3050  -23.1110   20.4110 C   0  0  0  0  0  3  0  0  0  0  0  0
  -31.4740  -21.8300   20.9680 C   0  0  0  0  0  3  0  0  0  0  0  0
  -30.7460  -22.1000   18.2670 C   0  0  0  0  0  3  0  0  0  0  0  0
  -30.9470  -23.2530   19.0540 C   0  0  0  0  0  0  0  0  0  0  0  0
  -30.8900  -20.8080   18.8230 C   0  0  0  0  0  0  0  0  0  0  0  0
  -31.2770  -20.6750   20.1800 C   0  0  0  0  0  0  0  0  0  0  0  0
  -31.7450  -19.3210   16.9630 C   0  0  0  0  0  1  0  0  0  0  0  0
  -29.2350  -19.6380   17.2650 C   0  0  0  0  0  1  0  0  0  0  0  0
  -30.6090  -19.5780   17.9610 C   0  0  0  0  0  3  0  0  0  0  0  0
  -30.7870  -24.6360   18.4410 C   0  0  0  0  0  2  0  0  0  0  0  0
  -28.8670  -26.1550   18.9920 C   0  0  0  0  0  0  0  0  0  0  0  0
  -30.0520  -25.5360   19.3230 N   0  0  0  0  0  0  0  0  0  0  0  0
  -28.3340  -26.1470   17.8790 O   0  0  0  0  0  0  0  0  0  0  0  0
  -30.3620  -25.6540   20.2770 H   0  0  0  0  0  0  0  0  0  0  0  0
  -28.3920  -26.7620   20.1020 O   0  0  0  0  0  0  0  0  0  0  0  0
  -24.5850  -31.8660   23.2550 C   0  0  0  0  0  0  0  0  0  0  0  0
  -27.1980  -27.4490   20.1270 C   0  0  0  0  0  0  0  0  0  0  0  0
  -23.3580  -30.4700   21.6210 C   0  0  0  0  0  3  0  0  0  0  0  0
  -24.7920  -28.9280   20.1880 C   0  0  0  0  0  0  0  0  0  0  0  0
  -25.8780  -30.8330   21.3930 C   0  0  0  0  0  2  0  0  0  0  0  0
  -25.9550  -29.4590   20.7600 C   0  0  0  0  0  0  0  0  0  0  0  0
  -27.1600  -28.7240   20.7310 C   0  0  0  0  0  3  0  0  0  0  0  0
  -26.0080  -26.9130   19.5840 C   0  0  0  0  0  3  0  0  0  0  0  0
  -24.8110  -27.6490   19.6050 C   0  0  0  0  0  3  0  0  0  0  0  0
  -23.5520  -29.7900   20.2400 C   0  0  0  0  0  2  0  0  0  0  0  0
  -24.6260  -31.0700   22.1500 N   0  0  0  0  0  0  0  0  0  0  0  0
  -23.5090  -32.1390   23.8060 O   0  0  0  0  0  0  0  0  0  0  0  0
  -22.7120  -29.4500   22.5860 C   0  0  0  0  0  0  0  0  0  0  0  0
  -21.3870  -29.2700   22.4680 N   0  0  0  0  0  0  0  0  0  0  0  0
  -23.4010  -28.8210   23.3950 O   0  0  0  0  0  0  0  0  0  0  0  0
  -20.8930  -29.8270   21.7840 H   0  0  0  0  0  0  0  0  0  0  0  0
  -18.0160  -28.0780   22.9760 C   0  0  0  0  0  0  0  0  0  0  0  0
  -20.5730  -28.3340   23.2430 C   0  0  0  0  0  3  0  0  0  0  0  0
  -20.6730  -26.9000   22.6730 C   0  0  0  0  0  2  0  0  0  0  0  0
  -19.5700  -26.5770   21.6600 C   0  0  0  0  0  2  0  0  0  0  0  0
  -18.1890  -26.7260   22.3050 C   0  0  0  0  0  2  0  0  0  0  0  0
  -19.1350  -28.8400   23.4040 C   0  0  0  0  0  0  0  0  0  0  0  0
  -18.9190  -30.1050   23.9900 C   0  0  0  0  0  3  0  0  0  0  0  0
  -17.6150  -30.6110   24.1530 C   0  0  0  0  0  3  0  0  0  0  0  0
  -16.5100  -29.8460   23.7420 C   0  0  0  0  0  3  0  0  0  0  0  0
  -16.7110  -28.5820   23.1600 C   0  0  0  0  0  3  0  0  0  0  0  0
  -25.8790  -32.4900   23.8650 C   0  0  0  0  0  3  0  0  0  0  0  0
  -25.5790  -33.8890   24.1970 N   0  0  0  0  0  0  0  0  0  0  0  0
  -25.9150  -34.9380   23.4350 C   0  0  0  0  0  0  0  0  0  0  0  0
  -26.5810  -34.8300   22.4010 O   0  0  0  0  0  0  0  0  0  0  0  0
  -24.9870  -34.0480   24.9990 H   0  0  0  0  0  0  0  0  0  0  0  0
  -24.1990  -36.7410   23.0790 C   0  0  0  0  0  1  0  0  0  0  0  0
  -25.4380  -36.3290   23.8920 C   0  0  0  0  0  3  0  0  0  0  0  0
  -27.5810  -37.1980   24.7160 C   0  0  0  0  0  1  0  0  0  0  0  0
  -26.4770  -37.3770   23.7780 N   0  0  0  0  0  0  0  0  0  0  0  0
  -26.0770  -38.2990   23.9290 H   0  0  0  0  0  0  0  0  0  0  0  0
  -26.4060  -31.7130   25.1320 C   0  0  1  0  0  0  0  0  0  0  0  0
  -25.3240  -31.4790   26.2130 C   0  0  0  0  0  1  0  0  0  0  0  0
  -26.9750  -30.3340   24.7260 C   0  0  0  0  0  1  0  0  0  0  0  0
  -27.5710  -32.4970   25.7820 C   0  0  0  0  0  1  0  0  0  0  0  0
  -31.4920  -19.4280   20.7100 O   0  0  0  0  0  0  0  0  0  0  0  0
  -30.7270  -19.1190   21.8700 C   0  0  0  0  0  2  0  0  0  0  0  0
  -30.6660  -17.5920   22.0520 C   0  0  0  0  0  2  0  0  0  0  0  0
  -30.2590  -16.8630   20.7600 C   0  0  0  0  0  2  0  0  0  0  0  0
  -30.6860  -14.4410   20.3730 C   0  0  0  0  0  0  0  0  0  0  0  0
  -30.3180  -12.3340   19.1570 C   0  0  0  0  0  2  0  0  0  0  0  0
  -29.3500  -12.6230   17.9910 C   0  0  0  0  0  2  0  0  0  0  0  0
  -27.8860  -12.4900   18.4550 C   0  0  0  0  0  2  0  0  0  0  0  0
  -27.5970  -13.2760   19.7620 C   0  0  0  0  0  3  0  0  0  0  0  0
  -28.6790  -12.9860   20.8310 C   0  0  0  0  0  2  0  0  0  0  0  0
  -29.9970  -13.2780   20.2390 N   0  0  0  0  0  0  0  0  0  0  0  0
  -31.7820  -14.6450   19.8470 O   0  0  0  0  0  0  0  0  0  0  0  0
  -29.9980  -15.4330   20.9560 N   0  0  0  0  0  0  0  0  0  0  0  0
  -29.1030  -15.1820   21.3480 H   0  0  0  0  0  0  0  0  0  0  0  0
  -25.2150  -13.8810   20.5300 C   0  0  0  0  0  0  0  0  0  0  0  0
  -24.1550  -13.1060   20.9220 C   0  0  0  0  0  0  0  0  0  0  0  0
  -24.6150  -11.7550   20.8690 C   0  0  0  0  0  0  0  0  0  0  0  0
  -26.2530  -13.0010   20.2680 N   0  0  0  0  0  0  0  0  0  0  0  0
  -25.8960  -11.7170   20.5250 N   0  0  0  0  0  0  0  0  0  0  0  0
  -23.8920  -10.4930   21.0700 C   0  0  0  0  0  0  0  0  0  0  0  0
  -24.3540   -9.5140   21.9780 C   0  0  0  0  0  3  0  0  0  0  0  0
  -23.6330   -8.3160   22.1650 C   0  0  0  0  0  3  0  0  0  0  0  0
  -22.4340   -8.0880   21.4470 C   0  0  0  0  0  0  0  0  0  0  0  0
  -21.9910   -9.0560   20.5300 C   0  0  0  0  0  3  0  0  0  0  0  0
  -22.7130  -10.2460   20.3390 C   0  0  0  0  0  3  0  0  0  0  0  0
  -21.6820   -6.9420   21.5450 O   0  0  0  0  0  0  0  0  0  0  0  0
  -21.6760   -6.1800   22.6850 C   0  0  0  0  0  0  0  0  0  0  0  0
  -21.3140   -6.7170   23.9400 C   0  0  0  0  0  3  0  0  0  0  0  0
  -21.2530   -5.8800   25.0710 C   0  0  0  0  0  3  0  0  0  0  0  0
  -21.5470   -4.5090   24.9520 C   0  0  0  0  0  0  0  0  0  0  0  0
  -21.9060   -3.9730   23.7040 C   0  0  0  0  0  3  0  0  0  0  0  0
  -21.9670   -4.8060   22.5720 C   0  0  0  0  0  0  0  0  0  0  0  0
  -22.2910   -4.2800   21.3660 F   0  0  0  0  0  0  0  0  0  0  0  0
  -21.4870   -3.7030   26.0390 F   0  0  0  0  0  0  0  0  0  0  0  0
  -22.7650  -13.5840   21.2320 C   0  0  0  0  0  0  0  0  0  0  0  0
  -22.0550  -12.8860   22.1110 N   0  0  0  0  0  0  0  0  0  0  0  0
  -22.3140  -14.6140   20.7300 O   0  0  0  0  0  0  0  0  0  0  0  0
  -22.4300  -12.0580   22.5500 H   0  0  0  0  0  0  0  0  0  0  0  0
  -21.1210  -13.1870   22.3520 H   0  0  0  0  0  0  0  0  0  0  0  0
  -25.3720  -15.2530   20.3590 N   0  0  0  0  0  0  0  0  0  0  0  0
  -24.6020  -15.9010   20.4810 H   0  0  0  0  0  0  0  0  0  0  0  0
  -26.2160  -15.7010   20.0220 H   0  0  0  0  0  0  0  0  0  0  0  0
  1  2  1  0
  3  5  2  0
  3  4  1  0
  4  1  2  0
  5  6  1  0
  6 56  1  0
  6  2  2  0
  7  9  1  0
  8  9  1  0
  9  5  1  0
 10  4  1  0
 10 12  1  0
 11 12  1  0
 11 15  1  0
 12 14  1  0
 13 11  2  0
 15 17  1  0
 16 27  2  0
 17 22  1  0
 18 26  1  0
 18 28  1  0
 19 25  1  0
 19 21  1  0
 20 26  1  0
 21 20  1  0
 22 21  2  0
 23 24  1  0
 23 17  2  0
 24 19  2  0
 25 18  1  0
 26 16  1  0
 28 30  2  0
 29 28  1  0
 31 29  1  0
 32 41  2  0
 32 37  1  0
 33 29  1  0
 33 37  1  0
 34 33  1  0
 35 36  1  0
 35 34  1  0
 36 32  1  0
 37 38  2  0
 38 39  1  0
 40 39  2  0
 41 40  1  0
 42 16  1  0
 42 43  1  0
 42 52  1  0
 43 46  1  0
 44 48  1  0
 44 43  1  0
 45 44  2  0
 48 47  1  0
 50 48  1  0
 50 51  1  0
 50 49  1  0
 52 55  1  1
 52 53  1  0
 54 52  1  0
 56 57  1  0
 57 58  1  0
 59 68  1  0
 59 58  1  0
 60 68  1  0
 61 66  1  0
 62 63  1  0
 62 61  1  0
 64 63  1  0
 64 73  1  0
 64 65  1  0
 66 60  1  0
 66 65  1  0
 67 60  2  0
 68 69  1  0
 70 71  2  0
 71 90  1  0
 72 71  1  0
 72 75  1  0
 73 74  1  0
 73 70  1  0
 74 72  2  0
 75 76  1  0
 76 77  2  0
 78 81  1  0
 78 77  1  0
 79 78  2  0
 80 79  1  0
 80 75  2  0
 81 82  1  0
 82 83  1  0
 83 84  2  0
 85 84  1  0
 85 89  1  0
 86 85  2  0
 87 82  2  0
 87 86  1  0
 88 87  1  0
 90 91  1  0
 91 94  1  0
 91 93  1  0
 92 90  2  0
 95 96  1  0
 95 70  1  0
 97 95  1  0
M  ISO  4  11 101  15 101  60 100  68 100
M  END
>  <TORSDO>  (82) 
F 23

>  <SCORE>  (82) 
-12.829

>  <name>  (82) 
81

>  <ligand_id>  (82) 
81

>  <original_smiles>  (82) 
[H]c1c([H])c([H])c2c(c1[H])C([H])([H])C([H])([H])C([H])([H])C2([H])N([H])C(=O)C1([H])N(C(=O)C([H])(N([H])C(=O)C([H])(N([H])C([H])([H])[H])C([H])([H])[H])C(C([H])([H])[H])(C([H])([H])[H])C([H])([H])[H])C([H])([H])c2c([H])c(OC(=O)N([H])C([H])([H])c3c([H])c([H])c(OC([H])([H])C([H])([H])C([H])([H])N([H])C(=O)N4C([H])([H])C([H])([H])C([H])([H])C([H])(n5nc(-c6c([H])c([H])c(Oc7c([H])c([H])c(F)c([H])c7F)c([H])c6[H])c(C(=O)N([H])[H])c5N([H])[H])C4([H])[H])c(C([H])(C([H])([H])[H])C([H])([H])[H])c3[H])c([H])c([H])c2C1([H])[H]

>  <smiles>  (82) 
[H]c1c([H])c([H])c2c(c1[H])C([H])([H])C([H])([H])C([H])([H])C2([H])N([H])C(=O)C1([H])N(C(=O)C([H])(N([H])C(=O)C([H])(N([H])C([H])([H])[H])C([H])([H])[H])C(C([H])([H])[H])(C([H])([H])[H])C([H])([H])[H])C([H])([H])c2c([H])c(OC(=O)N([H])C([H])([H])c3c([H])c([H])c(OC([H])([H])C([H])([H])C([H])([H])N([H])C(=O)N4C([H])([H])C([H])([H])C([H])([H])C([H])(n5nc(-c6c([H])c([H])c(Oc7c([H])c([H])c(F)c([H])c7F)c([H])c6[H])c(C(=O)N([H])[H])c5N([H])[H])C4([H])[H])c(C([H])(C([H])([H])[H])C([H])([H])[H])c3[H])c([H])c([H])c2C1([H])[H]

$$$$
82:0:0
     RDKit          3D

 92100  0  0  1  0  0  0  0  0999 V2000
  -27.6230  -20.7190   19.1680 C   0  0  0  0  0  1  0  0  0  0  0  0
  -28.9750  -21.1030   19.7990 C   0  0  0  0  0  3  0  0  0  0  0  0
  -31.6700  -18.9810   21.6550 C   0  0  0  0  0  3  0  0  0  0  0  0
  -30.8940  -20.0520   21.1670 C   0  0  0  0  0  3  0  0  0  0  0  0
  -31.3090  -17.6380   21.4240 C   0  0  0  0  0  3  0  0  0  0  0  0
  -29.3380  -18.4290   20.2430 C   0  0  0  0  0  3  0  0  0  0  0  0
  -29.7020  -19.8300   20.4430 C   0  0  0  0  0  0  0  0  0  0  0  0
  -30.1380  -17.3060   20.7060 C   0  0  0  0  0  0  0  0  0  0  0  0
  -30.5680  -14.7480   20.3680 C   0  0  0  0  0  0  0  0  0  0  0  0
  -30.3520  -12.4880   19.3260 C   0  0  0  0  0  2  0  0  0  0  0  0
  -29.3960  -12.5730   18.1160 C   0  0  0  0  0  2  0  0  0  0  0  0
  -27.9320  -12.3990   18.5660 C   0  0  0  0  0  2  0  0  0  0  0  0
  -27.5740  -13.2750   19.7950 C   0  0  0  0  0  3  0  0  0  0  0  0
  -28.6480  -13.1770   20.8990 C   0  0  0  0  0  2  0  0  0  0  0  0
  -29.9350  -13.5310   20.2870 N   0  0  0  0  0  0  0  0  0  0  0  0
  -31.7610  -14.8420   20.0590 O   0  0  0  0  0  0  0  0  0  0  0  0
  -29.7790  -15.8780   20.5310 N   0  0  0  0  0  0  0  0  0  0  0  0
  -28.7900  -15.6830   20.5350 H   0  0  0  0  0  0  0  0  0  0  0  0
  -25.1950  -13.8600   20.5560 C   0  0  0  0  0  0  0  0  0  0  0  0
  -24.1350  -13.0820   20.9330 C   0  0  0  0  0  0  0  0  0  0  0  0
  -24.6000  -11.7320   20.8890 C   0  0  0  0  0  0  0  0  0  0  0  0
  -26.2370  -12.9830   20.3010 N   0  0  0  0  0  0  0  0  0  0  0  0
  -25.8870  -11.6980   20.5650 N   0  0  0  0  0  0  0  0  0  0  0  0
  -23.8770  -10.4670   21.0780 C   0  0  0  0  0  0  0  0  0  0  0  0
  -24.3190   -9.4940   22.0010 C   0  0  0  0  0  3  0  0  0  0  0  0
  -23.5960   -8.2950   22.1780 C   0  0  0  0  0  3  0  0  0  0  0  0
  -22.4160   -8.0610   21.4320 C   0  0  0  0  0  0  0  0  0  0  0  0
  -21.9930   -9.0220   20.4980 C   0  0  0  0  0  3  0  0  0  0  0  0
  -22.7170  -10.2130   20.3190 C   0  0  0  0  0  3  0  0  0  0  0  0
  -21.6640   -6.9150   21.5200 O   0  0  0  0  0  0  0  0  0  0  0  0
  -21.6240   -6.1650   22.6690 C   0  0  0  0  0  0  0  0  0  0  0  0
  -21.1920   -6.7100   23.8970 C   0  0  0  0  0  3  0  0  0  0  0  0
  -21.0990   -5.8870   25.0380 C   0  0  0  0  0  3  0  0  0  0  0  0
  -21.4290   -4.5210   24.9500 C   0  0  0  0  0  0  0  0  0  0  0  0
  -21.8560   -3.9760   23.7260 C   0  0  0  0  0  3  0  0  0  0  0  0
  -21.9490   -4.7970   22.5880 C   0  0  0  0  0  0  0  0  0  0  0  0
  -22.3400   -4.2630   21.4060 F   0  0  0  0  0  0  0  0  0  0  0  0
  -21.3340   -3.7290   26.0440 F   0  0  0  0  0  0  0  0  0  0  0  0
  -22.7390  -13.5560   21.2220 C   0  0  0  0  0  0  0  0  0  0  0  0
  -22.0200  -12.8510   22.0880 N   0  0  0  0  0  0  0  0  0  0  0  0
  -22.2960  -14.5860   20.7160 O   0  0  0  0  0  0  0  0  0  0  0  0
  -22.3920  -12.0180   22.5200 H   0  0  0  0  0  0  0  0  0  0  0  0
  -21.0840  -13.1490   22.3240 H   0  0  0  0  0  0  0  0  0  0  0  0
  -25.3510  -15.2320   20.3830 N   0  0  0  0  0  0  0  0  0  0  0  0
  -24.5750  -15.8760   20.5010 H   0  0  0  0  0  0  0  0  0  0  0  0
  -26.1790  -15.6780   20.0110 H   0  0  0  0  0  0  0  0  0  0  0  0
  -28.8170  -22.3960   20.6170 N   0  0  0  0  0  4  0  0  0  0  0  0
  -28.0080  -22.2710   21.2040 H   0  0  0  0  0  0  0  0  0  0  0  0
  -29.6070  -22.4520   21.2400 H   0  0  0  0  0  0  0  0  0  0  0  0
  -28.7140  -23.7600   19.8920 C   0  0  0  0  0  3  0  0  0  0  0  0
  -28.1910  -25.0470   20.7180 C   0  0  0  0  0  3  0  0  0  0  0  0
  -28.3450  -26.4490   20.2020 O   0  0  0  0  0  0  0  0  0  0  0  0
  -24.6230  -31.9050   23.2190 C   0  0  0  0  0  0  0  0  0  0  0  0
  -27.2320  -27.3090   20.1960 C   0  0  0  0  0  0  0  0  0  0  0  0
  -23.4190  -30.4970   21.5870 C   0  0  0  0  0  3  0  0  0  0  0  0
  -24.8700  -28.9320   20.1710 C   0  0  0  0  0  0  0  0  0  0  0  0
  -25.9600  -30.8120   21.3990 C   0  0  0  0  0  2  0  0  0  0  0  0
  -26.0400  -29.4250   20.7620 C   0  0  0  0  0  0  0  0  0  0  0  0
  -27.2270  -28.6280   20.7580 C   0  0  0  0  0  3  0  0  0  0  0  0
  -26.0400  -26.8720   19.5820 C   0  0  0  0  0  3  0  0  0  0  0  0
  -24.8730  -27.6630   19.5710 C   0  0  0  0  0  3  0  0  0  0  0  0
  -23.6340  -29.8100   20.2120 C   0  0  0  0  0  2  0  0  0  0  0  0
  -24.6860  -31.0890   22.1250 N   0  0  0  0  0  0  0  0  0  0  0  0
  -23.5390  -32.1840   23.7530 O   0  0  0  0  0  0  0  0  0  0  0  0
  -22.7570  -29.4860   22.5550 C   0  0  0  0  0  0  0  0  0  0  0  0
  -21.4290  -29.3110   22.4320 N   0  0  0  0  0  0  0  0  0  0  0  0
  -23.4360  -28.8620   23.3750 O   0  0  0  0  0  0  0  0  0  0  0  0
  -20.9400  -29.8660   21.7450 H   0  0  0  0  0  0  0  0  0  0  0  0
  -18.0500  -28.1300   22.9560 C   0  0  0  0  0  0  0  0  0  0  0  0
  -20.6110  -28.3780   23.2090 C   0  0  0  0  0  3  0  0  0  0  0  0
  -20.7020  -26.9460   22.6340 C   0  0  0  0  0  2  0  0  0  0  0  0
  -19.5910  -26.6270   21.6270 C   0  0  0  0  0  2  0  0  0  0  0  0
  -18.2150  -26.7790   22.2810 C   0  0  0  0  0  2  0  0  0  0  0  0
  -19.1740  -28.8870   23.3780 C   0  0  0  0  0  0  0  0  0  0  0  0
  -18.9660  -30.1510   23.9720 C   0  0  0  0  0  3  0  0  0  0  0  0
  -17.6640  -30.6580   24.1470 C   0  0  0  0  0  3  0  0  0  0  0  0
  -16.5540  -29.8980   23.7410 C   0  0  0  0  0  3  0  0  0  0  0  0
  -16.7470  -28.6350   23.1520 C   0  0  0  0  0  3  0  0  0  0  0  0
  -25.9040  -32.5420   23.8380 C   0  0  0  0  0  3  0  0  0  0  0  0
  -26.4280  -31.7710   25.1120 C   0  0  1  0  0  0  0  0  0  0  0  0
  -25.3400  -31.5270   26.1840 C   0  0  0  0  0  1  0  0  0  0  0  0
  -27.0160  -30.3970   24.7160 C   0  0  0  0  0  1  0  0  0  0  0  0
  -27.5780  -32.5690   25.7710 C   0  0  0  0  0  1  0  0  0  0  0  0
  -25.5900  -33.9390   24.1750 N   0  0  0  0  0  0  0  0  0  0  0  0
  -25.9130  -34.9960   23.4180 C   0  0  0  0  0  0  0  0  0  0  0  0
  -26.5780  -34.8980   22.3830 O   0  0  0  0  0  0  0  0  0  0  0  0
  -24.9990  -34.0880   24.9790 H   0  0  0  0  0  0  0  0  0  0  0  0
  -24.1820  -36.7880   23.0750 C   0  0  0  0  0  1  0  0  0  0  0  0
  -25.4240  -36.3810   23.8840 C   0  0  0  0  0  3  0  0  0  0  0  0
  -27.5560  -37.2670   24.7210 C   0  0  0  0  0  1  0  0  0  0  0  0
  -26.4550  -37.4360   23.7760 N   0  0  0  0  0  0  0  0  0  0  0  0
  -26.0470  -38.3550   23.9260 H   0  0  0  0  0  0  0  0  0  0  0  0
  2  1  1  0
  2  7  1  0
  2 47  1  0
  4  3  2  0
  5  3  1  0
  6  7  2  0
  6  8  1  0
  7  4  1  0
  8  5  2  0
  9 17  1  0
 10 15  1  0
 11 12  1  0
 11 10  1  0
 13 12  1  0
 13 22  1  0
 13 14  1  0
 15  9  1  0
 15 14  1  0
 16  9  2  0
 17 18  1  0
 17  8  1  0
 19 20  2  0
 20 39  1  0
 21 20  1  0
 21 24  1  0
 22 19  1  0
 22 23  1  0
 23 21  2  0
 24 25  1  0
 25 26  2  0
 27 30  1  0
 27 26  1  0
 28 27  2  0
 29 28  1  0
 29 24  2  0
 30 31  1  0
 31 32  1  0
 32 33  2  0
 34 33  1  0
 34 38  1  0
 35 34  2  0
 36 31  2  0
 36 35  1  0
 37 36  1  0
 39 40  1  0
 40 43  1  0
 40 42  1  0
 41 39  2  0
 44 45  1  0
 44 19  1  0
 46 44  1  0
 47 48  1  0
 47 49  1  0
 50 47  1  0
 50 51  2  0
 52 51  1  0
 53 64  2  0
 54 52  1  0
 54 59  1  0
 55 63  1  0
 55 65  1  0
 56 62  1  0
 56 58  1  0
 57 63  1  0
 58 57  1  0
 59 58  2  0
 60 54  2  0
 61 60  1  0
 61 56  2  0
 62 55  1  0
 63 53  1  0
 65 67  2  0
 66 65  1  0
 68 66  1  0
 69 78  2  0
 69 74  1  0
 70 66  1  0
 70 74  1  0
 71 70  1  0
 72 73  1  0
 72 71  1  0
 73 69  1  0
 74 75  2  0
 75 76  1  0
 77 76  2  0
 78 77  1  0
 79 53  1  0
 79 84  1  0
 79 80  1  0
 80 83  1  1
 80 81  1  0
 82 80  1  0
 84 87  1  0
 85 89  1  0
 85 84  1  0
 86 85  2  0
 89 88  1  0
 91 89  1  0
 91 92  1  0
 91 90  1  0
M  ISO  4   9 100  17 100  51 101  52 101
M  END
>  <TORSDO>  (83) 
F 20

>  <SCORE>  (83) 
-14.066

>  <name>  (83) 
82

>  <ligand_id>  (83) 
82

>  <original_smiles>  (83) 
[H]c1c([H])c([H])c2c(c1[H])C([H])([H])C([H])([H])C([H])([H])C2([H])N([H])C(=O)C1([H])N(C(=O)C([H])(N([H])C(=O)C([H])(N([H])C([H])([H])[H])C([H])([H])[H])C(C([H])([H])[H])(C([H])([H])[H])C([H])([H])[H])C([H])([H])c2c([H])c(OC([H])([H])C([H])([H])[N+]([H])([H])C([H])(c3c([H])c([H])c([H])c(N([H])C(=O)N4C([H])([H])C([H])([H])C([H])([H])C([H])(n5nc(-c6c([H])c([H])c(Oc7c([H])c([H])c(F)c([H])c7F)c([H])c6[H])c(C(=O)N([H])[H])c5N([H])[H])C4([H])[H])c3[H])C([H])([H])[H])c([H])c([H])c2C1([H])[H]

>  <smiles>  (83) 
[H]c1c([H])c([H])c2c(c1[H])C([H])([H])C([H])([H])C([H])([H])C2([H])N([H])C(=O)C1([H])N(C(=O)C([H])(N([H])C(=O)C([H])(N([H])C([H])([H])[H])C([H])([H])[H])C(C([H])([H])[H])(C([H])([H])[H])C([H])([H])[H])C([H])([H])c2c([H])c(OC([H])([H])C([H])([H])[N+]([H])([H])C([H])(c3c([H])c([H])c([H])c(N([H])C(=O)N4C([H])([H])C([H])([H])C([H])([H])C([H])(n5nc(-c6c([H])c([H])c(Oc7c([H])c([H])c(F)c([H])c7F)c([H])c6[H])c(C(=O)N([H])[H])c5N([H])[H])C4([H])[H])c3[H])C([H])([H])[H])c([H])c([H])c2C1([H])[H]

$$$$
83:0:0
     RDKit          3D

 87 95  0  0  1  0  0  0  0  0999 V2000
  -29.7490  -22.2480   20.5300 C   0  0  0  0  0  3  0  0  0  0  0  0
  -27.5180  -21.9960   20.0460 C   0  0  0  0  0  3  0  0  0  0  0  0
  -29.5500  -23.7230   20.5110 C   0  0  0  0  0  3  0  0  0  0  0  0
  -27.3200  -23.4690   20.0330 C   0  0  0  0  0  3  0  0  0  0  0  0
  -28.7400  -21.2290   20.2930 C   0  0  0  0  0  0  0  0  0  0  0  0
  -28.3270  -24.4910   20.2700 C   0  0  0  0  0  0  0  0  0  0  0  0
  -28.2700  -26.0210   20.2620 O   0  0  0  0  0  0  0  0  0  0  0  0
  -24.6630  -31.9000   23.2530 C   0  0  0  0  0  0  0  0  0  0  0  0
  -27.2000  -27.0420   20.2440 C   0  0  0  0  0  0  0  0  0  0  0  0
  -23.4600  -30.5100   21.6150 C   0  0  0  0  0  3  0  0  0  0  0  0
  -24.8990  -28.8990   20.1950 C   0  0  0  0  0  0  0  0  0  0  0  0
  -26.0230  -30.7190   21.4660 C   0  0  0  0  0  2  0  0  0  0  0  0
  -26.0830  -29.3090   20.8180 C   0  0  0  0  0  0  0  0  0  0  0  0
  -27.2250  -28.3990   20.8210 C   0  0  0  0  0  3  0  0  0  0  0  0
  -25.9910  -26.7730   19.5650 C   0  0  0  0  0  3  0  0  0  0  0  0
  -24.8740  -27.6500   19.5500 C   0  0  0  0  0  3  0  0  0  0  0  0
  -23.6840  -29.8220   20.2390 C   0  0  0  0  0  2  0  0  0  0  0  0
  -24.7370  -31.0700   22.1650 N   0  0  0  0  0  0  0  0  0  0  0  0
  -23.5760  -32.1950   23.7760 O   0  0  0  0  0  0  0  0  0  0  0  0
  -22.7650  -29.5160   22.5810 C   0  0  0  0  0  0  0  0  0  0  0  0
  -21.4360  -29.3520   22.4500 N   0  0  0  0  0  0  0  0  0  0  0  0
  -23.4270  -28.8940   23.4140 O   0  0  0  0  0  0  0  0  0  0  0  0
  -20.9550  -29.9050   21.7540 H   0  0  0  0  0  0  0  0  0  0  0  0
  -18.0510  -28.1440   22.9400 C   0  0  0  0  0  0  0  0  0  0  0  0
  -20.6090  -28.4170   23.2210 C   0  0  0  0  0  3  0  0  0  0  0  0
  -20.7180  -26.9820   22.6550 C   0  0  0  0  0  2  0  0  0  0  0  0
  -19.6230  -26.6510   21.6340 C   0  0  0  0  0  2  0  0  0  0  0  0
  -18.2380  -26.7940   22.2690 C   0  0  0  0  0  2  0  0  0  0  0  0
  -19.1650  -28.9130   23.3730 C   0  0  0  0  0  0  0  0  0  0  0  0
  -18.9360  -30.1750   23.9630 C   0  0  0  0  0  3  0  0  0  0  0  0
  -17.6270  -30.6680   24.1220 C   0  0  0  0  0  3  0  0  0  0  0  0
  -16.5290  -29.8970   23.7040 C   0  0  0  0  0  3  0  0  0  0  0  0
  -16.7420  -28.6360   23.1190 C   0  0  0  0  0  3  0  0  0  0  0  0
  -25.9400  -32.5360   23.8850 C   0  0  0  0  0  3  0  0  0  0  0  0
  -25.6290  -33.9350   24.2240 N   0  0  0  0  0  0  0  0  0  0  0  0
  -25.9390  -34.9950   23.4660 C   0  0  0  0  0  0  0  0  0  0  0  0
  -26.5810  -34.8980   22.4160 O   0  0  0  0  0  0  0  0  0  0  0  0
  -25.0550  -34.0840   25.0410 H   0  0  0  0  0  0  0  0  0  0  0  0
  -24.1870  -36.7830   23.1920 C   0  0  0  0  0  1  0  0  0  0  0  0
  -25.4660  -36.3840   23.9450 C   0  0  0  0  0  3  0  0  0  0  0  0
  -27.6290  -37.2870   24.6820 C   0  0  0  0  0  1  0  0  0  0  0  0
  -26.4870  -37.4430   23.7840 N   0  0  0  0  0  0  0  0  0  0  0  0
  -26.0810  -38.3610   23.9440 H   0  0  0  0  0  0  0  0  0  0  0  0
  -26.4440  -31.7660   25.1700 C   0  0  1  0  0  0  0  0  0  0  0  0
  -25.3430  -31.5390   26.2320 C   0  0  0  0  0  1  0  0  0  0  0  0
  -27.0210  -30.3820   24.7940 C   0  0  0  0  0  1  0  0  0  0  0  0
  -27.5940  -32.5560   25.8360 C   0  0  0  0  0  1  0  0  0  0  0  0
  -28.7710  -19.4900   20.4200 C   0  0  0  0  0  3  0  0  0  0  0  0
  -29.9040  -18.1470   20.1660 C   0  0  0  0  0  3  0  0  0  0  0  0
  -30.4220  -15.2680   20.1290 C   0  0  0  0  0  0  0  0  0  0  0  0
  -30.3640  -12.8570   19.2020 C   0  0  0  0  0  2  0  0  0  0  0  0
  -29.4080  -12.7090   17.9920 C   0  0  0  0  0  2  0  0  0  0  0  0
  -27.9670  -12.4430   18.4630 C   0  0  0  0  0  2  0  0  0  0  0  0
  -27.5560  -13.3720   19.6340 C   0  0  0  0  0  3  0  0  0  0  0  0
  -28.6370  -13.4700   20.7320 C   0  0  0  0  0  2  0  0  0  0  0  0
  -29.8550  -13.9700   20.0790 N   0  0  0  0  0  0  0  0  0  0  0  0
  -31.6260  -15.2940   19.8420 O   0  0  0  0  0  0  0  0  0  0  0  0
  -29.6520  -16.5110   20.2970 N   0  0  0  0  0  0  0  0  0  0  0  0
  -28.6870  -16.2980   20.5040 H   0  0  0  0  0  0  0  0  0  0  0  0
  -25.2010  -13.9080   20.4540 C   0  0  0  0  0  0  0  0  0  0  0  0
  -24.1550  -13.1210   20.8430 C   0  0  0  0  0  0  0  0  0  0  0  0
  -24.6290  -11.7730   20.7840 C   0  0  0  0  0  0  0  0  0  0  0  0
  -26.2420  -13.0440   20.1720 N   0  0  0  0  0  0  0  0  0  0  0  0
  -25.9130  -11.7530   20.4380 N   0  0  0  0  0  0  0  0  0  0  0  0
  -23.9160  -10.5040   20.9760 C   0  0  0  0  0  0  0  0  0  0  0  0
  -24.3560   -9.5420   21.9110 C   0  0  0  0  0  3  0  0  0  0  0  0
  -23.6390   -8.3390   22.0930 C   0  0  0  0  0  3  0  0  0  0  0  0
  -22.4670   -8.0900   21.3390 C   0  0  0  0  0  0  0  0  0  0  0  0
  -22.0450   -9.0420   20.3950 C   0  0  0  0  0  3  0  0  0  0  0  0
  -22.7640  -10.2350   20.2100 C   0  0  0  0  0  3  0  0  0  0  0  0
  -21.7220   -6.9400   21.4310 O   0  0  0  0  0  0  0  0  0  0  0  0
  -21.6550   -6.2160   22.5940 C   0  0  0  0  0  0  0  0  0  0  0  0
  -21.1770   -6.7810   23.7970 C   0  0  0  0  0  3  0  0  0  0  0  0
  -21.0590   -5.9810   24.9520 C   0  0  0  0  0  3  0  0  0  0  0  0
  -21.4100   -4.6180   24.9040 C   0  0  0  0  0  0  0  0  0  0  0  0
  -21.8800   -4.0540   23.7060 C   0  0  0  0  0  3  0  0  0  0  0  0
  -21.9990   -4.8490   22.5540 C   0  0  0  0  0  0  0  0  0  0  0  0
  -22.4330   -4.2950   21.3960 F   0  0  0  0  0  0  0  0  0  0  0  0
  -21.2890   -3.8490   26.0120 F   0  0  0  0  0  0  0  0  0  0  0  0
  -22.7610  -13.5840   21.1510 C   0  0  0  0  0  0  0  0  0  0  0  0
  -22.0590  -12.8770   22.0280 N   0  0  0  0  0  0  0  0  0  0  0  0
  -22.3060  -14.6110   20.6500 O   0  0  0  0  0  0  0  0  0  0  0  0
  -22.4430  -12.0470   22.4560 H   0  0  0  0  0  0  0  0  0  0  0  0
  -21.1250  -13.1700   22.2760 H   0  0  0  0  0  0  0  0  0  0  0  0
  -25.3470  -15.2830   20.2870 N   0  0  0  0  0  0  0  0  0  0  0  0
  -24.5700  -15.9230   20.4180 H   0  0  0  0  0  0  0  0  0  0  0  0
  -26.1640  -15.7300   19.8940 H   0  0  0  0  0  0  0  0  0  0  0  0
  2  5  1  0
  3  1  1  0
  4  2  2  0
  4  6  1  0
  5 48  1  0
  5  1  2  0
  6  3  2  0
  7  6  1  0
  8 19  2  0
  9  7  1  0
  9 14  1  0
 10 18  1  0
 10 20  1  0
 11 17  1  0
 11 13  1  0
 12 18  1  0
 13 14  2  0
 13 12  1  0
 15  9  2  0
 16 15  1  0
 16 11  2  0
 17 10  1  0
 18  8  1  0
 20 22  2  0
 21 20  1  0
 23 21  1  0
 24 33  2  0
 24 29  1  0
 25 21  1  0
 25 29  1  0
 26 25  1  0
 27 28  1  0
 27 26  1  0
 28 24  1  0
 29 30  2  0
 30 31  1  0
 32 31  2  0
 33 32  1  0
 34  8  1  0
 34 35  1  0
 34 44  1  0
 35 38  1  0
 36 40  1  0
 36 35  1  0
 37 36  2  0
 40 39  1  0
 42 43  1  0
 42 40  1  0
 42 41  1  0
 44 47  1  1
 44 45  1  0
 46 44  1  0
 49 58  1  0
 49 48  2  0
 50 58  1  0
 51 56  1  0
 52 53  1  0
 52 51  1  0
 54 53  1  0
 54 63  1  0
 54 55  1  0
 56 50  1  0
 56 55  1  0
 57 50  2  0
 58 59  1  0
 60 61  2  0
 61 80  1  0
 62 61  1  0
 62 65  1  0
 63 64  1  0
 63 60  1  0
 64 62  2  0
 65 66  1  0
 66 67  2  0
 68 71  1  0
 68 67  1  0
 69 68  2  0
 70 69  1  0
 70 65  2  0
 71 72  1  0
 72 73  1  0
 73 74  2  0
 75 74  1  0
 75 79  1  0
 76 75  2  0
 77 72  2  0
 77 76  1  0
 78 77  1  0
 80 81  1  0
 81 84  1  0
 81 83  1  0
 82 80  2  0
 85 86  1  0
 85 60  1  0
 87 85  1  0
M  ISO  4   6 101   7 101  50 100  58 100
M  END
>  <TORSDO>  (84) 
F 18

>  <SCORE>  (84) 
-15.573

>  <name>  (84) 
83

>  <ligand_id>  (84) 
83

>  <original_smiles>  (84) 
[H]c1c([H])c([H])c2c(c1[H])C([H])([H])C([H])([H])C([H])([H])C2([H])N([H])C(=O)C1([H])N(C(=O)C([H])(N([H])C(=O)C([H])(N([H])C([H])([H])[H])C([H])([H])[H])C(C([H])([H])[H])(C([H])([H])[H])C([H])([H])[H])C([H])([H])c2c([H])c(Oc3c([H])c([H])c(C([H])([H])C([H])([H])N([H])C(=O)N4C([H])([H])C([H])([H])C([H])([H])C([H])(n5nc(-c6c([H])c([H])c(Oc7c([H])c([H])c(F)c([H])c7F)c([H])c6[H])c(C(=O)N([H])[H])c5N([H])[H])C4([H])[H])c([H])c3[H])c([H])c([H])c2C1([H])[H]

>  <smiles>  (84) 
[H]c1c([H])c([H])c2c(c1[H])C([H])([H])C([H])([H])C([H])([H])C2([H])N([H])C(=O)C1([H])N(C(=O)C([H])(N([H])C(=O)C([H])(N([H])C([H])([H])[H])C([H])([H])[H])C(C([H])([H])[H])(C([H])([H])[H])C([H])([H])[H])C([H])([H])c2c([H])c(Oc3c([H])c([H])c(C([H])([H])C([H])([H])N([H])C(=O)N4C([H])([H])C([H])([H])C([H])([H])C([H])(n5nc(-c6c([H])c([H])c(Oc7c([H])c([H])c(F)c([H])c7F)c([H])c6[H])c(C(=O)N([H])[H])c5N([H])[H])C4([H])[H])c([H])c3[H])c([H])c([H])c2C1([H])[H]

$$$$
84:0:0
     RDKit          3D

 85 92  0  0  1  0  0  0  0  0999 V2000
  -28.0950  -24.2860   19.8460 C   0  0  0  0  0  0  0  0  0  0  0  0
  -27.4190  -24.0120   18.8530 O   0  0  0  0  0  0  0  0  0  0  0  0
  -28.1830  -25.8830   20.3160 O   0  0  0  0  0  0  0  0  0  0  0  0
  -24.6430  -31.8480   23.1950 C   0  0  0  0  0  0  0  0  0  0  0  0
  -27.1960  -26.9890   20.1710 C   0  0  0  0  0  0  0  0  0  0  0  0
  -23.4420  -30.4440   21.5680 C   0  0  0  0  0  3  0  0  0  0  0  0
  -24.8880  -28.8500   20.1370 C   0  0  0  0  0  0  0  0  0  0  0  0
  -26.0070  -30.6650   21.4090 C   0  0  0  0  0  2  0  0  0  0  0  0
  -26.0750  -29.2580   20.7550 C   0  0  0  0  0  0  0  0  0  0  0  0
  -27.2190  -28.3440   20.7580 C   0  0  0  0  0  3  0  0  0  0  0  0
  -25.9770  -26.7350   19.4970 C   0  0  0  0  0  3  0  0  0  0  0  0
  -24.8620  -27.6070   19.4890 C   0  0  0  0  0  3  0  0  0  0  0  0
  -23.6640  -29.7630   20.1910 C   0  0  0  0  0  2  0  0  0  0  0  0
  -24.7180  -31.0120   22.1100 N   0  0  0  0  0  0  0  0  0  0  0  0
  -23.5550  -32.1370   23.7200 O   0  0  0  0  0  0  0  0  0  0  0  0
  -22.7560  -29.4480   22.5390 C   0  0  0  0  0  0  0  0  0  0  0  0
  -21.4260  -29.2840   22.4240 N   0  0  0  0  0  0  0  0  0  0  0  0
  -23.4290  -28.8240   23.3630 O   0  0  0  0  0  0  0  0  0  0  0  0
  -20.9370  -29.8370   21.7350 H   0  0  0  0  0  0  0  0  0  0  0  0
  -18.0480  -28.0700   22.9490 C   0  0  0  0  0  0  0  0  0  0  0  0
  -20.6080  -28.3490   23.2050 C   0  0  0  0  0  3  0  0  0  0  0  0
  -20.7140  -26.9120   22.6420 C   0  0  0  0  0  2  0  0  0  0  0  0
  -19.6110  -26.5770   21.6330 C   0  0  0  0  0  2  0  0  0  0  0  0
  -18.2300  -26.7170   22.2800 C   0  0  0  0  0  2  0  0  0  0  0  0
  -19.1630  -28.8420   23.3690 C   0  0  0  0  0  0  0  0  0  0  0  0
  -18.9360  -30.1050   23.9580 C   0  0  0  0  0  3  0  0  0  0  0  0
  -17.6290  -30.5960   24.1300 C   0  0  0  0  0  3  0  0  0  0  0  0
  -16.5280  -29.8220   23.7230 C   0  0  0  0  0  3  0  0  0  0  0  0
  -16.7380  -28.5600   23.1390 C   0  0  0  0  0  3  0  0  0  0  0  0
  -25.9160  -32.4940   23.8170 C   0  0  0  0  0  3  0  0  0  0  0  0
  -26.4400  -31.7250   25.0930 C   0  0  1  0  0  0  0  0  0  0  0  0
  -25.3520  -31.4870   26.1670 C   0  0  0  0  0  1  0  0  0  0  0  0
  -27.0240  -30.3470   24.7090 C   0  0  0  0  0  1  0  0  0  0  0  0
  -27.5910  -32.5230   25.7490 C   0  0  0  0  0  1  0  0  0  0  0  0
  -25.5940  -33.8890   24.1630 N   0  0  0  0  0  0  0  0  0  0  0  0
  -25.9090  -34.9580   23.4180 C   0  0  0  0  0  0  0  0  0  0  0  0
  -26.5660  -34.8730   22.3780 O   0  0  0  0  0  0  0  0  0  0  0  0
  -25.0060  -34.0280   24.9720 H   0  0  0  0  0  0  0  0  0  0  0  0
  -24.1600  -36.7460   23.1240 C   0  0  0  0  0  1  0  0  0  0  0  0
  -25.4210  -36.3390   23.9030 C   0  0  0  0  0  3  0  0  0  0  0  0
  -27.5670  -37.2330   24.6980 C   0  0  0  0  0  1  0  0  0  0  0  0
  -26.4430  -37.4020   23.7800 N   0  0  0  0  0  0  0  0  0  0  0  0
  -26.0330  -38.3170   23.9460 H   0  0  0  0  0  0  0  0  0  0  0  0
  -28.7950  -22.8810   20.5770 C   0  0  0  0  0  2  0  0  0  0  0  0
  -29.0840  -21.2400   19.9210 C   0  0  0  0  0  2  0  0  0  0  0  0
  -29.2270  -19.6010   20.6240 C   0  0  0  0  0  3  0  0  0  0  0  0
  -29.9130  -18.0770   19.9980 C   0  0  0  0  0  3  0  0  0  0  0  0
  -30.4650  -15.2250   20.2530 C   0  0  0  0  0  0  0  0  0  0  0  0
  -30.3990  -12.7980   19.3740 C   0  0  0  0  0  2  0  0  0  0  0  0
  -29.4770  -12.6450   18.1380 C   0  0  0  0  0  2  0  0  0  0  0  0
  -28.0230  -12.3950   18.5740 C   0  0  0  0  0  2  0  0  0  0  0  0
  -27.5880  -13.3450   19.7180 C   0  0  0  0  0  3  0  0  0  0  0  0
  -28.6390  -13.4540   20.8450 C   0  0  0  0  0  2  0  0  0  0  0  0
  -29.8850  -13.9300   20.2240 N   0  0  0  0  0  0  0  0  0  0  0  0
  -31.6660  -15.2350   19.9540 O   0  0  0  0  0  0  0  0  0  0  0  0
  -29.7160  -16.4840   20.4100 N   0  0  0  0  0  0  0  0  0  0  0  0
  -28.7680  -16.2900   20.7010 H   0  0  0  0  0  0  0  0  0  0  0  0
  -25.2110  -13.9100   20.4520 C   0  0  0  0  0  0  0  0  0  0  0  0
  -24.1500  -13.1340   20.8280 C   0  0  0  0  0  0  0  0  0  0  0  0
  -24.6200  -11.7850   20.8140 C   0  0  0  0  0  0  0  0  0  0  0  0
  -26.2570  -13.0340   20.2230 N   0  0  0  0  0  0  0  0  0  0  0  0
  -25.9130  -11.7500   20.5080 N   0  0  0  0  0  0  0  0  0  0  0  0
  -23.8950  -10.5230   21.0140 C   0  0  0  0  0  0  0  0  0  0  0  0
  -24.3340   -9.5580   21.9470 C   0  0  0  0  0  3  0  0  0  0  0  0
  -23.6060   -8.3630   22.1380 C   0  0  0  0  0  3  0  0  0  0  0  0
  -22.4250   -8.1240   21.3960 C   0  0  0  0  0  0  0  0  0  0  0  0
  -22.0050   -9.0790   20.4520 C   0  0  0  0  0  3  0  0  0  0  0  0
  -22.7330  -10.2640   20.2590 C   0  0  0  0  0  3  0  0  0  0  0  0
  -21.6690   -6.9820   21.4960 O   0  0  0  0  0  0  0  0  0  0  0  0
  -21.6430   -6.2340   22.6450 C   0  0  0  0  0  0  0  0  0  0  0  0
  -21.2620   -6.7880   23.8870 C   0  0  0  0  0  3  0  0  0  0  0  0
  -21.1820   -5.9670   25.0290 C   0  0  0  0  0  3  0  0  0  0  0  0
  -21.4730   -4.5940   24.9310 C   0  0  0  0  0  0  0  0  0  0  0  0
  -21.8470   -4.0390   23.6950 C   0  0  0  0  0  3  0  0  0  0  0  0
  -21.9280   -4.8570   22.5550 C   0  0  0  0  0  0  0  0  0  0  0  0
  -22.2680   -4.3130   21.3610 F   0  0  0  0  0  0  0  0  0  0  0  0
  -21.3900   -3.8030   26.0270 F   0  0  0  0  0  0  0  0  0  0  0  0
  -22.7510  -13.6110   21.0850 C   0  0  0  0  0  0  0  0  0  0  0  0
  -22.0210  -12.9280   21.9590 N   0  0  0  0  0  0  0  0  0  0  0  0
  -22.3140  -14.6260   20.5440 O   0  0  0  0  0  0  0  0  0  0  0  0
  -22.3880  -12.1080   22.4180 H   0  0  0  0  0  0  0  0  0  0  0  0
  -21.0820  -13.2310   22.1740 H   0  0  0  0  0  0  0  0  0  0  0  0
  -25.3680  -15.2790   20.2590 N   0  0  0  0  0  0  0  0  0  0  0  0
  -24.5940  -15.9270   20.3550 H   0  0  0  0  0  0  0  0  0  0  0  0
  -26.2040  -15.7140   19.8910 H   0  0  0  0  0  0  0  0  0  0  0  0
  1  3  1  0
  1 44  1  0
  2  1  2  0
  4 15  2  0
  5  3  1  0
  5 10  1  0
  6 14  1  0
  6 16  1  0
  7 13  1  0
  7  9  1  0
  8 14  1  0
  9 10  2  0
  9  8  1  0
 11  5  2  0
 12 11  1  0
 12  7  2  0
 13  6  1  0
 14  4  1  0
 16 18  2  0
 17 16  1  0
 19 17  1  0
 20 29  2  0
 20 25  1  0
 21 17  1  0
 21 25  1  0
 22 21  1  0
 23 24  1  0
 23 22  1  0
 24 20  1  0
 25 26  2  0
 26 27  1  0
 28 27  2  0
 29 28  1  0
 30  4  1  0
 30 35  1  0
 30 31  1  0
 31 34  1  1
 31 32  1  0
 33 31  1  0
 35 38  1  0
 36 40  1  0
 36 35  1  0
 37 36  2  0
 40 39  1  0
 42 40  1  0
 42 43  1  0
 42 41  1  0
 45 44  1  0
 45 46  1  0
 47 56  1  0
 47 46  2  0
 48 56  1  0
 49 54  1  0
 50 51  1  0
 50 49  1  0
 52 51  1  0
 52 61  1  0
 52 53  1  0
 54 48  1  0
 54 53  1  0
 55 48  2  0
 56 57  1  0
 58 59  2  0
 59 78  1  0
 60 59  1  0
 60 63  1  0
 61 58  1  0
 61 62  1  0
 62 60  2  0
 63 64  1  0
 64 65  2  0
 66 69  1  0
 66 65  1  0
 67 66  2  0
 68 67  1  0
 68 63  2  0
 69 70  1  0
 70 71  1  0
 71 72  2  0
 73 72  1  0
 73 77  1  0
 74 73  2  0
 75 70  2  0
 75 74  1  0
 76 75  1  0
 78 79  1  0
 79 82  1  0
 79 81  1  0
 80 78  2  0
 83 84  1  0
 83 58  1  0
 85 83  1  0
M  ISO  4   1 101   3 101  48 100  56 100
M  END
>  <TORSDO>  (85) 
F 20

>  <SCORE>  (85) 
-16.049

>  <name>  (85) 
84

>  <ligand_id>  (85) 
84

>  <original_smiles>  (85) 
[H]c1c([H])c([H])c2c(c1[H])C([H])([H])C([H])([H])C([H])([H])C2([H])N([H])C(=O)C1([H])N(C(=O)C([H])(N([H])C(=O)C([H])(N([H])C([H])([H])[H])C([H])([H])[H])C(C([H])([H])[H])(C([H])([H])[H])C([H])([H])[H])C([H])([H])c2c([H])c(OC(=O)C([H])([H])C([H])([H])C([H])([H])C([H])([H])N([H])C(=O)N3C([H])([H])C([H])([H])C([H])([H])C([H])(n4nc(-c5c([H])c([H])c(Oc6c([H])c([H])c(F)c([H])c6F)c([H])c5[H])c(C(=O)N([H])[H])c4N([H])[H])C3([H])[H])c([H])c([H])c2C1([H])[H]

>  <smiles>  (85) 
[H]c1c([H])c([H])c2c(c1[H])C([H])([H])C([H])([H])C([H])([H])C2([H])N([H])C(=O)C1([H])N(C(=O)C([H])(N([H])C(=O)C([H])(N([H])C([H])([H])[H])C([H])([H])[H])C(C([H])([H])[H])(C([H])([H])[H])C([H])([H])[H])C([H])([H])c2c([H])c(OC(=O)C([H])([H])C([H])([H])C([H])([H])C([H])([H])N([H])C(=O)N3C([H])([H])C([H])([H])C([H])([H])C([H])(n4nc(-c5c([H])c([H])c(Oc6c([H])c([H])c(F)c([H])c6F)c([H])c5[H])c(C(=O)N([H])[H])c4N([H])[H])C3([H])[H])c([H])c([H])c2C1([H])[H]

$$$$
85:0:0
     RDKit          3D

 88 96  0  0  1  0  0  0  0  0999 V2000
  -28.2700  -18.1960   20.5690 C   0  0  0  0  0  3  0  0  0  0  0  0
  -30.5440  -18.6580   20.1620 C   0  0  0  0  0  3  0  0  0  0  0  0
  -27.9690  -19.6050   20.5110 C   0  0  0  0  0  3  0  0  0  0  0  0
  -30.2360  -20.0970   20.1140 C   0  0  0  0  0  3  0  0  0  0  0  0
  -29.5660  -17.6210   20.3920 C   0  0  0  0  0  0  0  0  0  0  0  0
  -28.9130  -20.6520   20.2830 C   0  0  0  0  0  0  0  0  0  0  0  0
  -30.5640  -15.0240   20.2100 C   0  0  0  0  0  0  0  0  0  0  0  0
  -30.4770  -12.6790   19.2500 C   0  0  0  0  0  2  0  0  0  0  0  0
  -29.4990  -12.6500   18.0480 C   0  0  0  0  0  2  0  0  0  0  0  0
  -28.0470  -12.4370   18.5210 C   0  0  0  0  0  2  0  0  0  0  0  0
  -27.6750  -13.3480   19.7200 C   0  0  0  0  0  3  0  0  0  0  0  0
  -28.7640  -13.3150   20.8150 C   0  0  0  0  0  2  0  0  0  0  0  0
  -30.0230  -13.7410   20.1870 N   0  0  0  0  0  0  0  0  0  0  0  0
  -31.7370  -15.1720   19.8490 O   0  0  0  0  0  0  0  0  0  0  0  0
  -29.6830  -16.0950   20.4860 N   0  0  0  0  0  0  0  0  0  0  0  0
  -28.8050  -15.6890   20.7700 H   0  0  0  0  0  0  0  0  0  0  0  0
  -25.3170  -13.9250   20.5440 C   0  0  0  0  0  0  0  0  0  0  0  0
  -24.2620  -13.1460   20.9340 C   0  0  0  0  0  0  0  0  0  0  0  0
  -24.7190  -11.7940   20.8530 C   0  0  0  0  0  0  0  0  0  0  0  0
  -26.3480  -13.0470   20.2490 N   0  0  0  0  0  0  0  0  0  0  0  0
  -25.9980  -11.7600   20.4990 N   0  0  0  0  0  0  0  0  0  0  0  0
  -23.9930  -10.5300   21.0340 C   0  0  0  0  0  0  0  0  0  0  0  0
  -24.4280   -9.5560   21.9590 C   0  0  0  0  0  3  0  0  0  0  0  0
  -23.7020   -8.3560   22.1280 C   0  0  0  0  0  3  0  0  0  0  0  0
  -22.5270   -8.1240   21.3750 C   0  0  0  0  0  0  0  0  0  0  0  0
  -22.1100   -9.0890   20.4410 C   0  0  0  0  0  3  0  0  0  0  0  0
  -22.8370  -10.2790   20.2680 C   0  0  0  0  0  3  0  0  0  0  0  0
  -21.7730   -6.9790   21.4560 O   0  0  0  0  0  0  0  0  0  0  0  0
  -21.6880   -6.2530   22.6170 C   0  0  0  0  0  0  0  0  0  0  0  0
  -21.1540   -6.8030   23.8030 C   0  0  0  0  0  3  0  0  0  0  0  0
  -21.0220   -6.0010   24.9530 C   0  0  0  0  0  3  0  0  0  0  0  0
  -21.4140   -4.6490   24.9190 C   0  0  0  0  0  0  0  0  0  0  0  0
  -21.9400   -4.0980   23.7370 C   0  0  0  0  0  3  0  0  0  0  0  0
  -22.0740   -4.8980   22.5890 C   0  0  0  0  0  0  0  0  0  0  0  0
  -22.5620   -4.3560   21.4470 F   0  0  0  0  0  0  0  0  0  0  0  0
  -21.2790   -3.8750   26.0220 F   0  0  0  0  0  0  0  0  0  0  0  0
  -22.8760  -13.6220   21.2610 C   0  0  0  0  0  0  0  0  0  0  0  0
  -22.1760  -12.9110   22.1370 N   0  0  0  0  0  0  0  0  0  0  0  0
  -22.4260  -14.6590   20.7750 O   0  0  0  0  0  0  0  0  0  0  0  0
  -22.5530  -12.0730   22.5520 H   0  0  0  0  0  0  0  0  0  0  0  0
  -21.2460  -13.2120   22.3990 H   0  0  0  0  0  0  0  0  0  0  0  0
  -25.4790  -15.2980   20.3870 N   0  0  0  0  0  0  0  0  0  0  0  0
  -24.6990  -15.9360   20.5080 H   0  0  0  0  0  0  0  0  0  0  0  0
  -26.2670  -15.7220   19.9170 H   0  0  0  0  0  0  0  0  0  0  0  0
  -28.3850  -22.0170   20.2260 O   0  0  0  0  0  0  0  0  0  0  0  0
  -29.0060  -23.4170   20.2140 C   0  0  0  0  0  3  0  0  0  0  0  0
  -28.0130  -24.7620   20.0050 C   0  0  0  0  0  3  0  0  0  0  0  0
  -28.2930  -26.2800   20.1940 O   0  0  0  0  0  0  0  0  0  0  0  0
  -24.6160  -31.8830   23.2510 C   0  0  0  0  0  0  0  0  0  0  0  0
  -27.2250  -27.2480   20.1450 C   0  0  0  0  0  0  0  0  0  0  0  0
  -23.4230  -30.5100   21.5880 C   0  0  0  0  0  3  0  0  0  0  0  0
  -24.8820  -28.9690   20.1390 C   0  0  0  0  0  0  0  0  0  0  0  0
  -25.9760  -30.7940   21.4300 C   0  0  0  0  0  2  0  0  0  0  0  0
  -26.0590  -29.4160   20.7540 C   0  0  0  0  0  0  0  0  0  0  0  0
  -27.2310  -28.5720   20.7390 C   0  0  0  0  0  3  0  0  0  0  0  0
  -26.0180  -26.9000   19.4960 C   0  0  0  0  0  3  0  0  0  0  0  0
  -24.8750  -27.7250   19.4950 C   0  0  0  0  0  3  0  0  0  0  0  0
  -23.6490  -29.8570   20.1990 C   0  0  0  0  0  2  0  0  0  0  0  0
  -24.6910  -31.0830   22.1440 N   0  0  0  0  0  0  0  0  0  0  0  0
  -23.5270  -32.1530   23.7830 O   0  0  0  0  0  0  0  0  0  0  0  0
  -22.7510  -29.4810   22.5320 C   0  0  0  0  0  0  0  0  0  0  0  0
  -21.4240  -29.3020   22.3970 N   0  0  0  0  0  0  0  0  0  0  0  0
  -23.4240  -28.8480   23.3490 O   0  0  0  0  0  0  0  0  0  0  0  0
  -20.9370  -29.8650   21.7140 H   0  0  0  0  0  0  0  0  0  0  0  0
  -18.0440  -28.1000   22.8940 C   0  0  0  0  0  0  0  0  0  0  0  0
  -20.6060  -28.3490   23.1520 C   0  0  0  0  0  3  0  0  0  0  0  0
  -20.6990  -26.9300   22.5440 C   0  0  0  0  0  2  0  0  0  0  0  0
  -19.5900  -26.6350   21.5290 C   0  0  0  0  0  2  0  0  0  0  0  0
  -18.2130  -26.7680   22.1850 C   0  0  0  0  0  2  0  0  0  0  0  0
  -19.1680  -28.8500   23.3340 C   0  0  0  0  0  0  0  0  0  0  0  0
  -18.9540  -30.0990   23.9590 C   0  0  0  0  0  3  0  0  0  0  0  0
  -17.6520  -30.5970   24.1490 C   0  0  0  0  0  3  0  0  0  0  0  0
  -16.5430  -29.8440   23.7240 C   0  0  0  0  0  3  0  0  0  0  0  0
  -16.7410  -28.5970   23.1030 C   0  0  0  0  0  3  0  0  0  0  0  0
  -25.8900  -32.5140   23.8890 C   0  0  0  0  0  3  0  0  0  0  0  0
  -26.3890  -31.7410   25.1720 C   0  0  1  0  0  0  0  0  0  0  0  0
  -25.2800  -31.5020   26.2240 C   0  0  0  0  0  1  0  0  0  0  0  0
  -26.9790  -30.3650   24.7900 C   0  0  0  0  0  1  0  0  0  0  0  0
  -27.5300  -32.5350   25.8510 C   0  0  0  0  0  1  0  0  0  0  0  0
  -25.5790  -33.9130   24.2220 N   0  0  0  0  0  0  0  0  0  0  0  0
  -25.8850  -34.9680   23.4560 C   0  0  0  0  0  0  0  0  0  0  0  0
  -26.5270  -34.8660   22.4060 O   0  0  0  0  0  0  0  0  0  0  0  0
  -25.0080  -34.0650   25.0400 H   0  0  0  0  0  0  0  0  0  0  0  0
  -24.1320  -36.7490   23.1580 C   0  0  0  0  0  1  0  0  0  0  0  0
  -25.4060  -36.3550   23.9250 C   0  0  0  0  0  3  0  0  0  0  0  0
  -27.5520  -37.2720   24.6870 C   0  0  0  0  0  1  0  0  0  0  0  0
  -26.4250  -37.4160   23.7700 N   0  0  0  0  0  0  0  0  0  0  0  0
  -26.0150  -38.3350   23.9150 H   0  0  0  0  0  0  0  0  0  0  0  0
  2  5  1  0
  3  1  1  0
  4  2  2  0
  4  6  1  0
  5 15  1  0
  5  1  2  0
  6  3  2  0
  7 15  1  0
  8 13  1  0
  9 10  1  0
  9  8  1  0
 11 10  1  0
 11 20  1  0
 11 12  1  0
 13  7  1  0
 13 12  1  0
 14  7  2  0
 15 16  1  0
 17 18  2  0
 18 37  1  0
 19 18  1  0
 19 22  1  0
 20 21  1  0
 20 17  1  0
 21 19  2  0
 22 23  1  0
 23 24  2  0
 25 28  1  0
 25 24  1  0
 26 25  2  0
 27 26  1  0
 27 22  2  0
 28 29  1  0
 29 30  1  0
 30 31  2  0
 32 31  1  0
 32 36  1  0
 33 32  2  0
 34 29  2  0
 34 33  1  0
 35 34  1  0
 37 38  1  0
 38 41  1  0
 38 40  1  0
 39 37  2  0
 42 43  1  0
 42 17  1  0
 44 42  1  0
 45  6  1  0
 46 45  1  0
 47 48  1  0
 47 46  2  0
 49 60  2  0
 50 48  1  0
 50 55  1  0
 51 59  1  0
 51 61  1  0
 52 58  1  0
 52 54  1  0
 53 59  1  0
 54 53  1  0
 55 54  2  0
 56 50  2  0
 57 56  1  0
 57 52  2  0
 58 51  1  0
 59 49  1  0
 61 63  2  0
 62 61  1  0
 64 62  1  0
 65 74  2  0
 65 70  1  0
 66 62  1  0
 66 70  1  0
 67 66  1  0
 68 69  1  0
 68 67  1  0
 69 65  1  0
 70 71  2  0
 71 72  1  0
 73 72  2  0
 74 73  1  0
 75 49  1  0
 75 80  1  0
 75 76  1  0
 76 79  1  1
 76 77  1  0
 78 76  1  0
 80 83  1  0
 81 85  1  0
 81 80  1  0
 82 81  2  0
 85 84  1  0
 87 88  1  0
 87 85  1  0
 87 86  1  0
M  ISO  4   7 100  15 100  47 101  48 101
M  END
>  <TORSDO>  (86) 
F 19

>  <SCORE>  (86) 
-14.020

>  <name>  (86) 
85

>  <ligand_id>  (86) 
85

>  <original_smiles>  (86) 
[H]c1c([H])c([H])c2c(c1[H])C([H])([H])C([H])([H])C([H])([H])C2([H])N([H])C(=O)C1([H])N(C(=O)C([H])(N([H])C(=O)C([H])(N([H])C([H])([H])[H])C([H])([H])[H])C(C([H])([H])[H])(C([H])([H])[H])C([H])([H])[H])C([H])([H])c2c([H])c(OC([H])([H])C([H])([H])Oc3c([H])c([H])c(N([H])C(=O)N4C([H])([H])C([H])([H])C([H])([H])C([H])(n5nc(-c6c([H])c([H])c(Oc7c([H])c([H])c(F)c([H])c7F)c([H])c6[H])c(C(=O)N([H])[H])c5N([H])[H])C4([H])[H])c([H])c3[H])c([H])c([H])c2C1([H])[H]

>  <smiles>  (86) 
[H]c1c([H])c([H])c2c(c1[H])C([H])([H])C([H])([H])C([H])([H])C2([H])N([H])C(=O)C1([H])N(C(=O)C([H])(N([H])C(=O)C([H])(N([H])C([H])([H])[H])C([H])([H])[H])C(C([H])([H])[H])(C([H])([H])[H])C([H])([H])[H])C([H])([H])c2c([H])c(OC([H])([H])C([H])([H])Oc3c([H])c([H])c(N([H])C(=O)N4C([H])([H])C([H])([H])C([H])([H])C([H])(n5nc(-c6c([H])c([H])c(Oc7c([H])c([H])c(F)c([H])c7F)c([H])c6[H])c(C(=O)N([H])[H])c5N([H])[H])C4([H])[H])c([H])c3[H])c([H])c([H])c2C1([H])[H]

$$$$
86:0:0
     RDKit          3D

 89 97  0  0  1  0  0  0  0  0999 V2000
  -30.1540  -21.7130   20.3380 C   0  0  0  0  0  2  0  0  0  0  0  0
  -31.1670  -19.3310   20.2330 C   0  0  0  0  0  3  0  0  0  0  0  0
  -28.7980  -19.4440   20.6040 C   0  0  0  0  0  3  0  0  0  0  0  0
  -31.1360  -17.9070   20.3180 C   0  0  0  0  0  3  0  0  0  0  0  0
  -28.7640  -18.0160   20.6900 C   0  0  0  0  0  3  0  0  0  0  0  0
  -30.0070  -20.1440   20.3720 C   0  0  0  0  0  0  0  0  0  0  0  0
  -29.9260  -17.2010   20.5510 C   0  0  0  0  0  0  0  0  0  0  0  0
  -30.5930  -14.6890   20.2930 C   0  0  0  0  0  0  0  0  0  0  0  0
  -30.3610  -12.4600   19.2140 C   0  0  0  0  0  2  0  0  0  0  0  0
  -29.3960  -12.6020   18.0150 C   0  0  0  0  0  2  0  0  0  0  0  0
  -27.9300  -12.4370   18.4690 C   0  0  0  0  0  2  0  0  0  0  0  0
  -27.5920  -13.2860   19.7230 C   0  0  0  0  0  3  0  0  0  0  0  0
  -28.6710  -13.1220   20.8170 C   0  0  0  0  0  2  0  0  0  0  0  0
  -29.9720  -13.4680   20.2200 N   0  0  0  0  0  0  0  0  0  0  0  0
  -31.7490  -14.8400   19.8870 O   0  0  0  0  0  0  0  0  0  0  0  0
  -29.7980  -15.7440   20.6710 N   0  0  0  0  0  0  0  0  0  0  0  0
  -28.8920  -15.4340   20.9850 H   0  0  0  0  0  0  0  0  0  0  0  0
  -25.2120  -13.8790   20.4900 C   0  0  0  0  0  0  0  0  0  0  0  0
  -24.1520  -13.1030   20.8730 C   0  0  0  0  0  0  0  0  0  0  0  0
  -24.6120  -11.7510   20.8170 C   0  0  0  0  0  0  0  0  0  0  0  0
  -26.2520  -13.0010   20.2280 N   0  0  0  0  0  0  0  0  0  0  0  0
  -25.8970  -11.7150   20.4840 N   0  0  0  0  0  0  0  0  0  0  0  0
  -23.8870  -10.4870   21.0060 C   0  0  0  0  0  0  0  0  0  0  0  0
  -24.3180   -9.5230   21.9450 C   0  0  0  0  0  3  0  0  0  0  0  0
  -23.5930   -8.3250   22.1220 C   0  0  0  0  0  3  0  0  0  0  0  0
  -22.4270   -8.0810   21.3590 C   0  0  0  0  0  0  0  0  0  0  0  0
  -22.0160   -9.0330   20.4110 C   0  0  0  0  0  3  0  0  0  0  0  0
  -22.7410  -10.2240   20.2320 C   0  0  0  0  0  3  0  0  0  0  0  0
  -21.6760   -6.9330   21.4450 O   0  0  0  0  0  0  0  0  0  0  0  0
  -21.5950   -6.2100   22.6090 C   0  0  0  0  0  0  0  0  0  0  0  0
  -21.1100   -6.7780   23.8070 C   0  0  0  0  0  3  0  0  0  0  0  0
  -20.9790   -5.9800   24.9610 C   0  0  0  0  0  3  0  0  0  0  0  0
  -21.3230   -4.6170   24.9180 C   0  0  0  0  0  0  0  0  0  0  0  0
  -21.8010   -4.0480   23.7240 C   0  0  0  0  0  3  0  0  0  0  0  0
  -21.9330   -4.8420   22.5720 C   0  0  0  0  0  0  0  0  0  0  0  0
  -22.3750   -4.2850   21.4180 F   0  0  0  0  0  0  0  0  0  0  0  0
  -21.1890   -3.8480   26.0240 F   0  0  0  0  0  0  0  0  0  0  0  0
  -22.7590  -13.5780   21.1740 C   0  0  0  0  0  0  0  0  0  0  0  0
  -22.0470  -12.8750   22.0480 N   0  0  0  0  0  0  0  0  0  0  0  0
  -22.3130  -14.6080   20.6700 O   0  0  0  0  0  0  0  0  0  0  0  0
  -22.4200  -12.0420   22.4800 H   0  0  0  0  0  0  0  0  0  0  0  0
  -21.1130  -13.1750   22.2910 H   0  0  0  0  0  0  0  0  0  0  0  0
  -25.3710  -15.2510   20.3180 N   0  0  0  0  0  0  0  0  0  0  0  0
  -24.5920  -15.8920   20.4170 H   0  0  0  0  0  0  0  0  0  0  0  0
  -26.1880  -15.6840   19.9090 H   0  0  0  0  0  0  0  0  0  0  0  0
  -28.9870  -22.5910   20.2260 O   0  0  0  0  0  0  0  0  0  0  0  0
  -29.2900  -24.0350   20.2950 C   0  0  0  0  0  3  0  0  0  0  0  0
  -28.1050  -25.0540   20.0050 C   0  0  0  0  0  3  0  0  0  0  0  0
  -28.3170  -26.5120   20.1850 O   0  0  0  0  0  0  0  0  0  0  0  0
  -24.5830  -31.8820   23.2400 C   0  0  0  0  0  0  0  0  0  0  0  0
  -27.1930  -27.3540   20.1440 C   0  0  0  0  0  0  0  0  0  0  0  0
  -23.3760  -30.4970   21.5930 C   0  0  0  0  0  3  0  0  0  0  0  0
  -24.8230  -28.9600   20.1520 C   0  0  0  0  0  0  0  0  0  0  0  0
  -25.9140  -30.8200   21.4050 C   0  0  0  0  0  2  0  0  0  0  0  0
  -25.9940  -29.4470   20.7480 C   0  0  0  0  0  0  0  0  0  0  0  0
  -27.1820  -28.6570   20.7310 C   0  0  0  0  0  3  0  0  0  0  0  0
  -25.9930  -26.9200   19.5290 C   0  0  0  0  0  3  0  0  0  0  0  0
  -24.8260  -27.7020   19.5340 C   0  0  0  0  0  3  0  0  0  0  0  0
  -23.5860  -29.8310   20.2070 C   0  0  0  0  0  2  0  0  0  0  0  0
  -24.6430  -31.0820   22.1360 N   0  0  0  0  0  0  0  0  0  0  0  0
  -23.5000  -32.1570   23.7780 O   0  0  0  0  0  0  0  0  0  0  0  0
  -22.7160  -29.4710   22.5450 C   0  0  0  0  0  0  0  0  0  0  0  0
  -21.3900  -29.2930   22.4150 N   0  0  0  0  0  0  0  0  0  0  0  0
  -23.3950  -28.8400   23.3590 O   0  0  0  0  0  0  0  0  0  0  0  0
  -20.9010  -29.8530   21.7300 H   0  0  0  0  0  0  0  0  0  0  0  0
  -18.0110  -28.1010   22.9090 C   0  0  0  0  0  0  0  0  0  0  0  0
  -20.5700  -28.3520   23.1780 C   0  0  0  0  0  3  0  0  0  0  0  0
  -20.6670  -26.9240   22.5900 C   0  0  0  0  0  2  0  0  0  0  0  0
  -19.5630  -26.6130   21.5750 C   0  0  0  0  0  2  0  0  0  0  0  0
  -18.1830  -26.7570   22.2220 C   0  0  0  0  0  2  0  0  0  0  0  0
  -19.1320  -28.8560   23.3440 C   0  0  0  0  0  0  0  0  0  0  0  0
  -18.9160  -30.1160   23.9450 C   0  0  0  0  0  3  0  0  0  0  0  0
  -17.6130  -30.6170   24.1170 C   0  0  0  0  0  3  0  0  0  0  0  0
  -16.5060  -29.8590   23.6990 C   0  0  0  0  0  3  0  0  0  0  0  0
  -16.7070  -28.6020   23.0990 C   0  0  0  0  0  3  0  0  0  0  0  0
  -25.8670  -32.5080   23.8660 C   0  0  0  0  0  3  0  0  0  0  0  0
  -26.3790  -31.7300   25.1390 C   0  0  1  0  0  0  0  0  0  0  0  0
  -25.2830  -31.4890   26.2030 C   0  0  0  0  0  1  0  0  0  0  0  0
  -26.9610  -30.3530   24.7410 C   0  0  0  0  0  1  0  0  0  0  0  0
  -27.5290  -32.5200   25.8070 C   0  0  0  0  0  1  0  0  0  0  0  0
  -25.5600  -33.9060   24.2030 N   0  0  0  0  0  0  0  0  0  0  0  0
  -25.8660  -34.9590   23.4340 C   0  0  0  0  0  0  0  0  0  0  0  0
  -26.5060  -34.8570   22.3840 O   0  0  0  0  0  0  0  0  0  0  0  0
  -24.9890  -34.0590   25.0210 H   0  0  0  0  0  0  0  0  0  0  0  0
  -24.1080  -36.7330   23.1440 C   0  0  0  0  0  1  0  0  0  0  0  0
  -25.3870  -36.3460   23.9040 C   0  0  0  0  0  3  0  0  0  0  0  0
  -27.5430  -37.2580   24.6420 C   0  0  0  0  0  1  0  0  0  0  0  0
  -26.4040  -37.4080   23.7390 N   0  0  0  0  0  0  0  0  0  0  0  0
  -25.9950  -38.3250   23.8930 H   0  0  0  0  0  0  0  0  0  0  0  0
  1  6  1  0
  2  4  2  0
  2  6  1  0
  3  5  1  0
  4  7  1  0
  6  3  2  0
  7 16  1  0
  7  5  2  0
  8 16  1  0
  9 14  1  0
 10 11  1  0
 10  9  1  0
 12 11  1  0
 12 21  1  0
 12 13  1  0
 14  8  1  0
 14 13  1  0
 15  8  2  0
 16 17  1  0
 18 19  2  0
 19 38  1  0
 20 19  1  0
 20 23  1  0
 21 22  1  0
 21 18  1  0
 22 20  2  0
 23 24  1  0
 24 25  2  0
 26 29  1  0
 26 25  1  0
 27 26  2  0
 28 27  1  0
 28 23  2  0
 29 30  1  0
 30 31  1  0
 31 32  2  0
 33 32  1  0
 33 37  1  0
 34 33  2  0
 35 30  2  0
 35 34  1  0
 36 35  1  0
 38 39  1  0
 39 42  1  0
 39 41  1  0
 40 38  2  0
 43 44  1  0
 43 18  1  0
 45 43  1  0
 46 47  1  0
 46  1  1  0
 48 49  1  0
 48 47  2  0
 50 61  2  0
 51 49  1  0
 51 56  1  0
 52 60  1  0
 52 62  1  0
 53 59  1  0
 53 55  1  0
 54 60  1  0
 55 54  1  0
 56 55  2  0
 57 58  1  0
 57 51  2  0
 58 53  2  0
 59 52  1  0
 60 50  1  0
 62 64  2  0
 63 62  1  0
 65 63  1  0
 66 75  2  0
 66 71  1  0
 67 63  1  0
 67 71  1  0
 68 67  1  0
 69 70  1  0
 69 68  1  0
 70 66  1  0
 71 72  2  0
 72 73  1  0
 74 73  2  0
 75 74  1  0
 76 50  1  0
 76 81  1  0
 76 77  1  0
 77 80  1  1
 77 78  1  0
 79 77  1  0
 81 84  1  0
 82 86  1  0
 82 81  1  0
 83 82  2  0
 86 85  1  0
 88 89  1  0
 88 86  1  0
 88 87  1  0
M  ISO  4   8 100  16 100  48 101  49 101
M  END
>  <TORSDO>  (87) 
F 20

>  <SCORE>  (87) 
-13.802

>  <name>  (87) 
86

>  <ligand_id>  (87) 
86

>  <original_smiles>  (87) 
[H]c1c([H])c([H])c2c(c1[H])C([H])([H])C([H])([H])C([H])([H])C2([H])N([H])C(=O)C1([H])N(C(=O)C([H])(N([H])C(=O)C([H])(N([H])C([H])([H])[H])C([H])([H])[H])C(C([H])([H])[H])(C([H])([H])[H])C([H])([H])[H])C([H])([H])c2c([H])c(OC([H])([H])C([H])([H])OC([H])([H])c3c([H])c([H])c(N([H])C(=O)N4C([H])([H])C([H])([H])C([H])([H])C([H])(n5nc(-c6c([H])c([H])c(Oc7c([H])c([H])c(F)c([H])c7F)c([H])c6[H])c(C(=O)N([H])[H])c5N([H])[H])C4([H])[H])c([H])c3[H])c([H])c([H])c2C1([H])[H]

>  <smiles>  (87) 
[H]c1c([H])c([H])c2c(c1[H])C([H])([H])C([H])([H])C([H])([H])C2([H])N([H])C(=O)C1([H])N(C(=O)C([H])(N([H])C(=O)C([H])(N([H])C([H])([H])[H])C([H])([H])[H])C(C([H])([H])[H])(C([H])([H])[H])C([H])([H])[H])C([H])([H])c2c([H])c(OC([H])([H])C([H])([H])OC([H])([H])c3c([H])c([H])c(N([H])C(=O)N4C([H])([H])C([H])([H])C([H])([H])C([H])(n5nc(-c6c([H])c([H])c(Oc7c([H])c([H])c(F)c([H])c7F)c([H])c6[H])c(C(=O)N([H])[H])c5N([H])[H])C4([H])[H])c([H])c3[H])c([H])c([H])c2C1([H])[H]

$$$$
87:0:0
     RDKit          3D

 86 94  0  0  1  0  0  0  0  0999 V2000
  -31.1700  -20.9320   20.4430 C   0  0  0  0  0  3  0  0  0  0  0  0
  -30.2760  -22.0570   20.4060 C   0  0  0  0  0  3  0  0  0  0  0  0
  -30.8430  -19.5330   20.3890 C   0  0  0  0  0  3  0  0  0  0  0  0
  -28.5970  -20.3530   20.2540 C   0  0  0  0  0  3  0  0  0  0  0  0
  -28.8660  -21.9710   20.3050 C   0  0  0  0  0  0  0  0  0  0  0  0
  -29.5320  -19.0050   20.2890 C   0  0  0  0  0  0  0  0  0  0  0  0
  -30.1920  -15.8550   20.2000 C   0  0  0  0  0  0  0  0  0  0  0  0
  -30.3410  -13.2850   19.3630 C   0  0  0  0  0  2  0  0  0  0  0  0
  -29.4560  -12.8160   18.1690 C   0  0  0  0  0  2  0  0  0  0  0  0
  -28.0490  -12.4220   18.6400 C   0  0  0  0  0  2  0  0  0  0  0  0
  -27.5220  -13.4180   19.6950 C   0  0  0  0  0  3  0  0  0  0  0  0
  -28.5540  -13.7840   20.7920 C   0  0  0  0  0  2  0  0  0  0  0  0
  -29.6910  -14.4650   20.1150 N   0  0  0  0  0  0  0  0  0  0  0  0
  -31.4300  -15.7760   20.0400 O   0  0  0  0  0  0  0  0  0  0  0  0
  -29.4130  -17.2430   20.2600 N   0  0  0  0  0  0  0  0  0  0  0  0
  -28.4360  -16.9880   20.2920 H   0  0  0  0  0  0  0  0  0  0  0  0
  -25.1650  -13.9080   20.4880 C   0  0  0  0  0  0  0  0  0  0  0  0
  -24.1200  -13.1120   20.8580 C   0  0  0  0  0  0  0  0  0  0  0  0
  -24.6060  -11.7690   20.8140 C   0  0  0  0  0  0  0  0  0  0  0  0
  -26.2190  -13.0530   20.2290 N   0  0  0  0  0  0  0  0  0  0  0  0
  -25.8990  -11.7570   20.4910 N   0  0  0  0  0  0  0  0  0  0  0  0
  -23.8950  -10.4960   20.9990 C   0  0  0  0  0  0  0  0  0  0  0  0
  -24.3210   -9.5410   21.9480 C   0  0  0  0  0  3  0  0  0  0  0  0
  -23.6030   -8.3370   22.1240 C   0  0  0  0  0  3  0  0  0  0  0  0
  -22.4450   -8.0810   21.3530 C   0  0  0  0  0  0  0  0  0  0  0  0
  -22.0370   -9.0260   20.3930 C   0  0  0  0  0  3  0  0  0  0  0  0
  -22.7560  -10.2200   20.2160 C   0  0  0  0  0  3  0  0  0  0  0  0
  -21.7000   -6.9290   21.4370 O   0  0  0  0  0  0  0  0  0  0  0  0
  -21.6170   -6.2090   22.6020 C   0  0  0  0  0  0  0  0  0  0  0  0
  -21.1080   -6.7740   23.7910 C   0  0  0  0  0  3  0  0  0  0  0  0
  -20.9740   -5.9790   24.9470 C   0  0  0  0  0  3  0  0  0  0  0  0
  -21.3410   -4.6210   24.9140 C   0  0  0  0  0  0  0  0  0  0  0  0
  -21.8440   -4.0550   23.7290 C   0  0  0  0  0  3  0  0  0  0  0  0
  -21.9780   -4.8470   22.5760 C   0  0  0  0  0  0  0  0  0  0  0  0
  -22.4430   -4.2910   21.4310 F   0  0  0  0  0  0  0  0  0  0  0  0
  -21.2070   -3.8540   26.0220 F   0  0  0  0  0  0  0  0  0  0  0  0
  -22.7170  -13.5690   21.1330 C   0  0  0  0  0  0  0  0  0  0  0  0
  -22.0030  -12.8670   22.0040 N   0  0  0  0  0  0  0  0  0  0  0  0
  -22.2660  -14.5890   20.6110 O   0  0  0  0  0  0  0  0  0  0  0  0
  -22.3830  -12.0440   22.4480 H   0  0  0  0  0  0  0  0  0  0  0  0
  -21.0620  -13.1570   22.2300 H   0  0  0  0  0  0  0  0  0  0  0  0
  -25.3030  -15.2820   20.3150 N   0  0  0  0  0  0  0  0  0  0  0  0
  -24.5210  -15.9180   20.4310 H   0  0  0  0  0  0  0  0  0  0  0  0
  -26.1290  -15.7320   19.9470 H   0  0  0  0  0  0  0  0  0  0  0  0
  -27.9040  -23.6280   20.2440 C   0  0  0  0  0  2  0  0  0  0  0  0
  -28.1320  -25.4200   20.3730 O   0  0  0  0  0  0  0  0  0  0  0  0
  -24.6750  -31.8720   23.2620 C   0  0  0  0  0  0  0  0  0  0  0  0
  -27.1850  -26.6880   20.3150 C   0  0  0  0  0  0  0  0  0  0  0  0
  -23.4950  -30.4780   21.6190 C   0  0  0  0  0  3  0  0  0  0  0  0
  -24.9430  -28.7980   20.2290 C   0  0  0  0  0  0  0  0  0  0  0  0
  -26.0790  -30.5740   21.5310 C   0  0  0  0  0  2  0  0  0  0  0  0
  -26.1380  -29.1300   20.8780 C   0  0  0  0  0  0  0  0  0  0  0  0
  -27.2390  -28.1060   20.8840 C   0  0  0  0  0  3  0  0  0  0  0  0
  -25.9550  -26.5930   19.6070 C   0  0  0  0  0  3  0  0  0  0  0  0
  -24.8960  -27.5580   19.5690 C   0  0  0  0  0  3  0  0  0  0  0  0
  -23.7460  -29.7690   20.2550 C   0  0  0  0  0  2  0  0  0  0  0  0
  -24.7750  -31.0100   22.1900 N   0  0  0  0  0  0  0  0  0  0  0  0
  -23.5770  -32.1850   23.7580 O   0  0  0  0  0  0  0  0  0  0  0  0
  -22.7530  -29.5170   22.5880 C   0  0  0  0  0  0  0  0  0  0  0  0
  -21.4200  -29.3750   22.4510 N   0  0  0  0  0  0  0  0  0  0  0  0
  -23.3920  -28.8940   23.4400 O   0  0  0  0  0  0  0  0  0  0  0  0
  -20.9530  -29.9280   21.7440 H   0  0  0  0  0  0  0  0  0  0  0  0
  -18.0190  -28.1820   22.9320 C   0  0  0  0  0  0  0  0  0  0  0  0
  -20.5780  -28.4480   23.2190 C   0  0  0  0  0  3  0  0  0  0  0  0
  -20.6800  -27.0100   22.6570 C   0  0  0  0  0  2  0  0  0  0  0  0
  -19.5890  -26.6850   21.6310 C   0  0  0  0  0  2  0  0  0  0  0  0
  -18.2010  -26.8320   22.2590 C   0  0  0  0  0  2  0  0  0  0  0  0
  -19.1330  -28.9480   23.3680 C   0  0  0  0  0  0  0  0  0  0  0  0
  -18.9060  -30.2070   23.9630 C   0  0  0  0  0  3  0  0  0  0  0  0
  -17.5980  -30.7030   24.1240 C   0  0  0  0  0  3  0  0  0  0  0  0
  -16.4980  -29.9370   23.7000 C   0  0  0  0  0  3  0  0  0  0  0  0
  -16.7090  -28.6770   23.1110 C   0  0  0  0  0  3  0  0  0  0  0  0
  -25.9330  -32.5200   23.9170 C   0  0  0  0  0  3  0  0  0  0  0  0
  -25.6150  -33.9250   24.2440 N   0  0  0  0  0  0  0  0  0  0  0  0
  -25.9320  -34.9870   23.4900 C   0  0  0  0  0  0  0  0  0  0  0  0
  -26.5750  -34.8860   22.4430 O   0  0  0  0  0  0  0  0  0  0  0  0
  -25.0360  -34.0750   25.0570 H   0  0  0  0  0  0  0  0  0  0  0  0
  -24.1820  -36.7830   23.2210 C   0  0  0  0  0  1  0  0  0  0  0  0
  -25.4640  -36.3790   23.9670 C   0  0  0  0  0  3  0  0  0  0  0  0
  -27.6290  -37.2890   24.6910 C   0  0  0  0  0  1  0  0  0  0  0  0
  -26.4850  -37.4380   23.7970 N   0  0  0  0  0  0  0  0  0  0  0  0
  -26.0790  -38.3570   23.9500 H   0  0  0  0  0  0  0  0  0  0  0  0
  -26.4050  -31.7660   25.2230 C   0  0  1  0  0  0  0  0  0  0  0  0
  -25.2830  -31.5600   26.2680 C   0  0  0  0  0  1  0  0  0  0  0  0
  -26.9830  -30.3740   24.8840 C   0  0  0  0  0  1  0  0  0  0  0  0
  -27.5480  -32.5590   25.9010 C   0  0  0  0  0  1  0  0  0  0  0  0
  2  1  1  0
  3  1  2  0
  4  6  2  0
  4  5  1  0
  5  2  2  0
  6  3  1  0
  7 15  1  0
  8 13  1  0
  9 10  1  0
  9  8  1  0
 11 10  1  0
 11 20  1  0
 11 12  1  0
 13  7  1  0
 13 12  1  0
 14  7  2  0
 15  6  1  0
 15 16  1  0
 17 18  2  0
 18 37  1  0
 19 18  1  0
 19 22  1  0
 20 17  1  0
 20 21  1  0
 21 19  2  0
 22 23  1  0
 23 24  2  0
 25 28  1  0
 25 24  1  0
 26 25  2  0
 27 26  1  0
 27 22  2  0
 28 29  1  0
 29 30  1  0
 30 31  2  0
 32 31  1  0
 32 36  1  0
 33 32  2  0
 34 29  2  0
 34 33  1  0
 35 34  1  0
 37 38  1  0
 38 41  1  0
 38 40  1  0
 39 37  2  0
 42 43  1  0
 42 17  1  0
 44 42  1  0
 45  5  1  0
 45 46  1  0
 47 58  2  0
 48 46  1  0
 48 53  1  0
 49 57  1  0
 49 59  1  0
 50 56  1  0
 50 52  1  0
 51 57  1  0
 52 53  2  0
 52 51  1  0
 54 48  2  0
 55 54  1  0
 55 50  2  0
 56 49  1  0
 57 47  1  0
 59 61  2  0
 60 59  1  0
 62 60  1  0
 63 72  2  0
 63 68  1  0
 64 60  1  0
 64 68  1  0
 65 64  1  0
 66 67  1  0
 66 65  1  0
 67 63  1  0
 68 69  2  0
 69 70  1  0
 71 70  2  0
 72 71  1  0
 73 47  1  0
 73 74  1  0
 73 83  1  0
 74 77  1  0
 75 79  1  0
 75 74  1  0
 76 75  2  0
 79 78  1  0
 81 82  1  0
 81 79  1  0
 81 80  1  0
 83 86  1  1
 83 84  1  0
 85 83  1  0
M  ISO  4   7 100  15 100  45 101  46 101
M  END
>  <TORSDO>  (88) 
F 17

>  <SCORE>  (88) 
-16.516

>  <name>  (88) 
87

>  <ligand_id>  (88) 
87

>  <original_smiles>  (88) 
[H]c1c([H])c(N([H])C(=O)N2C([H])([H])C([H])([H])C([H])([H])C([H])(n3nc(-c4c([H])c([H])c(Oc5c([H])c([H])c(F)c([H])c5F)c([H])c4[H])c(C(=O)N([H])[H])c3N([H])[H])C2([H])[H])c([H])c(C([H])([H])Oc2c([H])c([H])c3c(c2[H])C([H])([H])N(C(=O)C([H])(N([H])C(=O)C([H])(N([H])C([H])([H])[H])C([H])([H])[H])C(C([H])([H])[H])(C([H])([H])[H])C([H])([H])[H])C([H])(C(=O)N([H])C2([H])c4c([H])c([H])c([H])c([H])c4C([H])([H])C([H])([H])C2([H])[H])C3([H])[H])c1[H]

>  <smiles>  (88) 
[H]c1c([H])c(N([H])C(=O)N2C([H])([H])C([H])([H])C([H])([H])C([H])(n3nc(-c4c([H])c([H])c(Oc5c([H])c([H])c(F)c([H])c5F)c([H])c4[H])c(C(=O)N([H])[H])c3N([H])[H])C2([H])[H])c([H])c(C([H])([H])Oc2c([H])c([H])c3c(c2[H])C([H])([H])N(C(=O)C([H])(N([H])C(=O)C([H])(N([H])C([H])([H])[H])C([H])([H])[H])C(C([H])([H])[H])(C([H])([H])[H])C([H])([H])[H])C([H])(C(=O)N([H])C2([H])c4c([H])c([H])c([H])c([H])c4C([H])([H])C([H])([H])C2([H])[H])C3([H])[H])c1[H]

$$$$
88:0:0
     RDKit          3D

 98107  0  0  1  0  0  0  0  0999 V2000
  -29.5860  -21.1150   21.3890 C   0  0  0  0  0  0  0  0  0  0  0  0
  -30.0220  -22.3350   20.9970 N   0  0  0  0  0  0  0  0  0  0  0  0
  -28.4140  -20.9540   21.7450 O   0  0  0  0  0  0  0  0  0  0  0  0
  -30.9480  -22.5790   20.6710 H   0  0  0  0  0  0  0  0  0  0  0  0
  -30.9250  -15.1140   20.2080 C   0  0  0  0  0  0  0  0  0  0  0  0
  -30.5950  -12.8860   19.1480 C   0  0  0  0  0  2  0  0  0  0  0  0
  -29.6190  -12.9310   17.9550 C   0  0  0  0  0  2  0  0  0  0  0  0
  -28.1660  -12.7520   18.4370 C   0  0  0  0  0  2  0  0  0  0  0  0
  -27.8200  -13.6470   19.6510 C   0  0  0  0  0  3  0  0  0  0  0  0
  -28.9230  -13.6090   20.7420 C   0  0  0  0  0  2  0  0  0  0  0  0
  -30.2040  -13.9450   20.1050 N   0  0  0  0  0  0  0  0  0  0  0  0
  -32.0990  -15.1370   19.8320 O   0  0  0  0  0  0  0  0  0  0  0  0
  -32.7300  -18.9240   21.8960 C   0  0  0  0  0  3  0  0  0  0  0  0
  -31.8770  -20.0540   21.8210 C   0  0  0  0  0  3  0  0  0  0  0  0
  -32.2820  -17.6360   21.5160 C   0  0  0  0  0  3  0  0  0  0  0  0
  -30.5390  -19.9260   21.3770 C   0  0  0  0  0  0  0  0  0  0  0  0
  -30.1200  -18.6120   21.0150 C   0  0  0  0  0  0  0  0  0  0  0  0
  -30.9600  -17.4850   21.0460 C   0  0  0  0  0  0  0  0  0  0  0  0
  -28.7730  -18.2110   20.5110 C   0  0  0  0  0  2  0  0  0  0  0  0
  -29.0020  -16.7750   19.9860 C   0  0  0  0  0  3  0  0  0  0  0  0
  -30.3020  -16.3080   20.5310 N   0  0  0  0  0  0  0  0  0  0  0  0
  -25.4720  -14.2590   20.5030 C   0  0  0  0  0  0  0  0  0  0  0  0
  -24.4140  -13.4800   20.8820 C   0  0  0  0  0  0  0  0  0  0  0  0
  -24.8660  -12.1300   20.7870 C   0  0  0  0  0  0  0  0  0  0  0  0
  -26.4980  -13.3750   20.1930 N   0  0  0  0  0  0  0  0  0  0  0  0
  -26.1420  -12.0920   20.4320 N   0  0  0  0  0  0  0  0  0  0  0  0
  -24.1420  -10.8660   20.9500 C   0  0  0  0  0  0  0  0  0  0  0  0
  -24.5640   -9.8930   21.8820 C   0  0  0  0  0  3  0  0  0  0  0  0
  -23.8430   -8.6910   22.0340 C   0  0  0  0  0  3  0  0  0  0  0  0
  -22.6860   -8.4540   21.2520 C   0  0  0  0  0  0  0  0  0  0  0  0
  -22.2860   -9.4160   20.3090 C   0  0  0  0  0  3  0  0  0  0  0  0
  -23.0090  -10.6110   20.1550 C   0  0  0  0  0  3  0  0  0  0  0  0
  -21.9360   -7.3050   21.3160 O   0  0  0  0  0  0  0  0  0  0  0  0
  -21.8000   -6.6000   22.4830 C   0  0  0  0  0  0  0  0  0  0  0  0
  -21.2410   -7.1780   23.6430 C   0  0  0  0  0  3  0  0  0  0  0  0
  -21.0560   -6.3960   24.8010 C   0  0  0  0  0  3  0  0  0  0  0  0
  -21.4200   -5.0370   24.7980 C   0  0  0  0  0  0  0  0  0  0  0  0
  -21.9730   -4.4580   23.6430 C   0  0  0  0  0  3  0  0  0  0  0  0
  -22.1600   -5.2370   22.4880 C   0  0  0  0  0  0  0  0  0  0  0  0
  -22.6740   -4.6700   21.3690 F   0  0  0  0  0  0  0  0  0  0  0  0
  -21.2340   -4.2830   25.9070 F   0  0  0  0  0  0  0  0  0  0  0  0
  -23.0290  -13.9550   21.2190 C   0  0  0  0  0  0  0  0  0  0  0  0
  -22.3320  -13.2380   22.0930 N   0  0  0  0  0  0  0  0  0  0  0  0
  -22.5770  -14.9960   20.7430 O   0  0  0  0  0  0  0  0  0  0  0  0
  -22.7130  -12.3950   22.4980 H   0  0  0  0  0  0  0  0  0  0  0  0
  -21.4060  -13.5370   22.3610 H   0  0  0  0  0  0  0  0  0  0  0  0
  -25.6280  -15.6350   20.3730 N   0  0  0  0  0  0  0  0  0  0  0  0
  -24.8630  -16.2770   20.5450 H   0  0  0  0  0  0  0  0  0  0  0  0
  -26.4640  -16.0950   20.0430 H   0  0  0  0  0  0  0  0  0  0  0  0
  -29.0030  -16.8020   18.4330 C   0  0  0  0  0  2  0  0  0  0  0  0
  -28.5900  -18.9820   17.2170 C   0  0  0  0  0  2  0  0  0  0  0  0
  -28.1250  -17.8870   17.8390 C   0  0  0  0  0  3  0  0  0  0  0  0
  -29.3720  -24.6870   20.5730 C   0  0  0  0  0  0  0  0  0  0  0  0
  -29.1270  -23.4570   21.0790 N   0  0  0  0  0  0  0  0  0  0  0  0
  -30.4090  -24.9510   19.9560 O   0  0  0  0  0  0  0  0  0  0  0  0
  -28.2830  -23.2040   21.5800 H   0  0  0  0  0  0  0  0  0  0  0  0
  -28.2770  -25.7630   20.8220 C   0  0  0  0  0  2  0  0  0  0  0  0
  -28.4210  -26.9970   20.0600 O   0  0  0  0  0  0  0  0  0  0  0  0
  -24.6380  -32.0600   23.4040 C   0  0  0  0  0  0  0  0  0  0  0  0
  -27.2770  -27.7820   20.0730 C   0  0  0  0  0  0  0  0  0  0  0  0
  -23.4160  -30.7100   21.7330 C   0  0  0  0  0  3  0  0  0  0  0  0
  -24.8610  -29.2690   20.1970 C   0  0  0  0  0  0  0  0  0  0  0  0
  -25.9310  -31.1210   21.4880 C   0  0  0  0  0  2  0  0  0  0  0  0
  -26.0270  -29.7800   20.7810 C   0  0  0  0  0  0  0  0  0  0  0  0
  -27.2410  -29.0470   20.7130 C   0  0  0  0  0  3  0  0  0  0  0  0
  -26.0950  -27.3070   19.4610 C   0  0  0  0  0  3  0  0  0  0  0  0
  -24.8920  -28.0350   19.5280 C   0  0  0  0  0  3  0  0  0  0  0  0
  -23.6020  -30.1000   20.3180 C   0  0  0  0  0  2  0  0  0  0  0  0
  -24.6810  -31.3090   22.2660 N   0  0  0  0  0  0  0  0  0  0  0  0
  -23.5670  -32.2860   23.9830 O   0  0  0  0  0  0  0  0  0  0  0  0
  -22.8070  -29.6340   22.6630 C   0  0  0  0  0  0  0  0  0  0  0  0
  -21.4930  -29.3920   22.5230 N   0  0  0  0  0  0  0  0  0  0  0  0
  -23.5150  -29.0220   23.4660 O   0  0  0  0  0  0  0  0  0  0  0  0
  -20.9800  -29.9410   21.8470 H   0  0  0  0  0  0  0  0  0  0  0  0
  -18.1860  -27.9930   22.9370 C   0  0  0  0  0  0  0  0  0  0  0  0
  -20.7180  -28.3960   23.2640 C   0  0  0  0  0  3  0  0  0  0  0  0
  -20.9160  -26.9830   22.6700 C   0  0  0  0  0  2  0  0  0  0  0  0
  -19.8550  -26.6120   21.6290 C   0  0  0  0  0  2  0  0  0  0  0  0
  -18.4550  -26.6660   22.2470 C   0  0  0  0  0  2  0  0  0  0  0  0
  -19.2490  -28.8120   23.4010 C   0  0  0  0  0  0  0  0  0  0  0  0
  -18.9450  -30.0520   24.0040 C   0  0  0  0  0  3  0  0  0  0  0  0
  -17.6110  -30.4740   24.1490 C   0  0  0  0  0  3  0  0  0  0  0  0
  -16.5610  -29.6520   23.7040 C   0  0  0  0  0  3  0  0  0  0  0  0
  -16.8500  -28.4120   23.1030 C   0  0  0  0  0  3  0  0  0  0  0  0
  -25.9280  -32.6880   24.0180 C   0  0  0  0  0  3  0  0  0  0  0  0
  -26.4430  -31.9240   25.2990 C   0  0  1  0  0  0  0  0  0  0  0  0
  -25.3370  -31.6470   26.3440 C   0  0  0  0  0  1  0  0  0  0  0  0
  -27.0740  -30.5670   24.9080 C   0  0  0  0  0  1  0  0  0  0  0  0
  -27.5570  -32.7470   25.9870 C   0  0  0  0  0  1  0  0  0  0  0  0
  -25.6280  -34.0910   24.3350 N   0  0  0  0  0  0  0  0  0  0  0  0
  -25.9620  -35.1330   23.5620 C   0  0  0  0  0  0  0  0  0  0  0  0
  -26.6240  -35.0140   22.5260 O   0  0  0  0  0  0  0  0  0  0  0  0
  -25.0410  -34.2580   25.1380 H   0  0  0  0  0  0  0  0  0  0  0  0
  -24.2370  -36.9270   23.2030 C   0  0  0  0  0  1  0  0  0  0  0  0
  -25.4850  -36.5290   24.0060 C   0  0  0  0  0  3  0  0  0  0  0  0
  -27.6300  -37.4170   24.8050 C   0  0  0  0  0  1  0  0  0  0  0  0
  -26.5210  -37.5760   23.8680 N   0  0  0  0  0  0  0  0  0  0  0  0
  -26.1200  -38.5000   24.0050 H   0  0  0  0  0  0  0  0  0  0  0  0
  1  3  2  0
  2 54  1  0
  2  1  1  0
  4  2  1  0
  5 21  1  0
  6 11  1  0
  7  8  1  0
  7  6  1  0
  9  8  1  0
  9 25  1  0
  9 10  1  0
 11  5  1  0
 11 10  1  0
 12  5  2  0
 14 13  1  0
 15 13  2  0
 16  1  1  0
 16 14  2  0
 17 18  2  0
 17 16  1  0
 18 15  1  0
 19 17  1  0
 20 50  1  0
 20 19  1  0
 20 21  1  0
 21 18  1  0
 22 23  2  0
 23 42  1  0
 24 23  1  0
 24 27  1  0
 25 26  1  0
 25 22  1  0
 26 24  2  0
 27 28  1  0
 28 29  2  0
 30 33  1  0
 30 29  1  0
 31 30  2  0
 32 31  1  0
 32 27  2  0
 33 34  1  0
 34 39  2  0
 34 35  1  0
 35 36  2  0
 37 36  1  0
 37 41  1  0
 38 37  2  0
 39 38  1  0
 40 39  1  0
 42 43  1  0
 43 46  1  0
 43 45  1  0
 44 42  2  0
 47 22  1  0
 47 48  1  0
 49 47  1  0
 51 52  2  0
 52 50  1  0
 53 57  1  0
 53 54  1  0
 54 56  1  0
 55 53  2  0
 58 60  1  0
 58 57  1  0
 59 70  2  0
 60 65  1  0
 61 69  1  0
 61 71  1  0
 62 68  1  0
 62 64  1  0
 63 69  1  0
 64 63  1  0
 65 64  2  0
 66 67  1  0
 66 60  2  0
 67 62  2  0
 68 61  1  0
 69 59  1  0
 71 73  2  0
 72 71  1  0
 74 72  1  0
 75 84  2  0
 75 80  1  0
 76 72  1  0
 76 80  1  0
 77 76  1  0
 78 79  1  0
 78 77  1  0
 79 75  1  0
 80 81  2  0
 81 82  1  0
 83 82  2  0
 84 83  1  0
 85 59  1  0
 85 90  1  0
 85 86  1  0
 86 89  1  1
 86 87  1  0
 88 86  1  0
 90 93  1  0
 91 95  1  0
 91 90  1  0
 92 91  2  0
 95 94  1  0
 97 98  1  0
 97 95  1  0
 97 96  1  0
M  ISO  4   5 100  21 100  57 101  58 101
M  END
>  <TORSDO>  (89) 
F 20

>  <SCORE>  (89) 
-12.647

>  <name>  (89) 
88

>  <ligand_id>  (89) 
88

>  <original_smiles>  (89) 
[H]C([H])=C([H])C([H])([H])C1([H])N(C(=O)N2C([H])([H])C([H])([H])C([H])([H])C([H])(n3nc(-c4c([H])c([H])c(Oc5c([H])c([H])c(F)c([H])c5F)c([H])c4[H])c(C(=O)N([H])[H])c3N([H])[H])C2([H])[H])c2c([H])c([H])c([H])c(C(=O)N([H])N([H])C(=O)C([H])([H])Oc3c([H])c([H])c4c(c3[H])C([H])([H])N(C(=O)C([H])(N([H])C(=O)C([H])(N([H])C([H])([H])[H])C([H])([H])[H])C(C([H])([H])[H])(C([H])([H])[H])C([H])([H])[H])C([H])(C(=O)N([H])C3([H])c5c([H])c([H])c([H])c([H])c5C([H])([H])C([H])([H])C3([H])[H])C4([H])[H])c2C1([H])[H]

>  <smiles>  (89) 
[H]C([H])=C([H])C([H])([H])C1([H])N(C(=O)N2C([H])([H])C([H])([H])C([H])([H])C([H])(n3nc(-c4c([H])c([H])c(Oc5c([H])c([H])c(F)c([H])c5F)c([H])c4[H])c(C(=O)N([H])[H])c3N([H])[H])C2([H])[H])c2c([H])c([H])c([H])c(C(=O)N([H])N([H])C(=O)C([H])([H])Oc3c([H])c([H])c4c(c3[H])C([H])([H])N(C(=O)C([H])(N([H])C(=O)C([H])(N([H])C([H])([H])[H])C([H])([H])[H])C(C([H])([H])[H])(C([H])([H])[H])C([H])([H])[H])C([H])(C(=O)N([H])C3([H])c5c([H])c([H])c([H])c([H])c5C([H])([H])C([H])([H])C3([H])[H])C4([H])[H])c2C1([H])[H]

$$$$
89:0:0
     RDKit          3D

 87 95  0  0  1  0  0  0  0  0999 V2000
  -28.9390  -21.2050   17.9940 C   0  0  0  0  0  3  0  0  0  0  0  0
  -29.2130  -19.9730   18.6570 C   0  0  0  0  0  3  0  0  0  0  0  0
  -28.6620  -22.4480   18.6370 C   0  0  0  0  0  3  0  0  0  0  0  0
  -28.9330  -21.2290   20.6960 C   0  0  0  0  0  3  0  0  0  0  0  0
  -29.2580  -19.8410   20.0610 C   0  0  0  0  0  0  0  0  0  0  0  0
  -28.6150  -22.6060   20.0390 C   0  0  0  0  0  0  0  0  0  0  0  0
  -29.8030  -18.2760   20.6910 C   0  0  0  0  0  2  0  0  0  0  0  0
  -30.3880  -15.3430   20.2990 C   0  0  0  0  0  0  0  0  0  0  0  0
  -30.4000  -12.8810   19.4180 C   0  0  0  0  0  2  0  0  0  0  0  0
  -29.4870  -12.6140   18.1940 C   0  0  0  0  0  2  0  0  0  0  0  0
  -28.0420  -12.3250   18.6390 C   0  0  0  0  0  2  0  0  0  0  0  0
  -27.5720  -13.3030   19.7440 C   0  0  0  0  0  3  0  0  0  0  0  0
  -28.6160  -13.4960   20.8630 C   0  0  0  0  0  2  0  0  0  0  0  0
  -29.8260  -14.0310   20.2140 N   0  0  0  0  0  0  0  0  0  0  0  0
  -31.6220  -15.3240   20.1670 O   0  0  0  0  0  0  0  0  0  0  0  0
  -29.6180  -16.6300   20.3330 N   0  0  0  0  0  0  0  0  0  0  0  0
  -28.6350  -16.4140   20.2560 H   0  0  0  0  0  0  0  0  0  0  0  0
  -25.2010  -13.8510   20.4940 C   0  0  0  0  0  0  0  0  0  0  0  0
  -24.1410  -13.0710   20.8610 C   0  0  0  0  0  0  0  0  0  0  0  0
  -24.6140  -11.7230   20.8370 C   0  0  0  0  0  0  0  0  0  0  0  0
  -26.2470  -12.9800   20.2560 N   0  0  0  0  0  0  0  0  0  0  0  0
  -25.9070  -11.6930   20.5320 N   0  0  0  0  0  0  0  0  0  0  0  0
  -23.8900  -10.4580   21.0250 C   0  0  0  0  0  0  0  0  0  0  0  0
  -24.3180   -9.4930   21.9640 C   0  0  0  0  0  3  0  0  0  0  0  0
  -23.5900   -8.2960   22.1420 C   0  0  0  0  0  3  0  0  0  0  0  0
  -22.4220   -8.0550   21.3810 C   0  0  0  0  0  0  0  0  0  0  0  0
  -22.0140   -9.0090   20.4310 C   0  0  0  0  0  3  0  0  0  0  0  0
  -22.7420  -10.1970   20.2510 C   0  0  0  0  0  3  0  0  0  0  0  0
  -21.6670   -6.9100   21.4680 O   0  0  0  0  0  0  0  0  0  0  0  0
  -21.6120   -6.1720   22.6220 C   0  0  0  0  0  0  0  0  0  0  0  0
  -21.1730   -6.7290   23.8430 C   0  0  0  0  0  3  0  0  0  0  0  0
  -21.0640   -5.9160   24.9890 C   0  0  0  0  0  3  0  0  0  0  0  0
  -21.3830   -4.5480   24.9160 C   0  0  0  0  0  0  0  0  0  0  0  0
  -21.8150   -3.9900   23.7000 C   0  0  0  0  0  3  0  0  0  0  0  0
  -21.9250   -4.7990   22.5560 C   0  0  0  0  0  0  0  0  0  0  0  0
  -22.3220   -4.2510   21.3810 F   0  0  0  0  0  0  0  0  0  0  0  0
  -21.2720   -3.7650   26.0150 F   0  0  0  0  0  0  0  0  0  0  0  0
  -22.7390  -13.5430   21.1150 C   0  0  0  0  0  0  0  0  0  0  0  0
  -22.0050  -12.8480   21.9770 N   0  0  0  0  0  0  0  0  0  0  0  0
  -22.3050  -14.5660   20.5870 O   0  0  0  0  0  0  0  0  0  0  0  0
  -22.3710  -12.0210   22.4260 H   0  0  0  0  0  0  0  0  0  0  0  0
  -21.0640  -13.1470   22.1910 H   0  0  0  0  0  0  0  0  0  0  0  0
  -25.3540  -15.2220   20.3120 N   0  0  0  0  0  0  0  0  0  0  0  0
  -24.5790  -15.8670   20.4130 H   0  0  0  0  0  0  0  0  0  0  0  0
  -26.1890  -15.6640   19.9490 H   0  0  0  0  0  0  0  0  0  0  0  0
  -28.0290  -24.1710   20.6330 C   0  0  0  0  0  2  0  0  0  0  0  0
  -28.2310  -25.7760   20.2190 O   0  0  0  0  0  0  0  0  0  0  0  0
  -24.6410  -31.8200   23.1860 C   0  0  0  0  0  0  0  0  0  0  0  0
  -27.2150  -26.8870   20.2340 C   0  0  0  0  0  0  0  0  0  0  0  0
  -23.4580  -30.4100   21.5550 C   0  0  0  0  0  3  0  0  0  0  0  0
  -24.9170  -28.7870   20.1590 C   0  0  0  0  0  0  0  0  0  0  0  0
  -26.0280  -30.6150   21.4210 C   0  0  0  0  0  2  0  0  0  0  0  0
  -26.1040  -29.1930   20.7790 C   0  0  0  0  0  0  0  0  0  0  0  0
  -27.2510  -28.2680   20.7830 C   0  0  0  0  0  3  0  0  0  0  0  0
  -25.9920  -26.6400   19.5700 C   0  0  0  0  0  3  0  0  0  0  0  0
  -24.8870  -27.5310   19.5330 C   0  0  0  0  0  3  0  0  0  0  0  0
  -23.6990  -29.7120   20.1870 C   0  0  0  0  0  2  0  0  0  0  0  0
  -24.7310  -30.9760   22.1070 N   0  0  0  0  0  0  0  0  0  0  0  0
  -23.5460  -32.1130   23.6990 O   0  0  0  0  0  0  0  0  0  0  0  0
  -22.7580  -29.4220   22.5260 C   0  0  0  0  0  0  0  0  0  0  0  0
  -21.4260  -29.2660   22.4040 N   0  0  0  0  0  0  0  0  0  0  0  0
  -23.4200  -28.7970   23.3560 O   0  0  0  0  0  0  0  0  0  0  0  0
  -20.9440  -29.8210   21.7120 H   0  0  0  0  0  0  0  0  0  0  0  0
  -18.0370  -28.0790   22.9330 C   0  0  0  0  0  0  0  0  0  0  0  0
  -20.6000  -28.3340   23.1810 C   0  0  0  0  0  3  0  0  0  0  0  0
  -20.6900  -26.9010   22.6070 C   0  0  0  0  0  2  0  0  0  0  0  0
  -19.5810  -26.5830   21.5990 C   0  0  0  0  0  2  0  0  0  0  0  0
  -18.2040  -26.7310   22.2520 C   0  0  0  0  0  2  0  0  0  0  0  0
  -19.1610  -28.8390   23.3550 C   0  0  0  0  0  0  0  0  0  0  0  0
  -18.9480  -30.0980   23.9560 C   0  0  0  0  0  3  0  0  0  0  0  0
  -17.6450  -30.5990   24.1370 C   0  0  0  0  0  3  0  0  0  0  0  0
  -16.5360  -29.8380   23.7290 C   0  0  0  0  0  3  0  0  0  0  0  0
  -16.7330  -28.5800   23.1330 C   0  0  0  0  0  3  0  0  0  0  0  0
  -25.9040  -32.4730   23.8220 C   0  0  0  0  0  3  0  0  0  0  0  0
  -25.5790  -33.8730   24.1490 N   0  0  0  0  0  0  0  0  0  0  0  0
  -25.9110  -34.9350   23.4030 C   0  0  0  0  0  0  0  0  0  0  0  0
  -26.5860  -34.8380   22.3750 O   0  0  0  0  0  0  0  0  0  0  0  0
  -24.9780  -34.0200   24.9470 H   0  0  0  0  0  0  0  0  0  0  0  0
  -24.1810  -36.7330   23.0580 C   0  0  0  0  0  1  0  0  0  0  0  0
  -25.4230  -36.3220   23.8680 C   0  0  0  0  0  3  0  0  0  0  0  0
  -27.5530  -37.2130   24.7060 C   0  0  0  0  0  1  0  0  0  0  0  0
  -26.4530  -37.3790   23.7600 N   0  0  0  0  0  0  0  0  0  0  0  0
  -26.0440  -38.2980   23.9080 H   0  0  0  0  0  0  0  0  0  0  0  0
  -26.4060  -31.7190   25.1170 C   0  0  1  0  0  0  0  0  0  0  0  0
  -25.3000  -31.4950   26.1750 C   0  0  0  0  0  1  0  0  0  0  0  0
  -26.9930  -30.3350   24.7580 C   0  0  0  0  0  1  0  0  0  0  0  0
  -27.5480  -32.5220   25.7810 C   0  0  0  0  0  1  0  0  0  0  0  0
  1  3  2  0
  1  2  1  0
  2  5  2  0
  3  6  1  0
  5  7  1  0
  5  4  1  0
  6 46  1  0
  6  4  2  0
  8 16  1  0
  9 14  1  0
 10 11  1  0
 10  9  1  0
 12 11  1  0
 12 21  1  0
 12 13  1  0
 14  8  1  0
 14 13  1  0
 15  8  2  0
 16  7  1  0
 17 16  1  0
 18 19  2  0
 19 38  1  0
 20 19  1  0
 20 23  1  0
 21 18  1  0
 21 22  1  0
 22 20  2  0
 23 24  1  0
 24 25  2  0
 26 29  1  0
 26 25  1  0
 27 26  2  0
 28 27  1  0
 28 23  2  0
 29 30  1  0
 30 31  1  0
 31 32  2  0
 33 32  1  0
 33 37  1  0
 34 33  2  0
 35 30  2  0
 35 34  1  0
 36 35  1  0
 38 39  1  0
 39 42  1  0
 39 41  1  0
 40 38  2  0
 43 44  1  0
 43 18  1  0
 45 43  1  0
 47 49  1  0
 47 46  1  0
 48 59  2  0
 49 54  1  0
 50 58  1  0
 50 60  1  0
 51 57  1  0
 51 53  1  0
 52 58  1  0
 53 54  2  0
 53 52  1  0
 55 49  2  0
 56 55  1  0
 56 51  2  0
 57 50  1  0
 58 48  1  0
 60 62  2  0
 61 60  1  0
 63 61  1  0
 64 73  2  0
 64 69  1  0
 65 61  1  0
 65 69  1  0
 66 65  1  0
 67 68  1  0
 67 66  1  0
 68 64  1  0
 69 70  2  0
 70 71  1  0
 72 71  2  0
 73 72  1  0
 74 48  1  0
 74 75  1  0
 74 84  1  0
 75 78  1  0
 76 80  1  0
 76 75  1  0
 77 76  2  0
 80 79  1  0
 82 80  1  0
 82 83  1  0
 82 81  1  0
 84 87  1  1
 84 85  1  0
 86 84  1  0
M  ISO  4   8 100  16 100  46 101  47 101
M  END
>  <TORSDO>  (90) 
F 18

>  <SCORE>  (90) 
-16.530

>  <name>  (90) 
89

>  <ligand_id>  (90) 
89

>  <original_smiles>  (90) 
[H]c1c([H])c(C([H])([H])Oc2c([H])c([H])c3c(c2[H])C([H])([H])N(C(=O)C([H])(N([H])C(=O)C([H])(N([H])C([H])([H])[H])C([H])([H])[H])C(C([H])([H])[H])(C([H])([H])[H])C([H])([H])[H])C([H])(C(=O)N([H])C2([H])c4c([H])c([H])c([H])c([H])c4C([H])([H])C([H])([H])C2([H])[H])C3([H])[H])c([H])c(C([H])([H])N([H])C(=O)N2C([H])([H])C([H])([H])C([H])([H])C([H])(n3nc(-c4c([H])c([H])c(Oc5c([H])c([H])c(F)c([H])c5F)c([H])c4[H])c(C(=O)N([H])[H])c3N([H])[H])C2([H])[H])c1[H]

>  <smiles>  (90) 
[H]c1c([H])c(C([H])([H])Oc2c([H])c([H])c3c(c2[H])C([H])([H])N(C(=O)C([H])(N([H])C(=O)C([H])(N([H])C([H])([H])[H])C([H])([H])[H])C(C([H])([H])[H])(C([H])([H])[H])C([H])([H])[H])C([H])(C(=O)N([H])C2([H])c4c([H])c([H])c([H])c([H])c4C([H])([H])C([H])([H])C2([H])[H])C3([H])[H])c([H])c(C([H])([H])N([H])C(=O)N2C([H])([H])C([H])([H])C([H])([H])C([H])(n3nc(-c4c([H])c([H])c(Oc5c([H])c([H])c(F)c([H])c5F)c([H])c4[H])c(C(=O)N([H])[H])c3N([H])[H])C2([H])[H])c1[H]

$$$$
90:0:0
     RDKit          3D

 90 98  0  0  1  0  0  0  0  0999 V2000
  -27.3720  -20.1670   18.7270 C   0  0  0  0  0  3  0  0  0  0  0  0
  -28.1480  -19.0820   19.1970 C   0  0  0  0  0  3  0  0  0  0  0  0
  -27.5760  -21.5070   19.1340 C   0  0  0  0  0  3  0  0  0  0  0  0
  -29.3880  -20.7070   20.5130 C   0  0  0  0  0  3  0  0  0  0  0  0
  -29.1970  -19.2600   20.1200 C   0  0  0  0  0  0  0  0  0  0  0  0
  -28.5990  -21.8980   20.0340 C   0  0  0  0  0  0  0  0  0  0  0  0
  -28.1390  -24.6310   19.7060 C   0  0  0  0  0  0  0  0  0  0  0  0
  -28.7040  -23.4210   20.3860 N   0  0  0  0  0  0  0  0  0  0  0  0
  -27.6590  -24.5170   18.5780 O   0  0  0  0  0  0  0  0  0  0  0  0
  -29.2160  -23.6510   21.2300 H   0  0  0  0  0  0  0  0  0  0  0  0
  -28.1860  -26.0790   20.3510 O   0  0  0  0  0  0  0  0  0  0  0  0
  -24.5880  -31.8950   23.2520 C   0  0  0  0  0  0  0  0  0  0  0  0
  -27.1800  -27.1370   20.2160 C   0  0  0  0  0  0  0  0  0  0  0  0
  -23.3980  -30.5000   21.6070 C   0  0  0  0  0  3  0  0  0  0  0  0
  -24.8570  -28.9350   20.1750 C   0  0  0  0  0  0  0  0  0  0  0  0
  -25.9580  -30.7480   21.4660 C   0  0  0  0  0  2  0  0  0  0  0  0
  -26.0350  -29.3550   20.8070 C   0  0  0  0  0  0  0  0  0  0  0  0
  -27.1920  -28.4730   20.8150 C   0  0  0  0  0  3  0  0  0  0  0  0
  -25.9640  -26.8460   19.5470 C   0  0  0  0  0  3  0  0  0  0  0  0
  -24.8420  -27.6970   19.5260 C   0  0  0  0  0  3  0  0  0  0  0  0
  -23.6300  -29.8350   20.2240 C   0  0  0  0  0  2  0  0  0  0  0  0
  -24.6660  -31.0700   22.1630 N   0  0  0  0  0  0  0  0  0  0  0  0
  -23.5000  -32.1810   23.7740 O   0  0  0  0  0  0  0  0  0  0  0  0
  -22.7150  -29.4900   22.5650 C   0  0  0  0  0  0  0  0  0  0  0  0
  -21.3890  -29.3060   22.4280 N   0  0  0  0  0  0  0  0  0  0  0  0
  -23.3820  -28.8740   23.4010 O   0  0  0  0  0  0  0  0  0  0  0  0
  -20.9060  -29.8580   21.7310 H   0  0  0  0  0  0  0  0  0  0  0  0
  -18.0100  -28.0800   22.9250 C   0  0  0  0  0  0  0  0  0  0  0  0
  -20.5670  -28.3680   23.1980 C   0  0  0  0  0  3  0  0  0  0  0  0
  -20.6790  -26.9320   22.6340 C   0  0  0  0  0  2  0  0  0  0  0  0
  -19.5860  -26.5950   21.6150 C   0  0  0  0  0  2  0  0  0  0  0  0
  -18.1990  -26.7310   22.2500 C   0  0  0  0  0  2  0  0  0  0  0  0
  -19.1220  -28.8550   23.3540 C   0  0  0  0  0  0  0  0  0  0  0  0
  -18.8910  -30.1150   23.9470 C   0  0  0  0  0  3  0  0  0  0  0  0
  -17.5810  -30.6040   24.1100 C   0  0  0  0  0  3  0  0  0  0  0  0
  -16.4850  -29.8310   23.6920 C   0  0  0  0  0  3  0  0  0  0  0  0
  -16.6990  -28.5690   23.1090 C   0  0  0  0  0  3  0  0  0  0  0  0
  -25.8620  -32.5350   23.8830 C   0  0  0  0  0  3  0  0  0  0  0  0
  -25.5530  -33.9400   24.1900 N   0  0  0  0  0  0  0  0  0  0  0  0
  -25.8890  -34.9850   23.4210 C   0  0  0  0  0  0  0  0  0  0  0  0
  -26.5630  -34.8670   22.3940 O   0  0  0  0  0  0  0  0  0  0  0  0
  -24.9650  -34.1060   24.9940 H   0  0  0  0  0  0  0  0  0  0  0  0
  -24.1780  -36.7880   23.0270 C   0  0  0  0  0  1  0  0  0  0  0  0
  -25.4030  -36.3810   23.8600 C   0  0  0  0  0  3  0  0  0  0  0  0
  -27.5250  -37.2600   24.7260 C   0  0  0  0  0  1  0  0  0  0  0  0
  -26.4450  -37.4270   23.7580 N   0  0  0  0  0  0  0  0  0  0  0  0
  -26.0390  -38.3500   23.8930 H   0  0  0  0  0  0  0  0  0  0  0  0
  -26.3610  -31.7870   25.1800 C   0  0  1  0  0  0  0  0  0  0  0  0
  -25.2560  -31.5630   26.2390 C   0  0  0  0  0  1  0  0  0  0  0  0
  -26.9590  -30.4030   24.8310 C   0  0  0  0  0  1  0  0  0  0  0  0
  -27.5030  -32.5960   25.8420 C   0  0  0  0  0  1  0  0  0  0  0  0
  -30.0710  -17.8970   20.5580 C   0  0  0  0  0  2  0  0  0  0  0  0
  -30.4860  -15.1270   20.3240 C   0  0  0  0  0  0  0  0  0  0  0  0
  -30.4140  -12.7530   19.3850 C   0  0  0  0  0  2  0  0  0  0  0  0
  -29.4800  -12.6400   18.1600 C   0  0  0  0  0  2  0  0  0  0  0  0
  -28.0250  -12.3960   18.6080 C   0  0  0  0  0  2  0  0  0  0  0  0
  -27.5950  -13.3290   19.7700 C   0  0  0  0  0  3  0  0  0  0  0  0
  -28.6550  -13.4060   20.8860 C   0  0  0  0  0  2  0  0  0  0  0  0
  -29.9000  -13.8570   20.2530 N   0  0  0  0  0  0  0  0  0  0  0  0
  -31.7040  -15.1680   20.1240 O   0  0  0  0  0  0  0  0  0  0  0  0
  -29.7080  -16.3380   20.4130 N   0  0  0  0  0  0  0  0  0  0  0  0
  -28.7160  -16.1580   20.4460 H   0  0  0  0  0  0  0  0  0  0  0  0
  -25.2200  -13.8650   20.5450 C   0  0  0  0  0  0  0  0  0  0  0  0
  -24.1670  -13.0730   20.9150 C   0  0  0  0  0  0  0  0  0  0  0  0
  -24.6480  -11.7290   20.8690 C   0  0  0  0  0  0  0  0  0  0  0  0
  -26.2710  -13.0020   20.2850 N   0  0  0  0  0  0  0  0  0  0  0  0
  -25.9380  -11.7110   20.5500 N   0  0  0  0  0  0  0  0  0  0  0  0
  -23.9350  -10.4560   21.0500 C   0  0  0  0  0  0  0  0  0  0  0  0
  -24.3710   -9.4920   21.9850 C   0  0  0  0  0  3  0  0  0  0  0  0
  -23.6550   -8.2880   22.1570 C   0  0  0  0  0  3  0  0  0  0  0  0
  -22.4900   -8.0380   21.3920 C   0  0  0  0  0  0  0  0  0  0  0  0
  -22.0720   -8.9920   20.4490 C   0  0  0  0  0  3  0  0  0  0  0  0
  -22.7880  -10.1890   20.2760 C   0  0  0  0  0  3  0  0  0  0  0  0
  -21.7500   -6.8840   21.4700 O   0  0  0  0  0  0  0  0  0  0  0  0
  -21.6840   -6.1480   22.6260 C   0  0  0  0  0  0  0  0  0  0  0  0
  -21.1800   -6.6900   23.8260 C   0  0  0  0  0  3  0  0  0  0  0  0
  -21.0650   -5.8800   24.9730 C   0  0  0  0  0  3  0  0  0  0  0  0
  -21.4460   -4.5240   24.9180 C   0  0  0  0  0  0  0  0  0  0  0  0
  -21.9450   -3.9800   23.7200 C   0  0  0  0  0  3  0  0  0  0  0  0
  -22.0590   -4.7900   22.5770 C   0  0  0  0  0  0  0  0  0  0  0  0
  -22.5190   -4.2550   21.4200 F   0  0  0  0  0  0  0  0  0  0  0  0
  -21.3280   -3.7420   26.0170 F   0  0  0  0  0  0  0  0  0  0  0  0
  -22.7660  -13.5340   21.1910 C   0  0  0  0  0  0  0  0  0  0  0  0
  -22.0430  -12.8220   22.0480 N   0  0  0  0  0  0  0  0  0  0  0  0
  -22.3220  -14.5620   20.6850 O   0  0  0  0  0  0  0  0  0  0  0  0
  -22.4140  -11.9910   22.4830 H   0  0  0  0  0  0  0  0  0  0  0  0
  -21.1050  -13.1200   22.2750 H   0  0  0  0  0  0  0  0  0  0  0  0
  -25.3590  -15.2390   20.3780 N   0  0  0  0  0  0  0  0  0  0  0  0
  -24.5680  -15.8670   20.4750 H   0  0  0  0  0  0  0  0  0  0  0  0
  -26.1860  -15.6980   20.0210 H   0  0  0  0  0  0  0  0  0  0  0  0
  1  3  2  0
  1  2  1  0
  2  5  2  0
  3  6  1  0
  5  4  1  0
  5 52  1  0
  6  8  1  0
  6  4  2  0
  7 11  1  0
  7  8  1  0
  8 10  1  0
  9  7  2  0
 12 23  2  0
 13 11  1  0
 13 18  1  0
 14 22  1  0
 14 24  1  0
 15 21  1  0
 15 17  1  0
 16 22  1  0
 17 18  2  0
 17 16  1  0
 19 13  2  0
 20 19  1  0
 20 15  2  0
 21 14  1  0
 22 12  1  0
 24 26  2  0
 25 24  1  0
 27 25  1  0
 28 37  2  0
 28 33  1  0
 29 25  1  0
 29 33  1  0
 30 29  1  0
 31 32  1  0
 31 30  1  0
 32 28  1  0
 33 34  2  0
 34 35  1  0
 36 35  2  0
 37 36  1  0
 38 12  1  0
 38 39  1  0
 38 48  1  0
 39 42  1  0
 40 44  1  0
 40 39  1  0
 41 40  2  0
 44 43  1  0
 46 44  1  0
 46 47  1  0
 46 45  1  0
 48 51  1  1
 48 49  1  0
 50 48  1  0
 53 61  1  0
 54 59  1  0
 55 56  1  0
 55 54  1  0
 57 56  1  0
 57 66  1  0
 57 58  1  0
 59 53  1  0
 59 58  1  0
 60 53  2  0
 61 62  1  0
 61 52  1  0
 63 64  2  0
 64 83  1  0
 65 64  1  0
 65 68  1  0
 66 63  1  0
 66 67  1  0
 67 65  2  0
 68 69  1  0
 69 70  2  0
 71 74  1  0
 71 70  1  0
 72 71  2  0
 73 72  1  0
 73 68  2  0
 74 75  1  0
 75 76  1  0
 76 77  2  0
 78 77  1  0
 78 82  1  0
 79 78  2  0
 80 75  2  0
 80 79  1  0
 81 80  1  0
 83 84  1  0
 84 87  1  0
 84 86  1  0
 85 83  2  0
 88 89  1  0
 88 63  1  0
 90 88  1  0
M  ISO  4   7 101  11 101  53 100  61 100
M  END
>  <TORSDO>  (91) 
F 18

>  <SCORE>  (91) 
-14.719

>  <name>  (91) 
90

>  <ligand_id>  (91) 
90

>  <original_smiles>  (91) 
[H]c1c([H])c(N([H])C(=O)Oc2c([H])c([H])c3c(c2[H])C([H])([H])N(C(=O)C([H])(N([H])C(=O)C([H])(N([H])C([H])([H])[H])C([H])([H])[H])C(C([H])([H])[H])(C([H])([H])[H])C([H])([H])[H])C([H])(C(=O)N([H])C2([H])c4c([H])c([H])c([H])c([H])c4C([H])([H])C([H])([H])C2([H])[H])C3([H])[H])c([H])c(C([H])([H])N([H])C(=O)N2C([H])([H])C([H])([H])C([H])([H])C([H])(n3nc(-c4c([H])c([H])c(Oc5c([H])c([H])c(F)c([H])c5F)c([H])c4[H])c(C(=O)N([H])[H])c3N([H])[H])C2([H])[H])c1[H]

>  <smiles>  (91) 
[H]c1c([H])c(N([H])C(=O)Oc2c([H])c([H])c3c(c2[H])C([H])([H])N(C(=O)C([H])(N([H])C(=O)C([H])(N([H])C([H])([H])[H])C([H])([H])[H])C(C([H])([H])[H])(C([H])([H])[H])C([H])([H])[H])C([H])(C(=O)N([H])C2([H])c4c([H])c([H])c([H])c([H])c4C([H])([H])C([H])([H])C2([H])[H])C3([H])[H])c([H])c(C([H])([H])N([H])C(=O)N2C([H])([H])C([H])([H])C([H])([H])C([H])(n3nc(-c4c([H])c([H])c(Oc5c([H])c([H])c(F)c([H])c5F)c([H])c4[H])c(C(=O)N([H])[H])c3N([H])[H])C2([H])[H])c1[H]

$$$$
91:0:0
     RDKit          3D

 91 99  0  0  1  0  0  0  0  0999 V2000
  -29.6700  -21.2100   22.0430 O   0  0  0  0  0  0  0  0  0  0  0  0
  -30.8600  -17.8050   22.7520 C   0  0  0  0  0  3  0  0  0  0  0  0
  -31.3450  -18.2890   20.4150 C   0  0  0  0  0  3  0  0  0  0  0  0
  -30.2810  -19.0800   22.8920 C   0  0  0  0  0  3  0  0  0  0  0  0
  -30.7600  -19.5640   20.5560 C   0  0  0  0  0  3  0  0  0  0  0  0
  -31.4080  -17.4110   21.5160 C   0  0  0  0  0  0  0  0  0  0  0  0
  -30.2320  -19.9750   21.8040 C   0  0  0  0  0  0  0  0  0  0  0  0
  -32.0700  -16.0530   21.3750 C   0  0  0  0  0  2  0  0  0  0  0  0
  -31.2400  -14.4280   19.6830 C   0  0  0  0  0  0  0  0  0  0  0  0
  -30.6360  -12.3580   18.4860 C   0  0  0  0  0  2  0  0  0  0  0  0
  -29.5620  -12.5680   17.4060 C   0  0  0  0  0  2  0  0  0  0  0  0
  -28.1540  -12.4680   18.0170 C   0  0  0  0  0  2  0  0  0  0  0  0
  -27.9920  -13.3600   19.2750 C   0  0  0  0  0  3  0  0  0  0  0  0
  -29.1560  -13.1360   20.2650 C   0  0  0  0  0  2  0  0  0  0  0  0
  -30.4340  -13.3450   19.5550 N   0  0  0  0  0  0  0  0  0  0  0  0
  -32.0970  -14.7430   18.8500 O   0  0  0  0  0  0  0  0  0  0  0  0
  -31.1560  -15.0370   20.8690 N   0  0  0  0  0  0  0  0  0  0  0  0
  -30.4620  -14.6840   21.5110 H   0  0  0  0  0  0  0  0  0  0  0  0
  -25.7650  -14.0760   20.3550 C   0  0  0  0  0  0  0  0  0  0  0  0
  -24.6940  -13.3530   20.8060 C   0  0  0  0  0  0  0  0  0  0  0  0
  -25.0300  -11.9800   20.6010 C   0  0  0  0  0  0  0  0  0  0  0  0
  -26.6930  -13.1450   19.9120 N   0  0  0  0  0  0  0  0  0  0  0  0
  -26.2590  -11.8740   20.1130 N   0  0  0  0  0  0  0  0  0  0  0  0
  -24.2310  -10.7620   20.7890 C   0  0  0  0  0  0  0  0  0  0  0  0
  -24.6590   -9.7240   21.6460 C   0  0  0  0  0  3  0  0  0  0  0  0
  -23.8660   -8.5690   21.8240 C   0  0  0  0  0  3  0  0  0  0  0  0
  -22.6310   -8.4450   21.1440 C   0  0  0  0  0  0  0  0  0  0  0  0
  -22.2210   -9.4720   20.2750 C   0  0  0  0  0  3  0  0  0  0  0  0
  -23.0130  -10.6180   20.0950 C   0  0  0  0  0  3  0  0  0  0  0  0
  -21.8070   -7.3500   21.2350 O   0  0  0  0  0  0  0  0  0  0  0  0
  -21.7200   -6.6080   22.3850 C   0  0  0  0  0  0  0  0  0  0  0  0
  -21.3220   -7.1800   23.6140 C   0  0  0  0  0  3  0  0  0  0  0  0
  -21.1800   -6.3670   24.7560 C   0  0  0  0  0  3  0  0  0  0  0  0
  -21.4250   -4.9830   24.6710 C   0  0  0  0  0  0  0  0  0  0  0  0
  -21.8160   -4.4110   23.4480 C   0  0  0  0  0  3  0  0  0  0  0  0
  -21.9600   -5.2210   22.3070 C   0  0  0  0  0  0  0  0  0  0  0  0
  -22.3160   -4.6610   21.1260 F   0  0  0  0  0  0  0  0  0  0  0  0
  -21.2800   -4.2010   25.7650 F   0  0  0  0  0  0  0  0  0  0  0  0
  -23.3910  -13.9020   21.3120 C   0  0  0  0  0  0  0  0  0  0  0  0
  -22.7340  -13.1880   22.2190 N   0  0  0  0  0  0  0  0  0  0  0  0
  -22.9700  -14.9970   20.9380 O   0  0  0  0  0  0  0  0  0  0  0  0
  -23.0890  -12.2990   22.5400 H   0  0  0  0  0  0  0  0  0  0  0  0
  -21.8650  -13.5350   22.5990 H   0  0  0  0  0  0  0  0  0  0  0  0
  -26.0210  -15.4420   20.2690 N   0  0  0  0  0  0  0  0  0  0  0  0
  -25.3400  -16.1430   20.5410 H   0  0  0  0  0  0  0  0  0  0  0  0
  -26.8690  -15.8400   19.8840 H   0  0  0  0  0  0  0  0  0  0  0  0
  -29.7960  -22.2200   21.0500 C   0  0  0  0  0  2  0  0  0  0  0  0
  -29.0710  -23.4660   21.5680 C   0  0  0  0  0  2  0  0  0  0  0  0
  -29.1270  -24.6580   20.6010 C   0  0  0  0  0  2  0  0  0  0  0  0
  -28.4260  -25.8900   21.1840 C   0  0  0  0  0  2  0  0  0  0  0  0
  -28.4650  -26.9680   20.2550 O   0  0  0  0  0  0  0  0  0  0  0  0
  -24.5750  -32.0090   23.3920 C   0  0  0  0  0  0  0  0  0  0  0  0
  -27.3010  -27.6890   20.2510 C   0  0  0  0  0  0  0  0  0  0  0  0
  -23.3930  -30.6080   21.7280 C   0  0  0  0  0  3  0  0  0  0  0  0
  -24.8760  -29.1170   20.2850 C   0  0  0  0  0  0  0  0  0  0  0  0
  -25.9080  -31.0240   21.5360 C   0  0  0  0  0  2  0  0  0  0  0  0
  -26.0190  -29.6650   20.8800 C   0  0  0  0  0  0  0  0  0  0  0  0
  -27.2380  -28.9550   20.8660 C   0  0  0  0  0  3  0  0  0  0  0  0
  -26.1480  -27.1420   19.6550 C   0  0  0  0  0  3  0  0  0  0  0  0
  -24.9320  -27.8520   19.6710 C   0  0  0  0  0  3  0  0  0  0  0  0
  -23.6140  -29.9480   20.3410 C   0  0  0  0  0  2  0  0  0  0  0  0
  -24.6420  -31.2270   22.2780 N   0  0  0  0  0  0  0  0  0  0  0  0
  -23.4890  -32.2560   23.9360 O   0  0  0  0  0  0  0  0  0  0  0  0
  -22.7600  -29.5640   22.6740 C   0  0  0  0  0  0  0  0  0  0  0  0
  -21.4560  -29.3020   22.4880 N   0  0  0  0  0  0  0  0  0  0  0  0
  -23.4390  -28.9900   23.5310 O   0  0  0  0  0  0  0  0  0  0  0  0
  -20.9680  -29.8210   21.7700 H   0  0  0  0  0  0  0  0  0  0  0  0
  -18.1580  -27.8570   22.7770 C   0  0  0  0  0  0  0  0  0  0  0  0
  -20.6580  -28.3300   23.2330 C   0  0  0  0  0  3  0  0  0  0  0  0
  -20.9180  -26.8930   22.7280 C   0  0  0  0  0  2  0  0  0  0  0  0
  -19.9280  -26.4450   21.6470 C   0  0  0  0  0  2  0  0  0  0  0  0
  -18.4930  -26.5020   22.1760 C   0  0  0  0  0  2  0  0  0  0  0  0
  -19.1760  -28.7220   23.2580 C   0  0  0  0  0  0  0  0  0  0  0  0
  -18.8140  -29.9850   23.7740 C   0  0  0  0  0  3  0  0  0  0  0  0
  -17.4660  -30.3860   23.8150 C   0  0  0  0  0  3  0  0  0  0  0  0
  -16.4610  -29.5190   23.3520 C   0  0  0  0  0  3  0  0  0  0  0  0
  -16.8070  -28.2560   22.8390 C   0  0  0  0  0  3  0  0  0  0  0  0
  -25.8510  -32.6520   24.0210 C   0  0  0  0  0  3  0  0  0  0  0  0
  -25.5500  -34.0640   24.2880 N   0  0  0  0  0  0  0  0  0  0  0  0
  -25.9150  -35.0810   23.4970 C   0  0  0  0  0  0  0  0  0  0  0  0
  -26.6140  -34.9290   22.4900 O   0  0  0  0  0  0  0  0  0  0  0  0
  -24.9350  -34.2560   25.0640 H   0  0  0  0  0  0  0  0  0  0  0  0
  -24.2130  -36.8700   23.0230 C   0  0  0  0  0  1  0  0  0  0  0  0
  -25.4290  -36.4900   23.8830 C   0  0  0  0  0  3  0  0  0  0  0  0
  -27.5490  -37.3920   24.7320 C   0  0  0  0  0  1  0  0  0  0  0  0
  -26.4740  -37.5290   23.7540 N   0  0  0  0  0  0  0  0  0  0  0  0
  -26.0730  -38.4580   23.8530 H   0  0  0  0  0  0  0  0  0  0  0  0
  -26.3310  -31.9220   25.3360 C   0  0  1  0  0  0  0  0  0  0  0  0
  -25.2030  -31.6970   26.3690 C   0  0  0  0  0  1  0  0  0  0  0  0
  -26.9470  -30.5430   25.0010 C   0  0  0  0  0  1  0  0  0  0  0  0
  -27.4460  -32.7500   26.0170 C   0  0  0  0  0  1  0  0  0  0  0  0
  2  4  1  0
  3  5  2  0
  3  6  1  0
  5  7  1  0
  6  2  2  0
  7  1  1  0
  7  4  2  0
  8  6  1  0
  9 17  1  0
 10 15  1  0
 11 12  1  0
 11 10  1  0
 13 12  1  0
 13 22  1  0
 13 14  1  0
 15  9  1  0
 15 14  1  0
 16  9  2  0
 17  8  1  0
 17 18  1  0
 19 20  2  0
 20 39  1  0
 21 24  1  0
 21 20  1  0
 22 23  1  0
 22 19  1  0
 23 21  2  0
 24 25  1  0
 25 26  2  0
 27 30  1  0
 27 26  1  0
 28 27  2  0
 29 28  1  0
 29 24  2  0
 30 31  1  0
 31 32  1  0
 32 33  2  0
 34 33  1  0
 34 38  1  0
 35 34  2  0
 36 31  2  0
 36 35  1  0
 37 36  1  0
 39 40  1  0
 40 42  1  0
 40 43  1  0
 41 39  2  0
 44 19  1  0
 44 45  1  0
 46 44  1  0
 47 48  1  0
 47  1  1  0
 49 50  1  0
 49 48  1  0
 51 50  1  0
 52 63  2  0
 53 51  1  0
 53 58  1  0
 54 62  1  0
 54 64  1  0
 55 61  1  0
 55 57  1  0
 56 62  1  0
 57 56  1  0
 58 57  2  0
 59 60  1  0
 59 53  2  0
 60 55  2  0
 61 54  1  0
 62 52  1  0
 64 66  2  0
 65 64  1  0
 67 65  1  0
 68 77  2  0
 68 73  1  0
 69 65  1  0
 69 73  1  0
 70 69  1  0
 71 72  1  0
 71 70  1  0
 72 68  1  0
 73 74  2  0
 74 75  1  0
 76 75  2  0
 77 76  1  0
 78 52  1  0
 78 79  1  0
 78 88  1  0
 79 82  1  0
 80 84  1  0
 80 79  1  0
 81 80  2  0
 84 83  1  0
 86 87  1  0
 86 84  1  0
 86 85  1  0
 88 91  1  1
 88 89  1  0
 90 88  1  0
M  ISO  4   9 100  17 100  50 101  51 101
M  END
>  <TORSDO>  (92) 
F 22

>  <SCORE>  (92) 
-10.573

>  <name>  (92) 
91

>  <ligand_id>  (92) 
91

>  <original_smiles>  (92) 
[H]c1c([H])c([H])c2c(c1[H])C([H])([H])C([H])([H])C([H])([H])C2([H])N([H])C(=O)C1([H])N(C(=O)C([H])(N([H])C(=O)C([H])(N([H])C([H])([H])[H])C([H])([H])[H])C(C([H])([H])[H])(C([H])([H])[H])C([H])([H])[H])C([H])([H])c2c([H])c(OC([H])([H])C([H])([H])C([H])([H])C([H])([H])Oc3c([H])c([H])c(C([H])([H])N([H])C(=O)N4C([H])([H])C([H])([H])C([H])([H])C([H])(n5nc(-c6c([H])c([H])c(Oc7c([H])c([H])c(F)c([H])c7F)c([H])c6[H])c(C(=O)N([H])[H])c5N([H])[H])C4([H])[H])c([H])c3[H])c([H])c([H])c2C1([H])[H]

>  <smiles>  (92) 
[H]c1c([H])c([H])c2c(c1[H])C([H])([H])C([H])([H])C([H])([H])C2([H])N([H])C(=O)C1([H])N(C(=O)C([H])(N([H])C(=O)C([H])(N([H])C([H])([H])[H])C([H])([H])[H])C(C([H])([H])[H])(C([H])([H])[H])C([H])([H])[H])C([H])([H])c2c([H])c(OC([H])([H])C([H])([H])C([H])([H])C([H])([H])Oc3c([H])c([H])c(C([H])([H])N([H])C(=O)N4C([H])([H])C([H])([H])C([H])([H])C([H])(n5nc(-c6c([H])c([H])c(Oc7c([H])c([H])c(F)c([H])c7F)c([H])c6[H])c(C(=O)N([H])[H])c5N([H])[H])C4([H])[H])c([H])c3[H])c([H])c([H])c2C1([H])[H]

$$$$
92:0:0
     RDKit          3D

 92100  0  0  1  0  0  0  0  0999 V2000
  -27.6020  -20.6340   18.8750 C   0  0  0  0  0  1  0  0  0  0  0  0
  -28.4370  -21.2210   20.0280 C   0  0  0  0  0  3  0  0  0  0  0  0
  -31.0410  -19.5220   22.3000 C   0  0  0  0  0  3  0  0  0  0  0  0
  -31.4070  -18.3960   21.5360 C   0  0  0  0  0  3  0  0  0  0  0  0
  -30.0960  -20.4410   21.7990 C   0  0  0  0  0  3  0  0  0  0  0  0
  -29.9090  -19.1250   19.7570 C   0  0  0  0  0  3  0  0  0  0  0  0
  -30.8490  -18.1970   20.2580 C   0  0  0  0  0  0  0  0  0  0  0  0
  -29.5100  -20.2460   20.5290 C   0  0  0  0  0  0  0  0  0  0  0  0
  -31.2840  -17.0170   19.4010 C   0  0  0  0  0  2  0  0  0  0  0  0
  -31.5050  -14.5760   19.6130 C   0  0  0  0  0  0  0  0  0  0  0  0
  -31.1610  -12.2050   19.0730 C   0  0  0  0  0  2  0  0  0  0  0  0
  -30.1770  -12.0980   17.8910 C   0  0  0  0  0  2  0  0  0  0  0  0
  -28.7190  -12.0930   18.3920 C   0  0  0  0  0  2  0  0  0  0  0  0
  -28.4260  -13.2300   19.4070 C   0  0  0  0  0  3  0  0  0  0  0  0
  -29.5190  -13.2970   20.4980 C   0  0  0  0  0  2  0  0  0  0  0  0
  -30.8220  -13.4220   19.8250 N   0  0  0  0  0  0  0  0  0  0  0  0
  -32.6010  -14.6120   19.0470 O   0  0  0  0  0  0  0  0  0  0  0  0
  -30.8480  -15.7110   19.9010 N   0  0  0  0  0  0  0  0  0  0  0  0
  -29.9370  -15.6410   20.3260 H   0  0  0  0  0  0  0  0  0  0  0  0
  -26.1910  -14.0740   20.3640 C   0  0  0  0  0  0  0  0  0  0  0  0
  -25.0630  -13.4130   20.7720 C   0  0  0  0  0  0  0  0  0  0  0  0
  -25.3380  -12.0210   20.6070 C   0  0  0  0  0  0  0  0  0  0  0  0
  -27.0910  -13.0910   19.9830 N   0  0  0  0  0  0  0  0  0  0  0  0
  -26.5840  -11.8460   20.1840 N   0  0  0  0  0  0  0  0  0  0  0  0
  -24.4670  -10.8500   20.7730 C   0  0  0  0  0  0  0  0  0  0  0  0
  -24.8230   -9.7840   21.6320 C   0  0  0  0  0  3  0  0  0  0  0  0
  -23.9630   -8.6750   21.7910 C   0  0  0  0  0  3  0  0  0  0  0  0
  -22.7320   -8.6260   21.0970 C   0  0  0  0  0  0  0  0  0  0  0  0
  -22.3920   -9.6770   20.2280 C   0  0  0  0  0  3  0  0  0  0  0  0
  -23.2500  -10.7780   20.0640 C   0  0  0  0  0  3  0  0  0  0  0  0
  -21.8470   -7.5780   21.1730 O   0  0  0  0  0  0  0  0  0  0  0  0
  -21.7300   -6.8130   22.3050 C   0  0  0  0  0  0  0  0  0  0  0  0
  -21.3860   -7.3750   23.5540 C   0  0  0  0  0  3  0  0  0  0  0  0
  -21.2090   -6.5440   24.6760 C   0  0  0  0  0  3  0  0  0  0  0  0
  -21.3680   -5.1500   24.5530 C   0  0  0  0  0  0  0  0  0  0  0  0
  -21.7030   -4.5870   23.3100 C   0  0  0  0  0  3  0  0  0  0  0  0
  -21.8800   -5.4170   22.1880 C   0  0  0  0  0  0  0  0  0  0  0  0
  -22.1850   -4.8680   20.9880 F   0  0  0  0  0  0  0  0  0  0  0  0
  -21.1900   -4.3480   25.6290 F   0  0  0  0  0  0  0  0  0  0  0  0
  -23.7650  -14.0350   21.2050 C   0  0  0  0  0  0  0  0  0  0  0  0
  -23.0490  -13.3910   22.1200 N   0  0  0  0  0  0  0  0  0  0  0  0
  -23.4020  -15.1250   20.7620 O   0  0  0  0  0  0  0  0  0  0  0  0
  -23.3560  -12.5050   22.4980 H   0  0  0  0  0  0  0  0  0  0  0  0
  -22.1800  -13.7860   22.4500 H   0  0  0  0  0  0  0  0  0  0  0  0
  -26.5240  -15.4220   20.2650 N   0  0  0  0  0  0  0  0  0  0  0  0
  -25.8760  -16.1670   20.4990 H   0  0  0  0  0  0  0  0  0  0  0  0
  -27.4100  -15.7640   19.9130 H   0  0  0  0  0  0  0  0  0  0  0  0
  -28.9870  -22.6270   19.6840 C   0  0  0  0  0  2  0  0  0  0  0  0
  -28.6900  -23.5580   20.7260 O   0  0  0  0  0  0  0  0  0  0  0  0
  -29.1450  -24.8910   20.4780 C   0  0  0  0  0  2  0  0  0  0  0  0
  -28.3890  -25.5870   19.3230 C   0  0  0  0  0  2  0  0  0  0  0  0
  -28.2960  -27.0040   19.5410 O   0  0  0  0  0  0  0  0  0  0  0  0
  -24.4520  -31.8000   23.1160 C   0  0  0  0  0  0  0  0  0  0  0  0
  -27.0690  -27.6330   19.6430 C   0  0  0  0  0  0  0  0  0  0  0  0
  -23.2100  -30.4740   21.4360 C   0  0  0  0  0  3  0  0  0  0  0  0
  -24.6350  -29.0690   19.8620 C   0  0  0  0  0  0  0  0  0  0  0  0
  -25.7150  -30.9120   21.1590 C   0  0  0  0  0  2  0  0  0  0  0  0
  -25.8040  -29.5850   20.4330 C   0  0  0  0  0  0  0  0  0  0  0  0
  -27.0190  -28.8730   20.3230 C   0  0  0  0  0  3  0  0  0  0  0  0
  -25.8730  -27.1360   19.0670 C   0  0  0  0  0  3  0  0  0  0  0  0
  -24.6640  -27.8430   19.1780 C   0  0  0  0  0  3  0  0  0  0  0  0
  -23.3740  -29.8880   20.0100 C   0  0  0  0  0  2  0  0  0  0  0  0
  -24.4790  -31.0750   21.9620 N   0  0  0  0  0  0  0  0  0  0  0  0
  -23.3880  -32.0090   23.7140 O   0  0  0  0  0  0  0  0  0  0  0  0
  -22.6280  -29.3770   22.3570 C   0  0  0  0  0  0  0  0  0  0  0  0
  -21.3040  -29.1620   22.2660 N   0  0  0  0  0  0  0  0  0  0  0  0
  -23.3590  -28.7240   23.1050 O   0  0  0  0  0  0  0  0  0  0  0  0
  -20.7740  -29.7430   21.6320 H   0  0  0  0  0  0  0  0  0  0  0  0
  -18.0000  -27.7870   22.7520 C   0  0  0  0  0  0  0  0  0  0  0  0
  -20.5450  -28.1560   23.0070 C   0  0  0  0  0  3  0  0  0  0  0  0
  -20.7080  -26.7560   22.3730 C   0  0  0  0  0  2  0  0  0  0  0  0
  -19.6100  -26.4210   21.3580 C   0  0  0  0  0  2  0  0  0  0  0  0
  -18.2310  -26.4740   22.0240 C   0  0  0  0  0  2  0  0  0  0  0  0
  -19.0860  -28.5840   23.2030 C   0  0  0  0  0  0  0  0  0  0  0  0
  -18.8140  -29.8110   23.8470 C   0  0  0  0  0  3  0  0  0  0  0  0
  -17.4890  -30.2400   24.0490 C   0  0  0  0  0  3  0  0  0  0  0  0
  -16.4170  -29.4400   23.6130 C   0  0  0  0  0  3  0  0  0  0  0  0
  -16.6740  -28.2150   22.9710 C   0  0  0  0  0  3  0  0  0  0  0  0
  -25.7470  -32.4250   23.7210 C   0  0  0  0  0  3  0  0  0  0  0  0
  -25.4350  -33.8130   24.0920 N   0  0  0  0  0  0  0  0  0  0  0  0
  -25.7720  -34.8870   23.3670 C   0  0  0  0  0  0  0  0  0  0  0  0
  -26.4490  -34.8150   22.3370 O   0  0  0  0  0  0  0  0  0  0  0  0
  -24.8360  -33.9440   24.8950 H   0  0  0  0  0  0  0  0  0  0  0  0
  -24.0430  -36.6870   23.0600 C   0  0  0  0  0  1  0  0  0  0  0  0
  -25.2810  -36.2600   23.8630 C   0  0  0  0  0  3  0  0  0  0  0  0
  -27.4080  -37.1230   24.7330 C   0  0  0  0  0  1  0  0  0  0  0  0
  -26.3110  -37.3160   23.7880 N   0  0  0  0  0  0  0  0  0  0  0  0
  -25.9040  -38.2320   23.9560 H   0  0  0  0  0  0  0  0  0  0  0  0
  -26.3060  -31.6220   24.9590 C   0  0  1  0  0  0  0  0  0  0  0  0
  -25.2520  -31.3570   26.0590 C   0  0  0  0  0  1  0  0  0  0  0  0
  -26.8710  -30.2530   24.5130 C   0  0  0  0  0  1  0  0  0  0  0  0
  -27.4810  -32.3990   25.6000 C   0  0  0  0  0  1  0  0  0  0  0  0
  2  1  1  0
  2  8  1  0
  4  3  2  0
  5  3  1  0
  6  7  2  0
  6  8  1  0
  7  4  1  0
  8  5  2  0
  9 18  1  0
  9  7  1  0
 10 16  1  0
 10 18  1  0
 11 16  1  0
 12 13  1  0
 12 11  1  0
 14 13  1  0
 14 23  1  0
 14 15  1  0
 16 15  1  0
 17 10  2  0
 18 19  1  0
 20 21  2  0
 21 40  1  0
 22 21  1  0
 22 25  1  0
 23 24  1  0
 23 20  1  0
 24 22  2  0
 25 26  1  0
 26 27  2  0
 28 31  1  0
 28 27  1  0
 29 28  2  0
 30 29  1  0
 30 25  2  0
 31 32  1  0
 32 33  1  0
 33 34  2  0
 35 34  1  0
 35 39  1  0
 36 35  2  0
 37 32  2  0
 37 36  1  0
 38 37  1  0
 40 41  1  0
 41 44  1  0
 41 43  1  0
 42 40  2  0
 45 20  1  0
 45 46  1  0
 47 45  1  0
 48  2  1  0
 48 49  1  0
 50 49  1  0
 51 52  1  0
 51 50  1  0
 52 54  1  0
 53 64  2  0
 54 59  1  0
 55 63  1  0
 55 65  1  0
 56 62  1  0
 56 58  1  0
 57 63  1  0
 58 57  1  0
 59 58  2  0
 60 61  1  0
 60 54  2  0
 61 56  2  0
 62 55  1  0
 63 53  1  0
 65 67  2  0
 66 65  1  0
 68 66  1  0
 69 78  2  0
 69 74  1  0
 70 66  1  0
 70 74  1  0
 71 70  1  0
 72 73  1  0
 72 71  1  0
 73 69  1  0
 74 75  2  0
 75 76  1  0
 77 76  2  0
 78 77  1  0
 79 53  1  0
 79 80  1  0
 79 89  1  0
 80 83  1  0
 81 85  1  0
 81 80  1  0
 82 81  2  0
 85 84  1  0
 87 85  1  0
 87 88  1  0
 87 86  1  0
 89 92  1  1
 89 90  1  0
 91 89  1  0
M  ISO  4  10 100  18 100  51 101  52 101
M  END
>  <TORSDO>  (93) 
F 22

>  <SCORE>  (93) 
-12.249

>  <name>  (93) 
92

>  <ligand_id>  (93) 
92

>  <original_smiles>  (93) 
[H]c1c([H])c([H])c2c(c1[H])C([H])([H])C([H])([H])C([H])([H])C2([H])N([H])C(=O)C1([H])N(C(=O)C([H])(N([H])C(=O)C([H])(N([H])C([H])([H])[H])C([H])([H])[H])C(C([H])([H])[H])(C([H])([H])[H])C([H])([H])[H])C([H])([H])c2c([H])c(OC([H])([H])C([H])([H])OC([H])([H])C([H])(c3c([H])c([H])c([H])c(C([H])([H])N([H])C(=O)N4C([H])([H])C([H])([H])C([H])([H])C([H])(n5nc(-c6c([H])c([H])c(Oc7c([H])c([H])c(F)c([H])c7F)c([H])c6[H])c(C(=O)N([H])[H])c5N([H])[H])C4([H])[H])c3[H])C([H])([H])[H])c([H])c([H])c2C1([H])[H]

>  <smiles>  (93) 
[H]c1c([H])c([H])c2c(c1[H])C([H])([H])C([H])([H])C([H])([H])C2([H])N([H])C(=O)C1([H])N(C(=O)C([H])(N([H])C(=O)C([H])(N([H])C([H])([H])[H])C([H])([H])[H])C(C([H])([H])[H])(C([H])([H])[H])C([H])([H])[H])C([H])([H])c2c([H])c(OC([H])([H])C([H])([H])OC([H])([H])C([H])(c3c([H])c([H])c([H])c(C([H])([H])N([H])C(=O)N4C([H])([H])C([H])([H])C([H])([H])C([H])(n5nc(-c6c([H])c([H])c(Oc7c([H])c([H])c(F)c([H])c7F)c([H])c6[H])c(C(=O)N([H])[H])c5N([H])[H])C4([H])[H])c3[H])C([H])([H])[H])c([H])c([H])c2C1([H])[H]

$$$$
