0:0:0
     RDKit          3D

 91100  0  0  1  0  0  0  0  0999 V2000
  -30.2820  -22.9040   18.1090 C   0  0  0  0  0  3  0  0  0  0  0  0
  -29.5940  -23.8850   18.8380 C   0  0  0  0  0  3  0  0  0  0  0  0
  -30.3170  -21.5580   18.5210 C   0  0  0  0  0  3  0  0  0  0  0  0
  -28.9240  -22.1210   20.4050 C   0  0  0  0  0  3  0  0  0  0  0  0
  -28.8950  -23.5580   20.0120 C   0  0  0  0  0  0  0  0  0  0  0  0
  -29.6380  -21.0580   19.6630 C   0  0  0  0  0  0  0  0  0  0  0  0
  -30.6990  -14.8490   20.0070 C   0  0  0  0  0  0  0  0  0  0  0  0
  -30.3750  -12.5630   19.0000 C   0  0  0  0  0  2  0  0  0  0  0  0
  -29.3840  -12.6120   17.8180 C   0  0  0  0  0  2  0  0  0  0  0  0
  -27.9420  -12.4300   18.3260 C   0  0  0  0  0  2  0  0  0  0  0  0
  -27.6280  -13.3170   19.5620 C   0  0  0  0  0  3  0  0  0  0  0  0
  -28.7490  -13.2900   20.6220 C   0  0  0  0  0  2  0  0  0  0  0  0
  -29.9910  -13.6580   19.9320 N   0  0  0  0  0  0  0  0  0  0  0  0
  -31.8980  -14.7940   19.7130 O   0  0  0  0  0  0  0  0  0  0  0  0
  -29.1960  -18.5160   20.9900 C   0  0  0  0  0  2  0  0  0  0  0  0
  -29.8930  -18.4870   18.7160 C   0  0  0  0  0  2  0  0  0  0  0  0
  -29.7580  -16.9890   21.1540 C   0  0  0  0  0  2  0  0  0  0  0  0
  -30.5770  -17.0710   18.9090 C   0  0  0  0  0  2  0  0  0  0  0  0
  -29.9260  -19.4570   19.9530 C   0  0  0  0  0  3  0  0  0  0  0  0
  -30.0600  -16.1220   19.9500 N   0  0  0  0  0  0  0  0  0  0  0  0
  -25.2980  -13.8880   20.4510 C   0  0  0  0  0  0  0  0  0  0  0  0
  -24.2500  -13.1100   20.8540 C   0  0  0  0  0  0  0  0  0  0  0  0
  -24.7020  -11.7570   20.7650 C   0  0  0  0  0  0  0  0  0  0  0  0
  -26.3210  -13.0120   20.1310 N   0  0  0  0  0  0  0  0  0  0  0  0
  -25.9760  -11.7220   20.3860 N   0  0  0  0  0  0  0  0  0  0  0  0
  -23.9760  -10.4950   20.9580 C   0  0  0  0  0  0  0  0  0  0  0  0
  -24.4190   -9.5210   21.8820 C   0  0  0  0  0  3  0  0  0  0  0  0
  -23.6920   -8.3260   22.0650 C   0  0  0  0  0  3  0  0  0  0  0  0
  -22.5070   -8.0940   21.3270 C   0  0  0  0  0  0  0  0  0  0  0  0
  -22.0830   -9.0560   20.3930 C   0  0  0  0  0  3  0  0  0  0  0  0
  -22.8100  -10.2440   20.2070 C   0  0  0  0  0  3  0  0  0  0  0  0
  -21.7500   -6.9510   21.4220 O   0  0  0  0  0  0  0  0  0  0  0  0
  -21.6800   -6.2270   22.5850 C   0  0  0  0  0  0  0  0  0  0  0  0
  -21.1900   -6.7890   23.7850 C   0  0  0  0  0  3  0  0  0  0  0  0
  -21.0720   -5.9880   24.9390 C   0  0  0  0  0  3  0  0  0  0  0  0
  -21.4330   -4.6290   24.8940 C   0  0  0  0  0  0  0  0  0  0  0  0
  -21.9150   -4.0660   23.6990 C   0  0  0  0  0  3  0  0  0  0  0  0
  -22.0360   -4.8640   22.5470 C   0  0  0  0  0  0  0  0  0  0  0  0
  -22.4810   -4.3110   21.3930 F   0  0  0  0  0  0  0  0  0  0  0  0
  -21.3120   -3.8580   26.0010 F   0  0  0  0  0  0  0  0  0  0  0  0
  -22.8730  -13.5890   21.2090 C   0  0  0  0  0  0  0  0  0  0  0  0
  -22.1810  -12.8720   22.0870 N   0  0  0  0  0  0  0  0  0  0  0  0
  -22.4190  -14.6330   20.7430 O   0  0  0  0  0  0  0  0  0  0  0  0
  -22.5590  -12.0260   22.4870 H   0  0  0  0  0  0  0  0  0  0  0  0
  -21.2570  -13.1740   22.3640 H   0  0  0  0  0  0  0  0  0  0  0  0
  -25.4680  -15.2620   20.3010 N   0  0  0  0  0  0  0  0  0  0  0  0
  -24.7230  -15.9260   20.4850 H   0  0  0  0  0  0  0  0  0  0  0  0
  -26.3190  -15.7010   19.9730 H   0  0  0  0  0  0  0  0  0  0  0  0
  -28.1240  -24.7700   20.6890 C   0  0  0  0  0  0  0  0  0  0  0  0
  -27.2480  -24.5210   21.5200 O   0  0  0  0  0  0  0  0  0  0  0  0
  -28.3890  -26.2110   20.2860 O   0  0  0  0  0  0  0  0  0  0  0  0
  -24.6470  -31.8290   23.2180 C   0  0  0  0  0  0  0  0  0  0  0  0
  -27.3460  -27.1860   20.2510 C   0  0  0  0  0  0  0  0  0  0  0  0
  -23.5080  -30.4230   21.5460 C   0  0  0  0  0  3  0  0  0  0  0  0
  -25.0080  -28.8800   20.1550 C   0  0  0  0  0  0  0  0  0  0  0  0
  -26.0590  -30.7250   21.4520 C   0  0  0  0  0  2  0  0  0  0  0  0
  -26.1630  -29.3390   20.8040 C   0  0  0  0  0  0  0  0  0  0  0  0
  -27.3380  -28.5060   20.8430 C   0  0  0  0  0  3  0  0  0  0  0  0
  -26.1740  -26.8240   19.5520 C   0  0  0  0  0  3  0  0  0  0  0  0
  -25.0250  -27.6360   19.5120 C   0  0  0  0  0  3  0  0  0  0  0  0
  -23.7710  -29.7620   20.1700 C   0  0  0  0  0  2  0  0  0  0  0  0
  -24.7570  -31.0130   22.1290 N   0  0  0  0  0  0  0  0  0  0  0  0
  -23.5430  -32.0990   23.7160 O   0  0  0  0  0  0  0  0  0  0  0  0
  -22.8210  -29.4000   22.4850 C   0  0  0  0  0  0  0  0  0  0  0  0
  -21.4920  -29.2440   22.3500 N   0  0  0  0  0  0  0  0  0  0  0  0
  -23.4840  -28.7520   23.2980 O   0  0  0  0  0  0  0  0  0  0  0  0
  -21.0150  -29.8160   21.6670 H   0  0  0  0  0  0  0  0  0  0  0  0
  -18.0890  -28.1190   22.8610 C   0  0  0  0  0  0  0  0  0  0  0  0
  -20.6570  -28.3060   23.1020 C   0  0  0  0  0  3  0  0  0  0  0  0
  -20.7150  -26.8910   22.4810 C   0  0  0  0  0  2  0  0  0  0  0  0
  -19.5920  -26.6280   21.4720 C   0  0  0  0  0  2  0  0  0  0  0  0
  -18.2220  -26.7880   22.1390 C   0  0  0  0  0  2  0  0  0  0  0  0
  -19.2320  -28.8390   23.2990 C   0  0  0  0  0  0  0  0  0  0  0  0
  -19.0530  -30.0850   23.9370 C   0  0  0  0  0  3  0  0  0  0  0  0
  -17.7630  -30.6120   24.1410 C   0  0  0  0  0  3  0  0  0  0  0  0
  -16.6340  -29.8890   23.7170 C   0  0  0  0  0  3  0  0  0  0  0  0
  -16.7980  -28.6450   23.0820 C   0  0  0  0  0  3  0  0  0  0  0  0
  -25.9020  -32.4770   23.8800 C   0  0  0  0  0  3  0  0  0  0  0  0
  -25.5680  -33.8760   24.1900 N   0  0  0  0  0  0  0  0  0  0  0  0
  -25.9010  -34.9260   23.4270 C   0  0  0  0  0  0  0  0  0  0  0  0
  -26.5880  -34.8200   22.4090 O   0  0  0  0  0  0  0  0  0  0  0  0
  -24.9610  -34.0320   24.9810 H   0  0  0  0  0  0  0  0  0  0  0  0
  -24.1630  -36.7030   23.0260 C   0  0  0  0  0  1  0  0  0  0  0  0
  -25.3920  -36.3140   23.8640 C   0  0  0  0  0  3  0  0  0  0  0  0
  -27.4930  -37.2340   24.7380 C   0  0  0  0  0  1  0  0  0  0  0  0
  -26.4160  -37.3760   23.7620 N   0  0  0  0  0  0  0  0  0  0  0  0
  -25.9970  -38.2940   23.8840 H   0  0  0  0  0  0  0  0  0  0  0  0
  -26.3750  -31.7210   25.1830 C   0  0  1  0  0  0  0  0  0  0  0  0
  -25.2470  -31.4790   26.2120 C   0  0  0  0  0  1  0  0  0  0  0  0
  -26.9860  -30.3450   24.8280 C   0  0  0  0  0  1  0  0  0  0  0  0
  -27.4920  -32.5330   25.8820 C   0  0  0  0  0  1  0  0  0  0  0  0
  1  3  2  0
  1  2  1  0
  2  5  2  0
  3  6  1  0
  5  4  1  0
  5 49  1  0
  6  4  2  0
  8 13  1  0
  9 10  1  0
  9  8  1  0
 11 10  1  0
 11 24  1  0
 11 12  1  0
 13  7  1  0
 13 12  1  0
 14  7  2  0
 15 17  1  0
 16 18  1  0
 16 19  1  0
 18 20  1  0
 19  6  1  0
 19 15  1  0
 20  7  1  0
 20 17  1  0
 21 22  2  0
 22 41  1  0
 23 22  1  0
 23 26  1  0
 24 25  1  0
 24 21  1  0
 25 23  2  0
 26 27  1  0
 27 28  2  0
 29 32  1  0
 29 28  1  0
 30 29  2  0
 31 30  1  0
 31 26  2  0
 32 33  1  0
 33 34  1  0
 34 35  2  0
 36 35  1  0
 36 40  1  0
 37 36  2  0
 38 33  2  0
 38 37  1  0
 39 38  1  0
 41 42  1  0
 42 45  1  0
 42 44  1  0
 43 41  2  0
 46 21  1  0
 46 47  1  0
 48 46  1  0
 49 50  2  0
 51 49  1  0
 52 63  2  0
 53 51  1  0
 53 58  1  0
 54 62  1  0
 54 64  1  0
 55 61  1  0
 55 57  1  0
 56 62  1  0
 57 58  2  0
 57 56  1  0
 59 53  2  0
 60 59  1  0
 60 55  2  0
 61 54  1  0
 62 52  1  0
 64 66  2  0
 65 64  1  0
 67 65  1  0
 68 77  2  0
 68 73  1  0
 69 65  1  0
 69 73  1  0
 70 69  1  0
 71 72  1  0
 71 70  1  0
 72 68  1  0
 73 74  2  0
 74 75  1  0
 76 75  2  0
 77 76  1  0
 78 52  1  0
 78 79  1  0
 78 88  1  0
 79 82  1  0
 80 84  1  0
 80 79  1  0
 81 80  2  0
 84 83  1  0
 86 84  1  0
 86 87  1  0
 86 85  1  0
 88 91  1  1
 88 89  1  0
 90 88  1  0
M  ISO  4   7 100  20 100  49 101  51 101
M  END
>  <TORSDO>  (1) 
F 17

>  <SCORE>  (1) 
-14.999

>  <name>  (1) 
0

>  <ligand_id>  (1) 
0

>  <original_smiles>  (1) 
[H]c1c([H])c([H])c2c(c1[H])C([H])([H])C([H])([H])C([H])([H])C2([H])N([H])C(=O)C1([H])N(C(=O)C([H])(N([H])C(=O)C([H])(N([H])C([H])([H])[H])C([H])([H])[H])C(C([H])([H])[H])(C([H])([H])[H])C([H])([H])[H])C([H])([H])c2c([H])c(OC(=O)c3c([H])c([H])c([H])c(C4([H])C([H])([H])C([H])([H])N(C(=O)N5C([H])([H])C([H])([H])C([H])([H])C([H])(n6nc(-c7c([H])c([H])c(Oc8c([H])c([H])c(F)c([H])c8F)c([H])c7[H])c(C(=O)N([H])[H])c6N([H])[H])C5([H])[H])C([H])([H])C4([H])[H])c3[H])c([H])c([H])c2C1([H])[H]

>  <smiles>  (1) 
[H]c1c([H])c([H])c2c(c1[H])C([H])([H])C([H])([H])C([H])([H])C2([H])N([H])C(=O)C1([H])N(C(=O)C([H])(N([H])C(=O)C([H])(N([H])C([H])([H])[H])C([H])([H])[H])C(C([H])([H])[H])(C([H])([H])[H])C([H])([H])[H])C([H])([H])c2c([H])c(OC(=O)c3c([H])c([H])c([H])c(C4([H])C([H])([H])C([H])([H])N(C(=O)N5C([H])([H])C([H])([H])C([H])([H])C([H])(n6nc(-c7c([H])c([H])c(Oc8c([H])c([H])c(F)c([H])c8F)c([H])c7[H])c(C(=O)N([H])[H])c6N([H])[H])C5([H])[H])C([H])([H])C4([H])[H])c3[H])c([H])c([H])c2C1([H])[H]

$$$$
1:0:0
     RDKit          3D

102111  0  0  1  0  0  0  0  0999 V2000
  -25.3070  -22.6190   20.3320 C   0  0  0  0  0  3  0  0  0  0  0  0
  -26.1670  -23.4320   21.1170 C   0  0  0  0  0  3  0  0  0  0  0  0
  -25.3410  -23.0990   19.0530 C   0  0  0  0  0  3  0  0  0  0  0  0
  -26.7210  -24.3750   20.2970 C   0  0  0  0  0  0  0  0  0  0  0  0
  -26.2020  -24.1900   19.0110 N   0  0  0  0  0  0  0  0  0  0  0  0
  -27.6680  -25.4540   20.6540 C   0  0  0  0  0  0  0  0  0  0  0  0
  -28.7560  -25.0510   21.3180 N   0  0  0  0  0  0  0  0  0  0  0  0
  -27.4750  -26.6240   20.3200 O   0  0  0  0  0  0  0  0  0  0  0  0
  -28.8410  -24.0590   21.4850 H   0  0  0  0  0  0  0  0  0  0  0  0
  -29.7010  -25.9330   21.9950 C   0  0  0  0  0  2  0  0  0  0  0  0
  -30.6750  -26.6620   21.0340 C   0  0  0  0  0  2  0  0  0  0  0  0
  -30.8190  -28.0550   21.3650 O   0  0  0  0  0  0  0  0  0  0  0  0
  -26.4950  -31.7850   25.5900 C   0  0  0  0  0  0  0  0  0  0  0  0
  -29.6500  -28.7790   21.4440 C   0  0  0  0  0  0  0  0  0  0  0  0
  -25.5410  -31.0780   23.4230 C   0  0  0  0  0  3  0  0  0  0  0  0
  -27.2080  -30.1700   21.7220 C   0  0  0  0  0  0  0  0  0  0  0  0
  -28.0570  -31.4760   23.6750 C   0  0  0  0  0  2  0  0  0  0  0  0
  -28.2700  -30.4340   22.5980 C   0  0  0  0  0  0  0  0  0  0  0  0
  -29.4940  -29.7420   22.4640 C   0  0  0  0  0  3  0  0  0  0  0  0
  -28.5790  -28.5510   20.5490 C   0  0  0  0  0  3  0  0  0  0  0  0
  -27.3570  -29.2270   20.6960 C   0  0  0  0  0  3  0  0  0  0  0  0
  -25.9330  -30.9510   21.9270 C   0  0  0  0  0  2  0  0  0  0  0  0
  -26.7090  -31.4400   24.2910 N   0  0  0  0  0  0  0  0  0  0  0  0
  -25.3510  -31.8450   26.0570 O   0  0  0  0  0  0  0  0  0  0  0  0
  -24.8350  -29.7740   23.8570 C   0  0  0  0  0  0  0  0  0  0  0  0
  -23.6210  -29.5450   23.3310 N   0  0  0  0  0  0  0  0  0  0  0  0
  -25.3890  -28.9820   24.6220 O   0  0  0  0  0  0  0  0  0  0  0  0
  -23.2250  -30.2520   22.7280 H   0  0  0  0  0  0  0  0  0  0  0  0
  -20.4750  -27.9870   22.4770 C   0  0  0  0  0  0  0  0  0  0  0  0
  -22.7880  -28.3670   23.5700 C   0  0  0  0  0  3  0  0  0  0  0  0
  -23.2670  -27.1590   22.7300 C   0  0  0  0  0  2  0  0  0  0  0  0
  -22.5500  -27.0330   21.3840 C   0  0  0  0  0  2  0  0  0  0  0  0
  -21.0390  -26.8890   21.5920 C   0  0  0  0  0  2  0  0  0  0  0  0
  -21.3000  -28.6900   23.3950 C   0  0  0  0  0  0  0  0  0  0  0  0
  -20.7320  -29.7260   24.1680 C   0  0  0  0  0  3  0  0  0  0  0  0
  -19.3710  -30.0600   24.0410 C   0  0  0  0  0  3  0  0  0  0  0  0
  -18.5560  -29.3480   23.1430 C   0  0  0  0  0  3  0  0  0  0  0  0
  -19.1070  -28.3140   22.3650 C   0  0  0  0  0  3  0  0  0  0  0  0
  -27.6770  -32.1470   26.5420 C   0  0  0  0  0  3  0  0  0  0  0  0
  -27.4820  -33.5380   26.9760 N   0  0  0  0  0  0  0  0  0  0  0  0
  -28.1070  -34.5960   26.4420 C   0  0  0  0  0  0  0  0  0  0  0  0
  -28.9750  -34.4930   25.5710 O   0  0  0  0  0  0  0  0  0  0  0  0
  -26.7480  -33.7030   27.6490 H   0  0  0  0  0  0  0  0  0  0  0  0
  -26.7540  -36.6580   25.9540 C   0  0  0  0  0  1  0  0  0  0  0  0
  -27.7080  -35.9920   26.9580 C   0  0  0  0  0  3  0  0  0  0  0  0
  -29.6780  -36.4500   28.3470 C   0  0  0  0  0  1  0  0  0  0  0  0
  -28.8640  -36.8780   27.2130 N   0  0  0  0  0  0  0  0  0  0  0  0
  -28.5530  -37.8300   27.3900 H   0  0  0  0  0  0  0  0  0  0  0  0
  -27.7890  -31.1870   27.7890 C   0  0  1  0  0  0  0  0  0  0  0  0
  -26.4420  -30.9530   28.5110 C   0  0  0  0  0  1  0  0  0  0  0  0
  -28.3440  -29.8070   27.3630 C   0  0  0  0  0  1  0  0  0  0  0  0
  -28.7910  -31.7690   28.8120 C   0  0  0  0  0  1  0  0  0  0  0  0
  -26.5050  -24.9430   17.7890 C   0  0  0  0  0  2  0  0  0  0  0  0
  -28.0150  -25.2160   17.6470 C   0  0  0  0  0  2  0  0  0  0  0  0
  -28.7880  -24.0880   18.2040 N   0  0  0  0  0  4  0  0  0  0  0  0
  -28.4070  -23.9110   19.1210 H   0  0  0  0  0  0  0  0  0  0  0  0
  -28.6420  -23.2640   17.6460 H   0  0  0  0  0  0  0  0  0  0  0  0
  -30.2320  -24.3130   18.3690 C   0  0  0  0  0  2  0  0  0  0  0  0
  -30.8840  -23.1960   20.5680 C   0  0  0  0  0  3  0  0  0  0  0  0
  -31.2960  -22.0130   18.4770 C   0  0  0  0  0  3  0  0  0  0  0  0
  -31.4060  -22.1040   21.2900 C   0  0  0  0  0  3  0  0  0  0  0  0
  -31.8320  -20.9290   19.1970 C   0  0  0  0  0  3  0  0  0  0  0  0
  -30.8290  -23.1570   19.1550 C   0  0  0  0  0  0  0  0  0  0  0  0
  -31.8890  -20.9650   20.6120 C   0  0  0  0  0  0  0  0  0  0  0  0
  -33.2270  -18.9550   20.9850 C   0  0  0  0  0  0  0  0  0  0  0  0
  -33.4360  -16.7770   19.8720 C   0  0  0  0  0  2  0  0  0  0  0  0
  -32.7880  -16.8900   18.4750 C   0  0  0  0  0  2  0  0  0  0  0  0
  -31.2720  -16.6220   18.5420 C   0  0  0  0  0  2  0  0  0  0  0  0
  -30.5700  -17.4150   19.6750 C   0  0  0  0  0  3  0  0  0  0  0  0
  -31.3480  -17.2810   21.0050 C   0  0  0  0  0  2  0  0  0  0  0  0
  -32.7400  -17.7070   20.7720 N   0  0  0  0  0  0  0  0  0  0  0  0
  -34.3850  -19.2980   20.7230 O   0  0  0  0  0  0  0  0  0  0  0  0
  -32.3130  -19.8490   21.3840 N   0  0  0  0  0  0  0  0  0  0  0  0
  -31.5890  -19.4580   21.9660 H   0  0  0  0  0  0  0  0  0  0  0  0
  -28.0230  -17.7880   19.7580 C   0  0  0  0  0  0  0  0  0  0  0  0
  -26.9760  -16.9190   19.8840 C   0  0  0  0  0  0  0  0  0  0  0  0
  -27.5560  -15.6170   20.0070 C   0  0  0  0  0  0  0  0  0  0  0  0
  -29.1720  -17.0130   19.8180 N   0  0  0  0  0  0  0  0  0  0  0  0
  -28.8800  -15.7020   20.0160 N   0  0  0  0  0  0  0  0  0  0  0  0
  -26.9290  -14.2910   20.0570 C   0  0  0  0  0  0  0  0  0  0  0  0
  -26.9560  -13.5050   21.2300 C   0  0  0  0  0  3  0  0  0  0  0  0
  -26.3310  -12.2380   21.2590 C   0  0  0  0  0  3  0  0  0  0  0  0
  -25.6690  -11.7490   20.1080 C   0  0  0  0  0  0  0  0  0  0  0  0
  -25.6670  -12.5250   18.9340 C   0  0  0  0  0  3  0  0  0  0  0  0
  -26.2940  -13.7820   18.9070 C   0  0  0  0  0  3  0  0  0  0  0  0
  -25.0560  -10.5210   20.0340 O   0  0  0  0  0  0  0  0  0  0  0  0
  -24.2570  -10.0530   21.0480 C   0  0  0  0  0  0  0  0  0  0  0  0
  -23.0610  -10.7070   21.4170 C   0  0  0  0  0  3  0  0  0  0  0  0
  -22.2360  -10.1540   22.4160 C   0  0  0  0  0  3  0  0  0  0  0  0
  -22.5990   -8.9460   23.0410 C   0  0  0  0  0  0  0  0  0  0  0  0
  -23.7880   -8.2900   22.6710 C   0  0  0  0  0  3  0  0  0  0  0  0
  -24.6120   -8.8420   21.6760 C   0  0  0  0  0  0  0  0  0  0  0  0
  -25.7450   -8.1960   21.3080 F   0  0  0  0  0  0  0  0  0  0  0  0
  -21.8040   -8.4100   23.9960 F   0  0  0  0  0  0  0  0  0  0  0  0
  -25.5150  -17.2560   19.8040 C   0  0  0  0  0  0  0  0  0  0  0  0
  -24.6680  -16.4800   20.4710 N   0  0  0  0  0  0  0  0  0  0  0  0
  -25.1200  -18.2430   19.1850 O   0  0  0  0  0  0  0  0  0  0  0  0
  -24.9920  -15.6800   20.9940 H   0  0  0  0  0  0  0  0  0  0  0  0
  -23.6800  -16.6890   20.4550 H   0  0  0  0  0  0  0  0  0  0  0  0
  -28.1070  -19.1690   19.5820 N   0  0  0  0  0  0  0  0  0  0  0  0
  -27.2900  -19.7620   19.4960 H   0  0  0  0  0  0  0  0  0  0  0  0
  -28.9790  -19.6750   19.5030 H   0  0  0  0  0  0  0  0  0  0  0  0
  1  2  1  0
  3  1  2  0
  4  6  1  0
  4  2  2  0
  5  3  1  0
  5  4  1  0
  6  7  1  0
  7  9  1  0
  7 10  1  0
  8  6  2  0
 11 12  1  0
 11 10  1  0
 12 14  1  0
 13 24  2  0
 14 19  1  0
 15 25  1  0
 15 23  1  0
 16 22  1  0
 16 18  1  0
 17 23  1  0
 18 17  1  0
 19 18  2  0
 20 21  1  0
 20 14  2  0
 21 16  2  0
 22 15  1  0
 23 13  1  0
 25 27  2  0
 26 25  1  0
 28 26  1  0
 29 34  1  0
 30 26  1  0
 31 30  1  0
 32 33  1  0
 32 31  1  0
 33 29  1  0
 34 30  1  0
 34 35  2  0
 36 35  1  0
 37 36  2  0
 38 29  2  0
 38 37  1  0
 39 13  1  0
 39 40  1  0
 39 49  1  0
 40 43  1  0
 41 45  1  0
 41 40  1  0
 42 41  2  0
 45 44  1  0
 45 47  1  0
 47 48  1  0
 47 46  1  0
 49 50  1  1
 49 52  1  0
 51 49  1  0
 53  5  1  0
 54 53  1  0
 54 55  1  0
 55 58  1  0
 55 56  1  0
 57 55  1  0
 58 63  1  0
 59 61  1  0
 60 63  1  0
 60 62  2  0
 62 64  1  0
 63 59  2  0
 64 61  2  0
 64 73  1  0
 65 73  1  0
 66 71  1  0
 67 68  1  0
 67 66  1  0
 69 68  1  0
 69 78  1  0
 69 70  1  0
 71 65  1  0
 71 70  1  0
 72 65  2  0
 73 74  1  0
 75 78  1  0
 75 76  2  0
 76 77  1  0
 77 79  2  0
 77 80  1  0
 78 79  1  0
 80 81  1  0
 81 82  2  0
 83 82  1  0
 84 83  2  0
 85 84  1  0
 85 80  2  0
 86 83  1  0
 86 87  1  0
 87 88  2  0
 87 92  1  0
 88 89  1  0
 89 90  2  0
 90 94  1  0
 91 90  1  0
 92 91  2  0
 93 92  1  0
 95 76  1  0
 95 96  1  0
 96 98  1  0
 97 95  2  0
 99 96  1  0
100 75  1  0
101100  1  0
102100  1  0
M  ISO  4  11 101  12 101  65 100  73 100
M  END
>  <TORSDO>  (2) 
F 24

>  <SCORE>  (2) 
-3.681

>  <name>  (2) 
1

>  <ligand_id>  (2) 
1

>  <original_smiles>  (2) 
[H]c1c([H])c([H])c2c(c1[H])C([H])([H])C([H])([H])C([H])([H])C2([H])N([H])C(=O)C1([H])N(C(=O)C([H])(N([H])C(=O)C([H])(N([H])C([H])([H])[H])C([H])([H])[H])C(C([H])([H])[H])(C([H])([H])[H])C([H])([H])[H])C([H])([H])c2c([H])c(OC([H])([H])C([H])([H])N([H])C(=O)c3c([H])c([H])c([H])n3C([H])([H])C([H])([H])[N+]([H])([H])C([H])([H])c3c([H])c([H])c(N([H])C(=O)N4C([H])([H])C([H])([H])C([H])([H])C([H])(n5nc(-c6c([H])c([H])c(Oc7c([H])c([H])c(F)c([H])c7F)c([H])c6[H])c(C(=O)N([H])[H])c5N([H])[H])C4([H])[H])c([H])c3[H])c([H])c([H])c2C1([H])[H]

>  <smiles>  (2) 
[H]c1c([H])c([H])c2c(c1[H])C([H])([H])C([H])([H])C([H])([H])C2([H])N([H])C(=O)C1([H])N(C(=O)C([H])(N([H])C(=O)C([H])(N([H])C([H])([H])[H])C([H])([H])[H])C(C([H])([H])[H])(C([H])([H])[H])C([H])([H])[H])C([H])([H])c2c([H])c(OC([H])([H])C([H])([H])N([H])C(=O)c3c([H])c([H])c([H])n3C([H])([H])C([H])([H])[N+]([H])([H])C([H])([H])c3c([H])c([H])c(N([H])C(=O)N4C([H])([H])C([H])([H])C([H])([H])C([H])(n5nc(-c6c([H])c([H])c(Oc7c([H])c([H])c(F)c([H])c7F)c([H])c6[H])c(C(=O)N([H])[H])c5N([H])[H])C4([H])[H])c([H])c3[H])c([H])c([H])c2C1([H])[H]

$$$$
2:0:0
     RDKit          3D

 90 99  0  0  1  0  0  0  0  0999 V2000
  -30.1840  -21.8100   20.7200 C   0  0  0  0  0  3  0  0  0  0  0  0
  -28.1580  -21.2730   19.5830 C   0  0  0  0  0  3  0  0  0  0  0  0
  -29.9000  -23.2140   20.5930 C   0  0  0  0  0  3  0  0  0  0  0  0
  -27.8720  -22.6780   19.4600 C   0  0  0  0  0  3  0  0  0  0  0  0
  -29.3500  -20.7780   20.1860 C   0  0  0  0  0  0  0  0  0  0  0  0
  -28.7440  -23.7110   19.9250 C   0  0  0  0  0  0  0  0  0  0  0  0
  -30.7420  -14.8140   20.0410 C   0  0  0  0  0  0  0  0  0  0  0  0
  -30.4540  -12.5510   19.0250 C   0  0  0  0  0  2  0  0  0  0  0  0
  -29.4630  -12.6320   17.8460 C   0  0  0  0  0  2  0  0  0  0  0  0
  -28.0200  -12.4480   18.3490 C   0  0  0  0  0  2  0  0  0  0  0  0
  -27.7010  -13.3280   19.5900 C   0  0  0  0  0  3  0  0  0  0  0  0
  -28.8140  -13.2640   20.6560 C   0  0  0  0  0  2  0  0  0  0  0  0
  -30.0710  -13.6120   19.9860 N   0  0  0  0  0  0  0  0  0  0  0  0
  -31.9260  -14.8500   19.6910 O   0  0  0  0  0  0  0  0  0  0  0  0
  -29.5540  -18.3270   21.4100 C   0  0  0  0  0  2  0  0  0  0  0  0
  -29.3370  -18.3260   19.0090 C   0  0  0  0  0  2  0  0  0  0  0  0
  -30.2310  -16.8810   21.3580 C   0  0  0  0  0  2  0  0  0  0  0  0
  -30.0510  -16.9120   18.9410 C   0  0  0  0  0  2  0  0  0  0  0  0
  -29.8180  -19.2370   20.1730 C   0  0  0  0  0  3  0  0  0  0  0  0
  -30.0310  -16.0200   20.1480 N   0  0  0  0  0  0  0  0  0  0  0  0
  -25.3600  -13.8900   20.4660 C   0  0  0  0  0  0  0  0  0  0  0  0
  -24.3150  -13.1040   20.8680 C   0  0  0  0  0  0  0  0  0  0  0  0
  -24.7750  -11.7560   20.7760 C   0  0  0  0  0  0  0  0  0  0  0  0
  -26.3880  -13.0190   20.1470 N   0  0  0  0  0  0  0  0  0  0  0  0
  -26.0490  -11.7290   20.3990 N   0  0  0  0  0  0  0  0  0  0  0  0
  -24.0580  -10.4870   20.9680 C   0  0  0  0  0  0  0  0  0  0  0  0
  -24.5040   -9.5190   21.8950 C   0  0  0  0  0  3  0  0  0  0  0  0
  -23.7850   -8.3170   22.0760 C   0  0  0  0  0  3  0  0  0  0  0  0
  -22.6070   -8.0760   21.3320 C   0  0  0  0  0  0  0  0  0  0  0  0
  -22.1800   -9.0320   20.3940 C   0  0  0  0  0  3  0  0  0  0  0  0
  -22.8990  -10.2250   20.2100 C   0  0  0  0  0  3  0  0  0  0  0  0
  -21.8590   -6.9260   21.4220 O   0  0  0  0  0  0  0  0  0  0  0  0
  -21.7770   -6.2110   22.5900 C   0  0  0  0  0  0  0  0  0  0  0  0
  -21.2660   -6.7800   23.7770 C   0  0  0  0  0  3  0  0  0  0  0  0
  -21.1320   -5.9900   24.9360 C   0  0  0  0  0  3  0  0  0  0  0  0
  -21.5020   -4.6320   24.9100 C   0  0  0  0  0  0  0  0  0  0  0  0
  -22.0070   -4.0620   23.7270 C   0  0  0  0  0  3  0  0  0  0  0  0
  -22.1410   -4.8490   22.5710 C   0  0  0  0  0  0  0  0  0  0  0  0
  -22.6080   -4.2910   21.4280 F   0  0  0  0  0  0  0  0  0  0  0  0
  -21.3670   -3.8710   26.0200 F   0  0  0  0  0  0  0  0  0  0  0  0
  -22.9340  -13.5730   21.2250 C   0  0  0  0  0  0  0  0  0  0  0  0
  -22.2470  -12.8470   22.1000 N   0  0  0  0  0  0  0  0  0  0  0  0
  -22.4730  -14.6160   20.7630 O   0  0  0  0  0  0  0  0  0  0  0  0
  -22.6330  -12.0030   22.4970 H   0  0  0  0  0  0  0  0  0  0  0  0
  -21.3210  -13.1400   22.3790 H   0  0  0  0  0  0  0  0  0  0  0  0
  -25.5170  -15.2660   20.3210 N   0  0  0  0  0  0  0  0  0  0  0  0
  -24.7630  -15.9210   20.5020 H   0  0  0  0  0  0  0  0  0  0  0  0
  -26.3630  -15.7140   19.9930 H   0  0  0  0  0  0  0  0  0  0  0  0
  -28.5730  -25.2300   19.4350 C   0  0  0  0  0  2  0  0  0  0  0  0
  -28.3860  -26.4310   20.3140 O   0  0  0  0  0  0  0  0  0  0  0  0
  -24.6430  -31.9260   23.2190 C   0  0  0  0  0  0  0  0  0  0  0  0
  -27.2730  -27.3050   20.2080 C   0  0  0  0  0  0  0  0  0  0  0  0
  -23.4490  -30.5080   21.5910 C   0  0  0  0  0  3  0  0  0  0  0  0
  -24.9080  -28.9480   20.1770 C   0  0  0  0  0  0  0  0  0  0  0  0
  -25.9920  -30.8230   21.4120 C   0  0  0  0  0  2  0  0  0  0  0  0
  -26.0770  -29.4350   20.7740 C   0  0  0  0  0  0  0  0  0  0  0  0
  -27.2580  -28.6240   20.7820 C   0  0  0  0  0  3  0  0  0  0  0  0
  -26.0700  -26.8810   19.5990 C   0  0  0  0  0  3  0  0  0  0  0  0
  -24.9100  -27.6790   19.5820 C   0  0  0  0  0  3  0  0  0  0  0  0
  -23.6710  -29.8240   20.2170 C   0  0  0  0  0  2  0  0  0  0  0  0
  -24.7150  -31.1040   22.1300 N   0  0  0  0  0  0  0  0  0  0  0  0
  -23.5570  -32.2040   23.7480 O   0  0  0  0  0  0  0  0  0  0  0  0
  -22.7890  -29.4970   22.5600 C   0  0  0  0  0  0  0  0  0  0  0  0
  -21.4610  -29.3180   22.4390 N   0  0  0  0  0  0  0  0  0  0  0  0
  -23.4680  -28.8770   23.3820 O   0  0  0  0  0  0  0  0  0  0  0  0
  -20.9700  -29.8690   21.7490 H   0  0  0  0  0  0  0  0  0  0  0  0
  -18.0850  -28.1290   22.9670 C   0  0  0  0  0  0  0  0  0  0  0  0
  -20.6450  -28.3850   23.2200 C   0  0  0  0  0  3  0  0  0  0  0  0
  -20.7400  -26.9510   22.6510 C   0  0  0  0  0  2  0  0  0  0  0  0
  -19.6310  -26.6260   21.6440 C   0  0  0  0  0  2  0  0  0  0  0  0
  -18.2540  -26.7770   22.2960 C   0  0  0  0  0  2  0  0  0  0  0  0
  -19.2080  -28.8910   23.3870 C   0  0  0  0  0  0  0  0  0  0  0  0
  -18.9940  -30.1560   23.9780 C   0  0  0  0  0  3  0  0  0  0  0  0
  -17.6920  -30.6590   24.1500 C   0  0  0  0  0  3  0  0  0  0  0  0
  -16.5830  -29.8950   23.7460 C   0  0  0  0  0  3  0  0  0  0  0  0
  -16.7800  -28.6310   23.1610 C   0  0  0  0  0  3  0  0  0  0  0  0
  -25.9200  -32.5720   23.8380 C   0  0  0  0  0  3  0  0  0  0  0  0
  -25.5970  -33.9690   24.1700 N   0  0  0  0  0  0  0  0  0  0  0  0
  -25.9180  -35.0260   23.4120 C   0  0  0  0  0  0  0  0  0  0  0  0
  -26.5870  -34.9300   22.3800 O   0  0  0  0  0  0  0  0  0  0  0  0
  -25.0020  -34.1170   24.9720 H   0  0  0  0  0  0  0  0  0  0  0  0
  -24.1840  -36.8120   23.0530 C   0  0  0  0  0  1  0  0  0  0  0  0
  -25.4200  -36.4100   23.8730 C   0  0  0  0  0  3  0  0  0  0  0  0
  -27.5390  -37.3060   24.7320 C   0  0  0  0  0  1  0  0  0  0  0  0
  -26.4470  -37.4690   23.7750 N   0  0  0  0  0  0  0  0  0  0  0  0
  -26.0340  -38.3860   23.9190 H   0  0  0  0  0  0  0  0  0  0  0  0
  -26.4450  -31.8090   25.1150 C   0  0  1  0  0  0  0  0  0  0  0  0
  -25.3560  -31.5600   26.1840 C   0  0  0  0  0  1  0  0  0  0  0  0
  -27.0440  -30.4380   24.7250 C   0  0  0  0  0  1  0  0  0  0  0  0
  -27.5870  -32.6170   25.7770 C   0  0  0  0  0  1  0  0  0  0  0  0
  2  5  1  0
  3  1  1  0
  4  2  2  0
  4  6  1  0
  5  1  2  0
  6  3  2  0
  7 20  1  0
  8 13  1  0
  9 10  1  0
  9  8  1  0
 11 10  1  0
 11 24  1  0
 11 12  1  0
 13  7  1  0
 13 12  1  0
 14  7  2  0
 16 19  1  0
 17 15  1  0
 18 16  1  0
 18 20  1  0
 19  5  1  0
 19 15  1  0
 20 17  1  0
 21 22  2  0
 22 41  1  0
 23 22  1  0
 23 26  1  0
 24 25  1  0
 24 21  1  0
 25 23  2  0
 26 27  1  0
 27 28  2  0
 29 32  1  0
 29 28  1  0
 30 29  2  0
 31 30  1  0
 31 26  2  0
 32 33  1  0
 33 34  1  0
 34 35  2  0
 36 35  1  0
 36 40  1  0
 37 36  2  0
 38 33  2  0
 38 37  1  0
 39 38  1  0
 41 42  1  0
 42 45  1  0
 42 44  1  0
 43 41  2  0
 46 21  1  0
 46 47  1  0
 48 46  1  0
 49  6  1  0
 49 50  1  0
 51 62  2  0
 52 50  1  0
 52 57  1  0
 53 61  1  0
 53 63  1  0
 54 60  1  0
 54 56  1  0
 55 61  1  0
 56 57  2  0
 56 55  1  0
 58 52  2  0
 59 58  1  0
 59 54  2  0
 60 53  1  0
 61 51  1  0
 63 65  2  0
 64 63  1  0
 66 64  1  0
 67 76  2  0
 67 72  1  0
 68 64  1  0
 68 72  1  0
 69 68  1  0
 70 71  1  0
 70 69  1  0
 71 67  1  0
 72 73  2  0
 73 74  1  0
 75 74  2  0
 76 75  1  0
 77 51  1  0
 77 78  1  0
 77 87  1  0
 78 81  1  0
 79 83  1  0
 79 78  1  0
 80 79  2  0
 83 82  1  0
 85 83  1  0
 85 86  1  0
 85 84  1  0
 87 90  1  1
 87 88  1  0
 89 87  1  0
M  ISO  4   7 100  20 100  49 101  50 101
M  END
>  <TORSDO>  (3) 
F 17

>  <SCORE>  (3) 
-14.780

>  <name>  (3) 
2

>  <ligand_id>  (3) 
2

>  <original_smiles>  (3) 
[H]c1c([H])c([H])c2c(c1[H])C([H])([H])C([H])([H])C([H])([H])C2([H])N([H])C(=O)C1([H])N(C(=O)C([H])(N([H])C(=O)C([H])(N([H])C([H])([H])[H])C([H])([H])[H])C(C([H])([H])[H])(C([H])([H])[H])C([H])([H])[H])C([H])([H])c2c([H])c(OC([H])([H])c3c([H])c([H])c(C4([H])C([H])([H])C([H])([H])N(C(=O)N5C([H])([H])C([H])([H])C([H])([H])C([H])(n6nc(-c7c([H])c([H])c(Oc8c([H])c([H])c(F)c([H])c8F)c([H])c7[H])c(C(=O)N([H])[H])c6N([H])[H])C5([H])[H])C([H])([H])C4([H])[H])c([H])c3[H])c([H])c([H])c2C1([H])[H]

>  <smiles>  (3) 
[H]c1c([H])c([H])c2c(c1[H])C([H])([H])C([H])([H])C([H])([H])C2([H])N([H])C(=O)C1([H])N(C(=O)C([H])(N([H])C(=O)C([H])(N([H])C([H])([H])[H])C([H])([H])[H])C(C([H])([H])[H])(C([H])([H])[H])C([H])([H])[H])C([H])([H])c2c([H])c(OC([H])([H])c3c([H])c([H])c(C4([H])C([H])([H])C([H])([H])N(C(=O)N5C([H])([H])C([H])([H])C([H])([H])C([H])(n6nc(-c7c([H])c([H])c(Oc8c([H])c([H])c(F)c([H])c8F)c([H])c7[H])c(C(=O)N([H])[H])c6N([H])[H])C5([H])[H])C([H])([H])C4([H])[H])c([H])c3[H])c([H])c([H])c2C1([H])[H]

$$$$
3:0:0
     RDKit          3D

 91 99  0  0  1  0  0  0  0  0999 V2000
  -30.1790  -21.6710   20.3980 C   0  0  0  0  0  0  0  0  0  0  0  0
  -29.1730  -22.5860   20.2460 N   0  0  0  0  0  0  0  0  0  0  0  0
  -31.3280  -22.0690   20.5980 O   0  0  0  0  0  0  0  0  0  0  0  0
  -28.2420  -22.2410   20.0600 H   0  0  0  0  0  0  0  0  0  0  0  0
  -31.0220  -19.3220   19.7700 C   0  0  0  0  0  3  0  0  0  0  0  0
  -28.8810  -19.4340   20.8510 C   0  0  0  0  0  3  0  0  0  0  0  0
  -31.0010  -17.8960   19.8140 C   0  0  0  0  0  3  0  0  0  0  0  0
  -28.8560  -18.0010   20.8960 C   0  0  0  0  0  3  0  0  0  0  0  0
  -29.9810  -20.1400   20.2980 C   0  0  0  0  0  0  0  0  0  0  0  0
  -29.9200  -17.1870   20.4050 C   0  0  0  0  0  0  0  0  0  0  0  0
  -30.5960  -14.6910   20.0440 C   0  0  0  0  0  0  0  0  0  0  0  0
  -30.3130  -12.4890   18.9190 C   0  0  0  0  0  2  0  0  0  0  0  0
  -29.2970  -12.6830   17.7720 C   0  0  0  0  0  2  0  0  0  0  0  0
  -27.8510  -12.5140   18.2840 C   0  0  0  0  0  2  0  0  0  0  0  0
  -27.5820  -13.3230   19.5820 C   0  0  0  0  0  3  0  0  0  0  0  0
  -28.7050  -13.1070   20.6210 C   0  0  0  0  0  2  0  0  0  0  0  0
  -29.9790  -13.4670   19.9750 N   0  0  0  0  0  0  0  0  0  0  0  0
  -31.7270  -14.8550   19.5770 O   0  0  0  0  0  0  0  0  0  0  0  0
  -29.8260  -15.7250   20.5120 N   0  0  0  0  0  0  0  0  0  0  0  0
  -28.9720  -15.3980   20.9420 H   0  0  0  0  0  0  0  0  0  0  0  0
  -25.2420  -13.9130   20.4650 C   0  0  0  0  0  0  0  0  0  0  0  0
  -24.1930  -13.1380   20.8740 C   0  0  0  0  0  0  0  0  0  0  0  0
  -24.6380  -11.7850   20.7710 C   0  0  0  0  0  0  0  0  0  0  0  0
  -26.2610  -13.0330   20.1350 N   0  0  0  0  0  0  0  0  0  0  0  0
  -25.9070  -11.7450   20.3790 N   0  0  0  0  0  0  0  0  0  0  0  0
  -23.9130  -10.5230   20.9670 C   0  0  0  0  0  0  0  0  0  0  0  0
  -24.3600   -9.5490   21.8870 C   0  0  0  0  0  3  0  0  0  0  0  0
  -23.6350   -8.3520   22.0710 C   0  0  0  0  0  3  0  0  0  0  0  0
  -22.4500   -8.1180   21.3330 C   0  0  0  0  0  0  0  0  0  0  0  0
  -22.0230   -9.0800   20.4020 C   0  0  0  0  0  3  0  0  0  0  0  0
  -22.7480  -10.2690   20.2160 C   0  0  0  0  0  3  0  0  0  0  0  0
  -21.6980   -6.9730   21.4260 O   0  0  0  0  0  0  0  0  0  0  0  0
  -21.6200   -6.2550   22.5930 C   0  0  0  0  0  0  0  0  0  0  0  0
  -21.1390   -6.8290   23.7890 C   0  0  0  0  0  3  0  0  0  0  0  0
  -21.0120   -6.0360   24.9480 C   0  0  0  0  0  3  0  0  0  0  0  0
  -21.3520   -4.6700   24.9090 C   0  0  0  0  0  0  0  0  0  0  0  0
  -21.8260   -4.0960   23.7160 C   0  0  0  0  0  3  0  0  0  0  0  0
  -21.9560   -4.8870   22.5590 C   0  0  0  0  0  0  0  0  0  0  0  0
  -22.3930   -4.3240   21.4070 F   0  0  0  0  0  0  0  0  0  0  0  0
  -21.2220   -3.9060   26.0180 F   0  0  0  0  0  0  0  0  0  0  0  0
  -22.8200  -13.6170   21.2470 C   0  0  0  0  0  0  0  0  0  0  0  0
  -22.1420  -12.9000   22.1360 N   0  0  0  0  0  0  0  0  0  0  0  0
  -22.3600  -14.6620   20.7880 O   0  0  0  0  0  0  0  0  0  0  0  0
  -22.5270  -12.0570   22.5340 H   0  0  0  0  0  0  0  0  0  0  0  0
  -21.2220  -13.2040   22.4250 H   0  0  0  0  0  0  0  0  0  0  0  0
  -25.4090  -15.2880   20.3240 N   0  0  0  0  0  0  0  0  0  0  0  0
  -24.6500  -15.9380   20.4920 H   0  0  0  0  0  0  0  0  0  0  0  0
  -26.2290  -15.7330   19.9330 H   0  0  0  0  0  0  0  0  0  0  0  0
  -29.3780  -24.0850   20.3590 C   0  0  0  0  0  3  0  0  0  0  0  0
  -28.1920  -25.0630   19.9560 C   0  0  0  0  0  3  0  0  0  0  0  0
  -28.3730  -26.5180   20.1900 O   0  0  0  0  0  0  0  0  0  0  0  0
  -24.6130  -31.8710   23.2430 C   0  0  0  0  0  0  0  0  0  0  0  0
  -27.2450  -27.3550   20.1430 C   0  0  0  0  0  0  0  0  0  0  0  0
  -23.4170  -30.4890   21.5810 C   0  0  0  0  0  3  0  0  0  0  0  0
  -24.8730  -28.9560   20.1450 C   0  0  0  0  0  0  0  0  0  0  0  0
  -25.9550  -30.8150   21.4100 C   0  0  0  0  0  2  0  0  0  0  0  0
  -26.0380  -29.4440   20.7490 C   0  0  0  0  0  0  0  0  0  0  0  0
  -27.2270  -28.6550   20.7390 C   0  0  0  0  0  3  0  0  0  0  0  0
  -26.0540  -26.9220   19.5140 C   0  0  0  0  0  3  0  0  0  0  0  0
  -24.8820  -27.7010   19.5210 C   0  0  0  0  0  3  0  0  0  0  0  0
  -23.6340  -29.8270   20.1960 C   0  0  0  0  0  2  0  0  0  0  0  0
  -24.6810  -31.0750   22.1350 N   0  0  0  0  0  0  0  0  0  0  0  0
  -23.5260  -32.1430   23.7750 O   0  0  0  0  0  0  0  0  0  0  0  0
  -22.7510  -29.4630   22.5280 C   0  0  0  0  0  0  0  0  0  0  0  0
  -21.4260  -29.2850   22.3910 N   0  0  0  0  0  0  0  0  0  0  0  0
  -23.4260  -28.8260   23.3420 O   0  0  0  0  0  0  0  0  0  0  0  0
  -20.9430  -29.8500   21.7070 H   0  0  0  0  0  0  0  0  0  0  0  0
  -18.0420  -28.1010   22.8730 C   0  0  0  0  0  0  0  0  0  0  0  0
  -20.6020  -28.3400   23.1450 C   0  0  0  0  0  3  0  0  0  0  0  0
  -20.6960  -26.9180   22.5460 C   0  0  0  0  0  2  0  0  0  0  0  0
  -19.5890  -26.6190   21.5270 C   0  0  0  0  0  2  0  0  0  0  0  0
  -18.2090  -26.7610   22.1750 C   0  0  0  0  0  2  0  0  0  0  0  0
  -19.1660  -28.8490   23.3140 C   0  0  0  0  0  0  0  0  0  0  0  0
  -18.9550  -30.1030   23.9260 C   0  0  0  0  0  3  0  0  0  0  0  0
  -17.6540  -30.6100   24.1030 C   0  0  0  0  0  3  0  0  0  0  0  0
  -16.5450  -29.8590   23.6770 C   0  0  0  0  0  3  0  0  0  0  0  0
  -16.7390  -28.6060   23.0690 C   0  0  0  0  0  3  0  0  0  0  0  0
  -25.8930  -32.4950   23.8780 C   0  0  0  0  0  3  0  0  0  0  0  0
  -26.3930  -31.7180   25.1580 C   0  0  1  0  0  0  0  0  0  0  0  0
  -25.2870  -31.4800   26.2130 C   0  0  0  0  0  1  0  0  0  0  0  0
  -26.9790  -30.3410   24.7660 C   0  0  0  0  0  1  0  0  0  0  0  0
  -27.5370  -32.5080   25.8370 C   0  0  0  0  0  1  0  0  0  0  0  0
  -25.5860  -33.8940   24.2130 N   0  0  0  0  0  0  0  0  0  0  0  0
  -25.9070  -34.9460   23.4480 C   0  0  0  0  0  0  0  0  0  0  0  0
  -26.5640  -34.8430   22.4090 O   0  0  0  0  0  0  0  0  0  0  0  0
  -25.0030  -34.0500   25.0210 H   0  0  0  0  0  0  0  0  0  0  0  0
  -24.1630  -36.7300   23.1290 C   0  0  0  0  0  1  0  0  0  0  0  0
  -25.4260  -36.3340   23.9110 C   0  0  0  0  0  3  0  0  0  0  0  0
  -27.5720  -37.2370   24.6910 C   0  0  0  0  0  1  0  0  0  0  0  0
  -26.4490  -37.3920   23.7680 N   0  0  0  0  0  0  0  0  0  0  0  0
  -26.0410  -38.3110   23.9170 H   0  0  0  0  0  0  0  0  0  0  0  0
  1  3  2  0
  2 49  1  0
  2  1  1  0
  4  2  1  0
  5  7  2  0
  5  9  1  0
  6  8  1  0
  7 10  1  0
  9  1  1  0
  9  6  2  0
 10 19  1  0
 10  8  2  0
 11 19  1  0
 12 17  1  0
 13 14  1  0
 13 12  1  0
 15 14  1  0
 15 24  1  0
 15 16  1  0
 17 11  1  0
 17 16  1  0
 18 11  2  0
 19 20  1  0
 21 22  2  0
 22 41  1  0
 23 22  1  0
 23 26  1  0
 24 25  1  0
 24 21  1  0
 25 23  2  0
 26 27  1  0
 27 28  2  0
 29 32  1  0
 29 28  1  0
 30 29  2  0
 31 30  1  0
 31 26  2  0
 32 33  1  0
 33 34  1  0
 34 35  2  0
 36 35  1  0
 36 40  1  0
 37 36  2  0
 38 33  2  0
 38 37  1  0
 39 38  1  0
 41 42  1  0
 42 45  1  0
 42 44  1  0
 43 41  2  0
 46 21  1  0
 46 47  1  0
 48 46  1  0
 50 51  1  0
 50 49  2  0
 52 63  2  0
 53 51  1  0
 53 58  1  0
 54 62  1  0
 54 64  1  0
 55 61  1  0
 55 57  1  0
 56 62  1  0
 57 56  1  0
 58 57  2  0
 59 60  1  0
 59 53  2  0
 60 55  2  0
 61 54  1  0
 62 52  1  0
 64 66  2  0
 65 64  1  0
 67 65  1  0
 68 77  2  0
 68 73  1  0
 69 65  1  0
 69 73  1  0
 70 69  1  0
 71 72  1  0
 71 70  1  0
 72 68  1  0
 73 74  2  0
 74 75  1  0
 76 75  2  0
 77 76  1  0
 78 52  1  0
 78 83  1  0
 78 79  1  0
 79 82  1  1
 79 80  1  0
 81 79  1  0
 83 86  1  0
 84 88  1  0
 84 83  1  0
 85 84  2  0
 88 87  1  0
 90 88  1  0
 90 91  1  0
 90 89  1  0
M  ISO  4  11 100  19 100  50 101  51 101
M  END
>  <TORSDO>  (4) 
F 19

>  <SCORE>  (4) 
-13.884

>  <name>  (4) 
3

>  <ligand_id>  (4) 
3

>  <original_smiles>  (4) 
[H]c1c([H])c([H])c2c(c1[H])C([H])([H])C([H])([H])C([H])([H])C2([H])N([H])C(=O)C1([H])N(C(=O)C([H])(N([H])C(=O)C([H])(N([H])C([H])([H])[H])C([H])([H])[H])C(C([H])([H])[H])(C([H])([H])[H])C([H])([H])[H])C([H])([H])c2c([H])c(OC([H])([H])C([H])([H])N([H])C(=O)c3c([H])c([H])c(N([H])C(=O)N4C([H])([H])C([H])([H])C([H])([H])C([H])(n5nc(-c6c([H])c([H])c(Oc7c([H])c([H])c(F)c([H])c7F)c([H])c6[H])c(C(=O)N([H])[H])c5N([H])[H])C4([H])[H])c([H])c3[H])c([H])c([H])c2C1([H])[H]

>  <smiles>  (4) 
[H]c1c([H])c([H])c2c(c1[H])C([H])([H])C([H])([H])C([H])([H])C2([H])N([H])C(=O)C1([H])N(C(=O)C([H])(N([H])C(=O)C([H])(N([H])C([H])([H])[H])C([H])([H])[H])C(C([H])([H])[H])(C([H])([H])[H])C([H])([H])[H])C([H])([H])c2c([H])c(OC([H])([H])C([H])([H])N([H])C(=O)c3c([H])c([H])c(N([H])C(=O)N4C([H])([H])C([H])([H])C([H])([H])C([H])(n5nc(-c6c([H])c([H])c(Oc7c([H])c([H])c(F)c([H])c7F)c([H])c6[H])c(C(=O)N([H])[H])c5N([H])[H])C4([H])[H])c([H])c3[H])c([H])c([H])c2C1([H])[H]

$$$$
4:0:0
     RDKit          3D

 90 99  0  0  1  0  0  0  0  0999 V2000
  -30.1840  -21.8100   20.7200 C   0  0  0  0  0  3  0  0  0  0  0  0
  -28.1580  -21.2730   19.5830 C   0  0  0  0  0  3  0  0  0  0  0  0
  -29.9000  -23.2140   20.5930 C   0  0  0  0  0  3  0  0  0  0  0  0
  -27.8720  -22.6780   19.4600 C   0  0  0  0  0  3  0  0  0  0  0  0
  -29.3500  -20.7780   20.1860 C   0  0  0  0  0  0  0  0  0  0  0  0
  -28.7440  -23.7110   19.9250 C   0  0  0  0  0  0  0  0  0  0  0  0
  -30.7420  -14.8140   20.0410 C   0  0  0  0  0  0  0  0  0  0  0  0
  -30.4540  -12.5510   19.0250 C   0  0  0  0  0  2  0  0  0  0  0  0
  -29.4630  -12.6320   17.8460 C   0  0  0  0  0  2  0  0  0  0  0  0
  -28.0200  -12.4480   18.3490 C   0  0  0  0  0  2  0  0  0  0  0  0
  -27.7010  -13.3280   19.5900 C   0  0  0  0  0  3  0  0  0  0  0  0
  -28.8140  -13.2640   20.6560 C   0  0  0  0  0  2  0  0  0  0  0  0
  -30.0710  -13.6120   19.9860 N   0  0  0  0  0  0  0  0  0  0  0  0
  -31.9260  -14.8500   19.6910 O   0  0  0  0  0  0  0  0  0  0  0  0
  -29.5540  -18.3270   21.4100 C   0  0  0  0  0  2  0  0  0  0  0  0
  -29.3370  -18.3260   19.0090 C   0  0  0  0  0  2  0  0  0  0  0  0
  -30.2310  -16.8810   21.3580 C   0  0  0  0  0  2  0  0  0  0  0  0
  -30.0510  -16.9120   18.9410 C   0  0  0  0  0  2  0  0  0  0  0  0
  -29.8180  -19.2370   20.1730 C   0  0  0  0  0  3  0  0  0  0  0  0
  -30.0310  -16.0200   20.1480 N   0  0  0  0  0  0  0  0  0  0  0  0
  -25.3600  -13.8900   20.4660 C   0  0  0  0  0  0  0  0  0  0  0  0
  -24.3150  -13.1040   20.8680 C   0  0  0  0  0  0  0  0  0  0  0  0
  -24.7750  -11.7560   20.7760 C   0  0  0  0  0  0  0  0  0  0  0  0
  -26.3880  -13.0190   20.1470 N   0  0  0  0  0  0  0  0  0  0  0  0
  -26.0490  -11.7290   20.3990 N   0  0  0  0  0  0  0  0  0  0  0  0
  -24.0580  -10.4870   20.9680 C   0  0  0  0  0  0  0  0  0  0  0  0
  -24.5040   -9.5190   21.8950 C   0  0  0  0  0  3  0  0  0  0  0  0
  -23.7850   -8.3170   22.0760 C   0  0  0  0  0  3  0  0  0  0  0  0
  -22.6070   -8.0760   21.3320 C   0  0  0  0  0  0  0  0  0  0  0  0
  -22.1800   -9.0320   20.3940 C   0  0  0  0  0  3  0  0  0  0  0  0
  -22.8990  -10.2250   20.2100 C   0  0  0  0  0  3  0  0  0  0  0  0
  -21.8590   -6.9260   21.4220 O   0  0  0  0  0  0  0  0  0  0  0  0
  -21.7770   -6.2110   22.5900 C   0  0  0  0  0  0  0  0  0  0  0  0
  -21.2660   -6.7800   23.7770 C   0  0  0  0  0  3  0  0  0  0  0  0
  -21.1320   -5.9900   24.9360 C   0  0  0  0  0  3  0  0  0  0  0  0
  -21.5020   -4.6320   24.9100 C   0  0  0  0  0  0  0  0  0  0  0  0
  -22.0070   -4.0620   23.7270 C   0  0  0  0  0  3  0  0  0  0  0  0
  -22.1410   -4.8490   22.5710 C   0  0  0  0  0  0  0  0  0  0  0  0
  -22.6080   -4.2910   21.4280 F   0  0  0  0  0  0  0  0  0  0  0  0
  -21.3670   -3.8710   26.0200 F   0  0  0  0  0  0  0  0  0  0  0  0
  -22.9340  -13.5730   21.2250 C   0  0  0  0  0  0  0  0  0  0  0  0
  -22.2470  -12.8470   22.1000 N   0  0  0  0  0  0  0  0  0  0  0  0
  -22.4730  -14.6160   20.7630 O   0  0  0  0  0  0  0  0  0  0  0  0
  -22.6330  -12.0030   22.4970 H   0  0  0  0  0  0  0  0  0  0  0  0
  -21.3210  -13.1400   22.3790 H   0  0  0  0  0  0  0  0  0  0  0  0
  -25.5170  -15.2660   20.3210 N   0  0  0  0  0  0  0  0  0  0  0  0
  -24.7630  -15.9210   20.5020 H   0  0  0  0  0  0  0  0  0  0  0  0
  -26.3630  -15.7140   19.9930 H   0  0  0  0  0  0  0  0  0  0  0  0
  -28.5730  -25.2300   19.4350 C   0  0  0  0  0  2  0  0  0  0  0  0
  -28.3860  -26.4310   20.3140 O   0  0  0  0  0  0  0  0  0  0  0  0
  -24.6430  -31.9260   23.2190 C   0  0  0  0  0  0  0  0  0  0  0  0
  -27.2730  -27.3050   20.2080 C   0  0  0  0  0  0  0  0  0  0  0  0
  -23.4490  -30.5080   21.5910 C   0  0  0  0  0  3  0  0  0  0  0  0
  -24.9080  -28.9480   20.1770 C   0  0  0  0  0  0  0  0  0  0  0  0
  -25.9920  -30.8230   21.4120 C   0  0  0  0  0  2  0  0  0  0  0  0
  -26.0770  -29.4350   20.7740 C   0  0  0  0  0  0  0  0  0  0  0  0
  -27.2580  -28.6240   20.7820 C   0  0  0  0  0  3  0  0  0  0  0  0
  -26.0700  -26.8810   19.5990 C   0  0  0  0  0  3  0  0  0  0  0  0
  -24.9100  -27.6790   19.5820 C   0  0  0  0  0  3  0  0  0  0  0  0
  -23.6710  -29.8240   20.2170 C   0  0  0  0  0  2  0  0  0  0  0  0
  -24.7150  -31.1040   22.1300 N   0  0  0  0  0  0  0  0  0  0  0  0
  -23.5570  -32.2040   23.7480 O   0  0  0  0  0  0  0  0  0  0  0  0
  -22.7890  -29.4970   22.5600 C   0  0  0  0  0  0  0  0  0  0  0  0
  -21.4610  -29.3180   22.4390 N   0  0  0  0  0  0  0  0  0  0  0  0
  -23.4680  -28.8770   23.3820 O   0  0  0  0  0  0  0  0  0  0  0  0
  -20.9700  -29.8690   21.7490 H   0  0  0  0  0  0  0  0  0  0  0  0
  -18.0850  -28.1290   22.9670 C   0  0  0  0  0  0  0  0  0  0  0  0
  -20.6450  -28.3850   23.2200 C   0  0  0  0  0  3  0  0  0  0  0  0
  -20.7400  -26.9510   22.6510 C   0  0  0  0  0  2  0  0  0  0  0  0
  -19.6310  -26.6260   21.6440 C   0  0  0  0  0  2  0  0  0  0  0  0
  -18.2540  -26.7770   22.2960 C   0  0  0  0  0  2  0  0  0  0  0  0
  -19.2080  -28.8910   23.3870 C   0  0  0  0  0  0  0  0  0  0  0  0
  -18.9940  -30.1560   23.9780 C   0  0  0  0  0  3  0  0  0  0  0  0
  -17.6920  -30.6590   24.1500 C   0  0  0  0  0  3  0  0  0  0  0  0
  -16.5830  -29.8950   23.7460 C   0  0  0  0  0  3  0  0  0  0  0  0
  -16.7800  -28.6310   23.1610 C   0  0  0  0  0  3  0  0  0  0  0  0
  -25.9200  -32.5720   23.8380 C   0  0  0  0  0  3  0  0  0  0  0  0
  -25.5970  -33.9690   24.1700 N   0  0  0  0  0  0  0  0  0  0  0  0
  -25.9180  -35.0260   23.4120 C   0  0  0  0  0  0  0  0  0  0  0  0
  -26.5870  -34.9300   22.3800 O   0  0  0  0  0  0  0  0  0  0  0  0
  -25.0020  -34.1170   24.9720 H   0  0  0  0  0  0  0  0  0  0  0  0
  -24.1840  -36.8120   23.0530 C   0  0  0  0  0  1  0  0  0  0  0  0
  -25.4200  -36.4100   23.8730 C   0  0  0  0  0  3  0  0  0  0  0  0
  -27.5390  -37.3060   24.7320 C   0  0  0  0  0  1  0  0  0  0  0  0
  -26.4470  -37.4690   23.7750 N   0  0  0  0  0  0  0  0  0  0  0  0
  -26.0340  -38.3860   23.9190 H   0  0  0  0  0  0  0  0  0  0  0  0
  -26.4450  -31.8090   25.1150 C   0  0  1  0  0  0  0  0  0  0  0  0
  -25.3560  -31.5600   26.1840 C   0  0  0  0  0  1  0  0  0  0  0  0
  -27.0440  -30.4380   24.7250 C   0  0  0  0  0  1  0  0  0  0  0  0
  -27.5870  -32.6170   25.7770 C   0  0  0  0  0  1  0  0  0  0  0  0
  2  5  1  0
  3  1  1  0
  4  2  2  0
  4  6  1  0
  5  1  2  0
  6  3  2  0
  7 20  1  0
  8 13  1  0
  9 10  1  0
  9  8  1  0
 11 10  1  0
 11 24  1  0
 11 12  1  0
 13  7  1  0
 13 12  1  0
 14  7  2  0
 16 19  1  0
 17 15  1  0
 18 16  1  0
 18 20  1  0
 19  5  1  0
 19 15  1  0
 20 17  1  0
 21 22  2  0
 22 41  1  0
 23 22  1  0
 23 26  1  0
 24 25  1  0
 24 21  1  0
 25 23  2  0
 26 27  1  0
 27 28  2  0
 29 32  1  0
 29 28  1  0
 30 29  2  0
 31 30  1  0
 31 26  2  0
 32 33  1  0
 33 34  1  0
 34 35  2  0
 36 35  1  0
 36 40  1  0
 37 36  2  0
 38 33  2  0
 38 37  1  0
 39 38  1  0
 41 42  1  0
 42 45  1  0
 42 44  1  0
 43 41  2  0
 46 21  1  0
 46 47  1  0
 48 46  1  0
 49  6  1  0
 49 50  1  0
 51 62  2  0
 52 50  1  0
 52 57  1  0
 53 61  1  0
 53 63  1  0
 54 60  1  0
 54 56  1  0
 55 61  1  0
 56 57  2  0
 56 55  1  0
 58 52  2  0
 59 58  1  0
 59 54  2  0
 60 53  1  0
 61 51  1  0
 63 65  2  0
 64 63  1  0
 66 64  1  0
 67 76  2  0
 67 72  1  0
 68 64  1  0
 68 72  1  0
 69 68  1  0
 70 71  1  0
 70 69  1  0
 71 67  1  0
 72 73  2  0
 73 74  1  0
 75 74  2  0
 76 75  1  0
 77 51  1  0
 77 78  1  0
 77 87  1  0
 78 81  1  0
 79 83  1  0
 79 78  1  0
 80 79  2  0
 83 82  1  0
 85 83  1  0
 85 86  1  0
 85 84  1  0
 87 90  1  1
 87 88  1  0
 89 87  1  0
M  ISO  4   7 100  20 100  49 101  50 101
M  END
>  <TORSDO>  (5) 
F 17

>  <SCORE>  (5) 
-14.780

>  <name>  (5) 
4

>  <ligand_id>  (5) 
4

>  <original_smiles>  (5) 
[H]c1c([H])c([H])c2c(c1[H])C([H])([H])C([H])([H])C([H])([H])C2([H])N([H])C(=O)C1([H])N(C(=O)C([H])(N([H])C(=O)C([H])(N([H])C([H])([H])[H])C([H])([H])[H])C(C([H])([H])[H])(C([H])([H])[H])C([H])([H])[H])C([H])([H])c2c([H])c(OC([H])([H])c3c([H])c([H])c(C4([H])C([H])([H])C([H])([H])N(C(=O)N5C([H])([H])C([H])([H])C([H])([H])C([H])(n6nc(-c7c([H])c([H])c(Oc8c([H])c([H])c(F)c([H])c8F)c([H])c7[H])c(C(=O)N([H])[H])c6N([H])[H])C5([H])[H])C([H])([H])C4([H])[H])c([H])c3[H])c([H])c([H])c2C1([H])[H]

>  <smiles>  (5) 
[H]c1c([H])c([H])c2c(c1[H])C([H])([H])C([H])([H])C([H])([H])C2([H])N([H])C(=O)C1([H])N(C(=O)C([H])(N([H])C(=O)C([H])(N([H])C([H])([H])[H])C([H])([H])[H])C(C([H])([H])[H])(C([H])([H])[H])C([H])([H])[H])C([H])([H])c2c([H])c(OC([H])([H])c3c([H])c([H])c(C4([H])C([H])([H])C([H])([H])N(C(=O)N5C([H])([H])C([H])([H])C([H])([H])C([H])(n6nc(-c7c([H])c([H])c(Oc8c([H])c([H])c(F)c([H])c8F)c([H])c7[H])c(C(=O)N([H])[H])c6N([H])[H])C5([H])[H])C([H])([H])C4([H])[H])c([H])c3[H])c([H])c([H])c2C1([H])[H]

$$$$
5:0:0
     RDKit          3D

114125  0  0  1  0  0  0  0  0999 V2000
  -34.2990  -21.5500   19.4960 C   0  0  0  0  0  2  0  0  0  0  0  0
  -35.0340  -22.8740   19.7330 C   0  0  0  0  0  2  0  0  0  0  0  0
  -35.1260  -20.6220   18.6030 C   0  0  0  0  0  2  0  0  0  0  0  0
  -36.1530  -22.5780   17.4810 C   0  0  0  0  0  2  0  0  0  0  0  0
  -35.3810  -23.5710   18.3950 C   0  0  0  0  0  3  0  0  0  0  0  0
  -35.4240  -21.2860   17.3080 N   0  0  1  0  0  4  0  0  0  0  0  0
  -34.5100  -21.5600   16.9700 H   0  0  0  0  0  0  0  0  0  0  0  0
  -36.4320  -25.2780   19.9700 C   0  0  0  0  0  3  0  0  0  0  0  0
  -36.4750  -25.7770   17.5930 C   0  0  0  0  0  3  0  0  0  0  0  0
  -37.1850  -26.4370   20.2340 C   0  0  0  0  0  3  0  0  0  0  0  0
  -37.2010  -26.9560   17.8570 C   0  0  0  0  0  3  0  0  0  0  0  0
  -36.1060  -24.9050   18.6450 C   0  0  0  0  0  0  0  0  0  0  0  0
  -37.5960  -27.2650   19.1720 C   0  0  0  0  0  0  0  0  0  0  0  0
  -38.4890  -28.4620   19.4460 C   0  0  0  0  0  2  0  0  0  0  0  0
  -39.7700  -28.4910   18.5800 C   0  0  0  0  0  2  0  0  0  0  0  0
  -39.5570  -28.1980   17.1370 N   0  0  0  0  0  4  0  0  0  0  0  0
  -39.7210  -29.0530   16.6320 H   0  0  0  0  0  0  0  0  0  0  0  0
  -38.5810  -27.9830   17.0050 H   0  0  0  0  0  0  0  0  0  0  0  0
  -40.3650  -27.1250   16.4890 C   0  0  0  0  0  2  0  0  0  0  0  0
  -41.2720  -27.5820   15.3230 C   0  0  0  0  0  2  0  0  0  0  0  0
  -41.5540  -26.4830   14.4420 O   0  0  0  0  0  0  0  0  0  0  0  0
  -41.9690  -22.0030   19.9590 C   0  0  0  0  0  0  0  0  0  0  0  0
  -41.3800  -25.2090   14.9390 C   0  0  0  0  0  0  0  0  0  0  0  0
  -41.6190  -20.9530   17.7420 C   0  0  0  0  0  3  0  0  0  0  0  0
  -41.0280  -22.5530   15.8440 C   0  0  0  0  0  0  0  0  0  0  0  0
  -40.7670  -23.3060   18.2160 C   0  0  0  0  0  2  0  0  0  0  0  0
  -40.9980  -23.6160   16.7530 C   0  0  0  0  0  0  0  0  0  0  0  0
  -41.1730  -24.9390   16.3110 C   0  0  0  0  0  3  0  0  0  0  0  0
  -41.3870  -24.1320   14.0260 C   0  0  0  0  0  3  0  0  0  0  0  0
  -41.2260  -22.8030   14.4730 C   0  0  0  0  0  3  0  0  0  0  0  0
  -40.8320  -21.1690   16.4190 C   0  0  0  0  0  2  0  0  0  0  0  0
  -41.4910  -22.1080   18.6870 N   0  0  0  0  0  0  0  0  0  0  0  0
  -42.4660  -20.9450   20.3680 O   0  0  0  0  0  0  0  0  0  0  0  0
  -43.0840  -20.6110   17.3890 C   0  0  0  0  0  0  0  0  0  0  0  0
  -43.3280  -19.3420   17.0220 N   0  0  0  0  0  0  0  0  0  0  0  0
  -43.9600  -21.4790   17.4180 O   0  0  0  0  0  0  0  0  0  0  0  0
  -42.5550  -18.6920   17.0330 H   0  0  0  0  0  0  0  0  0  0  0  0
  -45.0260  -16.3040   16.0630 C   0  0  0  0  0  0  0  0  0  0  0  0
  -44.6190  -18.7980   16.6070 C   0  0  0  0  0  3  0  0  0  0  0  0
  -44.8760  -19.0620   15.1060 C   0  0  0  0  0  2  0  0  0  0  0  0
  -44.4220  -17.9100   14.2040 C   0  0  0  0  0  2  0  0  0  0  0  0
  -45.1470  -16.6150   14.5800 C   0  0  0  0  0  2  0  0  0  0  0  0
  -44.7630  -17.3260   17.0120 C   0  0  0  0  0  0  0  0  0  0  0  0
  -44.6230  -16.9770   18.3740 C   0  0  0  0  0  3  0  0  0  0  0  0
  -44.7460  -15.6380   18.7900 C   0  0  0  0  0  3  0  0  0  0  0  0
  -45.0230  -14.6330   17.8470 C   0  0  0  0  0  3  0  0  0  0  0  0
  -45.1690  -14.9670   16.4890 C   0  0  0  0  0  3  0  0  0  0  0  0
  -41.8940  -23.1950   20.9670 C   0  0  0  0  0  3  0  0  0  0  0  0
  -43.3050  -23.8170   21.3020 C   0  0  1  0  0  0  0  0  0  0  0  0
  -44.3330  -22.7830   21.8200 C   0  0  0  0  0  1  0  0  0  0  0  0
  -43.9050  -24.4960   20.0490 C   0  0  0  0  0  1  0  0  0  0  0  0
  -43.1500  -24.9240   22.3730 C   0  0  0  0  0  1  0  0  0  0  0  0
  -41.2370  -22.7020   22.1830 N   0  0  0  0  0  0  0  0  0  0  0  0
  -39.9400  -22.8800   22.4670 C   0  0  0  0  0  0  0  0  0  0  0  0
  -39.1810  -23.5460   21.7560 O   0  0  0  0  0  0  0  0  0  0  0  0
  -41.7820  -22.0970   22.7810 H   0  0  0  0  0  0  0  0  0  0  0  0
  -38.6340  -20.9330   23.3720 C   0  0  0  0  0  1  0  0  0  0  0  0
  -39.3970  -22.2150   23.7440 C   0  0  0  0  0  3  0  0  0  0  0  0
  -39.2250  -24.2540   25.0990 C   0  0  0  0  0  1  0  0  0  0  0  0
  -38.5220  -23.1000   24.5430 N   0  0  0  0  0  0  0  0  0  0  0  0
  -38.0970  -22.5880   25.3120 H   0  0  0  0  0  0  0  0  0  0  0  0
  -35.8580  -20.3760   16.1990 C   0  0  0  0  0  3  0  0  0  0  0  0
  -35.3940  -18.9070   16.4290 C   0  0  0  0  0  0  0  0  0  0  0  0
  -32.3630  -16.7900   16.4380 C   0  0  0  0  0  2  0  0  0  0  0  0
  -31.7940  -18.1910   16.5890 C   0  0  0  0  0  2  0  0  0  0  0  0
  -33.8660  -17.0110   16.5480 C   0  0  0  0  0  2  0  0  0  0  0  0
  -32.8540  -19.1100   15.9610 C   0  0  0  0  0  3  0  0  0  0  0  0
  -34.1360  -18.4220   16.2180 N   0  0  0  0  0  0  0  0  0  0  0  0
  -36.2640  -18.1500   16.8780 O   0  0  0  0  0  0  0  0  0  0  0  0
  -32.4880  -19.4030   14.4750 C   0  0  0  0  0  2  0  0  0  0  0  0
  -33.1780  -17.9570   12.5490 C   0  0  0  0  0  0  0  0  0  0  0  0
  -33.2730  -17.0350   10.2600 C   0  0  0  0  0  2  0  0  0  0  0  0
  -33.4120  -18.1580    9.2130 C   0  0  0  0  0  2  0  0  0  0  0  0
  -32.0340  -18.7200    8.8220 C   0  0  0  0  0  2  0  0  0  0  0  0
  -31.1750  -19.0860   10.0610 C   0  0  0  0  0  3  0  0  0  0  0  0
  -31.1500  -17.9120   11.0660 C   0  0  0  0  0  2  0  0  0  0  0  0
  -32.5400  -17.5530   11.4220 N   0  0  0  0  0  0  0  0  0  0  0  0
  -34.4060  -17.9910   12.6590 O   0  0  0  0  0  0  0  0  0  0  0  0
  -32.3500  -18.2810   13.5500 N   0  0  0  0  0  0  0  0  0  0  0  0
  -31.3940  -18.0050   13.3790 H   0  0  0  0  0  0  0  0  0  0  0  0
  -29.1340  -20.6610    9.9440 C   0  0  0  0  0  0  0  0  0  0  0  0
  -27.9340  -20.5560    9.2920 C   0  0  0  0  0  0  0  0  0  0  0  0
  -27.9570  -19.2920    8.6270 C   0  0  0  0  0  0  0  0  0  0  0  0
  -29.8230  -19.4890    9.6700 N   0  0  0  0  0  0  0  0  0  0  0  0
  -29.0790  -18.6440    8.9090 N   0  0  0  0  0  0  0  0  0  0  0  0
  -26.9990  -18.6860    7.6930 C   0  0  0  0  0  0  0  0  0  0  0  0
  -26.5350  -17.3640    7.8690 C   0  0  0  0  0  3  0  0  0  0  0  0
  -25.6020  -16.8080    6.9670 C   0  0  0  0  0  3  0  0  0  0  0  0
  -25.1200  -17.5760    5.8800 C   0  0  0  0  0  0  0  0  0  0  0  0
  -25.6020  -18.8830    5.6990 C   0  0  0  0  0  3  0  0  0  0  0  0
  -26.5340  -19.4340    6.5930 C   0  0  0  0  0  3  0  0  0  0  0  0
  -24.2310  -17.1120    4.9400 O   0  0  0  0  0  0  0  0  0  0  0  0
  -23.3520  -16.0960    5.2190 C   0  0  0  0  0  0  0  0  0  0  0  0
  -22.4620  -16.1620    6.3140 C   0  0  0  0  0  3  0  0  0  0  0  0
  -21.5270  -15.1290    6.5240 C   0  0  0  0  0  3  0  0  0  0  0  0
  -21.4730  -14.0370    5.6390 C   0  0  0  0  0  0  0  0  0  0  0  0
  -22.3540  -13.9720    4.5450 C   0  0  0  0  0  3  0  0  0  0  0  0
  -23.2890  -15.0010    4.3350 C   0  0  0  0  0  0  0  0  0  0  0  0
  -24.1220  -14.9440    3.2680 F   0  0  0  0  0  0  0  0  0  0  0  0
  -20.5690  -13.0480    5.8360 F   0  0  0  0  0  0  0  0  0  0  0  0
  -26.8630  -21.6040    9.2120 C   0  0  0  0  0  0  0  0  0  0  0  0
  -25.5990  -21.1950    9.2410 N   0  0  0  0  0  0  0  0  0  0  0  0
  -27.1430  -22.8020    9.1710 O   0  0  0  0  0  0  0  0  0  0  0  0
  -25.3690  -20.2150    9.2920 H   0  0  0  0  0  0  0  0  0  0  0  0
  -24.8520  -21.8750    9.2100 H   0  0  0  0  0  0  0  0  0  0  0  0
  -29.7030  -21.6590   10.7300 N   0  0  0  0  0  0  0  0  0  0  0  0
  -29.2400  -22.5440   10.8990 H   0  0  0  0  0  0  0  0  0  0  0  0
  -30.6320  -21.6170   11.1270 H   0  0  0  0  0  0  0  0  0  0  0  0
  -36.8660  -23.6480   13.6920 C   0  0  0  0  0  2  0  0  0  0  0  0
  -35.4410  -23.3750   14.1920 C   0  0  0  0  0  2  0  0  0  0  0  0
  -37.8930  -22.8270   14.4810 C   0  0  0  0  0  2  0  0  0  0  0  0
  -35.0880  -21.8780   14.0880 C   0  0  0  0  0  2  0  0  0  0  0  0
  -37.5860  -21.3240   14.3940 C   0  0  0  0  0  2  0  0  0  0  0  0
  -36.1230  -20.9200   14.7440 C   0  0  0  0  0  3  0  0  0  0  0  0
  1  2  1  0
  3  1  1  0
  4  5  1  0
  5 12  1  0
  5  2  1  0
  6  4  1  0
  6  3  1  0
  6  7  1  6
  8 10  1  0
  9 11  2  0
  9 12  1  0
 11 13  1  0
 12  8  2  0
 13 14  1  0
 13 10  2  0
 15 14  1  0
 16 15  1  0
 17 16  1  0
 18 16  1  0
 19 16  1  0
 20 19  1  0
 21 23  1  0
 21 20  1  0
 22 33  2  0
 23 28  1  0
 24 34  1  0
 24 32  1  0
 25 31  1  0
 25 27  1  0
 26 32  1  0
 27 26  1  0
 28 27  2  0
 29 30  1  0
 29 23  2  0
 30 25  2  0
 31 24  1  0
 32 22  1  0
 34 36  2  0
 35 37  1  0
 35 34  1  0
 38 47  2  0
 38 43  1  0
 39 43  1  0
 39 35  1  0
 40 39  1  0
 41 42  1  0
 41 40  1  0
 42 38  1  0
 43 44  2  0
 44 45  1  0
 46 45  2  0
 47 46  1  0
 48 22  1  0
 48 49  1  0
 48 53  1  0
 49 50  1  1
 49 52  1  0
 51 49  1  0
 53 54  1  0
 53 56  1  0
 54 58  1  0
 55 54  2  0
 58 57  1  0
 58 60  1  0
 60 59  1  0
 60 61  1  0
 62 63  1  0
 62  6  1  0
 63 69  2  0
 64 66  1  0
 64 65  1  0
 67 70  1  0
 67 68  1  0
 67 65  1  0
 68 63  1  0
 68 66  1  0
 71 78  2  0
 71 79  1  0
 72 77  1  0
 73 72  1  0
 74 73  1  0
 75 74  1  0
 75 76  1  0
 76 77  1  0
 77 71  1  0
 79 70  1  0
 80 79  1  0
 81106  1  0
 82 81  2  0
 83 85  2  0
 83 82  1  0
 84 81  1  0
 84 75  1  0
 85 84  1  0
 86 87  1  0
 86 83  1  0
 88 87  2  0
 89 88  1  0
 90 89  2  0
 90 91  1  0
 91 86  2  0
 92 93  1  0
 92 89  1  0
 93 94  1  0
 94 95  2  0
 96100  1  0
 96 95  1  0
 97 96  2  0
 98 97  1  0
 98 93  2  0
 99 98  1  0
101102  1  0
101 82  1  0
102104  1  0
103101  2  0
105102  1  0
106107  1  0
106108  1  0
109110  1  0
109111  1  0
112110  1  0
112114  1  0
113111  1  0
113114  1  0
114 62  1  0
M  ISO  4  20 101  21 101  71 100  79 100
M  END
>  <TORSDO>  (6) 
F 26

>  <SCORE>  (6) 
-2.450

>  <name>  (6) 
5

>  <ligand_id>  (6) 
5

>  <original_smiles>  (6) 
[H]c1c([H])c([H])c2c(c1[H])C([H])([H])C([H])([H])C([H])([H])C2([H])N([H])C(=O)C1([H])N(C(=O)C([H])(N([H])C(=O)C([H])(N([H])C([H])([H])[H])C([H])([H])[H])C(C([H])([H])[H])(C([H])([H])[H])C([H])([H])[H])C([H])([H])c2c([H])c(OC([H])([H])C([H])([H])[N+]([H])([H])C([H])([H])C([H])([H])c3c([H])c([H])c(C4([H])C([H])([H])C([H])([H])C([H])([H])[N+]([H])(C([H])(C(=O)N5C([H])([H])C([H])([H])C([H])([H])C5([H])C([H])([H])N([H])C(=O)N5C([H])([H])C([H])([H])C([H])([H])C([H])(n6nc(-c7c([H])c([H])c(Oc8c([H])c([H])c(F)c([H])c8F)c([H])c7[H])c(C(=O)N([H])[H])c6N([H])[H])C5([H])[H])C5([H])C([H])([H])C([H])([H])C([H])([H])C([H])([H])C5([H])[H])C4([H])[H])c([H])c3[H])c([H])c([H])c2C1([H])[H]

>  <smiles>  (6) 
[H]c1c([H])c([H])c2c(c1[H])C([H])([H])C([H])([H])C([H])([H])C2([H])N([H])C(=O)C1([H])N(C(=O)C([H])(N([H])C(=O)C([H])(N([H])C([H])([H])[H])C([H])([H])[H])C(C([H])([H])[H])(C([H])([H])[H])C([H])([H])[H])C([H])([H])c2c([H])c(OC([H])([H])C([H])([H])[N+]([H])([H])C([H])([H])C([H])([H])c3c([H])c([H])c(C4([H])C([H])([H])C([H])([H])C([H])([H])[N+]([H])(C([H])(C(=O)N5C([H])([H])C([H])([H])C([H])([H])C5([H])C([H])([H])N([H])C(=O)N5C([H])([H])C([H])([H])C([H])([H])C([H])(n6nc(-c7c([H])c([H])c(Oc8c([H])c([H])c(F)c([H])c8F)c([H])c7[H])c(C(=O)N([H])[H])c6N([H])[H])C5([H])[H])C5([H])C([H])([H])C([H])([H])C([H])([H])C([H])([H])C5([H])[H])C4([H])[H])c([H])c3[H])c([H])c([H])c2C1([H])[H]

$$$$
6:0:0
     RDKit          3D

 90 99  0  0  1  0  0  0  0  0999 V2000
  -30.5470  -22.5500   18.6550 C   0  0  0  0  0  3  0  0  0  0  0  0
  -30.3460  -21.2310   19.1240 C   0  0  0  0  0  3  0  0  0  0  0  0
  -29.8040  -23.6490   19.1430 C   0  0  0  0  0  3  0  0  0  0  0  0
  -28.6360  -22.0930   20.6040 C   0  0  0  0  0  3  0  0  0  0  0  0
  -29.3920  -20.9230   20.1200 C   0  0  0  0  0  0  0  0  0  0  0  0
  -28.8190  -23.4820   20.1340 C   0  0  0  0  0  0  0  0  0  0  0  0
  -30.5830  -14.8580   20.3460 C   0  0  0  0  0  0  0  0  0  0  0  0
  -30.3440  -12.5500   19.3670 C   0  0  0  0  0  2  0  0  0  0  0  0
  -29.4030  -12.5410   18.1450 C   0  0  0  0  0  2  0  0  0  0  0  0
  -27.9450  -12.3410   18.5970 C   0  0  0  0  0  2  0  0  0  0  0  0
  -27.5590  -13.2660   19.7820 C   0  0  0  0  0  3  0  0  0  0  0  0
  -28.6290  -13.2820   20.8940 C   0  0  0  0  0  2  0  0  0  0  0  0
  -29.9010  -13.6520   20.2630 N   0  0  0  0  0  0  0  0  0  0  0  0
  -31.7920  -14.8400   20.0970 O   0  0  0  0  0  0  0  0  0  0  0  0
  -28.8340  -18.2900   19.5230 C   0  0  0  0  0  2  0  0  0  0  0  0
  -30.6080  -18.6770   21.0770 C   0  0  0  0  0  2  0  0  0  0  0  0
  -28.7880  -16.7280   19.9280 C   0  0  0  0  0  2  0  0  0  0  0  0
  -30.5630  -17.1430   21.5300 C   0  0  0  0  0  2  0  0  0  0  0  0
  -29.2790  -19.3630   20.5930 C   0  0  0  0  0  3  0  0  0  0  0  0
  -29.9560  -16.1010   20.6310 N   0  0  0  0  0  0  0  0  0  0  0  0
  -25.1890  -13.8530   20.5420 C   0  0  0  0  0  0  0  0  0  0  0  0
  -24.1260  -13.0800   20.9200 C   0  0  0  0  0  0  0  0  0  0  0  0
  -24.5890  -11.7280   20.8870 C   0  0  0  0  0  0  0  0  0  0  0  0
  -26.2280  -12.9730   20.2970 N   0  0  0  0  0  0  0  0  0  0  0  0
  -25.8780  -11.6900   20.5710 N   0  0  0  0  0  0  0  0  0  0  0  0
  -23.8620  -10.4660   21.0790 C   0  0  0  0  0  0  0  0  0  0  0  0
  -24.3100   -9.4890   21.9940 C   0  0  0  0  0  3  0  0  0  0  0  0
  -23.5820   -8.2930   22.1770 C   0  0  0  0  0  3  0  0  0  0  0  0
  -22.3920   -8.0680   21.4430 C   0  0  0  0  0  0  0  0  0  0  0  0
  -21.9640   -9.0350   20.5170 C   0  0  0  0  0  3  0  0  0  0  0  0
  -22.6930  -10.2220   20.3330 C   0  0  0  0  0  3  0  0  0  0  0  0
  -21.6340   -6.9260   21.5370 O   0  0  0  0  0  0  0  0  0  0  0  0
  -21.6200   -6.1630   22.6770 C   0  0  0  0  0  0  0  0  0  0  0  0
  -21.2540   -6.7030   23.9300 C   0  0  0  0  0  3  0  0  0  0  0  0
  -21.1850   -5.8680   25.0620 C   0  0  0  0  0  3  0  0  0  0  0  0
  -21.4710   -4.4940   24.9450 C   0  0  0  0  0  0  0  0  0  0  0  0
  -21.8300   -3.9540   23.6970 C   0  0  0  0  0  3  0  0  0  0  0  0
  -21.9010   -4.7860   22.5660 C   0  0  0  0  0  0  0  0  0  0  0  0
  -22.2260   -4.2570   21.3620 F   0  0  0  0  0  0  0  0  0  0  0  0
  -21.3970   -3.6900   26.0310 F   0  0  0  0  0  0  0  0  0  0  0  0
  -22.7300  -13.5590   21.1960 C   0  0  0  0  0  0  0  0  0  0  0  0
  -22.0070  -12.8670   22.0680 N   0  0  0  0  0  0  0  0  0  0  0  0
  -22.2920  -14.5820   20.6730 O   0  0  0  0  0  0  0  0  0  0  0  0
  -22.3760  -12.0400   22.5130 H   0  0  0  0  0  0  0  0  0  0  0  0
  -21.0710  -13.1710   22.2970 H   0  0  0  0  0  0  0  0  0  0  0  0
  -25.3500  -15.2220   20.3610 N   0  0  0  0  0  0  0  0  0  0  0  0
  -24.5820  -15.8760   20.4760 H   0  0  0  0  0  0  0  0  0  0  0  0
  -26.1950  -15.6600   20.0200 H   0  0  0  0  0  0  0  0  0  0  0  0
  -27.9610  -24.7790   20.6000 C   0  0  0  0  0  2  0  0  0  0  0  0
  -28.2690  -26.2330   20.2060 O   0  0  0  0  0  0  0  0  0  0  0  0
  -24.6470  -31.8690   23.2130 C   0  0  0  0  0  0  0  0  0  0  0  0
  -27.2060  -27.1900   20.1810 C   0  0  0  0  0  0  0  0  0  0  0  0
  -23.4330  -30.4650   21.5890 C   0  0  0  0  0  3  0  0  0  0  0  0
  -24.8720  -28.8950   20.1600 C   0  0  0  0  0  0  0  0  0  0  0  0
  -25.9820  -30.7470   21.3980 C   0  0  0  0  0  2  0  0  0  0  0  0
  -26.0530  -29.3560   20.7550 C   0  0  0  0  0  0  0  0  0  0  0  0
  -27.2260  -28.5190   20.7500 C   0  0  0  0  0  3  0  0  0  0  0  0
  -26.0050  -26.8240   19.5360 C   0  0  0  0  0  3  0  0  0  0  0  0
  -24.8580  -27.6400   19.5350 C   0  0  0  0  0  3  0  0  0  0  0  0
  -23.6420  -29.7860   20.2100 C   0  0  0  0  0  2  0  0  0  0  0  0
  -24.7070  -31.0470   22.1220 N   0  0  0  0  0  0  0  0  0  0  0  0
  -23.5660  -32.1530   23.7500 O   0  0  0  0  0  0  0  0  0  0  0  0
  -22.7680  -29.4570   22.5590 C   0  0  0  0  0  0  0  0  0  0  0  0
  -21.4400  -29.2840   22.4450 N   0  0  0  0  0  0  0  0  0  0  0  0
  -23.4490  -28.8330   23.3770 O   0  0  0  0  0  0  0  0  0  0  0  0
  -20.9480  -29.8400   21.7570 H   0  0  0  0  0  0  0  0  0  0  0  0
  -18.0650  -28.0800   22.9700 C   0  0  0  0  0  0  0  0  0  0  0  0
  -20.6250  -28.3510   23.2270 C   0  0  0  0  0  3  0  0  0  0  0  0
  -20.7290  -26.9150   22.6640 C   0  0  0  0  0  2  0  0  0  0  0  0
  -19.6240  -26.5790   21.6570 C   0  0  0  0  0  2  0  0  0  0  0  0
  -18.2440  -26.7260   22.3040 C   0  0  0  0  0  2  0  0  0  0  0  0
  -19.1840  -28.8500   23.3890 C   0  0  0  0  0  0  0  0  0  0  0  0
  -18.9620  -30.1160   23.9720 C   0  0  0  0  0  3  0  0  0  0  0  0
  -17.6560  -30.6130   24.1410 C   0  0  0  0  0  3  0  0  0  0  0  0
  -16.5530  -29.8410   23.7380 C   0  0  0  0  0  3  0  0  0  0  0  0
  -16.7590  -28.5760   23.1570 C   0  0  0  0  0  3  0  0  0  0  0  0
  -25.9310  -32.5070   23.8250 C   0  0  0  0  0  3  0  0  0  0  0  0
  -25.6150  -33.9000   24.1730 N   0  0  0  0  0  0  0  0  0  0  0  0
  -25.9240  -34.9650   23.4190 C   0  0  0  0  0  0  0  0  0  0  0  0
  -26.5730  -34.8770   22.3730 O   0  0  0  0  0  0  0  0  0  0  0  0
  -25.0370  -34.0430   24.9880 H   0  0  0  0  0  0  0  0  0  0  0  0
  -24.1710  -36.7470   23.1260 C   0  0  0  0  0  1  0  0  0  0  0  0
  -25.4370  -36.3460   23.9010 C   0  0  0  0  0  3  0  0  0  0  0  0
  -27.5860  -37.2410   24.6800 C   0  0  0  0  0  1  0  0  0  0  0  0
  -26.4560  -37.4090   23.7690 N   0  0  0  0  0  0  0  0  0  0  0  0
  -26.0470  -38.3240   23.9380 H   0  0  0  0  0  0  0  0  0  0  0  0
  -26.4660  -31.7310   25.0900 C   0  0  1  0  0  0  0  0  0  0  0  0
  -25.3880  -31.4830   26.1720 C   0  0  0  0  0  1  0  0  0  0  0  0
  -27.0500  -30.3570   24.6870 C   0  0  0  0  0  1  0  0  0  0  0  0
  -27.6230  -32.5260   25.7410 C   0  0  0  0  0  1  0  0  0  0  0  0
  1  2  2  0
  1  3  1  0
  2  5  1  0
  3  6  2  0
  5  4  2  0
  6 49  1  0
  6  4  1  0
  7 20  1  0
  8 13  1  0
  9 10  1  0
  9  8  1  0
 11 10  1  0
 11 24  1  0
 11 12  1  0
 13  7  1  0
 13 12  1  0
 14  7  2  0
 15 17  1  0
 15 19  1  0
 16 18  1  0
 17 20  1  0
 19  5  1  0
 19 16  1  0
 20 18  1  0
 21 22  2  0
 22 41  1  0
 23 22  1  0
 23 26  1  0
 24 21  1  0
 24 25  1  0
 25 23  2  0
 26 27  1  0
 27 28  2  0
 29 32  1  0
 29 28  1  0
 30 29  2  0
 31 30  1  0
 31 26  2  0
 32 33  1  0
 33 34  1  0
 34 35  2  0
 36 35  1  0
 36 40  1  0
 37 36  2  0
 38 33  2  0
 38 37  1  0
 39 38  1  0
 41 42  1  0
 42 45  1  0
 42 44  1  0
 43 41  2  0
 46 47  1  0
 46 21  1  0
 48 46  1  0
 50 49  1  0
 51 62  2  0
 52 50  1  0
 52 57  1  0
 53 61  1  0
 53 63  1  0
 54 60  1  0
 54 56  1  0
 55 61  1  0
 56 55  1  0
 57 56  2  0
 58 52  2  0
 59 58  1  0
 59 54  2  0
 60 53  1  0
 61 51  1  0
 63 65  2  0
 64 63  1  0
 66 64  1  0
 67 76  2  0
 67 72  1  0
 68 64  1  0
 68 72  1  0
 69 68  1  0
 70 71  1  0
 70 69  1  0
 71 67  1  0
 72 73  2  0
 73 74  1  0
 75 74  2  0
 76 75  1  0
 77 51  1  0
 77 78  1  0
 77 87  1  0
 78 81  1  0
 79 83  1  0
 79 78  1  0
 80 79  2  0
 83 82  1  0
 85 83  1  0
 85 86  1  0
 85 84  1  0
 87 90  1  1
 87 88  1  0
 89 87  1  0
M  ISO  4   7 100  20 100  49 101  50 101
M  END
>  <TORSDO>  (7) 
F 17

>  <SCORE>  (7) 
-15.194

>  <name>  (7) 
6

>  <ligand_id>  (7) 
6

>  <original_smiles>  (7) 
[H]c1c([H])c([H])c2c(c1[H])C([H])([H])C([H])([H])C([H])([H])C2([H])N([H])C(=O)C1([H])N(C(=O)C([H])(N([H])C(=O)C([H])(N([H])C([H])([H])[H])C([H])([H])[H])C(C([H])([H])[H])(C([H])([H])[H])C([H])([H])[H])C([H])([H])c2c([H])c(OC([H])([H])c3c([H])c([H])c([H])c(C4([H])C([H])([H])C([H])([H])N(C(=O)N5C([H])([H])C([H])([H])C([H])([H])C([H])(n6nc(-c7c([H])c([H])c(Oc8c([H])c([H])c(F)c([H])c8F)c([H])c7[H])c(C(=O)N([H])[H])c6N([H])[H])C5([H])[H])C([H])([H])C4([H])[H])c3[H])c([H])c([H])c2C1([H])[H]

>  <smiles>  (7) 
[H]c1c([H])c([H])c2c(c1[H])C([H])([H])C([H])([H])C([H])([H])C2([H])N([H])C(=O)C1([H])N(C(=O)C([H])(N([H])C(=O)C([H])(N([H])C([H])([H])[H])C([H])([H])[H])C(C([H])([H])[H])(C([H])([H])[H])C([H])([H])[H])C([H])([H])c2c([H])c(OC([H])([H])c3c([H])c([H])c([H])c(C4([H])C([H])([H])C([H])([H])N(C(=O)N5C([H])([H])C([H])([H])C([H])([H])C([H])(n6nc(-c7c([H])c([H])c(Oc8c([H])c([H])c(F)c([H])c8F)c([H])c7[H])c(C(=O)N([H])[H])c6N([H])[H])C5([H])[H])C([H])([H])C4([H])[H])c3[H])c([H])c([H])c2C1([H])[H]

$$$$
7:0:0
     RDKit          3D

 93103  0  0  1  0  0  0  0  0999 V2000
  -30.7230  -14.6870   20.5030 C   0  0  0  0  0  0  0  0  0  0  0  0
  -30.4080  -12.4840   19.4200 C   0  0  0  0  0  2  0  0  0  0  0  0
  -29.4730  -12.6130   18.1930 C   0  0  0  0  0  2  0  0  0  0  0  0
  -27.9860  -12.5520   18.6090 C   0  0  0  0  0  2  0  0  0  0  0  0
  -27.6420  -13.3840   19.8810 C   0  0  0  0  0  3  0  0  0  0  0  0
  -28.7090  -13.2090   20.9820 C   0  0  0  0  0  2  0  0  0  0  0  0
  -30.0120  -13.5230   20.3840 N   0  0  0  0  0  0  0  0  0  0  0  0
  -31.9490  -14.7080   20.4120 O   0  0  0  0  0  0  0  0  0  0  0  0
  -29.4810  -18.8370   18.4660 C   0  0  0  0  0  2  0  0  0  0  0  0
  -30.7950  -16.6190   17.9680 C   0  0  0  0  0  2  0  0  0  0  0  0
  -30.1210  -16.9790   21.2850 C   0  0  0  0  0  2  0  0  0  0  0  0
  -29.0720  -20.5150   20.3230 C   0  0  0  0  0  2  0  0  0  0  0  0
  -30.5970  -19.5750   21.8200 C   0  0  0  0  0  2  0  0  0  0  0  0
  -29.4910  -17.3880   18.0340 C   0  0  0  0  0  3  0  0  0  0  0  0
  -29.2090  -19.0170   19.9500 C   0  0  0  0  0  3  0  0  0  0  0  0
  -30.3670  -18.4460   20.7780 C   0  0  0  0  0  3  0  0  0  0  0  0
  -29.6930  -16.1170   18.8720 C   0  0  0  0  0  3  0  0  0  0  0  0
  -30.0520  -15.8690   20.2710 N   0  0  0  0  0  0  0  0  0  0  0  0
  -30.2730  -20.8460   21.1090 N   0  0  2  0  0  4  0  0  0  0  0  0
  -31.0070  -20.9730   20.4280 H   0  0  0  0  0  0  0  0  0  0  0  0
  -25.2390  -13.9950   20.5190 C   0  0  0  0  0  0  0  0  0  0  0  0
  -24.1610  -13.2230   20.8670 C   0  0  0  0  0  0  0  0  0  0  0  0
  -24.6290  -11.8760   20.8730 C   0  0  0  0  0  0  0  0  0  0  0  0
  -26.2930  -13.1120   20.3510 N   0  0  0  0  0  0  0  0  0  0  0  0
  -25.9310  -11.8350   20.6260 N   0  0  0  0  0  0  0  0  0  0  0  0
  -23.9050  -10.6140   21.0530 C   0  0  0  0  0  0  0  0  0  0  0  0
  -24.3210   -9.6580   22.0050 C   0  0  0  0  0  3  0  0  0  0  0  0
  -23.5980   -8.4590   22.1720 C   0  0  0  0  0  3  0  0  0  0  0  0
  -22.4450   -8.2120   21.3920 C   0  0  0  0  0  0  0  0  0  0  0  0
  -22.0510   -9.1570   20.4270 C   0  0  0  0  0  3  0  0  0  0  0  0
  -22.7740  -10.3480   20.2580 C   0  0  0  0  0  3  0  0  0  0  0  0
  -21.6930   -7.0650   21.4650 O   0  0  0  0  0  0  0  0  0  0  0  0
  -21.6190   -6.3290   22.6180 C   0  0  0  0  0  0  0  0  0  0  0  0
  -21.1700   -6.8910   23.8320 C   0  0  0  0  0  3  0  0  0  0  0  0
  -21.0420   -6.0810   24.9790 C   0  0  0  0  0  3  0  0  0  0  0  0
  -21.3590   -4.7090   24.9090 C   0  0  0  0  0  0  0  0  0  0  0  0
  -21.7990   -4.1460   23.6980 C   0  0  0  0  0  3  0  0  0  0  0  0
  -21.9270   -4.9550   22.5550 C   0  0  0  0  0  0  0  0  0  0  0  0
  -22.3350   -4.4050   21.3860 F   0  0  0  0  0  0  0  0  0  0  0  0
  -21.2270   -3.9340   26.0090 F   0  0  0  0  0  0  0  0  0  0  0  0
  -22.7570  -13.7080   21.0900 C   0  0  0  0  0  0  0  0  0  0  0  0
  -21.9960  -13.0320   21.9400 N   0  0  0  0  0  0  0  0  0  0  0  0
  -22.3390  -14.7280   20.5460 O   0  0  0  0  0  0  0  0  0  0  0  0
  -22.3520  -12.2300   22.4340 H   0  0  0  0  0  0  0  0  0  0  0  0
  -21.0480  -13.3360   22.1140 H   0  0  0  0  0  0  0  0  0  0  0  0
  -25.3940  -15.3630   20.3150 N   0  0  0  0  0  0  0  0  0  0  0  0
  -24.5870  -15.9780   20.3060 H   0  0  0  0  0  0  0  0  0  0  0  0
  -26.2540  -15.8260   20.0470 H   0  0  0  0  0  0  0  0  0  0  0  0
  -30.2380  -22.1020   21.9370 C   0  0  0  0  0  2  0  0  0  0  0  0
  -29.5400  -23.3700   21.3180 C   0  0  0  0  0  2  0  0  0  0  0  0
  -29.6990  -24.6680   22.1790 C   0  0  0  0  0  2  0  0  0  0  0  0
  -28.6060  -25.7780   22.0400 C   0  0  0  0  0  2  0  0  0  0  0  0
  -28.7430  -26.7000   20.9270 O   0  0  0  0  0  0  0  0  0  0  0  0
  -24.6880  -31.9900   23.4150 C   0  0  0  0  0  0  0  0  0  0  0  0
  -27.6130  -27.4750   20.7400 C   0  0  0  0  0  0  0  0  0  0  0  0
  -23.6120  -30.4950   21.7570 C   0  0  0  0  0  3  0  0  0  0  0  0
  -25.1930  -28.9330   20.4860 C   0  0  0  0  0  0  0  0  0  0  0  0
  -26.1340  -30.9070   21.7000 C   0  0  0  0  0  2  0  0  0  0  0  0
  -26.2980  -29.5120   21.1240 C   0  0  0  0  0  0  0  0  0  0  0  0
  -27.5110  -28.7920   21.2470 C   0  0  0  0  0  3  0  0  0  0  0  0
  -26.5000  -26.9150   20.0800 C   0  0  0  0  0  3  0  0  0  0  0  0
  -25.2910  -27.6310   19.9550 C   0  0  0  0  0  3  0  0  0  0  0  0
  -23.9270  -29.7640   20.4200 C   0  0  0  0  0  2  0  0  0  0  0  0
  -24.8220  -31.1470   22.3500 N   0  0  0  0  0  0  0  0  0  0  0  0
  -23.5720  -32.2620   23.8790 O   0  0  0  0  0  0  0  0  0  0  0  0
  -22.9260  -29.4980   22.7190 C   0  0  0  0  0  0  0  0  0  0  0  0
  -21.6150  -29.2830   22.5260 N   0  0  0  0  0  0  0  0  0  0  0  0
  -23.5700  -28.9220   23.5980 O   0  0  0  0  0  0  0  0  0  0  0  0
  -21.1500  -29.8160   21.8060 H   0  0  0  0  0  0  0  0  0  0  0  0
  -18.2450  -28.0240   22.8630 C   0  0  0  0  0  0  0  0  0  0  0  0
  -20.7750  -28.3530   23.2830 C   0  0  0  0  0  3  0  0  0  0  0  0
  -20.9470  -26.9040   22.7720 C   0  0  0  0  0  2  0  0  0  0  0  0
  -19.9160  -26.5100   21.7090 C   0  0  0  0  0  2  0  0  0  0  0  0
  -18.4920  -26.6510   22.2560 C   0  0  0  0  0  2  0  0  0  0  0  0
  -19.3190  -28.8270   23.3310 C   0  0  0  0  0  0  0  0  0  0  0  0
  -19.0390  -30.1080   23.8560 C   0  0  0  0  0  3  0  0  0  0  0  0
  -17.7180  -30.5870   23.9180 C   0  0  0  0  0  3  0  0  0  0  0  0
  -16.6570  -29.7820   23.4650 C   0  0  0  0  0  3  0  0  0  0  0  0
  -16.9210  -28.5010   22.9460 C   0  0  0  0  0  3  0  0  0  0  0  0
  -25.9240  -32.6720   24.0800 C   0  0  0  0  0  3  0  0  0  0  0  0
  -26.3800  -31.9680   25.4180 C   0  0  1  0  0  0  0  0  0  0  0  0
  -25.2280  -31.7550   26.4290 C   0  0  0  0  0  1  0  0  0  0  0  0
  -27.0170  -30.5890   25.1230 C   0  0  0  0  0  1  0  0  0  0  0  0
  -27.4730  -32.8150   26.1090 C   0  0  0  0  0  1  0  0  0  0  0  0
  -25.5730  -34.0770   24.3300 N   0  0  0  0  0  0  0  0  0  0  0  0
  -25.9210  -35.1000   23.5370 C   0  0  0  0  0  0  0  0  0  0  0  0
  -26.6420  -34.9620   22.5440 O   0  0  0  0  0  0  0  0  0  0  0  0
  -24.9470  -34.2560   25.1020 H   0  0  0  0  0  0  0  0  0  0  0  0
  -24.1690  -36.8240   23.0140 C   0  0  0  0  0  1  0  0  0  0  0  0
  -25.3830  -36.4960   23.8990 C   0  0  0  0  0  3  0  0  0  0  0  0
  -27.4590  -37.4730   24.7710 C   0  0  0  0  0  1  0  0  0  0  0  0
  -26.3960  -37.5660   23.7750 N   0  0  0  0  0  0  0  0  0  0  0  0
  -25.9630  -38.4820   23.8600 H   0  0  0  0  0  0  0  0  0  0  0  0
  2  7  1  0
  3  4  1  0
  3  2  1  0
  5  4  1  0
  5 24  1  0
  5  6  1  0
  7  1  1  0
  7  6  1  0
  8  1  2  0
 12 19  1  0
 14 10  1  0
 14  9  1  0
 14 17  1  0
 15  9  1  0
 15 12  1  0
 15 16  1  0
 16 11  1  0
 16 13  1  0
 17 10  1  0
 17 18  1  0
 18  1  1  0
 18 11  1  0
 19 13  1  0
 19 49  1  0
 19 20  1  6
 21 22  2  0
 22 23  1  0
 22 41  1  0
 23 26  1  0
 24 21  1  0
 24 25  1  0
 25 23  2  0
 26 27  1  0
 27 28  2  0
 29 32  1  0
 29 28  1  0
 30 29  2  0
 31 30  1  0
 31 26  2  0
 32 33  1  0
 33 34  1  0
 34 35  2  0
 36 35  1  0
 36 40  1  0
 37 36  2  0
 38 33  2  0
 38 37  1  0
 39 38  1  0
 41 42  1  0
 42 45  1  0
 42 44  1  0
 43 41  2  0
 46 21  1  0
 47 46  1  0
 48 46  1  0
 50 49  1  0
 50 51  1  0
 52 51  1  0
 53 52  1  0
 54 65  2  0
 55 53  1  0
 55 60  1  0
 56 64  1  0
 56 66  1  0
 57 59  1  0
 58 64  1  0
 59 60  2  0
 59 58  1  0
 61 55  2  0
 62 61  1  0
 62 57  2  0
 63 57  1  0
 63 56  1  0
 64 54  1  0
 66 68  2  0
 67 66  1  0
 69 67  1  0
 70 79  2  0
 70 75  1  0
 71 67  1  0
 71 75  1  0
 72 71  1  0
 73 74  1  0
 73 72  1  0
 74 70  1  0
 75 76  2  0
 76 77  1  0
 78 77  2  0
 79 78  1  0
 80 54  1  0
 80 85  1  0
 80 81  1  0
 81 84  1  1
 81 82  1  0
 83 81  1  0
 85 88  1  0
 86 90  1  0
 86 85  1  0
 87 86  2  0
 90 89  1  0
 92 93  1  0
 92 90  1  0
 92 91  1  0
M  ISO  4   1 100  18 100  52 101  53 101
M  END
>  <TORSDO>  (8) 
F 19

>  <SCORE>  (8) 
-13.680

>  <name>  (8) 
7

>  <ligand_id>  (8) 
7

>  <original_smiles>  (8) 
[H]c1c([H])c([H])c2c(c1[H])C([H])([H])C([H])([H])C([H])([H])C2([H])N([H])C(=O)C1([H])N(C(=O)C([H])(N([H])C(=O)C([H])(N([H])C([H])([H])[H])C([H])([H])[H])C(C([H])([H])[H])(C([H])([H])[H])C([H])([H])[H])C([H])([H])c2c([H])c(OC([H])([H])C([H])([H])C([H])([H])C([H])([H])[N+]3([H])C([H])([H])C4([H])C([H])([H])N(C(=O)N5C([H])([H])C([H])([H])C([H])([H])C([H])(n6nc(-c7c([H])c([H])c(Oc8c([H])c([H])c(F)c([H])c8F)c([H])c7[H])c(C(=O)N([H])[H])c6N([H])[H])C5([H])[H])C5([H])C([H])([H])C5([H])C([H])([H])C4([H])C3([H])[H])c([H])c([H])c2C1([H])[H]

>  <smiles>  (8) 
[H]c1c([H])c([H])c2c(c1[H])C([H])([H])C([H])([H])C([H])([H])C2([H])N([H])C(=O)C1([H])N(C(=O)C([H])(N([H])C(=O)C([H])(N([H])C([H])([H])[H])C([H])([H])[H])C(C([H])([H])[H])(C([H])([H])[H])C([H])([H])[H])C([H])([H])c2c([H])c(OC([H])([H])C([H])([H])C([H])([H])C([H])([H])[N+]3([H])C([H])([H])C4([H])C([H])([H])N(C(=O)N5C([H])([H])C([H])([H])C([H])([H])C([H])(n6nc(-c7c([H])c([H])c(Oc8c([H])c([H])c(F)c([H])c8F)c([H])c7[H])c(C(=O)N([H])[H])c6N([H])[H])C5([H])[H])C5([H])C([H])([H])C5([H])C([H])([H])C4([H])C3([H])[H])c([H])c([H])c2C1([H])[H]

$$$$
8:0:0
     RDKit          3D

 98107  0  0  1  0  0  0  0  0999 V2000
  -27.4650  -22.5060   20.0470 C   0  0  0  0  0  0  0  0  0  0  0  0
  -28.2230  -21.5490   19.4730 N   0  0  0  0  0  0  0  0  0  0  0  0
  -26.3030  -22.6260   19.6630 O   0  0  0  0  0  0  0  0  0  0  0  0
  -27.7090  -21.0000   18.7980 H   0  0  0  0  0  0  0  0  0  0  0  0
  -29.4300  -24.9500   19.5880 C   0  0  0  0  0  0  0  0  0  0  0  0
  -29.6240  -22.7460   22.6060 C   0  0  0  0  0  2  0  0  0  0  0  0
  -28.1430  -23.0160   22.4920 C   0  0  0  0  0  2  0  0  0  0  0  0
  -30.2720  -23.8090   21.6920 C   0  0  0  0  0  2  0  0  0  0  0  0
  -27.9710  -23.5570   21.0660 C   0  0  0  0  0  3  0  0  0  0  0  0
  -29.2410  -24.1840   20.6990 N   0  0  0  0  0  0  0  0  0  0  0  0
  -30.5690  -25.2770   19.2330 O   0  0  0  0  0  0  0  0  0  0  0  0
  -28.2120  -25.3880   18.7180 C   0  0  0  0  0  2  0  0  0  0  0  0
  -28.1400  -26.8190   18.5190 O   0  0  0  0  0  0  0  0  0  0  0  0
  -24.6250  -31.2900   22.7340 C   0  0  0  0  0  0  0  0  0  0  0  0
  -26.9340  -27.4700   18.7240 C   0  0  0  0  0  0  0  0  0  0  0  0
  -23.2320  -30.0880   21.0780 C   0  0  0  0  0  3  0  0  0  0  0  0
  -24.5120  -28.8590   19.2450 C   0  0  0  0  0  0  0  0  0  0  0  0
  -25.6960  -30.5930   20.6010 C   0  0  0  0  0  2  0  0  0  0  0  0
  -25.7220  -29.3400   19.7550 C   0  0  0  0  0  0  0  0  0  0  0  0
  -26.9320  -28.6550   19.4940 C   0  0  0  0  0  3  0  0  0  0  0  0
  -25.7000  -27.0210   18.1880 C   0  0  0  0  0  3  0  0  0  0  0  0
  -24.4980  -27.6970   18.4570 C   0  0  0  0  0  3  0  0  0  0  0  0
  -23.2660  -29.6400   19.5880 C   0  0  0  0  0  2  0  0  0  0  0  0
  -24.5430  -30.6660   21.5260 N   0  0  0  0  0  0  0  0  0  0  0  0
  -23.6250  -31.4250   23.4550 O   0  0  0  0  0  0  0  0  0  0  0  0
  -22.7590  -28.9000   21.9470 C   0  0  0  0  0  0  0  0  0  0  0  0
  -21.4540  -28.5860   21.8770 N   0  0  0  0  0  0  0  0  0  0  0  0
  -23.5570  -28.2740   22.6500 O   0  0  0  0  0  0  0  0  0  0  0  0
  -20.8630  -29.1380   21.2690 H   0  0  0  0  0  0  0  0  0  0  0  0
  -18.2930  -26.8770   22.3130 C   0  0  0  0  0  0  0  0  0  0  0  0
  -20.7890  -27.4970   22.5880 C   0  0  0  0  0  3  0  0  0  0  0  0
  -21.0890  -26.1390   21.9240 C   0  0  0  0  0  2  0  0  0  0  0  0
  -20.0300  -25.7390   20.8930 C   0  0  0  0  0  2  0  0  0  0  0  0
  -18.6690  -25.6000   21.5810 C   0  0  0  0  0  2  0  0  0  0  0  0
  -19.2900  -27.7770   22.7670 C   0  0  0  0  0  0  0  0  0  0  0  0
  -18.8940  -28.9650   23.4140 C   0  0  0  0  0  3  0  0  0  0  0  0
  -17.5330  -29.2610   23.6090 C   0  0  0  0  0  3  0  0  0  0  0  0
  -16.5450  -28.3530   23.1750 C   0  0  0  0  0  3  0  0  0  0  0  0
  -16.9300  -27.1610   22.5340 C   0  0  0  0  0  3  0  0  0  0  0  0
  -25.9710  -31.8800   23.2590 C   0  0  0  0  0  3  0  0  0  0  0  0
  -26.7420  -30.9120   24.2410 C   0  0  1  0  0  0  0  0  0  0  0  0
  -25.8760  -30.3980   25.4140 C   0  0  0  0  0  1  0  0  0  0  0  0
  -27.2910  -29.6800   23.4830 C   0  0  0  0  0  1  0  0  0  0  0  0
  -27.9650  -31.6440   24.8420 C   0  0  0  0  0  1  0  0  0  0  0  0
  -25.6700  -33.1590   23.9160 N   0  0  0  0  0  0  0  0  0  0  0  0
  -25.8880  -34.3610   23.3720 C   0  0  0  0  0  0  0  0  0  0  0  0
  -26.4470  -34.5150   22.2830 O   0  0  0  0  0  0  0  0  0  0  0  0
  -25.1680  -33.1110   24.7890 H   0  0  0  0  0  0  0  0  0  0  0  0
  -24.0910  -36.1080   23.5830 C   0  0  0  0  0  1  0  0  0  0  0  0
  -25.4180  -35.5940   24.1660 C   0  0  0  0  0  3  0  0  0  0  0  0
  -27.6000  -36.3750   24.9750 C   0  0  0  0  0  1  0  0  0  0  0  0
  -26.4090  -36.6930   24.1930 N   0  0  0  0  0  0  0  0  0  0  0  0
  -25.9950  -37.5390   24.5760 H   0  0  0  0  0  0  0  0  0  0  0  0
  -29.6230  -21.1290   19.5890 C   0  0  0  0  0  2  0  0  0  0  0  0
  -29.9620  -19.1130   21.1330 C   0  0  0  0  0  3  0  0  0  0  0  0
  -29.6130  -18.7350   18.7540 C   0  0  0  0  0  3  0  0  0  0  0  0
  -30.0620  -17.7260   21.3370 C   0  0  0  0  0  3  0  0  0  0  0  0
  -29.7420  -17.3450   18.9550 C   0  0  0  0  0  3  0  0  0  0  0  0
  -29.7440  -19.6310   19.8360 C   0  0  0  0  0  0  0  0  0  0  0  0
  -30.0130  -16.8360   20.2470 C   0  0  0  0  0  0  0  0  0  0  0  0
  -30.9430  -14.5490   19.8830 C   0  0  0  0  0  0  0  0  0  0  0  0
  -30.7860  -12.2820   18.9440 C   0  0  0  0  0  2  0  0  0  0  0  0
  -29.7750  -12.3280   17.7780 C   0  0  0  0  0  2  0  0  0  0  0  0
  -28.3160  -12.2040   18.2740 C   0  0  0  0  0  2  0  0  0  0  0  0
  -28.0100  -13.1740   19.4460 C   0  0  0  0  0  3  0  0  0  0  0  0
  -29.0900  -12.9830   20.5330 C   0  0  0  0  0  2  0  0  0  0  0  0
  -30.3910  -13.3090   19.9180 N   0  0  0  0  0  0  0  0  0  0  0  0
  -31.9920  -14.8230   19.2880 O   0  0  0  0  0  0  0  0  0  0  0  0
  -30.1980  -15.4600   20.5280 N   0  0  0  0  0  0  0  0  0  0  0  0
  -29.5440  -15.0590   21.1830 H   0  0  0  0  0  0  0  0  0  0  0  0
  -25.6680  -13.8900   20.2710 C   0  0  0  0  0  0  0  0  0  0  0  0
  -24.5870  -13.1530   20.6930 C   0  0  0  0  0  0  0  0  0  0  0  0
  -24.9940  -11.7890   20.6230 C   0  0  0  0  0  0  0  0  0  0  0  0
  -26.6650  -12.9660   19.9820 N   0  0  0  0  0  0  0  0  0  0  0  0
  -26.2640  -11.7000   20.2510 N   0  0  0  0  0  0  0  0  0  0  0  0
  -24.2300  -10.5510   20.8400 C   0  0  0  0  0  0  0  0  0  0  0  0
  -24.6220   -9.6040   21.8110 C   0  0  0  0  0  3  0  0  0  0  0  0
  -23.8680   -8.4270   22.0080 C   0  0  0  0  0  3  0  0  0  0  0  0
  -22.7050   -8.1920   21.2370 C   0  0  0  0  0  0  0  0  0  0  0  0
  -22.3330   -9.1270   20.2540 C   0  0  0  0  0  3  0  0  0  0  0  0
  -23.0880  -10.2960   20.0550 C   0  0  0  0  0  3  0  0  0  0  0  0
  -21.9260   -7.0650   21.3410 O   0  0  0  0  0  0  0  0  0  0  0  0
  -21.7740   -6.4060   22.5340 C   0  0  0  0  0  0  0  0  0  0  0  0
  -21.2550   -7.0490   23.6780 C   0  0  0  0  0  3  0  0  0  0  0  0
  -21.0540   -6.3170   24.8650 C   0  0  0  0  0  3  0  0  0  0  0  0
  -21.3530   -4.9420   24.9030 C   0  0  0  0  0  0  0  0  0  0  0  0
  -21.8630   -4.2990   23.7620 C   0  0  0  0  0  3  0  0  0  0  0  0
  -22.0710   -5.0290   22.5790 C   0  0  0  0  0  0  0  0  0  0  0  0
  -22.5420   -4.4020   21.4740 F   0  0  0  0  0  0  0  0  0  0  0  0
  -21.1530   -4.2340   26.0400 F   0  0  0  0  0  0  0  0  0  0  0  0
  -23.2240  -13.6830   21.0350 C   0  0  0  0  0  0  0  0  0  0  0  0
  -22.5200  -13.0110   21.9450 N   0  0  0  0  0  0  0  0  0  0  0  0
  -22.7920  -14.7200   20.5380 O   0  0  0  0  0  0  0  0  0  0  0  0
  -22.8790  -12.1730   22.3760 H   0  0  0  0  0  0  0  0  0  0  0  0
  -21.6080  -13.3460   22.2150 H   0  0  0  0  0  0  0  0  0  0  0  0
  -25.8770  -15.2510   20.1010 N   0  0  0  0  0  0  0  0  0  0  0  0
  -25.1710  -15.9510   20.2920 H   0  0  0  0  0  0  0  0  0  0  0  0
  -26.7460  -15.6460   19.7590 H   0  0  0  0  0  0  0  0  0  0  0  0
  2 54  1  0
  2  1  1  0
  3  1  2  0
  4  2  1  0
  5 10  1  0
  7  6  1  0
  8  6  1  0
  9  1  1  0
  9  7  1  0
 10  9  1  0
 10  8  1  0
 11  5  2  0
 12  5  1  0
 13 12  1  0
 13 15  1  0
 14 25  2  0
 15 20  1  0
 16 24  1  0
 16 26  1  0
 17 23  1  0
 17 19  1  0
 18 24  1  0
 19 18  1  0
 20 19  2  0
 21 22  1  0
 21 15  2  0
 22 17  2  0
 23 16  1  0
 24 14  1  0
 26 28  2  0
 27 26  1  0
 29 27  1  0
 30 39  2  0
 30 35  1  0
 31 27  1  0
 31 35  1  0
 32 31  1  0
 33 34  1  0
 33 32  1  0
 34 30  1  0
 35 36  2  0
 36 37  1  0
 38 37  2  0
 39 38  1  0
 40 14  1  0
 40 45  1  0
 40 41  1  0
 41 44  1  1
 41 42  1  0
 43 41  1  0
 45 48  1  0
 46 45  1  0
 46 50  1  0
 47 46  2  0
 50 49  1  0
 50 52  1  0
 52 53  1  0
 52 51  1  0
 54 59  1  0
 55 57  1  0
 56 58  2  0
 56 59  1  0
 58 60  1  0
 59 55  2  0
 60 69  1  0
 60 57  2  0
 61 67  1  0
 61 69  1  0
 62 67  1  0
 63 64  1  0
 63 62  1  0
 65 64  1  0
 65 74  1  0
 65 66  1  0
 67 66  1  0
 68 61  2  0
 69 70  1  0
 71 72  2  0
 72 91  1  0
 73 72  1  0
 73 76  1  0
 74 75  1  0
 74 71  1  0
 75 73  2  0
 76 77  1  0
 77 78  2  0
 79 82  1  0
 79 78  1  0
 80 79  2  0
 81 80  1  0
 81 76  2  0
 82 83  1  0
 83 88  2  0
 83 84  1  0
 84 85  2  0
 85 86  1  0
 86 90  1  0
 87 86  2  0
 88 87  1  0
 89 88  1  0
 91 92  1  0
 92 95  1  0
 92 94  1  0
 93 91  2  0
 96 71  1  0
 96 97  1  0
 98 96  1  0
M  ISO  4  12 101  13 101  61 100  69 100
M  END
>  <TORSDO>  (9) 
F 20

>  <SCORE>  (9) 
-11.535

>  <name>  (9) 
8

>  <ligand_id>  (9) 
8

>  <original_smiles>  (9) 
[H]c1c([H])c([H])c2c(c1[H])C([H])([H])C([H])([H])C([H])([H])C2([H])N([H])C(=O)C1([H])N(C(=O)C([H])(N([H])C(=O)C([H])(N([H])C([H])([H])[H])C([H])([H])[H])C(C([H])([H])[H])(C([H])([H])[H])C([H])([H])[H])C([H])([H])c2c([H])c(OC([H])([H])C(=O)N3C([H])([H])C([H])([H])C([H])([H])C3([H])C(=O)N([H])C([H])([H])c3c([H])c([H])c(N([H])C(=O)N4C([H])([H])C([H])([H])C([H])([H])C([H])(n5nc(-c6c([H])c([H])c(Oc7c([H])c([H])c(F)c([H])c7F)c([H])c6[H])c(C(=O)N([H])[H])c5N([H])[H])C4([H])[H])c([H])c3[H])c([H])c([H])c2C1([H])[H]

>  <smiles>  (9) 
[H]c1c([H])c([H])c2c(c1[H])C([H])([H])C([H])([H])C([H])([H])C2([H])N([H])C(=O)C1([H])N(C(=O)C([H])(N([H])C(=O)C([H])(N([H])C([H])([H])[H])C([H])([H])[H])C(C([H])([H])[H])(C([H])([H])[H])C([H])([H])[H])C([H])([H])c2c([H])c(OC([H])([H])C(=O)N3C([H])([H])C([H])([H])C([H])([H])C3([H])C(=O)N([H])C([H])([H])c3c([H])c([H])c(N([H])C(=O)N4C([H])([H])C([H])([H])C([H])([H])C([H])(n5nc(-c6c([H])c([H])c(Oc7c([H])c([H])c(F)c([H])c7F)c([H])c6[H])c(C(=O)N([H])[H])c5N([H])[H])C4([H])[H])c([H])c3[H])c([H])c([H])c2C1([H])[H]

$$$$
9:0:0
     RDKit          3D

 96105  0  0  1  0  0  0  0  0999 V2000
  -27.9010  -19.5430   17.5830 C   0  0  0  0  0  3  0  0  0  0  0  0
  -27.0080  -19.6200   19.8520 C   0  0  0  0  0  3  0  0  0  0  0  0
  -26.9810  -20.5130   17.1720 C   0  0  0  0  0  3  0  0  0  0  0  0
  -26.0920  -20.6080   19.4460 C   0  0  0  0  0  3  0  0  0  0  0  0
  -27.9390  -19.1010   18.9240 C   0  0  0  0  0  0  0  0  0  0  0  0
  -26.1120  -21.0860   18.1160 C   0  0  0  0  0  0  0  0  0  0  0  0
  -30.9720  -14.4450   20.1880 C   0  0  0  0  0  0  0  0  0  0  0  0
  -30.5980  -12.2510   19.1590 C   0  0  0  0  0  2  0  0  0  0  0  0
  -29.6270  -12.3870   17.9660 C   0  0  0  0  0  2  0  0  0  0  0  0
  -28.1570  -12.3510   18.4360 C   0  0  0  0  0  2  0  0  0  0  0  0
  -27.8700  -13.2470   19.6710 C   0  0  0  0  0  3  0  0  0  0  0  0
  -28.9510  -13.0710   20.7610 C   0  0  0  0  0  2  0  0  0  0  0  0
  -30.2630  -13.2920   20.1370 N   0  0  0  0  0  0  0  0  0  0  0  0
  -32.1690  -14.5300   19.8890 O   0  0  0  0  0  0  0  0  0  0  0  0
  -29.1040  -17.6560   20.7930 C   0  0  0  0  0  2  0  0  0  0  0  0
  -28.9690  -16.8780   18.4050 C   0  0  0  0  0  2  0  0  0  0  0  0
  -30.2570  -16.6340   21.0140 C   0  0  0  0  0  2  0  0  0  0  0  0
  -30.2220  -16.0600   18.6620 C   0  0  0  0  0  2  0  0  0  0  0  0
  -29.0260  -18.1110   19.3100 C   0  0  0  0  0  3  0  0  0  0  0  0
  -30.2030  -15.5380   20.0340 N   0  0  0  0  0  0  0  0  0  0  0  0
  -25.5130  -13.9290   20.4560 C   0  0  0  0  0  0  0  0  0  0  0  0
  -24.4310  -13.1840   20.8410 C   0  0  0  0  0  0  0  0  0  0  0  0
  -24.8530  -11.8200   20.7910 C   0  0  0  0  0  0  0  0  0  0  0  0
  -26.5250  -13.0180   20.1920 N   0  0  0  0  0  0  0  0  0  0  0  0
  -26.1320  -11.7460   20.4540 N   0  0  0  0  0  0  0  0  0  0  0  0
  -24.1010  -10.5750   20.9870 C   0  0  0  0  0  0  0  0  0  0  0  0
  -24.5210   -9.5980   21.9170 C   0  0  0  0  0  3  0  0  0  0  0  0
  -23.7710   -8.4170   22.1000 C   0  0  0  0  0  3  0  0  0  0  0  0
  -22.5880   -8.2040   21.3550 C   0  0  0  0  0  0  0  0  0  0  0  0
  -22.1860   -9.1700   20.4140 C   0  0  0  0  0  3  0  0  0  0  0  0
  -22.9360  -10.3430   20.2290 C   0  0  0  0  0  3  0  0  0  0  0  0
  -21.8080   -7.0770   21.4490 O   0  0  0  0  0  0  0  0  0  0  0  0
  -21.7380   -6.3470   22.6080 C   0  0  0  0  0  0  0  0  0  0  0  0
  -21.2720   -6.9090   23.8160 C   0  0  0  0  0  3  0  0  0  0  0  0
  -21.1490   -6.1040   24.9670 C   0  0  0  0  0  3  0  0  0  0  0  0
  -21.4870   -4.7380   24.9100 C   0  0  0  0  0  0  0  0  0  0  0  0
  -21.9470   -4.1750   23.7060 C   0  0  0  0  0  3  0  0  0  0  0  0
  -22.0710   -4.9780   22.5590 C   0  0  0  0  0  0  0  0  0  0  0  0
  -22.4950   -4.4260   21.3970 F   0  0  0  0  0  0  0  0  0  0  0  0
  -21.3610   -3.9620   26.0130 F   0  0  0  0  0  0  0  0  0  0  0  0
  -23.0540  -13.6950   21.1570 C   0  0  0  0  0  0  0  0  0  0  0  0
  -22.3370  -13.0120   22.0410 N   0  0  0  0  0  0  0  0  0  0  0  0
  -22.6270  -14.7340   20.6550 O   0  0  0  0  0  0  0  0  0  0  0  0
  -22.6970  -12.1680   22.4630 H   0  0  0  0  0  0  0  0  0  0  0  0
  -21.4150  -13.3350   22.2990 H   0  0  0  0  0  0  0  0  0  0  0  0
  -25.7160  -15.2950   20.2840 N   0  0  0  0  0  0  0  0  0  0  0  0
  -24.9820  -15.9800   20.4320 H   0  0  0  0  0  0  0  0  0  0  0  0
  -26.5890  -15.7060   19.9790 H   0  0  0  0  0  0  0  0  0  0  0  0
  -25.3830  -22.3580   17.7420 C   0  0  0  0  0  2  0  0  0  0  0  0
  -26.3500  -23.4760   17.7610 N   0  0  0  0  0  4  0  0  0  0  0  0
  -25.8530  -24.2990   17.4650 H   0  0  0  0  0  0  0  0  0  0  0  0
  -27.0590  -23.2840   17.0720 H   0  0  0  0  0  0  0  0  0  0  0  0
  -26.9860  -23.7240   19.0800 C   0  0  0  0  0  2  0  0  0  0  0  0
  -28.1890  -24.6930   19.0080 C   0  0  0  0  0  2  0  0  0  0  0  0
  -28.4130  -25.4340   20.3420 C   0  0  0  0  0  2  0  0  0  0  0  0
  -28.4520  -26.8500   20.1820 O   0  0  0  0  0  0  0  0  0  0  0  0
  -24.5620  -31.9120   23.3030 C   0  0  0  0  0  0  0  0  0  0  0  0
  -27.2510  -27.5280   20.2000 C   0  0  0  0  0  0  0  0  0  0  0  0
  -23.3790  -30.5240   21.6340 C   0  0  0  0  0  3  0  0  0  0  0  0
  -24.8460  -29.0170   20.2150 C   0  0  0  0  0  0  0  0  0  0  0  0
  -25.9040  -30.9020   21.4650 C   0  0  0  0  0  2  0  0  0  0  0  0
  -25.9990  -29.5390   20.8170 C   0  0  0  0  0  0  0  0  0  0  0  0
  -27.2030  -28.8000   20.8060 C   0  0  0  0  0  3  0  0  0  0  0  0
  -26.0710  -27.0240   19.6040 C   0  0  0  0  0  3  0  0  0  0  0  0
  -24.8730  -27.7540   19.6160 C   0  0  0  0  0  3  0  0  0  0  0  0
  -23.6000  -29.8680   20.2460 C   0  0  0  0  0  2  0  0  0  0  0  0
  -24.6320  -31.1270   22.1930 N   0  0  0  0  0  0  0  0  0  0  0  0
  -23.4750  -32.1740   23.8370 O   0  0  0  0  0  0  0  0  0  0  0  0
  -22.7290  -29.4840   22.5750 C   0  0  0  0  0  0  0  0  0  0  0  0
  -21.4070  -29.3000   22.4310 N   0  0  0  0  0  0  0  0  0  0  0  0
  -23.4060  -28.8470   23.3850 O   0  0  0  0  0  0  0  0  0  0  0  0
  -20.9320  -29.8510   21.7310 H   0  0  0  0  0  0  0  0  0  0  0  0
  -18.0220  -28.1230   22.8980 C   0  0  0  0  0  0  0  0  0  0  0  0
  -20.5820  -28.3530   23.1760 C   0  0  0  0  0  3  0  0  0  0  0  0
  -20.6790  -26.9370   22.5670 C   0  0  0  0  0  2  0  0  0  0  0  0
  -19.5730  -26.6440   21.5480 C   0  0  0  0  0  2  0  0  0  0  0  0
  -18.1920  -26.7860   22.1930 C   0  0  0  0  0  2  0  0  0  0  0  0
  -19.1490  -28.8660   23.3420 C   0  0  0  0  0  0  0  0  0  0  0  0
  -18.9440  -30.1170   23.9630 C   0  0  0  0  0  3  0  0  0  0  0  0
  -17.6450  -30.6280   24.1440 C   0  0  0  0  0  3  0  0  0  0  0  0
  -16.5320  -29.8840   23.7170 C   0  0  0  0  0  3  0  0  0  0  0  0
  -16.7230  -28.6340   23.1000 C   0  0  0  0  0  3  0  0  0  0  0  0
  -25.8410  -32.5370   23.9400 C   0  0  0  0  0  3  0  0  0  0  0  0
  -25.5380  -33.9380   24.2530 N   0  0  0  0  0  0  0  0  0  0  0  0
  -25.8870  -34.9810   23.4870 C   0  0  0  0  0  0  0  0  0  0  0  0
  -26.5730  -34.8670   22.4680 O   0  0  0  0  0  0  0  0  0  0  0  0
  -24.9230  -34.0990   25.0390 H   0  0  0  0  0  0  0  0  0  0  0  0
  -24.1770  -36.7790   23.0680 C   0  0  0  0  0  1  0  0  0  0  0  0
  -25.3930  -36.3740   23.9200 C   0  0  0  0  0  3  0  0  0  0  0  0
  -27.4990  -37.2550   24.8180 C   0  0  0  0  0  1  0  0  0  0  0  0
  -26.4340  -37.4200   23.8310 N   0  0  0  0  0  0  0  0  0  0  0  0
  -26.0280  -38.3420   23.9550 H   0  0  0  0  0  0  0  0  0  0  0  0
  -26.3330  -31.7680   25.2270 C   0  0  1  0  0  0  0  0  0  0  0  0
  -25.2180  -31.5370   26.2730 C   0  0  0  0  0  1  0  0  0  0  0  0
  -26.9230  -30.3870   24.8540 C   0  0  0  0  0  1  0  0  0  0  0  0
  -27.4730  -32.5630   25.9080 C   0  0  0  0  0  1  0  0  0  0  0  0
  1  5  1  0
  3  1  2  0
  3  6  1  0
  4  2  1  0
  5  2  2  0
  6  4  2  0
  8 13  1  0
  9 10  1  0
  9  8  1  0
 11 10  1  0
 11 24  1  0
 11 12  1  0
 13  7  1  0
 13 12  1  0
 14  7  2  0
 15 17  1  0
 16 18  1  0
 16 19  1  0
 18 20  1  0
 19  5  1  0
 19 15  1  0
 20  7  1  0
 20 17  1  0
 21 22  2  0
 22 41  1  0
 23 22  1  0
 23 26  1  0
 24 25  1  0
 24 21  1  0
 25 23  2  0
 26 27  1  0
 27 28  2  0
 29 32  1  0
 29 28  1  0
 30 29  2  0
 31 30  1  0
 31 26  2  0
 32 33  1  0
 33 34  1  0
 34 35  2  0
 36 35  1  0
 36 40  1  0
 37 36  2  0
 38 33  2  0
 38 37  1  0
 39 38  1  0
 41 42  1  0
 42 45  1  0
 42 44  1  0
 43 41  2  0
 46 47  1  0
 46 21  1  0
 48 46  1  0
 49 50  1  0
 49  6  1  0
 50 53  1  0
 51 50  1  0
 52 50  1  0
 54 53  1  0
 54 55  1  0
 56 58  1  0
 56 55  1  0
 57 68  2  0
 58 63  1  0
 59 67  1  0
 59 69  1  0
 60 66  1  0
 60 62  1  0
 61 67  1  0
 62 61  1  0
 63 62  2  0
 64 65  1  0
 64 58  2  0
 65 60  2  0
 66 59  1  0
 67 57  1  0
 69 71  2  0
 70 69  1  0
 72 70  1  0
 73 82  2  0
 73 78  1  0
 74 70  1  0
 74 78  1  0
 75 74  1  0
 76 77  1  0
 76 75  1  0
 77 73  1  0
 78 79  2  0
 79 80  1  0
 81 80  2  0
 82 81  1  0
 83 57  1  0
 83 84  1  0
 83 93  1  0
 84 87  1  0
 85 89  1  0
 85 84  1  0
 86 85  2  0
 89 88  1  0
 91 89  1  0
 91 92  1  0
 91 90  1  0
 93 96  1  1
 93 94  1  0
 95 93  1  0
M  ISO  4   7 100  20 100  55 101  56 101
M  END
>  <TORSDO>  (10) 
F 21

>  <SCORE>  (10) 
-12.108

>  <name>  (10) 
9

>  <ligand_id>  (10) 
9

>  <original_smiles>  (10) 
[H]c1c([H])c([H])c2c(c1[H])C([H])([H])C([H])([H])C([H])([H])C2([H])N([H])C(=O)C1([H])N(C(=O)C([H])(N([H])C(=O)C([H])(N([H])C([H])([H])[H])C([H])([H])[H])C(C([H])([H])[H])(C([H])([H])[H])C([H])([H])[H])C([H])([H])c2c([H])c(OC([H])([H])C([H])([H])C([H])([H])[N+]([H])([H])C([H])([H])c3c([H])c([H])c(C4([H])C([H])([H])C([H])([H])N(C(=O)N5C([H])([H])C([H])([H])C([H])([H])C([H])(n6nc(-c7c([H])c([H])c(Oc8c([H])c([H])c(F)c([H])c8F)c([H])c7[H])c(C(=O)N([H])[H])c6N([H])[H])C5([H])[H])C([H])([H])C4([H])[H])c([H])c3[H])c([H])c([H])c2C1([H])[H]

>  <smiles>  (10) 
[H]c1c([H])c([H])c2c(c1[H])C([H])([H])C([H])([H])C([H])([H])C2([H])N([H])C(=O)C1([H])N(C(=O)C([H])(N([H])C(=O)C([H])(N([H])C([H])([H])[H])C([H])([H])[H])C(C([H])([H])[H])(C([H])([H])[H])C([H])([H])[H])C([H])([H])c2c([H])c(OC([H])([H])C([H])([H])C([H])([H])[N+]([H])([H])C([H])([H])c3c([H])c([H])c(C4([H])C([H])([H])C([H])([H])N(C(=O)N5C([H])([H])C([H])([H])C([H])([H])C([H])(n6nc(-c7c([H])c([H])c(Oc8c([H])c([H])c(F)c([H])c8F)c([H])c7[H])c(C(=O)N([H])[H])c6N([H])[H])C5([H])[H])C([H])([H])C4([H])[H])c([H])c3[H])c([H])c([H])c2C1([H])[H]

$$$$
10:0:0
     RDKit          3D

110119  0  0  1  0  0  0  0  0999 V2000
  -28.2080  -24.1110   21.9650 C   0  0  0  0  0  3  0  0  0  0  0  0
  -28.5670  -25.3960   21.8690 N   0  0  0  0  0  0  0  0  0  0  0  0
  -26.9700  -23.8160   22.3810 N   0  0  0  0  0  0  0  0  0  0  0  0
  -27.8770  -26.1020   22.0580 H   0  0  0  0  0  0  0  0  0  0  0  0
  -26.7760  -22.8270   22.4760 H   0  0  0  0  0  0  0  0  0  0  0  0
  -30.3610  -22.9170   22.3030 C   0  0  0  0  0  3  0  0  0  0  0  0
  -28.7810  -22.0870   20.6390 C   0  0  0  0  0  3  0  0  0  0  0  0
  -31.2540  -21.8800   21.9740 C   0  0  0  0  0  3  0  0  0  0  0  0
  -29.6880  -21.0630   20.2950 C   0  0  0  0  0  3  0  0  0  0  0  0
  -29.1270  -23.0280   21.6290 C   0  0  0  0  0  0  0  0  0  0  0  0
  -30.9350  -20.9590   20.9510 C   0  0  0  0  0  0  0  0  0  0  0  0
  -31.8870  -19.8290   20.5710 C   0  0  0  0  0  3  0  0  0  0  0  0
  -33.3610  -20.2670   20.3590 C   0  0  1  0  0  0  0  0  0  0  0  0
  -33.4300  -21.3270   19.5530 F   0  0  0  0  0  0  0  0  0  0  0  0
  -33.9710  -20.5510   21.5110 F   0  0  0  0  0  0  0  0  0  0  0  0
  -34.0230  -19.2600   19.7870 F   0  0  0  0  0  0  0  0  0  0  0  0
  -31.8330  -18.7430   21.5500 N   0  0  0  0  0  0  0  0  0  0  0  0
  -32.7770  -18.3730   21.6090 H   0  0  0  0  0  0  0  0  0  0  0  0
  -30.8900  -17.7150   21.1400 C   0  0  0  0  0  2  0  0  0  0  0  0
  -30.9900  -16.5140   22.0980 C   0  0  0  0  0  2  0  0  0  0  0  0
  -30.6690  -14.6390   20.5150 C   0  0  0  0  0  0  0  0  0  0  0  0
  -30.2980  -12.6160   19.1620 C   0  0  0  0  0  2  0  0  0  0  0  0
  -29.3500  -12.8890   17.9800 C   0  0  0  0  0  2  0  0  0  0  0  0
  -27.8830  -12.7170   18.4130 C   0  0  0  0  0  2  0  0  0  0  0  0
  -27.5500  -13.4910   19.7160 C   0  0  0  0  0  3  0  0  0  0  0  0
  -28.6080  -13.2160   20.8090 C   0  0  0  0  0  2  0  0  0  0  0  0
  -29.9410  -13.5250   20.2600 N   0  0  0  0  0  0  0  0  0  0  0  0
  -31.6650  -14.9610   19.8620 O   0  0  0  0  0  0  0  0  0  0  0  0
  -30.2800  -15.3530   21.5770 N   0  0  0  0  0  0  0  0  0  0  0  0
  -29.4750  -15.0230   22.0880 H   0  0  0  0  0  0  0  0  0  0  0  0
  -25.1260  -14.0390   20.3940 C   0  0  0  0  0  0  0  0  0  0  0  0
  -24.0780  -13.2430   20.7680 C   0  0  0  0  0  0  0  0  0  0  0  0
  -24.5780  -11.9030   20.7600 C   0  0  0  0  0  0  0  0  0  0  0  0
  -26.1990  -13.1870   20.1850 N   0  0  0  0  0  0  0  0  0  0  0  0
  -25.8700  -11.8970   20.4590 N   0  0  0  0  0  0  0  0  0  0  0  0
  -23.8890  -10.6240   20.9660 C   0  0  0  0  0  0  0  0  0  0  0  0
  -24.3050   -9.7120   21.9600 C   0  0  0  0  0  3  0  0  0  0  0  0
  -23.6150   -8.4940   22.1490 C   0  0  0  0  0  3  0  0  0  0  0  0
  -22.4960   -8.1800   21.3430 C   0  0  0  0  0  0  0  0  0  0  0  0
  -22.1000   -9.0810   20.3390 C   0  0  0  0  0  3  0  0  0  0  0  0
  -22.7890  -10.2900   20.1490 C   0  0  0  0  0  3  0  0  0  0  0  0
  -21.7810   -7.0100   21.4370 O   0  0  0  0  0  0  0  0  0  0  0  0
  -21.6590   -6.3350   22.6250 C   0  0  0  0  0  0  0  0  0  0  0  0
  -21.0920   -6.9370   23.7700 C   0  0  0  0  0  3  0  0  0  0  0  0
  -20.9220   -6.1850   24.9500 C   0  0  0  0  0  3  0  0  0  0  0  0
  -21.3100   -4.8320   24.9850 C   0  0  0  0  0  0  0  0  0  0  0  0
  -21.8680   -4.2290   23.8440 C   0  0  0  0  0  3  0  0  0  0  0  0
  -22.0410   -4.9790   22.6670 C   0  0  0  0  0  0  0  0  0  0  0  0
  -22.5600   -4.3880   21.5650 F   0  0  0  0  0  0  0  0  0  0  0  0
  -21.1390   -4.1080   26.1150 F   0  0  0  0  0  0  0  0  0  0  0  0
  -22.6660  -13.6830   21.0260 C   0  0  0  0  0  0  0  0  0  0  0  0
  -21.9570  -12.9930   21.9140 N   0  0  0  0  0  0  0  0  0  0  0  0
  -22.1970  -14.6760   20.4720 O   0  0  0  0  0  0  0  0  0  0  0  0
  -22.3470  -12.1920   22.3880 H   0  0  0  0  0  0  0  0  0  0  0  0
  -21.0100  -13.2740   22.1220 H   0  0  0  0  0  0  0  0  0  0  0  0
  -25.2520  -15.4120   20.1970 N   0  0  0  0  0  0  0  0  0  0  0  0
  -24.4700  -16.0500   20.3010 H   0  0  0  0  0  0  0  0  0  0  0  0
  -26.0970  -15.8710   19.8800 H   0  0  0  0  0  0  0  0  0  0  0  0
  -29.8350  -25.9230   21.3380 C   0  0  0  0  0  2  0  0  0  0  0  0
  -29.5890  -27.3000   20.7230 C   0  0  0  0  0  2  0  0  0  0  0  0
  -28.5690  -27.1300   19.7360 O   0  0  0  0  0  0  0  0  0  0  0  0
  -24.6240  -32.0360   23.1100 C   0  0  0  0  0  0  0  0  0  0  0  0
  -27.3940  -27.8350   19.8560 C   0  0  0  0  0  0  0  0  0  0  0  0
  -23.4330  -30.6270   21.4580 C   0  0  0  0  0  3  0  0  0  0  0  0
  -24.9140  -29.1850   19.9680 C   0  0  0  0  0  0  0  0  0  0  0  0
  -25.9240  -31.1140   21.2000 C   0  0  0  0  0  2  0  0  0  0  0  0
  -26.0550  -29.7630   20.5350 C   0  0  0  0  0  0  0  0  0  0  0  0
  -27.2950  -29.1020   20.4760 C   0  0  0  0  0  3  0  0  0  0  0  0
  -26.2380  -27.2610   19.2870 C   0  0  0  0  0  3  0  0  0  0  0  0
  -24.9970  -27.9270   19.3430 C   0  0  0  0  0  3  0  0  0  0  0  0
  -23.6320  -29.9800   20.0600 C   0  0  0  0  0  2  0  0  0  0  0  0
  -24.6800  -31.2710   21.9840 N   0  0  0  0  0  0  0  0  0  0  0  0
  -23.5480  -32.2480   23.6860 O   0  0  0  0  0  0  0  0  0  0  0  0
  -22.8490  -29.5580   22.4090 C   0  0  0  0  0  0  0  0  0  0  0  0
  -21.5290  -29.3370   22.3140 N   0  0  0  0  0  0  0  0  0  0  0  0
  -23.5790  -28.9280   23.1800 O   0  0  0  0  0  0  0  0  0  0  0  0
  -20.9990  -29.9000   21.6620 H   0  0  0  0  0  0  0  0  0  0  0  0
  -18.2050  -28.0470   22.8880 C   0  0  0  0  0  0  0  0  0  0  0  0
  -20.7650  -28.3520   23.0780 C   0  0  0  0  0  3  0  0  0  0  0  0
  -20.8780  -26.9470   22.4430 C   0  0  0  0  0  2  0  0  0  0  0  0
  -19.7460  -26.6380   21.4570 C   0  0  0  0  0  2  0  0  0  0  0  0
  -18.3860  -26.7280   22.1550 C   0  0  0  0  0  2  0  0  0  0  0  0
  -19.3230  -28.8170   23.3070 C   0  0  0  0  0  0  0  0  0  0  0  0
  -19.0990  -30.0540   23.9480 C   0  0  0  0  0  3  0  0  0  0  0  0
  -17.7900  -30.5200   24.1800 C   0  0  0  0  0  3  0  0  0  0  0  0
  -16.6880  -29.7450   23.7770 C   0  0  0  0  0  3  0  0  0  0  0  0
  -16.8970  -28.5110   23.1370 C   0  0  0  0  0  3  0  0  0  0  0  0
  -25.9030  -32.7000   23.7140 C   0  0  0  0  0  3  0  0  0  0  0  0
  -25.5400  -34.0610   24.1260 N   0  0  0  0  0  0  0  0  0  0  0  0
  -25.8210  -35.1670   23.4230 C   0  0  0  0  0  0  0  0  0  0  0  0
  -26.4800  -35.1510   22.3810 O   0  0  0  0  0  0  0  0  0  0  0  0
  -24.9510  -34.1460   24.9420 H   0  0  0  0  0  0  0  0  0  0  0  0
  -24.0230  -36.9070   23.1760 C   0  0  0  0  0  1  0  0  0  0  0  0
  -25.2790  -36.5030   23.9640 C   0  0  0  0  0  3  0  0  0  0  0  0
  -27.3760  -37.4180   24.8540 C   0  0  0  0  0  1  0  0  0  0  0  0
  -26.2700  -37.6010   23.9190 N   0  0  0  0  0  0  0  0  0  0  0  0
  -25.8260  -38.4930   24.1220 H   0  0  0  0  0  0  0  0  0  0  0  0
  -26.5090  -31.8940   24.9270 C   0  0  1  0  0  0  0  0  0  0  0  0
  -25.4740  -31.5670   26.0250 C   0  0  0  0  0  1  0  0  0  0  0  0
  -27.1310  -30.5640   24.4400 C   0  0  0  0  0  1  0  0  0  0  0  0
  -27.6540  -32.7060   25.5770 C   0  0  0  0  0  1  0  0  0  0  0  0
  -25.8960  -24.7330   22.8090 C   0  0  0  0  0  2  0  0  0  0  0  0
  -26.2100  -25.3640   24.1760 C   0  0  0  0  0  2  0  0  0  0  0  0
  -25.1280  -26.3500   24.6550 C   0  0  0  0  0  2  0  0  0  0  0  0
  -24.8150  -28.3940   27.7360 C   0  0  0  0  0  2  0  0  0  0  0  0
  -26.1740  -28.7440   27.1420 C   0  0  0  0  0  2  0  0  0  0  0  0
  -24.2000  -27.5210   26.6440 C   0  0  0  0  0  2  0  0  0  0  0  0
  -26.5750  -27.4940   26.3530 C   0  0  0  0  0  2  0  0  0  0  0  0
  -25.3240  -26.7460   26.0720 N   0  0  2  0  0  4  0  0  0  0  0  0
  -25.3730  -25.8970   26.6160 H   0  0  0  0  0  0  0  0  0  0  0  0
  1  2  1  0
  1  3  1  0
  2  4  1  0
  3  5  1  0
  3102  1  0
  7 10  1  0
  8  6  1  0
  9  7  2  0
  9 11  1  0
 10  1  1  0
 10  6  2  0
 11  8  2  0
 12 13  1  0
 12 11  1  0
 12 17  1  0
 13 15  1  1
 14 13  1  0
 16 13  1  0
 17 18  1  0
 19 17  1  0
 19 20  1  0
 21 29  1  0
 22 27  1  0
 23 24  1  0
 23 22  1  0
 25 24  1  0
 25 34  1  0
 25 26  1  0
 27 21  1  0
 27 26  1  0
 28 21  2  0
 29 30  1  0
 29 20  1  0
 31 32  2  0
 32 51  1  0
 33 32  1  0
 33 36  1  0
 34 31  1  0
 34 35  1  0
 35 33  2  0
 36 37  1  0
 37 38  2  0
 39 42  1  0
 39 38  1  0
 40 39  2  0
 41 40  1  0
 41 36  2  0
 42 43  1  0
 43 48  2  0
 43 44  1  0
 44 45  2  0
 45 46  1  0
 46 50  1  0
 47 46  2  0
 48 47  1  0
 49 48  1  0
 51 52  1  0
 52 55  1  0
 52 54  1  0
 53 51  2  0
 56 57  1  0
 56 31  1  0
 58 56  1  0
 59  2  1  0
 60 59  1  0
 61 63  1  0
 61 60  1  0
 62 73  2  0
 63 68  1  0
 64 72  1  0
 64 74  1  0
 65 71  1  0
 65 67  1  0
 66 72  1  0
 67 66  1  0
 68 67  2  0
 69 70  1  0
 69 63  2  0
 70 65  2  0
 71 64  1  0
 72 62  1  0
 74 76  2  0
 75 74  1  0
 77 75  1  0
 78 87  2  0
 78 83  1  0
 79 75  1  0
 79 83  1  0
 80 79  1  0
 81 82  1  0
 81 80  1  0
 82 78  1  0
 83 84  2  0
 84 85  1  0
 86 85  2  0
 87 86  1  0
 88 62  1  0
 88 89  1  0
 88 98  1  0
 89 92  1  0
 90 94  1  0
 90 89  1  0
 91 90  2  0
 94 93  1  0
 96 94  1  0
 96 97  1  0
 96 95  1  0
 98101  1  1
 98 99  1  0
100 98  1  0
102103  1  0
103104  1  0
104109  1  0
106105  1  0
107105  1  0
108106  1  0
109108  1  0
109110  1  1
109107  1  0
M  ISO  4  21 100  29 100  60 101  61 101
M  END
>  <TORSDO>  (11) 
F 28

>  <SCORE>  (11) 
-11.171

>  <name>  (11) 
10

>  <ligand_id>  (11) 
10

>  <original_smiles>  (11) 
[H]c1c([H])c([H])c2c(c1[H])C([H])([H])C([H])([H])C([H])([H])C2([H])N([H])C(=O)C1([H])N(C(=O)C([H])(N([H])C(=O)C([H])(N([H])C([H])([H])[H])C([H])([H])[H])C(C([H])([H])[H])(C([H])([H])[H])C([H])([H])[H])C([H])([H])c2c([H])c(OC([H])([H])C([H])([H])N([H])C(c3c([H])c([H])c(C([H])(N([H])C([H])([H])C([H])([H])N([H])C(=O)N4C([H])([H])C([H])([H])C([H])([H])C([H])(n5nc(-c6c([H])c([H])c(Oc7c([H])c([H])c(F)c([H])c7F)c([H])c6[H])c(C(=O)N([H])[H])c5N([H])[H])C4([H])[H])C(F)(F)F)c([H])c3[H])=[N+]([H])C([H])([H])C([H])([H])C([H])([H])[N+]3([H])C([H])([H])C([H])([H])C([H])([H])C3([H])[H])c([H])c([H])c2C1([H])[H]

>  <smiles>  (11) 
[H]c1c([H])c([H])c2c(c1[H])C([H])([H])C([H])([H])C([H])([H])C2([H])N([H])C(=O)C1([H])N(C(=O)C([H])(N([H])C(=O)C([H])(N([H])C([H])([H])[H])C([H])([H])[H])C(C([H])([H])[H])(C([H])([H])[H])C([H])([H])[H])C([H])([H])c2c([H])c(OC([H])([H])C([H])([H])N([H])C(c3c([H])c([H])c(C([H])(N([H])C([H])([H])C([H])([H])N([H])C(=O)N4C([H])([H])C([H])([H])C([H])([H])C([H])(n5nc(-c6c([H])c([H])c(Oc7c([H])c([H])c(F)c([H])c7F)c([H])c6[H])c(C(=O)N([H])[H])c5N([H])[H])C4([H])[H])C(F)(F)F)c([H])c3[H])=[N+]([H])C([H])([H])C([H])([H])C([H])([H])[N+]3([H])C([H])([H])C([H])([H])C([H])([H])C3([H])[H])c([H])c([H])c2C1([H])[H]

$$$$
11:0:0
     RDKit          3D

 92102  0  0  1  0  0  0  0  0999 V2000
  -28.9050  -21.7260   19.3690 C   0  0  0  0  0  3  0  0  0  0  0  0
  -29.3700  -22.5970   21.5800 C   0  0  0  0  0  3  0  0  0  0  0  0
  -28.7040  -23.0520   18.9050 C   0  0  0  0  0  3  0  0  0  0  0  0
  -29.1720  -23.9220   21.1160 C   0  0  0  0  0  3  0  0  0  0  0  0
  -29.2570  -21.4780   20.7140 C   0  0  0  0  0  0  0  0  0  0  0  0
  -28.8430  -24.1690   19.7650 C   0  0  0  0  0  0  0  0  0  0  0  0
  -30.8920  -14.5330   19.9430 C   0  0  0  0  0  0  0  0  0  0  0  0
  -30.4020  -12.3880   18.8200 C   0  0  0  0  0  2  0  0  0  0  0  0
  -29.3850  -12.5890   17.6800 C   0  0  0  0  0  2  0  0  0  0  0  0
  -27.9490  -12.4450   18.2180 C   0  0  0  0  0  2  0  0  0  0  0  0
  -27.7100  -13.2670   19.5130 C   0  0  0  0  0  3  0  0  0  0  0  0
  -28.8540  -13.0620   20.5320 C   0  0  0  0  0  2  0  0  0  0  0  0
  -30.1110  -13.4080   19.8530 N   0  0  0  0  0  0  0  0  0  0  0  0
  -32.0190  -14.5140   19.4410 O   0  0  0  0  0  0  0  0  0  0  0  0
  -30.9330  -19.4850   20.7990 C   0  0  0  0  0  2  0  0  0  0  0  0
  -28.6280  -18.8790   20.9530 C   0  0  0  0  0  2  0  0  0  0  0  0
  -31.2270  -16.9750   20.0970 C   0  0  0  0  0  2  0  0  0  0  0  0
  -29.1800  -16.2200   21.0130 C   0  0  0  0  0  2  0  0  0  0  0  0
  -29.5830  -20.0630   21.2490 C   0  0  0  0  0  3  0  0  0  0  0  0
  -30.8660  -17.9880   21.1860 C   0  0  0  0  0  3  0  0  0  0  0  0
  -29.4220  -17.6700   21.5200 C   0  0  0  0  0  3  0  0  0  0  0  0
  -30.4070  -15.7640   20.3270 N   0  0  0  0  0  0  0  0  0  0  0  0
  -25.3870  -13.8580   20.4310 C   0  0  0  0  0  0  0  0  0  0  0  0
  -24.3450  -13.0810   20.8560 C   0  0  0  0  0  0  0  0  0  0  0  0
  -24.7900  -11.7280   20.7450 C   0  0  0  0  0  0  0  0  0  0  0  0
  -26.4030  -12.9800   20.0930 N   0  0  0  0  0  0  0  0  0  0  0  0
  -26.0540  -11.6910   20.3400 N   0  0  0  0  0  0  0  0  0  0  0  0
  -24.0680  -10.4660   20.9470 C   0  0  0  0  0  0  0  0  0  0  0  0
  -24.5190   -9.4950   21.8680 C   0  0  0  0  0  3  0  0  0  0  0  0
  -23.7960   -8.2970   22.0570 C   0  0  0  0  0  3  0  0  0  0  0  0
  -22.6080   -8.0620   21.3250 C   0  0  0  0  0  0  0  0  0  0  0  0
  -22.1760   -9.0210   20.3930 C   0  0  0  0  0  3  0  0  0  0  0  0
  -22.8990  -10.2110   20.2020 C   0  0  0  0  0  3  0  0  0  0  0  0
  -21.8540   -6.9180   21.4260 O   0  0  0  0  0  0  0  0  0  0  0  0
  -21.7650   -6.2150   22.6010 C   0  0  0  0  0  0  0  0  0  0  0  0
  -21.2930   -6.8110   23.7900 C   0  0  0  0  0  3  0  0  0  0  0  0
  -21.1500   -6.0350   24.9590 C   0  0  0  0  0  3  0  0  0  0  0  0
  -21.4730   -4.6660   24.9380 C   0  0  0  0  0  0  0  0  0  0  0  0
  -21.9390   -4.0690   23.7530 C   0  0  0  0  0  3  0  0  0  0  0  0
  -22.0820   -4.8420   22.5870 C   0  0  0  0  0  0  0  0  0  0  0  0
  -22.5120   -4.2580   21.4420 F   0  0  0  0  0  0  0  0  0  0  0  0
  -21.3280   -3.9170   26.0570 F   0  0  0  0  0  0  0  0  0  0  0  0
  -22.9770  -13.5600   21.2490 C   0  0  0  0  0  0  0  0  0  0  0  0
  -22.3160  -12.8470   22.1540 N   0  0  0  0  0  0  0  0  0  0  0  0
  -22.5070  -14.5990   20.7900 O   0  0  0  0  0  0  0  0  0  0  0  0
  -22.7100  -12.0050   22.5470 H   0  0  0  0  0  0  0  0  0  0  0  0
  -21.4020  -13.1490   22.4610 H   0  0  0  0  0  0  0  0  0  0  0  0
  -25.5470  -15.2320   20.2810 N   0  0  0  0  0  0  0  0  0  0  0  0
  -24.7920  -15.8850   20.4610 H   0  0  0  0  0  0  0  0  0  0  0  0
  -26.3660  -15.6730   19.8850 H   0  0  0  0  0  0  0  0  0  0  0  0
  -28.7520  -25.5980   19.1830 C   0  0  0  0  0  2  0  0  0  0  0  0
  -28.4870  -26.6800   20.1040 O   0  0  0  0  0  0  0  0  0  0  0  0
  -24.5440  -31.7840   23.1580 C   0  0  0  0  0  0  0  0  0  0  0  0
  -27.2880  -27.3790   20.0670 C   0  0  0  0  0  0  0  0  0  0  0  0
  -23.3720  -30.3650   21.5060 C   0  0  0  0  0  3  0  0  0  0  0  0
  -24.8600  -28.8580   20.0800 C   0  0  0  0  0  0  0  0  0  0  0  0
  -25.8930  -30.7660   21.3200 C   0  0  0  0  0  2  0  0  0  0  0  0
  -26.0060  -29.3960   20.6770 C   0  0  0  0  0  0  0  0  0  0  0  0
  -27.2170  -28.6600   20.6720 C   0  0  0  0  0  3  0  0  0  0  0  0
  -26.1130  -26.8570   19.4790 C   0  0  0  0  0  3  0  0  0  0  0  0
  -24.9100  -27.5880   19.4790 C   0  0  0  0  0  3  0  0  0  0  0  0
  -23.5990  -29.6930   20.1250 C   0  0  0  0  0  2  0  0  0  0  0  0
  -24.6210  -30.9880   22.0540 N   0  0  0  0  0  0  0  0  0  0  0  0
  -23.4550  -32.0330   23.6960 O   0  0  0  0  0  0  0  0  0  0  0  0
  -22.7360  -29.3290   22.4610 C   0  0  0  0  0  0  0  0  0  0  0  0
  -21.4170  -29.1170   22.3220 N   0  0  0  0  0  0  0  0  0  0  0  0
  -23.4280  -28.7170   23.2810 O   0  0  0  0  0  0  0  0  0  0  0  0
  -20.9190  -29.6730   21.6410 H   0  0  0  0  0  0  0  0  0  0  0  0
  -18.0770  -27.8060   22.7520 C   0  0  0  0  0  0  0  0  0  0  0  0
  -20.6170  -28.1510   23.0720 C   0  0  0  0  0  3  0  0  0  0  0  0
  -20.7840  -26.7240   22.4980 C   0  0  0  0  0  2  0  0  0  0  0  0
  -19.7090  -26.3560   21.4700 C   0  0  0  0  0  2  0  0  0  0  0  0
  -18.3120  -26.4580   22.0910 C   0  0  0  0  0  2  0  0  0  0  0  0
  -19.1590  -28.6070   23.2000 C   0  0  0  0  0  0  0  0  0  0  0  0
  -18.8870  -29.8660   23.7770 C   0  0  0  0  0  3  0  0  0  0  0  0
  -17.5630  -30.3260   23.9130 C   0  0  0  0  0  3  0  0  0  0  0  0
  -16.4940  -29.5220   23.4810 C   0  0  0  0  0  3  0  0  0  0  0  0
  -16.7520  -28.2640   22.9060 C   0  0  0  0  0  3  0  0  0  0  0  0
  -25.8140  -32.4360   23.7860 C   0  0  0  0  0  3  0  0  0  0  0  0
  -25.4700  -33.8180   24.1470 N   0  0  0  0  0  0  0  0  0  0  0  0
  -25.7570  -34.8920   23.4000 C   0  0  0  0  0  0  0  0  0  0  0  0
  -26.4130  -34.8270   22.3570 O   0  0  0  0  0  0  0  0  0  0  0  0
  -24.8830  -33.9400   24.9600 H   0  0  0  0  0  0  0  0  0  0  0  0
  -23.9630  -36.6310   23.1110 C   0  0  0  0  0  1  0  0  0  0  0  0
  -25.2340  -36.2580   23.8890 C   0  0  0  0  0  3  0  0  0  0  0  0
  -27.3570  -37.2020   24.6860 C   0  0  0  0  0  1  0  0  0  0  0  0
  -26.2300  -37.3460   23.7690 N   0  0  0  0  0  0  0  0  0  0  0  0
  -25.7970  -38.2500   23.9370 H   0  0  0  0  0  0  0  0  0  0  0  0
  -26.3590  -31.6530   25.0450 C   0  0  1  0  0  0  0  0  0  0  0  0
  -25.2770  -31.3610   26.1110 C   0  0  0  0  0  1  0  0  0  0  0  0
  -26.9770  -30.3020   24.6180 C   0  0  0  0  0  1  0  0  0  0  0  0
  -27.4900  -32.4640   25.7200 C   0  0  0  0  0  1  0  0  0  0  0  0
  1  5  1  0
  3  1  2  0
  3  6  1  0
  4  2  1  0
  5  2  2  0
  6  4  2  0
  7 22  1  0
  8 13  1  0
  9 10  1  0
  9  8  1  0
 11 10  1  0
 11 26  1  0
 11 12  1  0
 13  7  1  0
 13 12  1  0
 14  7  2  0
 15 20  1  0
 15 19  1  0
 16 19  1  0
 17 22  1  0
 18 21  1  0
 19  5  1  0
 20 17  1  0
 20 21  1  0
 21 16  1  0
 22 18  1  0
 23 24  2  0
 24 43  1  0
 25 24  1  0
 25 28  1  0
 26 27  1  0
 26 23  1  0
 27 25  2  0
 28 29  1  0
 29 30  2  0
 31 34  1  0
 31 30  1  0
 32 31  2  0
 33 32  1  0
 33 28  2  0
 34 35  1  0
 35 36  1  0
 36 37  2  0
 38 37  1  0
 38 42  1  0
 39 38  2  0
 40 35  2  0
 40 39  1  0
 41 40  1  0
 43 44  1  0
 44 47  1  0
 44 46  1  0
 45 43  2  0
 48 23  1  0
 48 49  1  0
 50 48  1  0
 51  6  1  0
 51 52  1  0
 53 64  2  0
 54 52  1  0
 54 59  1  0
 55 63  1  0
 55 65  1  0
 56 62  1  0
 56 58  1  0
 57 63  1  0
 58 57  1  0
 59 58  2  0
 60 61  1  0
 60 54  2  0
 61 56  2  0
 62 55  1  0
 63 53  1  0
 65 67  2  0
 66 65  1  0
 68 66  1  0
 69 78  2  0
 69 74  1  0
 70 66  1  0
 70 74  1  0
 71 70  1  0
 72 73  1  0
 72 71  1  0
 73 69  1  0
 74 75  2  0
 75 76  1  0
 77 76  2  0
 78 77  1  0
 79 53  1  0
 79 80  1  0
 79 89  1  0
 80 83  1  0
 81 85  1  0
 81 80  1  0
 82 81  2  0
 85 84  1  0
 87 85  1  0
 87 88  1  0
 87 86  1  0
 89 92  1  1
 89 90  1  0
 91 89  1  0
M  ISO  4   7 100  22 100  51 101  52 101
M  END
>  <TORSDO>  (12) 
F 17

>  <SCORE>  (12) 
-14.213

>  <name>  (12) 
11

>  <ligand_id>  (12) 
11

>  <original_smiles>  (12) 
[H]c1c([H])c([H])c2c(c1[H])C([H])([H])C([H])([H])C([H])([H])C2([H])N([H])C(=O)C1([H])N(C(=O)C([H])(N([H])C(=O)C([H])(N([H])C([H])([H])[H])C([H])([H])[H])C(C([H])([H])[H])(C([H])([H])[H])C([H])([H])[H])C([H])([H])c2c([H])c(OC([H])([H])c3c([H])c([H])c(C4([H])C([H])([H])C5([H])C([H])([H])N(C(=O)N6C([H])([H])C([H])([H])C([H])([H])C([H])(n7nc(-c8c([H])c([H])c(Oc9c([H])c([H])c(F)c([H])c9F)c([H])c8[H])c(C(=O)N([H])[H])c7N([H])[H])C6([H])[H])C([H])([H])C5([H])C4([H])[H])c([H])c3[H])c([H])c([H])c2C1([H])[H]

>  <smiles>  (12) 
[H]c1c([H])c([H])c2c(c1[H])C([H])([H])C([H])([H])C([H])([H])C2([H])N([H])C(=O)C1([H])N(C(=O)C([H])(N([H])C(=O)C([H])(N([H])C([H])([H])[H])C([H])([H])[H])C(C([H])([H])[H])(C([H])([H])[H])C([H])([H])[H])C([H])([H])c2c([H])c(OC([H])([H])c3c([H])c([H])c(C4([H])C([H])([H])C5([H])C([H])([H])N(C(=O)N6C([H])([H])C([H])([H])C([H])([H])C([H])(n7nc(-c8c([H])c([H])c(Oc9c([H])c([H])c(F)c([H])c9F)c([H])c8[H])c(C(=O)N([H])[H])c7N([H])[H])C6([H])[H])C([H])([H])C5([H])C4([H])[H])c([H])c3[H])c([H])c([H])c2C1([H])[H]

$$$$
12:0:0
     RDKit          3D

 89 97  0  0  1  0  0  0  0  0999 V2000
  -29.0760  -18.2900   19.3400 C   0  0  0  0  0  2  0  0  0  0  0  0
  -30.1310  -18.3370   21.5780 C   0  0  0  0  0  2  0  0  0  0  0  0
  -29.1280  -19.8990   19.3030 C   0  0  0  0  0  2  0  0  0  0  0  0
  -30.1830  -19.9400   21.4840 C   0  0  0  0  0  2  0  0  0  0  0  0
  -30.1190  -17.5000   20.2400 C   0  0  0  0  0  3  0  0  0  0  0  0
  -29.0880  -20.5470   20.6550 N   0  0  1  0  0  4  0  0  0  0  0  0
  -28.2950  -20.0650   21.0530 H   0  0  0  0  0  0  0  0  0  0  0  0
  -30.6040  -14.8230   20.1570 C   0  0  0  0  0  0  0  0  0  0  0  0
  -30.3780  -12.5360   19.1360 C   0  0  0  0  0  2  0  0  0  0  0  0
  -29.4030  -12.6030   17.9390 C   0  0  0  0  0  2  0  0  0  0  0  0
  -27.9450  -12.4330   18.4060 C   0  0  0  0  0  2  0  0  0  0  0  0
  -27.6090  -13.3110   19.6400 C   0  0  0  0  0  3  0  0  0  0  0  0
  -28.7020  -13.2180   20.7290 C   0  0  0  0  0  2  0  0  0  0  0  0
  -29.9760  -13.5920   20.1000 N   0  0  0  0  0  0  0  0  0  0  0  0
  -31.7840  -14.9090   19.8030 O   0  0  0  0  0  0  0  0  0  0  0  0
  -29.8450  -15.9730   20.4020 N   0  0  0  0  0  0  0  0  0  0  0  0
  -28.8970  -15.7500   20.6710 H   0  0  0  0  0  0  0  0  0  0  0  0
  -25.2460  -13.9040   20.4450 C   0  0  0  0  0  0  0  0  0  0  0  0
  -24.1870  -13.1340   20.8380 C   0  0  0  0  0  0  0  0  0  0  0  0
  -24.6400  -11.7800   20.7780 C   0  0  0  0  0  0  0  0  0  0  0  0
  -26.2780  -13.0220   20.1680 N   0  0  0  0  0  0  0  0  0  0  0  0
  -25.9220  -11.7380   20.4330 N   0  0  0  0  0  0  0  0  0  0  0  0
  -23.9090  -10.5200   20.9690 C   0  0  0  0  0  0  0  0  0  0  0  0
  -24.3360   -9.5500   21.9040 C   0  0  0  0  0  3  0  0  0  0  0  0
  -23.6030   -8.3570   22.0830 C   0  0  0  0  0  3  0  0  0  0  0  0
  -22.4300   -8.1250   21.3290 C   0  0  0  0  0  0  0  0  0  0  0  0
  -22.0200   -9.0840   20.3850 C   0  0  0  0  0  3  0  0  0  0  0  0
  -22.7530  -10.2670   20.2020 C   0  0  0  0  0  3  0  0  0  0  0  0
  -21.6660   -6.9860   21.4220 O   0  0  0  0  0  0  0  0  0  0  0  0
  -21.5850   -6.2660   22.5860 C   0  0  0  0  0  0  0  0  0  0  0  0
  -21.1050   -6.8360   23.7850 C   0  0  0  0  0  3  0  0  0  0  0  0
  -20.9720   -6.0400   24.9410 C   0  0  0  0  0  3  0  0  0  0  0  0
  -21.3140   -4.6740   24.8990 C   0  0  0  0  0  0  0  0  0  0  0  0
  -21.7890   -4.1040   23.7040 C   0  0  0  0  0  3  0  0  0  0  0  0
  -21.9230   -4.8970   22.5520 C   0  0  0  0  0  0  0  0  0  0  0  0
  -22.3610   -4.3380   21.3980 F   0  0  0  0  0  0  0  0  0  0  0  0
  -21.1820   -3.9070   26.0060 F   0  0  0  0  0  0  0  0  0  0  0  0
  -22.8000  -13.6180   21.1490 C   0  0  0  0  0  0  0  0  0  0  0  0
  -22.0870  -12.9200   22.0260 N   0  0  0  0  0  0  0  0  0  0  0  0
  -22.3590  -14.6530   20.6510 O   0  0  0  0  0  0  0  0  0  0  0  0
  -22.4570  -12.0810   22.4500 H   0  0  0  0  0  0  0  0  0  0  0  0
  -21.1580  -13.2270   22.2750 H   0  0  0  0  0  0  0  0  0  0  0  0
  -25.4170  -15.2740   20.2720 N   0  0  0  0  0  0  0  0  0  0  0  0
  -24.6490  -15.9250   20.3870 H   0  0  0  0  0  0  0  0  0  0  0  0
  -26.2270  -15.6920   19.8330 H   0  0  0  0  0  0  0  0  0  0  0  0
  -28.5410  -22.0040   20.9140 C   0  0  0  0  0  2  0  0  0  0  0  0
  -29.0980  -23.4600   20.3830 C   0  0  0  0  0  3  0  0  0  0  0  0
  -28.1880  -24.8090   20.7220 C   0  0  0  0  0  3  0  0  0  0  0  0
  -28.4790  -26.2790   20.3870 O   0  0  0  0  0  0  0  0  0  0  0  0
  -24.6690  -31.8570   23.2410 C   0  0  0  0  0  0  0  0  0  0  0  0
  -27.3990  -27.2140   20.3110 C   0  0  0  0  0  0  0  0  0  0  0  0
  -23.5330  -30.4410   21.5730 C   0  0  0  0  0  3  0  0  0  0  0  0
  -25.0430  -28.8880   20.2010 C   0  0  0  0  0  0  0  0  0  0  0  0
  -26.0820  -30.7540   21.4780 C   0  0  0  0  0  2  0  0  0  0  0  0
  -26.1940  -29.3640   20.8410 C   0  0  0  0  0  0  0  0  0  0  0  0
  -27.3760  -28.5390   20.8850 C   0  0  0  0  0  3  0  0  0  0  0  0
  -26.2310  -26.8330   19.6190 C   0  0  0  0  0  3  0  0  0  0  0  0
  -25.0700  -27.6330   19.5750 C   0  0  0  0  0  3  0  0  0  0  0  0
  -23.8040  -29.7640   20.2060 C   0  0  0  0  0  2  0  0  0  0  0  0
  -24.7790  -31.0370   22.1540 N   0  0  0  0  0  0  0  0  0  0  0  0
  -23.5660  -32.1270   23.7380 O   0  0  0  0  0  0  0  0  0  0  0  0
  -22.8420  -29.4240   22.5160 C   0  0  0  0  0  0  0  0  0  0  0  0
  -21.5150  -29.2590   22.3710 N   0  0  0  0  0  0  0  0  0  0  0  0
  -23.5000  -28.7880   23.3440 O   0  0  0  0  0  0  0  0  0  0  0  0
  -21.0420  -29.8280   21.6830 H   0  0  0  0  0  0  0  0  0  0  0  0
  -18.1150  -28.1040   22.8450 C   0  0  0  0  0  0  0  0  0  0  0  0
  -20.6780  -28.3220   23.1300 C   0  0  0  0  0  3  0  0  0  0  0  0
  -20.7600  -26.8980   22.5330 C   0  0  0  0  0  2  0  0  0  0  0  0
  -19.6570  -26.6070   21.5100 C   0  0  0  0  0  2  0  0  0  0  0  0
  -18.2750  -26.7620   22.1500 C   0  0  0  0  0  2  0  0  0  0  0  0
  -19.2440  -28.8420   23.2900 C   0  0  0  0  0  0  0  0  0  0  0  0
  -19.0390  -30.0980   23.9020 C   0  0  0  0  0  3  0  0  0  0  0  0
  -17.7410  -30.6150   24.0720 C   0  0  0  0  0  3  0  0  0  0  0  0
  -16.6280  -29.8710   23.6420 C   0  0  0  0  0  3  0  0  0  0  0  0
  -16.8170  -28.6180   23.0350 C   0  0  0  0  0  3  0  0  0  0  0  0
  -25.9210  -32.5100   23.9030 C   0  0  0  0  0  3  0  0  0  0  0  0
  -26.4020  -31.7520   25.2020 C   0  0  1  0  0  0  0  0  0  0  0  0
  -25.2740  -31.5080   26.2330 C   0  0  0  0  0  1  0  0  0  0  0  0
  -27.0140  -30.3810   24.8340 C   0  0  0  0  0  1  0  0  0  0  0  0
  -27.5240  -32.5600   25.8940 C   0  0  0  0  0  1  0  0  0  0  0  0
  -25.5840  -33.9060   24.2190 N   0  0  0  0  0  0  0  0  0  0  0  0
  -25.9040  -34.9590   23.4550 C   0  0  0  0  0  0  0  0  0  0  0  0
  -26.5760  -34.8570   22.4250 O   0  0  0  0  0  0  0  0  0  0  0  0
  -24.9790  -34.0580   25.0140 H   0  0  0  0  0  0  0  0  0  0  0  0
  -24.1410  -36.7200   23.0890 C   0  0  0  0  0  1  0  0  0  0  0  0
  -25.3920  -36.3430   23.9000 C   0  0  0  0  0  3  0  0  0  0  0  0
  -27.5100  -37.2790   24.7180 C   0  0  0  0  0  1  0  0  0  0  0  0
  -26.4050  -37.4150   23.7720 N   0  0  0  0  0  0  0  0  0  0  0  0
  -25.9830  -38.3280   23.9130 H   0  0  0  0  0  0  0  0  0  0  0  0
  1  5  1  0
  3  1  1  0
  3  6  1  0
  4  2  1  0
  5 16  1  0
  5  2  1  0
  6 46  1  0
  6  7  1  1
  6  4  1  0
  8 16  1  0
  9 14  1  0
 10 11  1  0
 10  9  1  0
 12 11  1  0
 12 21  1  0
 12 13  1  0
 14  8  1  0
 14 13  1  0
 15  8  2  0
 16 17  1  0
 18 19  2  0
 19 38  1  0
 20 19  1  0
 20 23  1  0
 21 22  1  0
 21 18  1  0
 22 20  2  0
 23 24  1  0
 24 25  2  0
 26 29  1  0
 26 25  1  0
 27 26  2  0
 28 27  1  0
 28 23  2  0
 29 30  1  0
 30 31  1  0
 31 32  2  0
 33 32  1  0
 33 37  1  0
 34 33  2  0
 35 30  2  0
 35 34  1  0
 36 35  1  0
 38 39  1  0
 39 42  1  0
 39 41  1  0
 40 38  2  0
 43 44  1  0
 43 18  1  0
 45 43  1  0
 47 48  2  0
 47 46  1  0
 49 48  1  0
 50 61  2  0
 51 49  1  0
 51 56  1  0
 52 60  1  0
 52 62  1  0
 53 59  1  0
 53 55  1  0
 54 60  1  0
 55 56  2  0
 55 54  1  0
 57 51  2  0
 58 57  1  0
 58 53  2  0
 59 52  1  0
 60 50  1  0
 62 64  2  0
 63 62  1  0
 65 63  1  0
 66 75  2  0
 66 71  1  0
 67 63  1  0
 67 71  1  0
 68 67  1  0
 69 70  1  0
 69 68  1  0
 70 66  1  0
 71 72  2  0
 72 73  1  0
 74 73  2  0
 75 74  1  0
 76 50  1  0
 76 81  1  0
 76 77  1  0
 77 80  1  1
 77 78  1  0
 79 77  1  0
 81 84  1  0
 82 86  1  0
 82 81  1  0
 83 82  2  0
 86 85  1  0
 88 86  1  0
 88 89  1  0
 88 87  1  0
M  ISO  4   8 100  16 100  48 101  49 101
M  END
>  <TORSDO>  (13) 
F 19

>  <SCORE>  (13) 
-13.998

>  <name>  (13) 
12

>  <ligand_id>  (13) 
12

>  <original_smiles>  (13) 
[H]c1c([H])c([H])c2c(c1[H])C([H])([H])C([H])([H])C([H])([H])C2([H])N([H])C(=O)C1([H])N(C(=O)C([H])(N([H])C(=O)C([H])(N([H])C([H])([H])[H])C([H])([H])[H])C(C([H])([H])[H])(C([H])([H])[H])C([H])([H])[H])C([H])([H])c2c([H])c(OC([H])([H])C([H])([H])C([H])([H])[N+]3([H])C([H])([H])C([H])([H])C([H])(N([H])C(=O)N4C([H])([H])C([H])([H])C([H])([H])C([H])(n5nc(-c6c([H])c([H])c(Oc7c([H])c([H])c(F)c([H])c7F)c([H])c6[H])c(C(=O)N([H])[H])c5N([H])[H])C4([H])[H])C([H])([H])C3([H])[H])c([H])c([H])c2C1([H])[H]

>  <smiles>  (13) 
[H]c1c([H])c([H])c2c(c1[H])C([H])([H])C([H])([H])C([H])([H])C2([H])N([H])C(=O)C1([H])N(C(=O)C([H])(N([H])C(=O)C([H])(N([H])C([H])([H])[H])C([H])([H])[H])C(C([H])([H])[H])(C([H])([H])[H])C([H])([H])[H])C([H])([H])c2c([H])c(OC([H])([H])C([H])([H])C([H])([H])[N+]3([H])C([H])([H])C([H])([H])C([H])(N([H])C(=O)N4C([H])([H])C([H])([H])C([H])([H])C([H])(n5nc(-c6c([H])c([H])c(Oc7c([H])c([H])c(F)c([H])c7F)c([H])c6[H])c(C(=O)N([H])[H])c5N([H])[H])C4([H])[H])C([H])([H])C3([H])[H])c([H])c([H])c2C1([H])[H]

$$$$
13:0:0
     RDKit          3D

 95104  0  0  1  0  0  0  0  0999 V2000
  -27.3580  -23.2730   22.2580 C   0  0  0  0  0  3  0  0  0  0  0  0
  -27.8650  -21.8810   20.3310 C   0  0  0  0  0  3  0  0  0  0  0  0
  -27.7280  -24.4240   21.5350 C   0  0  0  0  0  3  0  0  0  0  0  0
  -28.2310  -23.0330   19.6060 C   0  0  0  0  0  3  0  0  0  0  0  0
  -27.4120  -21.9920   21.6650 C   0  0  0  0  0  0  0  0  0  0  0  0
  -28.1600  -24.3120   20.1970 C   0  0  0  0  0  0  0  0  0  0  0  0
  -26.3040  -19.6240   21.6660 C   0  0  0  0  0  2  0  0  0  0  0  0
  -27.9620  -20.3060   23.5370 C   0  0  0  0  0  2  0  0  0  0  0  0
  -27.2620  -18.4560   21.3400 C   0  0  0  0  0  2  0  0  0  0  0  0
  -28.8420  -19.1290   23.0730 C   0  0  0  0  0  2  0  0  0  0  0  0
  -26.9370  -20.7870   22.4800 C   0  0  0  0  0  3  0  0  0  0  0  0
  -27.9820  -18.0360   22.5630 N   0  0  2  0  0  4  0  0  0  0  0  0
  -27.2630  -17.9290   23.2630 H   0  0  0  0  0  0  0  0  0  0  0  0
  -28.6030  -16.6840   22.5380 C   0  0  0  0  0  2  0  0  0  0  0  0
  -29.7020  -16.4530   21.4760 C   0  0  0  0  0  2  0  0  0  0  0  0
  -30.7550  -14.3770   20.6740 C   0  0  0  0  0  0  0  0  0  0  0  0
  -30.4190  -12.2940   19.3900 C   0  0  0  0  0  2  0  0  0  0  0  0
  -29.4800  -12.5170   18.1890 C   0  0  0  0  0  2  0  0  0  0  0  0
  -28.0070  -12.3700   18.6130 C   0  0  0  0  0  2  0  0  0  0  0  0
  -27.6660  -13.1980   19.8780 C   0  0  0  0  0  3  0  0  0  0  0  0
  -28.7050  -12.9440   20.9910 C   0  0  0  0  0  2  0  0  0  0  0  0
  -30.0460  -13.2390   20.4530 N   0  0  0  0  0  0  0  0  0  0  0  0
  -31.7750  -14.6810   20.0520 O   0  0  0  0  0  0  0  0  0  0  0  0
  -30.3190  -15.1380   21.6830 N   0  0  0  0  0  0  0  0  0  0  0  0
  -31.0140  -15.1790   22.4160 H   0  0  0  0  0  0  0  0  0  0  0  0
  -25.2620  -13.8140   20.5680 C   0  0  0  0  0  0  0  0  0  0  0  0
  -24.1860  -13.0440   20.9190 C   0  0  0  0  0  0  0  0  0  0  0  0
  -24.6390  -11.6900   20.8750 C   0  0  0  0  0  0  0  0  0  0  0  0
  -26.3050  -12.9290   20.3370 N   0  0  0  0  0  0  0  0  0  0  0  0
  -25.9310  -11.6460   20.5770 N   0  0  0  0  0  0  0  0  0  0  0  0
  -23.9050  -10.4300   21.0420 C   0  0  0  0  0  0  0  0  0  0  0  0
  -24.3610   -9.4210   21.9190 C   0  0  0  0  0  3  0  0  0  0  0  0
  -23.6290   -8.2250   22.0750 C   0  0  0  0  0  3  0  0  0  0  0  0
  -22.4270   -8.0290   21.3540 C   0  0  0  0  0  0  0  0  0  0  0  0
  -21.9910   -9.0250   20.4640 C   0  0  0  0  0  3  0  0  0  0  0  0
  -22.7230  -10.2140   20.3050 C   0  0  0  0  0  3  0  0  0  0  0  0
  -21.6630   -6.8880   21.4240 O   0  0  0  0  0  0  0  0  0  0  0  0
  -21.6860   -6.0740   22.5280 C   0  0  0  0  0  0  0  0  0  0  0  0
  -21.4010   -6.5640   23.8210 C   0  0  0  0  0  3  0  0  0  0  0  0
  -21.3660   -5.6790   24.9170 C   0  0  0  0  0  3  0  0  0  0  0  0
  -21.6050   -4.3050   24.7220 C   0  0  0  0  0  0  0  0  0  0  0  0
  -21.8820   -3.8140   23.4340 C   0  0  0  0  0  3  0  0  0  0  0  0
  -21.9190   -4.6970   22.3400 C   0  0  0  0  0  0  0  0  0  0  0  0
  -22.1660   -4.2150   21.0980 F   0  0  0  0  0  0  0  0  0  0  0  0
  -21.5630   -3.4540   25.7740 F   0  0  0  0  0  0  0  0  0  0  0  0
  -22.7890  -13.5250   21.1850 C   0  0  0  0  0  0  0  0  0  0  0  0
  -22.0510  -12.8240   22.0390 N   0  0  0  0  0  0  0  0  0  0  0  0
  -22.3580  -14.5570   20.6690 O   0  0  0  0  0  0  0  0  0  0  0  0
  -22.4110  -11.9890   22.4760 H   0  0  0  0  0  0  0  0  0  0  0  0
  -21.1130  -13.1260   22.2600 H   0  0  0  0  0  0  0  0  0  0  0  0
  -25.4380  -15.1840   20.4020 N   0  0  0  0  0  0  0  0  0  0  0  0
  -24.6360  -15.8030   20.4000 H   0  0  0  0  0  0  0  0  0  0  0  0
  -26.2270  -15.5580   19.8940 H   0  0  0  0  0  0  0  0  0  0  0  0
  -28.5870  -25.5330   19.3880 C   0  0  0  0  0  2  0  0  0  0  0  0
  -28.4540  -26.7860   20.0640 O   0  0  0  0  0  0  0  0  0  0  0  0
  -24.6310  -31.8760   23.2160 C   0  0  0  0  0  0  0  0  0  0  0  0
  -27.2440  -27.4510   20.0760 C   0  0  0  0  0  0  0  0  0  0  0  0
  -23.4330  -30.5010   21.5680 C   0  0  0  0  0  3  0  0  0  0  0  0
  -24.8520  -28.9580   20.1240 C   0  0  0  0  0  0  0  0  0  0  0  0
  -25.9460  -30.8410   21.3620 C   0  0  0  0  0  2  0  0  0  0  0  0
  -26.0130  -29.4730   20.7120 C   0  0  0  0  0  0  0  0  0  0  0  0
  -27.2060  -28.7220   20.6910 C   0  0  0  0  0  3  0  0  0  0  0  0
  -26.0580  -26.9380   19.5000 C   0  0  0  0  0  3  0  0  0  0  0  0
  -24.8670  -27.6890   19.5200 C   0  0  0  0  0  3  0  0  0  0  0  0
  -23.6180  -29.8280   20.1810 C   0  0  0  0  0  2  0  0  0  0  0  0
  -24.6910  -31.0870   22.1080 N   0  0  0  0  0  0  0  0  0  0  0  0
  -23.5470  -32.1500   23.7530 O   0  0  0  0  0  0  0  0  0  0  0  0
  -22.7750  -29.4850   22.5250 C   0  0  0  0  0  0  0  0  0  0  0  0
  -21.4540  -29.4490   22.4040 N   0  0  0  0  0  0  0  0  0  0  0  0
  -23.4260  -28.7630   23.2800 O   0  0  0  0  0  0  0  0  0  0  0  0
  -21.0750  -30.1720   21.8070 H   0  0  0  0  0  0  0  0  0  0  0  0
  -17.9930  -28.1210   22.8680 C   0  0  0  0  0  0  0  0  0  0  0  0
  -20.4770  -28.4600   22.7810 C   0  0  0  0  0  3  0  0  0  0  0  0
  -20.6880  -26.9620   22.5370 C   0  0  0  0  0  2  0  0  0  0  0  0
  -19.5550  -26.4560   21.6190 C   0  0  0  0  0  2  0  0  0  0  0  0
  -18.1550  -26.7550   22.1990 C   0  0  0  0  0  2  0  0  0  0  0  0
  -19.1130  -28.8990   23.2500 C   0  0  0  0  0  0  0  0  0  0  0  0
  -18.9310  -30.1480   23.8790 C   0  0  0  0  0  3  0  0  0  0  0  0
  -17.6330  -30.6480   24.0840 C   0  0  0  0  0  3  0  0  0  0  0  0
  -16.5170  -29.8930   23.6750 C   0  0  0  0  0  3  0  0  0  0  0  0
  -16.6970  -28.6290   23.0840 C   0  0  0  0  0  3  0  0  0  0  0  0
  -25.9160  -32.4890   23.8460 C   0  0  0  0  0  3  0  0  0  0  0  0
  -26.4510  -31.6630   25.0780 C   0  0  1  0  0  0  0  0  0  0  0  0
  -25.3740  -31.3720   26.1490 C   0  0  0  0  0  1  0  0  0  0  0  0
  -27.0310  -30.3080   24.6120 C   0  0  0  0  0  1  0  0  0  0  0  0
  -27.6100  -32.4300   25.7560 C   0  0  0  0  0  1  0  0  0  0  0  0
  -25.5980  -33.8670   24.2390 N   0  0  0  0  0  0  0  0  0  0  0  0
  -25.9050  -34.9510   23.5140 C   0  0  0  0  0  0  0  0  0  0  0  0
  -26.5580  -34.8940   22.4690 O   0  0  0  0  0  0  0  0  0  0  0  0
  -25.0150  -33.9820   25.0550 H   0  0  0  0  0  0  0  0  0  0  0  0
  -24.1480  -36.7330   23.2630 C   0  0  0  0  0  1  0  0  0  0  0  0
  -25.4100  -36.3140   24.0340 C   0  0  0  0  0  3  0  0  0  0  0  0
  -27.5580  -37.1830   24.8470 C   0  0  0  0  0  1  0  0  0  0  0  0
  -26.4300  -37.3820   23.9410 N   0  0  0  0  0  0  0  0  0  0  0  0
  -26.0190  -38.2910   24.1400 H   0  0  0  0  0  0  0  0  0  0  0  0
  2  5  2  0
  3  1  2  0
  4  6  2  0
  4  2  1  0
  5  1  1  0
  6  3  1  0
  7 11  1  0
  9  7  1  0
  9 12  1  0
 10  8  1  0
 11  5  1  0
 11  8  1  0
 12 10  1  0
 12 13  1  1
 14 12  1  0
 15 24  1  0
 15 14  1  0
 16 24  1  0
 17 22  1  0
 18 19  1  0
 18 17  1  0
 20 19  1  0
 20 29  1  0
 20 21  1  0
 22 16  1  0
 22 21  1  0
 23 16  2  0
 24 25  1  0
 26 27  2  0
 27 46  1  0
 28 27  1  0
 28 31  1  0
 29 26  1  0
 29 30  1  0
 30 28  2  0
 31 32  1  0
 32 33  2  0
 34 37  1  0
 34 33  1  0
 35 34  2  0
 36 35  1  0
 36 31  2  0
 37 38  1  0
 38 39  1  0
 39 40  2  0
 41 40  1  0
 41 45  1  0
 42 41  2  0
 43 38  2  0
 43 42  1  0
 44 43  1  0
 46 47  1  0
 47 50  1  0
 47 49  1  0
 48 46  2  0
 51 26  1  0
 52 51  1  0
 53 51  1  0
 54 55  1  0
 54  6  1  0
 55 57  1  0
 56 67  2  0
 57 62  1  0
 58 66  1  0
 58 68  1  0
 59 65  1  0
 59 61  1  0
 60 66  1  0
 61 60  1  0
 62 61  2  0
 63 64  1  0
 63 57  2  0
 64 59  2  0
 65 58  1  0
 66 56  1  0
 68 70  2  0
 69 68  1  0
 71 69  1  0
 72 81  2  0
 72 77  1  0
 73 69  1  0
 73 77  1  0
 74 73  1  0
 75 76  1  0
 75 74  1  0
 76 72  1  0
 77 78  2  0
 78 79  1  0
 80 79  2  0
 81 80  1  0
 82 56  1  0
 82 87  1  0
 82 83  1  0
 83 86  1  1
 83 84  1  0
 85 83  1  0
 87 90  1  0
 88 92  1  0
 88 87  1  0
 89 88  2  0
 92 91  1  0
 94 92  1  0
 94 95  1  0
 94 93  1  0
M  ISO  4  16 100  24 100  54 101  55 101
M  END
>  <TORSDO>  (14) 
F 20

>  <SCORE>  (14) 
20.034

>  <name>  (14) 
13

>  <ligand_id>  (14) 
13

>  <original_smiles>  (14) 
[H]c1c([H])c([H])c2c(c1[H])C([H])([H])C([H])([H])C([H])([H])C2([H])N([H])C(=O)C1([H])N(C(=O)C([H])(N([H])C(=O)C([H])(N([H])C([H])([H])[H])C([H])([H])[H])C(C([H])([H])[H])(C([H])([H])[H])C([H])([H])[H])C([H])([H])c2c([H])c(OC([H])([H])c3c([H])c([H])c(C4([H])C([H])([H])C([H])([H])[N+]([H])(C([H])([H])C([H])([H])N([H])C(=O)N5C([H])([H])C([H])([H])C([H])([H])C([H])(n6nc(-c7c([H])c([H])c(Oc8c([H])c([H])c(F)c([H])c8F)c([H])c7[H])c(C(=O)N([H])[H])c6N([H])[H])C5([H])[H])C([H])([H])C4([H])[H])c([H])c3[H])c([H])c([H])c2C1([H])[H]

>  <smiles>  (14) 
[H]c1c([H])c([H])c2c(c1[H])C([H])([H])C([H])([H])C([H])([H])C2([H])N([H])C(=O)C1([H])N(C(=O)C([H])(N([H])C(=O)C([H])(N([H])C([H])([H])[H])C([H])([H])[H])C(C([H])([H])[H])(C([H])([H])[H])C([H])([H])[H])C([H])([H])c2c([H])c(OC([H])([H])c3c([H])c([H])c(C4([H])C([H])([H])C([H])([H])[N+]([H])(C([H])([H])C([H])([H])N([H])C(=O)N5C([H])([H])C([H])([H])C([H])([H])C([H])(n6nc(-c7c([H])c([H])c(Oc8c([H])c([H])c(F)c([H])c8F)c([H])c7[H])c(C(=O)N([H])[H])c6N([H])[H])C5([H])[H])C([H])([H])C4([H])[H])c([H])c3[H])c([H])c([H])c2C1([H])[H]

$$$$
14:0:0
     RDKit          3D

 87 95  0  0  1  0  0  0  0  0999 V2000
  -30.3710  -15.3770   20.3470 C   0  0  0  0  0  0  0  0  0  0  0  0
  -30.4220  -12.8960   19.5390 C   0  0  0  0  0  2  0  0  0  0  0  0
  -29.5410  -12.5450   18.3140 C   0  0  0  0  0  2  0  0  0  0  0  0
  -28.1050  -12.2300   18.7600 C   0  0  0  0  0  2  0  0  0  0  0  0
  -27.5860  -13.2820   19.7710 C   0  0  0  0  0  3  0  0  0  0  0  0
  -28.5840  -13.5380   20.9120 C   0  0  0  0  0  2  0  0  0  0  0  0
  -29.8060  -14.0640   20.2760 N   0  0  0  0  0  0  0  0  0  0  0  0
  -31.6120  -15.3160   20.2810 O   0  0  0  0  0  0  0  0  0  0  0  0
  -27.5250  -18.3170   20.1090 C   0  0  0  0  0  2  0  0  0  0  0  0
  -28.5970  -17.2710   19.4550 C   0  0  0  0  0  2  0  0  0  0  0  0
  -30.0820  -18.1420   21.0180 C   0  0  0  0  0  2  0  0  0  0  0  0
  -27.4800  -19.9550   20.0030 C   0  0  0  0  0  2  0  0  0  0  0  0
  -29.9530  -19.8260   20.5050 C   0  0  0  0  0  2  0  0  0  0  0  0
  -29.6690  -16.7240   20.3750 N   0  0  0  0  0  0  0  0  0  0  0  0
  -28.7510  -20.8110   20.0620 N   0  0  2  0  0  4  0  0  0  0  0  0
  -28.9450  -20.8640   19.0740 H   0  0  0  0  0  0  0  0  0  0  0  0
  -25.2170  -13.8790   20.4680 C   0  0  0  0  0  0  0  0  0  0  0  0
  -24.1340  -13.1180   20.8160 C   0  0  0  0  0  0  0  0  0  0  0  0
  -24.5940  -11.7650   20.8290 C   0  0  0  0  0  0  0  0  0  0  0  0
  -26.2510  -12.9860   20.2610 N   0  0  0  0  0  0  0  0  0  0  0  0
  -25.8910  -11.7110   20.5530 N   0  0  0  0  0  0  0  0  0  0  0  0
  -23.8520  -10.5130   21.0250 C   0  0  0  0  0  0  0  0  0  0  0  0
  -24.2700   -9.5480   21.9660 C   0  0  0  0  0  3  0  0  0  0  0  0
  -23.5290   -8.3590   22.1490 C   0  0  0  0  0  3  0  0  0  0  0  0
  -22.3590   -8.1310   21.3860 C   0  0  0  0  0  0  0  0  0  0  0  0
  -21.9630   -9.0840   20.4320 C   0  0  0  0  0  3  0  0  0  0  0  0
  -22.7020  -10.2640   20.2480 C   0  0  0  0  0  3  0  0  0  0  0  0
  -21.5910   -6.9970   21.4800 O   0  0  0  0  0  0  0  0  0  0  0  0
  -21.5470   -6.2490   22.6290 C   0  0  0  0  0  0  0  0  0  0  0  0
  -21.1710   -6.8150   23.8680 C   0  0  0  0  0  3  0  0  0  0  0  0
  -21.0730   -5.9970   25.0110 C   0  0  0  0  0  3  0  0  0  0  0  0
  -21.3350   -4.6180   24.9180 C   0  0  0  0  0  0  0  0  0  0  0  0
  -21.7070   -4.0540   23.6850 C   0  0  0  0  0  3  0  0  0  0  0  0
  -21.8090   -4.8670   22.5430 C   0  0  0  0  0  0  0  0  0  0  0  0
  -22.1460   -4.3180   21.3510 F   0  0  0  0  0  0  0  0  0  0  0  0
  -21.2320   -3.8300   26.0140 F   0  0  0  0  0  0  0  0  0  0  0  0
  -22.7350  -13.6150   21.0320 C   0  0  0  0  0  0  0  0  0  0  0  0
  -21.9740  -12.9520   21.8970 N   0  0  0  0  0  0  0  0  0  0  0  0
  -22.3190  -14.6280   20.4780 O   0  0  0  0  0  0  0  0  0  0  0  0
  -22.3130  -12.1290   22.3740 H   0  0  0  0  0  0  0  0  0  0  0  0
  -21.0330  -13.2750   22.0840 H   0  0  0  0  0  0  0  0  0  0  0  0
  -25.4020  -15.2440   20.2730 N   0  0  0  0  0  0  0  0  0  0  0  0
  -24.6590  -15.9250   20.3860 H   0  0  0  0  0  0  0  0  0  0  0  0
  -26.2860  -15.6620   20.0100 H   0  0  0  0  0  0  0  0  0  0  0  0
  -28.7490  -22.4880   20.4440 C   0  0  0  0  0  3  0  0  0  0  0  0
  -28.0030  -24.0450   19.7910 C   0  0  0  0  0  3  0  0  0  0  0  0
  -28.1820  -25.7010   20.1020 O   0  0  0  0  0  0  0  0  0  0  0  0
  -24.6880  -31.7800   23.0690 C   0  0  0  0  0  0  0  0  0  0  0  0
  -27.2080  -26.8520   20.0200 C   0  0  0  0  0  0  0  0  0  0  0  0
  -23.4890  -30.3760   21.4440 C   0  0  0  0  0  3  0  0  0  0  0  0
  -24.9260  -28.7770   20.0020 C   0  0  0  0  0  0  0  0  0  0  0  0
  -26.0570  -30.5830   21.2760 C   0  0  0  0  0  2  0  0  0  0  0  0
  -26.1220  -29.1680   20.6170 C   0  0  0  0  0  0  0  0  0  0  0  0
  -27.2530  -28.2260   20.6020 C   0  0  0  0  0  3  0  0  0  0  0  0
  -25.9900  -26.6380   19.3400 C   0  0  0  0  0  3  0  0  0  0  0  0
  -24.8930  -27.5390   19.3370 C   0  0  0  0  0  3  0  0  0  0  0  0
  -23.7070  -29.6990   20.0630 C   0  0  0  0  0  2  0  0  0  0  0  0
  -24.7690  -30.9420   21.9840 N   0  0  0  0  0  0  0  0  0  0  0  0
  -23.6000  -32.0650   23.5980 O   0  0  0  0  0  0  0  0  0  0  0  0
  -22.8080  -29.3790   22.4210 C   0  0  0  0  0  0  0  0  0  0  0  0
  -21.4730  -29.2200   22.3240 N   0  0  0  0  0  0  0  0  0  0  0  0
  -23.4860  -28.7460   23.2320 O   0  0  0  0  0  0  0  0  0  0  0  0
  -20.9810  -29.7820   21.6430 H   0  0  0  0  0  0  0  0  0  0  0  0
  -18.0960  -28.0140   22.8940 C   0  0  0  0  0  0  0  0  0  0  0  0
  -20.6620  -28.2770   23.1030 C   0  0  0  0  0  3  0  0  0  0  0  0
  -20.7480  -26.8490   22.5140 C   0  0  0  0  0  2  0  0  0  0  0  0
  -19.6260  -26.5360   21.5200 C   0  0  0  0  0  2  0  0  0  0  0  0
  -18.2590  -26.6730   22.1980 C   0  0  0  0  0  2  0  0  0  0  0  0
  -19.2250  -28.7750   23.3030 C   0  0  0  0  0  0  0  0  0  0  0  0
  -19.0180  -30.0280   23.9230 C   0  0  0  0  0  3  0  0  0  0  0  0
  -17.7180  -30.5210   24.1300 C   0  0  0  0  0  3  0  0  0  0  0  0
  -16.6030  -29.7620   23.7310 C   0  0  0  0  0  3  0  0  0  0  0  0
  -16.7950  -28.5080   23.1220 C   0  0  0  0  0  3  0  0  0  0  0  0
  -25.9550  -32.4380   23.6940 C   0  0  0  0  0  3  0  0  0  0  0  0
  -25.6080  -33.8170   24.0740 N   0  0  0  0  0  0  0  0  0  0  0  0
  -25.8980  -34.9130   23.3590 C   0  0  0  0  0  0  0  0  0  0  0  0
  -26.5430  -34.8670   22.3070 O   0  0  0  0  0  0  0  0  0  0  0  0
  -25.0240  -33.9240   24.8920 H   0  0  0  0  0  0  0  0  0  0  0  0
  -24.1130  -36.6790   23.1390 C   0  0  0  0  0  1  0  0  0  0  0  0
  -25.3940  -36.2720   23.8860 C   0  0  0  0  0  3  0  0  0  0  0  0
  -27.5340  -37.1890   24.6710 C   0  0  0  0  0  1  0  0  0  0  0  0
  -26.3970  -37.3560   23.7730 N   0  0  0  0  0  0  0  0  0  0  0  0
  -25.9720  -38.2630   23.9580 H   0  0  0  0  0  0  0  0  0  0  0  0
  -26.5020  -31.6510   24.9480 C   0  0  1  0  0  0  0  0  0  0  0  0
  -25.4300  -31.3780   26.0300 C   0  0  0  0  0  1  0  0  0  0  0  0
  -27.0990  -30.2900   24.5300 C   0  0  0  0  0  1  0  0  0  0  0  0
  -27.6510  -32.4540   25.6050 C   0  0  0  0  0  1  0  0  0  0  0  0
  1 14  1  0
  2  7  1  0
  3  4  1  0
  3  2  1  0
  5  4  1  0
  5 20  1  0
  5  6  1  0
  7  1  1  0
  7  6  1  0
  8  1  2  0
 10  9  1  0
 10 14  1  0
 12 15  1  0
 12  9  1  0
 13 11  1  0
 14 11  1  0
 15 45  1  0
 15 13  1  0
 15 16  1  6
 17 18  2  0
 18 19  1  0
 18 37  1  0
 19 22  1  0
 20 17  1  0
 20 21  1  0
 21 19  2  0
 22 23  1  0
 23 24  2  0
 25 28  1  0
 25 24  1  0
 26 25  2  0
 27 26  1  0
 27 22  2  0
 28 29  1  0
 29 30  1  0
 30 31  2  0
 32 31  1  0
 32 36  1  0
 33 32  2  0
 34 29  2  0
 34 33  1  0
 35 34  1  0
 37 38  1  0
 38 41  1  0
 38 40  1  0
 39 37  2  0
 42 43  1  0
 42 17  1  0
 44 42  1  0
 46 47  1  0
 46 45  2  0
 48 59  2  0
 49 47  1  0
 49 54  1  0
 50 58  1  0
 50 60  1  0
 51 57  1  0
 51 53  1  0
 52 58  1  0
 53 52  1  0
 54 53  2  0
 55 49  2  0
 56 55  1  0
 56 51  2  0
 57 50  1  0
 58 48  1  0
 60 62  2  0
 61 60  1  0
 63 61  1  0
 64 73  2  0
 64 69  1  0
 65 61  1  0
 65 69  1  0
 66 65  1  0
 67 68  1  0
 67 66  1  0
 68 64  1  0
 69 70  2  0
 70 71  1  0
 72 71  2  0
 73 72  1  0
 74 48  1  0
 74 75  1  0
 74 84  1  0
 75 78  1  0
 76 80  1  0
 76 75  1  0
 77 76  2  0
 80 79  1  0
 82 80  1  0
 82 83  1  0
 82 81  1  0
 84 87  1  1
 84 85  1  0
 86 84  1  0
M  ISO  4   1 100  14 100  46 101  47 101
M  END
>  <TORSDO>  (15) 
F 17

>  <SCORE>  (15) 
-16.216

>  <name>  (15) 
14

>  <ligand_id>  (15) 
14

>  <original_smiles>  (15) 
[H]c1c([H])c([H])c2c(c1[H])C([H])([H])C([H])([H])C([H])([H])C2([H])N([H])C(=O)C1([H])N(C(=O)C([H])(N([H])C(=O)C([H])(N([H])C([H])([H])[H])C([H])([H])[H])C(C([H])([H])[H])(C([H])([H])[H])C([H])([H])[H])C([H])([H])c2c([H])c(OC([H])([H])C([H])([H])[N+]3([H])C([H])([H])C([H])([H])N(C(=O)N4C([H])([H])C([H])([H])C([H])([H])C([H])(n5nc(-c6c([H])c([H])c(Oc7c([H])c([H])c(F)c([H])c7F)c([H])c6[H])c(C(=O)N([H])[H])c5N([H])[H])C4([H])[H])C([H])([H])C([H])([H])C3([H])[H])c([H])c([H])c2C1([H])[H]

>  <smiles>  (15) 
[H]c1c([H])c([H])c2c(c1[H])C([H])([H])C([H])([H])C([H])([H])C2([H])N([H])C(=O)C1([H])N(C(=O)C([H])(N([H])C(=O)C([H])(N([H])C([H])([H])[H])C([H])([H])[H])C(C([H])([H])[H])(C([H])([H])[H])C([H])([H])[H])C([H])([H])c2c([H])c(OC([H])([H])C([H])([H])[N+]3([H])C([H])([H])C([H])([H])N(C(=O)N4C([H])([H])C([H])([H])C([H])([H])C([H])(n5nc(-c6c([H])c([H])c(Oc7c([H])c([H])c(F)c([H])c7F)c([H])c6[H])c(C(=O)N([H])[H])c5N([H])[H])C4([H])[H])C([H])([H])C([H])([H])C3([H])[H])c([H])c([H])c2C1([H])[H]

$$$$
15:0:0
     RDKit          3D

 91100  0  0  1  0  0  0  0  0999 V2000
  -30.9250  -24.2570   19.5160 C   0  0  0  0  0  2  0  0  0  0  0  0
  -30.5330  -23.5130   20.7900 C   0  0  0  0  0  2  0  0  0  0  0  0
  -30.0000  -23.2860   18.7900 C   0  0  0  0  0  2  0  0  0  0  0  0
  -29.2230  -23.0410   20.1070 C   0  0  1  0  0  0  0  0  0  0  0  0
  -29.9100  -20.4650   21.1620 C   0  0  0  0  0  3  0  0  0  0  0  0
  -30.1010  -18.9900   21.1420 C   0  0  0  0  0  3  0  0  0  0  0  0
  -28.6970  -18.8710   19.3280 C   0  0  0  0  0  3  0  0  0  0  0  0
  -29.1190  -21.3000   20.2550 C   0  0  0  0  0  0  0  0  0  0  0  0
  -29.5260  -18.0440   20.2030 C   0  0  0  0  0  0  0  0  0  0  0  0
  -28.5230  -20.3480   19.3260 C   0  0  0  0  0  0  0  0  0  0  0  0
  -27.7520  -20.8670   18.3400 F   0  0  0  0  0  0  0  0  0  0  0  0
  -30.3780  -15.2420   20.1310 C   0  0  0  0  0  0  0  0  0  0  0  0
  -30.3440  -12.8230   19.2130 C   0  0  0  0  0  2  0  0  0  0  0  0
  -29.3730  -12.6620   18.0150 C   0  0  0  0  0  2  0  0  0  0  0  0
  -27.9370  -12.3970   18.5010 C   0  0  0  0  0  2  0  0  0  0  0  0
  -27.5330  -13.3350   19.6650 C   0  0  0  0  0  3  0  0  0  0  0  0
  -28.6220  -13.4320   20.7530 C   0  0  0  0  0  2  0  0  0  0  0  0
  -29.8360  -13.9330   20.0900 N   0  0  0  0  0  0  0  0  0  0  0  0
  -31.5890  -15.2960   19.8720 O   0  0  0  0  0  0  0  0  0  0  0  0
  -29.5270  -16.4350   20.2430 N   0  0  0  0  0  0  0  0  0  0  0  0
  -28.5770  -16.0960   20.2950 H   0  0  0  0  0  0  0  0  0  0  0  0
  -25.1920  -13.8870   20.5230 C   0  0  0  0  0  0  0  0  0  0  0  0
  -24.1410  -13.1040   20.9100 C   0  0  0  0  0  0  0  0  0  0  0  0
  -24.6000  -11.7530   20.8220 C   0  0  0  0  0  0  0  0  0  0  0  0
  -26.2210  -13.0150   20.2130 N   0  0  0  0  0  0  0  0  0  0  0  0
  -25.8790  -11.7240   20.4610 N   0  0  0  0  0  0  0  0  0  0  0  0
  -23.8740  -10.4890   21.0010 C   0  0  0  0  0  0  0  0  0  0  0  0
  -24.3050   -9.5130   21.9260 C   0  0  0  0  0  3  0  0  0  0  0  0
  -23.5770   -8.3150   22.0950 C   0  0  0  0  0  3  0  0  0  0  0  0
  -22.4030   -8.0860   21.3390 C   0  0  0  0  0  0  0  0  0  0  0  0
  -21.9910   -9.0510   20.4030 C   0  0  0  0  0  3  0  0  0  0  0  0
  -22.7200  -10.2390   20.2320 C   0  0  0  0  0  3  0  0  0  0  0  0
  -21.6470   -6.9410   21.4170 O   0  0  0  0  0  0  0  0  0  0  0  0
  -21.5610   -6.2140   22.5770 C   0  0  0  0  0  0  0  0  0  0  0  0
  -21.0770   -6.7780   23.7770 C   0  0  0  0  0  3  0  0  0  0  0  0
  -20.9410   -5.9760   24.9280 C   0  0  0  0  0  3  0  0  0  0  0  0
  -21.2770   -4.6110   24.8790 C   0  0  0  0  0  0  0  0  0  0  0  0
  -21.7550   -4.0450   23.6840 C   0  0  0  0  0  3  0  0  0  0  0  0
  -21.8930   -4.8450   22.5350 C   0  0  0  0  0  0  0  0  0  0  0  0
  -22.3330   -4.2900   21.3800 F   0  0  0  0  0  0  0  0  0  0  0  0
  -21.1400   -3.8370   25.9820 F   0  0  0  0  0  0  0  0  0  0  0  0
  -22.7570  -13.5790   21.2430 C   0  0  0  0  0  0  0  0  0  0  0  0
  -22.0570  -12.8630   22.1150 N   0  0  0  0  0  0  0  0  0  0  0  0
  -22.3080  -14.6200   20.7650 O   0  0  0  0  0  0  0  0  0  0  0  0
  -22.4340  -12.0210   22.5220 H   0  0  0  0  0  0  0  0  0  0  0  0
  -21.1290  -13.1620   22.3790 H   0  0  0  0  0  0  0  0  0  0  0  0
  -25.3490  -15.2620   20.3770 N   0  0  0  0  0  0  0  0  0  0  0  0
  -24.5790  -15.9040   20.5300 H   0  0  0  0  0  0  0  0  0  0  0  0
  -26.1600  -15.7120   19.9750 H   0  0  0  0  0  0  0  0  0  0  0  0
  -28.0260  -24.3400   20.2820 C   0  0  0  0  0  2  0  0  0  0  0  0
  -28.2330  -25.9650   20.2500 O   0  0  0  0  0  0  0  0  0  0  0  0
  -24.6590  -31.8660   23.2480 C   0  0  0  0  0  0  0  0  0  0  0  0
  -27.1970  -27.0220   20.2160 C   0  0  0  0  0  0  0  0  0  0  0  0
  -23.4550  -30.4790   21.6080 C   0  0  0  0  0  3  0  0  0  0  0  0
  -24.8940  -28.8770   20.1800 C   0  0  0  0  0  0  0  0  0  0  0  0
  -26.0190  -30.6950   21.4520 C   0  0  0  0  0  2  0  0  0  0  0  0
  -26.0830  -29.2890   20.7940 C   0  0  0  0  0  0  0  0  0  0  0  0
  -27.2320  -28.3830   20.7840 C   0  0  0  0  0  3  0  0  0  0  0  0
  -25.9760  -26.7480   19.5610 C   0  0  0  0  0  3  0  0  0  0  0  0
  -24.8630  -27.6260   19.5440 C   0  0  0  0  0  3  0  0  0  0  0  0
  -23.6770  -29.7980   20.2290 C   0  0  0  0  0  2  0  0  0  0  0  0
  -24.7320  -31.0380   22.1560 N   0  0  0  0  0  0  0  0  0  0  0  0
  -23.5730  -32.1570   23.7730 O   0  0  0  0  0  0  0  0  0  0  0  0
  -22.7620  -29.4810   22.5720 C   0  0  0  0  0  0  0  0  0  0  0  0
  -21.4330  -29.3140   22.4430 N   0  0  0  0  0  0  0  0  0  0  0  0
  -23.4270  -28.8570   23.4030 O   0  0  0  0  0  0  0  0  0  0  0  0
  -20.9500  -29.8690   21.7500 H   0  0  0  0  0  0  0  0  0  0  0  0
  -18.0510  -28.1000   22.9360 C   0  0  0  0  0  0  0  0  0  0  0  0
  -20.6080  -28.3770   23.2130 C   0  0  0  0  0  3  0  0  0  0  0  0
  -20.7190  -26.9430   22.6430 C   0  0  0  0  0  2  0  0  0  0  0  0
  -19.6230  -26.6130   21.6240 C   0  0  0  0  0  2  0  0  0  0  0  0
  -18.2370  -26.7510   22.2610 C   0  0  0  0  0  2  0  0  0  0  0  0
  -19.1640  -28.8700   23.3680 C   0  0  0  0  0  0  0  0  0  0  0  0
  -18.9330  -30.1300   23.9620 C   0  0  0  0  0  3  0  0  0  0  0  0
  -17.6240  -30.6210   24.1250 C   0  0  0  0  0  3  0  0  0  0  0  0
  -16.5270  -29.8500   23.7060 C   0  0  0  0  0  3  0  0  0  0  0  0
  -16.7410  -28.5910   23.1180 C   0  0  0  0  0  3  0  0  0  0  0  0
  -25.9340  -32.5000   23.8800 C   0  0  0  0  0  3  0  0  0  0  0  0
  -25.6230  -33.8980   24.2220 N   0  0  0  0  0  0  0  0  0  0  0  0
  -25.9270  -34.9610   23.4660 C   0  0  0  0  0  0  0  0  0  0  0  0
  -26.5640  -34.8670   22.4130 O   0  0  0  0  0  0  0  0  0  0  0  0
  -25.0520  -34.0440   25.0420 H   0  0  0  0  0  0  0  0  0  0  0  0
  -24.1720  -36.7480   23.2020 C   0  0  0  0  0  1  0  0  0  0  0  0
  -25.4530  -36.3470   23.9500 C   0  0  0  0  0  3  0  0  0  0  0  0
  -27.6160  -37.2520   24.6850 C   0  0  0  0  0  1  0  0  0  0  0  0
  -26.4720  -37.4080   23.7910 N   0  0  0  0  0  0  0  0  0  0  0  0
  -26.0650  -38.3250   23.9550 H   0  0  0  0  0  0  0  0  0  0  0  0
  -26.4420  -31.7270   25.1600 C   0  0  1  0  0  0  0  0  0  0  0  0
  -25.3440  -31.4950   26.2240 C   0  0  0  0  0  1  0  0  0  0  0  0
  -27.0200  -30.3450   24.7780 C   0  0  0  0  0  1  0  0  0  0  0  0
  -27.5940  -32.5160   25.8260 C   0  0  0  0  0  1  0  0  0  0  0  0
  1  2  1  0
  3  1  1  0
  3  4  1  0
  4  8  1  0
  4 50  1  6
  4  2  1  0
  6  5  1  0
  7  9  1  0
  8  5  2  0
  9 20  1  0
  9  6  2  0
 10  7  2  0
 10  8  1  0
 11 10  1  0
 12 20  1  0
 13 18  1  0
 14 15  1  0
 14 13  1  0
 16 15  1  0
 16 25  1  0
 16 17  1  0
 18 12  1  0
 18 17  1  0
 19 12  2  0
 20 21  1  0
 22 23  2  0
 23 42  1  0
 24 23  1  0
 24 27  1  0
 25 26  1  0
 25 22  1  0
 26 24  2  0
 27 28  1  0
 28 29  2  0
 30 33  1  0
 30 29  1  0
 31 30  2  0
 32 31  1  0
 32 27  2  0
 33 34  1  0
 34 35  1  0
 35 36  2  0
 37 36  1  0
 37 41  1  0
 38 37  2  0
 39 34  2  0
 39 38  1  0
 40 39  1  0
 42 43  1  0
 43 46  1  0
 43 45  1  0
 44 42  2  0
 47 22  1  0
 47 48  1  0
 49 47  1  0
 51 50  1  0
 52 63  2  0
 53 51  1  0
 53 58  1  0
 54 62  1  0
 54 64  1  0
 55 61  1  0
 55 57  1  0
 56 62  1  0
 57 56  1  0
 58 57  2  0
 59 53  2  0
 60 59  1  0
 60 55  2  0
 61 54  1  0
 62 52  1  0
 64 66  2  0
 65 64  1  0
 67 65  1  0
 68 77  2  0
 68 73  1  0
 69 65  1  0
 69 73  1  0
 70 69  1  0
 71 72  1  0
 71 70  1  0
 72 68  1  0
 73 74  2  0
 74 75  1  0
 76 75  2  0
 77 76  1  0
 78 52  1  0
 78 79  1  0
 78 88  1  0
 79 82  1  0
 80 84  1  0
 80 79  1  0
 81 80  2  0
 84 83  1  0
 86 84  1  0
 86 87  1  0
 86 85  1  0
 88 91  1  1
 88 89  1  0
 90 88  1  0
M  ISO  4  12 100  20 100  50 101  51 101
M  END
>  <TORSDO>  (16) 
F 18

>  <SCORE>  (16) 
-15.815

>  <name>  (16) 
15

>  <ligand_id>  (16) 
15

>  <original_smiles>  (16) 
[H]c1c([H])c([H])c2c(c1[H])C([H])([H])C([H])([H])C([H])([H])C2([H])N([H])C(=O)C1([H])N(C(=O)C([H])(N([H])C(=O)C([H])(N([H])C([H])([H])[H])C([H])([H])[H])C(C([H])([H])[H])(C([H])([H])[H])C([H])([H])[H])C([H])([H])c2c([H])c(OC([H])([H])C3(c4c([H])c([H])c(N([H])C(=O)N5C([H])([H])C([H])([H])C([H])([H])C([H])(n6nc(-c7c([H])c([H])c(Oc8c([H])c([H])c(F)c([H])c8F)c([H])c7[H])c(C(=O)N([H])[H])c6N([H])[H])C5([H])[H])c([H])c4F)C([H])([H])C([H])([H])C3([H])[H])c([H])c([H])c2C1([H])[H]

>  <smiles>  (16) 
[H]c1c([H])c([H])c2c(c1[H])C([H])([H])C([H])([H])C([H])([H])C2([H])N([H])C(=O)C1([H])N(C(=O)C([H])(N([H])C(=O)C([H])(N([H])C([H])([H])[H])C([H])([H])[H])C(C([H])([H])[H])(C([H])([H])[H])C([H])([H])[H])C([H])([H])c2c([H])c(OC([H])([H])C3(c4c([H])c([H])c(N([H])C(=O)N5C([H])([H])C([H])([H])C([H])([H])C([H])(n6nc(-c7c([H])c([H])c(Oc8c([H])c([H])c(F)c([H])c8F)c([H])c7[H])c(C(=O)N([H])[H])c6N([H])[H])C5([H])[H])c([H])c4F)C([H])([H])C([H])([H])C3([H])[H])c([H])c([H])c2C1([H])[H]

$$$$
16:0:0
     RDKit          3D

 94103  0  0  1  0  0  0  0  0999 V2000
  -29.1640  -21.9760   20.1600 C   0  0  0  0  0  2  0  0  0  0  0  0
  -31.0980  -21.8670   21.7140 C   0  0  0  0  0  2  0  0  0  0  0  0
  -29.3990  -23.4980   19.9760 C   0  0  0  0  0  2  0  0  0  0  0  0
  -31.3390  -23.3760   21.5090 C   0  0  0  0  0  2  0  0  0  0  0  0
  -30.4850  -21.2440   20.4540 C   0  0  0  0  0  3  0  0  0  0  0  0
  -30.1040  -24.1250   21.1330 N   0  0  1  0  0  4  0  0  0  0  0  0
  -29.4840  -24.0640   21.9290 H   0  0  0  0  0  0  0  0  0  0  0  0
  -31.0980  -18.9170   19.6320 C   0  0  0  0  0  3  0  0  0  0  0  0
  -29.5680  -19.0780   21.5100 C   0  0  0  0  0  3  0  0  0  0  0  0
  -31.0330  -17.5100   19.6960 C   0  0  0  0  0  3  0  0  0  0  0  0
  -29.5060  -17.6670   21.5750 C   0  0  0  0  0  3  0  0  0  0  0  0
  -30.3680  -19.7180   20.5370 C   0  0  0  0  0  0  0  0  0  0  0  0
  -30.2410  -16.8610   20.6750 C   0  0  0  0  0  0  0  0  0  0  0  0
  -30.7500  -14.4650   20.1000 C   0  0  0  0  0  0  0  0  0  0  0  0
  -30.3810  -12.3400   18.9120 C   0  0  0  0  0  2  0  0  0  0  0  0
  -29.3720  -12.5870   17.7730 C   0  0  0  0  0  2  0  0  0  0  0  0
  -27.9250  -12.4350   18.2840 C   0  0  0  0  0  2  0  0  0  0  0  0
  -27.6650  -13.2340   19.5890 C   0  0  0  0  0  3  0  0  0  0  0  0
  -28.7810  -12.9740   20.6250 C   0  0  0  0  0  2  0  0  0  0  0  0
  -30.0750  -13.2900   19.9930 N   0  0  0  0  0  0  0  0  0  0  0  0
  -31.8390  -14.6530   19.5490 O   0  0  0  0  0  0  0  0  0  0  0  0
  -30.1020  -15.4380   20.7740 N   0  0  0  0  0  0  0  0  0  0  0  0
  -29.3030  -15.1150   21.2980 H   0  0  0  0  0  0  0  0  0  0  0  0
  -25.3130  -13.8170   20.4570 C   0  0  0  0  0  0  0  0  0  0  0  0
  -24.2670  -13.0320   20.8660 C   0  0  0  0  0  0  0  0  0  0  0  0
  -24.7250  -11.6820   20.7660 C   0  0  0  0  0  0  0  0  0  0  0  0
  -26.3410  -12.9440   20.1380 N   0  0  0  0  0  0  0  0  0  0  0  0
  -25.9930  -11.6540   20.3780 N   0  0  0  0  0  0  0  0  0  0  0  0
  -24.0110  -10.4140   20.9610 C   0  0  0  0  0  0  0  0  0  0  0  0
  -24.4570   -9.4520   21.8930 C   0  0  0  0  0  3  0  0  0  0  0  0
  -23.7440   -8.2470   22.0750 C   0  0  0  0  0  3  0  0  0  0  0  0
  -22.5700   -7.9980   21.3260 C   0  0  0  0  0  0  0  0  0  0  0  0
  -22.1430   -8.9490   20.3820 C   0  0  0  0  0  3  0  0  0  0  0  0
  -22.8580  -10.1440   20.1980 C   0  0  0  0  0  3  0  0  0  0  0  0
  -21.8270   -6.8450   21.4170 O   0  0  0  0  0  0  0  0  0  0  0  0
  -21.7270   -6.1450   22.5930 C   0  0  0  0  0  0  0  0  0  0  0  0
  -21.2180   -6.7350   23.7700 C   0  0  0  0  0  3  0  0  0  0  0  0
  -21.0680   -5.9590   24.9380 C   0  0  0  0  0  3  0  0  0  0  0  0
  -21.4150   -4.5950   24.9270 C   0  0  0  0  0  0  0  0  0  0  0  0
  -21.9160   -4.0040   23.7530 C   0  0  0  0  0  3  0  0  0  0  0  0
  -22.0690   -4.7770   22.5890 C   0  0  0  0  0  0  0  0  0  0  0  0
  -22.5320   -4.1990   21.4550 F   0  0  0  0  0  0  0  0  0  0  0  0
  -21.2640   -3.8470   26.0440 F   0  0  0  0  0  0  0  0  0  0  0  0
  -22.8900  -13.4990   21.2390 C   0  0  0  0  0  0  0  0  0  0  0  0
  -22.2180  -12.7770   22.1280 N   0  0  0  0  0  0  0  0  0  0  0  0
  -22.4200  -14.5380   20.7770 O   0  0  0  0  0  0  0  0  0  0  0  0
  -22.6120  -11.9360   22.5230 H   0  0  0  0  0  0  0  0  0  0  0  0
  -21.2960  -13.0690   22.4190 H   0  0  0  0  0  0  0  0  0  0  0  0
  -25.4690  -15.1920   20.3140 N   0  0  0  0  0  0  0  0  0  0  0  0
  -24.7110  -15.8440   20.4880 H   0  0  0  0  0  0  0  0  0  0  0  0
  -26.3030  -15.6410   19.9580 H   0  0  0  0  0  0  0  0  0  0  0  0
  -30.4090  -25.5760   20.9200 C   0  0  0  0  0  2  0  0  0  0  0  0
  -29.2210  -26.5450   21.1160 C   0  0  0  0  0  2  0  0  0  0  0  0
  -28.4430  -26.6450   19.9250 O   0  0  0  0  0  0  0  0  0  0  0  0
  -24.5860  -31.7560   23.1370 C   0  0  0  0  0  0  0  0  0  0  0  0
  -27.2990  -27.4090   19.9950 C   0  0  0  0  0  0  0  0  0  0  0  0
  -23.3970  -30.3620   21.4720 C   0  0  0  0  0  3  0  0  0  0  0  0
  -24.8740  -28.8650   20.0260 C   0  0  0  0  0  0  0  0  0  0  0  0
  -25.9120  -30.7630   21.2770 C   0  0  0  0  0  2  0  0  0  0  0  0
  -26.0190  -29.4000   20.6280 C   0  0  0  0  0  0  0  0  0  0  0  0
  -27.2330  -28.6790   20.6200 C   0  0  0  0  0  3  0  0  0  0  0  0
  -26.1410  -26.8930   19.3790 C   0  0  0  0  0  3  0  0  0  0  0  0
  -24.9280  -27.6070   19.4010 C   0  0  0  0  0  3  0  0  0  0  0  0
  -23.6150  -29.7030   20.0830 C   0  0  0  0  0  2  0  0  0  0  0  0
  -24.6500  -30.9750   22.0210 N   0  0  0  0  0  0  0  0  0  0  0  0
  -23.5030  -32.0050   23.6840 O   0  0  0  0  0  0  0  0  0  0  0  0
  -22.7610  -29.3190   22.4180 C   0  0  0  0  0  0  0  0  0  0  0  0
  -21.4370  -29.1290   22.2960 N   0  0  0  0  0  0  0  0  0  0  0  0
  -23.4550  -28.6830   23.2150 O   0  0  0  0  0  0  0  0  0  0  0  0
  -20.9380  -29.6950   21.6240 H   0  0  0  0  0  0  0  0  0  0  0  0
  -18.0740  -27.9070   22.7910 C   0  0  0  0  0  0  0  0  0  0  0  0
  -20.6320  -28.1710   23.0530 C   0  0  0  0  0  3  0  0  0  0  0  0
  -20.7380  -26.7530   22.4450 C   0  0  0  0  0  2  0  0  0  0  0  0
  -19.6320  -26.4470   21.4320 C   0  0  0  0  0  2  0  0  0  0  0  0
  -18.2540  -26.5720   22.0880 C   0  0  0  0  0  2  0  0  0  0  0  0
  -19.1910  -28.6640   23.2310 C   0  0  0  0  0  0  0  0  0  0  0  0
  -18.9720  -29.9150   23.8470 C   0  0  0  0  0  3  0  0  0  0  0  0
  -17.6660  -30.4080   24.0310 C   0  0  0  0  0  3  0  0  0  0  0  0
  -16.5620  -29.6460   23.6090 C   0  0  0  0  0  3  0  0  0  0  0  0
  -16.7670  -28.3970   22.9950 C   0  0  0  0  0  3  0  0  0  0  0  0
  -25.8660  -32.3920   23.7640 C   0  0  0  0  0  3  0  0  0  0  0  0
  -26.4090  -31.5940   25.0130 C   0  0  1  0  0  0  0  0  0  0  0  0
  -25.3310  -31.3070   26.0840 C   0  0  0  0  0  1  0  0  0  0  0  0
  -27.0130  -30.2390   24.5740 C   0  0  0  0  0  1  0  0  0  0  0  0
  -27.5520  -32.3900   25.6860 C   0  0  0  0  0  1  0  0  0  0  0  0
  -25.5380  -33.7750   24.1320 N   0  0  0  0  0  0  0  0  0  0  0  0
  -25.8370  -34.8500   23.3910 C   0  0  0  0  0  0  0  0  0  0  0  0
  -26.4910  -34.7820   22.3450 O   0  0  0  0  0  0  0  0  0  0  0  0
  -24.9530  -33.9010   24.9450 H   0  0  0  0  0  0  0  0  0  0  0  0
  -24.0640  -36.6110   23.1050 C   0  0  0  0  0  1  0  0  0  0  0  0
  -25.3280  -36.2170   23.8860 C   0  0  0  0  0  3  0  0  0  0  0  0
  -27.4610  -37.1290   24.6930 C   0  0  0  0  0  1  0  0  0  0  0  0
  -26.3360  -37.2950   23.7770 N   0  0  0  0  0  0  0  0  0  0  0  0
  -25.9130  -38.2010   23.9580 H   0  0  0  0  0  0  0  0  0  0  0  0
  1  5  1  0
  3  1  1  0
  3  6  1  0
  4  2  1  0
  5 12  1  0
  5  2  1  0
  6  4  1  0
  6  7  1  1
  8 10  2  0
  8 12  1  0
  9 11  1  0
 10 13  1  0
 12  9  2  0
 13 22  1  0
 13 11  2  0
 14 22  1  0
 15 20  1  0
 16 17  1  0
 16 15  1  0
 18 17  1  0
 18 27  1  0
 18 19  1  0
 20 14  1  0
 20 19  1  0
 21 14  2  0
 22 23  1  0
 24 25  2  0
 25 44  1  0
 26 25  1  0
 26 29  1  0
 27 28  1  0
 27 24  1  0
 28 26  2  0
 29 30  1  0
 30 31  2  0
 32 35  1  0
 32 31  1  0
 33 32  2  0
 34 33  1  0
 34 29  2  0
 35 36  1  0
 36 37  1  0
 37 38  2  0
 39 38  1  0
 39 43  1  0
 40 39  2  0
 41 36  2  0
 41 40  1  0
 42 41  1  0
 44 45  1  0
 45 48  1  0
 45 47  1  0
 46 44  2  0
 49 24  1  0
 49 50  1  0
 51 49  1  0
 52 53  1  0
 52  6  1  0
 54 56  1  0
 54 53  1  0
 55 66  2  0
 56 61  1  0
 57 65  1  0
 57 67  1  0
 58 64  1  0
 58 60  1  0
 59 65  1  0
 60 59  1  0
 61 60  2  0
 62 63  1  0
 62 56  2  0
 63 58  2  0
 64 57  1  0
 65 55  1  0
 67 69  2  0
 68 67  1  0
 70 68  1  0
 71 80  2  0
 71 76  1  0
 72 68  1  0
 72 76  1  0
 73 72  1  0
 74 75  1  0
 74 73  1  0
 75 71  1  0
 76 77  2  0
 77 78  1  0
 79 78  2  0
 80 79  1  0
 81 55  1  0
 81 86  1  0
 81 82  1  0
 82 85  1  1
 82 83  1  0
 84 82  1  0
 86 89  1  0
 87 91  1  0
 87 86  1  0
 88 87  2  0
 91 90  1  0
 93 91  1  0
 93 94  1  0
 93 92  1  0
M  ISO  4  14 100  22 100  53 101  54 101
M  END
>  <TORSDO>  (17) 
F 19

>  <SCORE>  (17) 
-13.133

>  <name>  (17) 
16

>  <ligand_id>  (17) 
16

>  <original_smiles>  (17) 
[H]c1c([H])c([H])c2c(c1[H])C([H])([H])C([H])([H])C([H])([H])C2([H])N([H])C(=O)C1([H])N(C(=O)C([H])(N([H])C(=O)C([H])(N([H])C([H])([H])[H])C([H])([H])[H])C(C([H])([H])[H])(C([H])([H])[H])C([H])([H])[H])C([H])([H])c2c([H])c(OC([H])([H])C([H])([H])[N+]3([H])C([H])([H])C([H])([H])C([H])(c4c([H])c([H])c(N([H])C(=O)N5C([H])([H])C([H])([H])C([H])([H])C([H])(n6nc(-c7c([H])c([H])c(Oc8c([H])c([H])c(F)c([H])c8F)c([H])c7[H])c(C(=O)N([H])[H])c6N([H])[H])C5([H])[H])c([H])c4[H])C([H])([H])C3([H])[H])c([H])c([H])c2C1([H])[H]

>  <smiles>  (17) 
[H]c1c([H])c([H])c2c(c1[H])C([H])([H])C([H])([H])C([H])([H])C2([H])N([H])C(=O)C1([H])N(C(=O)C([H])(N([H])C(=O)C([H])(N([H])C([H])([H])[H])C([H])([H])[H])C(C([H])([H])[H])(C([H])([H])[H])C([H])([H])[H])C([H])([H])c2c([H])c(OC([H])([H])C([H])([H])[N+]3([H])C([H])([H])C([H])([H])C([H])(c4c([H])c([H])c(N([H])C(=O)N5C([H])([H])C([H])([H])C([H])([H])C([H])(n6nc(-c7c([H])c([H])c(Oc8c([H])c([H])c(F)c([H])c8F)c([H])c7[H])c(C(=O)N([H])[H])c6N([H])[H])C5([H])[H])c([H])c4[H])C([H])([H])C3([H])[H])c([H])c([H])c2C1([H])[H]

$$$$
17:0:0
     RDKit          3D

 91 99  0  0  1  0  0  0  0  0999 V2000
  -29.3370  -21.3550   21.8690 C   0  0  0  0  0  2  0  0  0  0  0  0
  -31.6540  -19.4930   19.4250 C   0  0  0  0  0  3  0  0  0  0  0  0
  -31.0710  -20.5160   20.1970 C   0  0  0  0  0  3  0  0  0  0  0  0
  -31.1040  -18.1970   19.4370 C   0  0  0  0  0  3  0  0  0  0  0  0
  -29.3870  -18.9480   21.0000 C   0  0  0  0  0  3  0  0  0  0  0  0
  -29.9320  -20.2540   20.9880 C   0  0  0  0  0  0  0  0  0  0  0  0
  -29.9670  -17.9180   20.2200 C   0  0  0  0  0  0  0  0  0  0  0  0
  -29.3160  -16.5470   20.1230 C   0  0  0  0  0  2  0  0  0  0  0  0
  -30.6440  -14.5030   20.4200 C   0  0  0  0  0  0  0  0  0  0  0  0
  -30.3950  -12.3480   19.2630 C   0  0  0  0  0  2  0  0  0  0  0  0
  -29.4630  -12.6080   18.0590 C   0  0  0  0  0  2  0  0  0  0  0  0
  -27.9850  -12.4580   18.4670 C   0  0  0  0  0  2  0  0  0  0  0  0
  -27.6420  -13.2720   19.7440 C   0  0  0  0  0  3  0  0  0  0  0  0
  -28.6810  -12.9940   20.8580 C   0  0  0  0  0  2  0  0  0  0  0  0
  -30.0220  -13.2970   20.3240 N   0  0  0  0  0  0  0  0  0  0  0  0
  -31.7330  -14.7530   19.8960 O   0  0  0  0  0  0  0  0  0  0  0  0
  -29.8730  -15.4680   20.9500 N   0  0  0  0  0  0  0  0  0  0  0  0
  -29.2030  -15.1060   21.6100 H   0  0  0  0  0  0  0  0  0  0  0  0
  -25.2360  -13.9130   20.4090 C   0  0  0  0  0  0  0  0  0  0  0  0
  -24.1590  -13.1530   20.7800 C   0  0  0  0  0  0  0  0  0  0  0  0
  -24.6110  -11.7990   20.7690 C   0  0  0  0  0  0  0  0  0  0  0  0
  -26.2780  -13.0210   20.2010 N   0  0  0  0  0  0  0  0  0  0  0  0
  -25.9020  -11.7450   20.4700 N   0  0  0  0  0  0  0  0  0  0  0  0
  -23.8740  -10.5450   20.9730 C   0  0  0  0  0  0  0  0  0  0  0  0
  -24.3050   -9.5850   21.9150 C   0  0  0  0  0  3  0  0  0  0  0  0
  -23.5770   -8.3920   22.1050 C   0  0  0  0  0  3  0  0  0  0  0  0
  -22.4000   -8.1520   21.3550 C   0  0  0  0  0  0  0  0  0  0  0  0
  -21.9880   -9.1020   20.4040 C   0  0  0  0  0  3  0  0  0  0  0  0
  -22.7170  -10.2860   20.2120 C   0  0  0  0  0  3  0  0  0  0  0  0
  -21.6420   -7.0120   21.4530 O   0  0  0  0  0  0  0  0  0  0  0  0
  -21.6020   -6.2710   22.6070 C   0  0  0  0  0  0  0  0  0  0  0  0
  -21.2040   -6.8340   23.8390 C   0  0  0  0  0  3  0  0  0  0  0  0
  -21.1090   -6.0220   24.9860 C   0  0  0  0  0  3  0  0  0  0  0  0
  -21.4010   -4.6470   24.9020 C   0  0  0  0  0  0  0  0  0  0  0  0
  -21.7930   -4.0830   23.6750 C   0  0  0  0  0  3  0  0  0  0  0  0
  -21.8900   -4.8940   22.5300 C   0  0  0  0  0  0  0  0  0  0  0  0
  -22.2480   -4.3420   21.3450 F   0  0  0  0  0  0  0  0  0  0  0  0
  -21.3010   -3.8650   26.0020 F   0  0  0  0  0  0  0  0  0  0  0  0
  -22.7630  -13.6450   21.0360 C   0  0  0  0  0  0  0  0  0  0  0  0
  -22.0250  -12.9700   21.9080 N   0  0  0  0  0  0  0  0  0  0  0  0
  -22.3350  -14.6640   20.4950 O   0  0  0  0  0  0  0  0  0  0  0  0
  -22.3780  -12.1410   22.3620 H   0  0  0  0  0  0  0  0  0  0  0  0
  -21.0900  -13.2880   22.1210 H   0  0  0  0  0  0  0  0  0  0  0  0
  -25.4090  -15.2800   20.2130 N   0  0  0  0  0  0  0  0  0  0  0  0
  -24.6300  -15.9290   20.2650 H   0  0  0  0  0  0  0  0  0  0  0  0
  -26.2540  -15.7100   19.8610 H   0  0  0  0  0  0  0  0  0  0  0  0
  -28.8200  -22.6270   21.1510 C   0  0  0  0  0  2  0  0  0  0  0  0
  -29.8490  -23.3880   20.5140 O   0  0  0  0  0  0  0  0  0  0  0  0
  -29.7220  -24.8150   20.6100 C   0  0  0  0  0  2  0  0  0  0  0  0
  -28.3810  -25.3950   20.1060 C   0  0  0  0  0  2  0  0  0  0  0  0
  -28.4240  -26.8220   20.1510 O   0  0  0  0  0  0  0  0  0  0  0  0
  -24.5700  -31.9300   23.2400 C   0  0  0  0  0  0  0  0  0  0  0  0
  -27.2240  -27.5010   20.1480 C   0  0  0  0  0  0  0  0  0  0  0  0
  -23.3590  -30.5210   21.6060 C   0  0  0  0  0  3  0  0  0  0  0  0
  -24.8090  -28.9750   20.1880 C   0  0  0  0  0  0  0  0  0  0  0  0
  -25.8800  -30.8900   21.3920 C   0  0  0  0  0  2  0  0  0  0  0  0
  -25.9680  -29.5160   20.7570 C   0  0  0  0  0  0  0  0  0  0  0  0
  -27.1770  -28.7870   20.7300 C   0  0  0  0  0  3  0  0  0  0  0  0
  -26.0420  -26.9670   19.5800 C   0  0  0  0  0  3  0  0  0  0  0  0
  -24.8400  -27.6990   19.6010 C   0  0  0  0  0  3  0  0  0  0  0  0
  -23.5580  -29.8240   20.2340 C   0  0  0  0  0  2  0  0  0  0  0  0
  -24.6220  -31.1270   22.1390 N   0  0  0  0  0  0  0  0  0  0  0  0
  -23.4900  -32.2060   23.7800 O   0  0  0  0  0  0  0  0  0  0  0  0
  -22.7080  -29.5080   22.5720 C   0  0  0  0  0  0  0  0  0  0  0  0
  -21.3860  -29.3150   22.4340 N   0  0  0  0  0  0  0  0  0  0  0  0
  -23.3910  -28.8920   23.3950 O   0  0  0  0  0  0  0  0  0  0  0  0
  -20.9050  -29.8490   21.7230 H   0  0  0  0  0  0  0  0  0  0  0  0
  -18.0120  -28.1280   22.9350 C   0  0  0  0  0  0  0  0  0  0  0  0
  -20.5690  -28.3830   23.2080 C   0  0  0  0  0  3  0  0  0  0  0  0
  -20.6680  -26.9530   22.6340 C   0  0  0  0  0  2  0  0  0  0  0  0
  -19.5690  -26.6330   21.6170 C   0  0  0  0  0  2  0  0  0  0  0  0
  -18.1870  -26.7780   22.2600 C   0  0  0  0  0  2  0  0  0  0  0  0
  -19.1310  -28.8900   23.3630 C   0  0  0  0  0  0  0  0  0  0  0  0
  -18.9140  -30.1560   23.9480 C   0  0  0  0  0  3  0  0  0  0  0  0
  -17.6090  -30.6620   24.1070 C   0  0  0  0  0  3  0  0  0  0  0  0
  -16.5050  -29.8970   23.6940 C   0  0  0  0  0  3  0  0  0  0  0  0
  -16.7060  -28.6310   23.1160 C   0  0  0  0  0  3  0  0  0  0  0  0
  -25.8590  -32.5560   23.8610 C   0  0  0  0  0  3  0  0  0  0  0  0
  -25.5530  -33.9550   24.1890 N   0  0  0  0  0  0  0  0  0  0  0  0
  -25.8940  -35.0040   23.4280 C   0  0  0  0  0  0  0  0  0  0  0  0
  -26.5720  -34.8950   22.4030 O   0  0  0  0  0  0  0  0  0  0  0  0
  -24.9410  -34.1130   24.9760 H   0  0  0  0  0  0  0  0  0  0  0  0
  -24.1710  -36.7950   23.0460 C   0  0  0  0  0  1  0  0  0  0  0  0
  -25.4030  -36.3950   23.8730 C   0  0  0  0  0  3  0  0  0  0  0  0
  -27.5350  -37.2650   24.7270 C   0  0  0  0  0  1  0  0  0  0  0  0
  -26.4420  -37.4430   23.7720 N   0  0  0  0  0  0  0  0  0  0  0  0
  -26.0410  -38.3660   23.9210 H   0  0  0  0  0  0  0  0  0  0  0  0
  -26.3750  -31.7830   25.1360 C   0  0  1  0  0  0  0  0  0  0  0  0
  -25.2810  -31.5470   26.2030 C   0  0  0  0  0  1  0  0  0  0  0  0
  -26.9530  -30.4040   24.7430 C   0  0  0  0  0  1  0  0  0  0  0  0
  -27.5320  -32.5710   25.7940 C   0  0  0  0  0  1  0  0  0  0  0  0
  2  4  2  0
  2  3  1  0
  3  6  2  0
  4  7  1  0
  6  5  1  0
  6  1  1  0
  7  5  2  0
  8  7  1  0
  8 17  1  0
  9 17  1  0
 10 15  1  0
 11 12  1  0
 11 10  1  0
 13 12  1  0
 13 22  1  0
 13 14  1  0
 15  9  1  0
 15 14  1  0
 16  9  2  0
 17 18  1  0
 19 20  2  0
 20 39  1  0
 21 20  1  0
 21 24  1  0
 22 19  1  0
 22 23  1  0
 23 21  2  0
 24 25  1  0
 25 26  2  0
 27 30  1  0
 27 26  1  0
 28 27  2  0
 29 28  1  0
 29 24  2  0
 30 31  1  0
 31 32  1  0
 32 33  2  0
 34 33  1  0
 34 38  1  0
 35 34  2  0
 36 31  2  0
 36 35  1  0
 37 36  1  0
 39 40  1  0
 40 43  1  0
 40 42  1  0
 41 39  2  0
 44 45  1  0
 44 19  1  0
 46 44  1  0
 47  1  1  0
 48 49  1  0
 48 47  1  0
 50 51  1  0
 50 49  1  0
 52 63  2  0
 53 51  1  0
 53 58  1  0
 54 62  1  0
 54 64  1  0
 55 61  1  0
 55 57  1  0
 56 62  1  0
 57 56  1  0
 58 57  2  0
 59 60  1  0
 59 53  2  0
 60 55  2  0
 61 54  1  0
 62 52  1  0
 64 66  2  0
 65 64  1  0
 67 65  1  0
 68 77  2  0
 68 73  1  0
 69 65  1  0
 69 73  1  0
 70 69  1  0
 71 72  1  0
 71 70  1  0
 72 68  1  0
 73 74  2  0
 74 75  1  0
 76 75  2  0
 77 76  1  0
 78 52  1  0
 78 79  1  0
 78 88  1  0
 79 82  1  0
 80 84  1  0
 80 79  1  0
 81 80  2  0
 84 83  1  0
 86 84  1  0
 86 87  1  0
 86 85  1  0
 88 91  1  1
 88 89  1  0
 90 88  1  0
M  ISO  4   9 100  17 100  50 101  51 101
M  END
>  <TORSDO>  (18) 
F 22

>  <SCORE>  (18) 
-13.143

>  <name>  (18) 
17

>  <ligand_id>  (18) 
17

>  <original_smiles>  (18) 
[H]c1c([H])c(C([H])([H])N([H])C(=O)N2C([H])([H])C([H])([H])C([H])([H])C([H])(n3nc(-c4c([H])c([H])c(Oc5c([H])c([H])c(F)c([H])c5F)c([H])c4[H])c(C(=O)N([H])[H])c3N([H])[H])C2([H])[H])c([H])c(C([H])([H])C([H])([H])OC([H])([H])C([H])([H])Oc2c([H])c([H])c3c(c2[H])C([H])([H])N(C(=O)C([H])(N([H])C(=O)C([H])(N([H])C([H])([H])[H])C([H])([H])[H])C(C([H])([H])[H])(C([H])([H])[H])C([H])([H])[H])C([H])(C(=O)N([H])C2([H])c4c([H])c([H])c([H])c([H])c4C([H])([H])C([H])([H])C2([H])[H])C3([H])[H])c1[H]

>  <smiles>  (18) 
[H]c1c([H])c(C([H])([H])N([H])C(=O)N2C([H])([H])C([H])([H])C([H])([H])C([H])(n3nc(-c4c([H])c([H])c(Oc5c([H])c([H])c(F)c([H])c5F)c([H])c4[H])c(C(=O)N([H])[H])c3N([H])[H])C2([H])[H])c([H])c(C([H])([H])C([H])([H])OC([H])([H])C([H])([H])Oc2c([H])c([H])c3c(c2[H])C([H])([H])N(C(=O)C([H])(N([H])C(=O)C([H])(N([H])C([H])([H])[H])C([H])([H])[H])C(C([H])([H])[H])(C([H])([H])[H])C([H])([H])[H])C([H])(C(=O)N([H])C2([H])c4c([H])c([H])c([H])c([H])c4C([H])([H])C([H])([H])C2([H])[H])C3([H])[H])c1[H]

$$$$
18:0:0
     RDKit          3D

 90 99  0  0  1  0  0  0  0  0999 V2000
  -30.5470  -22.5500   18.6550 C   0  0  0  0  0  3  0  0  0  0  0  0
  -30.3460  -21.2310   19.1240 C   0  0  0  0  0  3  0  0  0  0  0  0
  -29.8040  -23.6490   19.1430 C   0  0  0  0  0  3  0  0  0  0  0  0
  -28.6360  -22.0930   20.6040 C   0  0  0  0  0  3  0  0  0  0  0  0
  -29.3920  -20.9230   20.1200 C   0  0  0  0  0  0  0  0  0  0  0  0
  -28.8190  -23.4820   20.1340 C   0  0  0  0  0  0  0  0  0  0  0  0
  -30.5830  -14.8580   20.3460 C   0  0  0  0  0  0  0  0  0  0  0  0
  -30.3440  -12.5500   19.3670 C   0  0  0  0  0  2  0  0  0  0  0  0
  -29.4030  -12.5410   18.1450 C   0  0  0  0  0  2  0  0  0  0  0  0
  -27.9450  -12.3410   18.5970 C   0  0  0  0  0  2  0  0  0  0  0  0
  -27.5590  -13.2660   19.7820 C   0  0  0  0  0  3  0  0  0  0  0  0
  -28.6290  -13.2820   20.8940 C   0  0  0  0  0  2  0  0  0  0  0  0
  -29.9010  -13.6520   20.2630 N   0  0  0  0  0  0  0  0  0  0  0  0
  -31.7920  -14.8400   20.0970 O   0  0  0  0  0  0  0  0  0  0  0  0
  -28.8340  -18.2900   19.5230 C   0  0  0  0  0  2  0  0  0  0  0  0
  -30.6080  -18.6770   21.0770 C   0  0  0  0  0  2  0  0  0  0  0  0
  -28.7880  -16.7280   19.9280 C   0  0  0  0  0  2  0  0  0  0  0  0
  -30.5630  -17.1430   21.5300 C   0  0  0  0  0  2  0  0  0  0  0  0
  -29.2790  -19.3630   20.5930 C   0  0  0  0  0  3  0  0  0  0  0  0
  -29.9560  -16.1010   20.6310 N   0  0  0  0  0  0  0  0  0  0  0  0
  -25.1890  -13.8530   20.5420 C   0  0  0  0  0  0  0  0  0  0  0  0
  -24.1260  -13.0800   20.9200 C   0  0  0  0  0  0  0  0  0  0  0  0
  -24.5890  -11.7280   20.8870 C   0  0  0  0  0  0  0  0  0  0  0  0
  -26.2280  -12.9730   20.2970 N   0  0  0  0  0  0  0  0  0  0  0  0
  -25.8780  -11.6900   20.5710 N   0  0  0  0  0  0  0  0  0  0  0  0
  -23.8620  -10.4660   21.0790 C   0  0  0  0  0  0  0  0  0  0  0  0
  -24.3100   -9.4890   21.9940 C   0  0  0  0  0  3  0  0  0  0  0  0
  -23.5820   -8.2930   22.1770 C   0  0  0  0  0  3  0  0  0  0  0  0
  -22.3920   -8.0680   21.4430 C   0  0  0  0  0  0  0  0  0  0  0  0
  -21.9640   -9.0350   20.5170 C   0  0  0  0  0  3  0  0  0  0  0  0
  -22.6930  -10.2220   20.3330 C   0  0  0  0  0  3  0  0  0  0  0  0
  -21.6340   -6.9260   21.5370 O   0  0  0  0  0  0  0  0  0  0  0  0
  -21.6200   -6.1630   22.6770 C   0  0  0  0  0  0  0  0  0  0  0  0
  -21.2540   -6.7030   23.9300 C   0  0  0  0  0  3  0  0  0  0  0  0
  -21.1850   -5.8680   25.0620 C   0  0  0  0  0  3  0  0  0  0  0  0
  -21.4710   -4.4940   24.9450 C   0  0  0  0  0  0  0  0  0  0  0  0
  -21.8300   -3.9540   23.6970 C   0  0  0  0  0  3  0  0  0  0  0  0
  -21.9010   -4.7860   22.5660 C   0  0  0  0  0  0  0  0  0  0  0  0
  -22.2260   -4.2570   21.3620 F   0  0  0  0  0  0  0  0  0  0  0  0
  -21.3970   -3.6900   26.0310 F   0  0  0  0  0  0  0  0  0  0  0  0
  -22.7300  -13.5590   21.1960 C   0  0  0  0  0  0  0  0  0  0  0  0
  -22.0070  -12.8670   22.0680 N   0  0  0  0  0  0  0  0  0  0  0  0
  -22.2920  -14.5820   20.6730 O   0  0  0  0  0  0  0  0  0  0  0  0
  -22.3760  -12.0400   22.5130 H   0  0  0  0  0  0  0  0  0  0  0  0
  -21.0710  -13.1710   22.2970 H   0  0  0  0  0  0  0  0  0  0  0  0
  -25.3500  -15.2220   20.3610 N   0  0  0  0  0  0  0  0  0  0  0  0
  -24.5820  -15.8760   20.4760 H   0  0  0  0  0  0  0  0  0  0  0  0
  -26.1950  -15.6600   20.0200 H   0  0  0  0  0  0  0  0  0  0  0  0
  -27.9610  -24.7790   20.6000 C   0  0  0  0  0  2  0  0  0  0  0  0
  -28.2690  -26.2330   20.2060 O   0  0  0  0  0  0  0  0  0  0  0  0
  -24.6470  -31.8690   23.2130 C   0  0  0  0  0  0  0  0  0  0  0  0
  -27.2060  -27.1900   20.1810 C   0  0  0  0  0  0  0  0  0  0  0  0
  -23.4330  -30.4650   21.5890 C   0  0  0  0  0  3  0  0  0  0  0  0
  -24.8720  -28.8950   20.1600 C   0  0  0  0  0  0  0  0  0  0  0  0
  -25.9820  -30.7470   21.3980 C   0  0  0  0  0  2  0  0  0  0  0  0
  -26.0530  -29.3560   20.7550 C   0  0  0  0  0  0  0  0  0  0  0  0
  -27.2260  -28.5190   20.7500 C   0  0  0  0  0  3  0  0  0  0  0  0
  -26.0050  -26.8240   19.5360 C   0  0  0  0  0  3  0  0  0  0  0  0
  -24.8580  -27.6400   19.5350 C   0  0  0  0  0  3  0  0  0  0  0  0
  -23.6420  -29.7860   20.2100 C   0  0  0  0  0  2  0  0  0  0  0  0
  -24.7070  -31.0470   22.1220 N   0  0  0  0  0  0  0  0  0  0  0  0
  -23.5660  -32.1530   23.7500 O   0  0  0  0  0  0  0  0  0  0  0  0
  -22.7680  -29.4570   22.5590 C   0  0  0  0  0  0  0  0  0  0  0  0
  -21.4400  -29.2840   22.4450 N   0  0  0  0  0  0  0  0  0  0  0  0
  -23.4490  -28.8330   23.3770 O   0  0  0  0  0  0  0  0  0  0  0  0
  -20.9480  -29.8400   21.7570 H   0  0  0  0  0  0  0  0  0  0  0  0
  -18.0650  -28.0800   22.9700 C   0  0  0  0  0  0  0  0  0  0  0  0
  -20.6250  -28.3510   23.2270 C   0  0  0  0  0  3  0  0  0  0  0  0
  -20.7290  -26.9150   22.6640 C   0  0  0  0  0  2  0  0  0  0  0  0
  -19.6240  -26.5790   21.6570 C   0  0  0  0  0  2  0  0  0  0  0  0
  -18.2440  -26.7260   22.3040 C   0  0  0  0  0  2  0  0  0  0  0  0
  -19.1840  -28.8500   23.3890 C   0  0  0  0  0  0  0  0  0  0  0  0
  -18.9620  -30.1160   23.9720 C   0  0  0  0  0  3  0  0  0  0  0  0
  -17.6560  -30.6130   24.1410 C   0  0  0  0  0  3  0  0  0  0  0  0
  -16.5530  -29.8410   23.7380 C   0  0  0  0  0  3  0  0  0  0  0  0
  -16.7590  -28.5760   23.1570 C   0  0  0  0  0  3  0  0  0  0  0  0
  -25.9310  -32.5070   23.8250 C   0  0  0  0  0  3  0  0  0  0  0  0
  -25.6150  -33.9000   24.1730 N   0  0  0  0  0  0  0  0  0  0  0  0
  -25.9240  -34.9650   23.4190 C   0  0  0  0  0  0  0  0  0  0  0  0
  -26.5730  -34.8770   22.3730 O   0  0  0  0  0  0  0  0  0  0  0  0
  -25.0370  -34.0430   24.9880 H   0  0  0  0  0  0  0  0  0  0  0  0
  -24.1710  -36.7470   23.1260 C   0  0  0  0  0  1  0  0  0  0  0  0
  -25.4370  -36.3460   23.9010 C   0  0  0  0  0  3  0  0  0  0  0  0
  -27.5860  -37.2410   24.6800 C   0  0  0  0  0  1  0  0  0  0  0  0
  -26.4560  -37.4090   23.7690 N   0  0  0  0  0  0  0  0  0  0  0  0
  -26.0470  -38.3240   23.9380 H   0  0  0  0  0  0  0  0  0  0  0  0
  -26.4660  -31.7310   25.0900 C   0  0  1  0  0  0  0  0  0  0  0  0
  -25.3880  -31.4830   26.1720 C   0  0  0  0  0  1  0  0  0  0  0  0
  -27.0500  -30.3570   24.6870 C   0  0  0  0  0  1  0  0  0  0  0  0
  -27.6230  -32.5260   25.7410 C   0  0  0  0  0  1  0  0  0  0  0  0
  1  2  2  0
  1  3  1  0
  2  5  1  0
  3  6  2  0
  5  4  2  0
  6 49  1  0
  6  4  1  0
  7 20  1  0
  8 13  1  0
  9 10  1  0
  9  8  1  0
 11 10  1  0
 11 24  1  0
 11 12  1  0
 13  7  1  0
 13 12  1  0
 14  7  2  0
 15 17  1  0
 15 19  1  0
 16 18  1  0
 17 20  1  0
 19  5  1  0
 19 16  1  0
 20 18  1  0
 21 22  2  0
 22 41  1  0
 23 22  1  0
 23 26  1  0
 24 21  1  0
 24 25  1  0
 25 23  2  0
 26 27  1  0
 27 28  2  0
 29 32  1  0
 29 28  1  0
 30 29  2  0
 31 30  1  0
 31 26  2  0
 32 33  1  0
 33 34  1  0
 34 35  2  0
 36 35  1  0
 36 40  1  0
 37 36  2  0
 38 33  2  0
 38 37  1  0
 39 38  1  0
 41 42  1  0
 42 45  1  0
 42 44  1  0
 43 41  2  0
 46 47  1  0
 46 21  1  0
 48 46  1  0
 50 49  1  0
 51 62  2  0
 52 50  1  0
 52 57  1  0
 53 61  1  0
 53 63  1  0
 54 60  1  0
 54 56  1  0
 55 61  1  0
 56 55  1  0
 57 56  2  0
 58 52  2  0
 59 58  1  0
 59 54  2  0
 60 53  1  0
 61 51  1  0
 63 65  2  0
 64 63  1  0
 66 64  1  0
 67 76  2  0
 67 72  1  0
 68 64  1  0
 68 72  1  0
 69 68  1  0
 70 71  1  0
 70 69  1  0
 71 67  1  0
 72 73  2  0
 73 74  1  0
 75 74  2  0
 76 75  1  0
 77 51  1  0
 77 78  1  0
 77 87  1  0
 78 81  1  0
 79 83  1  0
 79 78  1  0
 80 79  2  0
 83 82  1  0
 85 83  1  0
 85 86  1  0
 85 84  1  0
 87 90  1  1
 87 88  1  0
 89 87  1  0
M  ISO  4   7 100  20 100  49 101  50 101
M  END
>  <TORSDO>  (19) 
F 17

>  <SCORE>  (19) 
-15.194

>  <name>  (19) 
18

>  <ligand_id>  (19) 
18

>  <original_smiles>  (19) 
[H]c1c([H])c([H])c2c(c1[H])C([H])([H])C([H])([H])C([H])([H])C2([H])N([H])C(=O)C1([H])N(C(=O)C([H])(N([H])C(=O)C([H])(N([H])C([H])([H])[H])C([H])([H])[H])C(C([H])([H])[H])(C([H])([H])[H])C([H])([H])[H])C([H])([H])c2c([H])c(OC([H])([H])c3c([H])c([H])c([H])c(C4([H])C([H])([H])C([H])([H])N(C(=O)N5C([H])([H])C([H])([H])C([H])([H])C([H])(n6nc(-c7c([H])c([H])c(Oc8c([H])c([H])c(F)c([H])c8F)c([H])c7[H])c(C(=O)N([H])[H])c6N([H])[H])C5([H])[H])C([H])([H])C4([H])[H])c3[H])c([H])c([H])c2C1([H])[H]

>  <smiles>  (19) 
[H]c1c([H])c([H])c2c(c1[H])C([H])([H])C([H])([H])C([H])([H])C2([H])N([H])C(=O)C1([H])N(C(=O)C([H])(N([H])C(=O)C([H])(N([H])C([H])([H])[H])C([H])([H])[H])C(C([H])([H])[H])(C([H])([H])[H])C([H])([H])[H])C([H])([H])c2c([H])c(OC([H])([H])c3c([H])c([H])c([H])c(C4([H])C([H])([H])C([H])([H])N(C(=O)N5C([H])([H])C([H])([H])C([H])([H])C([H])(n6nc(-c7c([H])c([H])c(Oc8c([H])c([H])c(F)c([H])c8F)c([H])c7[H])c(C(=O)N([H])[H])c6N([H])[H])C5([H])[H])C([H])([H])C4([H])[H])c3[H])c([H])c([H])c2C1([H])[H]

$$$$
19:0:0
     RDKit          3D

 88 96  0  0  1  0  0  0  0  0999 V2000
  -28.0970  -19.5420   20.3910 C   0  0  0  0  0  3  0  0  0  0  0  0
  -30.4270  -19.8620   20.6350 C   0  0  0  0  0  3  0  0  0  0  0  0
  -28.3060  -18.1170   20.3390 C   0  0  0  0  0  3  0  0  0  0  0  0
  -30.6410  -18.4200   20.5650 C   0  0  0  0  0  3  0  0  0  0  0  0
  -29.1380  -20.5020   20.5700 C   0  0  0  0  0  0  0  0  0  0  0  0
  -29.5770  -17.4660   20.4440 C   0  0  0  0  0  0  0  0  0  0  0  0
  -30.4940  -14.8790   20.2750 C   0  0  0  0  0  0  0  0  0  0  0  0
  -30.3770  -12.5700   19.2630 C   0  0  0  0  0  2  0  0  0  0  0  0
  -29.4130  -12.6010   18.0520 C   0  0  0  0  0  2  0  0  0  0  0  0
  -27.9510  -12.4030   18.5010 C   0  0  0  0  0  2  0  0  0  0  0  0
  -27.5800  -13.2870   19.7190 C   0  0  0  0  0  3  0  0  0  0  0  0
  -28.6550  -13.2060   20.8260 C   0  0  0  0  0  2  0  0  0  0  0  0
  -29.9320  -13.6130   20.2220 N   0  0  0  0  0  0  0  0  0  0  0  0
  -31.6790  -15.0240   19.9500 O   0  0  0  0  0  0  0  0  0  0  0  0
  -29.6140  -15.9500   20.5050 N   0  0  0  0  0  0  0  0  0  0  0  0
  -28.7020  -15.5660   20.6950 H   0  0  0  0  0  0  0  0  0  0  0  0
  -25.2030  -13.8760   20.4760 C   0  0  0  0  0  0  0  0  0  0  0  0
  -24.1430  -13.1030   20.8610 C   0  0  0  0  0  0  0  0  0  0  0  0
  -24.6060  -11.7510   20.8230 C   0  0  0  0  0  0  0  0  0  0  0  0
  -26.2440  -12.9970   20.2260 N   0  0  0  0  0  0  0  0  0  0  0  0
  -25.8920  -11.7140   20.4990 N   0  0  0  0  0  0  0  0  0  0  0  0
  -23.8810  -10.4890   21.0190 C   0  0  0  0  0  0  0  0  0  0  0  0
  -24.3210   -9.5210   21.9470 C   0  0  0  0  0  3  0  0  0  0  0  0
  -23.5960   -8.3230   22.1310 C   0  0  0  0  0  3  0  0  0  0  0  0
  -22.4160   -8.0870   21.3850 C   0  0  0  0  0  0  0  0  0  0  0  0
  -21.9950   -9.0430   20.4460 C   0  0  0  0  0  3  0  0  0  0  0  0
  -22.7210  -10.2320   20.2600 C   0  0  0  0  0  3  0  0  0  0  0  0
  -21.6630   -6.9420   21.4790 O   0  0  0  0  0  0  0  0  0  0  0  0
  -21.6220   -6.1990   22.6320 C   0  0  0  0  0  0  0  0  0  0  0  0
  -21.2020   -6.7540   23.8610 C   0  0  0  0  0  3  0  0  0  0  0  0
  -21.1090   -5.9370   25.0060 C   0  0  0  0  0  3  0  0  0  0  0  0
  -21.4240   -4.5680   24.9230 C   0  0  0  0  0  0  0  0  0  0  0  0
  -21.8380   -4.0130   23.6990 C   0  0  0  0  0  3  0  0  0  0  0  0
  -21.9330   -4.8260   22.5560 C   0  0  0  0  0  0  0  0  0  0  0  0
  -22.3110   -4.2830   21.3740 F   0  0  0  0  0  0  0  0  0  0  0  0
  -21.3280   -3.7820   26.0210 F   0  0  0  0  0  0  0  0  0  0  0  0
  -22.7480  -13.5790   21.1460 C   0  0  0  0  0  0  0  0  0  0  0  0
  -22.0270  -12.8830   22.0170 N   0  0  0  0  0  0  0  0  0  0  0  0
  -22.3060  -14.6060   20.6300 O   0  0  0  0  0  0  0  0  0  0  0  0
  -22.3980  -12.0530   22.4560 H   0  0  0  0  0  0  0  0  0  0  0  0
  -21.0920  -13.1850   22.2520 H   0  0  0  0  0  0  0  0  0  0  0  0
  -25.3620  -15.2460   20.2900 N   0  0  0  0  0  0  0  0  0  0  0  0
  -24.5790  -15.8860   20.3790 H   0  0  0  0  0  0  0  0  0  0  0  0
  -26.1620  -15.6650   19.8370 H   0  0  0  0  0  0  0  0  0  0  0  0
  -28.8030  -22.0490   20.9900 C   0  0  0  0  0  2  0  0  0  0  0  0
  -28.8480  -23.4550   20.1150 C   0  0  0  0  0  3  0  0  0  0  0  0
  -28.1340  -24.8380   20.7090 C   0  0  0  0  0  3  0  0  0  0  0  0
  -28.3370  -26.2920   20.2590 O   0  0  0  0  0  0  0  0  0  0  0  0
  -24.6250  -31.8740   23.2560 C   0  0  0  0  0  0  0  0  0  0  0  0
  -27.2480  -27.2160   20.2480 C   0  0  0  0  0  0  0  0  0  0  0  0
  -23.4340  -30.4650   21.6160 C   0  0  0  0  0  3  0  0  0  0  0  0
  -24.8960  -28.8990   20.2050 C   0  0  0  0  0  0  0  0  0  0  0  0
  -25.9820  -30.7630   21.4500 C   0  0  0  0  0  2  0  0  0  0  0  0
  -26.0680  -29.3730   20.8080 C   0  0  0  0  0  0  0  0  0  0  0  0
  -27.2480  -28.5480   20.8100 C   0  0  0  0  0  3  0  0  0  0  0  0
  -26.0500  -26.8240   19.6120 C   0  0  0  0  0  3  0  0  0  0  0  0
  -24.8960  -27.6350   19.5920 C   0  0  0  0  0  3  0  0  0  0  0  0
  -23.6600  -29.7830   20.2410 C   0  0  0  0  0  2  0  0  0  0  0  0
  -24.7000  -31.0550   22.1630 N   0  0  0  0  0  0  0  0  0  0  0  0
  -23.5370  -32.1520   23.7820 O   0  0  0  0  0  0  0  0  0  0  0  0
  -22.7620  -29.4570   22.5800 C   0  0  0  0  0  0  0  0  0  0  0  0
  -21.4360  -29.2780   22.4490 N   0  0  0  0  0  0  0  0  0  0  0  0
  -23.4350  -28.8370   23.4070 O   0  0  0  0  0  0  0  0  0  0  0  0
  -20.9500  -29.8290   21.7560 H   0  0  0  0  0  0  0  0  0  0  0  0
  -18.0600  -28.0640   22.9400 C   0  0  0  0  0  0  0  0  0  0  0  0
  -20.6160  -28.3410   23.2210 C   0  0  0  0  0  3  0  0  0  0  0  0
  -20.7280  -26.9060   22.6540 C   0  0  0  0  0  2  0  0  0  0  0  0
  -19.6340  -26.5720   21.6350 C   0  0  0  0  0  2  0  0  0  0  0  0
  -18.2480  -26.7120   22.2720 C   0  0  0  0  0  2  0  0  0  0  0  0
  -19.1720  -28.8350   23.3710 C   0  0  0  0  0  0  0  0  0  0  0  0
  -18.9420  -30.0990   23.9570 C   0  0  0  0  0  3  0  0  0  0  0  0
  -17.6330  -30.5920   24.1160 C   0  0  0  0  0  3  0  0  0  0  0  0
  -16.5350  -29.8180   23.6990 C   0  0  0  0  0  3  0  0  0  0  0  0
  -16.7500  -28.5560   23.1170 C   0  0  0  0  0  3  0  0  0  0  0  0
  -25.9000  -32.5150   23.8830 C   0  0  0  0  0  3  0  0  0  0  0  0
  -26.4050  -31.7570   25.1720 C   0  0  1  0  0  0  0  0  0  0  0  0
  -25.3030  -31.5310   26.2340 C   0  0  0  0  0  1  0  0  0  0  0  0
  -26.9910  -30.3750   24.8020 C   0  0  0  0  0  1  0  0  0  0  0  0
  -27.5510  -32.5580   25.8360 C   0  0  0  0  0  1  0  0  0  0  0  0
  -25.5850  -33.9150   24.2020 N   0  0  0  0  0  0  0  0  0  0  0  0
  -25.9190  -34.9660   23.4400 C   0  0  0  0  0  0  0  0  0  0  0  0
  -26.5920  -34.8580   22.4120 O   0  0  0  0  0  0  0  0  0  0  0  0
  -24.9860  -34.0740   24.9990 H   0  0  0  0  0  0  0  0  0  0  0  0
  -24.1920  -36.7590   23.0720 C   0  0  0  0  0  1  0  0  0  0  0  0
  -25.4300  -36.3580   23.8900 C   0  0  0  0  0  3  0  0  0  0  0  0
  -27.5620  -37.2480   24.7230 C   0  0  0  0  0  1  0  0  0  0  0  0
  -26.4630  -37.4110   23.7750 N   0  0  0  0  0  0  0  0  0  0  0  0
  -26.0560  -38.3320   23.9150 H   0  0  0  0  0  0  0  0  0  0  0  0
  1  5  1  0
  3  1  2  0
  3  6  1  0
  4  2  1  0
  5  2  2  0
  5 45  1  0
  6 15  1  0
  6  4  2  0
  7 15  1  0
  8 13  1  0
  9 10  1  0
  9  8  1  0
 11 10  1  0
 11 20  1  0
 11 12  1  0
 13  7  1  0
 13 12  1  0
 14  7  2  0
 15 16  1  0
 17 18  2  0
 18 37  1  0
 19 18  1  0
 19 22  1  0
 20 17  1  0
 20 21  1  0
 21 19  2  0
 22 23  1  0
 23 24  2  0
 25 28  1  0
 25 24  1  0
 26 25  2  0
 27 26  1  0
 27 22  2  0
 28 29  1  0
 29 30  1  0
 30 31  2  0
 32 31  1  0
 32 36  1  0
 33 32  2  0
 34 29  2  0
 34 33  1  0
 35 34  1  0
 37 38  1  0
 38 41  1  0
 38 40  1  0
 39 37  2  0
 42 43  1  0
 42 17  1  0
 44 42  1  0
 46 47  2  0
 46 45  1  0
 48 47  1  0
 49 60  2  0
 50 48  1  0
 50 55  1  0
 51 59  1  0
 51 61  1  0
 52 58  1  0
 52 54  1  0
 53 59  1  0
 54 55  2  0
 54 53  1  0
 56 50  2  0
 57 56  1  0
 57 52  2  0
 58 51  1  0
 59 49  1  0
 61 63  2  0
 62 61  1  0
 64 62  1  0
 65 74  2  0
 65 70  1  0
 66 62  1  0
 66 70  1  0
 67 66  1  0
 68 69  1  0
 68 67  1  0
 69 65  1  0
 70 71  2  0
 71 72  1  0
 73 72  2  0
 74 73  1  0
 75 49  1  0
 75 80  1  0
 75 76  1  0
 76 79  1  1
 76 77  1  0
 78 76  1  0
 80 83  1  0
 81 85  1  0
 81 80  1  0
 82 81  2  0
 85 84  1  0
 87 85  1  0
 87 88  1  0
 87 86  1  0
M  ISO  4   7 100  15 100  47 101  48 101
M  END
>  <TORSDO>  (20) 
F 19

>  <SCORE>  (20) 
-14.303

>  <name>  (20) 
19

>  <ligand_id>  (20) 
19

>  <original_smiles>  (20) 
[H]c1c([H])c([H])c2c(c1[H])C([H])([H])C([H])([H])C([H])([H])C2([H])N([H])C(=O)C1([H])N(C(=O)C([H])(N([H])C(=O)C([H])(N([H])C([H])([H])[H])C([H])([H])[H])C(C([H])([H])[H])(C([H])([H])[H])C([H])([H])[H])C([H])([H])c2c([H])c(OC([H])([H])C([H])([H])C([H])([H])c3c([H])c([H])c(N([H])C(=O)N4C([H])([H])C([H])([H])C([H])([H])C([H])(n5nc(-c6c([H])c([H])c(Oc7c([H])c([H])c(F)c([H])c7F)c([H])c6[H])c(C(=O)N([H])[H])c5N([H])[H])C4([H])[H])c([H])c3[H])c([H])c([H])c2C1([H])[H]

>  <smiles>  (20) 
[H]c1c([H])c([H])c2c(c1[H])C([H])([H])C([H])([H])C([H])([H])C2([H])N([H])C(=O)C1([H])N(C(=O)C([H])(N([H])C(=O)C([H])(N([H])C([H])([H])[H])C([H])([H])[H])C(C([H])([H])[H])(C([H])([H])[H])C([H])([H])[H])C([H])([H])c2c([H])c(OC([H])([H])C([H])([H])C([H])([H])c3c([H])c([H])c(N([H])C(=O)N4C([H])([H])C([H])([H])C([H])([H])C([H])(n5nc(-c6c([H])c([H])c(Oc7c([H])c([H])c(F)c([H])c7F)c([H])c6[H])c(C(=O)N([H])[H])c5N([H])[H])C4([H])[H])c([H])c3[H])c([H])c([H])c2C1([H])[H]

$$$$
20:0:0
     RDKit          3D

 96105  0  0  1  0  0  0  0  0999 V2000
  -27.5670  -22.4560   18.6280 C   0  0  0  0  0  3  0  0  0  0  0  0
  -29.6630  -22.5720   19.8730 C   0  0  0  0  0  3  0  0  0  0  0  0
  -27.6680  -23.8300   18.3370 C   0  0  0  0  0  3  0  0  0  0  0  0
  -29.7570  -23.9420   19.5970 C   0  0  0  0  0  3  0  0  0  0  0  0
  -28.5590  -21.8250   19.4050 C   0  0  0  0  0  0  0  0  0  0  0  0
  -28.7550  -24.5750   18.8400 C   0  0  0  0  0  0  0  0  0  0  0  0
  -29.5070  -19.5950   18.8330 C   0  0  0  0  0  2  0  0  0  0  0  0
  -28.6680  -20.0510   21.2140 C   0  0  0  0  0  2  0  0  0  0  0  0
  -29.6360  -18.1270   19.2370 C   0  0  0  0  0  2  0  0  0  0  0  0
  -28.8910  -18.5590   21.5130 C   0  0  0  0  0  2  0  0  0  0  0  0
  -28.4790  -20.3410   19.7030 C   0  0  0  0  0  3  0  0  0  0  0  0
  -29.9970  -18.0380   20.6760 N   0  0  1  0  0  4  0  0  0  0  0  0
  -30.7820  -18.6510   20.8330 H   0  0  0  0  0  0  0  0  0  0  0  0
  -30.4630  -16.6950   21.0840 C   0  0  0  0  0  2  0  0  0  0  0  0
  -31.9060  -16.4170   20.5940 C   0  0  0  0  0  2  0  0  0  0  0  0
  -32.4400  -15.0280   20.9720 C   0  0  0  0  0  2  0  0  0  0  0  0
  -31.4220  -13.4150   19.3330 C   0  0  0  0  0  0  0  0  0  0  0  0
  -30.7400  -11.2260   18.4530 C   0  0  0  0  0  2  0  0  0  0  0  0
  -29.6400  -11.2410   17.3830 C   0  0  0  0  0  2  0  0  0  0  0  0
  -28.2480  -11.2560   18.0360 C   0  0  0  0  0  2  0  0  0  0  0  0
  -28.1100  -12.3790   19.0950 C   0  0  0  0  0  3  0  0  0  0  0  0
  -29.2890  -12.3450   20.0900 C   0  0  0  0  0  2  0  0  0  0  0  0
  -30.5630  -12.3760   19.3420 N   0  0  0  0  0  0  0  0  0  0  0  0
  -32.1770  -13.6970   18.3970 O   0  0  0  0  0  0  0  0  0  0  0  0
  -31.5350  -13.9670   20.5470 N   0  0  0  0  0  0  0  0  0  0  0  0
  -30.9550  -13.5530   21.2630 H   0  0  0  0  0  0  0  0  0  0  0  0
  -25.9840  -13.3210   20.2080 C   0  0  0  0  0  0  0  0  0  0  0  0
  -24.8770  -12.7070   20.7290 C   0  0  0  0  0  0  0  0  0  0  0  0
  -25.1000  -11.3040   20.5840 C   0  0  0  0  0  0  0  0  0  0  0  0
  -26.8220  -12.3010   19.7840 N   0  0  0  0  0  0  0  0  0  0  0  0
  -26.2990  -11.0790   20.0640 N   0  0  0  0  0  0  0  0  0  0  0  0
  -24.2180  -10.1610   20.8580 C   0  0  0  0  0  0  0  0  0  0  0  0
  -24.5770   -9.1570   21.7850 C   0  0  0  0  0  3  0  0  0  0  0  0
  -23.7050   -8.0780   22.0440 C   0  0  0  0  0  3  0  0  0  0  0  0
  -22.4600   -7.9950   21.3770 C   0  0  0  0  0  0  0  0  0  0  0  0
  -22.1180   -8.9840   20.4380 C   0  0  0  0  0  3  0  0  0  0  0  0
  -22.9890  -10.0550   20.1780 C   0  0  0  0  0  3  0  0  0  0  0  0
  -21.5610   -6.9690   21.5460 O   0  0  0  0  0  0  0  0  0  0  0  0
  -21.4340   -6.3140   22.7440 C   0  0  0  0  0  0  0  0  0  0  0  0
  -21.0810   -6.9910   23.9310 C   0  0  0  0  0  3  0  0  0  0  0  0
  -20.8940   -6.2670   25.1260 C   0  0  0  0  0  3  0  0  0  0  0  0
  -21.0500   -4.8680   25.1340 C   0  0  0  0  0  0  0  0  0  0  0  0
  -21.3960   -4.1910   23.9510 C   0  0  0  0  0  3  0  0  0  0  0  0
  -21.5850   -4.9120   22.7600 C   0  0  0  0  0  0  0  0  0  0  0  0
  -21.8980   -4.2530   21.6180 F   0  0  0  0  0  0  0  0  0  0  0  0
  -20.8630   -4.1720   26.2790 F   0  0  0  0  0  0  0  0  0  0  0  0
  -23.6360  -13.3800   21.2420 C   0  0  0  0  0  0  0  0  0  0  0  0
  -22.9750  -12.7810   22.2270 N   0  0  0  0  0  0  0  0  0  0  0  0
  -23.2730  -14.4710   20.8040 O   0  0  0  0  0  0  0  0  0  0  0  0
  -23.2850  -11.8960   22.6010 H   0  0  0  0  0  0  0  0  0  0  0  0
  -22.1480  -13.2130   22.6120 H   0  0  0  0  0  0  0  0  0  0  0  0
  -26.3410  -14.6560   20.0410 N   0  0  0  0  0  0  0  0  0  0  0  0
  -25.7080  -15.4140   20.2710 H   0  0  0  0  0  0  0  0  0  0  0  0
  -27.1670  -14.9640   19.5460 H   0  0  0  0  0  0  0  0  0  0  0  0
  -28.8740  -26.0580   18.6040 C   0  0  0  0  0  2  0  0  0  0  0  0
  -28.5750  -26.7760   19.7970 O   0  0  0  0  0  0  0  0  0  0  0  0
  -24.6450  -31.6620   23.1120 C   0  0  0  0  0  0  0  0  0  0  0  0
  -27.3390  -27.3680   19.8920 C   0  0  0  0  0  0  0  0  0  0  0  0
  -23.4380  -30.2650   21.4630 C   0  0  0  0  0  3  0  0  0  0  0  0
  -24.8960  -28.7730   20.0020 C   0  0  0  0  0  0  0  0  0  0  0  0
  -25.9490  -30.6790   21.2360 C   0  0  0  0  0  2  0  0  0  0  0  0
  -26.0470  -29.3200   20.5830 C   0  0  0  0  0  0  0  0  0  0  0  0
  -27.2650  -28.6140   20.5430 C   0  0  0  0  0  3  0  0  0  0  0  0
  -26.1630  -26.8090   19.3400 C   0  0  0  0  0  3  0  0  0  0  0  0
  -24.9440  -27.5100   19.3910 C   0  0  0  0  0  3  0  0  0  0  0  0
  -23.6380  -29.6050   20.0730 C   0  0  0  0  0  2  0  0  0  0  0  0
  -24.6960  -30.8830   21.9960 N   0  0  0  0  0  0  0  0  0  0  0  0
  -23.5680  -31.9060   23.6740 O   0  0  0  0  0  0  0  0  0  0  0  0
  -22.8220  -29.2170   22.4160 C   0  0  0  0  0  0  0  0  0  0  0  0
  -21.5050  -28.9900   22.2790 N   0  0  0  0  0  0  0  0  0  0  0  0
  -23.5230  -28.6100   23.2300 O   0  0  0  0  0  0  0  0  0  0  0  0
  -21.0000  -29.5330   21.5930 H   0  0  0  0  0  0  0  0  0  0  0  0
  -18.1750  -27.6660   22.7200 C   0  0  0  0  0  0  0  0  0  0  0  0
  -20.7160  -28.0210   23.0380 C   0  0  0  0  0  3  0  0  0  0  0  0
  -20.8840  -26.5950   22.4660 C   0  0  0  0  0  2  0  0  0  0  0  0
  -19.8130  -26.2280   21.4340 C   0  0  0  0  0  2  0  0  0  0  0  0
  -18.4160  -26.3220   22.0530 C   0  0  0  0  0  2  0  0  0  0  0  0
  -19.2560  -28.4710   23.1690 C   0  0  0  0  0  0  0  0  0  0  0  0
  -18.9790  -29.7270   23.7500 C   0  0  0  0  0  3  0  0  0  0  0  0
  -17.6530  -30.1790   23.8890 C   0  0  0  0  0  3  0  0  0  0  0  0
  -16.5870  -29.3710   23.4590 C   0  0  0  0  0  3  0  0  0  0  0  0
  -16.8480  -28.1160   22.8800 C   0  0  0  0  0  3  0  0  0  0  0  0
  -25.9310  -32.3000   23.7240 C   0  0  0  0  0  3  0  0  0  0  0  0
  -25.6030  -33.6830   24.0930 N   0  0  0  0  0  0  0  0  0  0  0  0
  -25.8780  -34.7560   23.3400 C   0  0  0  0  0  0  0  0  0  0  0  0
  -26.5080  -34.6880   22.2810 O   0  0  0  0  0  0  0  0  0  0  0  0
  -25.0330  -33.8080   24.9180 H   0  0  0  0  0  0  0  0  0  0  0  0
  -24.0780  -36.4970   23.1010 C   0  0  0  0  0  1  0  0  0  0  0  0
  -25.3730  -36.1230   23.8410 C   0  0  0  0  0  3  0  0  0  0  0  0
  -27.5210  -37.0620   24.5700 C   0  0  0  0  0  1  0  0  0  0  0  0
  -26.3650  -37.2090   23.6880 N   0  0  0  0  0  0  0  0  0  0  0  0
  -25.9390  -38.1140   23.8710 H   0  0  0  0  0  0  0  0  0  0  0  0
  -26.4910  -31.5050   24.9680 C   0  0  1  0  0  0  0  0  0  0  0  0
  -25.4250  -31.2170   26.0500 C   0  0  0  0  0  1  0  0  0  0  0  0
  -27.0880  -30.1500   24.5240 C   0  0  0  0  0  1  0  0  0  0  0  0
  -27.6400  -32.3030   25.6270 C   0  0  0  0  0  1  0  0  0  0  0  0
  1  5  1  0
  3  1  2  0
  3  6  1  0
  4  2  1  0
  5  2  2  0
  6  4  2  0
  7  9  1  0
  7 11  1  0
  8 10  1  0
  9 12  1  0
 11  5  1  0
 11  8  1  0
 12 13  1  6
 12 14  1  0
 12 10  1  0
 15 16  1  0
 15 14  1  0
 17 23  1  0
 17 25  1  0
 18 23  1  0
 19 20  1  0
 19 18  1  0
 21 20  1  0
 21 30  1  0
 21 22  1  0
 23 22  1  0
 24 17  2  0
 25 16  1  0
 25 26  1  0
 27 28  2  0
 28 47  1  0
 29 28  1  0
 29 32  1  0
 30 31  1  0
 30 27  1  0
 31 29  2  0
 32 33  1  0
 33 34  2  0
 35 38  1  0
 35 34  1  0
 36 35  2  0
 37 36  1  0
 37 32  2  0
 38 39  1  0
 39 44  2  0
 39 40  1  0
 40 41  2  0
 41 42  1  0
 42 46  1  0
 43 42  2  0
 44 43  1  0
 45 44  1  0
 47 48  1  0
 48 50  1  0
 48 51  1  0
 49 47  2  0
 52 27  1  0
 52 53  1  0
 54 52  1  0
 55  6  1  0
 55 56  1  0
 56 58  1  0
 57 68  2  0
 58 63  1  0
 59 67  1  0
 59 69  1  0
 60 66  1  0
 60 62  1  0
 61 67  1  0
 62 61  1  0
 63 62  2  0
 64 65  1  0
 64 58  2  0
 65 60  2  0
 66 59  1  0
 67 57  1  0
 69 71  2  0
 70 69  1  0
 72 70  1  0
 73 82  2  0
 73 78  1  0
 74 70  1  0
 74 78  1  0
 75 74  1  0
 76 77  1  0
 76 75  1  0
 77 73  1  0
 78 79  2  0
 79 80  1  0
 81 80  2  0
 82 81  1  0
 83 57  1  0
 83 84  1  0
 83 93  1  0
 84 87  1  0
 85 89  1  0
 85 84  1  0
 86 85  2  0
 89 88  1  0
 91 89  1  0
 91 92  1  0
 91 90  1  0
 93 96  1  1
 93 94  1  0
 95 93  1  0
M  ISO  4  17 100  25 100  55 101  56 101
M  END
>  <TORSDO>  (21) 
F 21

>  <SCORE>  (21) 
-9.741

>  <name>  (21) 
20

>  <ligand_id>  (21) 
20

>  <original_smiles>  (21) 
[H]c1c([H])c([H])c2c(c1[H])C([H])([H])C([H])([H])C([H])([H])C2([H])N([H])C(=O)C1([H])N(C(=O)C([H])(N([H])C(=O)C([H])(N([H])C([H])([H])[H])C([H])([H])[H])C(C([H])([H])[H])(C([H])([H])[H])C([H])([H])[H])C([H])([H])c2c([H])c(OC([H])([H])c3c([H])c([H])c(C4([H])C([H])([H])C([H])([H])[N+]([H])(C([H])([H])C([H])([H])C([H])([H])N([H])C(=O)N5C([H])([H])C([H])([H])C([H])([H])C([H])(n6nc(-c7c([H])c([H])c(Oc8c([H])c([H])c(F)c([H])c8F)c([H])c7[H])c(C(=O)N([H])[H])c6N([H])[H])C5([H])[H])C([H])([H])C4([H])[H])c([H])c3[H])c([H])c([H])c2C1([H])[H]

>  <smiles>  (21) 
[H]c1c([H])c([H])c2c(c1[H])C([H])([H])C([H])([H])C([H])([H])C2([H])N([H])C(=O)C1([H])N(C(=O)C([H])(N([H])C(=O)C([H])(N([H])C([H])([H])[H])C([H])([H])[H])C(C([H])([H])[H])(C([H])([H])[H])C([H])([H])[H])C([H])([H])c2c([H])c(OC([H])([H])c3c([H])c([H])c(C4([H])C([H])([H])C([H])([H])[N+]([H])(C([H])([H])C([H])([H])C([H])([H])N([H])C(=O)N5C([H])([H])C([H])([H])C([H])([H])C([H])(n6nc(-c7c([H])c([H])c(Oc8c([H])c([H])c(F)c([H])c8F)c([H])c7[H])c(C(=O)N([H])[H])c6N([H])[H])C5([H])[H])C([H])([H])C4([H])[H])c([H])c3[H])c([H])c([H])c2C1([H])[H]

$$$$
21:0:0
     RDKit          3D

 90 99  0  0  1  0  0  0  0  0999 V2000
  -30.1840  -21.8100   20.7200 C   0  0  0  0  0  3  0  0  0  0  0  0
  -28.1580  -21.2730   19.5830 C   0  0  0  0  0  3  0  0  0  0  0  0
  -29.9000  -23.2140   20.5930 C   0  0  0  0  0  3  0  0  0  0  0  0
  -27.8720  -22.6780   19.4600 C   0  0  0  0  0  3  0  0  0  0  0  0
  -29.3500  -20.7780   20.1860 C   0  0  0  0  0  0  0  0  0  0  0  0
  -28.7440  -23.7110   19.9250 C   0  0  0  0  0  0  0  0  0  0  0  0
  -30.7420  -14.8140   20.0410 C   0  0  0  0  0  0  0  0  0  0  0  0
  -30.4540  -12.5510   19.0250 C   0  0  0  0  0  2  0  0  0  0  0  0
  -29.4630  -12.6320   17.8460 C   0  0  0  0  0  2  0  0  0  0  0  0
  -28.0200  -12.4480   18.3490 C   0  0  0  0  0  2  0  0  0  0  0  0
  -27.7010  -13.3280   19.5900 C   0  0  0  0  0  3  0  0  0  0  0  0
  -28.8140  -13.2640   20.6560 C   0  0  0  0  0  2  0  0  0  0  0  0
  -30.0710  -13.6120   19.9860 N   0  0  0  0  0  0  0  0  0  0  0  0
  -31.9260  -14.8500   19.6910 O   0  0  0  0  0  0  0  0  0  0  0  0
  -29.5540  -18.3270   21.4100 C   0  0  0  0  0  2  0  0  0  0  0  0
  -29.3370  -18.3260   19.0090 C   0  0  0  0  0  2  0  0  0  0  0  0
  -30.2310  -16.8810   21.3580 C   0  0  0  0  0  2  0  0  0  0  0  0
  -30.0510  -16.9120   18.9410 C   0  0  0  0  0  2  0  0  0  0  0  0
  -29.8180  -19.2370   20.1730 C   0  0  0  0  0  3  0  0  0  0  0  0
  -30.0310  -16.0200   20.1480 N   0  0  0  0  0  0  0  0  0  0  0  0
  -25.3600  -13.8900   20.4660 C   0  0  0  0  0  0  0  0  0  0  0  0
  -24.3150  -13.1040   20.8680 C   0  0  0  0  0  0  0  0  0  0  0  0
  -24.7750  -11.7560   20.7760 C   0  0  0  0  0  0  0  0  0  0  0  0
  -26.3880  -13.0190   20.1470 N   0  0  0  0  0  0  0  0  0  0  0  0
  -26.0490  -11.7290   20.3990 N   0  0  0  0  0  0  0  0  0  0  0  0
  -24.0580  -10.4870   20.9680 C   0  0  0  0  0  0  0  0  0  0  0  0
  -24.5040   -9.5190   21.8950 C   0  0  0  0  0  3  0  0  0  0  0  0
  -23.7850   -8.3170   22.0760 C   0  0  0  0  0  3  0  0  0  0  0  0
  -22.6070   -8.0760   21.3320 C   0  0  0  0  0  0  0  0  0  0  0  0
  -22.1800   -9.0320   20.3940 C   0  0  0  0  0  3  0  0  0  0  0  0
  -22.8990  -10.2250   20.2100 C   0  0  0  0  0  3  0  0  0  0  0  0
  -21.8590   -6.9260   21.4220 O   0  0  0  0  0  0  0  0  0  0  0  0
  -21.7770   -6.2110   22.5900 C   0  0  0  0  0  0  0  0  0  0  0  0
  -21.2660   -6.7800   23.7770 C   0  0  0  0  0  3  0  0  0  0  0  0
  -21.1320   -5.9900   24.9360 C   0  0  0  0  0  3  0  0  0  0  0  0
  -21.5020   -4.6320   24.9100 C   0  0  0  0  0  0  0  0  0  0  0  0
  -22.0070   -4.0620   23.7270 C   0  0  0  0  0  3  0  0  0  0  0  0
  -22.1410   -4.8490   22.5710 C   0  0  0  0  0  0  0  0  0  0  0  0
  -22.6080   -4.2910   21.4280 F   0  0  0  0  0  0  0  0  0  0  0  0
  -21.3670   -3.8710   26.0200 F   0  0  0  0  0  0  0  0  0  0  0  0
  -22.9340  -13.5730   21.2250 C   0  0  0  0  0  0  0  0  0  0  0  0
  -22.2470  -12.8470   22.1000 N   0  0  0  0  0  0  0  0  0  0  0  0
  -22.4730  -14.6160   20.7630 O   0  0  0  0  0  0  0  0  0  0  0  0
  -22.6330  -12.0030   22.4970 H   0  0  0  0  0  0  0  0  0  0  0  0
  -21.3210  -13.1400   22.3790 H   0  0  0  0  0  0  0  0  0  0  0  0
  -25.5170  -15.2660   20.3210 N   0  0  0  0  0  0  0  0  0  0  0  0
  -24.7630  -15.9210   20.5020 H   0  0  0  0  0  0  0  0  0  0  0  0
  -26.3630  -15.7140   19.9930 H   0  0  0  0  0  0  0  0  0  0  0  0
  -28.5730  -25.2300   19.4350 C   0  0  0  0  0  2  0  0  0  0  0  0
  -28.3860  -26.4310   20.3140 O   0  0  0  0  0  0  0  0  0  0  0  0
  -24.6430  -31.9260   23.2190 C   0  0  0  0  0  0  0  0  0  0  0  0
  -27.2730  -27.3050   20.2080 C   0  0  0  0  0  0  0  0  0  0  0  0
  -23.4490  -30.5080   21.5910 C   0  0  0  0  0  3  0  0  0  0  0  0
  -24.9080  -28.9480   20.1770 C   0  0  0  0  0  0  0  0  0  0  0  0
  -25.9920  -30.8230   21.4120 C   0  0  0  0  0  2  0  0  0  0  0  0
  -26.0770  -29.4350   20.7740 C   0  0  0  0  0  0  0  0  0  0  0  0
  -27.2580  -28.6240   20.7820 C   0  0  0  0  0  3  0  0  0  0  0  0
  -26.0700  -26.8810   19.5990 C   0  0  0  0  0  3  0  0  0  0  0  0
  -24.9100  -27.6790   19.5820 C   0  0  0  0  0  3  0  0  0  0  0  0
  -23.6710  -29.8240   20.2170 C   0  0  0  0  0  2  0  0  0  0  0  0
  -24.7150  -31.1040   22.1300 N   0  0  0  0  0  0  0  0  0  0  0  0
  -23.5570  -32.2040   23.7480 O   0  0  0  0  0  0  0  0  0  0  0  0
  -22.7890  -29.4970   22.5600 C   0  0  0  0  0  0  0  0  0  0  0  0
  -21.4610  -29.3180   22.4390 N   0  0  0  0  0  0  0  0  0  0  0  0
  -23.4680  -28.8770   23.3820 O   0  0  0  0  0  0  0  0  0  0  0  0
  -20.9700  -29.8690   21.7490 H   0  0  0  0  0  0  0  0  0  0  0  0
  -18.0850  -28.1290   22.9670 C   0  0  0  0  0  0  0  0  0  0  0  0
  -20.6450  -28.3850   23.2200 C   0  0  0  0  0  3  0  0  0  0  0  0
  -20.7400  -26.9510   22.6510 C   0  0  0  0  0  2  0  0  0  0  0  0
  -19.6310  -26.6260   21.6440 C   0  0  0  0  0  2  0  0  0  0  0  0
  -18.2540  -26.7770   22.2960 C   0  0  0  0  0  2  0  0  0  0  0  0
  -19.2080  -28.8910   23.3870 C   0  0  0  0  0  0  0  0  0  0  0  0
  -18.9940  -30.1560   23.9780 C   0  0  0  0  0  3  0  0  0  0  0  0
  -17.6920  -30.6590   24.1500 C   0  0  0  0  0  3  0  0  0  0  0  0
  -16.5830  -29.8950   23.7460 C   0  0  0  0  0  3  0  0  0  0  0  0
  -16.7800  -28.6310   23.1610 C   0  0  0  0  0  3  0  0  0  0  0  0
  -25.9200  -32.5720   23.8380 C   0  0  0  0  0  3  0  0  0  0  0  0
  -25.5970  -33.9690   24.1700 N   0  0  0  0  0  0  0  0  0  0  0  0
  -25.9180  -35.0260   23.4120 C   0  0  0  0  0  0  0  0  0  0  0  0
  -26.5870  -34.9300   22.3800 O   0  0  0  0  0  0  0  0  0  0  0  0
  -25.0020  -34.1170   24.9720 H   0  0  0  0  0  0  0  0  0  0  0  0
  -24.1840  -36.8120   23.0530 C   0  0  0  0  0  1  0  0  0  0  0  0
  -25.4200  -36.4100   23.8730 C   0  0  0  0  0  3  0  0  0  0  0  0
  -27.5390  -37.3060   24.7320 C   0  0  0  0  0  1  0  0  0  0  0  0
  -26.4470  -37.4690   23.7750 N   0  0  0  0  0  0  0  0  0  0  0  0
  -26.0340  -38.3860   23.9190 H   0  0  0  0  0  0  0  0  0  0  0  0
  -26.4450  -31.8090   25.1150 C   0  0  1  0  0  0  0  0  0  0  0  0
  -25.3560  -31.5600   26.1840 C   0  0  0  0  0  1  0  0  0  0  0  0
  -27.0440  -30.4380   24.7250 C   0  0  0  0  0  1  0  0  0  0  0  0
  -27.5870  -32.6170   25.7770 C   0  0  0  0  0  1  0  0  0  0  0  0
  2  5  1  0
  3  1  1  0
  4  2  2  0
  4  6  1  0
  5  1  2  0
  6  3  2  0
  7 20  1  0
  8 13  1  0
  9 10  1  0
  9  8  1  0
 11 10  1  0
 11 24  1  0
 11 12  1  0
 13  7  1  0
 13 12  1  0
 14  7  2  0
 16 19  1  0
 17 15  1  0
 18 16  1  0
 18 20  1  0
 19  5  1  0
 19 15  1  0
 20 17  1  0
 21 22  2  0
 22 41  1  0
 23 22  1  0
 23 26  1  0
 24 25  1  0
 24 21  1  0
 25 23  2  0
 26 27  1  0
 27 28  2  0
 29 32  1  0
 29 28  1  0
 30 29  2  0
 31 30  1  0
 31 26  2  0
 32 33  1  0
 33 34  1  0
 34 35  2  0
 36 35  1  0
 36 40  1  0
 37 36  2  0
 38 33  2  0
 38 37  1  0
 39 38  1  0
 41 42  1  0
 42 45  1  0
 42 44  1  0
 43 41  2  0
 46 21  1  0
 46 47  1  0
 48 46  1  0
 49  6  1  0
 49 50  1  0
 51 62  2  0
 52 50  1  0
 52 57  1  0
 53 61  1  0
 53 63  1  0
 54 60  1  0
 54 56  1  0
 55 61  1  0
 56 57  2  0
 56 55  1  0
 58 52  2  0
 59 58  1  0
 59 54  2  0
 60 53  1  0
 61 51  1  0
 63 65  2  0
 64 63  1  0
 66 64  1  0
 67 76  2  0
 67 72  1  0
 68 64  1  0
 68 72  1  0
 69 68  1  0
 70 71  1  0
 70 69  1  0
 71 67  1  0
 72 73  2  0
 73 74  1  0
 75 74  2  0
 76 75  1  0
 77 51  1  0
 77 78  1  0
 77 87  1  0
 78 81  1  0
 79 83  1  0
 79 78  1  0
 80 79  2  0
 83 82  1  0
 85 83  1  0
 85 86  1  0
 85 84  1  0
 87 90  1  1
 87 88  1  0
 89 87  1  0
M  ISO  4   7 100  20 100  49 101  50 101
M  END
>  <TORSDO>  (22) 
F 17

>  <SCORE>  (22) 
-14.780

>  <name>  (22) 
21

>  <ligand_id>  (22) 
21

>  <original_smiles>  (22) 
[H]c1c([H])c([H])c2c(c1[H])C([H])([H])C([H])([H])C([H])([H])C2([H])N([H])C(=O)C1([H])N(C(=O)C([H])(N([H])C(=O)C([H])(N([H])C([H])([H])[H])C([H])([H])[H])C(C([H])([H])[H])(C([H])([H])[H])C([H])([H])[H])C([H])([H])c2c([H])c(OC([H])([H])c3c([H])c([H])c(C4([H])C([H])([H])C([H])([H])N(C(=O)N5C([H])([H])C([H])([H])C([H])([H])C([H])(n6nc(-c7c([H])c([H])c(Oc8c([H])c([H])c(F)c([H])c8F)c([H])c7[H])c(C(=O)N([H])[H])c6N([H])[H])C5([H])[H])C([H])([H])C4([H])[H])c([H])c3[H])c([H])c([H])c2C1([H])[H]

>  <smiles>  (22) 
[H]c1c([H])c([H])c2c(c1[H])C([H])([H])C([H])([H])C([H])([H])C2([H])N([H])C(=O)C1([H])N(C(=O)C([H])(N([H])C(=O)C([H])(N([H])C([H])([H])[H])C([H])([H])[H])C(C([H])([H])[H])(C([H])([H])[H])C([H])([H])[H])C([H])([H])c2c([H])c(OC([H])([H])c3c([H])c([H])c(C4([H])C([H])([H])C([H])([H])N(C(=O)N5C([H])([H])C([H])([H])C([H])([H])C([H])(n6nc(-c7c([H])c([H])c(Oc8c([H])c([H])c(F)c([H])c8F)c([H])c7[H])c(C(=O)N([H])[H])c6N([H])[H])C5([H])[H])C([H])([H])C4([H])[H])c([H])c3[H])c([H])c([H])c2C1([H])[H]

$$$$
22:0:0
     RDKit          3D

 87 95  0  0  1  0  0  0  0  0999 V2000
  -28.3430  -20.3520   20.7730 C   0  0  0  0  0  3  0  0  0  0  0  0
  -30.2020  -20.9310   19.5460 C   0  0  0  0  0  3  0  0  0  0  0  0
  -27.9200  -21.7790   20.7390 C   0  0  0  0  0  3  0  0  0  0  0  0
  -29.7780  -22.3530   19.5100 C   0  0  0  0  0  3  0  0  0  0  0  0
  -29.5340  -19.7860   20.1610 C   0  0  0  0  0  0  0  0  0  0  0  0
  -28.5900  -22.9230   20.1160 C   0  0  0  0  0  0  0  0  0  0  0  0
  -30.2450  -18.2000   20.1870 C   0  0  0  0  0  2  0  0  0  0  0  0
  -30.5290  -15.3550   20.1680 C   0  0  0  0  0  0  0  0  0  0  0  0
  -30.4510  -12.9400   19.2640 C   0  0  0  0  0  2  0  0  0  0  0  0
  -29.5010  -12.7760   18.0520 C   0  0  0  0  0  2  0  0  0  0  0  0
  -28.0610  -12.5130   18.5250 C   0  0  0  0  0  2  0  0  0  0  0  0
  -27.6440  -13.4600   19.6780 C   0  0  0  0  0  3  0  0  0  0  0  0
  -28.7200  -13.5800   20.7780 C   0  0  0  0  0  2  0  0  0  0  0  0
  -29.9420  -14.0670   20.1200 N   0  0  0  0  0  0  0  0  0  0  0  0
  -31.7390  -15.3570   19.9040 O   0  0  0  0  0  0  0  0  0  0  0  0
  -29.7970  -16.6240   20.3000 N   0  0  0  0  0  0  0  0  0  0  0  0
  -28.8100  -16.4950   20.4660 H   0  0  0  0  0  0  0  0  0  0  0  0
  -25.2930  -14.0040   20.5030 C   0  0  0  0  0  0  0  0  0  0  0  0
  -24.2410  -13.2200   20.8860 C   0  0  0  0  0  0  0  0  0  0  0  0
  -24.7090  -11.8700   20.8170 C   0  0  0  0  0  0  0  0  0  0  0  0
  -26.3300  -13.1360   20.2160 N   0  0  0  0  0  0  0  0  0  0  0  0
  -25.9930  -11.8450   20.4720 N   0  0  0  0  0  0  0  0  0  0  0  0
  -23.9870  -10.6030   21.0000 C   0  0  0  0  0  0  0  0  0  0  0  0
  -24.4180   -9.6360   21.9340 C   0  0  0  0  0  3  0  0  0  0  0  0
  -23.6950   -8.4360   22.1060 C   0  0  0  0  0  3  0  0  0  0  0  0
  -22.5270   -8.1960   21.3440 C   0  0  0  0  0  0  0  0  0  0  0  0
  -22.1150   -9.1520   20.3990 C   0  0  0  0  0  3  0  0  0  0  0  0
  -22.8400  -10.3430   20.2250 C   0  0  0  0  0  3  0  0  0  0  0  0
  -21.7730   -7.0490   21.4270 O   0  0  0  0  0  0  0  0  0  0  0  0
  -21.6850   -6.3290   22.5910 C   0  0  0  0  0  0  0  0  0  0  0  0
  -21.1370   -6.8810   23.7690 C   0  0  0  0  0  3  0  0  0  0  0  0
  -21.0010   -6.0840   24.9240 C   0  0  0  0  0  3  0  0  0  0  0  0
  -21.4010   -4.7350   24.9000 C   0  0  0  0  0  0  0  0  0  0  0  0
  -21.9410   -4.1810   23.7260 C   0  0  0  0  0  3  0  0  0  0  0  0
  -22.0800   -4.9760   22.5730 C   0  0  0  0  0  0  0  0  0  0  0  0
  -22.5810   -4.4310   21.4390 F   0  0  0  0  0  0  0  0  0  0  0  0
  -21.2630   -3.9660   26.0050 F   0  0  0  0  0  0  0  0  0  0  0  0
  -22.8510  -13.6890   21.1970 C   0  0  0  0  0  0  0  0  0  0  0  0
  -22.1460  -12.9780   22.0690 N   0  0  0  0  0  0  0  0  0  0  0  0
  -22.4010  -14.7220   20.7020 O   0  0  0  0  0  0  0  0  0  0  0  0
  -22.5260  -12.1440   22.4900 H   0  0  0  0  0  0  0  0  0  0  0  0
  -21.2140  -13.2750   22.3220 H   0  0  0  0  0  0  0  0  0  0  0  0
  -25.4470  -15.3790   20.3460 N   0  0  0  0  0  0  0  0  0  0  0  0
  -24.6770  -16.0250   20.4830 H   0  0  0  0  0  0  0  0  0  0  0  0
  -26.2740  -15.8250   19.9720 H   0  0  0  0  0  0  0  0  0  0  0  0
  -27.8620  -24.4830   19.8860 C   0  0  0  0  0  2  0  0  0  0  0  0
  -28.2330  -26.0370   20.1780 O   0  0  0  0  0  0  0  0  0  0  0  0
  -24.6920  -31.9260   23.2300 C   0  0  0  0  0  0  0  0  0  0  0  0
  -27.2340  -27.1330   20.1210 C   0  0  0  0  0  0  0  0  0  0  0  0
  -23.4840  -30.5440   21.5900 C   0  0  0  0  0  3  0  0  0  0  0  0
  -24.9230  -28.9780   20.1270 C   0  0  0  0  0  0  0  0  0  0  0  0
  -26.0450  -30.7820   21.4120 C   0  0  0  0  0  2  0  0  0  0  0  0
  -26.1150  -29.3860   20.7380 C   0  0  0  0  0  0  0  0  0  0  0  0
  -27.2660  -28.4830   20.7160 C   0  0  0  0  0  3  0  0  0  0  0  0
  -26.0130  -26.8730   19.4600 C   0  0  0  0  0  3  0  0  0  0  0  0
  -24.8940  -27.7400   19.4670 C   0  0  0  0  0  3  0  0  0  0  0  0
  -23.6980  -29.8840   20.2010 C   0  0  0  0  0  2  0  0  0  0  0  0
  -24.7610  -31.1090   22.1310 N   0  0  0  0  0  0  0  0  0  0  0  0
  -23.6080  -32.2010   23.7700 O   0  0  0  0  0  0  0  0  0  0  0  0
  -22.8100  -29.5280   22.5500 C   0  0  0  0  0  0  0  0  0  0  0  0
  -21.4850  -29.3350   22.4190 N   0  0  0  0  0  0  0  0  0  0  0  0
  -23.4870  -28.9170   23.3810 O   0  0  0  0  0  0  0  0  0  0  0  0
  -20.9910  -29.8800   21.7270 H   0  0  0  0  0  0  0  0  0  0  0  0
  -18.1240  -28.0690   22.9290 C   0  0  0  0  0  0  0  0  0  0  0  0
  -20.6790  -28.3800   23.1880 C   0  0  0  0  0  3  0  0  0  0  0  0
  -20.8050  -26.9520   22.6080 C   0  0  0  0  0  2  0  0  0  0  0  0
  -19.7070  -26.6140   21.5940 C   0  0  0  0  0  2  0  0  0  0  0  0
  -18.3240  -26.7280   22.2430 C   0  0  0  0  0  2  0  0  0  0  0  0
  -19.2290  -28.8510   23.3590 C   0  0  0  0  0  0  0  0  0  0  0  0
  -18.9860  -30.1030   23.9630 C   0  0  0  0  0  3  0  0  0  0  0  0
  -17.6710  -30.5750   24.1380 C   0  0  0  0  0  3  0  0  0  0  0  0
  -16.5810  -29.7910   23.7240 C   0  0  0  0  0  3  0  0  0  0  0  0
  -16.8080  -28.5400   23.1250 C   0  0  0  0  0  3  0  0  0  0  0  0
  -25.9680  -32.5680   23.8520 C   0  0  0  0  0  3  0  0  0  0  0  0
  -25.6500  -33.9640   24.1980 N   0  0  0  0  0  0  0  0  0  0  0  0
  -25.9410  -35.0280   23.4380 C   0  0  0  0  0  0  0  0  0  0  0  0
  -26.5700  -34.9390   22.3810 O   0  0  0  0  0  0  0  0  0  0  0  0
  -25.0870  -34.1050   25.0250 H   0  0  0  0  0  0  0  0  0  0  0  0
  -24.1820  -36.8090   23.1780 C   0  0  0  0  0  1  0  0  0  0  0  0
  -25.4620  -36.4100   23.9280 C   0  0  0  0  0  3  0  0  0  0  0  0
  -27.6120  -37.3250   24.6820 C   0  0  0  0  0  1  0  0  0  0  0  0
  -26.4770  -37.4760   23.7750 N   0  0  0  0  0  0  0  0  0  0  0  0
  -26.0640  -38.3910   23.9330 H   0  0  0  0  0  0  0  0  0  0  0  0
  -26.4890  -31.7970   25.1280 C   0  0  1  0  0  0  0  0  0  0  0  0
  -25.3970  -31.5480   26.1950 C   0  0  0  0  0  1  0  0  0  0  0  0
  -27.0830  -30.4240   24.7400 C   0  0  0  0  0  1  0  0  0  0  0  0
  -27.6310  -32.5980   25.7940 C   0  0  0  0  0  1  0  0  0  0  0  0
  2  5  1  0
  3  1  1  0
  4  2  2  0
  4  6  1  0
  5  7  1  0
  5  1  2  0
  6  3  2  0
  7 16  1  0
  8 16  1  0
  9 14  1  0
 10 11  1  0
 10  9  1  0
 12 11  1  0
 12 21  1  0
 12 13  1  0
 14  8  1  0
 14 13  1  0
 15  8  2  0
 16 17  1  0
 18 19  2  0
 19 38  1  0
 20 19  1  0
 20 23  1  0
 21 22  1  0
 21 18  1  0
 22 20  2  0
 23 24  1  0
 24 25  2  0
 26 29  1  0
 26 25  1  0
 27 26  2  0
 28 27  1  0
 28 23  2  0
 29 30  1  0
 30 31  1  0
 31 32  2  0
 33 32  1  0
 33 37  1  0
 34 33  2  0
 35 30  2  0
 35 34  1  0
 36 35  1  0
 38 39  1  0
 39 42  1  0
 39 41  1  0
 40 38  2  0
 43 44  1  0
 43 18  1  0
 45 43  1  0
 46  6  1  0
 46 47  1  0
 48 59  2  0
 49 47  1  0
 49 54  1  0
 50 58  1  0
 50 60  1  0
 51 57  1  0
 51 53  1  0
 52 58  1  0
 53 52  1  0
 54 53  2  0
 55 56  1  0
 55 49  2  0
 56 51  2  0
 57 50  1  0
 58 48  1  0
 60 62  2  0
 61 60  1  0
 63 61  1  0
 64 73  2  0
 64 69  1  0
 65 61  1  0
 65 69  1  0
 66 65  1  0
 67 68  1  0
 67 66  1  0
 68 64  1  0
 69 70  2  0
 70 71  1  0
 72 71  2  0
 73 72  1  0
 74 48  1  0
 74 75  1  0
 74 84  1  0
 75 78  1  0
 76 80  1  0
 76 75  1  0
 77 76  2  0
 80 79  1  0
 82 80  1  0
 82 83  1  0
 82 81  1  0
 84 87  1  1
 84 85  1  0
 86 84  1  0
M  ISO  4   8 100  16 100  46 101  47 101
M  END
>  <TORSDO>  (23) 
F 18

>  <SCORE>  (23) 
-15.768

>  <name>  (23) 
22

>  <ligand_id>  (23) 
22

>  <original_smiles>  (23) 
[H]c1c([H])c([H])c2c(c1[H])C([H])([H])C([H])([H])C([H])([H])C2([H])N([H])C(=O)C1([H])N(C(=O)C([H])(N([H])C(=O)C([H])(N([H])C([H])([H])[H])C([H])([H])[H])C(C([H])([H])[H])(C([H])([H])[H])C([H])([H])[H])C([H])([H])c2c([H])c(OC([H])([H])c3c([H])c([H])c(C([H])([H])N([H])C(=O)N4C([H])([H])C([H])([H])C([H])([H])C([H])(n5nc(-c6c([H])c([H])c(Oc7c([H])c([H])c(F)c([H])c7F)c([H])c6[H])c(C(=O)N([H])[H])c5N([H])[H])C4([H])[H])c([H])c3[H])c([H])c([H])c2C1([H])[H]

>  <smiles>  (23) 
[H]c1c([H])c([H])c2c(c1[H])C([H])([H])C([H])([H])C([H])([H])C2([H])N([H])C(=O)C1([H])N(C(=O)C([H])(N([H])C(=O)C([H])(N([H])C([H])([H])[H])C([H])([H])[H])C(C([H])([H])[H])(C([H])([H])[H])C([H])([H])[H])C([H])([H])c2c([H])c(OC([H])([H])c3c([H])c([H])c(C([H])([H])N([H])C(=O)N4C([H])([H])C([H])([H])C([H])([H])C([H])(n5nc(-c6c([H])c([H])c(Oc7c([H])c([H])c(F)c([H])c7F)c([H])c6[H])c(C(=O)N([H])[H])c5N([H])[H])C4([H])[H])c([H])c3[H])c([H])c([H])c2C1([H])[H]

$$$$
23:0:0
     RDKit          3D

 84 91  0  0  1  0  0  0  0  0999 V2000
  -28.0360  -24.2690   20.5090 C   0  0  0  0  0  2  0  0  0  0  0  0
  -28.2220  -25.8810   20.2090 O   0  0  0  0  0  0  0  0  0  0  0  0
  -24.6160  -31.8370   23.1800 C   0  0  0  0  0  0  0  0  0  0  0  0
  -27.1870  -26.9520   20.2070 C   0  0  0  0  0  0  0  0  0  0  0  0
  -23.4240  -30.4230   21.5540 C   0  0  0  0  0  3  0  0  0  0  0  0
  -24.8760  -28.8110   20.1480 C   0  0  0  0  0  0  0  0  0  0  0  0
  -25.9900  -30.6480   21.3990 C   0  0  0  0  0  2  0  0  0  0  0  0
  -26.0650  -29.2330   20.7580 C   0  0  0  0  0  0  0  0  0  0  0  0
  -27.2180  -28.3250   20.7560 C   0  0  0  0  0  3  0  0  0  0  0  0
  -25.9650  -26.6750   19.5560 C   0  0  0  0  0  3  0  0  0  0  0  0
  -24.8500  -27.5530   19.5260 C   0  0  0  0  0  3  0  0  0  0  0  0
  -23.6540  -29.7270   20.1840 C   0  0  0  0  0  2  0  0  0  0  0  0
  -24.6980  -30.9970   22.0980 N   0  0  0  0  0  0  0  0  0  0  0  0
  -23.5260  -32.1260   23.7010 O   0  0  0  0  0  0  0  0  0  0  0  0
  -22.7360  -29.4330   22.5290 C   0  0  0  0  0  0  0  0  0  0  0  0
  -21.4040  -29.2710   22.4160 N   0  0  0  0  0  0  0  0  0  0  0  0
  -23.4070  -28.8080   23.3540 O   0  0  0  0  0  0  0  0  0  0  0  0
  -20.9170  -29.8260   21.7270 H   0  0  0  0  0  0  0  0  0  0  0  0
  -18.0230  -28.0690   22.9520 C   0  0  0  0  0  0  0  0  0  0  0  0
  -20.5850  -28.3390   23.1970 C   0  0  0  0  0  3  0  0  0  0  0  0
  -20.6840  -26.9040   22.6300 C   0  0  0  0  0  2  0  0  0  0  0  0
  -19.5750  -26.5740   21.6240 C   0  0  0  0  0  2  0  0  0  0  0  0
  -18.1970  -26.7180   22.2770 C   0  0  0  0  0  2  0  0  0  0  0  0
  -19.1440  -28.8370   23.3690 C   0  0  0  0  0  0  0  0  0  0  0  0
  -18.9240  -30.0980   23.9630 C   0  0  0  0  0  3  0  0  0  0  0  0
  -17.6200  -30.5940   24.1420 C   0  0  0  0  0  3  0  0  0  0  0  0
  -16.5140  -29.8250   23.7380 C   0  0  0  0  0  3  0  0  0  0  0  0
  -16.7170  -28.5640   23.1490 C   0  0  0  0  0  3  0  0  0  0  0  0
  -25.8860  -32.4890   23.8060 C   0  0  0  0  0  3  0  0  0  0  0  0
  -26.4090  -31.7230   25.0840 C   0  0  1  0  0  0  0  0  0  0  0  0
  -25.3200  -31.4800   26.1550 C   0  0  0  0  0  1  0  0  0  0  0  0
  -27.0000  -30.3470   24.6990 C   0  0  0  0  0  1  0  0  0  0  0  0
  -27.5570  -32.5240   25.7410 C   0  0  0  0  0  1  0  0  0  0  0  0
  -25.5550  -33.8830   24.1530 N   0  0  0  0  0  0  0  0  0  0  0  0
  -25.8660  -34.9530   23.4100 C   0  0  0  0  0  0  0  0  0  0  0  0
  -26.5250  -34.8730   22.3700 O   0  0  0  0  0  0  0  0  0  0  0  0
  -24.9660  -34.0180   24.9610 H   0  0  0  0  0  0  0  0  0  0  0  0
  -24.1090  -36.7340   23.1180 C   0  0  0  0  0  1  0  0  0  0  0  0
  -25.3720  -36.3320   23.8960 C   0  0  0  0  0  3  0  0  0  0  0  0
  -27.5150  -37.2360   24.6870 C   0  0  0  0  0  1  0  0  0  0  0  0
  -26.3890  -37.4000   23.7720 N   0  0  0  0  0  0  0  0  0  0  0  0
  -25.9750  -38.3130   23.9390 H   0  0  0  0  0  0  0  0  0  0  0  0
  -28.7190  -22.6990   19.9240 C   0  0  0  0  0  2  0  0  0  0  0  0
  -28.9900  -21.2170   20.5850 O   0  0  0  0  0  0  0  0  0  0  0  0
  -29.0780  -19.6810   19.9990 C   0  0  0  0  0  2  0  0  0  0  0  0
  -29.8810  -18.1670   20.5600 C   0  0  0  0  0  2  0  0  0  0  0  0
  -30.3820  -15.2640   20.2540 C   0  0  0  0  0  0  0  0  0  0  0  0
  -30.3490  -12.8260   19.3660 C   0  0  0  0  0  2  0  0  0  0  0  0
  -29.4210  -12.6110   18.1440 C   0  0  0  0  0  2  0  0  0  0  0  0
  -27.9740  -12.3490   18.5940 C   0  0  0  0  0  2  0  0  0  0  0  0
  -27.5290  -13.3180   19.7180 C   0  0  0  0  0  3  0  0  0  0  0  0
  -28.5830  -13.4670   20.8330 C   0  0  0  0  0  2  0  0  0  0  0  0
  -29.8060  -13.9670   20.1860 N   0  0  0  0  0  0  0  0  0  0  0  0
  -31.6080  -15.2630   20.0800 O   0  0  0  0  0  0  0  0  0  0  0  0
  -29.6180  -16.5330   20.3180 N   0  0  0  0  0  0  0  0  0  0  0  0
  -28.6290  -16.3280   20.3210 H   0  0  0  0  0  0  0  0  0  0  0  0
  -25.1610  -13.8840   20.4750 C   0  0  0  0  0  0  0  0  0  0  0  0
  -24.0990  -13.1090   20.8510 C   0  0  0  0  0  0  0  0  0  0  0  0
  -24.5680  -11.7590   20.8280 C   0  0  0  0  0  0  0  0  0  0  0  0
  -26.2030  -13.0060   20.2350 N   0  0  0  0  0  0  0  0  0  0  0  0
  -25.8590  -11.7220   20.5170 N   0  0  0  0  0  0  0  0  0  0  0  0
  -23.8400  -10.4970   21.0260 C   0  0  0  0  0  0  0  0  0  0  0  0
  -24.2820   -9.5240   21.9500 C   0  0  0  0  0  3  0  0  0  0  0  0
  -23.5520   -8.3310   22.1370 C   0  0  0  0  0  3  0  0  0  0  0  0
  -22.3660   -8.1010   21.4000 C   0  0  0  0  0  0  0  0  0  0  0  0
  -21.9430   -9.0620   20.4650 C   0  0  0  0  0  3  0  0  0  0  0  0
  -22.6730  -10.2470   20.2760 C   0  0  0  0  0  3  0  0  0  0  0  0
  -21.6060   -6.9600   21.4960 O   0  0  0  0  0  0  0  0  0  0  0  0
  -21.5890   -6.2020   22.6400 C   0  0  0  0  0  0  0  0  0  0  0  0
  -21.2240   -6.7480   23.8900 C   0  0  0  0  0  3  0  0  0  0  0  0
  -21.1520   -5.9180   25.0260 C   0  0  0  0  0  3  0  0  0  0  0  0
  -21.4340   -4.5440   24.9150 C   0  0  0  0  0  0  0  0  0  0  0  0
  -21.7920   -3.9970   23.6700 C   0  0  0  0  0  3  0  0  0  0  0  0
  -21.8660   -4.8250   22.5350 C   0  0  0  0  0  0  0  0  0  0  0  0
  -22.1910   -4.2890   21.3340 F   0  0  0  0  0  0  0  0  0  0  0  0
  -21.3580   -3.7440   26.0040 F   0  0  0  0  0  0  0  0  0  0  0  0
  -22.7020  -13.5880   21.1150 C   0  0  0  0  0  0  0  0  0  0  0  0
  -21.9740  -12.9020   21.9880 N   0  0  0  0  0  0  0  0  0  0  0  0
  -22.2660  -14.6070   20.5800 O   0  0  0  0  0  0  0  0  0  0  0  0
  -22.3410  -12.0790   22.4420 H   0  0  0  0  0  0  0  0  0  0  0  0
  -21.0360  -13.2060   22.2080 H   0  0  0  0  0  0  0  0  0  0  0  0
  -25.3200  -15.2530   20.2870 N   0  0  0  0  0  0  0  0  0  0  0  0
  -24.5470  -15.9020   20.3920 H   0  0  0  0  0  0  0  0  0  0  0  0
  -26.1550  -15.6900   19.9190 H   0  0  0  0  0  0  0  0  0  0  0  0
  2  1  1  0
  3 14  2  0
  4  2  1  0
  4  9  1  0
  5 13  1  0
  5 15  1  0
  6 12  1  0
  6  8  1  0
  7 13  1  0
  8  7  1  0
  9  8  2  0
 10  4  2  0
 11 10  1  0
 11  6  2  0
 12  5  1  0
 13  3  1  0
 15 17  2  0
 16 15  1  0
 18 16  1  0
 19 28  2  0
 19 24  1  0
 20 16  1  0
 20 24  1  0
 21 20  1  0
 22 23  1  0
 22 21  1  0
 23 19  1  0
 24 25  2  0
 25 26  1  0
 27 26  2  0
 28 27  1  0
 29  3  1  0
 29 34  1  0
 29 30  1  0
 30 33  1  1
 30 31  1  0
 32 30  1  0
 34 37  1  0
 35 39  1  0
 35 34  1  0
 36 35  2  0
 39 38  1  0
 41 39  1  0
 41 42  1  0
 41 40  1  0
 43  1  1  0
 43 44  1  0
 45 46  1  0
 45 44  1  0
 47 55  1  0
 48 53  1  0
 49 50  1  0
 49 48  1  0
 51 50  1  0
 51 60  1  0
 51 52  1  0
 53 47  1  0
 53 52  1  0
 54 47  2  0
 55 56  1  0
 55 46  1  0
 57 58  2  0
 58 77  1  0
 59 58  1  0
 59 62  1  0
 60 57  1  0
 60 61  1  0
 61 59  2  0
 62 63  1  0
 63 64  2  0
 65 68  1  0
 65 64  1  0
 66 65  2  0
 67 66  1  0
 67 62  2  0
 68 69  1  0
 69 70  1  0
 70 71  2  0
 72 71  1  0
 72 76  1  0
 73 72  2  0
 74 69  2  0
 74 73  1  0
 75 74  1  0
 77 78  1  0
 78 81  1  0
 78 80  1  0
 79 77  2  0
 82 83  1  0
 82 57  1  0
 84 82  1  0
M  ISO  4   1 101   2 101  47 100  55 100
M  END
>  <TORSDO>  (24) 
F 20

>  <SCORE>  (24) 
-15.761

>  <name>  (24) 
23

>  <ligand_id>  (24) 
23

>  <original_smiles>  (24) 
[H]c1c([H])c([H])c2c(c1[H])C([H])([H])C([H])([H])C([H])([H])C2([H])N([H])C(=O)C1([H])N(C(=O)C([H])(N([H])C(=O)C([H])(N([H])C([H])([H])[H])C([H])([H])[H])C(C([H])([H])[H])(C([H])([H])[H])C([H])([H])[H])C([H])([H])c2c([H])c(OC([H])([H])C([H])([H])OC([H])([H])C([H])([H])N([H])C(=O)N3C([H])([H])C([H])([H])C([H])([H])C([H])(n4nc(-c5c([H])c([H])c(Oc6c([H])c([H])c(F)c([H])c6F)c([H])c5[H])c(C(=O)N([H])[H])c4N([H])[H])C3([H])[H])c([H])c([H])c2C1([H])[H]

>  <smiles>  (24) 
[H]c1c([H])c([H])c2c(c1[H])C([H])([H])C([H])([H])C([H])([H])C2([H])N([H])C(=O)C1([H])N(C(=O)C([H])(N([H])C(=O)C([H])(N([H])C([H])([H])[H])C([H])([H])[H])C(C([H])([H])[H])(C([H])([H])[H])C([H])([H])[H])C([H])([H])c2c([H])c(OC([H])([H])C([H])([H])OC([H])([H])C([H])([H])N([H])C(=O)N3C([H])([H])C([H])([H])C([H])([H])C([H])(n4nc(-c5c([H])c([H])c(Oc6c([H])c([H])c(F)c([H])c6F)c([H])c5[H])c(C(=O)N([H])[H])c4N([H])[H])C3([H])[H])c([H])c([H])c2C1([H])[H]

$$$$
24:0:0
     RDKit          3D

 89 97  0  0  1  0  0  0  0  0999 V2000
  -30.7340  -20.1060   20.5000 C   0  0  0  0  0  2  0  0  0  0  0  0
  -28.4000  -19.6020   20.7070 C   0  0  0  0  0  2  0  0  0  0  0  0
  -30.3860  -21.5610   19.9590 C   0  0  0  0  0  2  0  0  0  0  0  0
  -28.0470  -21.0990   20.1980 C   0  0  0  0  0  2  0  0  0  0  0  0
  -29.7380  -18.9250   20.1950 C   0  0  0  0  0  3  0  0  0  0  0  0
  -29.0890  -22.1800   20.4230 N   0  0  2  0  0  4  0  0  0  0  0  0
  -29.1790  -22.3000   21.4220 H   0  0  0  0  0  0  0  0  0  0  0  0
  -30.2930  -17.4790   20.8050 C   0  0  0  0  0  2  0  0  0  0  0  0
  -30.5440  -14.8690   20.2450 C   0  0  0  0  0  0  0  0  0  0  0  0
  -30.3380  -12.5850   19.2090 C   0  0  0  0  0  2  0  0  0  0  0  0
  -29.3800  -12.6320   17.9980 C   0  0  0  0  0  2  0  0  0  0  0  0
  -27.9170  -12.4490   18.4510 C   0  0  0  0  0  2  0  0  0  0  0  0
  -27.5600  -13.3300   19.6790 C   0  0  0  0  0  3  0  0  0  0  0  0
  -28.6380  -13.2570   20.7810 C   0  0  0  0  0  2  0  0  0  0  0  0
  -29.9080  -13.6450   20.1550 N   0  0  0  0  0  0  0  0  0  0  0  0
  -31.7380  -14.9350   19.9430 O   0  0  0  0  0  0  0  0  0  0  0  0
  -29.8030  -16.0400   20.4880 N   0  0  0  0  0  0  0  0  0  0  0  0
  -28.8120  -15.8860   20.6180 H   0  0  0  0  0  0  0  0  0  0  0  0
  -25.1880  -13.9140   20.4530 C   0  0  0  0  0  0  0  0  0  0  0  0
  -24.1310  -13.1390   20.8410 C   0  0  0  0  0  0  0  0  0  0  0  0
  -24.5960  -11.7880   20.8010 C   0  0  0  0  0  0  0  0  0  0  0  0
  -26.2280  -13.0360   20.1960 N   0  0  0  0  0  0  0  0  0  0  0  0
  -25.8810  -11.7520   20.4690 N   0  0  0  0  0  0  0  0  0  0  0  0
  -23.8720  -10.5250   20.9970 C   0  0  0  0  0  0  0  0  0  0  0  0
  -24.3160   -9.5560   21.9230 C   0  0  0  0  0  3  0  0  0  0  0  0
  -23.5920   -8.3590   22.1100 C   0  0  0  0  0  3  0  0  0  0  0  0
  -22.4070   -8.1260   21.3720 C   0  0  0  0  0  0  0  0  0  0  0  0
  -21.9830   -9.0820   20.4320 C   0  0  0  0  0  3  0  0  0  0  0  0
  -22.7090  -10.2700   20.2430 C   0  0  0  0  0  3  0  0  0  0  0  0
  -21.6500   -6.9840   21.4670 O   0  0  0  0  0  0  0  0  0  0  0  0
  -21.6130   -6.2380   22.6180 C   0  0  0  0  0  0  0  0  0  0  0  0
  -21.2070   -6.7910   23.8520 C   0  0  0  0  0  3  0  0  0  0  0  0
  -21.1200   -5.9720   24.9960 C   0  0  0  0  0  3  0  0  0  0  0  0
  -21.4280   -4.6020   24.9060 C   0  0  0  0  0  0  0  0  0  0  0  0
  -21.8270   -4.0480   23.6770 C   0  0  0  0  0  3  0  0  0  0  0  0
  -21.9170   -4.8640   22.5360 C   0  0  0  0  0  0  0  0  0  0  0  0
  -22.2830   -4.3220   21.3490 F   0  0  0  0  0  0  0  0  0  0  0  0
  -21.3360   -3.8140   26.0020 F   0  0  0  0  0  0  0  0  0  0  0  0
  -22.7360  -13.6160   21.1300 C   0  0  0  0  0  0  0  0  0  0  0  0
  -22.0160  -12.9210   22.0010 N   0  0  0  0  0  0  0  0  0  0  0  0
  -22.2950  -14.6440   20.6180 O   0  0  0  0  0  0  0  0  0  0  0  0
  -22.3880  -12.0940   22.4430 H   0  0  0  0  0  0  0  0  0  0  0  0
  -21.0810  -13.2260   22.2340 H   0  0  0  0  0  0  0  0  0  0  0  0
  -25.3420  -15.2860   20.2730 N   0  0  0  0  0  0  0  0  0  0  0  0
  -24.5640  -15.9250   20.4010 H   0  0  0  0  0  0  0  0  0  0  0  0
  -26.1660  -15.7360   19.8950 H   0  0  0  0  0  0  0  0  0  0  0  0
  -28.8450  -23.6150   19.8100 C   0  0  0  0  0  2  0  0  0  0  0  0
  -28.1520  -24.8720   20.6150 C   0  0  0  0  0  2  0  0  0  0  0  0
  -28.3230  -26.3390   20.2030 O   0  0  0  0  0  0  0  0  0  0  0  0
  -24.5560  -31.8480   23.1970 C   0  0  0  0  0  0  0  0  0  0  0  0
  -27.2220  -27.2400   20.1790 C   0  0  0  0  0  0  0  0  0  0  0  0
  -23.3860  -30.4450   21.5400 C   0  0  0  0  0  3  0  0  0  0  0  0
  -24.8640  -28.8980   20.1250 C   0  0  0  0  0  0  0  0  0  0  0  0
  -25.9280  -30.7640   21.3890 C   0  0  0  0  0  2  0  0  0  0  0  0
  -26.0270  -29.3790   20.7400 C   0  0  0  0  0  0  0  0  0  0  0  0
  -27.2130  -28.5650   20.7460 C   0  0  0  0  0  3  0  0  0  0  0  0
  -26.0370  -26.8360   19.5320 C   0  0  0  0  0  3  0  0  0  0  0  0
  -24.8760  -27.6370   19.5080 C   0  0  0  0  0  3  0  0  0  0  0  0
  -23.6240  -29.7760   20.1590 C   0  0  0  0  0  2  0  0  0  0  0  0
  -24.6420  -31.0380   22.0990 N   0  0  0  0  0  0  0  0  0  0  0  0
  -23.4630  -32.1150   23.7180 O   0  0  0  0  0  0  0  0  0  0  0  0
  -22.7170  -29.4200   22.4890 C   0  0  0  0  0  0  0  0  0  0  0  0
  -21.3950  -29.2280   22.3420 N   0  0  0  0  0  0  0  0  0  0  0  0
  -23.3890  -28.8030   23.3190 O   0  0  0  0  0  0  0  0  0  0  0  0
  -20.9100  -29.7810   21.6490 H   0  0  0  0  0  0  0  0  0  0  0  0
  -18.0310  -27.9650   22.7790 C   0  0  0  0  0  0  0  0  0  0  0  0
  -20.5770  -28.2790   23.1000 C   0  0  0  0  0  3  0  0  0  0  0  0
  -20.7190  -26.8450   22.5370 C   0  0  0  0  0  2  0  0  0  0  0  0
  -19.6450  -26.4930   21.5000 C   0  0  0  0  0  2  0  0  0  0  0  0
  -18.2480  -26.6150   22.1140 C   0  0  0  0  0  2  0  0  0  0  0  0
  -19.1250  -28.7510   23.2270 C   0  0  0  0  0  0  0  0  0  0  0  0
  -18.8660  -30.0120   23.8090 C   0  0  0  0  0  3  0  0  0  0  0  0
  -17.5470  -30.4850   23.9480 C   0  0  0  0  0  3  0  0  0  0  0  0
  -16.4690  -29.6950   23.5150 C   0  0  0  0  0  3  0  0  0  0  0  0
  -16.7110  -28.4370   22.9340 C   0  0  0  0  0  3  0  0  0  0  0  0
  -25.8240  -32.4920   23.8390 C   0  0  0  0  0  3  0  0  0  0  0  0
  -26.3290  -31.7280   25.1240 C   0  0  1  0  0  0  0  0  0  0  0  0
  -25.2230  -31.4840   26.1770 C   0  0  0  0  0  1  0  0  0  0  0  0
  -26.9280  -30.3540   24.7440 C   0  0  0  0  0  1  0  0  0  0  0  0
  -27.4660  -32.5290   25.7990 C   0  0  0  0  0  1  0  0  0  0  0  0
  -25.4980  -33.8890   24.1660 N   0  0  0  0  0  0  0  0  0  0  0  0
  -25.8350  -34.9460   23.4150 C   0  0  0  0  0  0  0  0  0  0  0  0
  -26.5210  -34.8500   22.3940 O   0  0  0  0  0  0  0  0  0  0  0  0
  -24.8930  -34.0410   24.9590 H   0  0  0  0  0  0  0  0  0  0  0  0
  -24.1060  -36.7330   23.0390 C   0  0  0  0  0  1  0  0  0  0  0  0
  -25.3330  -36.3310   23.8690 C   0  0  0  0  0  3  0  0  0  0  0  0
  -27.4480  -37.2230   24.7420 C   0  0  0  0  0  1  0  0  0  0  0  0
  -26.3630  -37.3890   23.7790 N   0  0  0  0  0  0  0  0  0  0  0  0
  -25.9480  -38.3070   23.9220 H   0  0  0  0  0  0  0  0  0  0  0  0
  3  6  1  0
  3  1  1  0
  4  6  1  0
  4  2  1  0
  5  1  1  0
  5  2  1  0
  5  8  1  0
  6  7  1  1
  9 17  1  0
 10 15  1  0
 11 12  1  0
 11 10  1  0
 13 12  1  0
 13 22  1  0
 13 14  1  0
 15  9  1  0
 15 14  1  0
 16  9  2  0
 17 18  1  0
 17  8  1  0
 19 20  2  0
 20 39  1  0
 21 20  1  0
 21 24  1  0
 22 19  1  0
 22 23  1  0
 23 21  2  0
 24 25  1  0
 25 26  2  0
 27 30  1  0
 27 26  1  0
 28 27  2  0
 29 28  1  0
 29 24  2  0
 30 31  1  0
 31 32  1  0
 32 33  2  0
 34 33  1  0
 34 38  1  0
 35 34  2  0
 36 31  2  0
 36 35  1  0
 37 36  1  0
 39 40  1  0
 40 43  1  0
 40 42  1  0
 41 39  2  0
 44 45  1  0
 44 19  1  0
 46 44  1  0
 47  6  1  0
 47 48  1  0
 49 48  1  0
 50 61  2  0
 51 49  1  0
 51 56  1  0
 52 60  1  0
 52 62  1  0
 53 59  1  0
 53 55  1  0
 54 60  1  0
 55 56  2  0
 55 54  1  0
 57 51  2  0
 58 57  1  0
 58 53  2  0
 59 52  1  0
 60 50  1  0
 62 64  2  0
 63 62  1  0
 65 63  1  0
 66 75  2  0
 66 71  1  0
 67 63  1  0
 67 71  1  0
 68 67  1  0
 69 70  1  0
 69 68  1  0
 70 66  1  0
 71 72  2  0
 72 73  1  0
 74 73  2  0
 75 74  1  0
 76 50  1  0
 76 81  1  0
 76 77  1  0
 77 80  1  1
 77 78  1  0
 79 77  1  0
 81 84  1  0
 82 86  1  0
 82 81  1  0
 83 82  2  0
 86 85  1  0
 88 86  1  0
 88 89  1  0
 88 87  1  0
M  ISO  4   9 100  17 100  48 101  49 101
M  END
>  <TORSDO>  (25) 
F 19

>  <SCORE>  (25) 
-14.022

>  <name>  (25) 
24

>  <ligand_id>  (25) 
24

>  <original_smiles>  (25) 
[H]c1c([H])c([H])c2c(c1[H])C([H])([H])C([H])([H])C([H])([H])C2([H])N([H])C(=O)C1([H])N(C(=O)C([H])(N([H])C(=O)C([H])(N([H])C([H])([H])[H])C([H])([H])[H])C(C([H])([H])[H])(C([H])([H])[H])C([H])([H])[H])C([H])([H])c2c([H])c(OC([H])([H])C([H])([H])[N+]3([H])C([H])([H])C([H])([H])C([H])(C([H])([H])N([H])C(=O)N4C([H])([H])C([H])([H])C([H])([H])C([H])(n5nc(-c6c([H])c([H])c(Oc7c([H])c([H])c(F)c([H])c7F)c([H])c6[H])c(C(=O)N([H])[H])c5N([H])[H])C4([H])[H])C([H])([H])C3([H])[H])c([H])c([H])c2C1([H])[H]

>  <smiles>  (25) 
[H]c1c([H])c([H])c2c(c1[H])C([H])([H])C([H])([H])C([H])([H])C2([H])N([H])C(=O)C1([H])N(C(=O)C([H])(N([H])C(=O)C([H])(N([H])C([H])([H])[H])C([H])([H])[H])C(C([H])([H])[H])(C([H])([H])[H])C([H])([H])[H])C([H])([H])c2c([H])c(OC([H])([H])C([H])([H])[N+]3([H])C([H])([H])C([H])([H])C([H])(C([H])([H])N([H])C(=O)N4C([H])([H])C([H])([H])C([H])([H])C([H])(n5nc(-c6c([H])c([H])c(Oc7c([H])c([H])c(F)c([H])c7F)c([H])c6[H])c(C(=O)N([H])[H])c5N([H])[H])C4([H])[H])C([H])([H])C3([H])[H])c([H])c([H])c2C1([H])[H]

$$$$
25:0:0
     RDKit          3D

105116  0  0  1  0  0  0  0  0999 V2000
  -30.0830  -23.8960   16.8280 C   0  0  0  0  0  3  0  0  0  0  0  0
  -27.7670  -23.7460   17.5680 C   0  0  0  0  0  3  0  0  0  0  0  0
  -30.3010  -22.5780   17.2590 C   0  0  0  0  0  3  0  0  0  0  0  0
  -27.9830  -22.4180   17.9910 C   0  0  0  0  0  3  0  0  0  0  0  0
  -28.8320  -24.5120   17.0470 C   0  0  0  0  0  0  0  0  0  0  0  0
  -29.2730  -21.8500   17.8970 C   0  0  0  0  0  0  0  0  0  0  0  0
  -30.9570  -14.8240   21.0680 C   0  0  0  0  0  0  0  0  0  0  0  0
  -30.8460  -12.5690   20.1270 C   0  0  0  0  0  2  0  0  0  0  0  0
  -30.0140  -12.5770   18.8240 C   0  0  0  0  0  2  0  0  0  0  0  0
  -28.5090  -12.4540   19.1120 C   0  0  0  0  0  2  0  0  0  0  0  0
  -28.0090  -13.3820   20.2540 C   0  0  0  0  0  3  0  0  0  0  0  0
  -28.9620  -13.3200   21.4680 C   0  0  0  0  0  2  0  0  0  0  0  0
  -30.3170  -13.6300   20.9860 N   0  0  0  0  0  0  0  0  0  0  0  0
  -32.1800  -14.9290   21.1470 O   0  0  0  0  0  0  0  0  0  0  0  0
  -31.7730  -15.9030   16.9530 C   0  0  0  0  0  3  0  0  0  0  0  0
  -31.5220  -15.5420   18.2870 C   0  0  0  0  0  3  0  0  0  0  0  0
  -30.3790  -17.8550   17.2530 C   0  0  0  0  0  3  0  0  0  0  0  0
  -30.1440  -17.5180   18.6110 C   0  0  0  0  0  0  0  0  0  0  0  0
  -31.1730  -17.0510   16.4200 C   0  0  0  0  0  0  0  0  0  0  0  0
  -30.6540  -16.2940   19.1300 C   0  0  0  0  0  0  0  0  0  0  0  0
  -28.5870  -17.6850   20.5510 C   0  0  0  0  0  2  0  0  0  0  0  0
  -30.4720  -19.3650   20.2650 C   0  0  0  0  0  2  0  0  0  0  0  0
  -29.4660  -16.7000   21.3360 C   0  0  0  0  0  2  0  0  0  0  0  0
  -30.7750  -20.4950   19.2870 C   0  0  0  0  0  2  0  0  0  0  0  0
  -28.5980  -19.5960   18.8400 C   0  0  0  0  0  2  0  0  0  0  0  0
  -29.4210  -18.4930   19.5510 C   0  0  1  0  0  0  0  0  0  0  0  0
  -30.3000  -15.8510   20.4720 N   0  0  0  0  0  0  0  0  0  0  0  0
  -29.5840  -20.6040   18.4560 N   0  0  0  0  0  0  0  0  0  0  0  0
  -25.5290  -13.9020   20.7060 C   0  0  0  0  0  0  0  0  0  0  0  0
  -24.4600  -13.0880   20.9720 C   0  0  0  0  0  0  0  0  0  0  0  0
  -24.9780  -11.7590   21.0230 C   0  0  0  0  0  0  0  0  0  0  0  0
  -26.6300  -13.0640   20.6130 N   0  0  0  0  0  0  0  0  0  0  0  0
  -26.2950  -11.7730   20.8670 N   0  0  0  0  0  0  0  0  0  0  0  0
  -24.2910  -10.4670   21.1550 C   0  0  0  0  0  0  0  0  0  0  0  0
  -24.6560   -9.5380   22.1540 C   0  0  0  0  0  3  0  0  0  0  0  0
  -23.9700   -8.3120   22.2750 C   0  0  0  0  0  3  0  0  0  0  0  0
  -22.9060   -8.0040   21.3960 C   0  0  0  0  0  0  0  0  0  0  0  0
  -22.5620   -8.9210   20.3870 C   0  0  0  0  0  3  0  0  0  0  0  0
  -23.2500  -10.1410   20.2650 C   0  0  0  0  0  3  0  0  0  0  0  0
  -22.1990   -6.8260   21.4230 O   0  0  0  0  0  0  0  0  0  0  0  0
  -21.9930   -6.1370   22.5920 C   0  0  0  0  0  0  0  0  0  0  0  0
  -21.3380   -6.7250   23.6960 C   0  0  0  0  0  3  0  0  0  0  0  0
  -21.0840   -5.9600   24.8520 C   0  0  0  0  0  3  0  0  0  0  0  0
  -21.4740   -4.6100   24.9040 C   0  0  0  0  0  0  0  0  0  0  0  0
  -22.1210   -4.0200   23.8030 C   0  0  0  0  0  3  0  0  0  0  0  0
  -22.3780   -4.7820   22.6500 C   0  0  0  0  0  0  0  0  0  0  0  0
  -22.9830   -4.2050   21.5840 F   0  0  0  0  0  0  0  0  0  0  0  0
  -21.2230   -3.8720   26.0110 F   0  0  0  0  0  0  0  0  0  0  0  0
  -23.0220  -13.5070   21.0740 C   0  0  0  0  0  0  0  0  0  0  0  0
  -22.2400  -12.8100   21.8910 N   0  0  0  0  0  0  0  0  0  0  0  0
  -22.5950  -14.4870   20.4670 O   0  0  0  0  0  0  0  0  0  0  0  0
  -22.5980  -12.0180   22.4050 H   0  0  0  0  0  0  0  0  0  0  0  0
  -21.2710  -13.0710   22.0020 H   0  0  0  0  0  0  0  0  0  0  0  0
  -25.6550  -15.2730   20.5170 N   0  0  0  0  0  0  0  0  0  0  0  0
  -24.8560  -15.8980   20.5300 H   0  0  0  0  0  0  0  0  0  0  0  0
  -26.5230  -15.7380   20.2890 H   0  0  0  0  0  0  0  0  0  0  0  0
  -32.3030  -18.6690   14.8300 C   0  0  0  0  0  1  0  0  0  0  0  0
  -31.3930  -17.4450   14.9700 C   0  0  0  0  0  2  0  0  0  0  0  0
  -28.6720  -25.9860   16.8420 C   0  0  0  0  0  0  0  0  0  0  0  0
  -29.7110  -26.6810   17.3130 N   0  0  0  0  0  0  0  0  0  0  0  0
  -27.6170  -26.4880   16.4500 O   0  0  0  0  0  0  0  0  0  0  0  0
  -30.5040  -26.1160   17.5800 H   0  0  0  0  0  0  0  0  0  0  0  0
  -29.6380  -27.9890   17.9440 C   0  0  0  0  0  2  0  0  0  0  0  0
  -29.7060  -27.7980   19.4750 C   0  0  0  0  0  2  0  0  0  0  0  0
  -28.5820  -27.0440   19.9440 O   0  0  0  0  0  0  0  0  0  0  0  0
  -24.6220  -31.9580   23.2530 C   0  0  0  0  0  0  0  0  0  0  0  0
  -27.3960  -27.7300   20.0410 C   0  0  0  0  0  0  0  0  0  0  0  0
  -23.4470  -30.5810   21.5600 C   0  0  0  0  0  3  0  0  0  0  0  0
  -24.9400  -29.1180   20.1020 C   0  0  0  0  0  0  0  0  0  0  0  0
  -25.9530  -31.0200   21.3740 C   0  0  0  0  0  2  0  0  0  0  0  0
  -26.0740  -29.6700   20.7080 C   0  0  0  0  0  0  0  0  0  0  0  0
  -27.2980  -28.9810   20.6890 C   0  0  0  0  0  3  0  0  0  0  0  0
  -26.2410  -27.1650   19.4620 C   0  0  0  0  0  3  0  0  0  0  0  0
  -25.0140  -27.8560   19.4820 C   0  0  0  0  0  3  0  0  0  0  0  0
  -23.6720  -29.9380   20.1640 C   0  0  0  0  0  2  0  0  0  0  0  0
  -24.6910  -31.1990   22.1230 N   0  0  0  0  0  0  0  0  0  0  0  0
  -23.5360  -32.1890   23.8000 O   0  0  0  0  0  0  0  0  0  0  0  0
  -22.8180  -29.5200   22.4910 C   0  0  0  0  0  0  0  0  0  0  0  0
  -21.5040  -29.2940   22.3360 N   0  0  0  0  0  0  0  0  0  0  0  0
  -23.5110  -28.9020   23.3040 O   0  0  0  0  0  0  0  0  0  0  0  0
  -21.0060  -29.8470   21.6520 H   0  0  0  0  0  0  0  0  0  0  0  0
  -18.1770  -27.9440   22.7020 C   0  0  0  0  0  0  0  0  0  0  0  0
  -20.7080  -28.3140   23.0710 C   0  0  0  0  0  3  0  0  0  0  0  0
  -20.8970  -26.8950   22.4860 C   0  0  0  0  0  2  0  0  0  0  0  0
  -19.8500  -26.5310   21.4300 C   0  0  0  0  0  2  0  0  0  0  0  0
  -18.4400  -26.6100   22.0240 C   0  0  0  0  0  2  0  0  0  0  0  0
  -19.2440  -28.7520   23.1800 C   0  0  0  0  0  0  0  0  0  0  0  0
  -18.9480  -30.0010   23.7680 C   0  0  0  0  0  3  0  0  0  0  0  0
  -17.6160  -30.4430   23.8860 C   0  0  0  0  0  3  0  0  0  0  0  0
  -16.5630  -29.6320   23.4270 C   0  0  0  0  0  3  0  0  0  0  0  0
  -16.8450  -28.3860   22.8410 C   0  0  0  0  0  3  0  0  0  0  0  0
  -25.8960  -32.5930   23.8950 C   0  0  0  0  0  3  0  0  0  0  0  0
  -26.3900  -31.8310   25.1870 C   0  0  1  0  0  0  0  0  0  0  0  0
  -25.2780  -31.5980   26.2340 C   0  0  0  0  0  1  0  0  0  0  0  0
  -26.9830  -30.4530   24.8110 C   0  0  0  0  0  1  0  0  0  0  0  0
  -27.5280  -32.6300   25.8640 C   0  0  0  0  0  1  0  0  0  0  0  0
  -25.5840  -33.9940   24.2030 N   0  0  0  0  0  0  0  0  0  0  0  0
  -25.9500  -35.0380   23.4450 C   0  0  0  0  0  0  0  0  0  0  0  0
  -26.6550  -34.9210   22.4390 O   0  0  0  0  0  0  0  0  0  0  0  0
  -24.9590  -34.1590   24.9790 H   0  0  0  0  0  0  0  0  0  0  0  0
  -24.2430  -36.8320   23.0090 C   0  0  0  0  0  1  0  0  0  0  0  0
  -25.4520  -36.4310   23.8700 C   0  0  0  0  0  3  0  0  0  0  0  0
  -27.5600  -37.3130   24.7680 C   0  0  0  0  0  1  0  0  0  0  0  0
  -26.4920  -37.4800   23.7860 N   0  0  0  0  0  0  0  0  0  0  0  0
  -26.0840  -38.4030   23.9100 H   0  0  0  0  0  0  0  0  0  0  0  0
  1  5  2  0
  1  3  1  0
  2  4  2  0
  3  6  2  0
  5  2  1  0
  6  4  1  0
  6 28  1  0
  7 14  2  0
  8 13  1  0
  9 10  1  0
  9  8  1  0
 11 10  1  0
 11 32  1  0
 11 12  1  0
 13  7  1  0
 13 12  1  0
 15 16  1  0
 16 20  2  0
 17 18  2  0
 18 20  1  0
 18 26  1  0
 19 15  2  0
 19 17  1  0
 20 27  1  0
 21 23  1  0
 24 22  1  0
 26 25  1  6
 26 22  1  0
 26 21  1  0
 27  7  1  0
 27 23  1  0
 28 25  1  0
 28 24  1  0
 29 30  2  0
 30 31  1  0
 30 49  1  0
 31 34  1  0
 32 29  1  0
 32 33  1  0
 33 31  2  0
 34 35  1  0
 35 36  2  0
 37 40  1  0
 37 36  1  0
 38 37  2  0
 39 38  1  0
 39 34  2  0
 40 41  1  0
 41 46  2  0
 41 42  1  0
 42 43  2  0
 43 44  1  0
 44 48  1  0
 45 44  2  0
 46 45  1  0
 47 46  1  0
 49 50  1  0
 50 53  1  0
 50 52  1  0
 51 49  2  0
 54 55  1  0
 54 29  1  0
 56 54  1  0
 57 58  1  0
 58 19  1  0
 59  5  1  0
 59 60  1  0
 60 62  1  0
 60 63  1  0
 61 59  2  0
 63 64  1  0
 64 65  1  0
 65 67  1  0
 66 77  2  0
 67 72  1  0
 68 76  1  0
 68 78  1  0
 69 75  1  0
 69 71  1  0
 70 76  1  0
 71 70  1  0
 72 71  2  0
 73 74  1  0
 73 67  2  0
 74 69  2  0
 75 68  1  0
 76 66  1  0
 78 80  2  0
 79 78  1  0
 81 79  1  0
 82 91  2  0
 82 87  1  0
 83 79  1  0
 83 87  1  0
 84 83  1  0
 85 86  1  0
 85 84  1  0
 86 82  1  0
 87 88  2  0
 88 89  1  0
 90 89  2  0
 91 90  1  0
 92 66  1  0
 92 97  1  0
 92 93  1  0
 93 96  1  1
 93 94  1  0
 95 93  1  0
 97100  1  0
 98102  1  0
 98 97  1  0
 99 98  2  0
102101  1  0
104102  1  0
104105  1  0
104103  1  0
M  ISO  4   7 100  27 100  64 101  65 101
M  END
>  <TORSDO>  (26) 
F 20

>  <SCORE>  (26) 
-12.660

>  <name>  (26) 
25

>  <ligand_id>  (26) 
25

>  <original_smiles>  (26) 
[H]c1c([H])c([H])c2c(c1[H])C([H])([H])C([H])([H])C([H])([H])C2([H])N([H])C(=O)C1([H])N(C(=O)C([H])(N([H])C(=O)C([H])(N([H])C([H])([H])[H])C([H])([H])[H])C(C([H])([H])[H])(C([H])([H])[H])C([H])([H])[H])C([H])([H])c2c([H])c(OC([H])([H])C([H])([H])N([H])C(=O)c3c([H])c([H])c(N4C([H])([H])C([H])([H])C5(c6c([H])c(C([H])([H])C([H])([H])[H])c([H])c([H])c6N(C(=O)N6C([H])([H])C([H])([H])C([H])([H])C([H])(n7nc(-c8c([H])c([H])c(Oc9c([H])c([H])c(F)c([H])c9F)c([H])c8[H])c(C(=O)N([H])[H])c7N([H])[H])C6([H])[H])C([H])([H])C5([H])[H])C4([H])[H])c([H])c3[H])c([H])c([H])c2C1([H])[H]

>  <smiles>  (26) 
[H]c1c([H])c([H])c2c(c1[H])C([H])([H])C([H])([H])C([H])([H])C2([H])N([H])C(=O)C1([H])N(C(=O)C([H])(N([H])C(=O)C([H])(N([H])C([H])([H])[H])C([H])([H])[H])C(C([H])([H])[H])(C([H])([H])[H])C([H])([H])[H])C([H])([H])c2c([H])c(OC([H])([H])C([H])([H])N([H])C(=O)c3c([H])c([H])c(N4C([H])([H])C([H])([H])C5(c6c([H])c(C([H])([H])C([H])([H])[H])c([H])c([H])c6N(C(=O)N6C([H])([H])C([H])([H])C([H])([H])C([H])(n7nc(-c8c([H])c([H])c(Oc9c([H])c([H])c(F)c([H])c9F)c([H])c8[H])c(C(=O)N([H])[H])c7N([H])[H])C6([H])[H])C([H])([H])C5([H])[H])C4([H])[H])c([H])c3[H])c([H])c([H])c2C1([H])[H]

$$$$
26:0:0
     RDKit          3D

 95104  0  0  1  0  0  0  0  0999 V2000
  -28.4070  -20.7410   18.7700 C   0  0  0  0  0  2  0  0  0  0  0  0
  -31.1520  -18.4480   20.1410 C   0  0  0  0  0  3  0  0  0  0  0  0
  -29.0580  -17.2040   20.1320 C   0  0  0  0  0  3  0  0  0  0  0  0
  -30.4920  -19.5740   19.6170 C   0  0  0  0  0  3  0  0  0  0  0  0
  -28.3920  -18.3360   19.6170 C   0  0  0  0  0  3  0  0  0  0  0  0
  -30.4460  -17.2540   20.3900 C   0  0  0  0  0  0  0  0  0  0  0  0
  -29.1070  -19.5240   19.3510 C   0  0  0  0  0  0  0  0  0  0  0  0
  -30.6870  -14.1680   19.4750 C   0  0  0  0  0  0  0  0  0  0  0  0
  -29.9300  -12.3050   18.0330 C   0  0  0  0  0  2  0  0  0  0  0  0
  -28.8220  -12.7070   17.0450 C   0  0  0  0  0  2  0  0  0  0  0  0
  -27.4370  -12.5550   17.6970 C   0  0  0  0  0  2  0  0  0  0  0  0
  -27.3630  -13.2650   19.0690 C   0  0  0  0  0  3  0  0  0  0  0  0
  -28.5580  -12.8890   19.9620 C   0  0  0  0  0  2  0  0  0  0  0  0
  -29.8240  -13.1390   19.2440 N   0  0  0  0  0  0  0  0  0  0  0  0
  -31.4760  -14.5680   18.6080 O   0  0  0  0  0  0  0  0  0  0  0  0
  -31.6360  -14.7630   22.9230 C   0  0  0  0  0  2  0  0  0  0  0  0
  -31.3420  -16.1840   22.4910 C   0  0  0  0  0  2  0  0  0  0  0  0
  -30.8160  -13.9230   21.9430 C   0  0  0  0  0  2  0  0  0  0  0  0
  -31.2120  -16.0690   20.9710 C   0  0  0  0  0  3  0  0  0  0  0  0
  -30.6590  -14.7270   20.7140 N   0  0  0  0  0  0  0  0  0  0  0  0
  -25.1260  -13.8880   20.1860 C   0  0  0  0  0  0  0  0  0  0  0  0
  -24.1150  -13.1200   20.6970 C   0  0  0  0  0  0  0  0  0  0  0  0
  -24.5310  -11.7630   20.5420 C   0  0  0  0  0  0  0  0  0  0  0  0
  -26.0950  -12.9980   19.7490 N   0  0  0  0  0  0  0  0  0  0  0  0
  -25.7510  -11.7120   20.0200 N   0  0  0  0  0  0  0  0  0  0  0  0
  -23.8140  -10.5060   20.7970 C   0  0  0  0  0  0  0  0  0  0  0  0
  -24.3310   -9.5240   21.6710 C   0  0  0  0  0  3  0  0  0  0  0  0
  -23.6130   -8.3320   21.9130 C   0  0  0  0  0  3  0  0  0  0  0  0
  -22.3640   -8.1150   21.2830 C   0  0  0  0  0  0  0  0  0  0  0  0
  -21.8660   -9.0870   20.3980 C   0  0  0  0  0  3  0  0  0  0  0  0
  -22.5840  -10.2690   20.1520 C   0  0  0  0  0  3  0  0  0  0  0  0
  -21.6090   -6.9780   21.4390 O   0  0  0  0  0  0  0  0  0  0  0  0
  -21.6340   -6.2510   22.6020 C   0  0  0  0  0  0  0  0  0  0  0  0
  -21.3090   -6.8270   23.8500 C   0  0  0  0  0  3  0  0  0  0  0  0
  -21.2810   -6.0270   25.0090 C   0  0  0  0  0  3  0  0  0  0  0  0
  -21.5700   -4.6520   24.9240 C   0  0  0  0  0  0  0  0  0  0  0  0
  -21.8870   -4.0750   23.6820 C   0  0  0  0  0  3  0  0  0  0  0  0
  -21.9170   -4.8730   22.5240 C   0  0  0  0  0  0  0  0  0  0  0  0
  -22.2030   -4.3080   21.3260 F   0  0  0  0  0  0  0  0  0  0  0  0
  -21.5350   -3.8810   26.0360 F   0  0  0  0  0  0  0  0  0  0  0  0
  -22.7910  -13.6100   21.2130 C   0  0  0  0  0  0  0  0  0  0  0  0
  -22.2090  -12.9010   22.1740 N   0  0  0  0  0  0  0  0  0  0  0  0
  -22.2880  -14.6530   20.7970 O   0  0  0  0  0  0  0  0  0  0  0  0
  -22.6290  -12.0550   22.5300 H   0  0  0  0  0  0  0  0  0  0  0  0
  -21.3290  -13.2090   22.5640 H   0  0  0  0  0  0  0  0  0  0  0  0
  -25.2990  -15.2600   20.0370 N   0  0  0  0  0  0  0  0  0  0  0  0
  -24.5870  -15.9350   20.2990 H   0  0  0  0  0  0  0  0  0  0  0  0
  -26.1000  -15.6850   19.5900 H   0  0  0  0  0  0  0  0  0  0  0  0
  -28.4750  -21.8770   19.7070 N   0  0  0  0  0  4  0  0  0  0  0  0
  -29.3470  -21.8010   20.2070 H   0  0  0  0  0  0  0  0  0  0  0  0
  -27.7330  -21.7780   20.3790 H   0  0  0  0  0  0  0  0  0  0  0  0
  -28.4190  -23.2030   19.0550 C   0  0  0  0  0  2  0  0  0  0  0  0
  -28.4020  -24.3530   20.0770 C   0  0  0  0  0  2  0  0  0  0  0  0
  -28.8010  -25.6900   19.4380 C   0  0  0  0  0  2  0  0  0  0  0  0
  -28.5640  -26.7780   20.3270 O   0  0  0  0  0  0  0  0  0  0  0  0
  -24.5880  -31.8940   23.2080 C   0  0  0  0  0  0  0  0  0  0  0  0
  -27.3450  -27.4190   20.2960 C   0  0  0  0  0  0  0  0  0  0  0  0
  -23.4230  -30.4290   21.5910 C   0  0  0  0  0  3  0  0  0  0  0  0
  -24.9180  -28.8670   20.2430 C   0  0  0  0  0  0  0  0  0  0  0  0
  -25.9460  -30.8170   21.4240 C   0  0  0  0  0  2  0  0  0  0  0  0
  -26.0570  -29.4300   20.8300 C   0  0  0  0  0  0  0  0  0  0  0  0
  -27.2680  -28.7100   20.8610 C   0  0  0  0  0  3  0  0  0  0  0  0
  -26.1790  -26.8580   19.7210 C   0  0  0  0  0  3  0  0  0  0  0  0
  -24.9710  -27.5750   19.6950 C   0  0  0  0  0  3  0  0  0  0  0  0
  -23.6630  -29.7090   20.2370 C   0  0  0  0  0  2  0  0  0  0  0  0
  -24.6680  -31.0620   22.1320 N   0  0  0  0  0  0  0  0  0  0  0  0
  -23.4960  -32.1710   23.7210 O   0  0  0  0  0  0  0  0  0  0  0  0
  -22.7710  -29.4270   22.5700 C   0  0  0  0  0  0  0  0  0  0  0  0
  -21.4480  -29.2360   22.4360 N   0  0  0  0  0  0  0  0  0  0  0  0
  -23.4500  -28.8250   23.4060 O   0  0  0  0  0  0  0  0  0  0  0  0
  -20.9630  -29.7700   21.7270 H   0  0  0  0  0  0  0  0  0  0  0  0
  -18.0700  -28.0650   22.9480 C   0  0  0  0  0  0  0  0  0  0  0  0
  -20.6270  -28.3180   23.2240 C   0  0  0  0  0  3  0  0  0  0  0  0
  -20.7280  -26.8750   22.6760 C   0  0  0  0  0  2  0  0  0  0  0  0
  -19.6270  -26.5360   21.6670 C   0  0  0  0  0  2  0  0  0  0  0  0
  -18.2430  -26.7000   22.3030 C   0  0  0  0  0  2  0  0  0  0  0  0
  -19.1900  -28.8310   23.3670 C   0  0  0  0  0  0  0  0  0  0  0  0
  -18.9750  -30.1090   23.9290 C   0  0  0  0  0  3  0  0  0  0  0  0
  -17.6720  -30.6210   24.0730 C   0  0  0  0  0  3  0  0  0  0  0  0
  -16.5660  -29.8510   23.6740 C   0  0  0  0  0  3  0  0  0  0  0  0
  -16.7660  -28.5740   23.1190 C   0  0  0  0  0  3  0  0  0  0  0  0
  -25.8560  -32.5590   23.8250 C   0  0  0  0  0  3  0  0  0  0  0  0
  -25.5090  -33.9470   24.1570 N   0  0  0  0  0  0  0  0  0  0  0  0
  -25.8080  -35.0090   23.3980 C   0  0  0  0  0  0  0  0  0  0  0  0
  -26.4770  -34.9260   22.3640 O   0  0  0  0  0  0  0  0  0  0  0  0
  -24.9140  -34.0860   24.9610 H   0  0  0  0  0  0  0  0  0  0  0  0
  -24.0270  -36.7470   23.0510 C   0  0  0  0  0  1  0  0  0  0  0  0
  -25.2820  -36.3810   23.8590 C   0  0  0  0  0  3  0  0  0  0  0  0
  -27.3940  -37.3210   24.6830 C   0  0  0  0  0  1  0  0  0  0  0  0
  -26.2800  -37.4650   23.7470 N   0  0  0  0  0  0  0  0  0  0  0  0
  -25.8490  -38.3710   23.9030 H   0  0  0  0  0  0  0  0  0  0  0  0
  -26.4040  -31.7970   25.0940 C   0  0  1  0  0  0  0  0  0  0  0  0
  -25.3210  -31.5070   26.1590 C   0  0  0  0  0  1  0  0  0  0  0  0
  -27.0370  -30.4450   24.6890 C   0  0  0  0  0  1  0  0  0  0  0  0
  -27.5270  -32.6290   25.7580 C   0  0  0  0  0  1  0  0  0  0  0  0
  1  7  1  0
  1 49  1  0
  2  6  1  0
  3  6  2  0
  4  2  2  0
  5  3  1  0
  7  5  2  0
  7  4  1  0
  8 20  1  0
  9 14  1  0
 10 11  1  0
 10  9  1  0
 12 11  1  0
 12 24  1  0
 12 13  1  0
 14  8  1  0
 14 13  1  0
 15  8  2  0
 17 16  1  0
 18 16  1  0
 19  6  1  0
 19 17  1  0
 20 19  1  0
 20 18  1  0
 21 22  2  0
 22 41  1  0
 23 22  1  0
 23 26  1  0
 24 25  1  0
 24 21  1  0
 25 23  2  0
 26 27  1  0
 27 28  2  0
 29 32  1  0
 29 28  1  0
 30 29  2  0
 31 30  1  0
 31 26  2  0
 32 33  1  0
 33 34  1  0
 34 35  2  0
 36 35  1  0
 36 40  1  0
 37 36  2  0
 38 33  2  0
 38 37  1  0
 39 38  1  0
 41 42  1  0
 42 44  1  0
 42 45  1  0
 43 41  2  0
 46 21  1  0
 46 47  1  0
 48 46  1  0
 49 50  1  0
 49 51  1  0
 52 49  1  0
 52 53  1  0
 54 53  1  0
 54 55  1  0
 56 67  2  0
 57 55  1  0
 57 62  1  0
 58 66  1  0
 58 68  1  0
 59 61  1  0
 60 66  1  0
 61 62  2  0
 61 60  1  0
 63 57  2  0
 64 63  1  0
 64 59  2  0
 65 59  1  0
 65 58  1  0
 66 56  1  0
 68 70  2  0
 69 68  1  0
 71 69  1  0
 72 81  2  0
 72 77  1  0
 73 69  1  0
 73 77  1  0
 74 73  1  0
 75 76  1  0
 75 74  1  0
 76 72  1  0
 77 78  2  0
 78 79  1  0
 80 79  2  0
 81 80  1  0
 82 56  1  0
 82 83  1  0
 82 92  1  0
 83 86  1  0
 84 88  1  0
 84 83  1  0
 85 84  2  0
 88 87  1  0
 90 88  1  0
 90 91  1  0
 90 89  1  0
 92 95  1  1
 92 93  1  0
 94 92  1  0
M  ISO  4   8 100  20 100  54 101  55 101
M  END
>  <TORSDO>  (27) 
F 21

>  <SCORE>  (27) 
-8.925

>  <name>  (27) 
26

>  <ligand_id>  (27) 
26

>  <original_smiles>  (27) 
[H]c1c([H])c([H])c2c(c1[H])C([H])([H])C([H])([H])C([H])([H])C2([H])N([H])C(=O)C1([H])N(C(=O)C([H])(N([H])C(=O)C([H])(N([H])C([H])([H])[H])C([H])([H])[H])C(C([H])([H])[H])(C([H])([H])[H])C([H])([H])[H])C([H])([H])c2c([H])c(OC([H])([H])C([H])([H])C([H])([H])[N+]([H])([H])C([H])([H])c3c([H])c([H])c(C4([H])N(C(=O)N5C([H])([H])C([H])([H])C([H])([H])C([H])(n6nc(-c7c([H])c([H])c(Oc8c([H])c([H])c(F)c([H])c8F)c([H])c7[H])c(C(=O)N([H])[H])c6N([H])[H])C5([H])[H])C([H])([H])C([H])([H])C4([H])[H])c([H])c3[H])c([H])c([H])c2C1([H])[H]

>  <smiles>  (27) 
[H]c1c([H])c([H])c2c(c1[H])C([H])([H])C([H])([H])C([H])([H])C2([H])N([H])C(=O)C1([H])N(C(=O)C([H])(N([H])C(=O)C([H])(N([H])C([H])([H])[H])C([H])([H])[H])C(C([H])([H])[H])(C([H])([H])[H])C([H])([H])[H])C([H])([H])c2c([H])c(OC([H])([H])C([H])([H])C([H])([H])[N+]([H])([H])C([H])([H])c3c([H])c([H])c(C4([H])N(C(=O)N5C([H])([H])C([H])([H])C([H])([H])C([H])(n6nc(-c7c([H])c([H])c(Oc8c([H])c([H])c(F)c([H])c8F)c([H])c7[H])c(C(=O)N([H])[H])c6N([H])[H])C5([H])[H])C([H])([H])C([H])([H])C4([H])[H])c([H])c3[H])c([H])c([H])c2C1([H])[H]

$$$$
27:0:0
     RDKit          3D

 86 93  0  0  1  0  0  0  0  0999 V2000
  -28.6160  -23.7090   19.9200 C   0  0  0  0  0  3  0  0  0  0  0  0
  -28.1400  -25.0340   20.7160 C   0  0  0  0  0  3  0  0  0  0  0  0
  -28.3120  -26.4220   20.1740 O   0  0  0  0  0  0  0  0  0  0  0  0
  -24.6240  -31.8730   23.2250 C   0  0  0  0  0  0  0  0  0  0  0  0
  -27.2050  -27.2890   20.1690 C   0  0  0  0  0  0  0  0  0  0  0  0
  -23.4070  -30.4730   21.5980 C   0  0  0  0  0  3  0  0  0  0  0  0
  -24.8460  -28.9150   20.1630 C   0  0  0  0  0  0  0  0  0  0  0  0
  -25.9460  -30.7890   21.3890 C   0  0  0  0  0  2  0  0  0  0  0  0
  -26.0220  -29.4070   20.7440 C   0  0  0  0  0  0  0  0  0  0  0  0
  -27.2080  -28.6090   20.7290 C   0  0  0  0  0  3  0  0  0  0  0  0
  -26.0090  -26.8530   19.5650 C   0  0  0  0  0  3  0  0  0  0  0  0
  -24.8430  -27.6450   19.5610 C   0  0  0  0  0  3  0  0  0  0  0  0
  -23.6100  -29.7920   20.2180 C   0  0  0  0  0  2  0  0  0  0  0  0
  -24.6790  -31.0630   22.1270 N   0  0  0  0  0  0  0  0  0  0  0  0
  -23.5450  -32.1520   23.7680 O   0  0  0  0  0  0  0  0  0  0  0  0
  -22.7530  -29.4580   22.5660 C   0  0  0  0  0  0  0  0  0  0  0  0
  -21.4260  -29.2790   22.4490 N   0  0  0  0  0  0  0  0  0  0  0  0
  -23.4380  -28.8340   23.3810 O   0  0  0  0  0  0  0  0  0  0  0  0
  -20.9300  -29.8330   21.7640 H   0  0  0  0  0  0  0  0  0  0  0  0
  -18.0560  -28.0690   22.9680 C   0  0  0  0  0  0  0  0  0  0  0  0
  -20.6140  -28.3430   23.2290 C   0  0  0  0  0  3  0  0  0  0  0  0
  -20.7210  -26.9080   22.6640 C   0  0  0  0  0  2  0  0  0  0  0  0
  -19.6190  -26.5750   21.6530 C   0  0  0  0  0  2  0  0  0  0  0  0
  -18.2390  -26.7160   22.3010 C   0  0  0  0  0  2  0  0  0  0  0  0
  -19.1720  -28.8390   23.3900 C   0  0  0  0  0  0  0  0  0  0  0  0
  -18.9480  -30.1050   23.9740 C   0  0  0  0  0  3  0  0  0  0  0  0
  -17.6410  -30.6000   24.1420 C   0  0  0  0  0  3  0  0  0  0  0  0
  -16.5400  -29.8270   23.7350 C   0  0  0  0  0  3  0  0  0  0  0  0
  -16.7490  -28.5640   23.1530 C   0  0  0  0  0  3  0  0  0  0  0  0
  -25.9120  -32.5080   23.8350 C   0  0  0  0  0  3  0  0  0  0  0  0
  -25.6000  -33.9040   24.1770 N   0  0  0  0  0  0  0  0  0  0  0  0
  -25.9170  -34.9630   23.4210 C   0  0  0  0  0  0  0  0  0  0  0  0
  -26.5730  -34.8690   22.3800 O   0  0  0  0  0  0  0  0  0  0  0  0
  -25.0150  -34.0520   24.9860 H   0  0  0  0  0  0  0  0  0  0  0  0
  -24.1750  -36.7510   23.1080 C   0  0  0  0  0  1  0  0  0  0  0  0
  -25.4330  -36.3470   23.8940 C   0  0  0  0  0  3  0  0  0  0  0  0
  -27.5790  -37.2360   24.6880 C   0  0  0  0  0  1  0  0  0  0  0  0
  -26.4580  -37.4060   23.7680 N   0  0  0  0  0  0  0  0  0  0  0  0
  -26.0510  -38.3230   23.9290 H   0  0  0  0  0  0  0  0  0  0  0  0
  -26.4440  -31.7340   25.1030 C   0  0  1  0  0  0  0  0  0  0  0  0
  -25.3640  -31.4920   26.1840 C   0  0  0  0  0  1  0  0  0  0  0  0
  -27.0240  -30.3570   24.7000 C   0  0  0  0  0  1  0  0  0  0  0  0
  -27.6010  -32.5270   25.7550 C   0  0  0  0  0  1  0  0  0  0  0  0
  -28.7920  -22.4200   20.6550 O   0  0  0  0  0  0  0  0  0  0  0  0
  -28.9210  -21.1650   19.8700 C   0  0  0  0  0  2  0  0  0  0  0  0
  -29.4790  -18.5500   20.1790 C   0  0  0  0  0  3  0  0  0  0  0  0
  -29.5750  -19.8850   20.5460 C   0  0  0  0  0  3  0  0  0  0  0  0
  -30.2930  -17.3150   20.7600 C   0  0  0  0  0  2  0  0  0  0  0  0
  -30.5670  -14.7330   20.3830 C   0  0  0  0  0  0  0  0  0  0  0  0
  -30.3500  -12.4660   19.3600 C   0  0  0  0  0  2  0  0  0  0  0  0
  -29.4020  -12.5410   18.1420 C   0  0  0  0  0  2  0  0  0  0  0  0
  -27.9380  -12.3630   18.5880 C   0  0  0  0  0  2  0  0  0  0  0  0
  -27.5710  -13.2560   19.8050 C   0  0  0  0  0  3  0  0  0  0  0  0
  -28.6370  -13.1720   20.9180 C   0  0  0  0  0  2  0  0  0  0  0  0
  -29.9280  -13.5180   20.3120 N   0  0  0  0  0  0  0  0  0  0  0  0
  -31.7550  -14.8240   20.0640 O   0  0  0  0  0  0  0  0  0  0  0  0
  -29.8140  -15.8720   20.6180 N   0  0  0  0  0  0  0  0  0  0  0  0
  -28.8340  -15.7090   20.7980 H   0  0  0  0  0  0  0  0  0  0  0  0
  -25.1900  -13.8490   20.5560 C   0  0  0  0  0  0  0  0  0  0  0  0
  -24.1270  -13.0750   20.9340 C   0  0  0  0  0  0  0  0  0  0  0  0
  -24.5900  -11.7240   20.8980 C   0  0  0  0  0  0  0  0  0  0  0  0
  -26.2310  -12.9690   20.3080 N   0  0  0  0  0  0  0  0  0  0  0  0
  -25.8770  -11.6860   20.5770 N   0  0  0  0  0  0  0  0  0  0  0  0
  -23.8650  -10.4620   21.0920 C   0  0  0  0  0  0  0  0  0  0  0  0
  -24.3200   -9.4790   21.9980 C   0  0  0  0  0  3  0  0  0  0  0  0
  -23.5940   -8.2830   22.1810 C   0  0  0  0  0  3  0  0  0  0  0  0
  -22.3990   -8.0590   21.4570 C   0  0  0  0  0  0  0  0  0  0  0  0
  -21.9620   -9.0310   20.5390 C   0  0  0  0  0  3  0  0  0  0  0  0
  -22.6890  -10.2190   20.3540 C   0  0  0  0  0  3  0  0  0  0  0  0
  -21.6420   -6.9160   21.5510 O   0  0  0  0  0  0  0  0  0  0  0  0
  -21.6440   -6.1430   22.6840 C   0  0  0  0  0  0  0  0  0  0  0  0
  -21.2960   -6.6710   23.9480 C   0  0  0  0  0  3  0  0  0  0  0  0
  -21.2430   -5.8250   25.0730 C   0  0  0  0  0  3  0  0  0  0  0  0
  -21.5270   -4.4530   24.9370 C   0  0  0  0  0  0  0  0  0  0  0  0
  -21.8680   -3.9250   23.6810 C   0  0  0  0  0  3  0  0  0  0  0  0
  -21.9230   -4.7680   22.5560 C   0  0  0  0  0  0  0  0  0  0  0  0
  -22.2300   -4.2490   21.3430 F   0  0  0  0  0  0  0  0  0  0  0  0
  -21.4690   -3.6390   26.0180 F   0  0  0  0  0  0  0  0  0  0  0  0
  -22.7330  -13.5530   21.2160 C   0  0  0  0  0  0  0  0  0  0  0  0
  -22.0120  -12.8590   22.0890 N   0  0  0  0  0  0  0  0  0  0  0  0
  -22.2920  -14.5770   20.6980 O   0  0  0  0  0  0  0  0  0  0  0  0
  -22.3820  -12.0300   22.5320 H   0  0  0  0  0  0  0  0  0  0  0  0
  -21.0750  -13.1600   22.3180 H   0  0  0  0  0  0  0  0  0  0  0  0
  -25.3540  -15.2190   20.3760 N   0  0  0  0  0  0  0  0  0  0  0  0
  -24.5900  -15.8750   20.4990 H   0  0  0  0  0  0  0  0  0  0  0  0
  -26.1930  -15.6580   20.0200 H   0  0  0  0  0  0  0  0  0  0  0  0
  1 44  1  0
  1  2  2  0
  3  2  1  0
  4 15  2  0
  5  3  1  0
  5 10  1  0
  6 14  1  0
  6 16  1  0
  7 13  1  0
  7  9  1  0
  8 14  1  0
  9  8  1  0
 10  9  2  0
 11  5  2  0
 12 11  1  0
 12  7  2  0
 13  6  1  0
 14  4  1  0
 16 18  2  0
 17 16  1  0
 19 17  1  0
 20 29  2  0
 20 25  1  0
 21 17  1  0
 21 25  1  0
 22 21  1  0
 23 24  1  0
 23 22  1  0
 24 20  1  0
 25 26  2  0
 26 27  1  0
 28 27  2  0
 29 28  1  0
 30  4  1  0
 30 31  1  0
 30 40  1  0
 31 34  1  0
 32 36  1  0
 32 31  1  0
 33 32  2  0
 36 35  1  0
 38 36  1  0
 38 39  1  0
 38 37  1  0
 40 43  1  1
 40 41  1  0
 42 40  1  0
 45 47  1  0
 45 44  1  0
 46 47  2  0
 46 48  1  0
 49 57  1  0
 50 55  1  0
 51 52  1  0
 51 50  1  0
 53 52  1  0
 53 62  1  0
 53 54  1  0
 55 49  1  0
 55 54  1  0
 56 49  2  0
 57 48  1  0
 57 58  1  0
 59 60  2  0
 60 79  1  0
 61 60  1  0
 61 64  1  0
 62 59  1  0
 62 63  1  0
 63 61  2  0
 64 65  1  0
 65 66  2  0
 67 70  1  0
 67 66  1  0
 68 67  2  0
 69 68  1  0
 69 64  2  0
 70 71  1  0
 71 72  1  0
 72 73  2  0
 74 73  1  0
 74 78  1  0
 75 74  2  0
 76 71  2  0
 76 75  1  0
 77 76  1  0
 79 80  1  0
 80 83  1  0
 80 82  1  0
 81 79  2  0
 84 85  1  0
 84 59  1  0
 86 84  1  0
M  ISO  4   2 101   3 101  49 100  57 100
M  END
>  <TORSDO>  (28) 
F 21

>  <SCORE>  (28) 
-13.161

>  <name>  (28) 
27

>  <ligand_id>  (28) 
27

>  <original_smiles>  (28) 
[H]C(=C([H])C([H])([H])N([H])C(=O)N1C([H])([H])C([H])([H])C([H])([H])C([H])(n2nc(-c3c([H])c([H])c(Oc4c([H])c([H])c(F)c([H])c4F)c([H])c3[H])c(C(=O)N([H])[H])c2N([H])[H])C1([H])[H])C([H])([H])OC([H])([H])C([H])([H])Oc1c([H])c([H])c2c(c1[H])C([H])([H])N(C(=O)C([H])(N([H])C(=O)C([H])(N([H])C([H])([H])[H])C([H])([H])[H])C(C([H])([H])[H])(C([H])([H])[H])C([H])([H])[H])C([H])(C(=O)N([H])C1([H])c3c([H])c([H])c([H])c([H])c3C([H])([H])C([H])([H])C1([H])[H])C2([H])[H]

>  <smiles>  (28) 
[H]C(=C([H])C([H])([H])N([H])C(=O)N1C([H])([H])C([H])([H])C([H])([H])C([H])(n2nc(-c3c([H])c([H])c(Oc4c([H])c([H])c(F)c([H])c4F)c([H])c3[H])c(C(=O)N([H])[H])c2N([H])[H])C1([H])[H])C([H])([H])OC([H])([H])C([H])([H])Oc1c([H])c([H])c2c(c1[H])C([H])([H])N(C(=O)C([H])(N([H])C(=O)C([H])(N([H])C([H])([H])[H])C([H])([H])[H])C(C([H])([H])[H])(C([H])([H])[H])C([H])([H])[H])C([H])(C(=O)N([H])C1([H])c3c([H])c([H])c([H])c([H])c3C([H])([H])C([H])([H])C1([H])[H])C2([H])[H]

$$$$
28:0:0
     RDKit          3D

 95104  0  0  1  0  0  0  0  0999 V2000
  -29.2620  -21.9550   19.9950 C   0  0  0  0  0  2  0  0  0  0  0  0
  -31.2790  -21.8160   21.4360 C   0  0  0  0  0  2  0  0  0  0  0  0
  -29.4920  -23.4790   19.8200 C   0  0  0  0  0  2  0  0  0  0  0  0
  -31.5130  -23.3280   21.2440 C   0  0  0  0  0  2  0  0  0  0  0  0
  -30.5980  -21.2170   20.2000 C   0  0  0  0  0  3  0  0  0  0  0  0
  -30.2630  -24.0880   20.9450 N   0  0  1  0  0  4  0  0  0  0  0  0
  -29.6880  -24.0190   21.7730 H   0  0  0  0  0  0  0  0  0  0  0  0
  -31.3540  -18.9080   19.4600 C   0  0  0  0  0  3  0  0  0  0  0  0
  -31.3020  -17.5010   19.4990 C   0  0  0  0  0  3  0  0  0  0  0  0
  -29.5720  -19.0280   21.1000 C   0  0  0  0  0  3  0  0  0  0  0  0
  -30.4920  -19.6900   20.2560 C   0  0  0  0  0  0  0  0  0  0  0  0
  -30.3840  -16.8300   20.3440 C   0  0  0  0  0  0  0  0  0  0  0  0
  -29.5160  -17.6160   21.1420 C   0  0  0  0  0  0  0  0  0  0  0  0
  -28.3610  -16.8520   22.1780 Cl  0  0  0  0  0  0  0  0  0  0  0  0
  -30.8550  -14.4440   19.6870 C   0  0  0  0  0  0  0  0  0  0  0  0
  -30.4140  -12.3390   18.4860 C   0  0  0  0  0  2  0  0  0  0  0  0
  -29.3390  -12.6070   17.4120 C   0  0  0  0  0  2  0  0  0  0  0  0
  -27.9250  -12.4440   18.0060 C   0  0  0  0  0  2  0  0  0  0  0  0
  -27.7430  -13.2190   19.3380 C   0  0  0  0  0  3  0  0  0  0  0  0
  -28.9200  -12.9420   20.3020 C   0  0  0  0  0  2  0  0  0  0  0  0
  -30.1730  -13.2700   19.6000 N   0  0  0  0  0  0  0  0  0  0  0  0
  -31.9080  -14.6390   19.0760 O   0  0  0  0  0  0  0  0  0  0  0  0
  -30.2490  -15.4030   20.4120 N   0  0  0  0  0  0  0  0  0  0  0  0
  -29.4750  -15.0850   20.9750 H   0  0  0  0  0  0  0  0  0  0  0  0
  -25.4460  -13.7840   20.3540 C   0  0  0  0  0  0  0  0  0  0  0  0
  -24.4270  -12.9910   20.8080 C   0  0  0  0  0  0  0  0  0  0  0  0
  -24.8770  -11.6440   20.6570 C   0  0  0  0  0  0  0  0  0  0  0  0
  -26.4550  -12.9180   19.9590 N   0  0  0  0  0  0  0  0  0  0  0  0
  -26.1210  -11.6230   20.1960 N   0  0  0  0  0  0  0  0  0  0  0  0
  -24.1750  -10.3710   20.8700 C   0  0  0  0  0  0  0  0  0  0  0  0
  -24.6480   -9.4130   21.7930 C   0  0  0  0  0  3  0  0  0  0  0  0
  -23.9460   -8.2040   21.9930 C   0  0  0  0  0  3  0  0  0  0  0  0
  -22.7570   -7.9470   21.2710 C   0  0  0  0  0  0  0  0  0  0  0  0
  -22.3030   -8.8940   20.3370 C   0  0  0  0  0  3  0  0  0  0  0  0
  -23.0060  -10.0940   20.1340 C   0  0  0  0  0  3  0  0  0  0  0  0
  -22.0230   -6.7900   21.3810 O   0  0  0  0  0  0  0  0  0  0  0  0
  -21.9210   -6.1130   22.5700 C   0  0  0  0  0  0  0  0  0  0  0  0
  -21.4200   -6.7280   23.7380 C   0  0  0  0  0  3  0  0  0  0  0  0
  -21.2680   -5.9750   24.9200 C   0  0  0  0  0  3  0  0  0  0  0  0
  -21.6060   -4.6080   24.9330 C   0  0  0  0  0  0  0  0  0  0  0  0
  -22.1010   -3.9940   23.7690 C   0  0  0  0  0  3  0  0  0  0  0  0
  -22.2550   -4.7430   22.5910 C   0  0  0  0  0  0  0  0  0  0  0  0
  -22.7120   -4.1410   21.4660 F   0  0  0  0  0  0  0  0  0  0  0  0
  -21.4540   -3.8830   26.0650 F   0  0  0  0  0  0  0  0  0  0  0  0
  -23.0740  -13.4500   21.2700 C   0  0  0  0  0  0  0  0  0  0  0  0
  -22.4680  -12.7270   22.2060 N   0  0  0  0  0  0  0  0  0  0  0  0
  -22.5670  -14.4830   20.8370 O   0  0  0  0  0  0  0  0  0  0  0  0
  -22.8940  -11.8910   22.5770 H   0  0  0  0  0  0  0  0  0  0  0  0
  -21.5660  -13.0150   22.5570 H   0  0  0  0  0  0  0  0  0  0  0  0
  -25.5920  -15.1610   20.2240 N   0  0  0  0  0  0  0  0  0  0  0  0
  -24.8510  -15.8090   20.4670 H   0  0  0  0  0  0  0  0  0  0  0  0
  -26.4130  -15.6210   19.8500 H   0  0  0  0  0  0  0  0  0  0  0  0
  -30.5620  -25.5390   20.7320 C   0  0  0  0  0  2  0  0  0  0  0  0
  -29.3650  -26.5010   20.9070 C   0  0  0  0  0  2  0  0  0  0  0  0
  -28.6090  -26.6020   19.7010 O   0  0  0  0  0  0  0  0  0  0  0  0
  -24.6160  -31.5850   22.9400 C   0  0  0  0  0  0  0  0  0  0  0  0
  -27.4530  -27.3500   19.7590 C   0  0  0  0  0  0  0  0  0  0  0  0
  -23.4800  -30.2170   21.2170 C   0  0  0  0  0  3  0  0  0  0  0  0
  -25.0080  -28.7730   19.7690 C   0  0  0  0  0  0  0  0  0  0  0  0
  -25.9950  -30.6550   21.0860 C   0  0  0  0  0  2  0  0  0  0  0  0
  -26.1330  -29.3090   20.4080 C   0  0  0  0  0  0  0  0  0  0  0  0
  -27.3560  -28.6040   20.4100 C   0  0  0  0  0  3  0  0  0  0  0  0
  -26.3170  -26.8340   19.1050 C   0  0  0  0  0  3  0  0  0  0  0  0
  -25.0930  -27.5310   19.1150 C   0  0  0  0  0  3  0  0  0  0  0  0
  -23.7380  -29.5930   19.8180 C   0  0  0  0  0  2  0  0  0  0  0  0
  -24.7130  -30.8320   21.8080 N   0  0  0  0  0  0  0  0  0  0  0  0
  -23.5180  -31.8080   23.4670 O   0  0  0  0  0  0  0  0  0  0  0  0
  -22.8380  -29.1430   22.1240 C   0  0  0  0  0  0  0  0  0  0  0  0
  -21.5150  -28.9620   21.9900 N   0  0  0  0  0  0  0  0  0  0  0  0
  -23.5280  -28.4790   22.9020 O   0  0  0  0  0  0  0  0  0  0  0  0
  -21.0210  -29.5520   21.3360 H   0  0  0  0  0  0  0  0  0  0  0  0
  -18.1400  -27.7630   22.4630 C   0  0  0  0  0  0  0  0  0  0  0  0
  -20.7030  -27.9810   22.7100 C   0  0  0  0  0  3  0  0  0  0  0  0
  -20.7840  -26.5920   22.0380 C   0  0  0  0  0  2  0  0  0  0  0  0
  -19.6640  -26.3470   21.0220 C   0  0  0  0  0  2  0  0  0  0  0  0
  -18.2940  -26.4600   21.6970 C   0  0  0  0  0  2  0  0  0  0  0  0
  -19.2720  -28.4850   22.9250 C   0  0  0  0  0  0  0  0  0  0  0  0
  -19.0740  -29.7090   23.6010 C   0  0  0  0  0  3  0  0  0  0  0  0
  -17.7780  -30.2090   23.8190 C   0  0  0  0  0  3  0  0  0  0  0  0
  -16.6600  -29.4830   23.3750 C   0  0  0  0  0  3  0  0  0  0  0  0
  -16.8430  -28.2620   22.7010 C   0  0  0  0  0  3  0  0  0  0  0  0
  -25.8730  -32.2220   23.6110 C   0  0  0  0  0  3  0  0  0  0  0  0
  -26.4040  -31.3980   24.8470 C   0  0  1  0  0  0  0  0  0  0  0  0
  -25.3090  -31.0620   25.8860 C   0  0  0  0  0  1  0  0  0  0  0  0
  -27.0400  -30.0670   24.3820 C   0  0  0  0  0  1  0  0  0  0  0  0
  -27.5190  -32.1930   25.5680 C   0  0  0  0  0  1  0  0  0  0  0  0
  -25.5170  -33.5890   24.0100 N   0  0  0  0  0  0  0  0  0  0  0  0
  -25.8140  -34.6900   23.3040 C   0  0  0  0  0  0  0  0  0  0  0  0
  -26.4880  -34.6610   22.2710 O   0  0  0  0  0  0  0  0  0  0  0  0
  -24.9150  -33.6830   24.8150 H   0  0  0  0  0  0  0  0  0  0  0  0
  -24.0110  -36.4230   23.0440 C   0  0  0  0  0  1  0  0  0  0  0  0
  -25.2750  -36.0340   23.8280 C   0  0  0  0  0  3  0  0  0  0  0  0
  -27.3800  -36.9660   24.6800 C   0  0  0  0  0  1  0  0  0  0  0  0
  -26.2620  -37.1340   23.7560 N   0  0  0  0  0  0  0  0  0  0  0  0
  -25.8200  -38.0270   23.9540 H   0  0  0  0  0  0  0  0  0  0  0  0
  1  5  1  0
  3  1  1  0
  3  6  1  0
  4  2  1  0
  5 11  1  0
  5  2  1  0
  6  4  1  0
  6  7  1  1
  8  9  2  0
  8 11  1  0
  9 12  1  0
 10 13  1  0
 11 10  2  0
 12 23  1  0
 12 13  2  0
 13 14  1  0
 15 23  1  0
 16 21  1  0
 17 18  1  0
 17 16  1  0
 19 18  1  0
 19 28  1  0
 19 20  1  0
 21 15  1  0
 21 20  1  0
 22 15  2  0
 23 24  1  0
 25 26  2  0
 26 45  1  0
 27 26  1  0
 27 30  1  0
 28 29  1  0
 28 25  1  0
 29 27  2  0
 30 31  1  0
 31 32  2  0
 33 36  1  0
 33 32  1  0
 34 33  2  0
 35 34  1  0
 35 30  2  0
 36 37  1  0
 37 42  2  0
 37 38  1  0
 38 39  2  0
 39 40  1  0
 40 44  1  0
 41 40  2  0
 42 41  1  0
 43 42  1  0
 45 46  1  0
 46 49  1  0
 46 48  1  0
 47 45  2  0
 50 25  1  0
 50 51  1  0
 52 50  1  0
 53 54  1  0
 53  6  1  0
 55 57  1  0
 55 54  1  0
 56 67  2  0
 57 62  1  0
 58 66  1  0
 58 68  1  0
 59 65  1  0
 59 61  1  0
 60 66  1  0
 61 62  2  0
 61 60  1  0
 63 64  1  0
 63 57  2  0
 64 59  2  0
 65 58  1  0
 66 56  1  0
 68 70  2  0
 69 68  1  0
 71 69  1  0
 72 81  2  0
 72 77  1  0
 73 69  1  0
 73 77  1  0
 74 73  1  0
 75 76  1  0
 75 74  1  0
 76 72  1  0
 77 78  2  0
 78 79  1  0
 80 79  2  0
 81 80  1  0
 82 56  1  0
 82 87  1  0
 82 83  1  0
 83 86  1  1
 83 84  1  0
 85 83  1  0
 87 90  1  0
 88 92  1  0
 88 87  1  0
 89 88  2  0
 92 91  1  0
 94 92  1  0
 94 95  1  0
 94 93  1  0
M  ISO  4  15 100  23 100  54 101  55 101
M  END
>  <TORSDO>  (29) 
F 19

>  <SCORE>  (29) 
-9.835

>  <name>  (29) 
28

>  <ligand_id>  (29) 
28

>  <original_smiles>  (29) 
[H]c1c([H])c([H])c2c(c1[H])C([H])([H])C([H])([H])C([H])([H])C2([H])N([H])C(=O)C1([H])N(C(=O)C([H])(N([H])C(=O)C([H])(N([H])C([H])([H])[H])C([H])([H])[H])C(C([H])([H])[H])(C([H])([H])[H])C([H])([H])[H])C([H])([H])c2c([H])c(OC([H])([H])C([H])([H])[N+]3([H])C([H])([H])C([H])([H])C([H])(c4c([H])c([H])c(N([H])C(=O)N5C([H])([H])C([H])([H])C([H])([H])C([H])(n6nc(-c7c([H])c([H])c(Oc8c([H])c([H])c(F)c([H])c8F)c([H])c7[H])c(C(=O)N([H])[H])c6N([H])[H])C5([H])[H])c(Cl)c4[H])C([H])([H])C3([H])[H])c([H])c([H])c2C1([H])[H]

>  <smiles>  (29) 
[H]c1c([H])c([H])c2c(c1[H])C([H])([H])C([H])([H])C([H])([H])C2([H])N([H])C(=O)C1([H])N(C(=O)C([H])(N([H])C(=O)C([H])(N([H])C([H])([H])[H])C([H])([H])[H])C(C([H])([H])[H])(C([H])([H])[H])C([H])([H])[H])C([H])([H])c2c([H])c(OC([H])([H])C([H])([H])[N+]3([H])C([H])([H])C([H])([H])C([H])(c4c([H])c([H])c(N([H])C(=O)N5C([H])([H])C([H])([H])C([H])([H])C([H])(n6nc(-c7c([H])c([H])c(Oc8c([H])c([H])c(F)c([H])c8F)c([H])c7[H])c(C(=O)N([H])[H])c6N([H])[H])C5([H])[H])c(Cl)c4[H])C([H])([H])C3([H])[H])c([H])c([H])c2C1([H])[H]

$$$$
29:0:0
     RDKit          3D

 94103  0  0  1  0  0  0  0  0999 V2000
  -31.6420  -20.5000   21.2610 C   0  0  0  0  0  3  0  0  0  0  0  0
  -29.2780  -20.1710   21.7080 C   0  0  0  0  0  3  0  0  0  0  0  0
  -31.7740  -19.1320   20.9360 C   0  0  0  0  0  3  0  0  0  0  0  0
  -29.4180  -18.7920   21.4130 C   0  0  0  0  0  3  0  0  0  0  0  0
  -30.3790  -21.0500   21.5710 C   0  0  0  0  0  0  0  0  0  0  0  0
  -30.6450  -18.2840   20.9160 C   0  0  0  0  0  0  0  0  0  0  0  0
  -30.9050  -14.6660   20.7290 C   0  0  0  0  0  0  0  0  0  0  0  0
  -30.7930  -12.2730   20.1220 C   0  0  0  0  0  2  0  0  0  0  0  0
  -29.9880  -12.0600   18.8190 C   0  0  0  0  0  2  0  0  0  0  0  0
  -28.4560  -12.1330   19.0610 C   0  0  0  0  0  2  0  0  0  0  0  0
  -27.9660  -13.1580   20.1310 C   0  0  0  0  0  3  0  0  0  0  0  0
  -28.9180  -13.2220   21.3400 C   0  0  0  0  0  2  0  0  0  0  0  0
  -30.2680  -13.4580   20.8200 N   0  0  0  0  0  0  0  0  0  0  0  0
  -32.1310  -14.7480   20.8190 O   0  0  0  0  0  0  0  0  0  0  0  0
  -31.0930  -16.0040   17.8870 C   0  0  0  0  0  2  0  0  0  0  0  0
  -31.6400  -17.1170   18.7740 C   0  0  0  0  0  2  0  0  0  0  0  0
  -29.8910  -15.4610   18.6870 C   0  0  0  0  0  2  0  0  0  0  0  0
  -30.6230  -17.1110   19.9200 C   0  0  0  0  0  3  0  0  0  0  0  0
  -30.1920  -15.6870   20.1260 N   0  0  0  0  0  0  0  0  0  0  0  0
  -25.5370  -13.8260   20.6430 C   0  0  0  0  0  0  0  0  0  0  0  0
  -24.4300  -13.0780   20.9370 C   0  0  0  0  0  0  0  0  0  0  0  0
  -24.8740  -11.7220   20.9930 C   0  0  0  0  0  0  0  0  0  0  0  0
  -26.5820  -12.9200   20.5230 N   0  0  0  0  0  0  0  0  0  0  0  0
  -26.1830  -11.6570   20.8080 N   0  0  0  0  0  0  0  0  0  0  0  0
  -24.1210  -10.4730   21.1530 C   0  0  0  0  0  0  0  0  0  0  0  0
  -24.4790   -9.5090   22.1210 C   0  0  0  0  0  3  0  0  0  0  0  0
  -23.7250   -8.3250   22.2670 C   0  0  0  0  0  3  0  0  0  0  0  0
  -22.5990   -8.0950   21.4420 C   0  0  0  0  0  0  0  0  0  0  0  0
  -22.2610   -9.0470   20.4620 C   0  0  0  0  0  3  0  0  0  0  0  0
  -23.0180  -10.2210   20.3130 C   0  0  0  0  0  3  0  0  0  0  0  0
  -21.8280   -6.9590   21.4940 O   0  0  0  0  0  0  0  0  0  0  0  0
  -21.7100   -6.2230   22.6470 C   0  0  0  0  0  0  0  0  0  0  0  0
  -21.2150   -6.7860   23.8420 C   0  0  0  0  0  3  0  0  0  0  0  0
  -21.0350   -5.9760   24.9820 C   0  0  0  0  0  3  0  0  0  0  0  0
  -21.3510   -4.6060   24.9280 C   0  0  0  0  0  0  0  0  0  0  0  0
  -21.8480   -4.0430   23.7400 C   0  0  0  0  0  3  0  0  0  0  0  0
  -22.0200   -4.8500   22.6010 C   0  0  0  0  0  0  0  0  0  0  0  0
  -22.4770   -4.2980   21.4510 F   0  0  0  0  0  0  0  0  0  0  0  0
  -21.1760   -3.8240   26.0210 F   0  0  0  0  0  0  0  0  0  0  0  0
  -23.0190  -13.5800   21.0620 C   0  0  0  0  0  0  0  0  0  0  0  0
  -22.2120  -12.9320   21.8950 N   0  0  0  0  0  0  0  0  0  0  0  0
  -22.6400  -14.5790   20.4550 O   0  0  0  0  0  0  0  0  0  0  0  0
  -22.5310  -12.1220   22.4060 H   0  0  0  0  0  0  0  0  0  0  0  0
  -21.2630  -13.2560   22.0250 H   0  0  0  0  0  0  0  0  0  0  0  0
  -25.7360  -15.1900   20.4460 N   0  0  0  0  0  0  0  0  0  0  0  0
  -24.9750  -15.8580   20.4710 H   0  0  0  0  0  0  0  0  0  0  0  0
  -26.6230  -15.6080   20.1980 H   0  0  0  0  0  0  0  0  0  0  0  0
  -30.2460  -22.5470   21.7190 C   0  0  0  0  0  0  0  0  0  0  0  0
  -29.4410  -23.1730   20.8440 N   0  0  0  0  0  0  0  0  0  0  0  0
  -30.9500  -23.1550   22.5290 O   0  0  0  0  0  0  0  0  0  0  0  0
  -28.9030  -22.5910   20.2160 H   0  0  0  0  0  0  0  0  0  0  0  0
  -29.5080  -24.6190   20.5520 C   0  0  0  0  0  2  0  0  0  0  0  0
  -28.2020  -25.2140   19.9680 C   0  0  0  0  0  2  0  0  0  0  0  0
  -28.3390  -26.6240   19.6880 O   0  0  0  0  0  0  0  0  0  0  0  0
  -24.5050  -31.5970   23.0230 C   0  0  0  0  0  0  0  0  0  0  0  0
  -27.1650  -27.3540   19.6930 C   0  0  0  0  0  0  0  0  0  0  0  0
  -23.2910  -30.2450   21.3470 C   0  0  0  0  0  3  0  0  0  0  0  0
  -24.7440  -28.8150   19.8100 C   0  0  0  0  0  0  0  0  0  0  0  0
  -25.8040  -30.6740   21.1030 C   0  0  0  0  0  2  0  0  0  0  0  0
  -25.9040  -29.3370   20.3960 C   0  0  0  0  0  0  0  0  0  0  0  0
  -27.1200  -28.6170   20.3290 C   0  0  0  0  0  3  0  0  0  0  0  0
  -25.9880  -26.8540   19.0900 C   0  0  0  0  0  3  0  0  0  0  0  0
  -24.7810  -27.5750   19.1510 C   0  0  0  0  0  3  0  0  0  0  0  0
  -23.4790  -29.6360   19.9300 C   0  0  0  0  0  2  0  0  0  0  0  0
  -24.5540  -30.8500   21.8830 N   0  0  0  0  0  0  0  0  0  0  0  0
  -23.4300  -31.8190   23.5970 O   0  0  0  0  0  0  0  0  0  0  0  0
  -22.6890  -29.1650   22.2710 C   0  0  0  0  0  0  0  0  0  0  0  0
  -21.3650  -28.9610   22.1650 N   0  0  0  0  0  0  0  0  0  0  0  0
  -23.4050  -28.5130   23.0350 O   0  0  0  0  0  0  0  0  0  0  0  0
  -20.8480  -29.5370   21.5170 H   0  0  0  0  0  0  0  0  0  0  0  0
  -18.0310  -27.6680   22.6730 C   0  0  0  0  0  0  0  0  0  0  0  0
  -20.5860  -27.9710   22.9070 C   0  0  0  0  0  3  0  0  0  0  0  0
  -20.7100  -26.5710   22.2600 C   0  0  0  0  0  2  0  0  0  0  0  0
  -19.5940  -26.2720   21.2550 C   0  0  0  0  0  2  0  0  0  0  0  0
  -18.2230  -26.3550   21.9330 C   0  0  0  0  0  2  0  0  0  0  0  0
  -19.1410  -28.4340   23.1170 C   0  0  0  0  0  0  0  0  0  0  0  0
  -18.9090  -29.6640   23.7690 C   0  0  0  0  0  3  0  0  0  0  0  0
  -17.5970  -30.1290   23.9820 C   0  0  0  0  0  3  0  0  0  0  0  0
  -16.5010  -29.3580   23.5560 C   0  0  0  0  0  3  0  0  0  0  0  0
  -16.7190  -28.1290   22.9080 C   0  0  0  0  0  3  0  0  0  0  0  0
  -25.7900  -32.2300   23.6420 C   0  0  0  0  0  3  0  0  0  0  0  0
  -26.3530  -31.4140   24.8690 C   0  0  1  0  0  0  0  0  0  0  0  0
  -25.2950  -31.1090   25.9550 C   0  0  0  0  0  1  0  0  0  0  0  0
  -26.9430  -30.0660   24.3960 C   0  0  0  0  0  1  0  0  0  0  0  0
  -27.5080  -32.1980   25.5360 C   0  0  0  0  0  1  0  0  0  0  0  0
  -25.4600  -33.6040   24.0410 N   0  0  0  0  0  0  0  0  0  0  0  0
  -25.7730  -34.6980   23.3340 C   0  0  0  0  0  0  0  0  0  0  0  0
  -26.4450  -34.6570   22.3000 O   0  0  0  0  0  0  0  0  0  0  0  0
  -24.8670  -33.7110   24.8520 H   0  0  0  0  0  0  0  0  0  0  0  0
  -24.0200  -36.4780   23.0600 C   0  0  0  0  0  1  0  0  0  0  0  0
  -25.2620  -36.0540   23.8590 C   0  0  0  0  0  3  0  0  0  0  0  0
  -27.3730  -36.9270   24.7560 C   0  0  0  0  0  1  0  0  0  0  0  0
  -26.2780  -37.1270   23.8090 N   0  0  0  0  0  0  0  0  0  0  0  0
  -25.8560  -38.0320   24.0000 H   0  0  0  0  0  0  0  0  0  0  0  0
  1  5  1  0
  3  1  2  0
  4  2  1  0
  5  2  2  0
  5 48  1  0
  6  3  1  0
  6  4  2  0
  7 14  2  0
  7 13  1  0
  8 13  1  0
  9 10  1  0
  9  8  1  0
 11 10  1  0
 11 23  1  0
 11 12  1  0
 13 12  1  0
 15 17  1  0
 15 16  1  0
 16 18  1  0
 17 19  1  0
 18 19  1  0
 18  6  1  0
 19  7  1  0
 20 21  2  0
 21 22  1  0
 21 40  1  0
 22 25  1  0
 23 20  1  0
 23 24  1  0
 24 22  2  0
 25 26  1  0
 26 27  2  0
 28 31  1  0
 28 27  1  0
 29 28  2  0
 30 29  1  0
 30 25  2  0
 31 32  1  0
 32 33  1  0
 33 34  2  0
 35 34  1  0
 35 39  1  0
 36 35  2  0
 37 32  2  0
 37 36  1  0
 38 37  1  0
 40 41  1  0
 41 44  1  0
 41 43  1  0
 42 40  2  0
 45 46  1  0
 45 20  1  0
 47 45  1  0
 48 50  2  0
 49 48  1  0
 51 49  1  0
 52 49  1  0
 53 52  1  0
 54 56  1  0
 54 53  1  0
 55 66  2  0
 56 61  1  0
 57 65  1  0
 57 67  1  0
 58 64  1  0
 58 60  1  0
 59 65  1  0
 60 59  1  0
 61 60  2  0
 62 63  1  0
 62 56  2  0
 63 58  2  0
 64 57  1  0
 65 55  1  0
 67 69  2  0
 68 67  1  0
 70 68  1  0
 71 80  2  0
 71 76  1  0
 72 68  1  0
 72 76  1  0
 73 72  1  0
 74 75  1  0
 74 73  1  0
 75 71  1  0
 76 77  2  0
 77 78  1  0
 79 78  2  0
 80 79  1  0
 81 55  1  0
 81 86  1  0
 81 82  1  0
 82 85  1  1
 82 83  1  0
 84 82  1  0
 86 89  1  0
 87 91  1  0
 87 86  1  0
 88 87  2  0
 91 90  1  0
 93 91  1  0
 93 94  1  0
 93 92  1  0
M  ISO  4   7 100  19 100  53 101  54 101
M  END
>  <TORSDO>  (30) 
F 19

>  <SCORE>  (30) 
-11.940

>  <name>  (30) 
29

>  <ligand_id>  (30) 
29

>  <original_smiles>  (30) 
[H]c1c([H])c([H])c2c(c1[H])C([H])([H])C([H])([H])C([H])([H])C2([H])N([H])C(=O)C1([H])N(C(=O)C([H])(N([H])C(=O)C([H])(N([H])C([H])([H])[H])C([H])([H])[H])C(C([H])([H])[H])(C([H])([H])[H])C([H])([H])[H])C([H])([H])c2c([H])c(OC([H])([H])C([H])([H])N([H])C(=O)c3c([H])c([H])c(C4([H])N(C(=O)N5C([H])([H])C([H])([H])C([H])([H])C([H])(n6nc(-c7c([H])c([H])c(Oc8c([H])c([H])c(F)c([H])c8F)c([H])c7[H])c(C(=O)N([H])[H])c6N([H])[H])C5([H])[H])C([H])([H])C([H])([H])C4([H])[H])c([H])c3[H])c([H])c([H])c2C1([H])[H]

>  <smiles>  (30) 
[H]c1c([H])c([H])c2c(c1[H])C([H])([H])C([H])([H])C([H])([H])C2([H])N([H])C(=O)C1([H])N(C(=O)C([H])(N([H])C(=O)C([H])(N([H])C([H])([H])[H])C([H])([H])[H])C(C([H])([H])[H])(C([H])([H])[H])C([H])([H])[H])C([H])([H])c2c([H])c(OC([H])([H])C([H])([H])N([H])C(=O)c3c([H])c([H])c(C4([H])N(C(=O)N5C([H])([H])C([H])([H])C([H])([H])C([H])(n6nc(-c7c([H])c([H])c(Oc8c([H])c([H])c(F)c([H])c8F)c([H])c7[H])c(C(=O)N([H])[H])c6N([H])[H])C5([H])[H])C([H])([H])C([H])([H])C4([H])[H])c([H])c3[H])c([H])c([H])c2C1([H])[H]

$$$$
30:0:0
     RDKit          3D

 87 96  0  0  1  0  0  0  0  0999 V2000
  -28.9430  -23.2090   20.3520 C   0  0  0  0  0  0  0  0  0  0  0  0
  -29.3890  -20.7390   19.3350 C   0  0  0  0  0  3  0  0  0  0  0  0
  -29.0450  -20.6660   21.2690 C   0  0  0  0  0  3  0  0  0  0  0  0
  -29.1100  -19.4190   20.2360 C   0  0  0  0  0  3  0  0  0  0  0  0
  -28.6530  -21.7120   20.2380 N   0  0  0  0  0  0  0  0  0  0  0  0
  -30.0650  -23.5130   20.7600 O   0  0  0  0  0  0  0  0  0  0  0  0
  -27.8870  -24.5100   20.0510 C   0  0  0  0  0  2  0  0  0  0  0  0
  -28.2040  -26.0670   20.2720 O   0  0  0  0  0  0  0  0  0  0  0  0
  -24.6450  -31.9050   23.2560 C   0  0  0  0  0  0  0  0  0  0  0  0
  -27.1820  -27.1180   20.2070 C   0  0  0  0  0  0  0  0  0  0  0  0
  -23.4370  -30.5200   21.6150 C   0  0  0  0  0  3  0  0  0  0  0  0
  -24.8760  -28.9350   20.1790 C   0  0  0  0  0  0  0  0  0  0  0  0
  -25.9980  -30.7530   21.4510 C   0  0  0  0  0  2  0  0  0  0  0  0
  -26.0630  -29.3550   20.7920 C   0  0  0  0  0  0  0  0  0  0  0  0
  -27.2140  -28.4650   20.7850 C   0  0  0  0  0  3  0  0  0  0  0  0
  -25.9680  -26.8250   19.5480 C   0  0  0  0  0  3  0  0  0  0  0  0
  -24.8470  -27.6870   19.5390 C   0  0  0  0  0  3  0  0  0  0  0  0
  -23.6550  -29.8450   20.2340 C   0  0  0  0  0  2  0  0  0  0  0  0
  -24.7150  -31.0830   22.1620 N   0  0  0  0  0  0  0  0  0  0  0  0
  -23.5600  -32.1930   23.7850 O   0  0  0  0  0  0  0  0  0  0  0  0
  -22.7510  -29.5170   22.5780 C   0  0  0  0  0  0  0  0  0  0  0  0
  -21.4220  -29.3490   22.4510 N   0  0  0  0  0  0  0  0  0  0  0  0
  -23.4190  -28.8910   23.4050 O   0  0  0  0  0  0  0  0  0  0  0  0
  -20.9380  -29.9060   21.7590 H   0  0  0  0  0  0  0  0  0  0  0  0
  -18.0400  -28.1380   22.9480 C   0  0  0  0  0  0  0  0  0  0  0  0
  -20.5980  -28.4120   23.2210 C   0  0  0  0  0  3  0  0  0  0  0  0
  -20.7070  -26.9780   22.6500 C   0  0  0  0  0  2  0  0  0  0  0  0
  -19.6090  -26.6500   21.6330 C   0  0  0  0  0  2  0  0  0  0  0  0
  -18.2240  -26.7900   22.2720 C   0  0  0  0  0  2  0  0  0  0  0  0
  -19.1550  -28.9070   23.3780 C   0  0  0  0  0  0  0  0  0  0  0  0
  -18.9280  -30.1670   23.9720 C   0  0  0  0  0  3  0  0  0  0  0  0
  -17.6200  -30.6610   24.1380 C   0  0  0  0  0  3  0  0  0  0  0  0
  -16.5200  -29.8910   23.7210 C   0  0  0  0  0  3  0  0  0  0  0  0
  -16.7320  -28.6310   23.1330 C   0  0  0  0  0  3  0  0  0  0  0  0
  -25.9230  -32.5380   23.8830 C   0  0  0  0  0  3  0  0  0  0  0  0
  -25.6160  -33.9370   24.2210 N   0  0  0  0  0  0  0  0  0  0  0  0
  -25.9230  -34.9950   23.4590 C   0  0  0  0  0  0  0  0  0  0  0  0
  -26.5610  -34.8960   22.4080 O   0  0  0  0  0  0  0  0  0  0  0  0
  -25.0470  -34.0880   25.0410 H   0  0  0  0  0  0  0  0  0  0  0  0
  -24.1680  -36.7790   23.1900 C   0  0  0  0  0  1  0  0  0  0  0  0
  -25.4510  -36.3830   23.9380 C   0  0  0  0  0  3  0  0  0  0  0  0
  -27.6160  -37.2900   24.6620 C   0  0  0  0  0  1  0  0  0  0  0  0
  -26.4690  -37.4440   23.7700 N   0  0  0  0  0  0  0  0  0  0  0  0
  -26.0640  -38.3620   23.9310 H   0  0  0  0  0  0  0  0  0  0  0  0
  -26.4320  -31.7650   25.1650 C   0  0  1  0  0  0  0  0  0  0  0  0
  -25.3330  -31.5370   26.2290 C   0  0  0  0  0  1  0  0  0  0  0  0
  -27.0080  -30.3840   24.7830 C   0  0  0  0  0  1  0  0  0  0  0  0
  -27.5840  -32.5540   25.8280 C   0  0  0  0  0  1  0  0  0  0  0  0
  -30.1000  -17.9820   20.3220 C   0  0  0  0  0  2  0  0  0  0  0  0
  -30.4760  -15.1720   20.2820 C   0  0  0  0  0  0  0  0  0  0  0  0
  -30.4020  -12.7730   19.3830 C   0  0  0  0  0  2  0  0  0  0  0  0
  -29.4780  -12.6440   18.1500 C   0  0  0  0  0  2  0  0  0  0  0  0
  -28.0220  -12.4000   18.5880 C   0  0  0  0  0  2  0  0  0  0  0  0
  -27.5880  -13.3490   19.7340 C   0  0  0  0  0  3  0  0  0  0  0  0
  -28.6390  -13.4400   20.8600 C   0  0  0  0  0  2  0  0  0  0  0  0
  -29.8890  -13.8940   20.2360 N   0  0  0  0  0  0  0  0  0  0  0  0
  -31.6880  -15.2000   20.0370 O   0  0  0  0  0  0  0  0  0  0  0  0
  -29.7170  -16.4050   20.3930 N   0  0  0  0  0  0  0  0  0  0  0  0
  -28.7320  -16.2380   20.5380 H   0  0  0  0  0  0  0  0  0  0  0  0
  -25.2100  -13.9050   20.4820 C   0  0  0  0  0  0  0  0  0  0  0  0
  -24.1520  -13.1230   20.8500 C   0  0  0  0  0  0  0  0  0  0  0  0
  -24.6250  -11.7750   20.8190 C   0  0  0  0  0  0  0  0  0  0  0  0
  -26.2580  -13.0340   20.2400 N   0  0  0  0  0  0  0  0  0  0  0  0
  -25.9170  -11.7470   20.5100 N   0  0  0  0  0  0  0  0  0  0  0  0
  -23.9050  -10.5080   21.0070 C   0  0  0  0  0  0  0  0  0  0  0  0
  -24.3280   -9.5490   21.9530 C   0  0  0  0  0  3  0  0  0  0  0  0
  -23.6050   -8.3490   22.1270 C   0  0  0  0  0  3  0  0  0  0  0  0
  -22.4440   -8.1000   21.3580 C   0  0  0  0  0  0  0  0  0  0  0  0
  -22.0400   -9.0490   20.4010 C   0  0  0  0  0  3  0  0  0  0  0  0
  -22.7640  -10.2390   20.2240 C   0  0  0  0  0  3  0  0  0  0  0  0
  -21.6940   -6.9520   21.4420 O   0  0  0  0  0  0  0  0  0  0  0  0
  -21.6170   -6.2260   22.6030 C   0  0  0  0  0  0  0  0  0  0  0  0
  -21.1380   -6.7910   23.8050 C   0  0  0  0  0  3  0  0  0  0  0  0
  -21.0110   -5.9910   24.9590 C   0  0  0  0  0  3  0  0  0  0  0  0
  -21.3510   -4.6260   24.9100 C   0  0  0  0  0  0  0  0  0  0  0  0
  -21.8230   -4.0600   23.7120 C   0  0  0  0  0  3  0  0  0  0  0  0
  -21.9520   -4.8580   22.5610 C   0  0  0  0  0  0  0  0  0  0  0  0
  -22.3860   -4.3020   21.4040 F   0  0  0  0  0  0  0  0  0  0  0  0
  -21.2220   -3.8540   26.0140 F   0  0  0  0  0  0  0  0  0  0  0  0
  -22.7510  -13.5920   21.1170 C   0  0  0  0  0  0  0  0  0  0  0  0
  -22.0260  -12.8960   21.9830 N   0  0  0  0  0  0  0  0  0  0  0  0
  -22.3100  -14.6130   20.5900 O   0  0  0  0  0  0  0  0  0  0  0  0
  -22.3970  -12.0690   22.4310 H   0  0  0  0  0  0  0  0  0  0  0  0
  -21.0860  -13.1920   22.2050 H   0  0  0  0  0  0  0  0  0  0  0  0
  -25.3640  -15.2760   20.3040 N   0  0  0  0  0  0  0  0  0  0  0  0
  -24.5870  -15.9200   20.4070 H   0  0  0  0  0  0  0  0  0  0  0  0
  -26.1970  -15.7180   19.9380 H   0  0  0  0  0  0  0  0  0  0  0  0
  1  6  2  0
  2  4  1  0
  2  5  1  0
  2  3  1  0
  3  5  1  0
  4 49  1  0
  4  3  1  0
  5  1  1  0
  7  8  1  0
  7  1  1  0
  9 20  2  0
 10  8  1  0
 10 15  1  0
 11 19  1  0
 11 21  1  0
 12 18  1  0
 12 14  1  0
 13 19  1  0
 14 13  1  0
 15 14  2  0
 16 10  2  0
 17 16  1  0
 17 12  2  0
 18 11  1  0
 19  9  1  0
 21 23  2  0
 22 21  1  0
 24 22  1  0
 25 34  2  0
 25 30  1  0
 26 22  1  0
 26 30  1  0
 27 26  1  0
 28 29  1  0
 28 27  1  0
 29 25  1  0
 30 31  2  0
 31 32  1  0
 33 32  2  0
 34 33  1  0
 35  9  1  0
 35 36  1  0
 35 45  1  0
 36 39  1  0
 37 41  1  0
 37 36  1  0
 38 37  2  0
 41 40  1  0
 43 44  1  0
 43 41  1  0
 43 42  1  0
 45 48  1  1
 45 46  1  0
 47 45  1  0
 49 58  1  0
 50 58  1  0
 51 56  1  0
 52 53  1  0
 52 51  1  0
 54 53  1  0
 54 63  1  0
 54 55  1  0
 56 50  1  0
 56 55  1  0
 57 50  2  0
 58 59  1  0
 60 61  2  0
 61 80  1  0
 62 61  1  0
 62 65  1  0
 63 60  1  0
 63 64  1  0
 64 62  2  0
 65 66  1  0
 66 67  2  0
 68 71  1  0
 68 67  1  0
 69 68  2  0
 70 69  1  0
 70 65  2  0
 71 72  1  0
 72 73  1  0
 73 74  2  0
 75 74  1  0
 75 79  1  0
 76 75  2  0
 77 72  2  0
 77 76  1  0
 78 77  1  0
 80 81  1  0
 81 84  1  0
 81 83  1  0
 82 80  2  0
 85 86  1  0
 85 60  1  0
 87 85  1  0
M  ISO  4   7 101   8 101  50 100  58 100
M  END
>  <TORSDO>  (31) 
F 18

>  <SCORE>  (31) 
-15.749

>  <name>  (31) 
30

>  <ligand_id>  (31) 
30

>  <original_smiles>  (31) 
[H]c1c([H])c([H])c2c(c1[H])C([H])([H])C([H])([H])C([H])([H])C2([H])N([H])C(=O)C1([H])N(C(=O)C([H])(N([H])C(=O)C([H])(N([H])C([H])([H])[H])C([H])([H])[H])C(C([H])([H])[H])(C([H])([H])[H])C([H])([H])[H])C([H])([H])c2c([H])c(OC([H])([H])C(=O)N3C([H])([H])C([H])(C([H])([H])N([H])C(=O)N4C([H])([H])C([H])([H])C([H])([H])C([H])(n5nc(-c6c([H])c([H])c(Oc7c([H])c([H])c(F)c([H])c7F)c([H])c6[H])c(C(=O)N([H])[H])c5N([H])[H])C4([H])[H])C3([H])[H])c([H])c([H])c2C1([H])[H]

>  <smiles>  (31) 
[H]c1c([H])c([H])c2c(c1[H])C([H])([H])C([H])([H])C([H])([H])C2([H])N([H])C(=O)C1([H])N(C(=O)C([H])(N([H])C(=O)C([H])(N([H])C([H])([H])[H])C([H])([H])[H])C(C([H])([H])[H])(C([H])([H])[H])C([H])([H])[H])C([H])([H])c2c([H])c(OC([H])([H])C(=O)N3C([H])([H])C([H])(C([H])([H])N([H])C(=O)N4C([H])([H])C([H])([H])C([H])([H])C([H])(n5nc(-c6c([H])c([H])c(Oc7c([H])c([H])c(F)c([H])c7F)c([H])c6[H])c(C(=O)N([H])[H])c5N([H])[H])C4([H])[H])C3([H])[H])c([H])c([H])c2C1([H])[H]

$$$$
31:0:0
     RDKit          3D

 91 99  0  0  1  0  0  0  0  0999 V2000
  -28.8060  -22.3330   20.0930 N   0  0  0  0  0  4  0  0  0  0  0  0
  -27.8190  -22.1460   20.0140 H   0  0  0  0  0  0  0  0  0  0  0  0
  -29.1800  -22.2910   19.1590 H   0  0  0  0  0  0  0  0  0  0  0  0
  -29.3980  -21.1580   20.8760 C   0  0  0  0  0  2  0  0  0  0  0  0
  -30.6170  -18.6380   18.1760 C   0  0  0  0  0  3  0  0  0  0  0  0
  -30.2290  -19.8150   18.8440 C   0  0  0  0  0  3  0  0  0  0  0  0
  -30.5050  -17.3740   18.7870 C   0  0  0  0  0  3  0  0  0  0  0  0
  -29.5680  -18.4530   20.7540 C   0  0  0  0  0  3  0  0  0  0  0  0
  -29.6920  -19.7730   20.1490 C   0  0  0  0  0  0  0  0  0  0  0  0
  -29.9920  -17.2250   20.0970 C   0  0  0  0  0  0  0  0  0  0  0  0
  -30.5920  -14.7170   20.3550 C   0  0  0  0  0  0  0  0  0  0  0  0
  -30.3570  -12.4470   19.3620 C   0  0  0  0  0  2  0  0  0  0  0  0
  -29.4210  -12.5500   18.1380 C   0  0  0  0  0  2  0  0  0  0  0  0
  -27.9490  -12.3960   18.5690 C   0  0  0  0  0  2  0  0  0  0  0  0
  -27.5890  -13.2780   19.7950 C   0  0  0  0  0  3  0  0  0  0  0  0
  -28.6500  -13.1710   20.9130 C   0  0  0  0  0  2  0  0  0  0  0  0
  -29.9530  -13.4990   20.3230 N   0  0  0  0  0  0  0  0  0  0  0  0
  -31.7660  -14.8030   19.9820 O   0  0  0  0  0  0  0  0  0  0  0  0
  -29.8580  -15.8560   20.6520 N   0  0  0  0  0  0  0  0  0  0  0  0
  -29.0050  -15.6830   21.1630 H   0  0  0  0  0  0  0  0  0  0  0  0
  -25.2050  -13.8800   20.5260 C   0  0  0  0  0  0  0  0  0  0  0  0
  -24.1370  -13.1120   20.9020 C   0  0  0  0  0  0  0  0  0  0  0  0
  -24.5940  -11.7590   20.8720 C   0  0  0  0  0  0  0  0  0  0  0  0
  -26.2450  -12.9960   20.2890 N   0  0  0  0  0  0  0  0  0  0  0  0
  -25.8840  -11.7150   20.5590 N   0  0  0  0  0  0  0  0  0  0  0  0
  -23.8630  -10.5000   21.0680 C   0  0  0  0  0  0  0  0  0  0  0  0
  -24.3070   -9.5210   21.9840 C   0  0  0  0  0  3  0  0  0  0  0  0
  -23.5750   -8.3280   22.1670 C   0  0  0  0  0  3  0  0  0  0  0  0
  -22.3850   -8.1050   21.4360 C   0  0  0  0  0  0  0  0  0  0  0  0
  -21.9600   -9.0720   20.5080 C   0  0  0  0  0  3  0  0  0  0  0  0
  -22.6920  -10.2570   20.3230 C   0  0  0  0  0  3  0  0  0  0  0  0
  -21.6230   -6.9650   21.5290 O   0  0  0  0  0  0  0  0  0  0  0  0
  -21.6070   -6.2020   22.6700 C   0  0  0  0  0  0  0  0  0  0  0  0
  -21.2440   -6.7420   23.9240 C   0  0  0  0  0  3  0  0  0  0  0  0
  -21.1740   -5.9070   25.0560 C   0  0  0  0  0  3  0  0  0  0  0  0
  -21.4550   -4.5330   24.9370 C   0  0  0  0  0  0  0  0  0  0  0  0
  -21.8110   -3.9920   23.6880 C   0  0  0  0  0  3  0  0  0  0  0  0
  -21.8830   -4.8250   22.5580 C   0  0  0  0  0  0  0  0  0  0  0  0
  -22.2060   -4.2950   21.3530 F   0  0  0  0  0  0  0  0  0  0  0  0
  -21.3810   -3.7290   26.0230 F   0  0  0  0  0  0  0  0  0  0  0  0
  -22.7430  -13.5960   21.1780 C   0  0  0  0  0  0  0  0  0  0  0  0
  -22.0150  -12.9070   22.0500 N   0  0  0  0  0  0  0  0  0  0  0  0
  -22.3070  -14.6210   20.6540 O   0  0  0  0  0  0  0  0  0  0  0  0
  -22.3800  -12.0790   22.4960 H   0  0  0  0  0  0  0  0  0  0  0  0
  -21.0790  -13.2130   22.2740 H   0  0  0  0  0  0  0  0  0  0  0  0
  -25.3740  -15.2510   20.3460 N   0  0  0  0  0  0  0  0  0  0  0  0
  -24.6090  -15.9070   20.4560 H   0  0  0  0  0  0  0  0  0  0  0  0
  -26.2200  -15.6830   19.9990 H   0  0  0  0  0  0  0  0  0  0  0  0
  -29.0010  -23.7770   20.6010 C   0  0  0  0  0  3  0  0  0  0  0  0
  -28.0720  -24.9320   19.9680 C   0  0  0  0  0  3  0  0  0  0  0  0
  -28.2800  -26.3930   20.2570 O   0  0  0  0  0  0  0  0  0  0  0  0
  -24.6130  -31.8780   23.2450 C   0  0  0  0  0  0  0  0  0  0  0  0
  -27.1830  -27.2830   20.1760 C   0  0  0  0  0  0  0  0  0  0  0  0
  -23.3940  -30.4830   21.6140 C   0  0  0  0  0  3  0  0  0  0  0  0
  -24.8310  -28.9310   20.1740 C   0  0  0  0  0  0  0  0  0  0  0  0
  -25.9360  -30.7850   21.4180 C   0  0  0  0  0  2  0  0  0  0  0  0
  -26.0070  -29.4040   20.7710 C   0  0  0  0  0  0  0  0  0  0  0  0
  -27.1840  -28.5910   20.7650 C   0  0  0  0  0  3  0  0  0  0  0  0
  -25.9890  -26.8870   19.5290 C   0  0  0  0  0  3  0  0  0  0  0  0
  -24.8270  -27.6790   19.5420 C   0  0  0  0  0  3  0  0  0  0  0  0
  -23.5980  -29.8100   20.2320 C   0  0  0  0  0  2  0  0  0  0  0  0
  -24.6670  -31.0670   22.1470 N   0  0  0  0  0  0  0  0  0  0  0  0
  -23.5330  -32.1590   23.7850 O   0  0  0  0  0  0  0  0  0  0  0  0
  -22.7350  -29.4680   22.5780 C   0  0  0  0  0  0  0  0  0  0  0  0
  -21.4080  -29.2920   22.4600 N   0  0  0  0  0  0  0  0  0  0  0  0
  -23.4170  -28.8410   23.3930 O   0  0  0  0  0  0  0  0  0  0  0  0
  -20.9160  -29.8500   21.7760 H   0  0  0  0  0  0  0  0  0  0  0  0
  -18.0330  -28.0900   22.9710 C   0  0  0  0  0  0  0  0  0  0  0  0
  -20.5920  -28.3560   23.2350 C   0  0  0  0  0  3  0  0  0  0  0  0
  -20.6950  -26.9220   22.6680 C   0  0  0  0  0  2  0  0  0  0  0  0
  -19.5920  -26.5910   21.6580 C   0  0  0  0  0  2  0  0  0  0  0  0
  -18.2110  -26.7370   22.3020 C   0  0  0  0  0  2  0  0  0  0  0  0
  -19.1510  -28.8580   23.3950 C   0  0  0  0  0  0  0  0  0  0  0  0
  -18.9300  -30.1230   23.9810 C   0  0  0  0  0  3  0  0  0  0  0  0
  -17.6230  -30.6210   24.1470 C   0  0  0  0  0  3  0  0  0  0  0  0
  -16.5210  -29.8520   23.7380 C   0  0  0  0  0  3  0  0  0  0  0  0
  -16.7260  -28.5880   23.1560 C   0  0  0  0  0  3  0  0  0  0  0  0
  -25.9000  -32.5080   23.8590 C   0  0  0  0  0  3  0  0  0  0  0  0
  -26.4260  -31.7330   25.1290 C   0  0  1  0  0  0  0  0  0  0  0  0
  -25.3420  -31.4970   26.2060 C   0  0  0  0  0  1  0  0  0  0  0  0
  -27.0020  -30.3550   24.7310 C   0  0  0  0  0  1  0  0  0  0  0  0
  -27.5850  -32.5230   25.7810 C   0  0  0  0  0  1  0  0  0  0  0  0
  -25.5930  -33.9060   24.1960 N   0  0  0  0  0  0  0  0  0  0  0  0
  -25.9130  -34.9610   23.4360 C   0  0  0  0  0  0  0  0  0  0  0  0
  -26.5680  -34.8610   22.3940 O   0  0  0  0  0  0  0  0  0  0  0  0
  -25.0100  -34.0580   25.0060 H   0  0  0  0  0  0  0  0  0  0  0  0
  -24.1740  -36.7520   23.1200 C   0  0  0  0  0  1  0  0  0  0  0  0
  -25.4320  -36.3480   23.9050 C   0  0  0  0  0  3  0  0  0  0  0  0
  -27.5840  -37.2360   24.6900 C   0  0  0  0  0  1  0  0  0  0  0  0
  -26.4610  -37.4040   23.7720 N   0  0  0  0  0  0  0  0  0  0  0  0
  -26.0560  -38.3220   23.9300 H   0  0  0  0  0  0  0  0  0  0  0  0
  1 49  1  0
  1  4  1  0
  2  1  1  0
  3  1  1  0
  5  7  2  0
  5  6  1  0
  6  9  2  0
  7 10  1  0
  9  8  1  0
  9  4  1  0
 10 19  1  0
 10  8  2  0
 11 19  1  0
 12 17  1  0
 13 14  1  0
 13 12  1  0
 15 14  1  0
 15 24  1  0
 15 16  1  0
 17 11  1  0
 17 16  1  0
 18 11  2  0
 19 20  1  0
 21 22  2  0
 22 41  1  0
 23 22  1  0
 23 26  1  0
 24 21  1  0
 24 25  1  0
 25 23  2  0
 26 27  1  0
 27 28  2  0
 29 32  1  0
 29 28  1  0
 30 29  2  0
 31 30  1  0
 31 26  2  0
 32 33  1  0
 33 34  1  0
 34 35  2  0
 36 35  1  0
 36 40  1  0
 37 36  2  0
 38 33  2  0
 38 37  1  0
 39 38  1  0
 41 42  1  0
 42 45  1  0
 42 44  1  0
 43 41  2  0
 46 47  1  0
 46 21  1  0
 48 46  1  0
 50 51  1  0
 50 49  2  0
 52 63  2  0
 53 51  1  0
 53 58  1  0
 54 62  1  0
 54 64  1  0
 55 61  1  0
 55 57  1  0
 56 62  1  0
 57 56  1  0
 58 57  2  0
 59 60  1  0
 59 53  2  0
 60 55  2  0
 61 54  1  0
 62 52  1  0
 64 66  2  0
 65 64  1  0
 67 65  1  0
 68 77  2  0
 68 73  1  0
 69 65  1  0
 69 73  1  0
 70 69  1  0
 71 72  1  0
 71 70  1  0
 72 68  1  0
 73 74  2  0
 74 75  1  0
 76 75  2  0
 77 76  1  0
 78 52  1  0
 78 83  1  0
 78 79  1  0
 79 82  1  1
 79 80  1  0
 81 79  1  0
 83 86  1  0
 84 88  1  0
 84 83  1  0
 85 84  2  0
 88 87  1  0
 90 88  1  0
 90 91  1  0
 90 89  1  0
M  ISO  4  11 100  19 100  50 101  51 101
M  END
>  <TORSDO>  (32) 
F 20

>  <SCORE>  (32) 
-13.766

>  <name>  (32) 
31

>  <ligand_id>  (32) 
31

>  <original_smiles>  (32) 
[H]c1c([H])c([H])c2c(c1[H])C([H])([H])C([H])([H])C([H])([H])C2([H])N([H])C(=O)C1([H])N(C(=O)C([H])(N([H])C(=O)C([H])(N([H])C([H])([H])[H])C([H])([H])[H])C(C([H])([H])[H])(C([H])([H])[H])C([H])([H])[H])C([H])([H])c2c([H])c(OC([H])([H])C([H])([H])[N+]([H])([H])C([H])([H])c3c([H])c([H])c([H])c(N([H])C(=O)N4C([H])([H])C([H])([H])C([H])([H])C([H])(n5nc(-c6c([H])c([H])c(Oc7c([H])c([H])c(F)c([H])c7F)c([H])c6[H])c(C(=O)N([H])[H])c5N([H])[H])C4([H])[H])c3[H])c([H])c([H])c2C1([H])[H]

>  <smiles>  (32) 
[H]c1c([H])c([H])c2c(c1[H])C([H])([H])C([H])([H])C([H])([H])C2([H])N([H])C(=O)C1([H])N(C(=O)C([H])(N([H])C(=O)C([H])(N([H])C([H])([H])[H])C([H])([H])[H])C(C([H])([H])[H])(C([H])([H])[H])C([H])([H])[H])C([H])([H])c2c([H])c(OC([H])([H])C([H])([H])[N+]([H])([H])C([H])([H])c3c([H])c([H])c([H])c(N([H])C(=O)N4C([H])([H])C([H])([H])C([H])([H])C([H])(n5nc(-c6c([H])c([H])c(Oc7c([H])c([H])c(F)c([H])c7F)c([H])c6[H])c(C(=O)N([H])[H])c5N([H])[H])C4([H])[H])c3[H])c([H])c([H])c2C1([H])[H]

$$$$
32:0:0
     RDKit          3D

 86 94  0  0  1  0  0  0  0  0999 V2000
  -29.9550  -20.8960   20.2420 C   0  0  0  0  0  3  0  0  0  0  0  0
  -29.6440  -22.4640   20.2600 C   0  0  0  0  0  3  0  0  0  0  0  0
  -27.8820  -20.5300   20.2060 C   0  0  0  0  0  3  0  0  0  0  0  0
  -29.1240  -19.5960   20.2120 C   0  0  0  0  0  0  0  0  0  0  0  0
  -28.4010  -23.3920   20.2530 C   0  0  0  0  0  0  0  0  0  0  0  0
  -27.5550  -22.0990   20.2230 C   0  0  0  0  0  0  0  0  0  0  0  0
  -26.2240  -22.3540   20.2080 F   0  0  0  0  0  0  0  0  0  0  0  0
  -30.1240  -16.2500   20.1250 C   0  0  0  0  0  0  0  0  0  0  0  0
  -30.3840  -13.5900   19.3260 C   0  0  0  0  0  2  0  0  0  0  0  0
  -29.5370  -12.9480   18.1720 C   0  0  0  0  0  2  0  0  0  0  0  0
  -28.1670  -12.4720   18.6680 C   0  0  0  0  0  2  0  0  0  0  0  0
  -27.5930  -13.4900   19.6710 C   0  0  0  0  0  3  0  0  0  0  0  0
  -28.6030  -14.0040   20.7390 C   0  0  0  0  0  2  0  0  0  0  0  0
  -29.6730  -14.7940   20.0380 N   0  0  0  0  0  0  0  0  0  0  0  0
  -31.3680  -16.1250   19.9810 O   0  0  0  0  0  0  0  0  0  0  0  0
  -29.3180  -17.7170   20.1910 N   0  0  0  0  0  0  0  0  0  0  0  0
  -28.3710  -17.3690   20.2440 H   0  0  0  0  0  0  0  0  0  0  0  0
  -25.2490  -13.9490   20.4970 C   0  0  0  0  0  0  0  0  0  0  0  0
  -24.2080  -13.1500   20.8680 C   0  0  0  0  0  0  0  0  0  0  0  0
  -24.6940  -11.8060   20.8060 C   0  0  0  0  0  0  0  0  0  0  0  0
  -26.3020  -13.0990   20.2220 N   0  0  0  0  0  0  0  0  0  0  0  0
  -25.9850  -11.7990   20.4700 N   0  0  0  0  0  0  0  0  0  0  0  0
  -23.9790  -10.5340   20.9890 C   0  0  0  0  0  0  0  0  0  0  0  0
  -24.4140   -9.5650   21.9200 C   0  0  0  0  0  3  0  0  0  0  0  0
  -23.6910   -8.3650   22.0960 C   0  0  0  0  0  3  0  0  0  0  0  0
  -22.5200   -8.1230   21.3400 C   0  0  0  0  0  0  0  0  0  0  0  0
  -22.1030   -9.0800   20.3980 C   0  0  0  0  0  3  0  0  0  0  0  0
  -22.8260  -10.2720   20.2210 C   0  0  0  0  0  3  0  0  0  0  0  0
  -21.7700   -6.9730   21.4240 O   0  0  0  0  0  0  0  0  0  0  0  0
  -21.7060   -6.2390   22.5810 C   0  0  0  0  0  0  0  0  0  0  0  0
  -21.2340   -6.7930   23.7910 C   0  0  0  0  0  3  0  0  0  0  0  0
  -21.1190   -5.9840   24.9390 C   0  0  0  0  0  3  0  0  0  0  0  0
  -21.4650   -4.6210   24.8780 C   0  0  0  0  0  0  0  0  0  0  0  0
  -21.9290   -4.0650   23.6730 C   0  0  0  0  0  3  0  0  0  0  0  0
  -22.0460   -4.8710   22.5270 C   0  0  0  0  0  0  0  0  0  0  0  0
  -22.4730   -4.3260   21.3630 F   0  0  0  0  0  0  0  0  0  0  0  0
  -21.3480   -3.8410   25.9780 F   0  0  0  0  0  0  0  0  0  0  0  0
  -22.8100  -13.6080   21.1600 C   0  0  0  0  0  0  0  0  0  0  0  0
  -22.1040  -12.9040   22.0360 N   0  0  0  0  0  0  0  0  0  0  0  0
  -22.3550  -14.6300   20.6460 O   0  0  0  0  0  0  0  0  0  0  0  0
  -22.4880  -12.0790   22.4730 H   0  0  0  0  0  0  0  0  0  0  0  0
  -21.1660  -13.1940   22.2750 H   0  0  0  0  0  0  0  0  0  0  0  0
  -25.3850  -15.3240   20.3330 N   0  0  0  0  0  0  0  0  0  0  0  0
  -24.6050  -15.9600   20.4550 H   0  0  0  0  0  0  0  0  0  0  0  0
  -26.2100  -15.7740   19.9610 H   0  0  0  0  0  0  0  0  0  0  0  0
  -28.2400  -25.1360   20.2950 O   0  0  0  0  0  0  0  0  0  0  0  0
  -24.7470  -31.8500   23.2170 C   0  0  0  0  0  0  0  0  0  0  0  0
  -27.2690  -26.4750   20.2860 C   0  0  0  0  0  0  0  0  0  0  0  0
  -23.5860  -30.4530   21.5660 C   0  0  0  0  0  3  0  0  0  0  0  0
  -25.0430  -28.7310   20.1920 C   0  0  0  0  0  0  0  0  0  0  0  0
  -26.1780  -30.4840   21.5190 C   0  0  0  0  0  2  0  0  0  0  0  0
  -26.2360  -29.0140   20.8650 C   0  0  0  0  0  0  0  0  0  0  0  0
  -27.3130  -27.9260   20.8710 C   0  0  0  0  0  3  0  0  0  0  0  0
  -26.0420  -26.4920   19.5440 C   0  0  0  0  0  3  0  0  0  0  0  0
  -25.0060  -27.4990   19.5070 C   0  0  0  0  0  3  0  0  0  0  0  0
  -23.8570  -29.7290   20.2090 C   0  0  0  0  0  2  0  0  0  0  0  0
  -24.8650  -30.9700   22.1520 N   0  0  0  0  0  0  0  0  0  0  0  0
  -23.6430  -32.1690   23.6950 O   0  0  0  0  0  0  0  0  0  0  0  0
  -22.8210  -29.5080   22.5340 C   0  0  0  0  0  0  0  0  0  0  0  0
  -21.4840  -29.3890   22.4030 N   0  0  0  0  0  0  0  0  0  0  0  0
  -23.4490  -28.8730   23.3850 O   0  0  0  0  0  0  0  0  0  0  0  0
  -21.0220  -29.9500   21.7000 H   0  0  0  0  0  0  0  0  0  0  0  0
  -18.0670  -28.2410   22.9190 C   0  0  0  0  0  0  0  0  0  0  0  0
  -20.6350  -28.4610   23.1650 C   0  0  0  0  0  3  0  0  0  0  0  0
  -20.7020  -27.0340   22.5720 C   0  0  0  0  0  2  0  0  0  0  0  0
  -19.5910  -26.7490   21.5580 C   0  0  0  0  0  2  0  0  0  0  0  0
  -18.2150  -26.9040   22.2110 C   0  0  0  0  0  2  0  0  0  0  0  0
  -19.2010  -28.9800   23.3510 C   0  0  0  0  0  0  0  0  0  0  0  0
  -19.0020  -30.2270   23.9810 C   0  0  0  0  0  3  0  0  0  0  0  0
  -17.7050  -30.7380   24.1760 C   0  0  0  0  0  3  0  0  0  0  0  0
  -16.5870  -29.9980   23.7550 C   0  0  0  0  0  3  0  0  0  0  0  0
  -16.7680  -28.7500   23.1320 C   0  0  0  0  0  3  0  0  0  0  0  0
  -25.9900  -32.5100   23.8890 C   0  0  0  0  0  3  0  0  0  0  0  0
  -25.6520  -33.9070   24.2410 N   0  0  0  0  0  0  0  0  0  0  0  0
  -25.9660  -34.9920   23.5190 C   0  0  0  0  0  0  0  0  0  0  0  0
  -26.6190  -34.9220   22.4760 O   0  0  0  0  0  0  0  0  0  0  0  0
  -25.0650  -34.0320   25.0530 H   0  0  0  0  0  0  0  0  0  0  0  0
  -24.2060  -36.7850   23.2840 C   0  0  0  0  0  1  0  0  0  0  0  0
  -25.4860  -36.3700   24.0290 C   0  0  0  0  0  3  0  0  0  0  0  0
  -27.6390  -37.2800   24.7890 C   0  0  0  0  0  1  0  0  0  0  0  0
  -26.5000  -37.4410   23.8900 N   0  0  0  0  0  0  0  0  0  0  0  0
  -26.0860  -38.3530   24.0630 H   0  0  0  0  0  0  0  0  0  0  0  0
  -26.4670  -31.7450   25.1880 C   0  0  1  0  0  0  0  0  0  0  0  0
  -25.3420  -31.5140   26.2260 C   0  0  0  0  0  1  0  0  0  0  0  0
  -27.0610  -30.3640   24.8370 C   0  0  0  0  0  1  0  0  0  0  0  0
  -27.5990  -32.5420   25.8790 C   0  0  0  0  0  1  0  0  0  0  0  0
  1  2  1  0
  3  4  1  0
  3  6  2  0
  4  1  2  0
  5  2  2  0
  5 46  1  0
  6  5  1  0
  7  6  1  0
  8 16  1  0
  9 14  1  0
 10 11  1  0
 10  9  1  0
 12 11  1  0
 12 21  1  0
 12 13  1  0
 14  8  1  0
 14 13  1  0
 15  8  2  0
 16  4  1  0
 16 17  1  0
 18 19  2  0
 19 38  1  0
 20 19  1  0
 20 23  1  0
 21 22  1  0
 21 18  1  0
 22 20  2  0
 23 24  1  0
 24 25  2  0
 26 29  1  0
 26 25  1  0
 27 26  2  0
 28 27  1  0
 28 23  2  0
 29 30  1  0
 30 31  1  0
 31 32  2  0
 33 32  1  0
 33 37  1  0
 34 33  2  0
 35 30  2  0
 35 34  1  0
 36 35  1  0
 38 39  1  0
 39 42  1  0
 39 41  1  0
 40 38  2  0
 43 44  1  0
 43 18  1  0
 45 43  1  0
 47 58  2  0
 48 46  1  0
 48 53  1  0
 49 57  1  0
 49 59  1  0
 50 56  1  0
 50 52  1  0
 51 57  1  0
 52 53  2  0
 52 51  1  0
 54 48  2  0
 55 54  1  0
 55 50  2  0
 56 49  1  0
 57 47  1  0
 59 61  2  0
 60 59  1  0
 62 60  1  0
 63 72  2  0
 63 68  1  0
 64 60  1  0
 64 68  1  0
 65 64  1  0
 66 67  1  0
 66 65  1  0
 67 63  1  0
 68 69  2  0
 69 70  1  0
 71 70  2  0
 72 71  1  0
 73 47  1  0
 73 74  1  0
 73 83  1  0
 74 77  1  0
 75 79  1  0
 75 74  1  0
 76 75  2  0
 79 78  1  0
 81 79  1  0
 81 82  1  0
 81 80  1  0
 83 86  1  1
 83 84  1  0
 85 83  1  0
M  ISO  4   5 101   8 100  16 100  46 101
M  END
>  <TORSDO>  (33) 
F 16

>  <SCORE>  (33) 
-16.424

>  <name>  (33) 
32

>  <ligand_id>  (33) 
32

>  <original_smiles>  (33) 
[H]c1c([H])c([H])c2c(c1[H])C([H])([H])C([H])([H])C([H])([H])C2([H])N([H])C(=O)C1([H])N(C(=O)C([H])(N([H])C(=O)C([H])(N([H])C([H])([H])[H])C([H])([H])[H])C(C([H])([H])[H])(C([H])([H])[H])C([H])([H])[H])C([H])([H])c2c([H])c(Oc3c([H])c([H])c(N([H])C(=O)N4C([H])([H])C([H])([H])C([H])([H])C([H])(n5nc(-c6c([H])c([H])c(Oc7c([H])c([H])c(F)c([H])c7F)c([H])c6[H])c(C(=O)N([H])[H])c5N([H])[H])C4([H])[H])c([H])c3F)c([H])c([H])c2C1([H])[H]

>  <smiles>  (33) 
[H]c1c([H])c([H])c2c(c1[H])C([H])([H])C([H])([H])C([H])([H])C2([H])N([H])C(=O)C1([H])N(C(=O)C([H])(N([H])C(=O)C([H])(N([H])C([H])([H])[H])C([H])([H])[H])C(C([H])([H])[H])(C([H])([H])[H])C([H])([H])[H])C([H])([H])c2c([H])c(Oc3c([H])c([H])c(N([H])C(=O)N4C([H])([H])C([H])([H])C([H])([H])C([H])(n5nc(-c6c([H])c([H])c(Oc7c([H])c([H])c(F)c([H])c7F)c([H])c6[H])c(C(=O)N([H])[H])c5N([H])[H])C4([H])[H])c([H])c3F)c([H])c([H])c2C1([H])[H]

$$$$
33:0:0
     RDKit          3D

 94103  0  0  1  0  0  0  0  0999 V2000
  -31.3140  -19.1560   20.0510 C   0  0  0  0  0  3  0  0  0  0  0  0
  -29.1550  -18.0520   20.0110 C   0  0  0  0  0  3  0  0  0  0  0  0
  -30.7110  -20.3740   19.6710 C   0  0  0  0  0  3  0  0  0  0  0  0
  -28.5480  -19.2790   19.6350 C   0  0  0  0  0  3  0  0  0  0  0  0
  -30.5500  -17.9780   20.2320 C   0  0  0  0  0  0  0  0  0  0  0  0
  -29.3160  -20.4590   19.4660 C   0  0  0  0  0  0  0  0  0  0  0  0
  -30.8150  -14.5370   19.6730 C   0  0  0  0  0  0  0  0  0  0  0  0
  -30.2490  -12.4670   18.4240 C   0  0  0  0  0  2  0  0  0  0  0  0
  -29.1820  -12.7110   17.3390 C   0  0  0  0  0  2  0  0  0  0  0  0
  -27.7680  -12.5600   17.9270 C   0  0  0  0  0  2  0  0  0  0  0  0
  -27.5910  -13.3730   19.2330 C   0  0  0  0  0  3  0  0  0  0  0  0
  -28.7540  -13.1210   20.2100 C   0  0  0  0  0  2  0  0  0  0  0  0
  -30.0310  -13.4200   19.5330 N   0  0  0  0  0  0  0  0  0  0  0  0
  -31.7040  -14.7860   18.8510 O   0  0  0  0  0  0  0  0  0  0  0  0
  -31.5860  -15.5950   22.9090 C   0  0  0  0  0  2  0  0  0  0  0  0
  -31.5710  -16.9730   22.2890 C   0  0  0  0  0  2  0  0  0  0  0  0
  -30.5280  -14.8590   22.0990 C   0  0  0  0  0  2  0  0  0  0  0  0
  -31.2520  -16.7300   20.8070 C   0  0  0  0  0  3  0  0  0  0  0  0
  -30.5900  -15.3880   20.7240 N   0  0  0  0  0  0  0  0  0  0  0  0
  -25.3300  -13.9960   20.2930 C   0  0  0  0  0  0  0  0  0  0  0  0
  -24.2910  -13.2300   20.7510 C   0  0  0  0  0  0  0  0  0  0  0  0
  -24.6950  -11.8710   20.5750 C   0  0  0  0  0  0  0  0  0  0  0  0
  -26.3000  -13.1030   19.8660 N   0  0  0  0  0  0  0  0  0  0  0  0
  -25.9300  -11.8170   20.0950 N   0  0  0  0  0  0  0  0  0  0  0  0
  -23.9540  -10.6210   20.7790 C   0  0  0  0  0  0  0  0  0  0  0  0
  -24.4090   -9.6280   21.6770 C   0  0  0  0  0  3  0  0  0  0  0  0
  -23.6690   -8.4420   21.8690 C   0  0  0  0  0  3  0  0  0  0  0  0
  -22.4590   -8.2390   21.1650 C   0  0  0  0  0  0  0  0  0  0  0  0
  -22.0220   -9.2180   20.2560 C   0  0  0  0  0  3  0  0  0  0  0  0
  -22.7620  -10.3960   20.0620 C   0  0  0  0  0  3  0  0  0  0  0  0
  -21.6870   -7.1070   21.2680 O   0  0  0  0  0  0  0  0  0  0  0  0
  -21.6010   -6.3990   22.4390 C   0  0  0  0  0  0  0  0  0  0  0  0
  -21.1390   -6.9890   23.6350 C   0  0  0  0  0  3  0  0  0  0  0  0
  -21.0000   -6.2070   24.8000 C   0  0  0  0  0  3  0  0  0  0  0  0
  -21.3140   -4.8360   24.7690 C   0  0  0  0  0  0  0  0  0  0  0  0
  -21.7710   -4.2450   23.5770 C   0  0  0  0  0  3  0  0  0  0  0  0
  -21.9110   -5.0230   22.4150 C   0  0  0  0  0  0  0  0  0  0  0  0
  -22.3310   -4.4450   21.2650 F   0  0  0  0  0  0  0  0  0  0  0  0
  -21.1750   -4.0820   25.8840 F   0  0  0  0  0  0  0  0  0  0  0  0
  -22.9600  -13.7280   21.2350 C   0  0  0  0  0  0  0  0  0  0  0  0
  -22.3300  -13.0010   22.1520 N   0  0  0  0  0  0  0  0  0  0  0  0
  -22.4910  -14.7920   20.8350 O   0  0  0  0  0  0  0  0  0  0  0  0
  -22.7250  -12.1380   22.4950 H   0  0  0  0  0  0  0  0  0  0  0  0
  -21.4420  -13.3130   22.5170 H   0  0  0  0  0  0  0  0  0  0  0  0
  -25.5220  -15.3700   20.1850 N   0  0  0  0  0  0  0  0  0  0  0  0
  -24.8050  -16.0390   20.4410 H   0  0  0  0  0  0  0  0  0  0  0  0
  -26.3430  -15.8030   19.7800 H   0  0  0  0  0  0  0  0  0  0  0  0
  -28.6860  -21.7860   18.9940 C   0  0  0  0  0  2  0  0  0  0  0  0
  -28.6260  -22.8620   20.0220 N   0  0  0  0  0  4  0  0  0  0  0  0
  -29.4980  -22.8510   20.5260 H   0  0  0  0  0  0  0  0  0  0  0  0
  -27.8990  -22.6170   20.6750 H   0  0  0  0  0  0  0  0  0  0  0  0
  -28.3890  -24.2460   19.4840 C   0  0  0  0  0  2  0  0  0  0  0  0
  -28.2610  -25.3450   20.5820 C   0  0  0  0  0  2  0  0  0  0  0  0
  -28.3410  -26.7040   20.0910 O   0  0  0  0  0  0  0  0  0  0  0  0
  -24.5730  -31.9180   23.2020 C   0  0  0  0  0  0  0  0  0  0  0  0
  -27.1750  -27.4460   20.1160 C   0  0  0  0  0  0  0  0  0  0  0  0
  -23.3450  -30.5040   21.5870 C   0  0  0  0  0  3  0  0  0  0  0  0
  -24.7800  -28.9580   20.1500 C   0  0  0  0  0  0  0  0  0  0  0  0
  -25.8680  -30.8650   21.3460 C   0  0  0  0  0  2  0  0  0  0  0  0
  -25.9480  -29.4880   20.7130 C   0  0  0  0  0  0  0  0  0  0  0  0
  -27.1510  -28.7430   20.6850 C   0  0  0  0  0  3  0  0  0  0  0  0
  -25.9900  -26.9300   19.5490 C   0  0  0  0  0  3  0  0  0  0  0  0
  -24.7970  -27.6790   19.5630 C   0  0  0  0  0  3  0  0  0  0  0  0
  -23.5350  -29.8150   20.2090 C   0  0  0  0  0  2  0  0  0  0  0  0
  -24.6150  -31.1110   22.1030 N   0  0  0  0  0  0  0  0  0  0  0  0
  -23.4990  -32.1910   23.7570 O   0  0  0  0  0  0  0  0  0  0  0  0
  -22.7110  -29.4880   22.5630 C   0  0  0  0  0  0  0  0  0  0  0  0
  -21.3890  -29.2780   22.4360 N   0  0  0  0  0  0  0  0  0  0  0  0
  -23.4040  -28.8890   23.3910 O   0  0  0  0  0  0  0  0  0  0  0  0
  -20.8920  -29.8140   21.7390 H   0  0  0  0  0  0  0  0  0  0  0  0
  -18.0390  -28.0210   22.9370 C   0  0  0  0  0  0  0  0  0  0  0  0
  -20.5900  -28.3380   23.2190 C   0  0  0  0  0  3  0  0  0  0  0  0
  -20.7250  -26.8980   22.6700 C   0  0  0  0  0  2  0  0  0  0  0  0
  -19.6360  -26.5350   21.6550 C   0  0  0  0  0  2  0  0  0  0  0  0
  -18.2480  -26.6630   22.2890 C   0  0  0  0  0  2  0  0  0  0  0  0
  -19.1390  -28.8140   23.3590 C   0  0  0  0  0  0  0  0  0  0  0  0
  -18.8900  -30.0840   23.9250 C   0  0  0  0  0  3  0  0  0  0  0  0
  -17.5750  -30.5610   24.0730 C   0  0  0  0  0  3  0  0  0  0  0  0
  -16.4890  -29.7660   23.6680 C   0  0  0  0  0  3  0  0  0  0  0  0
  -16.7220  -28.4970   23.1050 C   0  0  0  0  0  3  0  0  0  0  0  0
  -25.8670  -32.5550   23.7990 C   0  0  0  0  0  3  0  0  0  0  0  0
  -26.4270  -31.7710   25.0490 C   0  0  1  0  0  0  0  0  0  0  0  0
  -25.3590  -31.4720   26.1250 C   0  0  0  0  0  1  0  0  0  0  0  0
  -27.0490  -30.4230   24.6120 C   0  0  0  0  0  1  0  0  0  0  0  0
  -27.5620  -32.5860   25.7140 C   0  0  0  0  0  1  0  0  0  0  0  0
  -25.5520  -33.9440   24.1560 N   0  0  0  0  0  0  0  0  0  0  0  0
  -25.8480  -35.0100   23.4000 C   0  0  0  0  0  0  0  0  0  0  0  0
  -26.4870  -34.9280   22.3480 O   0  0  0  0  0  0  0  0  0  0  0  0
  -24.9800  -34.0820   24.9770 H   0  0  0  0  0  0  0  0  0  0  0  0
  -24.0890  -36.7850   23.1180 C   0  0  0  0  0  1  0  0  0  0  0  0
  -25.3570  -36.3870   23.8900 C   0  0  0  0  0  3  0  0  0  0  0  0
  -27.5000  -37.2910   24.6770 C   0  0  0  0  0  1  0  0  0  0  0  0
  -26.3740  -37.4530   23.7610 N   0  0  0  0  0  0  0  0  0  0  0  0
  -25.9600  -38.3670   23.9260 H   0  0  0  0  0  0  0  0  0  0  0  0
  1  5  1  0
  2  5  2  0
  3  1  2  0
  4  2  1  0
  6  4  2  0
  6  3  1  0
  7 19  1  0
  8 13  1  0
  9 10  1  0
  9  8  1  0
 11 10  1  0
 11 23  1  0
 11 12  1  0
 13  7  1  0
 13 12  1  0
 14  7  2  0
 16 15  1  0
 17 15  1  0
 18  5  1  0
 18 16  1  0
 19 18  1  0
 19 17  1  0
 20 21  2  0
 21 40  1  0
 22 21  1  0
 22 25  1  0
 23 24  1  0
 23 20  1  0
 24 22  2  0
 25 26  1  0
 26 27  2  0
 28 31  1  0
 28 27  1  0
 29 28  2  0
 30 29  1  0
 30 25  2  0
 31 32  1  0
 32 33  1  0
 33 34  2  0
 35 34  1  0
 35 39  1  0
 36 35  2  0
 37 32  2  0
 37 36  1  0
 38 37  1  0
 40 41  1  0
 41 43  1  0
 41 44  1  0
 42 40  2  0
 45 20  1  0
 45 46  1  0
 47 45  1  0
 48  6  1  0
 48 49  1  0
 49 50  1  0
 49 51  1  0
 52 49  1  0
 52 53  1  0
 54 56  1  0
 54 53  1  0
 55 66  2  0
 56 61  1  0
 57 65  1  0
 57 67  1  0
 58 64  1  0
 58 60  1  0
 59 65  1  0
 60 59  1  0
 61 60  2  0
 62 63  1  0
 62 56  2  0
 63 58  2  0
 64 57  1  0
 65 55  1  0
 67 69  2  0
 68 67  1  0
 70 68  1  0
 71 80  2  0
 71 76  1  0
 72 68  1  0
 72 76  1  0
 73 72  1  0
 74 75  1  0
 74 73  1  0
 75 71  1  0
 76 77  2  0
 77 78  1  0
 79 78  2  0
 80 79  1  0
 81 55  1  0
 81 86  1  0
 81 82  1  0
 82 85  1  1
 82 83  1  0
 84 82  1  0
 86 89  1  0
 87 91  1  0
 87 86  1  0
 88 87  2  0
 91 90  1  0
 93 91  1  0
 93 94  1  0
 93 92  1  0
M  ISO  4   7 100  19 100  53 101  54 101
M  END
>  <TORSDO>  (34) 
F 20

>  <SCORE>  (34) 
-10.116

>  <name>  (34) 
33

>  <ligand_id>  (34) 
33

>  <original_smiles>  (34) 
[H]c1c([H])c([H])c2c(c1[H])C([H])([H])C([H])([H])C([H])([H])C2([H])N([H])C(=O)C1([H])N(C(=O)C([H])(N([H])C(=O)C([H])(N([H])C([H])([H])[H])C([H])([H])[H])C(C([H])([H])[H])(C([H])([H])[H])C([H])([H])[H])C([H])([H])c2c([H])c(OC([H])([H])C([H])([H])[N+]([H])([H])C([H])([H])c3c([H])c([H])c(C4([H])N(C(=O)N5C([H])([H])C([H])([H])C([H])([H])C([H])(n6nc(-c7c([H])c([H])c(Oc8c([H])c([H])c(F)c([H])c8F)c([H])c7[H])c(C(=O)N([H])[H])c6N([H])[H])C5([H])[H])C([H])([H])C([H])([H])C4([H])[H])c([H])c3[H])c([H])c([H])c2C1([H])[H]

>  <smiles>  (34) 
[H]c1c([H])c([H])c2c(c1[H])C([H])([H])C([H])([H])C([H])([H])C2([H])N([H])C(=O)C1([H])N(C(=O)C([H])(N([H])C(=O)C([H])(N([H])C([H])([H])[H])C([H])([H])[H])C(C([H])([H])[H])(C([H])([H])[H])C([H])([H])[H])C([H])([H])c2c([H])c(OC([H])([H])C([H])([H])[N+]([H])([H])C([H])([H])c3c([H])c([H])c(C4([H])N(C(=O)N5C([H])([H])C([H])([H])C([H])([H])C([H])(n6nc(-c7c([H])c([H])c(Oc8c([H])c([H])c(F)c([H])c8F)c([H])c7[H])c(C(=O)N([H])[H])c6N([H])[H])C5([H])[H])C([H])([H])C([H])([H])C4([H])[H])c([H])c3[H])c([H])c([H])c2C1([H])[H]

$$$$
34:0:0
     RDKit          3D

 94103  0  0  1  0  0  0  0  0999 V2000
  -29.6330  -21.1300   19.8200 C   0  0  0  0  0  0  0  0  0  0  0  0
  -29.7650  -21.1820   18.4980 N   0  0  0  0  0  4  0  0  0  0  0  0
  -29.2780  -22.3230   20.4580 N   0  0  0  0  0  0  0  0  0  0  0  0
  -30.1000  -20.3670   18.0080 H   0  0  0  0  0  0  0  0  0  0  0  0
  -29.5380  -22.0040   17.9650 H   0  0  0  0  0  0  0  0  0  0  0  0
  -29.0790  -22.2060   21.4450 H   0  0  0  0  0  0  0  0  0  0  0  0
  -30.6790  -14.8230   19.7730 C   0  0  0  0  0  0  0  0  0  0  0  0
  -30.3300  -12.6440   18.5460 C   0  0  0  0  0  2  0  0  0  0  0  0
  -29.2690  -12.7990   17.4320 C   0  0  0  0  0  2  0  0  0  0  0  0
  -27.8480  -12.5880   17.9940 C   0  0  0  0  0  2  0  0  0  0  0  0
  -27.6100  -13.3870   19.3000 C   0  0  0  0  0  3  0  0  0  0  0  0
  -28.7700  -13.1850   20.2930 C   0  0  0  0  0  2  0  0  0  0  0  0
  -30.0180  -13.6110   19.6300 N   0  0  0  0  0  0  0  0  0  0  0  0
  -31.7080  -15.0300   19.1200 O   0  0  0  0  0  0  0  0  0  0  0  0
  -30.6450  -19.9600   21.7590 C   0  0  0  0  0  3  0  0  0  0  0  0
  -31.0980  -18.8600   22.5070 C   0  0  0  0  0  3  0  0  0  0  0  0
  -29.8600  -18.4180   20.0080 C   0  0  0  0  0  3  0  0  0  0  0  0
  -30.0000  -19.7990   20.5100 C   0  0  0  0  0  0  0  0  0  0  0  0
  -30.9140  -17.5590   22.0150 C   0  0  0  0  0  0  0  0  0  0  0  0
  -30.3330  -17.2620   20.7740 C   0  0  0  0  0  0  0  0  0  0  0  0
  -31.2320  -16.3270   22.7950 C   0  0  0  0  0  2  0  0  0  0  0  0
  -30.3850  -15.2780   22.0760 C   0  0  0  0  0  2  0  0  0  0  0  0
  -30.2000  -15.7650   20.6890 N   0  0  0  0  0  0  0  0  0  0  0  0
  -25.3050  -13.9450   20.2860 C   0  0  0  0  0  0  0  0  0  0  0  0
  -24.2810  -13.1540   20.7340 C   0  0  0  0  0  0  0  0  0  0  0  0
  -24.7400  -11.8070   20.6110 C   0  0  0  0  0  0  0  0  0  0  0  0
  -26.3190  -13.0780   19.9110 N   0  0  0  0  0  0  0  0  0  0  0  0
  -25.9920  -11.7860   20.1700 N   0  0  0  0  0  0  0  0  0  0  0  0
  -24.0360  -10.5360   20.8300 C   0  0  0  0  0  0  0  0  0  0  0  0
  -24.5160   -9.5730   21.7470 C   0  0  0  0  0  3  0  0  0  0  0  0
  -23.8120   -8.3680   21.9520 C   0  0  0  0  0  3  0  0  0  0  0  0
  -22.6140   -8.1140   21.2420 C   0  0  0  0  0  0  0  0  0  0  0  0
  -22.1530   -9.0650   20.3140 C   0  0  0  0  0  3  0  0  0  0  0  0
  -22.8590  -10.2620   20.1060 C   0  0  0  0  0  3  0  0  0  0  0  0
  -21.8770   -6.9610   21.3580 O   0  0  0  0  0  0  0  0  0  0  0  0
  -21.8180   -6.2590   22.5360 C   0  0  0  0  0  0  0  0  0  0  0  0
  -21.3660   -6.8520   23.7350 C   0  0  0  0  0  3  0  0  0  0  0  0
  -21.2560   -6.0760   24.9060 C   0  0  0  0  0  3  0  0  0  0  0  0
  -21.5860   -4.7080   24.8780 C   0  0  0  0  0  0  0  0  0  0  0  0
  -22.0300   -4.1140   23.6830 C   0  0  0  0  0  3  0  0  0  0  0  0
  -22.1420   -4.8880   22.5150 C   0  0  0  0  0  0  0  0  0  0  0  0
  -22.5500   -4.3060   21.3610 F   0  0  0  0  0  0  0  0  0  0  0  0
  -21.4740   -3.9600   26.0010 F   0  0  0  0  0  0  0  0  0  0  0  0
  -22.9160  -13.6160   21.1590 C   0  0  0  0  0  0  0  0  0  0  0  0
  -22.2830  -12.8960   22.0810 N   0  0  0  0  0  0  0  0  0  0  0  0
  -22.4220  -14.6490   20.7100 O   0  0  0  0  0  0  0  0  0  0  0  0
  -22.6960  -12.0620   22.4690 H   0  0  0  0  0  0  0  0  0  0  0  0
  -21.3700  -13.1870   22.4030 H   0  0  0  0  0  0  0  0  0  0  0  0
  -25.4530  -15.3220   20.1440 N   0  0  0  0  0  0  0  0  0  0  0  0
  -24.7120  -15.9750   20.3700 H   0  0  0  0  0  0  0  0  0  0  0  0
  -26.2800  -15.7750   19.7760 H   0  0  0  0  0  0  0  0  0  0  0  0
  -29.3810  -23.8170   20.0260 C   0  0  0  0  0  3  0  0  0  0  0  0
  -28.2300  -24.9090   20.3960 C   0  0  0  0  0  3  0  0  0  0  0  0
  -28.4550  -26.4130   20.3210 O   0  0  0  0  0  0  0  0  0  0  0  0
  -24.6830  -31.9500   23.2260 C   0  0  0  0  0  0  0  0  0  0  0  0
  -27.3460  -27.3020   20.2680 C   0  0  0  0  0  0  0  0  0  0  0  0
  -23.5070  -30.5130   21.6050 C   0  0  0  0  0  3  0  0  0  0  0  0
  -24.9790  -28.9480   20.2140 C   0  0  0  0  0  0  0  0  0  0  0  0
  -26.0510  -30.8320   21.4390 C   0  0  0  0  0  2  0  0  0  0  0  0
  -26.1460  -29.4390   20.8130 C   0  0  0  0  0  0  0  0  0  0  0  0
  -27.3330  -28.6310   20.8230 C   0  0  0  0  0  3  0  0  0  0  0  0
  -26.1520  -26.8890   19.6350 C   0  0  0  0  0  3  0  0  0  0  0  0
  -24.9880  -27.6830   19.6120 C   0  0  0  0  0  3  0  0  0  0  0  0
  -23.7380  -29.8210   20.2380 C   0  0  0  0  0  2  0  0  0  0  0  0
  -24.7660  -31.1180   22.1460 N   0  0  0  0  0  0  0  0  0  0  0  0
  -23.5930  -32.2270   23.7470 O   0  0  0  0  0  0  0  0  0  0  0  0
  -22.8440  -29.5060   22.5770 C   0  0  0  0  0  0  0  0  0  0  0  0
  -21.5240  -29.2950   22.4270 N   0  0  0  0  0  0  0  0  0  0  0  0
  -23.5160  -28.9190   23.4280 O   0  0  0  0  0  0  0  0  0  0  0  0
  -21.0390  -29.8200   21.7130 H   0  0  0  0  0  0  0  0  0  0  0  0
  -18.1750  -27.9880   22.8560 C   0  0  0  0  0  0  0  0  0  0  0  0
  -20.7100  -28.3600   23.2070 C   0  0  0  0  0  3  0  0  0  0  0  0
  -20.8880  -26.9110   22.6970 C   0  0  0  0  0  2  0  0  0  0  0  0
  -19.8380  -26.5030   21.6580 C   0  0  0  0  0  2  0  0  0  0  0  0
  -18.4280  -26.6200   22.2440 C   0  0  0  0  0  2  0  0  0  0  0  0
  -19.2480  -28.8110   23.2930 C   0  0  0  0  0  0  0  0  0  0  0  0
  -18.9580  -30.0870   23.8240 C   0  0  0  0  0  3  0  0  0  0  0  0
  -17.6300  -30.5420   23.9210 C   0  0  0  0  0  3  0  0  0  0  0  0
  -16.5720  -29.7190   23.4990 C   0  0  0  0  0  3  0  0  0  0  0  0
  -16.8450  -28.4440   22.9730 C   0  0  0  0  0  3  0  0  0  0  0  0
  -25.9530  -32.6090   23.8460 C   0  0  0  0  0  3  0  0  0  0  0  0
  -25.6190  -34.0050   24.1660 N   0  0  0  0  0  0  0  0  0  0  0  0
  -25.9430  -35.0600   23.4070 C   0  0  0  0  0  0  0  0  0  0  0  0
  -26.6250  -34.9610   22.3820 O   0  0  0  0  0  0  0  0  0  0  0  0
  -25.0120  -34.1530   24.9590 H   0  0  0  0  0  0  0  0  0  0  0  0
  -24.1970  -36.8310   23.0250 C   0  0  0  0  0  1  0  0  0  0  0  0
  -25.4340  -36.4440   23.8520 C   0  0  0  0  0  3  0  0  0  0  0  0
  -27.5490  -37.3560   24.7010 C   0  0  0  0  0  1  0  0  0  0  0  0
  -26.4540  -37.5110   23.7470 N   0  0  0  0  0  0  0  0  0  0  0  0
  -26.0350  -38.4260   23.8900 H   0  0  0  0  0  0  0  0  0  0  0  0
  -26.4750  -31.8570   25.1330 C   0  0  1  0  0  0  0  0  0  0  0  0
  -25.3800  -31.6090   26.1970 C   0  0  0  0  0  1  0  0  0  0  0  0
  -27.0830  -30.4840   24.7590 C   0  0  0  0  0  1  0  0  0  0  0  0
  -27.6080  -32.6760   25.7940 C   0  0  0  0  0  1  0  0  0  0  0  0
  1  3  1  0
  1 18  1  0
  2  1  2  0
  3  6  1  0
  4  2  1  0
  5  2  1  0
  7 23  1  0
  8 13  1  0
  9 10  1  0
  9  8  1  0
 11 10  1  0
 11 27  1  0
 11 12  1  0
 13  7  1  0
 13 12  1  0
 14  7  2  0
 15 16  1  0
 17 18  1  0
 17 20  2  0
 18 15  2  0
 19 16  2  0
 19 21  1  0
 20 19  1  0
 22 21  1  0
 23 20  1  0
 23 22  1  0
 24 25  2  0
 25 44  1  0
 26 25  1  0
 26 29  1  0
 27 28  1  0
 27 24  1  0
 28 26  2  0
 29 30  1  0
 30 31  2  0
 32 35  1  0
 32 31  1  0
 33 32  2  0
 34 33  1  0
 34 29  2  0
 35 36  1  0
 36 37  1  0
 37 38  2  0
 39 38  1  0
 39 43  1  0
 40 39  2  0
 41 36  2  0
 41 40  1  0
 42 41  1  0
 44 45  1  0
 45 48  1  0
 45 47  1  0
 46 44  2  0
 49 24  1  0
 49 50  1  0
 51 49  1  0
 52 53  2  0
 52  3  1  0
 54 53  1  0
 55 66  2  0
 56 54  1  0
 56 61  1  0
 57 65  1  0
 57 67  1  0
 58 64  1  0
 58 60  1  0
 59 65  1  0
 60 61  2  0
 60 59  1  0
 62 56  2  0
 63 62  1  0
 63 58  2  0
 64 57  1  0
 65 55  1  0
 67 69  2  0
 68 67  1  0
 70 68  1  0
 71 80  2  0
 71 76  1  0
 72 68  1  0
 72 76  1  0
 73 72  1  0
 74 75  1  0
 74 73  1  0
 75 71  1  0
 76 77  2  0
 77 78  1  0
 79 78  2  0
 80 79  1  0
 81 55  1  0
 81 82  1  0
 81 91  1  0
 82 85  1  0
 83 87  1  0
 83 82  1  0
 84 83  2  0
 87 86  1  0
 89 87  1  0
 89 90  1  0
 89 88  1  0
 91 94  1  1
 91 92  1  0
 93 91  1  0
M  ISO  4   7 100  23 100  53 101  54 101
M  END
>  <TORSDO>  (35) 
F 18

>  <SCORE>  (35) 
-12.678

>  <name>  (35) 
34

>  <ligand_id>  (35) 
34

>  <original_smiles>  (35) 
[H]c1c([H])c([H])c2c(c1[H])C([H])([H])C([H])([H])C([H])([H])C2([H])N([H])C(=O)C1([H])N(C(=O)C([H])(N([H])C(=O)C([H])(N([H])C([H])([H])[H])C([H])([H])[H])C(C([H])([H])[H])(C([H])([H])[H])C([H])([H])[H])C([H])([H])c2c([H])c(OC([H])([H])C([H])([H])[N+]([H])=C(c3c([H])c([H])c4c(c3[H])N(C(=O)N3C([H])([H])C([H])([H])C([H])([H])C([H])(n5nc(-c6c([H])c([H])c(Oc7c([H])c([H])c(F)c([H])c7F)c([H])c6[H])c(C(=O)N([H])[H])c5N([H])[H])C3([H])[H])C([H])([H])C4([H])[H])N([H])[H])c([H])c([H])c2C1([H])[H]

>  <smiles>  (35) 
[H]c1c([H])c([H])c2c(c1[H])C([H])([H])C([H])([H])C([H])([H])C2([H])N([H])C(=O)C1([H])N(C(=O)C([H])(N([H])C(=O)C([H])(N([H])C([H])([H])[H])C([H])([H])[H])C(C([H])([H])[H])(C([H])([H])[H])C([H])([H])[H])C([H])([H])c2c([H])c(OC([H])([H])C([H])([H])[N+]([H])=C(c3c([H])c([H])c4c(c3[H])N(C(=O)N3C([H])([H])C([H])([H])C([H])([H])C([H])(n5nc(-c6c([H])c([H])c(Oc7c([H])c([H])c(F)c([H])c7F)c([H])c6[H])c(C(=O)N([H])[H])c5N([H])[H])C3([H])[H])C([H])([H])C4([H])[H])N([H])[H])c([H])c([H])c2C1([H])[H]

$$$$
35:0:0
     RDKit          3D

100109  0  0  1  0  0  0  0  0999 V2000
  -29.3320  -22.4720   23.0100 C   0  0  0  0  0  0  0  0  0  0  0  0
  -30.3210  -22.3690   23.9070 N   0  0  0  0  0  0  0  0  0  0  0  0
  -28.8040  -21.4780   22.5070 O   0  0  0  0  0  0  0  0  0  0  0  0
  -30.7280  -23.2220   24.2720 H   0  0  0  0  0  0  0  0  0  0  0  0
  -26.9120  -23.3660   21.2070 C   0  0  0  0  0  2  0  0  0  0  0  0
  -27.2700  -23.8570   22.6140 C   0  0  0  0  0  2  0  0  0  0  0  0
  -28.1410  -23.6990   20.3500 C   0  0  0  0  0  2  0  0  0  0  0  0
  -28.8050  -23.8740   22.6400 C   0  0  0  0  0  3  0  0  0  0  0  0
  -29.2060  -24.2140   21.2500 N   0  0  2  0  0  4  0  0  0  0  0  0
  -30.0410  -23.6700   21.0950 H   0  0  0  0  0  0  0  0  0  0  0  0
  -29.5440  -25.6530   21.0230 C   0  0  0  0  0  2  0  0  0  0  0  0
  -30.3150  -25.9190   19.7000 C   0  0  0  0  0  2  0  0  0  0  0  0
  -29.4660  -26.5320   18.5780 C   0  0  0  0  0  2  0  0  0  0  0  0
  -29.1490  -27.8680   18.9770 O   0  0  0  0  0  0  0  0  0  0  0  0
  -24.6460  -31.3630   23.2060 C   0  0  0  0  0  0  0  0  0  0  0  0
  -27.8390  -28.2350   19.1870 C   0  0  0  0  0  0  0  0  0  0  0  0
  -23.6010  -29.9950   21.4270 C   0  0  0  0  0  3  0  0  0  0  0  0
  -25.1890  -29.1090   19.6430 C   0  0  0  0  0  0  0  0  0  0  0  0
  -25.9380  -30.9770   21.1120 C   0  0  0  0  0  2  0  0  0  0  0  0
  -26.2590  -29.7800   20.2450 C   0  0  0  0  0  0  0  0  0  0  0  0
  -27.5820  -29.3360   20.0370 C   0  0  0  0  0  3  0  0  0  0  0  0
  -26.7410  -27.5840   18.5740 C   0  0  0  0  0  3  0  0  0  0  0  0
  -25.4240  -28.0010   18.8140 C   0  0  0  0  0  3  0  0  0  0  0  0
  -23.8010  -29.6310   19.9290 C   0  0  0  0  0  2  0  0  0  0  0  0
  -24.7510  -30.7850   21.9770 N   0  0  0  0  0  0  0  0  0  0  0  0
  -23.6020  -31.2780   23.8660 O   0  0  0  0  0  0  0  0  0  0  0  0
  -23.3140  -28.7010   22.2250 C   0  0  0  0  0  0  0  0  0  0  0  0
  -22.1220  -28.1210   22.0150 N   0  0  0  0  0  0  0  0  0  0  0  0
  -24.1560  -28.2280   22.9920 O   0  0  0  0  0  0  0  0  0  0  0  0
  -21.4780  -28.5750   21.3830 H   0  0  0  0  0  0  0  0  0  0  0  0
  -19.4060  -25.7460   22.0090 C   0  0  0  0  0  0  0  0  0  0  0  0
  -21.6430  -26.8840   22.6310 C   0  0  0  0  0  3  0  0  0  0  0  0
  -22.3320  -25.6510   22.0000 C   0  0  0  0  0  2  0  0  0  0  0  0
  -21.5380  -25.0470   20.8380 C   0  0  0  0  0  2  0  0  0  0  0  0
  -20.1420  -24.6220   21.3010 C   0  0  0  0  0  2  0  0  0  0  0  0
  -20.1110  -26.8160   22.6230 C   0  0  0  0  0  0  0  0  0  0  0  0
  -19.3750  -27.8570   23.2330 C   0  0  0  0  0  3  0  0  0  0  0  0
  -17.9680  -27.8300   23.2520 C   0  0  0  0  0  3  0  0  0  0  0  0
  -17.2800  -26.7530   22.6650 C   0  0  0  0  0  3  0  0  0  0  0  0
  -17.9960  -25.7160   22.0410 C   0  0  0  0  0  3  0  0  0  0  0  0
  -25.8240  -32.1730   23.8300 C   0  0  0  0  0  3  0  0  0  0  0  0
  -25.3280  -33.5230   24.1220 N   0  0  0  0  0  0  0  0  0  0  0  0
  -25.5770  -34.6040   23.3700 C   0  0  0  0  0  0  0  0  0  0  0  0
  -26.3260  -34.5810   22.3880 O   0  0  0  0  0  0  0  0  0  0  0  0
  -24.6660  -33.6110   24.8800 H   0  0  0  0  0  0  0  0  0  0  0  0
  -23.6810  -36.1750   22.8630 C   0  0  0  0  0  1  0  0  0  0  0  0
  -24.8890  -35.9190   23.7770 C   0  0  0  0  0  3  0  0  0  0  0  0
  -26.8420  -37.0410   24.7520 C   0  0  0  0  0  1  0  0  0  0  0  0
  -25.7880  -37.0920   23.7420 N   0  0  0  0  0  0  0  0  0  0  0  0
  -25.2640  -37.9500   23.8790 H   0  0  0  0  0  0  0  0  0  0  0  0
  -26.4190  -31.5030   25.1270 C   0  0  1  0  0  0  0  0  0  0  0  0
  -25.3460  -31.1240   26.1740 C   0  0  0  0  0  1  0  0  0  0  0  0
  -27.2060  -30.2220   24.7680 C   0  0  0  0  0  1  0  0  0  0  0  0
  -27.4280  -32.4610   25.8050 C   0  0  0  0  0  1  0  0  0  0  0  0
  -30.7770  -21.1090   24.4980 C   0  0  0  0  0  2  0  0  0  0  0  0
  -30.9090  -18.6860   23.7370 C   0  0  0  0  0  3  0  0  0  0  0  0
  -31.9130  -20.4030   22.3240 C   0  0  0  0  0  3  0  0  0  0  0  0
  -31.3270  -17.6900   22.8310 C   0  0  0  0  0  3  0  0  0  0  0  0
  -32.3290  -19.4080   21.4190 C   0  0  0  0  0  3  0  0  0  0  0  0
  -31.2100  -20.0450   23.4950 C   0  0  0  0  0  0  0  0  0  0  0  0
  -32.0430  -18.0510   21.6680 C   0  0  0  0  0  0  0  0  0  0  0  0
  -32.5610  -17.0060   20.6930 C   0  0  0  0  0  2  0  0  0  0  0  0
  -31.8700  -14.9580   19.5250 C   0  0  0  0  0  0  0  0  0  0  0  0
  -31.4070  -12.6480   18.8070 C   0  0  0  0  0  2  0  0  0  0  0  0
  -30.3520  -12.5720   17.6900 C   0  0  0  0  0  2  0  0  0  0  0  0
  -28.9350  -12.5280   18.2850 C   0  0  0  0  0  2  0  0  0  0  0  0
  -28.6960  -13.6490   19.3300 C   0  0  0  0  0  3  0  0  0  0  0  0
  -29.8460  -13.7020   20.3600 C   0  0  0  0  0  2  0  0  0  0  0  0
  -31.1240  -13.8290   19.6350 N   0  0  0  0  0  0  0  0  0  0  0  0
  -32.7740  -15.0920   18.6950 O   0  0  0  0  0  0  0  0  0  0  0  0
  -31.6560  -15.8840   20.4640 N   0  0  0  0  0  0  0  0  0  0  0  0
  -30.8970  -15.7380   21.1110 H   0  0  0  0  0  0  0  0  0  0  0  0
  -26.5510  -14.4630   20.5050 C   0  0  0  0  0  0  0  0  0  0  0  0
  -25.4330  -13.7980   20.9300 C   0  0  0  0  0  0  0  0  0  0  0  0
  -25.6540  -12.4200   20.6320 C   0  0  0  0  0  0  0  0  0  0  0  0
  -27.3960  -13.4960   19.9810 N   0  0  0  0  0  0  0  0  0  0  0  0
  -26.8650  -12.2510   20.1120 N   0  0  0  0  0  0  0  0  0  0  0  0
  -24.7650  -11.2570   20.7560 C   0  0  0  0  0  0  0  0  0  0  0  0
  -25.1120  -10.1460   21.5550 C   0  0  0  0  0  3  0  0  0  0  0  0
  -24.2320   -9.0480   21.6730 C   0  0  0  0  0  3  0  0  0  0  0  0
  -22.9910   -9.0570   20.9930 C   0  0  0  0  0  0  0  0  0  0  0  0
  -22.6610  -10.1580   20.1830 C   0  0  0  0  0  3  0  0  0  0  0  0
  -23.5390  -11.2470   20.0620 C   0  0  0  0  0  3  0  0  0  0  0  0
  -22.0830   -8.0250   21.0290 O   0  0  0  0  0  0  0  0  0  0  0  0
  -21.8830   -7.2820   22.1650 C   0  0  0  0  0  0  0  0  0  0  0  0
  -21.4810   -7.8740   23.3830 C   0  0  0  0  0  3  0  0  0  0  0  0
  -21.2200   -7.0650   24.5060 C   0  0  0  0  0  3  0  0  0  0  0  0
  -21.3510   -5.6670   24.4140 C   0  0  0  0  0  0  0  0  0  0  0  0
  -21.7470   -5.0750   23.2020 C   0  0  0  0  0  3  0  0  0  0  0  0
  -22.0110   -5.8800   22.0790 C   0  0  0  0  0  0  0  0  0  0  0  0
  -22.3700   -5.3030   20.9080 F   0  0  0  0  0  0  0  0  0  0  0  0
  -21.0940   -4.8890   25.4910 F   0  0  0  0  0  0  0  0  0  0  0  0
  -24.1820  -14.4150   21.4940 C   0  0  0  0  0  0  0  0  0  0  0  0
  -23.4960  -13.7050   22.3820 N   0  0  0  0  0  0  0  0  0  0  0  0
  -23.8370  -15.5550   21.1860 O   0  0  0  0  0  0  0  0  0  0  0  0
  -23.7900  -12.7790   22.6550 H   0  0  0  0  0  0  0  0  0  0  0  0
  -22.6600  -14.0950   22.7950 H   0  0  0  0  0  0  0  0  0  0  0  0
  -26.9120  -15.8070   20.5020 N   0  0  0  0  0  0  0  0  0  0  0  0
  -26.2980  -16.5350   20.8500 H   0  0  0  0  0  0  0  0  0  0  0  0
  -27.7830  -16.1690   20.1330 H   0  0  0  0  0  0  0  0  0  0  0  0
  1  2  1  0
  2  4  1  0
  2 55  1  0
  3  1  2  0
  5  6  1  0
  6  8  1  0
  7  5  1  0
  7  9  1  0
  8  1  1  0
  9  8  1  0
  9 10  1  6
 11  9  1  0
 12 11  1  0
 13 14  1  0
 13 12  1  0
 14 16  1  0
 15 26  2  0
 16 21  1  0
 17 25  1  0
 17 27  1  0
 18 24  1  0
 18 20  1  0
 19 25  1  0
 20 19  1  0
 21 20  2  0
 22 23  1  0
 22 16  2  0
 23 18  2  0
 24 17  1  0
 25 15  1  0
 27 29  2  0
 28 27  1  0
 30 28  1  0
 31 40  2  0
 31 36  1  0
 32 28  1  0
 33 32  1  0
 34 35  1  0
 34 33  1  0
 35 31  1  0
 36 32  1  0
 36 37  2  0
 37 38  1  0
 39 38  2  0
 40 39  1  0
 41 15  1  0
 41 42  1  0
 41 51  1  0
 42 45  1  0
 43 47  1  0
 43 42  1  0
 44 43  2  0
 47 46  1  0
 49 47  1  0
 49 50  1  0
 49 48  1  0
 51 54  1  1
 51 52  1  0
 53 51  1  0
 57 60  2  0
 58 56  2  0
 59 61  2  0
 59 57  1  0
 60 56  1  0
 60 55  1  0
 61 58  1  0
 62 61  1  0
 63 69  1  0
 63 71  1  0
 64 69  1  0
 65 66  1  0
 65 64  1  0
 67 66  1  0
 67 76  1  0
 67 68  1  0
 69 68  1  0
 70 63  2  0
 71 62  1  0
 71 72  1  0
 73 74  2  0
 74 93  1  0
 75 78  1  0
 75 74  1  0
 76 77  1  0
 76 73  1  0
 77 75  2  0
 78 79  1  0
 79 80  2  0
 81 84  1  0
 81 80  1  0
 82 81  2  0
 83 82  1  0
 83 78  2  0
 84 85  1  0
 85 86  1  0
 86 87  2  0
 88 87  1  0
 88 92  1  0
 89 88  2  0
 90 85  2  0
 90 89  1  0
 91 90  1  0
 93 94  1  0
 94 96  1  0
 94 97  1  0
 95 93  2  0
 98 73  1  0
 98 99  1  0
100 98  1  0
M  ISO  4  13 101  14 101  63 100  71 100
M  END
>  <TORSDO>  (36) 
F 23

>  <SCORE>  (36) 
-6.416

>  <name>  (36) 
35

>  <ligand_id>  (36) 
35

>  <original_smiles>  (36) 
[H]c1c([H])c([H])c2c(c1[H])C([H])([H])C([H])([H])C([H])([H])C2([H])N([H])C(=O)C1([H])N(C(=O)C([H])(N([H])C(=O)C([H])(N([H])C([H])([H])[H])C([H])([H])[H])C(C([H])([H])[H])(C([H])([H])[H])C([H])([H])[H])C([H])([H])c2c([H])c(OC([H])([H])C([H])([H])C([H])([H])[N+]3([H])C([H])([H])C([H])([H])C([H])([H])C3([H])C(=O)N([H])C([H])([H])c3c([H])c([H])c(C([H])([H])N([H])C(=O)N4C([H])([H])C([H])([H])C([H])([H])C([H])(n5nc(-c6c([H])c([H])c(Oc7c([H])c([H])c(F)c([H])c7F)c([H])c6[H])c(C(=O)N([H])[H])c5N([H])[H])C4([H])[H])c([H])c3[H])c([H])c([H])c2C1([H])[H]

>  <smiles>  (36) 
[H]c1c([H])c([H])c2c(c1[H])C([H])([H])C([H])([H])C([H])([H])C2([H])N([H])C(=O)C1([H])N(C(=O)C([H])(N([H])C(=O)C([H])(N([H])C([H])([H])[H])C([H])([H])[H])C(C([H])([H])[H])(C([H])([H])[H])C([H])([H])[H])C([H])([H])c2c([H])c(OC([H])([H])C([H])([H])C([H])([H])[N+]3([H])C([H])([H])C([H])([H])C([H])([H])C3([H])C(=O)N([H])C([H])([H])c3c([H])c([H])c(C([H])([H])N([H])C(=O)N4C([H])([H])C([H])([H])C([H])([H])C([H])(n5nc(-c6c([H])c([H])c(Oc7c([H])c([H])c(F)c([H])c7F)c([H])c6[H])c(C(=O)N([H])[H])c5N([H])[H])C4([H])[H])c([H])c3[H])c([H])c([H])c2C1([H])[H]

$$$$
36:0:0
     RDKit          3D

 91 99  0  0  1  0  0  0  0  0999 V2000
  -29.1930  -22.6840   19.7820 N   0  0  0  0  0  4  0  0  0  0  0  0
  -29.1700  -22.2240   18.8860 H   0  0  0  0  0  0  0  0  0  0  0  0
  -30.1530  -22.9540   19.9280 H   0  0  0  0  0  0  0  0  0  0  0  0
  -28.8450  -21.5970   20.7730 C   0  0  0  0  0  2  0  0  0  0  0  0
  -28.1460  -19.1150   20.5070 C   0  0  0  0  0  3  0  0  0  0  0  0
  -30.5080  -19.5150   20.3950 C   0  0  0  0  0  3  0  0  0  0  0  0
  -28.3860  -17.7130   20.4870 C   0  0  0  0  0  3  0  0  0  0  0  0
  -30.7500  -18.0950   20.3520 C   0  0  0  0  0  3  0  0  0  0  0  0
  -29.1940  -20.0710   20.4950 C   0  0  0  0  0  0  0  0  0  0  0  0
  -29.6860  -17.1480   20.4290 C   0  0  0  0  0  0  0  0  0  0  0  0
  -30.6150  -14.6950   20.0770 C   0  0  0  0  0  0  0  0  0  0  0  0
  -30.4050  -12.4760   18.9600 C   0  0  0  0  0  2  0  0  0  0  0  0
  -29.3910  -12.6250   17.8010 C   0  0  0  0  0  2  0  0  0  0  0  0
  -27.9400  -12.4540   18.2980 C   0  0  0  0  0  2  0  0  0  0  0  0
  -27.6460  -13.2760   19.5800 C   0  0  0  0  0  3  0  0  0  0  0  0
  -28.7610  -13.0680   20.6320 C   0  0  0  0  0  2  0  0  0  0  0  0
  -30.0380  -13.4510   20.0050 N   0  0  0  0  0  0  0  0  0  0  0  0
  -31.7510  -14.9070   19.6370 O   0  0  0  0  0  0  0  0  0  0  0  0
  -29.7710  -15.6840   20.5210 N   0  0  0  0  0  0  0  0  0  0  0  0
  -28.9190  -15.2680   20.8640 H   0  0  0  0  0  0  0  0  0  0  0  0
  -25.2870  -13.8660   20.4160 C   0  0  0  0  0  0  0  0  0  0  0  0
  -24.2400  -13.0880   20.8270 C   0  0  0  0  0  0  0  0  0  0  0  0
  -24.7000  -11.7370   20.7530 C   0  0  0  0  0  0  0  0  0  0  0  0
  -26.3210  -12.9890   20.1200 N   0  0  0  0  0  0  0  0  0  0  0  0
  -25.9750  -11.7030   20.3830 N   0  0  0  0  0  0  0  0  0  0  0  0
  -23.9830  -10.4720   20.9570 C   0  0  0  0  0  0  0  0  0  0  0  0
  -24.4290   -9.5140   21.8940 C   0  0  0  0  0  3  0  0  0  0  0  0
  -23.7140   -8.3120   22.0840 C   0  0  0  0  0  3  0  0  0  0  0  0
  -22.5380   -8.0610   21.3380 C   0  0  0  0  0  0  0  0  0  0  0  0
  -22.1120   -9.0080   20.3880 C   0  0  0  0  0  3  0  0  0  0  0  0
  -22.8280  -10.2010   20.1970 C   0  0  0  0  0  3  0  0  0  0  0  0
  -21.7920   -6.9110   21.4380 O   0  0  0  0  0  0  0  0  0  0  0  0
  -21.7190   -6.2020   22.6090 C   0  0  0  0  0  0  0  0  0  0  0  0
  -21.2310   -6.7790   23.8010 C   0  0  0  0  0  3  0  0  0  0  0  0
  -21.1070   -5.9930   24.9650 C   0  0  0  0  0  3  0  0  0  0  0  0
  -21.4630   -4.6320   24.9370 C   0  0  0  0  0  0  0  0  0  0  0  0
  -21.9440   -4.0540   23.7490 C   0  0  0  0  0  3  0  0  0  0  0  0
  -22.0690   -4.8370   22.5870 C   0  0  0  0  0  0  0  0  0  0  0  0
  -22.5140   -4.2690   21.4400 F   0  0  0  0  0  0  0  0  0  0  0  0
  -21.3370   -3.8740   26.0520 F   0  0  0  0  0  0  0  0  0  0  0  0
  -22.8560  -13.5600   21.1710 C   0  0  0  0  0  0  0  0  0  0  0  0
  -22.1690  -12.8480   22.0570 N   0  0  0  0  0  0  0  0  0  0  0  0
  -22.3960  -14.5950   20.6890 O   0  0  0  0  0  0  0  0  0  0  0  0
  -22.5550  -12.0100   22.4680 H   0  0  0  0  0  0  0  0  0  0  0  0
  -21.2430  -13.1460   22.3300 H   0  0  0  0  0  0  0  0  0  0  0  0
  -25.4390  -15.2380   20.2390 N   0  0  0  0  0  0  0  0  0  0  0  0
  -24.6590  -15.8750   20.3570 H   0  0  0  0  0  0  0  0  0  0  0  0
  -26.2180  -15.6550   19.7460 H   0  0  0  0  0  0  0  0  0  0  0  0
  -28.3180  -23.9370   19.6270 C   0  0  0  0  0  2  0  0  0  0  0  0
  -28.4560  -25.1650   20.6370 C   0  0  0  0  0  2  0  0  0  0  0  0
  -28.4420  -26.5610   20.1350 O   0  0  0  0  0  0  0  0  0  0  0  0
  -24.6750  -31.8900   23.2510 C   0  0  0  0  0  0  0  0  0  0  0  0
  -27.2850  -27.3480   20.1820 C   0  0  0  0  0  0  0  0  0  0  0  0
  -23.4650  -30.5000   21.6030 C   0  0  0  0  0  3  0  0  0  0  0  0
  -24.9110  -28.9430   20.1790 C   0  0  0  0  0  0  0  0  0  0  0  0
  -26.0020  -30.8200   21.4160 C   0  0  0  0  0  2  0  0  0  0  0  0
  -26.0800  -29.4400   20.7690 C   0  0  0  0  0  0  0  0  0  0  0  0
  -27.2680  -28.6560   20.7550 C   0  0  0  0  0  3  0  0  0  0  0  0
  -26.0950  -26.8870   19.5840 C   0  0  0  0  0  3  0  0  0  0  0  0
  -24.9200  -27.6700   19.5800 C   0  0  0  0  0  3  0  0  0  0  0  0
  -23.6780  -29.8220   20.2230 C   0  0  0  0  0  2  0  0  0  0  0  0
  -24.7340  -31.0870   22.1470 N   0  0  0  0  0  0  0  0  0  0  0  0
  -23.5930  -32.1680   23.7890 O   0  0  0  0  0  0  0  0  0  0  0  0
  -22.8020  -29.4840   22.5610 C   0  0  0  0  0  0  0  0  0  0  0  0
  -21.4760  -29.3100   22.4330 N   0  0  0  0  0  0  0  0  0  0  0  0
  -23.4790  -28.8540   23.3780 O   0  0  0  0  0  0  0  0  0  0  0  0
  -20.9890  -29.8680   21.7460 H   0  0  0  0  0  0  0  0  0  0  0  0
  -18.0960  -28.1230   22.9210 C   0  0  0  0  0  0  0  0  0  0  0  0
  -20.6530  -28.3720   23.1990 C   0  0  0  0  0  3  0  0  0  0  0  0
  -20.7530  -26.9420   22.6180 C   0  0  0  0  0  2  0  0  0  0  0  0
  -19.6530  -26.6270   21.6010 C   0  0  0  0  0  2  0  0  0  0  0  0
  -18.2690  -26.7750   22.2420 C   0  0  0  0  0  2  0  0  0  0  0  0
  -19.2140  -28.8790   23.3570 C   0  0  0  0  0  0  0  0  0  0  0  0
  -18.9980  -30.1400   23.9520 C   0  0  0  0  0  3  0  0  0  0  0  0
  -17.6960  -30.6450   24.1180 C   0  0  0  0  0  3  0  0  0  0  0  0
  -16.5900  -29.8840   23.7010 C   0  0  0  0  0  3  0  0  0  0  0  0
  -16.7900  -28.6260   23.1060 C   0  0  0  0  0  3  0  0  0  0  0  0
  -25.9610  -32.5150   23.8730 C   0  0  0  0  0  3  0  0  0  0  0  0
  -26.4810  -31.7310   25.1420 C   0  0  1  0  0  0  0  0  0  0  0  0
  -25.3900  -31.4860   26.2110 C   0  0  0  0  0  1  0  0  0  0  0  0
  -27.0600  -30.3560   24.7350 C   0  0  0  0  0  1  0  0  0  0  0  0
  -27.6320  -32.5190   25.8100 C   0  0  0  0  0  1  0  0  0  0  0  0
  -25.6560  -33.9110   24.2190 N   0  0  0  0  0  0  0  0  0  0  0  0
  -25.9860  -34.9690   23.4680 C   0  0  0  0  0  0  0  0  0  0  0  0
  -26.6490  -34.8750   22.4320 O   0  0  0  0  0  0  0  0  0  0  0  0
  -25.0710  -34.0580   25.0260 H   0  0  0  0  0  0  0  0  0  0  0  0
  -24.2650  -36.7710   23.1340 C   0  0  0  0  0  1  0  0  0  0  0  0
  -25.5040  -36.3550   23.9420 C   0  0  0  0  0  3  0  0  0  0  0  0
  -27.6370  -37.2260   24.7870 C   0  0  0  0  0  1  0  0  0  0  0  0
  -26.5400  -37.4060   23.8410 N   0  0  0  0  0  0  0  0  0  0  0  0
  -26.1370  -38.3250   23.9940 H   0  0  0  0  0  0  0  0  0  0  0  0
  1  3  1  0
  1  4  1  0
  2  1  1  0
  6  9  2  0
  7  5  2  0
  8  6  1  0
  8 10  2  0
  9  5  1  0
  9  4  1  0
 10  7  1  0
 10 19  1  0
 11 19  1  0
 12 17  1  0
 13 14  1  0
 13 12  1  0
 15 14  1  0
 15 24  1  0
 15 16  1  0
 17 11  1  0
 17 16  1  0
 18 11  2  0
 19 20  1  0
 21 22  2  0
 22 41  1  0
 23 22  1  0
 23 26  1  0
 24 25  1  0
 24 21  1  0
 25 23  2  0
 26 27  1  0
 27 28  2  0
 29 32  1  0
 29 28  1  0
 30 29  2  0
 31 30  1  0
 31 26  2  0
 32 33  1  0
 33 34  1  0
 34 35  2  0
 36 35  1  0
 36 40  1  0
 37 36  2  0
 38 33  2  0
 38 37  1  0
 39 38  1  0
 41 42  1  0
 42 45  1  0
 42 44  1  0
 43 41  2  0
 46 47  1  0
 46 21  1  0
 48 46  1  0
 49  1  1  0
 49 50  1  0
 51 53  1  0
 51 50  1  0
 52 63  2  0
 53 58  1  0
 54 62  1  0
 54 64  1  0
 55 61  1  0
 55 57  1  0
 56 62  1  0
 57 56  1  0
 58 57  2  0
 59 53  2  0
 60 59  1  0
 60 55  2  0
 61 54  1  0
 62 52  1  0
 64 66  2  0
 65 64  1  0
 67 65  1  0
 68 77  2  0
 68 73  1  0
 69 65  1  0
 69 73  1  0
 70 69  1  0
 71 72  1  0
 71 70  1  0
 72 68  1  0
 73 74  2  0
 74 75  1  0
 76 75  2  0
 77 76  1  0
 78 52  1  0
 78 83  1  0
 78 79  1  0
 79 82  1  1
 79 80  1  0
 81 79  1  0
 83 86  1  0
 84 88  1  0
 84 83  1  0
 85 84  2  0
 88 87  1  0
 90 88  1  0
 90 91  1  0
 90 89  1  0
M  ISO  4  11 100  19 100  50 101  51 101
M  END
>  <TORSDO>  (37) 
F 20

>  <SCORE>  (37) 
-13.810

>  <name>  (37) 
36

>  <ligand_id>  (37) 
36

>  <original_smiles>  (37) 
[H]c1c([H])c([H])c2c(c1[H])C([H])([H])C([H])([H])C([H])([H])C2([H])N([H])C(=O)C1([H])N(C(=O)C([H])(N([H])C(=O)C([H])(N([H])C([H])([H])[H])C([H])([H])[H])C(C([H])([H])[H])(C([H])([H])[H])C([H])([H])[H])C([H])([H])c2c([H])c(OC([H])([H])C([H])([H])[N+]([H])([H])C([H])([H])c3c([H])c([H])c(N([H])C(=O)N4C([H])([H])C([H])([H])C([H])([H])C([H])(n5nc(-c6c([H])c([H])c(Oc7c([H])c([H])c(F)c([H])c7F)c([H])c6[H])c(C(=O)N([H])[H])c5N([H])[H])C4([H])[H])c([H])c3[H])c([H])c([H])c2C1([H])[H]

>  <smiles>  (37) 
[H]c1c([H])c([H])c2c(c1[H])C([H])([H])C([H])([H])C([H])([H])C2([H])N([H])C(=O)C1([H])N(C(=O)C([H])(N([H])C(=O)C([H])(N([H])C([H])([H])[H])C([H])([H])[H])C(C([H])([H])[H])(C([H])([H])[H])C([H])([H])[H])C([H])([H])c2c([H])c(OC([H])([H])C([H])([H])[N+]([H])([H])C([H])([H])c3c([H])c([H])c(N([H])C(=O)N4C([H])([H])C([H])([H])C([H])([H])C([H])(n5nc(-c6c([H])c([H])c(Oc7c([H])c([H])c(F)c([H])c7F)c([H])c6[H])c(C(=O)N([H])[H])c5N([H])[H])C4([H])[H])c([H])c3[H])c([H])c([H])c2C1([H])[H]

$$$$
37:0:0
     RDKit          3D

105115  0  0  1  0  0  0  0  0999 V2000
  -29.7240  -16.8240   22.7930 C   0  0  0  0  0  3  0  0  0  0  0  0
  -30.4930  -15.5030   20.7040 C   0  0  0  0  0  0  0  0  0  0  0  0
  -31.3130  -14.8400   22.8930 C   0  0  0  0  0  3  0  0  0  0  0  0
  -31.9890  -13.5830   20.9200 C   0  0  0  0  0  3  0  0  0  0  0  0
  -30.5200  -15.6990   22.1070 C   0  0  0  0  0  0  0  0  0  0  0  0
  -31.2560  -14.4740   20.1030 C   0  0  0  0  0  0  0  0  0  0  0  0
  -31.9940  -13.7560   22.3220 C   0  0  0  0  0  0  0  0  0  0  0  0
  -33.0530  -11.6560   23.0580 C   0  0  0  0  0  0  0  0  0  0  0  0
  -32.3980   -9.2910   23.0100 C   0  0  0  0  0  2  0  0  0  0  0  0
  -32.0050   -8.8160   21.6030 C   0  0  0  0  0  2  0  0  0  0  0  0
  -30.5060   -9.0610   21.3590 C   0  0  0  0  0  2  0  0  0  0  0  0
  -30.0820  -10.5130   21.6990 C   0  0  0  0  0  3  0  0  0  0  0  0
  -30.6120  -10.9360   23.0910 C   0  0  0  0  0  2  0  0  0  0  0  0
  -32.0690  -10.7170   23.1210 N   0  0  0  0  0  0  0  0  0  0  0  0
  -34.2440  -11.3810   22.9370 O   0  0  0  0  0  0  0  0  0  0  0  0
  -32.7150  -12.9360   23.2230 N   0  0  0  0  0  0  0  0  0  0  0  0
  -33.4560  -13.4470   23.6710 H   0  0  0  0  0  0  0  0  0  0  0  0
  -27.9160  -11.7630   21.0940 C   0  0  0  0  0  0  0  0  0  0  0  0
  -26.6030  -11.3900   21.1070 C   0  0  0  0  0  0  0  0  0  0  0  0
  -26.5870  -10.0630   21.6400 C   0  0  0  0  0  0  0  0  0  0  0  0
  -28.6380  -10.6870   21.5800 N   0  0  0  0  0  0  0  0  0  0  0  0
  -27.8180   -9.6760   21.9590 N   0  0  0  0  0  0  0  0  0  0  0  0
  -25.4740   -9.1170   21.7960 C   0  0  0  0  0  0  0  0  0  0  0  0
  -25.2300   -8.4670   23.0230 C   0  0  0  0  0  3  0  0  0  0  0  0
  -24.1520   -7.5640   23.1550 C   0  0  0  0  0  3  0  0  0  0  0  0
  -23.3120   -7.3020   22.0470 C   0  0  0  0  0  0  0  0  0  0  0  0
  -23.5750   -7.9280   20.8140 C   0  0  0  0  0  3  0  0  0  0  0  0
  -24.6490   -8.8280   20.6900 C   0  0  0  0  0  3  0  0  0  0  0  0
  -22.2510   -6.4310   22.0720 O   0  0  0  0  0  0  0  0  0  0  0  0
  -21.4460   -6.3160   23.1770 C   0  0  0  0  0  0  0  0  0  0  0  0
  -20.7290   -7.4140   23.6960 C   0  0  0  0  0  3  0  0  0  0  0  0
  -19.8640   -7.2330   24.7960 C   0  0  0  0  0  3  0  0  0  0  0  0
  -19.6980   -5.9510   25.3540 C   0  0  0  0  0  0  0  0  0  0  0  0
  -20.4040   -4.8510   24.8280 C   0  0  0  0  0  3  0  0  0  0  0  0
  -21.2760   -5.0350   23.7410 C   0  0  0  0  0  0  0  0  0  0  0  0
  -21.9380   -3.9740   23.2180 F   0  0  0  0  0  0  0  0  0  0  0  0
  -18.8590   -5.7570   26.3980 F   0  0  0  0  0  0  0  0  0  0  0  0
  -25.4390  -12.1790   20.5820 C   0  0  0  0  0  0  0  0  0  0  0  0
  -24.2580  -11.9800   21.1560 N   0  0  0  0  0  0  0  0  0  0  0  0
  -25.5790  -13.0240   19.6980 O   0  0  0  0  0  0  0  0  0  0  0  0
  -24.1480  -11.2850   21.8780 H   0  0  0  0  0  0  0  0  0  0  0  0
  -23.4550  -12.5060   20.8540 H   0  0  0  0  0  0  0  0  0  0  0  0
  -28.5560  -12.9170   20.6760 N   0  0  0  0  0  0  0  0  0  0  0  0
  -28.0770  -13.6530   20.1760 H   0  0  0  0  0  0  0  0  0  0  0  0
  -29.5590  -12.9610   20.5770 H   0  0  0  0  0  0  0  0  0  0  0  0
  -31.2890  -14.3460   18.5820 C   0  0  1  0  0  0  0  0  0  0  0  0
  -30.0580  -14.4420   18.0760 F   0  0  0  0  0  0  0  0  0  0  0  0
  -32.0370  -15.3240   18.0650 F   0  0  0  0  0  0  0  0  0  0  0  0
  -31.8020  -13.1740   18.2050 F   0  0  0  0  0  0  0  0  0  0  0  0
  -31.1490  -17.5840   24.6400 C   0  0  0  0  0  1  0  0  0  0  0  0
  -30.6160  -17.8810   23.3050 N   0  0  0  0  0  0  0  0  0  0  0  0
  -31.7610  -18.0640   22.3940 C   0  0  0  0  0  2  0  0  0  0  0  0
  -31.6000  -19.3570   21.5790 C   0  0  0  0  0  2  0  0  0  0  0  0
  -32.3220  -19.3260   20.2150 C   0  0  0  0  0  2  0  0  0  0  0  0
  -31.7910  -20.4340   19.2930 C   0  0  0  0  0  2  0  0  0  0  0  0
  -32.8110  -21.1520   18.3730 C   0  0  0  0  0  2  0  0  0  0  0  0
  -32.0640  -22.2580   17.6130 C   0  0  0  0  0  2  0  0  0  0  0  0
  -32.4060  -23.6370   17.8860 O   0  0  0  0  0  0  0  0  0  0  0  0
  -28.0100  -27.3290   22.0200 C   0  0  0  0  0  0  0  0  0  0  0  0
  -31.2790  -24.4300   17.9030 C   0  0  0  0  0  0  0  0  0  0  0  0
  -27.0910  -26.5690   19.8560 C   0  0  0  0  0  3  0  0  0  0  0  0
  -28.7980  -25.7550   18.1500 C   0  0  0  0  0  0  0  0  0  0  0  0
  -29.5860  -27.0900   20.1050 C   0  0  0  0  0  2  0  0  0  0  0  0
  -29.8470  -26.0660   19.0260 C   0  0  0  0  0  0  0  0  0  0  0  0
  -31.0980  -25.4110   18.9040 C   0  0  0  0  0  3  0  0  0  0  0  0
  -30.2280  -24.1910   16.9840 C   0  0  0  0  0  3  0  0  0  0  0  0
  -28.9850  -24.8240   17.1200 C   0  0  0  0  0  3  0  0  0  0  0  0
  -27.4830  -26.4670   18.3590 C   0  0  0  0  0  2  0  0  0  0  0  0
  -28.2400  -26.9880   20.7200 N   0  0  0  0  0  0  0  0  0  0  0  0
  -26.8630  -27.3370   22.4850 O   0  0  0  0  0  0  0  0  0  0  0  0
  -26.4460  -25.2360   20.2960 C   0  0  0  0  0  0  0  0  0  0  0  0
  -25.1250  -25.1110   20.0820 N   0  0  0  0  0  0  0  0  0  0  0  0
  -27.1280  -24.3340   20.7940 O   0  0  0  0  0  0  0  0  0  0  0  0
  -24.6380  -25.8960   19.6760 H   0  0  0  0  0  0  0  0  0  0  0  0
  -21.7220  -23.9240   20.3690 C   0  0  0  0  0  0  0  0  0  0  0  0
  -24.3080  -23.9360   20.3890 C   0  0  0  0  0  3  0  0  0  0  0  0
  -24.2200  -22.9860   19.1710 C   0  0  0  0  0  2  0  0  0  0  0  0
  -22.9970  -23.2490   18.2890 C   0  0  0  0  0  2  0  0  0  0  0  0
  -21.7060  -23.0900   19.0970 C   0  0  0  0  0  2  0  0  0  0  0  0
  -22.9440  -24.3350   20.9650 C   0  0  0  0  0  0  0  0  0  0  0  0
  -22.9020  -25.1400   22.1240 C   0  0  0  0  0  3  0  0  0  0  0  0
  -21.6730  -25.5270   22.6880 C   0  0  0  0  0  3  0  0  0  0  0  0
  -20.4660  -25.1040   22.1030 C   0  0  0  0  0  3  0  0  0  0  0  0
  -20.4930  -24.3030   20.9470 C   0  0  0  0  0  3  0  0  0  0  0  0
  -29.1720  -27.7480   22.9710 C   0  0  0  0  0  3  0  0  0  0  0  0
  -29.4300  -26.7110   24.1300 C   0  0  1  0  0  0  0  0  0  0  0  0
  -28.1730  -26.3950   24.9740 C   0  0  0  0  0  1  0  0  0  0  0  0
  -29.9620  -25.3770   23.5570 C   0  0  0  0  0  1  0  0  0  0  0  0
  -30.5240  -27.2500   25.0820 C   0  0  0  0  0  1  0  0  0  0  0  0
  -28.8390  -29.0690   23.5180 N   0  0  0  0  0  0  0  0  0  0  0  0
  -29.4080  -30.2180   23.1320 C   0  0  0  0  0  0  0  0  0  0  0  0
  -30.3370  -30.2660   22.3200 O   0  0  0  0  0  0  0  0  0  0  0  0
  -28.0490  -29.1130   24.1470 H   0  0  0  0  0  0  0  0  0  0  0  0
  -27.9710  -32.2400   22.7240 C   0  0  0  0  0  1  0  0  0  0  0  0
  -28.8660  -31.5220   23.7470 C   0  0  0  0  0  3  0  0  0  0  0  0
  -30.6390  -31.9490   25.3890 C   0  0  0  0  0  1  0  0  0  0  0  0
  -29.9290  -32.4400   24.2130 N   0  0  0  0  0  0  0  0  0  0  0  0
  -29.5420  -33.3550   24.4350 H   0  0  0  0  0  0  0  0  0  0  0  0
  -28.5800  -17.2930   21.8390 C   0  0  0  0  0  2  0  0  0  0  0  0
  -27.9430  -15.3950   18.6540 C   0  0  0  0  0  2  0  0  0  0  0  0
  -26.6900  -15.0640   19.4800 C   0  0  0  0  0  2  0  0  0  0  0  0
  -28.9190  -16.0150   19.6720 C   0  0  0  0  0  3  0  0  0  0  0  0
  -26.7330  -16.0990   20.5990 C   0  0  0  0  0  2  0  0  0  0  0  0
  -28.1710  -16.1790   20.9370 N   0  0  2  0  0  4  0  0  0  0  0  0
  -28.3800  -15.3510   21.4770 H   0  0  0  0  0  0  0  0  0  0  0  0
  1 51  1  0
  2  5  1  0
  4  7  2  0
  5  1  1  0
  5  3  2  0
  6  2  2  0
  6  4  1  0
  7  3  1  0
  7 16  1  0
  8 14  1  0
  8 16  1  0
  9 14  1  0
 10  9  1  0
 11 10  1  0
 12 11  1  0
 12 13  1  0
 13 14  1  0
 15  8  2  0
 16 17  1  0
 18 19  2  0
 18 21  1  0
 19 20  1  0
 20 23  1  0
 20 22  2  0
 21 12  1  0
 21 22  1  0
 23 24  1  0
 24 25  2  0
 26 29  1  0
 26 25  1  0
 27 26  2  0
 28 27  1  0
 28 23  2  0
 29 30  1  0
 30 31  2  0
 30 35  1  0
 31 32  1  0
 32 33  2  0
 33 37  1  0
 34 33  1  0
 35 34  2  0
 36 35  1  0
 38 19  1  0
 38 39  1  0
 39 41  1  0
 40 38  2  0
 42 39  1  0
 43 18  1  0
 44 43  1  0
 45 43  1  0
 46  6  1  0
 46 47  1  6
 48 46  1  0
 49 46  1  0
 51 50  1  0
 52 51  1  0
 53 52  1  0
 54 53  1  0
 55 54  1  0
 56 55  1  0
 57 58  1  0
 57 56  1  0
 58 60  1  0
 59 70  2  0
 60 65  1  0
 61 71  1  0
 61 69  1  0
 62 68  1  0
 62 64  1  0
 63 69  1  0
 64 63  1  0
 65 64  2  0
 66 67  1  0
 66 60  2  0
 67 62  2  0
 68 61  1  0
 69 59  1  0
 71 73  2  0
 72 71  1  0
 74 72  1  0
 75 84  2  0
 75 80  1  0
 76 72  1  0
 76 80  1  0
 77 76  1  0
 78 79  1  0
 78 77  1  0
 79 75  1  0
 80 81  2  0
 81 82  1  0
 83 82  2  0
 84 83  1  0
 85 59  1  0
 85 90  1  0
 85 86  1  0
 86 87  1  1
 86 89  1  0
 88 86  1  0
 90 93  1  0
 91 90  1  0
 91 95  1  0
 92 91  2  0
 95 94  1  0
 95 97  1  0
 97 98  1  0
 97 96  1  0
 99  1  1  0
100101  1  0
101103  1  0
102100  1  0
102  2  1  0
102104  1  0
103104  1  0
104105  1  1
104 99  1  0
M  ISO  4   8 100  16 100  57 101  58 101
M  END
>  <TORSDO>  (38) 
F 27

>  <SCORE>  (38) 
5.164

>  <name>  (38) 
37

>  <ligand_id>  (38) 
37

>  <original_smiles>  (38) 
[H]c1c([H])c([H])c2c(c1[H])C([H])([H])C([H])([H])C([H])([H])C2([H])N([H])C(=O)C1([H])N(C(=O)C([H])(N([H])C(=O)C([H])(N([H])C([H])([H])[H])C([H])([H])[H])C(C([H])([H])[H])(C([H])([H])[H])C([H])([H])[H])C([H])([H])c2c([H])c(OC([H])([H])C([H])([H])C([H])([H])C([H])([H])C([H])([H])C([H])([H])N(C([H])([H])[H])C([H])(c3c([H])c(N([H])C(=O)N4C([H])([H])C([H])([H])C([H])([H])C([H])(n5nc(-c6c([H])c([H])c(Oc7c([H])c([H])c(F)c([H])c7F)c([H])c6[H])c(C(=O)N([H])[H])c5N([H])[H])C4([H])[H])c([H])c(C(F)(F)F)c3[H])C([H])([H])[N+]3([H])C([H])([H])C([H])([H])C([H])([H])C3([H])[H])c([H])c([H])c2C1([H])[H]

>  <smiles>  (38) 
[H]c1c([H])c([H])c2c(c1[H])C([H])([H])C([H])([H])C([H])([H])C2([H])N([H])C(=O)C1([H])N(C(=O)C([H])(N([H])C(=O)C([H])(N([H])C([H])([H])[H])C([H])([H])[H])C(C([H])([H])[H])(C([H])([H])[H])C([H])([H])[H])C([H])([H])c2c([H])c(OC([H])([H])C([H])([H])C([H])([H])C([H])([H])C([H])([H])C([H])([H])N(C([H])([H])[H])C([H])(c3c([H])c(N([H])C(=O)N4C([H])([H])C([H])([H])C([H])([H])C([H])(n5nc(-c6c([H])c([H])c(Oc7c([H])c([H])c(F)c([H])c7F)c([H])c6[H])c(C(=O)N([H])[H])c5N([H])[H])C4([H])[H])c([H])c(C(F)(F)F)c3[H])C([H])([H])[N+]3([H])C([H])([H])C([H])([H])C([H])([H])C3([H])[H])c([H])c([H])c2C1([H])[H]

$$$$
38:0:0
     RDKit          3D

 94103  0  0  1  0  0  0  0  0999 V2000
  -32.1770  -22.4170   22.5540 C   0  0  0  0  0  2  0  0  0  0  0  0
  -31.4840  -21.1470   23.0460 C   0  0  0  0  0  2  0  0  0  0  0  0
  -31.8220  -22.4570   21.0710 C   0  0  0  0  0  2  0  0  0  0  0  0
  -30.3370  -20.8870   22.0410 C   0  0  0  0  0  3  0  0  0  0  0  0
  -30.4360  -21.9410   20.9840 N   0  0  1  0  0  4  0  0  0  0  0  0
  -30.3140  -21.5030   20.0820 H   0  0  0  0  0  0  0  0  0  0  0  0
  -29.0830  -18.7460   21.4420 C   0  0  0  0  0  3  0  0  0  0  0  0
  -31.5010  -18.7090   21.2440 C   0  0  0  0  0  3  0  0  0  0  0  0
  -29.0410  -17.3700   21.1430 C   0  0  0  0  0  3  0  0  0  0  0  0
  -31.4580  -17.3280   20.9380 C   0  0  0  0  0  3  0  0  0  0  0  0
  -30.3150  -19.4320   21.5300 C   0  0  0  0  0  0  0  0  0  0  0  0
  -30.2230  -16.6360   20.9070 C   0  0  0  0  0  0  0  0  0  0  0  0
  -30.6950  -14.3610   19.8760 C   0  0  0  0  0  0  0  0  0  0  0  0
  -30.2860  -12.2930   18.5810 C   0  0  0  0  0  2  0  0  0  0  0  0
  -29.2180  -12.5760   17.5030 C   0  0  0  0  0  2  0  0  0  0  0  0
  -27.7930  -12.4170   18.0720 C   0  0  0  0  0  2  0  0  0  0  0  0
  -27.6000  -13.1630   19.4190 C   0  0  0  0  0  3  0  0  0  0  0  0
  -28.7560  -12.8280   20.3870 C   0  0  0  0  0  2  0  0  0  0  0  0
  -30.0240  -13.1870   19.7200 N   0  0  0  0  0  0  0  0  0  0  0  0
  -31.7340  -14.6260   19.2620 O   0  0  0  0  0  0  0  0  0  0  0  0
  -30.0710  -15.2310   20.6970 N   0  0  0  0  0  0  0  0  0  0  0  0
  -29.2550  -14.8250   21.1280 H   0  0  0  0  0  0  0  0  0  0  0  0
  -25.2830  -13.7470   20.3830 C   0  0  0  0  0  0  0  0  0  0  0  0
  -24.2510  -12.9610   20.8230 C   0  0  0  0  0  0  0  0  0  0  0  0
  -24.6980  -11.6120   20.6860 C   0  0  0  0  0  0  0  0  0  0  0  0
  -26.2960  -12.8740   20.0120 N   0  0  0  0  0  0  0  0  0  0  0  0
  -25.9500  -11.5830   20.2500 N   0  0  0  0  0  0  0  0  0  0  0  0
  -23.9880  -10.3440   20.8930 C   0  0  0  0  0  0  0  0  0  0  0  0
  -24.4430   -9.3850   21.8240 C   0  0  0  0  0  3  0  0  0  0  0  0
  -23.7330   -8.1800   22.0170 C   0  0  0  0  0  3  0  0  0  0  0  0
  -22.5540   -7.9260   21.2780 C   0  0  0  0  0  0  0  0  0  0  0  0
  -22.1170   -8.8740   20.3360 C   0  0  0  0  0  3  0  0  0  0  0  0
  -22.8270  -10.0700   20.1410 C   0  0  0  0  0  3  0  0  0  0  0  0
  -21.8130   -6.7730   21.3810 O   0  0  0  0  0  0  0  0  0  0  0  0
  -21.6870   -6.1020   22.5710 C   0  0  0  0  0  0  0  0  0  0  0  0
  -21.1430   -6.7180   23.7190 C   0  0  0  0  0  3  0  0  0  0  0  0
  -20.9670   -5.9720   24.9020 C   0  0  0  0  0  3  0  0  0  0  0  0
  -21.3250   -4.6100   24.9360 C   0  0  0  0  0  0  0  0  0  0  0  0
  -21.8610   -3.9940   23.7920 C   0  0  0  0  0  3  0  0  0  0  0  0
  -22.0390   -4.7380   22.6120 C   0  0  0  0  0  0  0  0  0  0  0  0
  -22.5370   -4.1350   21.5060 F   0  0  0  0  0  0  0  0  0  0  0  0
  -21.1480   -3.8910   26.0680 F   0  0  0  0  0  0  0  0  0  0  0  0
  -22.8910  -13.4280   21.2550 C   0  0  0  0  0  0  0  0  0  0  0  0
  -22.2600  -12.7100   22.1780 N   0  0  0  0  0  0  0  0  0  0  0  0
  -22.3980  -14.4640   20.8090 O   0  0  0  0  0  0  0  0  0  0  0  0
  -22.6720  -11.8730   22.5600 H   0  0  0  0  0  0  0  0  0  0  0  0
  -21.3500  -13.0030   22.5060 H   0  0  0  0  0  0  0  0  0  0  0  0
  -25.4380  -15.1240   20.2500 N   0  0  0  0  0  0  0  0  0  0  0  0
  -24.6860  -15.7740   20.4540 H   0  0  0  0  0  0  0  0  0  0  0  0
  -26.2490  -15.5720   19.8400 H   0  0  0  0  0  0  0  0  0  0  0  0
  -29.3650  -22.9850   21.1240 C   0  0  0  0  0  2  0  0  0  0  0  0
  -29.5180  -24.2940   20.2920 C   0  0  0  0  0  2  0  0  0  0  0  0
  -28.2400  -25.1610   20.3450 C   0  0  0  0  0  2  0  0  0  0  0  0
  -28.4100  -26.4880   19.8130 O   0  0  0  0  0  0  0  0  0  0  0  0
  -24.5630  -31.5170   23.0860 C   0  0  0  0  0  0  0  0  0  0  0  0
  -27.2530  -27.2410   19.8180 C   0  0  0  0  0  0  0  0  0  0  0  0
  -23.3780  -30.1880   21.3710 C   0  0  0  0  0  3  0  0  0  0  0  0
  -24.8510  -28.7350   19.8800 C   0  0  0  0  0  0  0  0  0  0  0  0
  -25.9020  -30.5740   21.2040 C   0  0  0  0  0  2  0  0  0  0  0  0
  -26.0030  -29.2360   20.5010 C   0  0  0  0  0  0  0  0  0  0  0  0
  -27.2100  -28.4980   20.4640 C   0  0  0  0  0  3  0  0  0  0  0  0
  -26.0870  -26.7650   19.1790 C   0  0  0  0  0  3  0  0  0  0  0  0
  -24.8880  -27.4990   19.2140 C   0  0  0  0  0  3  0  0  0  0  0  0
  -23.6000  -29.5800   19.9600 C   0  0  0  0  0  2  0  0  0  0  0  0
  -24.6320  -30.7710   21.9460 N   0  0  0  0  0  0  0  0  0  0  0  0
  -23.4760  -31.7530   23.6320 O   0  0  0  0  0  0  0  0  0  0  0  0
  -22.7270  -29.1170   22.2750 C   0  0  0  0  0  0  0  0  0  0  0  0
  -21.4020  -28.9400   22.1390 N   0  0  0  0  0  0  0  0  0  0  0  0
  -23.4120  -28.4480   23.0540 O   0  0  0  0  0  0  0  0  0  0  0  0
  -20.9100  -29.5350   21.4850 H   0  0  0  0  0  0  0  0  0  0  0  0
  -18.0190  -27.7670   22.6230 C   0  0  0  0  0  0  0  0  0  0  0  0
  -20.5870  -27.9640   22.8590 C   0  0  0  0  0  3  0  0  0  0  0  0
  -20.6520  -26.5750   22.1810 C   0  0  0  0  0  2  0  0  0  0  0  0
  -19.5250  -26.3430   21.1700 C   0  0  0  0  0  2  0  0  0  0  0  0
  -18.1590  -26.4650   21.8520 C   0  0  0  0  0  2  0  0  0  0  0  0
  -19.1590  -28.4780   23.0820 C   0  0  0  0  0  0  0  0  0  0  0  0
  -18.9750  -29.7010   23.7620 C   0  0  0  0  0  3  0  0  0  0  0  0
  -17.6830  -30.2110   23.9900 C   0  0  0  0  0  3  0  0  0  0  0  0
  -16.5570  -29.4950   23.5460 C   0  0  0  0  0  3  0  0  0  0  0  0
  -16.7260  -28.2750   22.8690 C   0  0  0  0  0  3  0  0  0  0  0  0
  -25.8410  -32.1260   23.7420 C   0  0  0  0  0  3  0  0  0  0  0  0
  -26.3390  -31.3150   25.0010 C   0  0  1  0  0  0  0  0  0  0  0  0
  -25.2310  -31.0460   26.0450 C   0  0  0  0  0  1  0  0  0  0  0  0
  -26.9250  -29.9500   24.5700 C   0  0  0  0  0  1  0  0  0  0  0  0
  -27.4810  -32.0860   25.7030 C   0  0  0  0  0  1  0  0  0  0  0  0
  -25.5310  -33.5140   24.1070 N   0  0  0  0  0  0  0  0  0  0  0  0
  -25.8720  -34.5850   23.3760 C   0  0  0  0  0  0  0  0  0  0  0  0
  -26.5490  -34.5070   22.3470 O   0  0  0  0  0  0  0  0  0  0  0  0
  -24.9340  -33.6500   24.9090 H   0  0  0  0  0  0  0  0  0  0  0  0
  -24.1440  -36.3820   23.0560 C   0  0  0  0  0  1  0  0  0  0  0  0
  -25.3820  -35.9610   23.8650 C   0  0  0  0  0  3  0  0  0  0  0  0
  -27.5060  -36.8320   24.7340 C   0  0  0  0  0  1  0  0  0  0  0  0
  -26.4140  -37.0170   23.7820 N   0  0  0  0  0  0  0  0  0  0  0  0
  -26.0050  -37.9330   23.9410 H   0  0  0  0  0  0  0  0  0  0  0  0
  1  2  1  0
  3  1  1  0
  4 11  1  0
  4  2  1  0
  5  3  1  0
  5 51  1  0
  5  4  1  0
  5  6  1  6
  7 11  1  0
  8 11  2  0
  9  7  2  0
 10  8  1  0
 12 10  2  0
 12  9  1  0
 13 21  1  0
 14 19  1  0
 15 16  1  0
 15 14  1  0
 17 16  1  0
 17 26  1  0
 17 18  1  0
 19 13  1  0
 19 18  1  0
 20 13  2  0
 21 12  1  0
 21 22  1  0
 23 24  2  0
 24 43  1  0
 25 24  1  0
 25 28  1  0
 26 27  1  0
 26 23  1  0
 27 25  2  0
 28 29  1  0
 29 30  2  0
 31 34  1  0
 31 30  1  0
 32 31  2  0
 33 32  1  0
 33 28  2  0
 34 35  1  0
 35 40  2  0
 35 36  1  0
 36 37  2  0
 37 38  1  0
 38 42  1  0
 39 38  2  0
 40 39  1  0
 41 40  1  0
 43 44  1  0
 44 47  1  0
 44 46  1  0
 45 43  2  0
 48 23  1  0
 48 49  1  0
 50 48  1  0
 52 53  1  0
 52 51  1  0
 54 56  1  0
 54 53  1  0
 55 66  2  0
 56 61  1  0
 57 65  1  0
 57 67  1  0
 58 64  1  0
 58 60  1  0
 59 65  1  0
 60 59  1  0
 61 60  2  0
 62 63  1  0
 62 56  2  0
 63 58  2  0
 64 57  1  0
 65 55  1  0
 67 69  2  0
 68 67  1  0
 70 68  1  0
 71 80  2  0
 71 76  1  0
 72 68  1  0
 72 76  1  0
 73 72  1  0
 74 75  1  0
 74 73  1  0
 75 71  1  0
 76 77  2  0
 77 78  1  0
 79 78  2  0
 80 79  1  0
 81 55  1  0
 81 86  1  0
 81 82  1  0
 82 85  1  1
 82 83  1  0
 84 82  1  0
 86 89  1  0
 87 91  1  0
 87 86  1  0
 88 87  2  0
 91 90  1  0
 93 91  1  0
 93 94  1  0
 93 92  1  0
M  ISO  4  13 100  21 100  53 101  54 101
M  END
>  <TORSDO>  (39) 
F 20

>  <SCORE>  (39) 
-10.769

>  <name>  (39) 
38

>  <ligand_id>  (39) 
38

>  <original_smiles>  (39) 
[H]c1c([H])c([H])c2c(c1[H])C([H])([H])C([H])([H])C([H])([H])C2([H])N([H])C(=O)C1([H])N(C(=O)C([H])(N([H])C(=O)C([H])(N([H])C([H])([H])[H])C([H])([H])[H])C(C([H])([H])[H])(C([H])([H])[H])C([H])([H])[H])C([H])([H])c2c([H])c(OC([H])([H])C([H])([H])C([H])([H])[N+]3([H])C([H])([H])C([H])([H])C([H])([H])C3([H])c3c([H])c([H])c(N([H])C(=O)N4C([H])([H])C([H])([H])C([H])([H])C([H])(n5nc(-c6c([H])c([H])c(Oc7c([H])c([H])c(F)c([H])c7F)c([H])c6[H])c(C(=O)N([H])[H])c5N([H])[H])C4([H])[H])c([H])c3[H])c([H])c([H])c2C1([H])[H]

>  <smiles>  (39) 
[H]c1c([H])c([H])c2c(c1[H])C([H])([H])C([H])([H])C([H])([H])C2([H])N([H])C(=O)C1([H])N(C(=O)C([H])(N([H])C(=O)C([H])(N([H])C([H])([H])[H])C([H])([H])[H])C(C([H])([H])[H])(C([H])([H])[H])C([H])([H])[H])C([H])([H])c2c([H])c(OC([H])([H])C([H])([H])C([H])([H])[N+]3([H])C([H])([H])C([H])([H])C([H])([H])C3([H])c3c([H])c([H])c(N([H])C(=O)N4C([H])([H])C([H])([H])C([H])([H])C([H])(n5nc(-c6c([H])c([H])c(Oc7c([H])c([H])c(F)c([H])c7F)c([H])c6[H])c(C(=O)N([H])[H])c5N([H])[H])C4([H])[H])c([H])c3[H])c([H])c([H])c2C1([H])[H]

$$$$
39:0:0
     RDKit          3D

 95104  0  0  1  0  0  0  0  0999 V2000
  -27.4940  -21.3360   21.5830 C   0  0  0  0  0  2  0  0  0  0  0  0
  -26.8000  -21.0950   20.2110 C   0  0  0  0  0  2  0  0  0  0  0  0
  -29.0490  -21.4640   21.4880 C   0  0  0  0  0  2  0  0  0  0  0  0
  -27.2320  -22.1200   19.1260 C   0  0  0  0  0  2  0  0  0  0  0  0
  -29.5360  -21.7520   20.0500 C   0  0  0  0  0  3  0  0  0  0  0  0
  -28.4870  -22.7710   19.5550 N   0  0  1  0  0  4  0  0  0  0  0  0
  -28.1860  -23.0420   20.4800 H   0  0  0  0  0  0  0  0  0  0  0  0
  -29.8250  -20.2750   19.3240 C   0  0  0  0  0  2  0  0  0  0  0  0
  -33.5610  -20.1180   20.1490 C   0  0  0  0  0  3  0  0  0  0  0  0
  -33.8630  -18.8010   20.4830 C   0  0  0  0  0  3  0  0  0  0  0  0
  -32.2590  -20.4410   19.7590 C   0  0  0  0  0  3  0  0  0  0  0  0
  -32.8830  -17.8180   20.3200 C   0  0  0  0  0  3  0  0  0  0  0  0
  -31.1940  -19.5040   19.6540 C   0  0  0  0  0  0  0  0  0  0  0  0
  -31.5680  -18.0630   19.8180 C   0  0  0  0  0  0  0  0  0  0  0  0
  -31.4800  -15.5080   19.4910 C   0  0  0  0  0  0  0  0  0  0  0  0
  -31.2840  -13.0500   19.0330 C   0  0  0  0  0  2  0  0  0  0  0  0
  -30.3590  -12.7520   17.8390 C   0  0  0  0  0  2  0  0  0  0  0  0
  -28.9020  -12.6210   18.3130 C   0  0  0  0  0  2  0  0  0  0  0  0
  -28.4790  -13.7640   19.2750 C   0  0  0  0  0  3  0  0  0  0  0  0
  -29.5380  -14.0670   20.3580 C   0  0  0  0  0  2  0  0  0  0  0  0
  -30.8130  -14.3090   19.6710 N   0  0  0  0  0  0  0  0  0  0  0  0
  -32.6450  -15.4550   19.0850 O   0  0  0  0  0  0  0  0  0  0  0  0
  -30.8580  -16.7650   19.5710 N   0  0  0  0  0  0  0  0  0  0  0  0
  -29.8490  -16.7810   19.5950 H   0  0  0  0  0  0  0  0  0  0  0  0
  -26.1720  -14.4480   20.1520 C   0  0  0  0  0  0  0  0  0  0  0  0
  -25.0920  -13.7220   20.5730 C   0  0  0  0  0  0  0  0  0  0  0  0
  -25.4870  -12.3500   20.5040 C   0  0  0  0  0  0  0  0  0  0  0  0
  -27.1570  -13.5250   19.8460 N   0  0  0  0  0  0  0  0  0  0  0  0
  -26.7570  -12.2550   20.1240 N   0  0  0  0  0  0  0  0  0  0  0  0
  -24.7090  -11.1220   20.7240 C   0  0  0  0  0  0  0  0  0  0  0  0
  -25.0050  -10.2370   21.7830 C   0  0  0  0  0  3  0  0  0  0  0  0
  -24.2300   -9.0740   21.9810 C   0  0  0  0  0  3  0  0  0  0  0  0
  -23.1440   -8.7890   21.1200 C   0  0  0  0  0  0  0  0  0  0  0  0
  -22.8710   -9.6600   20.0510 C   0  0  0  0  0  3  0  0  0  0  0  0
  -23.6470  -10.8150   19.8520 C   0  0  0  0  0  3  0  0  0  0  0  0
  -22.3510   -7.6720   21.2220 O   0  0  0  0  0  0  0  0  0  0  0  0
  -21.9910   -7.1530   22.4410 C   0  0  0  0  0  0  0  0  0  0  0  0
  -21.2620   -7.9080   23.3850 C   0  0  0  0  0  3  0  0  0  0  0  0
  -20.8510   -7.3150   24.5950 C   0  0  0  0  0  3  0  0  0  0  0  0
  -21.1580   -5.9670   24.8590 C   0  0  0  0  0  0  0  0  0  0  0  0
  -21.8770   -5.2110   23.9160 C   0  0  0  0  0  3  0  0  0  0  0  0
  -22.2890   -5.8020   22.7090 C   0  0  0  0  0  0  0  0  0  0  0  0
  -22.9640   -5.0630   21.7970 F   0  0  0  0  0  0  0  0  0  0  0  0
  -20.7580   -5.3940   26.0180 F   0  0  0  0  0  0  0  0  0  0  0  0
  -23.7380  -14.2630   20.9240 C   0  0  0  0  0  0  0  0  0  0  0  0
  -23.0340  -13.6110   21.8410 N   0  0  0  0  0  0  0  0  0  0  0  0
  -23.3160  -15.3040   20.4200 O   0  0  0  0  0  0  0  0  0  0  0  0
  -23.3850  -12.7680   22.2700 H   0  0  0  0  0  0  0  0  0  0  0  0
  -22.1270  -13.9590   22.1180 H   0  0  0  0  0  0  0  0  0  0  0  0
  -26.3910  -15.8110   19.9810 N   0  0  0  0  0  0  0  0  0  0  0  0
  -25.6630  -16.4980   20.1480 H   0  0  0  0  0  0  0  0  0  0  0  0
  -27.2410  -16.2190   19.6160 H   0  0  0  0  0  0  0  0  0  0  0  0
  -28.7800  -24.2060   19.0340 C   0  0  0  0  0  3  0  0  0  0  0  0
  -27.9050  -25.4310   19.6730 C   0  0  0  0  0  3  0  0  0  0  0  0
  -28.0830  -26.8970   19.3390 O   0  0  0  0  0  0  0  0  0  0  0  0
  -24.5900  -31.8180   23.4190 C   0  0  0  0  0  0  0  0  0  0  0  0
  -26.9850  -27.7720   19.5270 C   0  0  0  0  0  0  0  0  0  0  0  0
  -23.2770  -30.6720   21.6690 C   0  0  0  0  0  3  0  0  0  0  0  0
  -24.6290  -29.3710   19.9250 C   0  0  0  0  0  0  0  0  0  0  0  0
  -25.8010  -31.0370   21.3640 C   0  0  0  0  0  2  0  0  0  0  0  0
  -25.8400  -29.7720   20.5070 C   0  0  0  0  0  0  0  0  0  0  0  0
  -27.0200  -28.9860   20.2960 C   0  0  0  0  0  3  0  0  0  0  0  0
  -25.7520  -27.4570   18.9160 C   0  0  0  0  0  3  0  0  0  0  0  0
  -24.5890  -28.2230   19.1230 C   0  0  0  0  0  3  0  0  0  0  0  0
  -23.3960  -30.2140   20.1910 C   0  0  0  0  0  2  0  0  0  0  0  0
  -24.5800  -31.1870   22.2060 N   0  0  0  0  0  0  0  0  0  0  0  0
  -23.5480  -31.9940   24.0660 O   0  0  0  0  0  0  0  0  0  0  0  0
  -22.6840  -29.5150   22.5050 C   0  0  0  0  0  0  0  0  0  0  0  0
  -21.3750  -29.2580   22.3390 N   0  0  0  0  0  0  0  0  0  0  0  0
  -23.4000  -28.8500   23.2590 O   0  0  0  0  0  0  0  0  0  0  0  0
  -20.8560  -29.8480   21.7050 H   0  0  0  0  0  0  0  0  0  0  0  0
  -18.1240  -27.6810   22.5430 C   0  0  0  0  0  0  0  0  0  0  0  0
  -20.6220  -28.1870   22.9950 C   0  0  0  0  0  3  0  0  0  0  0  0
  -20.9110  -26.8190   22.3330 C   0  0  0  0  0  2  0  0  0  0  0  0
  -19.9090  -26.4580   21.2330 C   0  0  0  0  0  2  0  0  0  0  0  0
  -18.4850  -26.4100   21.7910 C   0  0  0  0  0  2  0  0  0  0  0  0
  -19.1270  -28.5220   23.0950 C   0  0  0  0  0  0  0  0  0  0  0  0
  -18.7400  -29.7060   23.7540 C   0  0  0  0  0  3  0  0  0  0  0  0
  -17.3800  -30.0560   23.8710 C   0  0  0  0  0  3  0  0  0  0  0  0
  -16.3900  -29.2110   23.3410 C   0  0  0  0  0  3  0  0  0  0  0  0
  -16.7620  -28.0260   22.6810 C   0  0  0  0  0  3  0  0  0  0  0  0
  -25.9130  -32.3580   24.0410 C   0  0  0  0  0  3  0  0  0  0  0  0
  -26.4550  -31.4660   25.2260 C   0  0  1  0  0  0  0  0  0  0  0  0
  -25.3900  -31.1540   26.3020 C   0  0  0  0  0  1  0  0  0  0  0  0
  -27.0030  -30.1220   24.6920 C   0  0  0  0  0  1  0  0  0  0  0  0
  -27.6390  -32.1800   25.9200 C   0  0  0  0  0  1  0  0  0  0  0  0
  -25.6580  -33.7300   24.5080 N   0  0  0  0  0  0  0  0  0  0  0  0
  -26.0270  -34.8390   23.8550 C   0  0  0  0  0  0  0  0  0  0  0  0
  -26.6910  -34.8120   22.8150 O   0  0  0  0  0  0  0  0  0  0  0  0
  -25.0640  -33.8250   25.3200 H   0  0  0  0  0  0  0  0  0  0  0  0
  -24.3740  -36.7260   23.6790 C   0  0  0  0  0  1  0  0  0  0  0  0
  -25.5920  -36.1930   24.4480 C   0  0  0  0  0  3  0  0  0  0  0  0
  -27.7530  -36.9060   25.3680 C   0  0  0  0  0  1  0  0  0  0  0  0
  -26.6650  -37.2100   24.4420 N   0  0  0  0  0  0  0  0  0  0  0  0
  -26.2960  -38.1280   24.6790 H   0  0  0  0  0  0  0  0  0  0  0  0
  2  1  1  0
  3  1  1  0
  4  6  1  0
  4  2  1  0
  5  8  1  0
  5  3  1  0
  6  5  1  0
  6  7  1  1
  8 13  1  0
  9 10  1  0
 11  9  2  0
 12 10  2  0
 13 11  1  0
 13 14  2  0
 14 12  1  0
 15 23  1  0
 15 21  1  0
 16 21  1  0
 17 18  1  0
 17 16  1  0
 19 18  1  0
 19 28  1  0
 19 20  1  0
 21 20  1  0
 22 15  2  0
 23 24  1  0
 23 14  1  0
 25 26  2  0
 26 45  1  0
 27 26  1  0
 27 30  1  0
 28 29  1  0
 28 25  1  0
 29 27  2  0
 30 31  1  0
 31 32  2  0
 33 36  1  0
 33 32  1  0
 34 33  2  0
 35 34  1  0
 35 30  2  0
 36 37  1  0
 37 42  2  0
 37 38  1  0
 38 39  2  0
 39 40  1  0
 40 44  1  0
 41 40  2  0
 42 41  1  0
 43 42  1  0
 45 46  1  0
 46 49  1  0
 46 48  1  0
 47 45  2  0
 50 51  1  0
 50 25  1  0
 52 50  1  0
 53  6  1  0
 53 54  2  0
 55 57  1  0
 55 54  1  0
 56 67  2  0
 57 62  1  0
 58 66  1  0
 58 68  1  0
 59 65  1  0
 59 61  1  0
 60 66  1  0
 61 60  1  0
 62 61  2  0
 63 64  1  0
 63 57  2  0
 64 59  2  0
 65 58  1  0
 66 56  1  0
 68 70  2  0
 69 68  1  0
 71 69  1  0
 72 81  2  0
 72 77  1  0
 73 69  1  0
 73 77  1  0
 74 73  1  0
 75 76  1  0
 75 74  1  0
 76 72  1  0
 77 78  2  0
 78 79  1  0
 80 79  2  0
 81 80  1  0
 82 56  1  0
 82 87  1  0
 82 83  1  0
 83 86  1  1
 83 84  1  0
 85 83  1  0
 87 90  1  0
 88 92  1  0
 88 87  1  0
 89 88  2  0
 92 91  1  0
 94 92  1  0
 94 95  1  0
 94 93  1  0
M  ISO  4  15 100  23 100  54 101  55 101
M  END
>  <TORSDO>  (40) 
F 20

>  <SCORE>  (40) 
-10.008

>  <name>  (40) 
39

>  <ligand_id>  (40) 
39

>  <original_smiles>  (40) 
[H]c1c([H])c([H])c(C([H])([H])C2([H])C([H])([H])C([H])([H])C([H])([H])C([H])([H])[N+]2([H])C([H])([H])C([H])([H])Oc2c([H])c([H])c3c(c2[H])C([H])([H])N(C(=O)C([H])(N([H])C(=O)C([H])(N([H])C([H])([H])[H])C([H])([H])[H])C(C([H])([H])[H])(C([H])([H])[H])C([H])([H])[H])C([H])(C(=O)N([H])C2([H])c4c([H])c([H])c([H])c([H])c4C([H])([H])C([H])([H])C2([H])[H])C3([H])[H])c(N([H])C(=O)N2C([H])([H])C([H])([H])C([H])([H])C([H])(n3nc(-c4c([H])c([H])c(Oc5c([H])c([H])c(F)c([H])c5F)c([H])c4[H])c(C(=O)N([H])[H])c3N([H])[H])C2([H])[H])c1[H]

>  <smiles>  (40) 
[H]c1c([H])c([H])c(C([H])([H])C2([H])C([H])([H])C([H])([H])C([H])([H])C([H])([H])[N+]2([H])C([H])([H])C([H])([H])Oc2c([H])c([H])c3c(c2[H])C([H])([H])N(C(=O)C([H])(N([H])C(=O)C([H])(N([H])C([H])([H])[H])C([H])([H])[H])C(C([H])([H])[H])(C([H])([H])[H])C([H])([H])[H])C([H])(C(=O)N([H])C2([H])c4c([H])c([H])c([H])c([H])c4C([H])([H])C([H])([H])C2([H])[H])C3([H])[H])c(N([H])C(=O)N2C([H])([H])C([H])([H])C([H])([H])C([H])(n3nc(-c4c([H])c([H])c(Oc5c([H])c([H])c(F)c([H])c5F)c([H])c4[H])c(C(=O)N([H])[H])c3N([H])[H])C2([H])[H])c1[H]

$$$$
40:0:0
     RDKit          3D

 95104  0  0  1  0  0  0  0  0999 V2000
  -28.9120  -24.4730   21.8550 C   0  0  0  0  0  2  0  0  0  0  0  0
  -29.5460  -23.3890   19.6930 C   0  0  0  0  0  2  0  0  0  0  0  0
  -29.9630  -23.6060   22.5710 C   0  0  0  0  0  2  0  0  0  0  0  0
  -30.5910  -22.5360   20.4450 C   0  0  0  0  0  2  0  0  0  0  0  0
  -29.2930  -24.7430   20.3870 C   0  0  0  0  0  3  0  0  0  0  0  0
  -30.2050  -22.3180   21.8660 N   0  0  1  0  0  4  0  0  0  0  0  0
  -29.3330  -21.8120   21.8660 H   0  0  0  0  0  0  0  0  0  0  0  0
  -31.1630  -21.4730   22.6240 C   0  0  0  0  0  2  0  0  0  0  0  0
  -30.5600  -17.6870   22.2730 C   0  0  0  0  0  3  0  0  0  0  0  0
  -32.5510  -18.2820   21.0020 C   0  0  0  0  0  3  0  0  0  0  0  0
  -30.3620  -19.0470   22.5940 C   0  0  0  0  0  3  0  0  0  0  0  0
  -32.3500  -19.6400   21.3180 C   0  0  0  0  0  3  0  0  0  0  0  0
  -31.6760  -17.2950   21.5030 C   0  0  0  0  0  0  0  0  0  0  0  0
  -31.2730  -20.0280   22.1440 C   0  0  0  0  0  0  0  0  0  0  0  0
  -32.0130  -15.8230   21.3050 C   0  0  0  0  0  2  0  0  0  0  0  0
  -31.0180  -14.3590   19.5720 C   0  0  0  0  0  0  0  0  0  0  0  0
  -30.4010  -12.2700   18.4110 C   0  0  0  0  0  2  0  0  0  0  0  0
  -29.3220  -12.4660   17.3340 C   0  0  0  0  0  2  0  0  0  0  0  0
  -27.9170  -12.3740   17.9540 C   0  0  0  0  0  2  0  0  0  0  0  0
  -27.7630  -13.2790   19.2030 C   0  0  0  0  0  3  0  0  0  0  0  0
  -28.9350  -13.0740   20.1890 C   0  0  0  0  0  2  0  0  0  0  0  0
  -30.2040  -13.2770   19.4650 N   0  0  0  0  0  0  0  0  0  0  0  0
  -31.8850  -14.6390   18.7380 O   0  0  0  0  0  0  0  0  0  0  0  0
  -30.9440  -14.9980   20.7450 N   0  0  0  0  0  0  0  0  0  0  0  0
  -30.2250  -14.6900   21.3810 H   0  0  0  0  0  0  0  0  0  0  0  0
  -25.5280  -14.0020   20.2600 C   0  0  0  0  0  0  0  0  0  0  0  0
  -24.4700  -13.2820   20.7430 C   0  0  0  0  0  0  0  0  0  0  0  0
  -24.8280  -11.9080   20.5970 C   0  0  0  0  0  0  0  0  0  0  0  0
  -26.4700  -13.0700   19.8540 N   0  0  0  0  0  0  0  0  0  0  0  0
  -26.0580  -11.8010   20.1110 N   0  0  0  0  0  0  0  0  0  0  0  0
  -24.0500  -10.6850   20.8390 C   0  0  0  0  0  0  0  0  0  0  0  0
  -24.5070   -9.6800   21.7200 C   0  0  0  0  0  3  0  0  0  0  0  0
  -23.7330   -8.5230   21.9490 C   0  0  0  0  0  3  0  0  0  0  0  0
  -22.4860   -8.3630   21.3000 C   0  0  0  0  0  0  0  0  0  0  0  0
  -22.0460   -9.3560   20.4070 C   0  0  0  0  0  3  0  0  0  0  0  0
  -22.8210  -10.5040   20.1750 C   0  0  0  0  0  3  0  0  0  0  0  0
  -21.6780   -7.2610   21.4410 O   0  0  0  0  0  0  0  0  0  0  0  0
  -21.6510   -6.5330   22.6040 C   0  0  0  0  0  0  0  0  0  0  0  0
  -21.3250   -7.1230   23.8450 C   0  0  0  0  0  3  0  0  0  0  0  0
  -21.2410   -6.3250   25.0030 C   0  0  0  0  0  3  0  0  0  0  0  0
  -21.4720   -4.9380   24.9230 C   0  0  0  0  0  0  0  0  0  0  0  0
  -21.7910   -4.3480   23.6870 C   0  0  0  0  0  3  0  0  0  0  0  0
  -21.8770   -5.1430   22.5300 C   0  0  0  0  0  0  0  0  0  0  0  0
  -22.1640   -4.5670   21.3380 F   0  0  0  0  0  0  0  0  0  0  0  0
  -21.3840   -4.1700   26.0330 F   0  0  0  0  0  0  0  0  0  0  0  0
  -23.1580  -13.8330   21.2270 C   0  0  0  0  0  0  0  0  0  0  0  0
  -22.5170  -13.1480   22.1670 N   0  0  0  0  0  0  0  0  0  0  0  0
  -22.7200  -14.9020   20.8070 O   0  0  0  0  0  0  0  0  0  0  0  0
  -22.8870  -12.2820   22.5270 H   0  0  0  0  0  0  0  0  0  0  0  0
  -21.6420  -13.4970   22.5330 H   0  0  0  0  0  0  0  0  0  0  0  0
  -25.7620  -15.3670   20.1140 N   0  0  0  0  0  0  0  0  0  0  0  0
  -25.0690  -16.0670   20.3570 H   0  0  0  0  0  0  0  0  0  0  0  0
  -26.6000  -15.7640   19.7060 H   0  0  0  0  0  0  0  0  0  0  0  0
  -28.1950  -25.5490   19.6730 C   0  0  0  0  0  2  0  0  0  0  0  0
  -28.1790  -26.8930   20.1680 O   0  0  0  0  0  0  0  0  0  0  0  0
  -24.5100  -32.0490   23.3930 C   0  0  0  0  0  0  0  0  0  0  0  0
  -26.9950  -27.6040   20.1810 C   0  0  0  0  0  0  0  0  0  0  0  0
  -23.2360  -30.6870   21.7700 C   0  0  0  0  0  3  0  0  0  0  0  0
  -24.6230  -29.1470   20.2870 C   0  0  0  0  0  0  0  0  0  0  0  0
  -25.7610  -31.0050   21.5090 C   0  0  0  0  0  2  0  0  0  0  0  0
  -25.8030  -29.6410   20.8520 C   0  0  0  0  0  0  0  0  0  0  0  0
  -26.9880  -28.8740   20.8030 C   0  0  0  0  0  3  0  0  0  0  0  0
  -25.7940  -27.1340   19.5950 C   0  0  0  0  0  3  0  0  0  0  0  0
  -24.6120  -27.8910   19.6600 C   0  0  0  0  0  3  0  0  0  0  0  0
  -23.3960  -30.0240   20.3760 C   0  0  0  0  0  2  0  0  0  0  0  0
  -24.5220  -31.2600   22.2820 N   0  0  0  0  0  0  0  0  0  0  0  0
  -23.4480  -32.3320   23.9660 O   0  0  0  0  0  0  0  0  0  0  0  0
  -22.5970  -29.6620   22.7340 C   0  0  0  0  0  0  0  0  0  0  0  0
  -21.2900  -29.4100   22.5570 N   0  0  0  0  0  0  0  0  0  0  0  0
  -23.2740  -29.0970   23.5970 O   0  0  0  0  0  0  0  0  0  0  0  0
  -20.8040  -29.9200   21.8320 H   0  0  0  0  0  0  0  0  0  0  0  0
  -17.9970  -27.9500   22.8440 C   0  0  0  0  0  0  0  0  0  0  0  0
  -20.4860  -28.4570   23.3230 C   0  0  0  0  0  3  0  0  0  0  0  0
  -20.7640  -27.0050   22.8700 C   0  0  0  0  0  2  0  0  0  0  0  0
  -19.7950  -26.5140   21.7900 C   0  0  0  0  0  2  0  0  0  0  0  0
  -18.3500  -26.5780   22.2950 C   0  0  0  0  0  2  0  0  0  0  0  0
  -19.0020  -28.8390   23.3110 C   0  0  0  0  0  0  0  0  0  0  0  0
  -18.6230  -30.1150   23.7780 C   0  0  0  0  0  3  0  0  0  0  0  0
  -17.2710  -30.5090   23.7860 C   0  0  0  0  0  3  0  0  0  0  0  0
  -16.2790  -29.6190   23.3360 C   0  0  0  0  0  3  0  0  0  0  0  0
  -16.6430  -28.3430   22.8710 C   0  0  0  0  0  3  0  0  0  0  0  0
  -25.8240  -32.6510   23.9840 C   0  0  0  0  0  3  0  0  0  0  0  0
  -26.3410  -31.8810   25.2600 C   0  0  1  0  0  0  0  0  0  0  0  0
  -25.2550  -31.6680   26.3410 C   0  0  0  0  0  1  0  0  0  0  0  0
  -26.8990  -30.4920   24.8710 C   0  0  0  0  0  1  0  0  0  0  0  0
  -27.5100  -32.6630   25.9050 C   0  0  0  0  0  1  0  0  0  0  0  0
  -25.5610  -34.0610   24.2970 N   0  0  0  0  0  0  0  0  0  0  0  0
  -25.9040  -35.0910   23.5120 C   0  0  0  0  0  0  0  0  0  0  0  0
  -26.5470  -34.9520   22.4670 O   0  0  0  0  0  0  0  0  0  0  0  0
  -24.9900  -34.2460   25.1090 H   0  0  0  0  0  0  0  0  0  0  0  0
  -24.2150  -36.9210   23.1610 C   0  0  0  0  0  1  0  0  0  0  0  0
  -25.4620  -36.4990   23.9540 C   0  0  0  0  0  3  0  0  0  0  0  0
  -27.6350  -37.3400   24.7250 C   0  0  0  0  0  1  0  0  0  0  0  0
  -26.5190  -37.5220   23.8010 N   0  0  0  0  0  0  0  0  0  0  0  0
  -26.1400  -38.4550   23.9410 H   0  0  0  0  0  0  0  0  0  0  0  0
  1  3  1  0
  2  5  1  0
  2  4  1  0
  4  6  1  0
  5 54  1  0
  5  1  1  0
  6  7  1  6
  6  3  1  0
  6  8  1  0
  9 11  1  0
 10 12  2  0
 10 13  1  0
 12 14  1  0
 13  9  2  0
 14 11  2  0
 14  8  1  0
 15 13  1  0
 16 24  1  0
 17 22  1  0
 18 19  1  0
 18 17  1  0
 20 19  1  0
 20 29  1  0
 20 21  1  0
 22 16  1  0
 22 21  1  0
 23 16  2  0
 24 15  1  0
 24 25  1  0
 26 27  2  0
 27 46  1  0
 28 27  1  0
 28 31  1  0
 29 30  1  0
 29 26  1  0
 30 28  2  0
 31 32  1  0
 32 33  2  0
 34 37  1  0
 34 33  1  0
 35 34  2  0
 36 35  1  0
 36 31  2  0
 37 38  1  0
 38 39  1  0
 39 40  2  0
 41 40  1  0
 41 45  1  0
 42 41  2  0
 43 38  2  0
 43 42  1  0
 44 43  1  0
 46 47  1  0
 47 49  1  0
 47 50  1  0
 48 46  2  0
 51 26  1  0
 51 52  1  0
 53 51  1  0
 54 55  1  0
 55 57  1  0
 56 67  2  0
 57 62  1  0
 58 66  1  0
 58 68  1  0
 59 65  1  0
 59 61  1  0
 60 66  1  0
 61 60  1  0
 62 61  2  0
 63 64  1  0
 63 57  2  0
 64 59  2  0
 65 58  1  0
 66 56  1  0
 68 70  2  0
 69 68  1  0
 71 69  1  0
 72 81  2  0
 72 77  1  0
 73 69  1  0
 74 73  1  0
 75 76  1  0
 75 74  1  0
 76 72  1  0
 77 73  1  0
 77 78  2  0
 78 79  1  0
 80 79  2  0
 81 80  1  0
 82 56  1  0
 82 87  1  0
 82 83  1  0
 83 86  1  1
 83 84  1  0
 85 83  1  0
 87 90  1  0
 88 92  1  0
 88 87  1  0
 89 88  2  0
 92 91  1  0
 94 95  1  0
 94 92  1  0
 94 93  1  0
M  ISO  4  16 100  24 100  54 101  55 101
M  END
>  <TORSDO>  (41) 
F 20

>  <SCORE>  (41) 
-11.841

>  <name>  (41) 
40

>  <ligand_id>  (41) 
40

>  <original_smiles>  (41) 
[H]c1c([H])c([H])c2c(c1[H])C([H])([H])C([H])([H])C([H])([H])C2([H])N([H])C(=O)C1([H])N(C(=O)C([H])(N([H])C(=O)C([H])(N([H])C([H])([H])[H])C([H])([H])[H])C(C([H])([H])[H])(C([H])([H])[H])C([H])([H])[H])C([H])([H])c2c([H])c(OC([H])([H])C3([H])C([H])([H])C([H])([H])[N+]([H])(C([H])([H])c4c([H])c([H])c(C([H])([H])N([H])C(=O)N5C([H])([H])C([H])([H])C([H])([H])C([H])(n6nc(-c7c([H])c([H])c(Oc8c([H])c([H])c(F)c([H])c8F)c([H])c7[H])c(C(=O)N([H])[H])c6N([H])[H])C5([H])[H])c([H])c4[H])C([H])([H])C3([H])[H])c([H])c([H])c2C1([H])[H]

>  <smiles>  (41) 
[H]c1c([H])c([H])c2c(c1[H])C([H])([H])C([H])([H])C([H])([H])C2([H])N([H])C(=O)C1([H])N(C(=O)C([H])(N([H])C(=O)C([H])(N([H])C([H])([H])[H])C([H])([H])[H])C(C([H])([H])[H])(C([H])([H])[H])C([H])([H])[H])C([H])([H])c2c([H])c(OC([H])([H])C3([H])C([H])([H])C([H])([H])[N+]([H])(C([H])([H])c4c([H])c([H])c(C([H])([H])N([H])C(=O)N5C([H])([H])C([H])([H])C([H])([H])C([H])(n6nc(-c7c([H])c([H])c(Oc8c([H])c([H])c(F)c([H])c8F)c([H])c7[H])c(C(=O)N([H])[H])c6N([H])[H])C5([H])[H])c([H])c4[H])C([H])([H])C3([H])[H])c([H])c([H])c2C1([H])[H]

$$$$
41:0:0
     RDKit          3D

 85 92  0  0  1  0  0  0  0  0999 V2000
  -30.2270  -16.0170   20.2530 C   0  0  0  0  0  0  0  0  0  0  0  0
  -30.4030  -13.3690   19.5400 C   0  0  0  0  0  2  0  0  0  0  0  0
  -29.5800  -12.7500   18.3650 C   0  0  0  0  0  2  0  0  0  0  0  0
  -28.1800  -12.3320   18.8280 C   0  0  0  0  0  2  0  0  0  0  0  0
  -27.5970  -13.3870   19.7890 C   0  0  0  0  0  3  0  0  0  0  0  0
  -28.5820  -13.8970   20.8790 C   0  0  0  0  0  2  0  0  0  0  0  0
  -29.7000  -14.6070   20.1820 N   0  0  0  0  0  0  0  0  0  0  0  0
  -31.4630  -15.8360   20.1240 O   0  0  0  0  0  0  0  0  0  0  0  0
  -27.9230  -23.1840   19.8070 C   0  0  0  0  0  2  0  0  0  0  0  0
  -28.6960  -18.5940   20.9970 C   0  0  0  0  0  2  0  0  0  0  0  0
  -30.1840  -18.9680   19.5930 C   0  0  0  0  0  2  0  0  0  0  0  0
  -28.1850  -20.3550   20.8230 C   0  0  0  0  0  2  0  0  0  0  0  0
  -29.3930  -20.5550   19.2050 C   0  0  0  0  0  2  0  0  0  0  0  0
  -29.6010  -17.5400   20.1340 N   0  0  0  0  0  0  0  0  0  0  0  0
  -28.7840  -21.7380   20.1550 N   0  0  0  0  0  0  0  0  0  0  0  0
  -26.8160  -22.9540   19.3130 O   0  0  0  0  0  1  0  0  0  0  0  0
  -25.2350  -13.8970   20.5320 C   0  0  0  0  0  0  0  0  0  0  0  0
  -24.1740  -13.1150   20.8880 C   0  0  0  0  0  0  0  0  0  0  0  0
  -24.6500  -11.7670   20.8710 C   0  0  0  0  0  0  0  0  0  0  0  0
  -26.2860  -13.0310   20.3070 N   0  0  0  0  0  0  0  0  0  0  0  0
  -25.9480  -11.7390   20.5750 N   0  0  0  0  0  0  0  0  0  0  0  0
  -23.9180  -10.5050   21.0580 C   0  0  0  0  0  0  0  0  0  0  0  0
  -24.3390   -9.5360   21.9940 C   0  0  0  0  0  3  0  0  0  0  0  0
  -23.6020   -8.3440   22.1740 C   0  0  0  0  0  3  0  0  0  0  0  0
  -22.4280   -8.1150   21.4180 C   0  0  0  0  0  0  0  0  0  0  0  0
  -22.0240   -9.0730   20.4710 C   0  0  0  0  0  3  0  0  0  0  0  0
  -22.7630  -10.2540   20.2910 C   0  0  0  0  0  3  0  0  0  0  0  0
  -21.6650   -6.9750   21.5070 O   0  0  0  0  0  0  0  0  0  0  0  0
  -21.6160   -6.2280   22.6560 C   0  0  0  0  0  0  0  0  0  0  0  0
  -21.2140   -6.7850   23.8890 C   0  0  0  0  0  3  0  0  0  0  0  0
  -21.1090   -5.9670   25.0320 C   0  0  0  0  0  3  0  0  0  0  0  0
  -21.3980   -4.5920   24.9420 C   0  0  0  0  0  0  0  0  0  0  0  0
  -21.7930   -4.0340   23.7130 C   0  0  0  0  0  3  0  0  0  0  0  0
  -21.8980   -4.8500   22.5730 C   0  0  0  0  0  0  0  0  0  0  0  0
  -22.2590   -4.3020   21.3880 F   0  0  0  0  0  0  0  0  0  0  0  0
  -21.2910   -3.8030   26.0370 F   0  0  0  0  0  0  0  0  0  0  0  0
  -22.7730  -13.5920   21.1290 C   0  0  0  0  0  0  0  0  0  0  0  0
  -22.0360  -12.9150   22.0000 N   0  0  0  0  0  0  0  0  0  0  0  0
  -22.3440  -14.6070   20.5800 O   0  0  0  0  0  0  0  0  0  0  0  0
  -22.3960  -12.0940   22.4640 H   0  0  0  0  0  0  0  0  0  0  0  0
  -21.0950  -13.2210   22.2060 H   0  0  0  0  0  0  0  0  0  0  0  0
  -25.3920  -15.2670   20.3470 N   0  0  0  0  0  0  0  0  0  0  0  0
  -24.6210  -15.9180   20.4510 H   0  0  0  0  0  0  0  0  0  0  0  0
  -26.2450  -15.7130   20.0310 H   0  0  0  0  0  0  0  0  0  0  0  0
  -28.1580  -25.1760   20.0130 O   0  0  0  0  0  1  0  0  0  0  0  0
  -24.7350  -31.7630   22.9760 C   0  0  0  0  0  0  0  0  0  0  0  0
  -27.2410  -26.5140   19.9540 C   0  0  0  0  0  0  0  0  0  0  0  0
  -23.5440  -30.3600   21.3520 C   0  0  0  0  0  3  0  0  0  0  0  0
  -24.9860  -28.6840   19.9260 C   0  0  0  0  0  0  0  0  0  0  0  0
  -26.1310  -30.4470   21.2300 C   0  0  0  0  0  2  0  0  0  0  0  0
  -26.1900  -28.9940   20.5680 C   0  0  0  0  0  0  0  0  0  0  0  0
  -27.2850  -27.9420   20.5520 C   0  0  0  0  0  3  0  0  0  0  0  0
  -25.9980  -26.4780   19.2500 C   0  0  0  0  0  3  0  0  0  0  0  0
  -24.9420  -27.4550   19.2420 C   0  0  0  0  0  3  0  0  0  0  0  0
  -23.7840  -29.6550   19.9810 C   0  0  0  0  0  2  0  0  0  0  0  0
  -24.8300  -30.8960   21.9030 N   0  0  0  0  0  0  0  0  0  0  0  0
  -23.6430  -32.0670   23.4880 O   0  0  0  0  0  0  0  0  0  0  0  0
  -22.8230  -29.3940   22.3330 C   0  0  0  0  0  0  0  0  0  0  0  0
  -21.4840  -29.2650   22.2430 N   0  0  0  0  0  0  0  0  0  0  0  0
  -23.4850  -28.7550   23.1540 O   0  0  0  0  0  0  0  0  0  0  0  0
  -20.9950  -29.8310   21.5620 H   0  0  0  0  0  0  0  0  0  0  0  0
  -18.0900  -28.0990   22.8540 C   0  0  0  0  0  0  0  0  0  0  0  0
  -20.6640  -28.3300   23.0270 C   0  0  0  0  0  3  0  0  0  0  0  0
  -20.7220  -26.9060   22.4260 C   0  0  0  0  0  2  0  0  0  0  0  0
  -19.5820  -26.6180   21.4440 C   0  0  0  0  0  2  0  0  0  0  0  0
  -18.2250  -26.7650   22.1390 C   0  0  0  0  0  2  0  0  0  0  0  0
  -19.2340  -28.8410   23.2560 C   0  0  0  0  0  0  0  0  0  0  0  0
  -19.0480  -30.0860   23.8940 C   0  0  0  0  0  3  0  0  0  0  0  0
  -17.7550  -30.5920   24.1270 C   0  0  0  0  0  3  0  0  0  0  0  0
  -16.6280  -29.8490   23.7360 C   0  0  0  0  0  3  0  0  0  0  0  0
  -16.7970  -28.6030   23.1060 C   0  0  0  0  0  3  0  0  0  0  0  0
  -25.9920  -32.4300   23.6130 C   0  0  0  0  0  3  0  0  0  0  0  0
  -25.6410  -33.8100   24.0110 N   0  0  0  0  0  0  0  0  0  0  0  0
  -25.9320  -34.9190   23.3140 C   0  0  0  0  0  0  0  0  0  0  0  0
  -26.5750  -34.8880   22.2630 O   0  0  0  0  0  0  0  0  0  0  0  0
  -25.0600  -33.9050   24.8310 H   0  0  0  0  0  0  0  0  0  0  0  0
  -24.1560  -36.7010   23.1320 C   0  0  0  0  0  1  0  0  0  0  0  0
  -25.4380  -36.2750   23.8660 C   0  0  0  0  0  3  0  0  0  0  0  0
  -27.5810  -37.1760   24.6620 C   0  0  0  0  0  1  0  0  0  0  0  0
  -26.4440  -37.3560   23.7640 N   0  0  0  0  0  0  0  0  0  0  0  0
  -26.0240  -38.2600   23.9580 H   0  0  0  0  0  0  0  0  0  0  0  0
  -26.5380  -31.6420   24.8700 C   0  0  1  0  0  0  0  0  0  0  0  0
  -25.4640  -31.3670   25.9490 C   0  0  0  0  0  1  0  0  0  0  0  0
  -27.1390  -30.2810   24.4580 C   0  0  0  0  0  1  0  0  0  0  0  0
  -27.6850  -32.4430   25.5320 C   0  0  0  0  0  1  0  0  0  0  0  0
  2  7  1  0
  3  4  1  0
  3  2  1  0
  5  4  1  0
  5 20  1  0
  5  6  1  0
  7  1  1  0
  7  6  1  0
  8  1  2  0
  9 15  1  0
 11 14  1  0
 12 10  1  0
 13 11  1  0
 13 15  1  0
 14  1  1  0
 14 10  1  0
 15 12  1  0
 16  9  1  0
 17 18  2  0
 18 37  1  0
 19 18  1  0
 19 22  1  0
 20 17  1  0
 20 21  1  0
 21 19  2  0
 22 23  1  0
 23 24  2  0
 25 28  1  0
 25 24  1  0
 26 25  2  0
 27 26  1  0
 27 22  2  0
 28 29  1  0
 29 30  1  0
 30 31  2  0
 32 31  1  0
 32 36  1  0
 33 32  2  0
 34 29  2  0
 34 33  1  0
 35 34  1  0
 37 38  1  0
 38 41  1  0
 38 40  1  0
 39 37  2  0
 42 43  1  0
 42 17  1  0
 44 42  1  0
 46 57  2  0
 47 45  1  0
 47 52  1  0
 48 56  1  0
 48 58  1  0
 49 55  1  0
 49 51  1  0
 50 56  1  0
 51 50  1  0
 52 51  2  0
 53 47  2  0
 54 53  1  0
 54 49  2  0
 55 48  1  0
 56 46  1  0
 58 60  2  0
 59 58  1  0
 61 59  1  0
 62 71  2  0
 62 67  1  0
 63 59  1  0
 63 67  1  0
 64 63  1  0
 65 66  1  0
 65 64  1  0
 66 62  1  0
 67 68  2  0
 68 69  1  0
 70 69  2  0
 71 70  1  0
 72 46  1  0
 72 73  1  0
 72 82  1  0
 73 76  1  0
 74 78  1  0
 74 73  1  0
 75 74  2  0
 78 77  1  0
 80 78  1  0
 80 81  1  0
 80 79  1  0
 82 85  1  1
 82 83  1  0
 84 82  1  0
M  ISO  4   1 100   9 101  14 100  45 101
M  END
>  <TORSDO>  (42) 
F 15

>  <SCORE>  (42) 
-15.661

>  <name>  (42) 
41

>  <ligand_id>  (42) 
41

>  <original_smiles>  (42) 
[H]c1c([H])c([H])c2c(c1[H])C([H])([H])C([H])([H])C([H])([H])C2([H])N([H])C(=O)C1([H])N(C(=O)C([H])(N([H])C(=O)C([H])(N([H])C([H])([H])[H])C([H])([H])[H])C(C([H])([H])[H])(C([H])([H])[H])C([H])([H])[H])C([H])([H])c2c([H])c(OC(=O)N3C([H])([H])C([H])([H])N(C(=O)N4C([H])([H])C([H])([H])C([H])([H])C([H])(n5nc(-c6c([H])c([H])c(Oc7c([H])c([H])c(F)c([H])c7F)c([H])c6[H])c(C(=O)N([H])[H])c5N([H])[H])C4([H])[H])C([H])([H])C3([H])[H])c([H])c([H])c2C1([H])[H]

>  <smiles>  (42) 
[H]c1c([H])c([H])c2c(c1[H])C([H])([H])C([H])([H])C([H])([H])C2([H])N([H])C(=O)C1([H])N(C(=O)C([H])(N([H])C(=O)C([H])(N([H])C([H])([H])[H])C([H])([H])[H])C(C([H])([H])[H])(C([H])([H])[H])C([H])([H])[H])C([H])([H])c2c([H])c(OC(=O)N3C([H])([H])C([H])([H])N(C(=O)N4C([H])([H])C([H])([H])C([H])([H])C([H])(n5nc(-c6c([H])c([H])c(Oc7c([H])c([H])c(F)c([H])c7F)c([H])c6[H])c(C(=O)N([H])[H])c5N([H])[H])C4([H])[H])C([H])([H])C3([H])[H])c([H])c([H])c2C1([H])[H]

$$$$
42:0:0
     RDKit          3D

 95103  0  0  1  0  0  0  0  0999 V2000
  -31.5150  -21.4720   22.9660 C   0  0  0  0  0  2  0  0  0  0  0  0
  -32.3070  -22.4680   22.1050 C   0  0  0  0  0  2  0  0  0  0  0  0
  -31.5990  -23.8110   21.8620 C   0  0  0  0  0  2  0  0  0  0  0  0
  -30.3660  -23.7220   20.9520 C   0  0  0  0  0  2  0  0  0  0  0  0
  -29.8740  -25.1080   20.5060 C   0  0  0  0  0  2  0  0  0  0  0  0
  -28.5480  -25.0300   19.7350 C   0  0  0  0  0  2  0  0  0  0  0  0
  -27.9680  -26.4020   19.3700 C   0  0  0  0  0  2  0  0  0  0  0  0
  -26.7060  -26.1610   18.7590 O   0  0  0  0  0  0  0  0  0  0  0  0
  -24.0390  -31.3990   22.8120 C   0  0  0  0  0  0  0  0  0  0  0  0
  -25.6750  -27.0180   19.0610 C   0  0  0  0  0  0  0  0  0  0  0  0
  -22.4280  -30.2160   21.3510 C   0  0  0  0  0  3  0  0  0  0  0  0
  -23.4530  -28.6710   19.6010 C   0  0  0  0  0  0  0  0  0  0  0  0
  -24.8920  -30.3970   20.7000 C   0  0  0  0  0  2  0  0  0  0  0  0
  -24.7360  -29.0710   19.9920 C   0  0  0  0  0  0  0  0  0  0  0  0
  -25.8510  -28.2510   19.7290 C   0  0  0  0  0  3  0  0  0  0  0  0
  -24.3810  -26.6320   18.6600 C   0  0  0  0  0  3  0  0  0  0  0  0
  -23.2650  -27.4470   18.9350 C   0  0  0  0  0  3  0  0  0  0  0  0
  -22.3190  -29.6170   19.9230 C   0  0  0  0  0  2  0  0  0  0  0  0
  -23.8150  -30.6800   21.6770 N   0  0  0  0  0  0  0  0  0  0  0  0
  -23.1070  -31.7190   23.5630 O   0  0  0  0  0  0  0  0  0  0  0  0
  -21.8750  -29.1860   22.3610 C   0  0  0  0  0  0  0  0  0  0  0  0
  -20.5450  -29.0020   22.3570 N   0  0  0  0  0  0  0  0  0  0  0  0
  -22.6340  -28.5570   23.1020 O   0  0  0  0  0  0  0  0  0  0  0  0
  -19.9910  -29.5590   21.7210 H   0  0  0  0  0  0  0  0  0  0  0  0
  -17.2600  -27.6500   23.0110 C   0  0  0  0  0  0  0  0  0  0  0  0
  -19.8070  -28.0560   23.1930 C   0  0  0  0  0  3  0  0  0  0  0  0
  -19.9730  -26.6090   22.6750 C   0  0  0  0  0  2  0  0  0  0  0  0
  -18.8630  -26.1820   21.7120 C   0  0  0  0  0  2  0  0  0  0  0  0
  -17.4930  -26.2810   22.3900 C   0  0  0  0  0  2  0  0  0  0  0  0
  -18.3470  -28.4880   23.3730 C   0  0  0  0  0  0  0  0  0  0  0  0
  -18.0770  -29.7640   23.9150 C   0  0  0  0  0  3  0  0  0  0  0  0
  -16.7520  -30.2020   24.0980 C   0  0  0  0  0  3  0  0  0  0  0  0
  -15.6800  -29.3620   23.7520 C   0  0  0  0  0  3  0  0  0  0  0  0
  -15.9360  -28.0870   23.2150 C   0  0  0  0  0  3  0  0  0  0  0  0
  -25.4710  -31.8780   23.2110 C   0  0  0  0  0  3  0  0  0  0  0  0
  -26.1810  -30.9230   24.2460 C   0  0  1  0  0  0  0  0  0  0  0  0
  -25.3210  -30.6050   25.4900 C   0  0  0  0  0  1  0  0  0  0  0  0
  -26.5590  -29.5810   23.5760 C   0  0  0  0  0  1  0  0  0  0  0  0
  -27.5050  -31.5620   24.7280 C   0  0  0  0  0  1  0  0  0  0  0  0
  -25.3470  -33.2360   23.7550 N   0  0  0  0  0  0  0  0  0  0  0  0
  -25.7110  -34.3510   23.1060 C   0  0  0  0  0  0  0  0  0  0  0  0
  -26.2590  -34.3340   22.0000 O   0  0  0  0  0  0  0  0  0  0  0  0
  -24.8540  -33.3280   24.6300 H   0  0  0  0  0  0  0  0  0  0  0  0
  -24.1650  -36.3330   23.1710 C   0  0  0  0  0  1  0  0  0  0  0  0
  -25.4200  -35.6980   23.7930 C   0  0  0  0  0  3  0  0  0  0  0  0
  -27.7000  -36.2450   24.5220 C   0  0  0  0  0  1  0  0  0  0  0  0
  -26.5480  -36.6510   23.7200 N   0  0  0  0  0  0  0  0  0  0  0  0
  -26.2590  -37.5750   24.0280 H   0  0  0  0  0  0  0  0  0  0  0  0
  -32.3070  -20.1730   23.1710 C   0  0  0  0  0  2  0  0  0  0  0  0
  -31.4810  -19.1090   23.7290 N   0  0  0  0  0  0  0  0  0  0  0  0
  -30.9310  -19.3560   24.5480 H   0  0  0  0  0  0  0  0  0  0  0  0
  -29.4780  -16.1540   22.7520 C   0  0  0  0  0  3  0  0  0  0  0  0
  -31.1110  -16.5580   20.9940 C   0  0  0  0  0  3  0  0  0  0  0  0
  -29.9600  -17.2690   23.4610 C   0  0  0  0  0  3  0  0  0  0  0  0
  -31.5850  -17.6820   21.7020 C   0  0  0  0  0  3  0  0  0  0  0  0
  -30.0520  -15.7800   21.5200 C   0  0  0  0  0  0  0  0  0  0  0  0
  -31.0190  -18.0410   22.9470 C   0  0  0  0  0  0  0  0  0  0  0  0
  -29.8250  -13.9750   19.7680 C   0  0  0  0  0  0  0  0  0  0  0  0
  -29.4960  -11.8510   18.5450 C   0  0  0  0  0  2  0  0  0  0  0  0
  -28.3760  -11.9290   17.4930 C   0  0  0  0  0  2  0  0  0  0  0  0
  -27.0060  -11.6330   18.1310 C   0  0  0  0  0  2  0  0  0  0  0  0
  -26.7570  -12.4800   19.4050 C   0  0  0  0  0  3  0  0  0  0  0  0
  -27.9620  -12.3850   20.3650 C   0  0  0  0  0  2  0  0  0  0  0  0
  -29.1830  -12.7870   19.6350 N   0  0  0  0  0  0  0  0  0  0  0  0
  -30.6490  -14.3900   18.9440 O   0  0  0  0  0  0  0  0  0  0  0  0
  -29.5380  -14.5990   20.9210 N   0  0  0  0  0  0  0  0  0  0  0  0
  -28.8480  -14.1080   21.4710 H   0  0  0  0  0  0  0  0  0  0  0  0
  -24.4640  -12.8850   20.5060 C   0  0  0  0  0  0  0  0  0  0  0  0
  -23.5210  -12.0230   20.9970 C   0  0  0  0  0  0  0  0  0  0  0  0
  -24.0590  -10.7110   20.8260 C   0  0  0  0  0  0  0  0  0  0  0  0
  -25.5140  -12.0930   20.0700 N   0  0  0  0  0  0  0  0  0  0  0  0
  -25.2820  -10.7770   20.3180 N   0  0  0  0  0  0  0  0  0  0  0  0
  -23.4590   -9.3920   21.0660 C   0  0  0  0  0  0  0  0  0  0  0  0
  -24.0220   -8.4790   21.9850 C   0  0  0  0  0  3  0  0  0  0  0  0
  -23.4150   -7.2240   22.2080 C   0  0  0  0  0  3  0  0  0  0  0  0
  -22.2350   -6.8720   21.5130 C   0  0  0  0  0  0  0  0  0  0  0  0
  -21.6920   -7.7760   20.5830 C   0  0  0  0  0  3  0  0  0  0  0  0
  -22.2990   -9.0220   20.3570 C   0  0  0  0  0  3  0  0  0  0  0  0
  -21.5920   -5.6650   21.6470 O   0  0  0  0  0  0  0  0  0  0  0  0
  -21.5870   -4.9800   22.8360 C   0  0  0  0  0  0  0  0  0  0  0  0
  -21.1050   -5.5630   24.0280 C   0  0  0  0  0  3  0  0  0  0  0  0
  -21.0520   -4.8000   25.2120 C   0  0  0  0  0  3  0  0  0  0  0  0
  -21.4700   -3.4560   25.2040 C   0  0  0  0  0  0  0  0  0  0  0  0
  -21.9450   -2.8730   24.0160 C   0  0  0  0  0  3  0  0  0  0  0  0
  -21.9990   -3.6330   22.8340 C   0  0  0  0  0  0  0  0  0  0  0  0
  -22.4370   -3.0600   21.6870 F   0  0  0  0  0  0  0  0  0  0  0  0
  -21.4120   -2.7210   26.3390 F   0  0  0  0  0  0  0  0  0  0  0  0
  -22.1570  -12.3850   21.5110 C   0  0  0  0  0  0  0  0  0  0  0  0
  -21.6470  -11.6310   22.4790 N   0  0  0  0  0  0  0  0  0  0  0  0
  -21.5550  -13.3710   21.0870 O   0  0  0  0  0  0  0  0  0  0  0  0
  -22.1490  -10.8340   22.8400 H   0  0  0  0  0  0  0  0  0  0  0  0
  -20.7400  -11.8550   22.8650 H   0  0  0  0  0  0  0  0  0  0  0  0
  -24.5120  -14.2710   20.3750 N   0  0  0  0  0  0  0  0  0  0  0  0
  -23.7390  -14.8720   20.6390 H   0  0  0  0  0  0  0  0  0  0  0  0
  -25.2850  -14.7770   19.9620 H   0  0  0  0  0  0  0  0  0  0  0  0
  1 49  1  0
  2  1  1  0
  3  2  1  0
  4  3  1  0
  5  4  1  0
  6  5  1  0
  7  6  1  0
  8 10  1  0
  8  7  1  0
  9 20  2  0
 10 15  1  0
 11 19  1  0
 11 21  1  0
 12 18  1  0
 12 14  1  0
 13 19  1  0
 14 13  1  0
 15 14  2  0
 16 17  1  0
 16 10  2  0
 17 12  2  0
 18 11  1  0
 19  9  1  0
 21 23  2  0
 22 21  1  0
 24 22  1  0
 25 34  2  0
 25 30  1  0
 26 22  1  0
 26 30  1  0
 27 26  1  0
 28 29  1  0
 28 27  1  0
 29 25  1  0
 30 31  2  0
 31 32  1  0
 33 32  2  0
 34 33  1  0
 35  9  1  0
 35 40  1  0
 35 36  1  0
 36 39  1  1
 36 37  1  0
 38 36  1  0
 40 43  1  0
 41 40  1  0
 41 45  1  0
 42 41  2  0
 45 44  1  0
 47 45  1  0
 47 48  1  0
 47 46  1  0
 49 50  1  0
 50 51  1  0
 52 54  1  0
 53 56  1  0
 53 55  2  0
 55 57  1  0
 56 52  2  0
 57 54  2  0
 57 50  1  0
 58 66  1  0
 59 64  1  0
 60 61  1  0
 60 59  1  0
 62 61  1  0
 62 71  1  0
 62 63  1  0
 64 58  1  0
 64 63  1  0
 65 58  2  0
 66 67  1  0
 66 56  1  0
 68 69  2  0
 69 88  1  0
 70 69  1  0
 70 73  1  0
 71 72  1  0
 71 68  1  0
 72 70  2  0
 73 74  1  0
 74 75  2  0
 76 79  1  0
 76 75  1  0
 77 76  2  0
 78 77  1  0
 78 73  2  0
 79 80  1  0
 80 81  1  0
 81 82  2  0
 83 82  1  0
 83 87  1  0
 84 83  2  0
 85 80  2  0
 85 84  1  0
 86 85  1  0
 88 89  1  0
 89 91  1  0
 89 92  1  0
 90 88  2  0
 93 68  1  0
 93 94  1  0
 95 93  1  0
M  ISO  4   7 101   8 101  58 100  66 100
M  END
>  <TORSDO>  (43) 
F 25

>  <SCORE>  (43) 
-1.228

>  <name>  (43) 
42

>  <ligand_id>  (43) 
42

>  <original_smiles>  (43) 
[H]c1c([H])c([H])c2c(c1[H])C([H])([H])C([H])([H])C([H])([H])C2([H])N([H])C(=O)C1([H])N(C(=O)C([H])(N([H])C(=O)C([H])(N([H])C([H])([H])[H])C([H])([H])[H])C(C([H])([H])[H])(C([H])([H])[H])C([H])([H])[H])C([H])([H])c2c([H])c(OC([H])([H])C([H])([H])C([H])([H])C([H])([H])C([H])([H])C([H])([H])C([H])([H])C([H])([H])N([H])c3c([H])c([H])c(N([H])C(=O)N4C([H])([H])C([H])([H])C([H])([H])C([H])(n5nc(-c6c([H])c([H])c(Oc7c([H])c([H])c(F)c([H])c7F)c([H])c6[H])c(C(=O)N([H])[H])c5N([H])[H])C4([H])[H])c([H])c3[H])c([H])c([H])c2C1([H])[H]

>  <smiles>  (43) 
[H]c1c([H])c([H])c2c(c1[H])C([H])([H])C([H])([H])C([H])([H])C2([H])N([H])C(=O)C1([H])N(C(=O)C([H])(N([H])C(=O)C([H])(N([H])C([H])([H])[H])C([H])([H])[H])C(C([H])([H])[H])(C([H])([H])[H])C([H])([H])[H])C([H])([H])c2c([H])c(OC([H])([H])C([H])([H])C([H])([H])C([H])([H])C([H])([H])C([H])([H])C([H])([H])C([H])([H])N([H])c3c([H])c([H])c(N([H])C(=O)N4C([H])([H])C([H])([H])C([H])([H])C([H])(n5nc(-c6c([H])c([H])c(Oc7c([H])c([H])c(F)c([H])c7F)c([H])c6[H])c(C(=O)N([H])[H])c5N([H])[H])C4([H])[H])c([H])c3[H])c([H])c([H])c2C1([H])[H]

$$$$
43:0:0
     RDKit          3D

101109  0  0  1  0  0  0  0  0999 V2000
  -24.9650  -28.2980   18.1660 C   0  0  0  0  0  3  0  0  0  0  0  0
  -26.3420  -28.3910   18.4570 C   0  0  0  0  0  3  0  0  0  0  0  0
  -24.3470  -27.0370   18.0450 C   0  0  0  0  0  3  0  0  0  0  0  0
  -26.4670  -25.9590   18.5440 C   0  0  0  0  0  3  0  0  0  0  0  0
  -27.1030  -27.2170   18.6520 C   0  0  0  0  0  0  0  0  0  0  0  0
  -25.0960  -25.8540   18.2230 C   0  0  0  0  0  0  0  0  0  0  0  0
  -28.5800  -27.2930   18.9100 C   0  0  0  0  0  0  0  0  0  0  0  0
  -28.9020  -27.5270   20.1860 N   0  0  0  0  0  0  0  0  0  0  0  0
  -29.4060  -27.1560   18.0040 O   0  0  0  0  0  0  0  0  0  0  0  0
  -28.1290  -27.6810   20.8170 H   0  0  0  0  0  0  0  0  0  0  0  0
  -30.2330  -27.4970   20.7730 C   0  0  0  0  0  2  0  0  0  0  0  0
  -30.1810  -27.8320   22.2720 C   0  0  0  0  0  2  0  0  0  0  0  0
  -29.7890  -29.1820   22.4730 O   0  0  0  0  0  0  0  0  0  0  0  0
  -24.2120  -28.6190   26.8700 C   0  0  0  0  0  0  0  0  0  0  0  0
  -28.4570  -29.3950   22.7010 C   0  0  0  0  0  0  0  0  0  0  0  0
  -23.7200  -29.4720   24.5990 C   0  0  0  0  0  3  0  0  0  0  0  0
  -25.7530  -30.0350   23.1690 C   0  0  0  0  0  0  0  0  0  0  0  0
  -26.0310  -29.7930   25.6430 C   0  0  0  0  0  2  0  0  0  0  0  0
  -26.6020  -29.7400   24.2450 C   0  0  0  0  0  0  0  0  0  0  0  0
  -27.9540  -29.4130   24.0170 C   0  0  0  0  0  3  0  0  0  0  0  0
  -27.5990  -29.6990   21.6260 C   0  0  0  0  0  3  0  0  0  0  0  0
  -26.2430  -30.0050   21.8510 C   0  0  0  0  0  3  0  0  0  0  0  0
  -24.3240  -30.3940   23.5060 C   0  0  0  0  0  2  0  0  0  0  0  0
  -24.6570  -29.2480   25.7470 N   0  0  0  0  0  0  0  0  0  0  0  0
  -23.0290  -28.2630   26.9780 O   0  0  0  0  0  0  0  0  0  0  0  0
  -23.2520  -28.1620   23.9280 C   0  0  0  0  0  0  0  0  0  0  0  0
  -22.1560  -28.2460   23.1560 N   0  0  0  0  0  0  0  0  0  0  0  0
  -23.8830  -27.1140   24.0790 O   0  0  0  0  0  0  0  0  0  0  0  0
  -21.6940  -29.1430   23.0860 H   0  0  0  0  0  0  0  0  0  0  0  0
  -19.4230  -27.3900   20.9600 C   0  0  0  0  0  0  0  0  0  0  0  0
  -21.5580  -27.1500   22.3960 C   0  0  0  0  0  3  0  0  0  0  0  0
  -22.3080  -26.9220   21.0630 C   0  0  0  0  0  2  0  0  0  0  0  0
  -21.6960  -27.6880   19.8870 C   0  0  0  0  0  2  0  0  0  0  0  0
  -20.2360  -27.2800   19.6790 C   0  0  0  0  0  2  0  0  0  0  0  0
  -20.0470  -27.3430   22.2340 C   0  0  0  0  0  0  0  0  0  0  0  0
  -19.2500  -27.4840   23.3910 C   0  0  0  0  0  3  0  0  0  0  0  0
  -17.8580  -27.6640   23.2910 C   0  0  0  0  0  3  0  0  0  0  0  0
  -17.2440  -27.6940   22.0260 C   0  0  0  0  0  3  0  0  0  0  0  0
  -18.0250  -27.5520   20.8650 C   0  0  0  0  0  3  0  0  0  0  0  0
  -25.1570  -28.3340   28.0790 C   0  0  0  0  0  3  0  0  0  0  0  0
  -24.3330  -28.3450   29.2950 N   0  0  0  0  0  0  0  0  0  0  0  0
  -24.6380  -29.0140   30.4140 C   0  0  0  0  0  0  0  0  0  0  0  0
  -25.6950  -29.6360   30.5560 O   0  0  0  0  0  0  0  0  0  0  0  0
  -23.4290  -27.9000   29.2320 H   0  0  0  0  0  0  0  0  0  0  0  0
  -22.9560  -30.3740   31.6940 C   0  0  0  0  0  1  0  0  0  0  0  0
  -23.6080  -28.9900   31.5600 C   0  0  0  0  0  3  0  0  0  0  0  0
  -24.3480  -27.1380   32.9930 C   0  0  0  0  0  1  0  0  0  0  0  0
  -24.1850  -28.5830   32.8610 N   0  0  0  0  0  0  0  0  0  0  0  0
  -23.6050  -28.9090   33.6300 H   0  0  0  0  0  0  0  0  0  0  0  0
  -25.9450  -26.9730   27.9460 C   0  0  1  0  0  0  0  0  0  0  0  0
  -25.8740  -26.3500   26.5330 C   0  0  0  0  0  1  0  0  0  0  0  0
  -27.4370  -27.1700   28.3020 C   0  0  0  0  0  1  0  0  0  0  0  0
  -25.3830  -25.9410   28.9510 C   0  0  0  0  0  1  0  0  0  0  0  0
  -24.4200  -24.4880   18.0680 C   0  0  0  0  0  2  0  0  0  0  0  0
  -23.4900  -24.3950   16.9180 N   0  0  0  0  0  4  0  0  0  0  0  0
  -22.9020  -25.2150   16.9310 H   0  0  0  0  0  0  0  0  0  0  0  0
  -22.8870  -23.6060   17.0780 H   0  0  0  0  0  0  0  0  0  0  0  0
  -24.1130  -24.2840   15.5790 C   0  0  0  0  0  2  0  0  0  0  0  0
  -24.2460  -25.6570   14.8820 C   0  0  0  0  0  2  0  0  0  0  0  0
  -25.5980  -25.8280   14.1680 C   0  0  0  0  0  2  0  0  0  0  0  0
  -25.5130  -26.5150   12.7870 C   0  0  0  0  0  2  0  0  0  0  0  0
  -24.4330  -25.8530   11.9230 C   0  0  0  0  0  2  0  0  0  0  0  0
  -24.9210  -25.1290   10.6510 C   0  0  0  0  0  2  0  0  0  0  0  0
  -24.8080  -26.9380    8.8830 C   0  0  0  0  0  0  0  0  0  0  0  0
  -25.1710  -28.1820    6.7760 C   0  0  0  0  0  2  0  0  0  0  0  0
  -25.1690  -27.2040    5.5830 C   0  0  0  0  0  2  0  0  0  0  0  0
  -26.5560  -26.5600    5.3760 C   0  0  0  0  0  2  0  0  0  0  0  0
  -27.1540  -25.9940    6.6900 C   0  0  0  0  0  3  0  0  0  0  0  0
  -27.0730  -27.0650    7.7990 C   0  0  0  0  0  2  0  0  0  0  0  0
  -25.6560  -27.4580    7.9590 N   0  0  0  0  0  0  0  0  0  0  0  0
  -23.5850  -27.1210    8.8910 O   0  0  0  0  0  0  0  0  0  0  0  0
  -25.4410  -26.1610    9.7660 N   0  0  0  0  0  0  0  0  0  0  0  0
  -26.4440  -26.1720    9.6620 H   0  0  0  0  0  0  0  0  0  0  0  0
  -29.6130  -26.1570    5.9230 C   0  0  0  0  0  0  0  0  0  0  0  0
  -30.6680  -25.2970    6.0590 C   0  0  0  0  0  0  0  0  0  0  0  0
  -30.1570  -24.1470    6.7370 C   0  0  0  0  0  0  0  0  0  0  0  0
  -28.5240  -25.5180    6.5010 N   0  0  0  0  0  0  0  0  0  0  0  0
  -28.8540  -24.2790    6.9490 N   0  0  0  0  0  0  0  0  0  0  0  0
  -30.8430  -22.9560    7.2510 C   0  0  0  0  0  0  0  0  0  0  0  0
  -30.6220  -21.6790    6.6910 C   0  0  0  0  0  3  0  0  0  0  0  0
  -31.3050  -20.5490    7.1900 C   0  0  0  0  0  3  0  0  0  0  0  0
  -32.2230  -20.6910    8.2590 C   0  0  0  0  0  0  0  0  0  0  0  0
  -32.4230  -21.9620    8.8280 C   0  0  0  0  0  3  0  0  0  0  0  0
  -31.7370  -23.0830    8.3320 C   0  0  0  0  0  3  0  0  0  0  0  0
  -32.9120  -19.6460    8.8270 O   0  0  0  0  0  0  0  0  0  0  0  0
  -32.4510  -18.3560    8.7570 C   0  0  0  0  0  0  0  0  0  0  0  0
  -33.0010  -17.4160    7.8580 C   0  0  0  0  0  3  0  0  0  0  0  0
  -32.5450  -16.0830    7.8680 C   0  0  0  0  0  3  0  0  0  0  0  0
  -31.5480  -15.6850    8.7780 C   0  0  0  0  0  0  0  0  0  0  0  0
  -31.0020  -16.6190    9.6760 C   0  0  0  0  0  3  0  0  0  0  0  0
  -31.4540  -17.9500    9.6680 C   0  0  0  0  0  0  0  0  0  0  0  0
  -30.9420  -18.8400   10.5510 F   0  0  0  0  0  0  0  0  0  0  0  0
  -31.1140  -14.4050    8.7920 F   0  0  0  0  0  0  0  0  0  0  0  0
  -32.0950  -25.5580    5.6660 C   0  0  0  0  0  0  0  0  0  0  0  0
  -32.5440  -24.9820    4.5560 N   0  0  0  0  0  0  0  0  0  0  0  0
  -32.8090  -26.3160    6.3220 O   0  0  0  0  0  0  0  0  0  0  0  0
  -31.9520  -24.3790    4.0030 H   0  0  0  0  0  0  0  0  0  0  0  0
  -33.4940  -25.1490    4.2550 H   0  0  0  0  0  0  0  0  0  0  0  0
  -29.4920  -27.4310    5.3750 N   0  0  0  0  0  0  0  0  0  0  0  0
  -30.2910  -27.9380    5.0100 H   0  0  0  0  0  0  0  0  0  0  0  0
  -28.6400  -27.9770    5.3720 H   0  0  0  0  0  0  0  0  0  0  0  0
  1  2  1  0
  2  5  2  0
  3  1  2  0
  3  6  1  0
  4  5  1  0
  5  7  1  0
  6  4  2  0
  7  8  1  0
  8 11  1  0
  8 10  1  0
  9  7  2  0
 11 12  1  0
 12 13  1  0
 13 15  1  0
 14 25  2  0
 15 20  1  0
 16 26  1  0
 16 24  1  0
 17 23  1  0
 17 19  1  0
 18 24  1  0
 19 18  1  0
 20 19  2  0
 21 22  1  0
 21 15  2  0
 22 17  2  0
 23 16  1  0
 24 14  1  0
 26 28  2  0
 27 26  1  0
 29 27  1  0
 30 35  1  0
 31 27  1  0
 32 31  1  0
 33 32  1  0
 34 33  1  0
 34 30  1  0
 35 31  1  0
 35 36  2  0
 37 36  1  0
 38 37  2  0
 39 30  2  0
 39 38  1  0
 40 14  1  0
 40 41  1  0
 41 42  1  0
 42 43  2  0
 42 46  1  0
 44 41  1  0
 46 45  1  0
 46 48  1  0
 48 47  1  0
 48 49  1  0
 50 40  1  0
 50 52  1  1
 50 53  1  0
 51 50  1  0
 54  6  1  0
 55 56  1  0
 55 57  1  0
 55 54  1  0
 58 55  1  0
 59 58  1  0
 60 59  1  0
 61 60  1  0
 62 61  1  0
 63 62  1  0
 64 71  2  0
 64 72  1  0
 65 70  1  0
 66 65  1  0
 67 66  1  0
 68 67  1  0
 68 69  1  0
 69 70  1  0
 70 64  1  0
 72 63  1  0
 73 72  1  0
 74 75  2  0
 74 77  1  0
 75 76  1  0
 76 78  2  0
 76 79  1  0
 77 68  1  0
 77 78  1  0
 79 84  1  0
 80 81  1  0
 80 79  2  0
 81 82  2  0
 82 85  1  0
 82 83  1  0
 84 83  2  0
 86 85  1  0
 86 91  1  0
 87 88  1  0
 87 86  2  0
 88 89  2  0
 89 93  1  0
 89 90  1  0
 91 90  2  0
 91 92  1  0
 94 75  1  0
 94 96  2  0
 95 94  1  0
 97 95  1  0
 98 95  1  0
 99 74  1  0
100 99  1  0
101 99  1  0
M  ISO  4  12 101  13 101  64 100  72 100
M  END
>  <TORSDO>  (44) 
F 27

>  <SCORE>  (44) 
-4.539

>  <name>  (44) 
43

>  <ligand_id>  (44) 
43

>  <original_smiles>  (44) 
[H]c1c([H])c([H])c2c(c1[H])C([H])([H])C([H])([H])C([H])([H])C2([H])N([H])C(=O)C1([H])N(C(=O)C([H])(N([H])C(=O)C([H])(N([H])C([H])([H])[H])C([H])([H])[H])C(C([H])([H])[H])(C([H])([H])[H])C([H])([H])[H])C([H])([H])c2c([H])c(OC([H])([H])C([H])([H])N([H])C(=O)c3c([H])c([H])c([H])c(C([H])([H])[N+]([H])([H])C([H])([H])C([H])([H])C([H])([H])C([H])([H])C([H])([H])C([H])([H])N([H])C(=O)N4C([H])([H])C([H])([H])C([H])([H])C([H])(n5nc(-c6c([H])c([H])c(Oc7c([H])c([H])c(F)c([H])c7F)c([H])c6[H])c(C(=O)N([H])[H])c5N([H])[H])C4([H])[H])c3[H])c([H])c([H])c2C1([H])[H]

>  <smiles>  (44) 
[H]c1c([H])c([H])c2c(c1[H])C([H])([H])C([H])([H])C([H])([H])C2([H])N([H])C(=O)C1([H])N(C(=O)C([H])(N([H])C(=O)C([H])(N([H])C([H])([H])[H])C([H])([H])[H])C(C([H])([H])[H])(C([H])([H])[H])C([H])([H])[H])C([H])([H])c2c([H])c(OC([H])([H])C([H])([H])N([H])C(=O)c3c([H])c([H])c([H])c(C([H])([H])[N+]([H])([H])C([H])([H])C([H])([H])C([H])([H])C([H])([H])C([H])([H])C([H])([H])N([H])C(=O)N4C([H])([H])C([H])([H])C([H])([H])C([H])(n5nc(-c6c([H])c([H])c(Oc7c([H])c([H])c(F)c([H])c7F)c([H])c6[H])c(C(=O)N([H])[H])c5N([H])[H])C4([H])[H])c3[H])c([H])c([H])c2C1([H])[H]

$$$$
44:0:0
     RDKit          3D

 98107  0  0  1  0  0  0  0  0999 V2000
  -29.7180  -23.7060   24.5050 C   0  0  0  0  0  2  0  0  0  0  0  0
  -29.4940  -22.2440   24.0700 C   0  0  0  0  0  2  0  0  0  0  0  0
  -28.7210  -24.6690   23.8300 C   0  0  0  0  0  2  0  0  0  0  0  0
  -28.3650  -23.1070   21.9720 C   0  0  0  0  0  2  0  0  0  0  0  0
  -29.3770  -22.0830   22.5350 C   0  0  0  0  0  3  0  0  0  0  0  0
  -28.7410  -24.4980   22.3530 N   0  0  1  0  0  4  0  0  0  0  0  0
  -29.7150  -24.5990   22.0860 H   0  0  0  0  0  0  0  0  0  0  0  0
  -30.7370  -22.2000   21.8060 C   0  0  0  0  0  0  0  0  0  0  0  0
  -31.2050  -23.3320   21.6370 O   0  0  0  0  0  0  0  0  0  0  0  0
  -33.5160  -19.9710   20.4770 C   0  0  0  0  0  3  0  0  0  0  0  0
  -32.8110  -21.0780   20.9870 C   0  0  0  0  0  3  0  0  0  0  0  0
  -32.8550  -18.7450   20.2870 C   0  0  0  0  0  3  0  0  0  0  0  0
  -30.7810  -19.7390   21.1080 C   0  0  0  0  0  3  0  0  0  0  0  0
  -31.4400  -20.9760   21.3170 C   0  0  0  0  0  0  0  0  0  0  0  0
  -31.4850  -18.6280   20.6010 C   0  0  0  0  0  0  0  0  0  0  0  0
  -30.7680  -17.3120   20.3720 C   0  0  0  0  0  2  0  0  0  0  0  0
  -31.1010  -16.2730   21.4590 C   0  0  0  0  0  2  0  0  0  0  0  0
  -30.9330  -14.0950   20.2920 C   0  0  0  0  0  0  0  0  0  0  0  0
  -30.5940  -11.9070   19.2140 C   0  0  0  0  0  2  0  0  0  0  0  0
  -29.6470  -12.0170   18.0060 C   0  0  0  0  0  2  0  0  0  0  0  0
  -28.1790  -11.8900   18.4530 C   0  0  0  0  0  2  0  0  0  0  0  0
  -27.8350  -12.8190   19.6470 C   0  0  0  0  0  3  0  0  0  0  0  0
  -28.8910  -12.6880   20.7680 C   0  0  0  0  0  2  0  0  0  0  0  0
  -30.2230  -12.9430   20.1900 N   0  0  0  0  0  0  0  0  0  0  0  0
  -31.9470  -14.3290   19.6290 O   0  0  0  0  0  0  0  0  0  0  0  0
  -30.4760  -14.9800   21.1850 N   0  0  0  0  0  0  0  0  0  0  0  0
  -29.6540  -14.7270   21.7140 H   0  0  0  0  0  0  0  0  0  0  0  0
  -25.4410  -13.4540   20.3550 C   0  0  0  0  0  0  0  0  0  0  0  0
  -24.3750  -12.6940   20.7580 C   0  0  0  0  0  0  0  0  0  0  0  0
  -24.8340  -11.3420   20.7630 C   0  0  0  0  0  0  0  0  0  0  0  0
  -26.4840  -12.5640   20.1440 N   0  0  0  0  0  0  0  0  0  0  0  0
  -26.1200  -11.2910   20.4430 N   0  0  0  0  0  0  0  0  0  0  0  0
  -24.1090  -10.0870   20.9980 C   0  0  0  0  0  0  0  0  0  0  0  0
  -24.4750   -9.2060   22.0400 C   0  0  0  0  0  3  0  0  0  0  0  0
  -23.7510   -8.0150   22.2590 C   0  0  0  0  0  3  0  0  0  0  0  0
  -22.6470   -7.6940   21.4330 C   0  0  0  0  0  0  0  0  0  0  0  0
  -22.3010   -8.5620   20.3830 C   0  0  0  0  0  3  0  0  0  0  0  0
  -23.0250   -9.7460   20.1640 C   0  0  0  0  0  3  0  0  0  0  0  0
  -21.9020   -6.5460   21.5550 O   0  0  0  0  0  0  0  0  0  0  0  0
  -21.7050   -5.9410   22.7700 C   0  0  0  0  0  0  0  0  0  0  0  0
  -21.0430   -6.5960   23.8310 C   0  0  0  0  0  3  0  0  0  0  0  0
  -20.8010   -5.9130   25.0400 C   0  0  0  0  0  3  0  0  0  0  0  0
  -21.2090   -4.5740   25.1860 C   0  0  0  0  0  0  0  0  0  0  0  0
  -21.8640   -3.9170   24.1280 C   0  0  0  0  0  3  0  0  0  0  0  0
  -22.1080   -4.5990   22.9230 C   0  0  0  0  0  0  0  0  0  0  0  0
  -22.7190   -3.9540   21.9000 F   0  0  0  0  0  0  0  0  0  0  0  0
  -20.9700   -3.9140   26.3440 F   0  0  0  0  0  0  0  0  0  0  0  0
  -22.9810  -13.1810   21.0300 C   0  0  0  0  0  0  0  0  0  0  0  0
  -22.2560  -12.5020   21.9120 N   0  0  0  0  0  0  0  0  0  0  0  0
  -22.5430  -14.1990   20.4960 O   0  0  0  0  0  0  0  0  0  0  0  0
  -22.6210  -11.6780   22.3660 H   0  0  0  0  0  0  0  0  0  0  0  0
  -21.3200  -12.8130   22.1360 H   0  0  0  0  0  0  0  0  0  0  0  0
  -25.6070  -14.8180   20.1340 N   0  0  0  0  0  0  0  0  0  0  0  0
  -24.8460  -15.4810   20.2370 H   0  0  0  0  0  0  0  0  0  0  0  0
  -26.4610  -15.2450   19.7960 H   0  0  0  0  0  0  0  0  0  0  0  0
  -27.9990  -25.5670   21.6310 C   0  0  0  0  0  2  0  0  0  0  0  0
  -28.2030  -25.5400   20.0960 C   0  0  0  0  0  2  0  0  0  0  0  0
  -28.1510  -26.8490   19.5400 O   0  0  0  0  0  0  0  0  0  0  0  0
  -24.3840  -31.6770   23.1080 C   0  0  0  0  0  0  0  0  0  0  0  0
  -26.9540  -27.5060   19.6490 C   0  0  0  0  0  0  0  0  0  0  0  0
  -23.1260  -30.3710   21.4230 C   0  0  0  0  0  3  0  0  0  0  0  0
  -24.5370  -28.9410   19.8540 C   0  0  0  0  0  0  0  0  0  0  0  0
  -25.6340  -30.7800   21.1500 C   0  0  0  0  0  2  0  0  0  0  0  0
  -25.7080  -29.4550   20.4250 C   0  0  0  0  0  0  0  0  0  0  0  0
  -26.9200  -28.7460   20.3170 C   0  0  0  0  0  3  0  0  0  0  0  0
  -25.7690  -26.9880   19.0810 C   0  0  0  0  0  3  0  0  0  0  0  0
  -24.5600  -27.7050   19.1820 C   0  0  0  0  0  3  0  0  0  0  0  0
  -23.2870  -29.7770   19.9970 C   0  0  0  0  0  2  0  0  0  0  0  0
  -24.4010  -30.9530   21.9540 N   0  0  0  0  0  0  0  0  0  0  0  0
  -23.3240  -31.9050   23.7050 O   0  0  0  0  0  0  0  0  0  0  0  0
  -22.5220  -29.2840   22.3400 C   0  0  0  0  0  0  0  0  0  0  0  0
  -21.2090  -29.0430   22.1930 N   0  0  0  0  0  0  0  0  0  0  0  0
  -23.2300  -28.6620   23.1360 O   0  0  0  0  0  0  0  0  0  0  0  0
  -20.6980  -29.6040   21.5250 H   0  0  0  0  0  0  0  0  0  0  0  0
  -17.9040  -27.6340   22.5650 C   0  0  0  0  0  0  0  0  0  0  0  0
  -20.4330  -28.0380   22.9170 C   0  0  0  0  0  3  0  0  0  0  0  0
  -20.6400  -26.6310   22.3110 C   0  0  0  0  0  2  0  0  0  0  0  0
  -19.5870  -26.2680   21.2570 C   0  0  0  0  0  2  0  0  0  0  0  0
  -18.1820  -26.3140   21.8650 C   0  0  0  0  0  2  0  0  0  0  0  0
  -18.9620  -28.4510   23.0440 C   0  0  0  0  0  0  0  0  0  0  0  0
  -18.6520  -29.6850   23.6560 C   0  0  0  0  0  3  0  0  0  0  0  0
  -17.3150  -30.1050   23.7910 C   0  0  0  0  0  3  0  0  0  0  0  0
  -16.2710  -29.2850   23.3290 C   0  0  0  0  0  3  0  0  0  0  0  0
  -16.5670  -28.0510   22.7210 C   0  0  0  0  0  3  0  0  0  0  0  0
  -25.6920  -32.2750   23.7200 C   0  0  0  0  0  3  0  0  0  0  0  0
  -25.4080  -33.6680   24.0900 N   0  0  0  0  0  0  0  0  0  0  0  0
  -25.7680  -34.7340   23.3640 C   0  0  0  0  0  0  0  0  0  0  0  0
  -26.4470  -34.6470   22.3370 O   0  0  0  0  0  0  0  0  0  0  0  0
  -24.8040  -33.8110   24.8870 H   0  0  0  0  0  0  0  0  0  0  0  0
  -24.0920  -36.5780   23.0280 C   0  0  0  0  0  1  0  0  0  0  0  0
  -25.3030  -36.1180   23.8550 C   0  0  0  0  0  3  0  0  0  0  0  0
  -27.4290  -36.9290   24.7790 C   0  0  0  0  0  1  0  0  0  0  0  0
  -26.3630  -37.1470   23.8030 N   0  0  0  0  0  0  0  0  0  0  0  0
  -25.9740  -38.0730   23.9610 H   0  0  0  0  0  0  0  0  0  0  0  0
  -26.2270  -31.4630   24.9620 C   0  0  1  0  0  0  0  0  0  0  0  0
  -25.1520  -31.2000   26.0410 C   0  0  0  0  0  1  0  0  0  0  0  0
  -26.7930  -30.0940   24.5140 C   0  0  0  0  0  1  0  0  0  0  0  0
  -27.3960  -32.2290   25.6250 C   0  0  0  0  0  1  0  0  0  0  0  0
  2  1  1  0
  3  1  1  0
  4  6  1  0
  4  5  1  0
  5  8  1  0
  5  2  1  0
  6  3  1  0
  6  7  1  6
  9  8  2  0
 10 11  1  0
 11 14  2  0
 12 10  2  0
 12 15  1  0
 13 14  1  0
 14  8  1  0
 15 13  2  0
 16 15  1  0
 16 17  1  0
 18 26  1  0
 19 24  1  0
 20 21  1  0
 20 19  1  0
 22 21  1  0
 22 31  1  0
 22 23  1  0
 24 18  1  0
 24 23  1  0
 25 18  2  0
 26 17  1  0
 26 27  1  0
 28 29  2  0
 29 30  1  0
 29 48  1  0
 30 33  1  0
 31 28  1  0
 31 32  1  0
 32 30  2  0
 33 34  1  0
 34 35  2  0
 36 39  1  0
 36 35  1  0
 37 36  2  0
 38 37  1  0
 38 33  2  0
 39 40  1  0
 40 45  2  0
 40 41  1  0
 41 42  2  0
 42 43  1  0
 43 47  1  0
 44 43  2  0
 45 44  1  0
 46 45  1  0
 48 49  1  0
 49 52  1  0
 49 51  1  0
 50 48  2  0
 53 54  1  0
 53 28  1  0
 55 53  1  0
 56  6  1  0
 57 56  1  0
 58 60  1  0
 58 57  1  0
 59 70  2  0
 60 65  1  0
 61 69  1  0
 61 71  1  0
 62 68  1  0
 62 64  1  0
 63 69  1  0
 64 63  1  0
 65 64  2  0
 66 67  1  0
 66 60  2  0
 67 62  2  0
 68 61  1  0
 69 59  1  0
 71 73  2  0
 72 71  1  0
 74 72  1  0
 75 84  2  0
 75 80  1  0
 76 72  1  0
 76 80  1  0
 77 76  1  0
 78 79  1  0
 78 77  1  0
 79 75  1  0
 80 81  2  0
 81 82  1  0
 83 82  2  0
 84 83  1  0
 85 59  1  0
 85 86  1  0
 85 95  1  0
 86 89  1  0
 87 91  1  0
 87 86  1  0
 88 87  2  0
 91 90  1  0
 93 91  1  0
 93 94  1  0
 93 92  1  0
 95 98  1  1
 95 96  1  0
 97 95  1  0
M  ISO  4  18 100  26 100  57 101  58 101
M  END
>  <TORSDO>  (45) 
F 22

>  <SCORE>  (45) 
-11.236

>  <name>  (45) 
44

>  <ligand_id>  (45) 
44

>  <original_smiles>  (45) 
[H]c1c([H])c(C(=O)C2([H])C([H])([H])C([H])([H])C([H])([H])[N+]([H])(C([H])([H])C([H])([H])Oc3c([H])c([H])c4c(c3[H])C([H])([H])N(C(=O)C([H])(N([H])C(=O)C([H])(N([H])C([H])([H])[H])C([H])([H])[H])C(C([H])([H])[H])(C([H])([H])[H])C([H])([H])[H])C([H])(C(=O)N([H])C3([H])c5c([H])c([H])c([H])c([H])c5C([H])([H])C([H])([H])C3([H])[H])C4([H])[H])C2([H])[H])c([H])c(C([H])([H])C([H])([H])N([H])C(=O)N2C([H])([H])C([H])([H])C([H])([H])C([H])(n3nc(-c4c([H])c([H])c(Oc5c([H])c([H])c(F)c([H])c5F)c([H])c4[H])c(C(=O)N([H])[H])c3N([H])[H])C2([H])[H])c1[H]

>  <smiles>  (45) 
[H]c1c([H])c(C(=O)C2([H])C([H])([H])C([H])([H])C([H])([H])[N+]([H])(C([H])([H])C([H])([H])Oc3c([H])c([H])c4c(c3[H])C([H])([H])N(C(=O)C([H])(N([H])C(=O)C([H])(N([H])C([H])([H])[H])C([H])([H])[H])C(C([H])([H])[H])(C([H])([H])[H])C([H])([H])[H])C([H])(C(=O)N([H])C3([H])c5c([H])c([H])c([H])c([H])c5C([H])([H])C([H])([H])C3([H])[H])C4([H])[H])C2([H])[H])c([H])c(C([H])([H])C([H])([H])N([H])C(=O)N2C([H])([H])C([H])([H])C([H])([H])C([H])(n3nc(-c4c([H])c([H])c(Oc5c([H])c([H])c(F)c([H])c5F)c([H])c4[H])c(C(=O)N([H])[H])c3N([H])[H])C2([H])[H])c1[H]

$$$$
45:0:0
     RDKit          3D

 93101  0  0  1  0  0  0  0  0999 V2000
  -30.0290  -21.6660   20.7400 N   0  0  0  0  0  4  0  0  0  0  0  0
  -30.8930  -22.1460   20.9280 H   0  0  0  0  0  0  0  0  0  0  0  0
  -29.6740  -21.3590   21.6310 H   0  0  0  0  0  0  0  0  0  0  0  0
  -30.4280  -20.4780   19.9070 C   0  0  0  0  0  2  0  0  0  0  0  0
  -28.4910  -16.5620   20.4270 C   0  0  0  0  0  3  0  0  0  0  0  0
  -27.7330  -17.7150   20.1470 C   0  0  0  0  0  3  0  0  0  0  0  0
  -30.5060  -17.9270   20.4540 C   0  0  0  0  0  3  0  0  0  0  0  0
  -29.7480  -19.1060   20.1630 C   0  0  0  0  0  0  0  0  0  0  0  0
  -29.8910  -16.6390   20.5520 C   0  0  0  0  0  0  0  0  0  0  0  0
  -28.3530  -18.9690   19.9940 C   0  0  0  0  0  0  0  0  0  0  0  0
  -27.5940  -20.0400   19.6770 F   0  0  0  0  0  0  0  0  0  0  0  0
  -30.9880  -14.4600   20.0780 C   0  0  0  0  0  0  0  0  0  0  0  0
  -30.5560  -12.2440   19.0520 C   0  0  0  0  0  2  0  0  0  0  0  0
  -29.5790  -12.3450   17.8680 C   0  0  0  0  0  2  0  0  0  0  0  0
  -28.1250  -12.2430   18.3620 C   0  0  0  0  0  2  0  0  0  0  0  0
  -27.8370  -13.1840   19.5620 C   0  0  0  0  0  3  0  0  0  0  0  0
  -28.9330  -13.0700   20.6480 C   0  0  0  0  0  2  0  0  0  0  0  0
  -30.2340  -13.3200   20.0120 N   0  0  0  0  0  0  0  0  0  0  0  0
  -32.0410  -14.5780   19.4510 O   0  0  0  0  0  0  0  0  0  0  0  0
  -30.6260  -15.4580   20.9170 N   0  0  0  0  0  0  0  0  0  0  0  0
  -31.4840  -15.7420   21.3670 H   0  0  0  0  0  0  0  0  0  0  0  0
  -25.5000  -13.8740   20.3870 C   0  0  0  0  0  0  0  0  0  0  0  0
  -24.4230  -13.1460   20.8070 C   0  0  0  0  0  0  0  0  0  0  0  0
  -24.8230  -11.7770   20.7370 C   0  0  0  0  0  0  0  0  0  0  0  0
  -26.5000  -12.9570   20.1050 N   0  0  0  0  0  0  0  0  0  0  0  0
  -26.0960  -11.6860   20.3700 N   0  0  0  0  0  0  0  0  0  0  0  0
  -24.0490  -10.5450   20.9430 C   0  0  0  0  0  0  0  0  0  0  0  0
  -24.4760   -9.5480   21.8480 C   0  0  0  0  0  3  0  0  0  0  0  0
  -23.7040   -8.3830   22.0450 C   0  0  0  0  0  3  0  0  0  0  0  0
  -22.4890   -8.2090   21.3370 C   0  0  0  0  0  0  0  0  0  0  0  0
  -22.0810   -9.1940   20.4210 C   0  0  0  0  0  3  0  0  0  0  0  0
  -22.8550  -10.3490   20.2230 C   0  0  0  0  0  3  0  0  0  0  0  0
  -21.6870   -7.0980   21.4450 O   0  0  0  0  0  0  0  0  0  0  0  0
  -21.6460   -6.3490   22.5930 C   0  0  0  0  0  0  0  0  0  0  0  0
  -21.2850   -6.9110   23.8370 C   0  0  0  0  0  3  0  0  0  0  0  0
  -21.1860   -6.0910   24.9780 C   0  0  0  0  0  3  0  0  0  0  0  0
  -21.4390   -4.7090   24.8770 C   0  0  0  0  0  0  0  0  0  0  0  0
  -21.7960   -4.1470   23.6390 C   0  0  0  0  0  3  0  0  0  0  0  0
  -21.8950   -4.9650   22.4990 C   0  0  0  0  0  0  0  0  0  0  0  0
  -22.2160   -4.4140   21.3030 F   0  0  0  0  0  0  0  0  0  0  0  0
  -21.3370   -3.9200   25.9710 F   0  0  0  0  0  0  0  0  0  0  0  0
  -23.0640  -13.6830   21.1560 C   0  0  0  0  0  0  0  0  0  0  0  0
  -22.3570  -13.0200   22.0640 N   0  0  0  0  0  0  0  0  0  0  0  0
  -22.6430  -14.7270   20.6590 O   0  0  0  0  0  0  0  0  0  0  0  0
  -22.7140  -12.1790   22.4890 H   0  0  0  0  0  0  0  0  0  0  0  0
  -21.4460  -13.3590   22.3380 H   0  0  0  0  0  0  0  0  0  0  0  0
  -25.6990  -15.2360   20.1960 N   0  0  0  0  0  0  0  0  0  0  0  0
  -24.9430  -15.9030   20.3060 H   0  0  0  0  0  0  0  0  0  0  0  0
  -26.5240  -15.6340   19.7670 H   0  0  0  0  0  0  0  0  0  0  0  0
  -29.1110  -22.6830   20.1140 C   0  0  0  0  0  2  0  0  0  0  0  0
  -29.2820  -24.1720   20.5990 C   0  0  0  0  0  2  0  0  0  0  0  0
  -28.2550  -25.1600   19.9490 C   0  0  0  0  0  2  0  0  0  0  0  0
  -28.3900  -26.5800   20.2540 O   0  0  0  0  0  0  0  0  0  0  0  0
  -24.5850  -31.8600   23.2330 C   0  0  0  0  0  0  0  0  0  0  0  0
  -27.2420  -27.3720   20.1790 C   0  0  0  0  0  0  0  0  0  0  0  0
  -23.3920  -30.4640   21.5810 C   0  0  0  0  0  3  0  0  0  0  0  0
  -24.8560  -28.9300   20.1570 C   0  0  0  0  0  0  0  0  0  0  0  0
  -25.9240  -30.8080   21.4070 C   0  0  0  0  0  2  0  0  0  0  0  0
  -26.0130  -29.4330   20.7650 C   0  0  0  0  0  0  0  0  0  0  0  0
  -27.2080  -28.6630   20.7730 C   0  0  0  0  0  3  0  0  0  0  0  0
  -26.0670  -26.9150   19.5330 C   0  0  0  0  0  3  0  0  0  0  0  0
  -24.8820  -27.6740   19.5330 C   0  0  0  0  0  3  0  0  0  0  0  0
  -23.6140  -29.7930   20.1990 C   0  0  0  0  0  2  0  0  0  0  0  0
  -24.6520  -31.0600   22.1310 N   0  0  0  0  0  0  0  0  0  0  0  0
  -23.4990  -32.1320   23.7640 O   0  0  0  0  0  0  0  0  0  0  0  0
  -22.7310  -29.4400   22.5340 C   0  0  0  0  0  0  0  0  0  0  0  0
  -21.4060  -29.2640   22.4030 N   0  0  0  0  0  0  0  0  0  0  0  0
  -23.4080  -28.8090   23.3500 O   0  0  0  0  0  0  0  0  0  0  0  0
  -20.9190  -29.8260   21.7180 H   0  0  0  0  0  0  0  0  0  0  0  0
  -18.0220  -28.0950   22.9000 C   0  0  0  0  0  0  0  0  0  0  0  0
  -20.5820  -28.3260   23.1670 C   0  0  0  0  0  3  0  0  0  0  0  0
  -20.6700  -26.9000   22.5750 C   0  0  0  0  0  2  0  0  0  0  0  0
  -19.5620  -26.5970   21.5610 C   0  0  0  0  0  2  0  0  0  0  0  0
  -18.1840  -26.7500   22.2110 C   0  0  0  0  0  2  0  0  0  0  0  0
  -19.1490  -28.8410   23.3340 C   0  0  0  0  0  0  0  0  0  0  0  0
  -18.9440  -30.1000   23.9400 C   0  0  0  0  0  3  0  0  0  0  0  0
  -17.6440  -30.6140   24.1130 C   0  0  0  0  0  3  0  0  0  0  0  0
  -16.5320  -29.8640   23.6940 C   0  0  0  0  0  3  0  0  0  0  0  0
  -16.7200  -28.6060   23.0950 C   0  0  0  0  0  3  0  0  0  0  0  0
  -25.8650  -32.4910   23.8620 C   0  0  0  0  0  3  0  0  0  0  0  0
  -25.5520  -33.8870   24.1950 N   0  0  0  0  0  0  0  0  0  0  0  0
  -25.8930  -34.9420   23.4430 C   0  0  0  0  0  0  0  0  0  0  0  0
  -26.5740  -34.8420   22.4180 O   0  0  0  0  0  0  0  0  0  0  0  0
  -24.9470  -34.0380   24.9890 H   0  0  0  0  0  0  0  0  0  0  0  0
  -24.1730  -36.7390   23.0690 C   0  0  0  0  0  1  0  0  0  0  0  0
  -25.3990  -36.3280   23.9000 C   0  0  0  0  0  3  0  0  0  0  0  0
  -27.5200  -37.2060   24.7740 C   0  0  0  0  0  1  0  0  0  0  0  0
  -26.4350  -37.3800   23.8110 N   0  0  0  0  0  0  0  0  0  0  0  0
  -26.0260  -38.2990   23.9550 H   0  0  0  0  0  0  0  0  0  0  0  0
  -26.3760  -31.7180   25.1400 C   0  0  1  0  0  0  0  0  0  0  0  0
  -25.2770  -31.4760   26.2000 C   0  0  0  0  0  1  0  0  0  0  0  0
  -26.9630  -30.3430   24.7450 C   0  0  0  0  0  1  0  0  0  0  0  0
  -27.5190  -32.5130   25.8140 C   0  0  0  0  0  1  0  0  0  0  0  0
  1  2  1  0
  1  3  1  0
  4  8  1  0
  4  1  1  0
  5  9  1  0
  6  5  2  0
  7  9  2  0
  8  7  1  0
  9 20  1  0
 10  6  1  0
 10  8  2  0
 11 10  1  0
 12 20  1  0
 13 18  1  0
 14 15  1  0
 14 13  1  0
 16 15  1  0
 16 25  1  0
 16 17  1  0
 18 12  1  0
 18 17  1  0
 19 12  2  0
 20 21  1  0
 22 23  2  0
 23 42  1  0
 24 23  1  0
 24 27  1  0
 25 26  1  0
 25 22  1  0
 26 24  2  0
 27 28  1  0
 28 29  2  0
 30 33  1  0
 30 29  1  0
 31 30  2  0
 32 31  1  0
 32 27  2  0
 33 34  1  0
 34 35  1  0
 35 36  2  0
 37 36  1  0
 37 41  1  0
 38 37  2  0
 39 34  2  0
 39 38  1  0
 40 39  1  0
 42 43  1  0
 43 46  1  0
 43 45  1  0
 44 42  2  0
 47 48  1  0
 47 22  1  0
 49 47  1  0
 50 51  1  0
 50  1  1  0
 52 53  1  0
 52 51  1  0
 54 65  2  0
 55 53  1  0
 55 60  1  0
 56 64  1  0
 56 66  1  0
 57 63  1  0
 57 59  1  0
 58 64  1  0
 59 60  2  0
 59 58  1  0
 61 55  2  0
 62 61  1  0
 62 57  2  0
 63 56  1  0
 64 54  1  0
 66 68  2  0
 67 66  1  0
 69 67  1  0
 70 79  2  0
 70 75  1  0
 71 67  1  0
 71 75  1  0
 72 71  1  0
 73 74  1  0
 73 72  1  0
 74 70  1  0
 75 76  2  0
 76 77  1  0
 78 77  2  0
 79 78  1  0
 80 54  1  0
 80 81  1  0
 80 90  1  0
 81 84  1  0
 82 86  1  0
 82 81  1  0
 83 82  2  0
 86 85  1  0
 88 86  1  0
 88 89  1  0
 88 87  1  0
 90 93  1  1
 90 91  1  0
 92 90  1  0
M  ISO  4  12 100  20 100  52 101  53 101
M  END
>  <TORSDO>  (46) 
F 21

>  <SCORE>  (46) 
-13.641

>  <name>  (46) 
45

>  <ligand_id>  (46) 
45

>  <original_smiles>  (46) 
[H]c1c([H])c([H])c2c(c1[H])C([H])([H])C([H])([H])C([H])([H])C2([H])N([H])C(=O)C1([H])N(C(=O)C([H])(N([H])C(=O)C([H])(N([H])C([H])([H])[H])C([H])([H])[H])C(C([H])([H])[H])(C([H])([H])[H])C([H])([H])[H])C([H])([H])c2c([H])c(OC([H])([H])C([H])([H])C([H])([H])[N+]([H])([H])C([H])([H])c3c([H])c(N([H])C(=O)N4C([H])([H])C([H])([H])C([H])([H])C([H])(n5nc(-c6c([H])c([H])c(Oc7c([H])c([H])c(F)c([H])c7F)c([H])c6[H])c(C(=O)N([H])[H])c5N([H])[H])C4([H])[H])c([H])c([H])c3F)c([H])c([H])c2C1([H])[H]

>  <smiles>  (46) 
[H]c1c([H])c([H])c2c(c1[H])C([H])([H])C([H])([H])C([H])([H])C2([H])N([H])C(=O)C1([H])N(C(=O)C([H])(N([H])C(=O)C([H])(N([H])C([H])([H])[H])C([H])([H])[H])C(C([H])([H])[H])(C([H])([H])[H])C([H])([H])[H])C([H])([H])c2c([H])c(OC([H])([H])C([H])([H])C([H])([H])[N+]([H])([H])C([H])([H])c3c([H])c(N([H])C(=O)N4C([H])([H])C([H])([H])C([H])([H])C([H])(n5nc(-c6c([H])c([H])c(Oc7c([H])c([H])c(F)c([H])c7F)c([H])c6[H])c(C(=O)N([H])[H])c5N([H])[H])C4([H])[H])c([H])c([H])c3F)c([H])c([H])c2C1([H])[H]

$$$$
46:0:0
     RDKit          3D

100109  0  0  1  0  0  0  0  0999 V2000
  -29.4020  -21.0670   22.4050 C   0  0  0  0  0  0  0  0  0  0  0  0
  -28.7600  -21.9820   21.6720 N   0  0  0  0  0  0  0  0  0  0  0  0
  -29.0990  -20.7510   23.5560 O   0  0  0  0  0  0  0  0  0  0  0  0
  -29.0050  -21.9860   20.6930 H   0  0  0  0  0  0  0  0  0  0  0  0
  -32.8680  -20.7530   20.8730 C   0  0  0  0  0  3  0  0  0  0  0  0
  -31.7560  -21.2620   21.5650 C   0  0  0  0  0  3  0  0  0  0  0  0
  -32.8110  -19.4640   20.3170 C   0  0  0  0  0  3  0  0  0  0  0  0
  -30.5370  -19.1820   21.1670 C   0  0  0  0  0  3  0  0  0  0  0  0
  -30.5870  -20.4840   21.7090 C   0  0  0  0  0  0  0  0  0  0  0  0
  -31.6450  -18.6750   20.4500 C   0  0  0  0  0  0  0  0  0  0  0  0
  -31.5610  -17.3530   19.7010 C   0  0  0  0  0  3  0  0  0  0  0  0
  -32.1590  -15.0750   20.3970 C   0  0  0  0  0  0  0  0  0  0  0  0
  -31.7300  -12.9510   19.2680 C   0  0  0  0  0  2  0  0  0  0  0  0
  -30.8240  -13.2690   18.0590 C   0  0  0  0  0  2  0  0  0  0  0  0
  -29.3380  -13.2450   18.4650 C   0  0  0  0  0  2  0  0  0  0  0  0
  -29.0490  -14.0740   19.7460 C   0  0  0  0  0  3  0  0  0  0  0  0
  -30.0730  -13.7510   20.8640 C   0  0  0  0  0  2  0  0  0  0  0  0
  -31.4270  -13.9360   20.3150 N   0  0  0  0  0  0  0  0  0  0  0  0
  -33.3350  -15.1580   20.0320 O   0  0  0  0  0  0  0  0  0  0  0  0
  -31.4120  -16.1760   20.5630 N   0  0  0  0  0  0  0  0  0  0  0  0
  -30.4810  -16.0090   20.9120 H   0  0  0  0  0  0  0  0  0  0  0  0
  -26.7090  -14.8610   20.4830 C   0  0  0  0  0  0  0  0  0  0  0  0
  -25.5730  -14.1690   20.8010 C   0  0  0  0  0  0  0  0  0  0  0  0
  -25.9130  -12.7860   20.6970 C   0  0  0  0  0  0  0  0  0  0  0  0
  -27.6730  -13.9030   20.2040 N   0  0  0  0  0  0  0  0  0  0  0  0
  -27.1970  -12.6480   20.3940 N   0  0  0  0  0  0  0  0  0  0  0  0
  -25.0800  -11.5850   20.8110 C   0  0  0  0  0  0  0  0  0  0  0  0
  -25.4600  -10.4970   21.6310 C   0  0  0  0  0  3  0  0  0  0  0  0
  -24.6320   -9.3580   21.7340 C   0  0  0  0  0  3  0  0  0  0  0  0
  -23.4110   -9.3020   21.0230 C   0  0  0  0  0  0  0  0  0  0  0  0
  -23.0520  -10.3750   20.1890 C   0  0  0  0  0  3  0  0  0  0  0  0
  -23.8770  -11.5060   20.0820 C   0  0  0  0  0  3  0  0  0  0  0  0
  -22.5540   -8.2290   21.0440 O   0  0  0  0  0  0  0  0  0  0  0  0
  -22.4840   -7.3900   22.1260 C   0  0  0  0  0  0  0  0  0  0  0  0
  -22.1670   -7.8640   23.4180 C   0  0  0  0  0  3  0  0  0  0  0  0
  -22.0400   -6.9550   24.4890 C   0  0  0  0  0  3  0  0  0  0  0  0
  -22.2170   -5.5760   24.2670 C   0  0  0  0  0  0  0  0  0  0  0  0
  -22.5270   -5.1030   22.9810 C   0  0  0  0  0  3  0  0  0  0  0  0
  -22.6600   -6.0080   21.9140 C   0  0  0  0  0  0  0  0  0  0  0  0
  -22.9410   -5.5450   20.6710 F   0  0  0  0  0  0  0  0  0  0  0  0
  -22.0840   -4.7010   25.2930 F   0  0  0  0  0  0  0  0  0  0  0  0
  -24.2200  -14.7540   21.0920 C   0  0  0  0  0  0  0  0  0  0  0  0
  -23.4310  -14.0930   21.9290 N   0  0  0  0  0  0  0  0  0  0  0  0
  -23.8740  -15.8340   20.6120 O   0  0  0  0  0  0  0  0  0  0  0  0
  -23.7240  -13.2210   22.3470 H   0  0  0  0  0  0  0  0  0  0  0  0
  -22.5190  -14.4650   22.1580 H   0  0  0  0  0  0  0  0  0  0  0  0
  -26.9960  -16.2200   20.3840 N   0  0  0  0  0  0  0  0  0  0  0  0
  -26.2860  -16.9300   20.5230 H   0  0  0  0  0  0  0  0  0  0  0  0
  -27.8610  -16.5890   20.0120 H   0  0  0  0  0  0  0  0  0  0  0  0
  -30.5200  -18.4690   17.5530 C   0  0  0  0  0  2  0  0  0  0  0  0
  -30.6450  -16.9990   17.2390 C   0  0  0  0  0  2  0  0  0  0  0  0
  -30.4450  -17.4520   18.6690 C   0  0  0  0  0  3  0  0  0  0  0  0
  -27.8030  -22.9800   22.1570 C   0  0  0  0  0  2  0  0  0  0  0  0
  -28.2880  -24.4120   21.8450 C   0  0  0  0  0  2  0  0  0  0  0  0
  -28.3310  -24.6470   20.3850 N   0  0  0  0  0  4  0  0  0  0  0  0
  -27.4500  -24.3440   19.9950 H   0  0  0  0  0  0  0  0  0  0  0  0
  -29.0560  -24.0610   20.0050 H   0  0  0  0  0  0  0  0  0  0  0  0
  -28.5930  -26.0350   19.9560 C   0  0  0  0  0  2  0  0  0  0  0  0
  -28.5140  -26.1550   18.4190 C   0  0  0  0  0  2  0  0  0  0  0  0
  -28.2700  -27.5020   18.0210 O   0  0  0  0  0  0  0  0  0  0  0  0
  -24.4900  -31.3090   22.6500 C   0  0  0  0  0  0  0  0  0  0  0  0
  -27.0310  -28.0150   18.3230 C   0  0  0  0  0  0  0  0  0  0  0  0
  -23.1790  -30.1220   20.9170 C   0  0  0  0  0  3  0  0  0  0  0  0
  -24.5260  -29.1150   19.0070 C   0  0  0  0  0  0  0  0  0  0  0  0
  -25.5810  -30.8570   20.4590 C   0  0  0  0  0  2  0  0  0  0  0  0
  -25.7010  -29.6680   19.5310 C   0  0  0  0  0  0  0  0  0  0  0  0
  -26.9560  -29.1240   19.1910 C   0  0  0  0  0  3  0  0  0  0  0  0
  -25.8370  -27.4720   17.7920 C   0  0  0  0  0  3  0  0  0  0  0  0
  -24.5860  -28.0130   18.1360 C   0  0  0  0  0  3  0  0  0  0  0  0
  -23.2270  -29.7710   19.4050 C   0  0  0  0  0  2  0  0  0  0  0  0
  -24.4430  -30.7660   21.4010 N   0  0  0  0  0  0  0  0  0  0  0  0
  -23.4900  -31.3220   23.3820 O   0  0  0  0  0  0  0  0  0  0  0  0
  -22.8000  -28.8480   21.7060 C   0  0  0  0  0  0  0  0  0  0  0  0
  -21.5130  -28.4720   21.6490 N   0  0  0  0  0  0  0  0  0  0  0  0
  -23.6570  -28.2090   22.3210 O   0  0  0  0  0  0  0  0  0  0  0  0
  -20.8770  -29.0590   21.1290 H   0  0  0  0  0  0  0  0  0  0  0  0
  -18.4690  -26.5620   22.0080 C   0  0  0  0  0  0  0  0  0  0  0  0
  -20.9360  -27.2840   22.2760 C   0  0  0  0  0  3  0  0  0  0  0  0
  -21.2890  -26.0050   21.4800 C   0  0  0  0  0  2  0  0  0  0  0  0
  -20.2260  -25.6260   20.4460 C   0  0  0  0  0  2  0  0  0  0  0  0
  -18.8760  -25.3890   21.1330 C   0  0  0  0  0  2  0  0  0  0  0  0
  -19.4350  -27.4600   22.5340 C   0  0  0  0  0  0  0  0  0  0  0  0
  -19.0000  -28.5520   23.3160 C   0  0  0  0  0  3  0  0  0  0  0  0
  -17.6300  -28.7530   23.5720 C   0  0  0  0  0  3  0  0  0  0  0  0
  -16.6810  -27.8520   23.0640 C   0  0  0  0  0  3  0  0  0  0  0  0
  -17.1000  -26.7570   22.2880 C   0  0  0  0  0  3  0  0  0  0  0  0
  -25.7930  -31.9620   23.2070 C   0  0  0  0  0  3  0  0  0  0  0  0
  -25.4170  -33.2370   23.8280 N   0  0  0  0  0  0  0  0  0  0  0  0
  -25.6090  -34.4400   23.2700 C   0  0  0  0  0  0  0  0  0  0  0  0
  -26.1970  -34.5940   22.1970 O   0  0  0  0  0  0  0  0  0  0  0  0
  -24.8820  -33.1850   24.6830 H   0  0  0  0  0  0  0  0  0  0  0  0
  -23.7400  -36.1160   23.3860 C   0  0  0  0  0  1  0  0  0  0  0  0
  -25.0620  -35.6640   24.0250 C   0  0  0  0  0  3  0  0  0  0  0  0
  -27.1860  -36.5410   24.8890 C   0  0  0  0  0  1  0  0  0  0  0  0
  -26.0080  -36.7990   24.0670 N   0  0  0  0  0  0  0  0  0  0  0  0
  -25.5490  -37.6340   24.4210 H   0  0  0  0  0  0  0  0  0  0  0  0
  -26.5620  -31.0400   24.2320 C   0  0  1  0  0  0  0  0  0  0  0  0
  -25.6670  -30.5010   25.3720 C   0  0  0  0  0  1  0  0  0  0  0  0
  -27.1910  -29.8240   23.5110 C   0  0  0  0  0  1  0  0  0  0  0  0
  -27.7260  -31.8290   24.8740 C   0  0  0  0  0  1  0  0  0  0  0  0
  1  3  2  0
  2 53  1  0
  2  1  1  0
  4  2  1  0
  5  6  1  0
  6  9  2  0
  7 10  1  0
  7  5  2  0
  8  9  1  0
  9  1  1  0
 10  8  2  0
 11 10  1  0
 11 20  1  0
 12 20  1  0
 13 18  1  0
 14 15  1  0
 14 13  1  0
 16 15  1  0
 16 25  1  0
 16 17  1  0
 18 12  1  0
 18 17  1  0
 19 12  2  0
 20 21  1  0
 22 23  2  0
 23 42  1  0
 24 23  1  0
 24 27  1  0
 25 26  1  0
 25 22  1  0
 26 24  2  0
 27 28  1  0
 28 29  2  0
 30 33  1  0
 30 29  1  0
 31 30  2  0
 32 31  1  0
 32 27  2  0
 33 34  1  0
 34 35  1  0
 35 36  2  0
 37 36  1  0
 37 41  1  0
 38 37  2  0
 39 34  2  0
 39 38  1  0
 40 39  1  0
 42 43  1  0
 43 46  1  0
 43 45  1  0
 44 42  2  0
 47 22  1  0
 47 48  1  0
 49 47  1  0
 50 52  1  0
 51 50  1  0
 51 52  1  0
 52 11  1  0
 54 53  1  0
 55 54  1  0
 56 55  1  0
 57 55  1  0
 58 55  1  0
 59 58  1  0
 60 62  1  0
 60 59  1  0
 61 72  2  0
 62 67  1  0
 63 71  1  0
 63 73  1  0
 64 70  1  0
 64 66  1  0
 65 71  1  0
 66 65  1  0
 67 66  2  0
 68 69  1  0
 68 62  2  0
 69 64  2  0
 70 63  1  0
 71 61  1  0
 73 75  2  0
 74 73  1  0
 76 74  1  0
 77 86  2  0
 77 82  1  0
 78 74  1  0
 78 82  1  0
 79 78  1  0
 80 81  1  0
 80 79  1  0
 81 77  1  0
 82 83  2  0
 83 84  1  0
 85 84  2  0
 86 85  1  0
 87 61  1  0
 87 88  1  0
 87 97  1  0
 88 91  1  0
 89 88  1  0
 89 93  1  0
 90 89  2  0
 93 92  1  0
 93 95  1  0
 95 96  1  0
 95 94  1  0
 97100  1  1
 97 98  1  0
 99 97  1  0
M  ISO  4  12 100  20 100  59 101  60 101
M  END
>  <TORSDO>  (47) 
F 24

>  <SCORE>  (47) 
-5.256

>  <name>  (47) 
46

>  <ligand_id>  (47) 
46

>  <original_smiles>  (47) 
[H]c1c([H])c([H])c2c(c1[H])C([H])([H])C([H])([H])C([H])([H])C2([H])N([H])C(=O)C1([H])N(C(=O)C([H])(N([H])C(=O)C([H])(N([H])C([H])([H])[H])C([H])([H])[H])C(C([H])([H])[H])(C([H])([H])[H])C([H])([H])[H])C([H])([H])c2c([H])c(OC([H])([H])C([H])([H])[N+]([H])([H])C([H])([H])C([H])([H])N([H])C(=O)c3c([H])c([H])c([H])c(C([H])(N([H])C(=O)N4C([H])([H])C([H])([H])C([H])([H])C([H])(n5nc(-c6c([H])c([H])c(Oc7c([H])c([H])c(F)c([H])c7F)c([H])c6[H])c(C(=O)N([H])[H])c5N([H])[H])C4([H])[H])C4([H])C([H])([H])C4([H])[H])c3[H])c([H])c([H])c2C1([H])[H]

>  <smiles>  (47) 
[H]c1c([H])c([H])c2c(c1[H])C([H])([H])C([H])([H])C([H])([H])C2([H])N([H])C(=O)C1([H])N(C(=O)C([H])(N([H])C(=O)C([H])(N([H])C([H])([H])[H])C([H])([H])[H])C(C([H])([H])[H])(C([H])([H])[H])C([H])([H])[H])C([H])([H])c2c([H])c(OC([H])([H])C([H])([H])[N+]([H])([H])C([H])([H])C([H])([H])N([H])C(=O)c3c([H])c([H])c([H])c(C([H])(N([H])C(=O)N4C([H])([H])C([H])([H])C([H])([H])C([H])(n5nc(-c6c([H])c([H])c(Oc7c([H])c([H])c(F)c([H])c7F)c([H])c6[H])c(C(=O)N([H])[H])c5N([H])[H])C4([H])[H])C4([H])C([H])([H])C4([H])[H])c3[H])c([H])c([H])c2C1([H])[H]

$$$$
47:0:0
     RDKit          3D

 87 95  0  0  1  0  0  0  0  0999 V2000
  -30.1450  -20.5220   19.4660 C   0  0  0  0  0  3  0  0  0  0  0  0
  -28.2500  -20.3140   20.7540 C   0  0  0  0  0  3  0  0  0  0  0  0
  -30.3540  -19.0480   19.4910 C   0  0  0  0  0  3  0  0  0  0  0  0
  -28.4500  -18.8430   20.7680 C   0  0  0  0  0  3  0  0  0  0  0  0
  -29.0780  -21.3060   20.0880 C   0  0  0  0  0  0  0  0  0  0  0  0
  -29.5210  -18.0610   20.1570 C   0  0  0  0  0  0  0  0  0  0  0  0
  -30.4010  -15.2820   19.8810 C   0  0  0  0  0  0  0  0  0  0  0  0
  -30.3280  -12.8670   18.9610 C   0  0  0  0  0  2  0  0  0  0  0  0
  -29.3220  -12.7380   17.7870 C   0  0  0  0  0  2  0  0  0  0  0  0
  -27.8970  -12.4820   18.3100 C   0  0  0  0  0  2  0  0  0  0  0  0
  -27.5420  -13.4090   19.5010 C   0  0  0  0  0  3  0  0  0  0  0  0
  -28.6630  -13.4760   20.5600 C   0  0  0  0  0  2  0  0  0  0  0  0
  -29.8680  -13.9700   19.8740 N   0  0  0  0  0  0  0  0  0  0  0  0
  -31.5720  -15.3550   19.4830 O   0  0  0  0  0  0  0  0  0  0  0  0
  -29.5840  -16.4570   20.2070 N   0  0  0  0  0  0  0  0  0  0  0  0
  -28.7340  -16.0980   20.6130 H   0  0  0  0  0  0  0  0  0  0  0  0
  -25.2340  -13.9690   20.4290 C   0  0  0  0  0  0  0  0  0  0  0  0
  -24.1940  -13.1910   20.8530 C   0  0  0  0  0  0  0  0  0  0  0  0
  -24.6440  -11.8380   20.7500 C   0  0  0  0  0  0  0  0  0  0  0  0
  -26.2480  -13.0930   20.0870 N   0  0  0  0  0  0  0  0  0  0  0  0
  -25.9100  -11.8020   20.3450 N   0  0  0  0  0  0  0  0  0  0  0  0
  -23.9210  -10.5760   20.9570 C   0  0  0  0  0  0  0  0  0  0  0  0
  -24.3890   -9.5930   21.8570 C   0  0  0  0  0  3  0  0  0  0  0  0
  -23.6630   -8.3980   22.0530 C   0  0  0  0  0  3  0  0  0  0  0  0
  -22.4540   -8.1780   21.3500 C   0  0  0  0  0  0  0  0  0  0  0  0
  -22.0060   -9.1500   20.4380 C   0  0  0  0  0  3  0  0  0  0  0  0
  -22.7330  -10.3360   20.2400 C   0  0  0  0  0  3  0  0  0  0  0  0
  -21.6960   -7.0380   21.4580 O   0  0  0  0  0  0  0  0  0  0  0  0
  -21.6720   -6.2950   22.6110 C   0  0  0  0  0  0  0  0  0  0  0  0
  -21.2440   -6.8410   23.8410 C   0  0  0  0  0  3  0  0  0  0  0  0
  -21.1710   -6.0230   24.9860 C   0  0  0  0  0  3  0  0  0  0  0  0
  -21.5130   -4.6610   24.9030 C   0  0  0  0  0  0  0  0  0  0  0  0
  -21.9320   -4.1130   23.6780 C   0  0  0  0  0  3  0  0  0  0  0  0
  -22.0090   -4.9280   22.5350 C   0  0  0  0  0  0  0  0  0  0  0  0
  -22.3940   -4.3900   21.3530 F   0  0  0  0  0  0  0  0  0  0  0  0
  -21.4350   -3.8730   26.0020 F   0  0  0  0  0  0  0  0  0  0  0  0
  -22.8240  -13.6690   21.2360 C   0  0  0  0  0  0  0  0  0  0  0  0
  -22.1570  -12.9580   22.1370 N   0  0  0  0  0  0  0  0  0  0  0  0
  -22.3600  -14.7110   20.7730 O   0  0  0  0  0  0  0  0  0  0  0  0
  -22.5500  -12.1150   22.5320 H   0  0  0  0  0  0  0  0  0  0  0  0
  -21.2410  -13.2590   22.4400 H   0  0  0  0  0  0  0  0  0  0  0  0
  -25.3970  -15.3440   20.2780 N   0  0  0  0  0  0  0  0  0  0  0  0
  -24.6420  -15.9990   20.4520 H   0  0  0  0  0  0  0  0  0  0  0  0
  -26.2130  -15.7820   19.8750 H   0  0  0  0  0  0  0  0  0  0  0  0
  -29.0670  -23.0380   20.2600 C   0  0  0  0  0  3  0  0  0  0  0  0
  -28.0290  -24.4150   19.8500 C   0  0  0  0  0  3  0  0  0  0  0  0
  -28.2340  -26.0170   20.0780 O   0  0  0  0  0  0  0  0  0  0  0  0
  -24.6030  -31.8040   23.1570 C   0  0  0  0  0  0  0  0  0  0  0  0
  -27.2040  -27.0750   20.0200 C   0  0  0  0  0  0  0  0  0  0  0  0
  -23.4220  -30.4460   21.4770 C   0  0  0  0  0  3  0  0  0  0  0  0
  -24.8860  -28.9030   20.0100 C   0  0  0  0  0  0  0  0  0  0  0  0
  -25.9820  -30.6970   21.3390 C   0  0  0  0  0  2  0  0  0  0  0  0
  -26.0650  -29.3110   20.6460 C   0  0  0  0  0  0  0  0  0  0  0  0
  -27.2200  -28.4170   20.6290 C   0  0  0  0  0  3  0  0  0  0  0  0
  -26.0000  -26.8070   19.3340 C   0  0  0  0  0  3  0  0  0  0  0  0
  -24.8760  -27.6730   19.3330 C   0  0  0  0  0  3  0  0  0  0  0  0
  -23.6590  -29.8090   20.0800 C   0  0  0  0  0  2  0  0  0  0  0  0
  -24.6900  -31.0080   22.0450 N   0  0  0  0  0  0  0  0  0  0  0  0
  -23.5110  -32.0670   23.6870 O   0  0  0  0  0  0  0  0  0  0  0  0
  -22.7370  -29.4140   22.4120 C   0  0  0  0  0  0  0  0  0  0  0  0
  -21.4060  -29.2590   22.2980 N   0  0  0  0  0  0  0  0  0  0  0  0
  -23.4110  -28.7540   23.2070 O   0  0  0  0  0  0  0  0  0  0  0  0
  -20.9130  -29.8520   21.6430 H   0  0  0  0  0  0  0  0  0  0  0  0
  -18.0240  -28.0570   22.8340 C   0  0  0  0  0  0  0  0  0  0  0  0
  -20.5910  -28.2900   23.0390 C   0  0  0  0  0  3  0  0  0  0  0  0
  -20.6650  -26.8880   22.3900 C   0  0  0  0  0  2  0  0  0  0  0  0
  -19.5270  -26.6190   21.3990 C   0  0  0  0  0  2  0  0  0  0  0  0
  -18.1710  -26.7360   22.0990 C   0  0  0  0  0  2  0  0  0  0  0  0
  -19.1590  -28.7950   23.2640 C   0  0  0  0  0  0  0  0  0  0  0  0
  -18.9640  -30.0290   23.9200 C   0  0  0  0  0  3  0  0  0  0  0  0
  -17.6680  -30.5300   24.1420 C   0  0  0  0  0  3  0  0  0  0  0  0
  -16.5470  -29.7920   23.7240 C   0  0  0  0  0  3  0  0  0  0  0  0
  -16.7260  -28.5550   23.0780 C   0  0  0  0  0  3  0  0  0  0  0  0
  -25.8680  -32.4380   23.8100 C   0  0  0  0  0  3  0  0  0  0  0  0
  -25.5480  -33.8360   24.1520 N   0  0  0  0  0  0  0  0  0  0  0  0
  -25.8710  -34.9000   23.4070 C   0  0  0  0  0  0  0  0  0  0  0  0
  -26.5320  -34.8090   22.3670 O   0  0  0  0  0  0  0  0  0  0  0  0
  -24.9600  -33.9780   24.9600 H   0  0  0  0  0  0  0  0  0  0  0  0
  -24.1270  -36.6900   23.1080 C   0  0  0  0  0  1  0  0  0  0  0  0
  -25.3890  -36.2850   23.8860 C   0  0  0  0  0  3  0  0  0  0  0  0
  -27.5330  -37.1870   24.6800 C   0  0  0  0  0  1  0  0  0  0  0  0
  -26.4130  -37.3450   23.7530 N   0  0  0  0  0  0  0  0  0  0  0  0
  -26.0050  -38.2630   23.9060 H   0  0  0  0  0  0  0  0  0  0  0  0
  -26.3600  -31.6610   25.0940 C   0  0  1  0  0  0  0  0  0  0  0  0
  -25.2470  -31.4190   26.1400 C   0  0  0  0  0  1  0  0  0  0  0  0
  -26.9490  -30.2830   24.7150 C   0  0  0  0  0  1  0  0  0  0  0  0
  -27.5000  -32.4500   25.7790 C   0  0  0  0  0  1  0  0  0  0  0  0
  1  3  2  0
  1  5  1  0
  2  4  1  0
  3  6  1  0
  5 45  1  0
  5  2  2  0
  6 15  1  0
  6  4  2  0
  7 15  1  0
  8 13  1  0
  9 10  1  0
  9  8  1  0
 11 10  1  0
 11 20  1  0
 11 12  1  0
 13  7  1  0
 13 12  1  0
 14  7  2  0
 15 16  1  0
 17 18  2  0
 18 37  1  0
 19 18  1  0
 19 22  1  0
 20 21  1  0
 20 17  1  0
 21 19  2  0
 22 23  1  0
 23 24  2  0
 25 28  1  0
 25 24  1  0
 26 25  2  0
 27 26  1  0
 27 22  2  0
 28 29  1  0
 29 30  1  0
 30 31  2  0
 32 31  1  0
 32 36  1  0
 33 32  2  0
 34 29  2  0
 34 33  1  0
 35 34  1  0
 37 38  1  0
 38 41  1  0
 38 40  1  0
 39 37  2  0
 42 17  1  0
 42 43  1  0
 44 42  1  0
 46 47  1  0
 46 45  2  0
 48 59  2  0
 49 47  1  0
 49 54  1  0
 50 58  1  0
 50 60  1  0
 51 57  1  0
 51 53  1  0
 52 58  1  0
 53 52  1  0
 54 53  2  0
 55 49  2  0
 56 55  1  0
 56 51  2  0
 57 50  1  0
 58 48  1  0
 60 62  2  0
 61 60  1  0
 63 61  1  0
 64 73  2  0
 64 69  1  0
 65 61  1  0
 65 69  1  0
 66 65  1  0
 67 68  1  0
 67 66  1  0
 68 64  1  0
 69 70  2  0
 70 71  1  0
 72 71  2  0
 73 72  1  0
 74 48  1  0
 74 75  1  0
 74 84  1  0
 75 78  1  0
 76 80  1  0
 76 75  1  0
 77 76  2  0
 80 79  1  0
 82 80  1  0
 82 83  1  0
 82 81  1  0
 84 87  1  1
 84 85  1  0
 86 84  1  0
M  ISO  4   7 100  15 100  46 101  47 101
M  END
>  <TORSDO>  (48) 
F 18

>  <SCORE>  (48) 
-15.173

>  <name>  (48) 
47

>  <ligand_id>  (48) 
47

>  <original_smiles>  (48) 
[H]c1c([H])c([H])c2c(c1[H])C([H])([H])C([H])([H])C([H])([H])C2([H])N([H])C(=O)C1([H])N(C(=O)C([H])(N([H])C(=O)C([H])(N([H])C([H])([H])[H])C([H])([H])[H])C(C([H])([H])[H])(C([H])([H])[H])C([H])([H])[H])C([H])([H])c2c([H])c(OC([H])([H])C([H])([H])c3c([H])c([H])c(N([H])C(=O)N4C([H])([H])C([H])([H])C([H])([H])C([H])(n5nc(-c6c([H])c([H])c(Oc7c([H])c([H])c(F)c([H])c7F)c([H])c6[H])c(C(=O)N([H])[H])c5N([H])[H])C4([H])[H])c([H])c3[H])c([H])c([H])c2C1([H])[H]

>  <smiles>  (48) 
[H]c1c([H])c([H])c2c(c1[H])C([H])([H])C([H])([H])C([H])([H])C2([H])N([H])C(=O)C1([H])N(C(=O)C([H])(N([H])C(=O)C([H])(N([H])C([H])([H])[H])C([H])([H])[H])C(C([H])([H])[H])(C([H])([H])[H])C([H])([H])[H])C([H])([H])c2c([H])c(OC([H])([H])C([H])([H])c3c([H])c([H])c(N([H])C(=O)N4C([H])([H])C([H])([H])C([H])([H])C([H])(n5nc(-c6c([H])c([H])c(Oc7c([H])c([H])c(F)c([H])c7F)c([H])c6[H])c(C(=O)N([H])[H])c5N([H])[H])C4([H])[H])c([H])c3[H])c([H])c([H])c2C1([H])[H]

$$$$
48:0:0
     RDKit          3D

103106  0  0  1  0  0  0  0  0999 V2000
  -22.8360  -25.6260   15.9620 C   0  0  0  0  0  2  0  0  0  0  0  0
  -24.2480  -25.3060   15.6470 C   0  0  0  0  0  2  0  0  0  0  0  0
  -22.8760  -26.5040   17.2230 C   0  0  0  0  0  2  0  0  0  0  0  0
  -25.1670  -26.0920   16.5960 C   0  0  0  0  0  3  0  0  0  0  0  0
  -24.2410  -26.5320   17.8760 N   0  0  1  0  0  4  0  0  0  0  0  0
  -24.2430  -25.7070   18.4550 H   0  0  0  0  0  0  0  0  0  0  0  0
  -27.6920  -25.6880   15.9610 C   0  0  0  0  0  3  0  0  0  0  0  0
  -26.5820  -23.6350   16.2450 C   0  0  0  0  0  2  0  0  0  0  0  0
  -28.9180  -25.0640   16.2870 C   0  0  0  0  0  3  0  0  0  0  0  0
  -27.8720  -23.0030   16.5480 C   0  0  0  0  0  2  0  0  0  0  0  0
  -26.4690  -25.0950   16.3890 C   0  0  0  0  0  3  0  0  0  0  0  0
  -28.8410  -23.9090   17.0710 C   0  0  0  0  0  3  0  0  0  0  0  0
  -29.4470  -23.8980   18.5670 C   0  0  0  0  0  2  0  0  0  0  0  0
  -29.3280  -25.1570   19.4010 O   0  0  0  0  0  0  0  0  0  0  0  0
  -24.6250  -31.3590   23.0900 C   0  0  0  0  0  0  0  0  0  0  0  0
  -28.3300  -25.0970   20.2560 C   0  0  0  0  0  3  0  0  0  0  0  0
  -23.3340  -29.2170   21.8580 C   0  0  0  0  0  2  0  0  0  0  0  0
  -24.8290  -26.0230   20.8570 C   0  0  0  0  0  2  0  0  0  0  0  0
  -26.4370  -29.1320   22.2720 C   0  0  0  0  0  1  0  0  0  0  0  0
  -26.8250  -27.1850   21.6780 C   0  0  0  0  0  1  0  0  0  0  0  0
  -28.2040  -26.4640   21.3380 C   0  0  0  0  0  2  0  0  0  0  0  0
  -26.8360  -24.1800   19.4760 C   0  0  0  0  0  3  0  0  0  0  0  0
  -25.1260  -24.6880   19.9400 C   0  0  0  0  0  2  0  0  0  0  0  0
  -23.1090  -27.2650   21.1810 C   0  0  0  0  0 15  0  0  0  0  0  0
  -24.8320  -30.0160   22.4190 N   0  0  0  0  0  0  0  0  0  0  0  0
  -23.5160  -31.9160   23.2590 O   0  0  0  0  0  0  0  0  0  0  0  0
  -22.2780  -29.4070   22.8780 C   0  0  0  0  0  0  0  0  0  0  0  0
  -21.0130  -29.2600   22.5060 N   0  0  0  0  0  0  0  0  0  0  0  0
  -22.5820  -29.4380   24.0450 O   0  0  0  0  0  0  0  0  0  0  0  0
  -20.8070  -29.2240   21.5110 H   0  0  0  0  0  0  0  0  0  0  0  0
  -17.7050  -28.2330   23.0320 C   0  0  0  0  0  0  0  0  0  0  0  0
  -20.1710  -28.5500   23.4620 C   0  0  0  0  0  3  0  0  0  0  0  0
  -20.2440  -27.0240   23.3100 C   0  0  0  0  0  2  0  0  0  0  0  0
  -19.3870  -26.4920   22.1590 C   0  0  0  0  0  2  0  0  0  0  0  0
  -17.9160  -26.8350   22.4550 C   0  0  0  0  0  2  0  0  0  0  0  0
  -18.7690  -29.0560   23.4580 C   0  0  0  0  0  0  0  0  0  0  0  0
  -18.5490  -30.3600   23.9440 C   0  0  0  0  0  3  0  0  0  0  0  0
  -17.2360  -30.8460   24.0440 C   0  0  0  0  0  3  0  0  0  0  0  0
  -16.1650  -30.0290   23.6470 C   0  0  0  0  0  3  0  0  0  0  0  0
  -16.3940  -28.7370   23.1380 C   0  0  0  0  0  3  0  0  0  0  0  0
  -25.6950  -32.4140   23.7800 C   0  0  0  0  0  3  0  0  0  0  0  0
  -25.1860  -33.8590   23.9090 N   0  0  0  0  0  0  0  0  0  0  0  0
  -25.6360  -35.0270   23.3550 C   0  0  0  0  0  0  0  0  0  0  0  0
  -26.4800  -35.0190   22.4620 O   0  0  0  0  0  0  0  0  0  0  0  0
  -24.4380  -33.9180   24.5770 H   0  0  0  0  0  0  0  0  0  0  0  0
  -23.9180  -36.8790   22.9480 C   0  0  0  0  0  1  0  0  0  0  0  0
  -25.1060  -36.4320   23.8170 C   0  0  0  0  0  3  0  0  0  0  0  0
  -27.1690  -37.4550   24.7890 C   0  0  0  0  0  1  0  0  0  0  0  0
  -26.1130  -37.5280   23.7800 N   0  0  0  0  0  0  0  0  0  0  0  0
  -25.6480  -38.4240   23.8340 H   0  0  0  0  0  0  0  0  0  0  0  0
  -26.1440  -32.0280   25.2590 C   0  0  1  0  0  0  0  0  0  0  0  0
  -24.9450  -31.8280   26.2150 C   0  0  0  0  0  1  0  0  0  0  0  0
  -26.9750  -30.7410   25.2740 C   0  0  0  0  0  1  0  0  0  0  0  0
  -27.0790  -33.0790   25.9200 C   0  0  0  0  0  1  0  0  0  0  0  0
  -24.2420  -27.8200   18.9820 C   0  0  0  0  0  3  0  0  0  0  0  0
  -26.0220  -27.7240   19.4790 C   0  0  0  0  0  3  0  0  0  0  0  0
  -26.5750  -26.3310   19.4370 C   0  0  0  0  0  1  0  0  0  0  0  0
  -25.7660  -24.9840   22.6110 C   0  0  0  0  0  1  0  0  0  0  0  0
  -25.0390  -28.0340   20.6260 C   0  0  0  0  0  2  0  0  0  0  0  0
  -24.8880  -26.7490   22.6340 C   0  0  0  0  0  2  0  0  0  0  0  0
  -26.6570  -24.1270   21.2530 C   0  0  0  0  0  2  0  0  0  0  0  0
  -28.4580  -18.9570   20.5920 C   0  0  0  0  0  1  0  0  0  0  0  0
  -29.5900  -15.6310   19.6180 C   0  0  0  0  0  2  0  0  0  0  0  0
  -29.3750  -14.2270   18.6290 C   0  0  0  0  0  2  0  0  0  0  0  0
  -28.4650  -13.0920   19.1270 C   0  0  0  0  0  2  0  0  0  0  0  0
  -27.5040  -13.9390   19.9650 C   0  0  0  0  0  3  0  0  0  0  0  0
  -28.0670  -15.3130   20.8860 C   0  0  0  0  0  2  0  0  0  0  0  0
  -28.4860  -16.9460   20.3070 N   0  0  0  0  0  2  0  0  0  0  0  0
  -29.7190  -18.4700   20.4420 O   0  0  0  0  0  1  0  0  0  0  0  0
  -27.5390  -21.2870   20.9000 N   0  0  0  0  0  1  0  0  0  0  0  0
  -28.4660  -21.6010   20.6460 H   0  0  0  0  0  0  0  0  0  0  0  0
  -25.1270  -13.7840   20.6480 C   0  0  0  0  0  0  0  0  0  0  0  0
  -24.1910  -12.8620   20.9830 C   0  0  0  0  0  0  0  0  0  0  0  0
  -24.8040  -11.5740   20.8700 C   0  0  0  0  0  0  0  0  0  0  0  0
  -26.3110  -13.1430   20.4460 N   0  0  0  0  0  0  0  0  0  0  0  0
  -26.1200  -11.7550   20.5560 N   0  0  0  0  0  0  0  0  0  0  0  0
  -24.1270  -10.2430   21.0250 C   0  0  0  0  0  0  0  0  0  0  0  0
  -24.5380   -9.2770   21.9710 C   0  0  0  0  0  3  0  0  0  0  0  0
  -23.8300   -8.0610   22.1440 C   0  0  0  0  0  3  0  0  0  0  0  0
  -22.6750   -7.7760   21.3760 C   0  0  0  0  0  0  0  0  0  0  0  0
  -22.2600   -8.7350   20.4330 C   0  0  0  0  0  3  0  0  0  0  0  0
  -22.9740   -9.9410   20.2600 C   0  0  0  0  0  3  0  0  0  0  0  0
  -21.9410   -6.6080   21.4600 O   0  0  0  0  0  0  0  0  0  0  0  0
  -21.8550   -5.8730   22.6180 C   0  0  0  0  0  0  0  0  0  0  0  0
  -21.3550   -6.4310   23.8130 C   0  0  0  0  0  3  0  0  0  0  0  0
  -21.2020   -5.6290   24.9630 C   0  0  0  0  0  3  0  0  0  0  0  0
  -21.5550   -4.2660   24.9260 C   0  0  0  0  0  0  0  0  0  0  0  0
  -22.0380   -3.7000   23.7330 C   0  0  0  0  0  3  0  0  0  0  0  0
  -22.1850   -4.5010   22.5830 C   0  0  0  0  0  0  0  0  0  0  0  0
  -22.6340   -3.9390   21.4330 F   0  0  0  0  0  0  0  0  0  0  0  0
  -21.4160   -3.4940   26.0290 F   0  0  0  0  0  0  0  0  0  0  0  0
  -22.7630  -13.2140   21.2590 C   0  0  0  0  0  0  0  0  0  0  0  0
  -22.0790  -12.4760   22.1230 N   0  0  0  0  0  0  0  0  0  0  0  0
  -22.2670  -14.2150   20.7490 O   0  0  0  0  0  0  0  0  0  0  0  0
  -22.5010  -11.6820   22.5770 H   0  0  0  0  0  0  0  0  0  0  0  0
  -21.1310  -12.7270   22.3660 H   0  0  0  0  0  0  0  0  0  0  0  0
  -25.0600  -15.1580   20.4640 N   0  0  0  0  0  0  0  0  0  0  0  0
  -24.2010  -15.6940   20.5480 H   0  0  0  0  0  0  0  0  0  0  0  0
  -25.8580  -15.7210   20.1990 H   0  0  0  0  0  0  0  0  0  0  0  0
  -24.6790  -26.8970   24.1380 C   0  0  1  0  0  0  0  0  0  0  0  0
  -23.5310  -26.3310   24.4700 F   0  0  0  0  0  0  0  0  0  0  0  0
  -25.6250  -26.2010   24.7650 F   0  0  0  0  0  0  0  0  0  0  0  0
  -24.7930  -28.0270   24.7310 F   0  0  0  0  0  0  0  0  0  0  0  0
  1  3  1  0
  2  1  1  0
  3  5  1  0
  4  2  1  0
  4  5  1  0
  5  6  1  1
  5 55  1  0
  7  9  2  0
  8 11  1  0
  8 10  1  0
  9 12  1  0
 10 12  1  0
 11  7  1  0
 11  4  1  0
 12 13  1  0
 13 14  1  0
 14 16  1  0
 15 26  2  0
 16 21  1  0
 17 25  1  0
 17 27  1  0
 18 60  1  0
 19 25  1  0
 21 20  1  0
 22 23  1  0
 22 16  1  0
 22 61  1  0
 23 18  1  0
 25 15  1  0
 27 29  2  0
 28 27  1  0
 30 28  1  0
 31 40  2  0
 31 36  1  0
 32 28  1  0
 33 32  1  0
 34 35  1  0
 34 33  1  0
 35 31  1  0
 36 32  1  0
 36 37  2  0
 37 38  1  0
 39 38  2  0
 40 39  1  0
 41 15  1  0
 41 42  1  0
 41 51  1  0
 42 45  1  0
 43 47  1  0
 43 42  1  0
 44 43  2  0
 47 46  1  0
 49 47  1  0
 49 50  1  0
 49 48  1  0
 51 53  1  6
 51 54  1  0
 51 52  1  0
 55 56  1  0
 55 59  1  0
 56 57  1  0
 56 59  1  0
 60100  1  0
 61 58  1  0
 63 68  1  0
 64 65  1  0
 64 63  1  0
 66 65  1  0
 66 75  1  0
 66 67  1  0
 68 67  1  0
 69 62  1  0
 71 70  1  0
 72 73  2  0
 73 92  1  0
 74 73  1  0
 74 77  1  0
 75 76  1  0
 75 72  1  0
 76 74  2  0
 77 78  1  0
 78 79  2  0
 80 83  1  0
 80 79  1  0
 81 80  2  0
 82 81  1  0
 82 77  2  0
 83 84  1  0
 84 85  1  0
 85 86  2  0
 87 86  1  0
 87 91  1  0
 88 87  2  0
 89 84  2  0
 89 88  1  0
 90 89  1  0
 92 93  1  0
 93 96  1  0
 93 95  1  0
 94 92  2  0
 97 98  1  0
 97 72  1  0
 99 97  1  0
100101  1  6
100103  1  0
100102  1  0
M  ISO  4  13 101  14 101  62 100  70 100
M  END
>  <TORSDO>  (49) 
F 21

>  <SCORE>  (49) 
-11.896

>  <name>  (49) 
48

>  <ligand_id>  (49) 
48

>  <original_smiles>  (49) 
[H]c1c([H])c([H])c2c(c1[H])C([H])([H])C([H])([H])C([H])([H])C2([H])N([H])C(=O)C1([H])N(C(=O)C([H])(N([H])C(=O)C([H])(N([H])C([H])([H])[H])C([H])([H])[H])C(C([H])([H])[H])(C([H])([H])[H])C([H])([H])[H])C([H])([H])c2c([H])c(OC([H])([H])c3c([H])c([H])c(C4([H])C([H])([H])C([H])([H])C([H])([H])[N+]4([H])C([H])([H])c4c([H])c([H])c(N([H])C(=O)N5C([H])([H])C([H])([H])C([H])([H])C([H])(n6nc(-c7c([H])c([H])c(Oc8c([H])c([H])c(F)c([H])c8F)c([H])c7[H])c(C(=O)N([H])[H])c6N([H])[H])C5([H])[H])c([H])c4C(F)(F)F)c([H])c3[H])c([H])c([H])c2C1([H])[H]

>  <smiles>  (49) 
[H]c1c([H])c([H])c2c(c1[H])C([H])([H])C([H])([H])C([H])([H])C2([H])N([H])C(=O)C1([H])N(C(=O)C([H])(N([H])C(=O)C([H])(N([H])C([H])([H])[H])C([H])([H])[H])C(C([H])([H])[H])(C([H])([H])[H])C([H])([H])[H])C([H])([H])c2c([H])c(OC([H])([H])c3c([H])c([H])c(C4([H])C([H])([H])C([H])([H])C([H])([H])[N+]4([H])C([H])([H])c4c([H])c([H])c(N([H])C(=O)N5C([H])([H])C([H])([H])C([H])([H])C([H])(n6nc(-c7c([H])c([H])c(Oc8c([H])c([H])c(F)c([H])c8F)c([H])c7[H])c(C(=O)N([H])[H])c6N([H])[H])C5([H])[H])c([H])c4C(F)(F)F)c([H])c3[H])c([H])c([H])c2C1([H])[H]

$$$$
49:0:0
     RDKit          3D

 91 99  0  0  1  0  0  0  0  0999 V2000
  -29.6700  -21.2100   22.0430 O   0  0  0  0  0  0  0  0  0  0  0  0
  -30.8600  -17.8050   22.7520 C   0  0  0  0  0  3  0  0  0  0  0  0
  -31.3450  -18.2890   20.4150 C   0  0  0  0  0  3  0  0  0  0  0  0
  -30.2810  -19.0800   22.8920 C   0  0  0  0  0  3  0  0  0  0  0  0
  -30.7600  -19.5640   20.5560 C   0  0  0  0  0  3  0  0  0  0  0  0
  -31.4080  -17.4110   21.5160 C   0  0  0  0  0  0  0  0  0  0  0  0
  -30.2320  -19.9750   21.8040 C   0  0  0  0  0  0  0  0  0  0  0  0
  -32.0700  -16.0530   21.3750 C   0  0  0  0  0  2  0  0  0  0  0  0
  -31.2400  -14.4280   19.6830 C   0  0  0  0  0  0  0  0  0  0  0  0
  -30.6360  -12.3580   18.4860 C   0  0  0  0  0  2  0  0  0  0  0  0
  -29.5620  -12.5680   17.4060 C   0  0  0  0  0  2  0  0  0  0  0  0
  -28.1540  -12.4680   18.0170 C   0  0  0  0  0  2  0  0  0  0  0  0
  -27.9920  -13.3600   19.2750 C   0  0  0  0  0  3  0  0  0  0  0  0
  -29.1560  -13.1360   20.2650 C   0  0  0  0  0  2  0  0  0  0  0  0
  -30.4340  -13.3450   19.5550 N   0  0  0  0  0  0  0  0  0  0  0  0
  -32.0970  -14.7430   18.8500 O   0  0  0  0  0  0  0  0  0  0  0  0
  -31.1560  -15.0370   20.8690 N   0  0  0  0  0  0  0  0  0  0  0  0
  -30.4620  -14.6840   21.5110 H   0  0  0  0  0  0  0  0  0  0  0  0
  -25.7650  -14.0760   20.3550 C   0  0  0  0  0  0  0  0  0  0  0  0
  -24.6940  -13.3530   20.8060 C   0  0  0  0  0  0  0  0  0  0  0  0
  -25.0300  -11.9800   20.6010 C   0  0  0  0  0  0  0  0  0  0  0  0
  -26.6930  -13.1450   19.9120 N   0  0  0  0  0  0  0  0  0  0  0  0
  -26.2590  -11.8740   20.1130 N   0  0  0  0  0  0  0  0  0  0  0  0
  -24.2310  -10.7620   20.7890 C   0  0  0  0  0  0  0  0  0  0  0  0
  -24.6590   -9.7240   21.6460 C   0  0  0  0  0  3  0  0  0  0  0  0
  -23.8660   -8.5690   21.8240 C   0  0  0  0  0  3  0  0  0  0  0  0
  -22.6310   -8.4450   21.1440 C   0  0  0  0  0  0  0  0  0  0  0  0
  -22.2210   -9.4720   20.2750 C   0  0  0  0  0  3  0  0  0  0  0  0
  -23.0130  -10.6180   20.0950 C   0  0  0  0  0  3  0  0  0  0  0  0
  -21.8070   -7.3500   21.2350 O   0  0  0  0  0  0  0  0  0  0  0  0
  -21.7200   -6.6080   22.3850 C   0  0  0  0  0  0  0  0  0  0  0  0
  -21.3220   -7.1800   23.6140 C   0  0  0  0  0  3  0  0  0  0  0  0
  -21.1800   -6.3670   24.7560 C   0  0  0  0  0  3  0  0  0  0  0  0
  -21.4250   -4.9830   24.6710 C   0  0  0  0  0  0  0  0  0  0  0  0
  -21.8160   -4.4110   23.4480 C   0  0  0  0  0  3  0  0  0  0  0  0
  -21.9600   -5.2210   22.3070 C   0  0  0  0  0  0  0  0  0  0  0  0
  -22.3160   -4.6610   21.1260 F   0  0  0  0  0  0  0  0  0  0  0  0
  -21.2800   -4.2010   25.7650 F   0  0  0  0  0  0  0  0  0  0  0  0
  -23.3910  -13.9020   21.3120 C   0  0  0  0  0  0  0  0  0  0  0  0
  -22.7340  -13.1880   22.2190 N   0  0  0  0  0  0  0  0  0  0  0  0
  -22.9700  -14.9970   20.9380 O   0  0  0  0  0  0  0  0  0  0  0  0
  -23.0890  -12.2990   22.5400 H   0  0  0  0  0  0  0  0  0  0  0  0
  -21.8650  -13.5350   22.5990 H   0  0  0  0  0  0  0  0  0  0  0  0
  -26.0210  -15.4420   20.2690 N   0  0  0  0  0  0  0  0  0  0  0  0
  -25.3400  -16.1430   20.5410 H   0  0  0  0  0  0  0  0  0  0  0  0
  -26.8690  -15.8400   19.8840 H   0  0  0  0  0  0  0  0  0  0  0  0
  -29.7960  -22.2200   21.0500 C   0  0  0  0  0  2  0  0  0  0  0  0
  -29.0710  -23.4660   21.5680 C   0  0  0  0  0  2  0  0  0  0  0  0
  -29.1270  -24.6580   20.6010 C   0  0  0  0  0  2  0  0  0  0  0  0
  -28.4260  -25.8900   21.1840 C   0  0  0  0  0  2  0  0  0  0  0  0
  -28.4650  -26.9680   20.2550 O   0  0  0  0  0  0  0  0  0  0  0  0
  -24.5750  -32.0090   23.3920 C   0  0  0  0  0  0  0  0  0  0  0  0
  -27.3010  -27.6890   20.2510 C   0  0  0  0  0  0  0  0  0  0  0  0
  -23.3930  -30.6080   21.7280 C   0  0  0  0  0  3  0  0  0  0  0  0
  -24.8760  -29.1170   20.2850 C   0  0  0  0  0  0  0  0  0  0  0  0
  -25.9080  -31.0240   21.5360 C   0  0  0  0  0  2  0  0  0  0  0  0
  -26.0190  -29.6650   20.8800 C   0  0  0  0  0  0  0  0  0  0  0  0
  -27.2380  -28.9550   20.8660 C   0  0  0  0  0  3  0  0  0  0  0  0
  -26.1480  -27.1420   19.6550 C   0  0  0  0  0  3  0  0  0  0  0  0
  -24.9320  -27.8520   19.6710 C   0  0  0  0  0  3  0  0  0  0  0  0
  -23.6140  -29.9480   20.3410 C   0  0  0  0  0  2  0  0  0  0  0  0
  -24.6420  -31.2270   22.2780 N   0  0  0  0  0  0  0  0  0  0  0  0
  -23.4890  -32.2560   23.9360 O   0  0  0  0  0  0  0  0  0  0  0  0
  -22.7600  -29.5640   22.6740 C   0  0  0  0  0  0  0  0  0  0  0  0
  -21.4560  -29.3020   22.4880 N   0  0  0  0  0  0  0  0  0  0  0  0
  -23.4390  -28.9900   23.5310 O   0  0  0  0  0  0  0  0  0  0  0  0
  -20.9680  -29.8210   21.7700 H   0  0  0  0  0  0  0  0  0  0  0  0
  -18.1580  -27.8570   22.7770 C   0  0  0  0  0  0  0  0  0  0  0  0
  -20.6580  -28.3300   23.2330 C   0  0  0  0  0  3  0  0  0  0  0  0
  -20.9180  -26.8930   22.7280 C   0  0  0  0  0  2  0  0  0  0  0  0
  -19.9280  -26.4450   21.6470 C   0  0  0  0  0  2  0  0  0  0  0  0
  -18.4930  -26.5020   22.1760 C   0  0  0  0  0  2  0  0  0  0  0  0
  -19.1760  -28.7220   23.2580 C   0  0  0  0  0  0  0  0  0  0  0  0
  -18.8140  -29.9850   23.7740 C   0  0  0  0  0  3  0  0  0  0  0  0
  -17.4660  -30.3860   23.8150 C   0  0  0  0  0  3  0  0  0  0  0  0
  -16.4610  -29.5190   23.3520 C   0  0  0  0  0  3  0  0  0  0  0  0
  -16.8070  -28.2560   22.8390 C   0  0  0  0  0  3  0  0  0  0  0  0
  -25.8510  -32.6520   24.0210 C   0  0  0  0  0  3  0  0  0  0  0  0
  -25.5500  -34.0640   24.2880 N   0  0  0  0  0  0  0  0  0  0  0  0
  -25.9150  -35.0810   23.4970 C   0  0  0  0  0  0  0  0  0  0  0  0
  -26.6140  -34.9290   22.4900 O   0  0  0  0  0  0  0  0  0  0  0  0
  -24.9350  -34.2560   25.0640 H   0  0  0  0  0  0  0  0  0  0  0  0
  -24.2130  -36.8700   23.0230 C   0  0  0  0  0  1  0  0  0  0  0  0
  -25.4290  -36.4900   23.8830 C   0  0  0  0  0  3  0  0  0  0  0  0
  -27.5490  -37.3920   24.7320 C   0  0  0  0  0  1  0  0  0  0  0  0
  -26.4740  -37.5290   23.7540 N   0  0  0  0  0  0  0  0  0  0  0  0
  -26.0730  -38.4580   23.8530 H   0  0  0  0  0  0  0  0  0  0  0  0
  -26.3310  -31.9220   25.3360 C   0  0  1  0  0  0  0  0  0  0  0  0
  -25.2030  -31.6970   26.3690 C   0  0  0  0  0  1  0  0  0  0  0  0
  -26.9470  -30.5430   25.0010 C   0  0  0  0  0  1  0  0  0  0  0  0
  -27.4460  -32.7500   26.0170 C   0  0  0  0  0  1  0  0  0  0  0  0
  2  4  1  0
  3  5  2  0
  3  6  1  0
  5  7  1  0
  6  2  2  0
  7  1  1  0
  7  4  2  0
  8  6  1  0
  9 17  1  0
 10 15  1  0
 11 12  1  0
 11 10  1  0
 13 12  1  0
 13 22  1  0
 13 14  1  0
 15  9  1  0
 15 14  1  0
 16  9  2  0
 17  8  1  0
 17 18  1  0
 19 20  2  0
 20 39  1  0
 21 24  1  0
 21 20  1  0
 22 23  1  0
 22 19  1  0
 23 21  2  0
 24 25  1  0
 25 26  2  0
 27 30  1  0
 27 26  1  0
 28 27  2  0
 29 28  1  0
 29 24  2  0
 30 31  1  0
 31 32  1  0
 32 33  2  0
 34 33  1  0
 34 38  1  0
 35 34  2  0
 36 31  2  0
 36 35  1  0
 37 36  1  0
 39 40  1  0
 40 42  1  0
 40 43  1  0
 41 39  2  0
 44 19  1  0
 44 45  1  0
 46 44  1  0
 47 48  1  0
 47  1  1  0
 49 50  1  0
 49 48  1  0
 51 50  1  0
 52 63  2  0
 53 51  1  0
 53 58  1  0
 54 62  1  0
 54 64  1  0
 55 61  1  0
 55 57  1  0
 56 62  1  0
 57 56  1  0
 58 57  2  0
 59 60  1  0
 59 53  2  0
 60 55  2  0
 61 54  1  0
 62 52  1  0
 64 66  2  0
 65 64  1  0
 67 65  1  0
 68 77  2  0
 68 73  1  0
 69 65  1  0
 69 73  1  0
 70 69  1  0
 71 72  1  0
 71 70  1  0
 72 68  1  0
 73 74  2  0
 74 75  1  0
 76 75  2  0
 77 76  1  0
 78 52  1  0
 78 79  1  0
 78 88  1  0
 79 82  1  0
 80 84  1  0
 80 79  1  0
 81 80  2  0
 84 83  1  0
 86 87  1  0
 86 84  1  0
 86 85  1  0
 88 91  1  1
 88 89  1  0
 90 88  1  0
M  ISO  4   9 100  17 100  50 101  51 101
M  END
>  <TORSDO>  (50) 
F 22

>  <SCORE>  (50) 
-10.573

>  <name>  (50) 
49

>  <ligand_id>  (50) 
49

>  <original_smiles>  (50) 
[H]c1c([H])c([H])c2c(c1[H])C([H])([H])C([H])([H])C([H])([H])C2([H])N([H])C(=O)C1([H])N(C(=O)C([H])(N([H])C(=O)C([H])(N([H])C([H])([H])[H])C([H])([H])[H])C(C([H])([H])[H])(C([H])([H])[H])C([H])([H])[H])C([H])([H])c2c([H])c(OC([H])([H])C([H])([H])C([H])([H])C([H])([H])Oc3c([H])c([H])c(C([H])([H])N([H])C(=O)N4C([H])([H])C([H])([H])C([H])([H])C([H])(n5nc(-c6c([H])c([H])c(Oc7c([H])c([H])c(F)c([H])c7F)c([H])c6[H])c(C(=O)N([H])[H])c5N([H])[H])C4([H])[H])c([H])c3[H])c([H])c([H])c2C1([H])[H]

>  <smiles>  (50) 
[H]c1c([H])c([H])c2c(c1[H])C([H])([H])C([H])([H])C([H])([H])C2([H])N([H])C(=O)C1([H])N(C(=O)C([H])(N([H])C(=O)C([H])(N([H])C([H])([H])[H])C([H])([H])[H])C(C([H])([H])[H])(C([H])([H])[H])C([H])([H])[H])C([H])([H])c2c([H])c(OC([H])([H])C([H])([H])C([H])([H])C([H])([H])Oc3c([H])c([H])c(C([H])([H])N([H])C(=O)N4C([H])([H])C([H])([H])C([H])([H])C([H])(n5nc(-c6c([H])c([H])c(Oc7c([H])c([H])c(F)c([H])c7F)c([H])c6[H])c(C(=O)N([H])[H])c5N([H])[H])C4([H])[H])c([H])c3[H])c([H])c([H])c2C1([H])[H]

$$$$
50:0:0
     RDKit          3D

 93102  0  0  1  0  0  0  0  0999 V2000
  -28.0150  -24.1280   19.7330 C   0  0  0  0  0  0  0  0  0  0  0  0
  -28.6240  -24.6510   21.9470 C   0  0  0  0  0  2  0  0  0  0  0  0
  -28.2780  -23.1520   21.8110 C   0  0  0  0  0  2  0  0  0  0  0  0
  -27.9020  -25.2580   20.7550 C   0  0  0  0  0  3  0  0  0  0  0  0
  -28.1000  -22.9410   20.3630 N   0  0  0  0  0  0  0  0  0  0  0  0
  -27.9180  -24.3020   18.5150 O   0  0  0  0  0  0  0  0  0  0  0  0
  -28.2910  -26.5740   20.2550 O   0  0  0  0  0  0  0  0  0  0  0  0
  -24.6130  -31.8720   23.2320 C   0  0  0  0  0  0  0  0  0  0  0  0
  -27.2020  -27.4210   20.1270 C   0  0  0  0  0  0  0  0  0  0  0  0
  -23.3930  -30.4830   21.5910 C   0  0  0  0  0  3  0  0  0  0  0  0
  -24.8360  -28.9680   20.1330 C   0  0  0  0  0  0  0  0  0  0  0  0
  -25.9210  -30.8310   21.3840 C   0  0  0  0  0  2  0  0  0  0  0  0
  -26.0020  -29.4690   20.7260 C   0  0  0  0  0  0  0  0  0  0  0  0
  -27.1930  -28.7050   20.7190 C   0  0  0  0  0  3  0  0  0  0  0  0
  -26.0290  -26.9620   19.4820 C   0  0  0  0  0  3  0  0  0  0  0  0
  -24.8480  -27.7140   19.4990 C   0  0  0  0  0  3  0  0  0  0  0  0
  -23.5920  -29.8240   20.2020 C   0  0  0  0  0  2  0  0  0  0  0  0
  -24.6620  -31.0740   22.1270 N   0  0  0  0  0  0  0  0  0  0  0  0
  -23.5360  -32.1420   23.7810 O   0  0  0  0  0  0  0  0  0  0  0  0
  -22.7490  -29.4520   22.5450 C   0  0  0  0  0  0  0  0  0  0  0  0
  -21.4220  -29.2720   22.4280 N   0  0  0  0  0  0  0  0  0  0  0  0
  -23.4370  -28.8180   23.3500 O   0  0  0  0  0  0  0  0  0  0  0  0
  -20.9250  -29.8360   21.7540 H   0  0  0  0  0  0  0  0  0  0  0  0
  -18.0530  -28.0790   22.9530 C   0  0  0  0  0  0  0  0  0  0  0  0
  -20.6120  -28.3330   23.2040 C   0  0  0  0  0  3  0  0  0  0  0  0
  -20.7070  -26.9020   22.6250 C   0  0  0  0  0  2  0  0  0  0  0  0
  -19.5970  -26.5830   21.6180 C   0  0  0  0  0  2  0  0  0  0  0  0
  -18.2210  -26.7310   22.2740 C   0  0  0  0  0  2  0  0  0  0  0  0
  -19.1760  -28.8380   23.3760 C   0  0  0  0  0  0  0  0  0  0  0  0
  -18.9640  -30.1010   23.9700 C   0  0  0  0  0  3  0  0  0  0  0  0
  -17.6610  -30.6040   24.1460 C   0  0  0  0  0  3  0  0  0  0  0  0
  -16.5520  -29.8410   23.7380 C   0  0  0  0  0  3  0  0  0  0  0  0
  -16.7480  -28.5810   23.1470 C   0  0  0  0  0  3  0  0  0  0  0  0
  -25.9040  -32.5000   23.8430 C   0  0  0  0  0  3  0  0  0  0  0  0
  -26.4410  -31.7150   25.1030 C   0  0  1  0  0  0  0  0  0  0  0  0
  -25.3650  -31.4630   26.1850 C   0  0  0  0  0  1  0  0  0  0  0  0
  -27.0230  -30.3440   24.6860 C   0  0  0  0  0  1  0  0  0  0  0  0
  -27.5980  -32.5060   25.7580 C   0  0  0  0  0  1  0  0  0  0  0  0
  -25.5960  -33.8920   24.1910 N   0  0  0  0  0  0  0  0  0  0  0  0
  -25.9080  -34.9500   23.4300 C   0  0  0  0  0  0  0  0  0  0  0  0
  -26.5560  -34.8570   22.3840 O   0  0  0  0  0  0  0  0  0  0  0  0
  -25.0230  -34.0410   25.0080 H   0  0  0  0  0  0  0  0  0  0  0  0
  -24.1580  -36.7300   23.1270 C   0  0  0  0  0  1  0  0  0  0  0  0
  -25.4220  -36.3320   23.9060 C   0  0  0  0  0  3  0  0  0  0  0  0
  -27.5710  -37.2250   24.6850 C   0  0  0  0  0  1  0  0  0  0  0  0
  -26.4430  -37.3940   23.7730 N   0  0  0  0  0  0  0  0  0  0  0  0
  -26.0350  -38.3090   23.9420 H   0  0  0  0  0  0  0  0  0  0  0  0
  -27.4750  -21.7300   19.7890 C   0  0  0  0  0  2  0  0  0  0  0  0
  -29.2430  -20.0870   20.7620 C   0  0  0  0  0  3  0  0  0  0  0  0
  -27.6160  -19.3060   19.1260 C   0  0  0  0  0  3  0  0  0  0  0  0
  -29.8410  -18.8080   20.7710 C   0  0  0  0  0  3  0  0  0  0  0  0
  -28.2300  -18.0420   19.1100 C   0  0  0  0  0  3  0  0  0  0  0  0
  -28.1420  -20.3570   19.9200 C   0  0  0  0  0  0  0  0  0  0  0  0
  -29.3750  -17.8040   19.8970 C   0  0  0  0  0  0  0  0  0  0  0  0
  -30.1730  -16.5410   19.6760 C   0  0  0  0  0  2  0  0  0  0  0  0
  -30.7010  -14.3680   20.4690 C   0  0  0  0  0  0  0  0  0  0  0  0
  -30.3510  -12.2390   19.3370 C   0  0  0  0  0  2  0  0  0  0  0  0
  -29.4330  -12.5190   18.1330 C   0  0  0  0  0  2  0  0  0  0  0  0
  -27.9460  -12.4270   18.5360 C   0  0  0  0  0  2  0  0  0  0  0  0
  -27.6130  -13.2390   19.8120 C   0  0  0  0  0  3  0  0  0  0  0  0
  -28.6600  -12.9970   20.9290 C   0  0  0  0  0  2  0  0  0  0  0  0
  -30.0020  -13.2180   20.3700 N   0  0  0  0  0  0  0  0  0  0  0  0
  -31.8790  -14.4890   20.1310 O   0  0  0  0  0  0  0  0  0  0  0  0
  -29.9050  -15.4300   20.5740 N   0  0  0  0  0  0  0  0  0  0  0  0
  -28.9380  -15.1840   20.7360 H   0  0  0  0  0  0  0  0  0  0  0  0
  -25.2210  -13.8770   20.4960 C   0  0  0  0  0  0  0  0  0  0  0  0
  -24.1440  -13.1250   20.8590 C   0  0  0  0  0  0  0  0  0  0  0  0
  -24.5920  -11.7680   20.8400 C   0  0  0  0  0  0  0  0  0  0  0  0
  -26.2540  -12.9810   20.2800 N   0  0  0  0  0  0  0  0  0  0  0  0
  -25.8800  -11.7030   20.5420 N   0  0  0  0  0  0  0  0  0  0  0  0
  -23.8560  -10.5120   21.0350 C   0  0  0  0  0  0  0  0  0  0  0  0
  -24.2820   -9.5420   21.9660 C   0  0  0  0  0  3  0  0  0  0  0  0
  -23.5470   -8.3540   22.1510 C   0  0  0  0  0  3  0  0  0  0  0  0
  -22.3640   -8.1270   21.4010 C   0  0  0  0  0  0  0  0  0  0  0  0
  -21.9610   -9.0900   20.4530 C   0  0  0  0  0  3  0  0  0  0  0  0
  -22.6970  -10.2700   20.2700 C   0  0  0  0  0  3  0  0  0  0  0  0
  -21.5900   -6.9940   21.4910 O   0  0  0  0  0  0  0  0  0  0  0  0
  -21.5430   -6.2460   22.6420 C   0  0  0  0  0  0  0  0  0  0  0  0
  -21.1560   -6.8010   23.8840 C   0  0  0  0  0  3  0  0  0  0  0  0
  -21.0730   -5.9770   25.0280 C   0  0  0  0  0  3  0  0  0  0  0  0
  -21.3570   -4.6030   24.9270 C   0  0  0  0  0  0  0  0  0  0  0  0
  -21.7360   -4.0460   23.6900 C   0  0  0  0  0  3  0  0  0  0  0  0
  -21.8330   -4.8690   22.5540 C   0  0  0  0  0  0  0  0  0  0  0  0
  -22.1830   -4.3300   21.3640 F   0  0  0  0  0  0  0  0  0  0  0  0
  -21.2600   -3.8100   26.0210 F   0  0  0  0  0  0  0  0  0  0  0  0
  -22.7500  -13.6200   21.0890 C   0  0  0  0  0  0  0  0  0  0  0  0
  -22.0290  -12.9690   21.9990 N   0  0  0  0  0  0  0  0  0  0  0  0
  -22.3160  -14.6180   20.5190 O   0  0  0  0  0  0  0  0  0  0  0  0
  -22.4570  -12.2500   22.5650 H   0  0  0  0  0  0  0  0  0  0  0  0
  -21.0960  -13.2900   22.2170 H   0  0  0  0  0  0  0  0  0  0  0  0
  -25.4170  -15.2400   20.3120 N   0  0  0  0  0  0  0  0  0  0  0  0
  -24.7000  -15.9440   20.4420 H   0  0  0  0  0  0  0  0  0  0  0  0
  -26.3190  -15.6040   20.0630 H   0  0  0  0  0  0  0  0  0  0  0  0
  1  5  1  0
  1  4  1  0
  3  2  1  0
  4  7  1  0
  4  2  1  0
  5  3  1  0
  6  1  2  0
  8 19  2  0
  9  7  1  0
  9 14  1  0
 10 18  1  0
 10 20  1  0
 11 17  1  0
 11 13  1  0
 12 18  1  0
 13 12  1  0
 14 13  2  0
 15 16  1  0
 15  9  2  0
 16 11  2  0
 17 10  1  0
 18  8  1  0
 20 22  2  0
 21 20  1  0
 23 21  1  0
 24 33  2  0
 24 29  1  0
 25 21  1  0
 25 29  1  0
 26 25  1  0
 27 28  1  0
 27 26  1  0
 28 24  1  0
 29 30  2  0
 30 31  1  0
 32 31  2  0
 33 32  1  0
 34  8  1  0
 34 39  1  0
 34 35  1  0
 35 38  1  1
 35 36  1  0
 37 35  1  0
 39 42  1  0
 40 44  1  0
 40 39  1  0
 41 40  2  0
 44 43  1  0
 46 44  1  0
 46 47  1  0
 46 45  1  0
 48 53  1  0
 48  5  1  0
 49 51  1  0
 50 53  1  0
 52 50  2  0
 52 54  1  0
 53 49  2  0
 54 51  2  0
 55 54  1  0
 55 64  1  0
 56 64  1  0
 57 62  1  0
 58 59  1  0
 58 57  1  0
 60 59  1  0
 60 69  1  0
 60 61  1  0
 62 56  1  0
 62 61  1  0
 63 56  2  0
 64 65  1  0
 66 67  2  0
 67 86  1  0
 68 67  1  0
 68 71  1  0
 69 66  1  0
 69 70  1  0
 70 68  2  0
 71 72  1  0
 72 73  2  0
 74 77  1  0
 74 73  1  0
 75 74  2  0
 76 75  1  0
 76 71  2  0
 77 78  1  0
 78 79  1  0
 79 80  2  0
 81 80  1  0
 81 85  1  0
 82 81  2  0
 83 78  2  0
 83 82  1  0
 84 83  1  0
 86 87  1  0
 87 90  1  0
 87 89  1  0
 88 86  2  0
 91 92  1  0
 91 66  1  0
 93 91  1  0
M  ISO  4   4 101   7 101  56 100  64 100
M  END
>  <TORSDO>  (51) 
F 19

>  <SCORE>  (51) 
-14.416

>  <name>  (51) 
50

>  <ligand_id>  (51) 
50

>  <original_smiles>  (51) 
[H]c1c([H])c([H])c2c(c1[H])C([H])([H])C([H])([H])C([H])([H])C2([H])N([H])C(=O)C1([H])N(C(=O)C([H])(N([H])C(=O)C([H])(N([H])C([H])([H])[H])C([H])([H])[H])C(C([H])([H])[H])(C([H])([H])[H])C([H])([H])[H])C([H])([H])c2c([H])c(OC3([H])C(=O)N(C([H])([H])c4c([H])c([H])c(C([H])([H])N([H])C(=O)N5C([H])([H])C([H])([H])C([H])([H])C([H])(n6nc(-c7c([H])c([H])c(Oc8c([H])c([H])c(F)c([H])c8F)c([H])c7[H])c(C(=O)N([H])[H])c6N([H])[H])C5([H])[H])c([H])c4[H])C([H])([H])C3([H])[H])c([H])c([H])c2C1([H])[H]

>  <smiles>  (51) 
[H]c1c([H])c([H])c2c(c1[H])C([H])([H])C([H])([H])C([H])([H])C2([H])N([H])C(=O)C1([H])N(C(=O)C([H])(N([H])C(=O)C([H])(N([H])C([H])([H])[H])C([H])([H])[H])C(C([H])([H])[H])(C([H])([H])[H])C([H])([H])[H])C([H])([H])c2c([H])c(OC3([H])C(=O)N(C([H])([H])c4c([H])c([H])c(C([H])([H])N([H])C(=O)N5C([H])([H])C([H])([H])C([H])([H])C([H])(n6nc(-c7c([H])c([H])c(Oc8c([H])c([H])c(F)c([H])c8F)c([H])c7[H])c(C(=O)N([H])[H])c6N([H])[H])C5([H])[H])c([H])c4[H])C([H])([H])C3([H])[H])c([H])c([H])c2C1([H])[H]

$$$$
51:0:0
     RDKit          3D

 91 99  0  0  1  0  0  0  0  0999 V2000
  -29.2610  -24.0590   20.3970 C   0  0  0  0  0  0  0  0  0  0  0  0
  -29.0930  -22.7010   20.5350 N   0  0  0  0  0  0  0  0  0  0  0  0
  -30.3830  -24.5330   20.1950 O   0  0  0  0  0  0  0  0  0  0  0  0
  -28.1590  -22.3530   20.7130 H   0  0  0  0  0  0  0  0  0  0  0  0
  -30.2090  -21.6960   20.5130 C   0  0  0  0  0  2  0  0  0  0  0  0
  -28.7970  -19.4360   20.7510 C   0  0  0  0  0  3  0  0  0  0  0  0
  -31.1520  -19.3080   20.3020 C   0  0  0  0  0  3  0  0  0  0  0  0
  -28.7470  -18.0040   20.7720 C   0  0  0  0  0  3  0  0  0  0  0  0
  -31.1030  -17.8840   20.3160 C   0  0  0  0  0  3  0  0  0  0  0  0
  -30.0100  -20.1310   20.5140 C   0  0  0  0  0  0  0  0  0  0  0  0
  -29.8960  -17.1830   20.5540 C   0  0  0  0  0  0  0  0  0  0  0  0
  -30.5790  -14.6800   20.2110 C   0  0  0  0  0  0  0  0  0  0  0  0
  -30.3560  -12.4550   19.1140 C   0  0  0  0  0  2  0  0  0  0  0  0
  -29.3830  -12.6090   17.9230 C   0  0  0  0  0  2  0  0  0  0  0  0
  -27.9210  -12.4310   18.3850 C   0  0  0  0  0  2  0  0  0  0  0  0
  -27.5940  -13.2660   19.6500 C   0  0  0  0  0  3  0  0  0  0  0  0
  -28.6790  -13.0920   20.7370 C   0  0  0  0  0  2  0  0  0  0  0  0
  -29.9710  -13.4530   20.1330 N   0  0  0  0  0  0  0  0  0  0  0  0
  -31.7290  -14.8450   19.7930 O   0  0  0  0  0  0  0  0  0  0  0  0
  -29.7690  -15.7200   20.6020 N   0  0  0  0  0  0  0  0  0  0  0  0
  -28.8570  -15.3950   20.8880 H   0  0  0  0  0  0  0  0  0  0  0  0
  -25.2220  -13.8580   20.4370 C   0  0  0  0  0  0  0  0  0  0  0  0
  -24.1650  -13.0810   20.8280 C   0  0  0  0  0  0  0  0  0  0  0  0
  -24.6250  -11.7290   20.7680 C   0  0  0  0  0  0  0  0  0  0  0  0
  -26.2580  -12.9790   20.1640 N   0  0  0  0  0  0  0  0  0  0  0  0
  -25.9060  -11.6930   20.4210 N   0  0  0  0  0  0  0  0  0  0  0  0
  -23.9040  -10.4650   20.9640 C   0  0  0  0  0  0  0  0  0  0  0  0
  -24.3390   -9.5040   21.9020 C   0  0  0  0  0  3  0  0  0  0  0  0
  -23.6190   -8.3050   22.0860 C   0  0  0  0  0  3  0  0  0  0  0  0
  -22.4490   -8.0580   21.3290 C   0  0  0  0  0  0  0  0  0  0  0  0
  -22.0310   -9.0090   20.3800 C   0  0  0  0  0  3  0  0  0  0  0  0
  -22.7530  -10.1990   20.1940 C   0  0  0  0  0  3  0  0  0  0  0  0
  -21.7000   -6.9100   21.4220 O   0  0  0  0  0  0  0  0  0  0  0  0
  -21.6190   -6.1940   22.5890 C   0  0  0  0  0  0  0  0  0  0  0  0
  -21.1600   -6.7760   23.7920 C   0  0  0  0  0  3  0  0  0  0  0  0
  -21.0280   -5.9840   24.9500 C   0  0  0  0  0  3  0  0  0  0  0  0
  -21.3450   -4.6140   24.9080 C   0  0  0  0  0  0  0  0  0  0  0  0
  -21.7990   -4.0320   23.7110 C   0  0  0  0  0  3  0  0  0  0  0  0
  -21.9320   -4.8190   22.5530 C   0  0  0  0  0  0  0  0  0  0  0  0
  -22.3470   -4.2480   21.3980 F   0  0  0  0  0  0  0  0  0  0  0  0
  -21.2110   -3.8530   26.0200 F   0  0  0  0  0  0  0  0  0  0  0  0
  -22.7750  -13.5560   21.1420 C   0  0  0  0  0  0  0  0  0  0  0  0
  -22.0720  -12.8500   22.0200 N   0  0  0  0  0  0  0  0  0  0  0  0
  -22.3200  -14.5860   20.6410 O   0  0  0  0  0  0  0  0  0  0  0  0
  -22.4520  -12.0190   22.4480 H   0  0  0  0  0  0  0  0  0  0  0  0
  -21.1400  -13.1460   22.2700 H   0  0  0  0  0  0  0  0  0  0  0  0
  -25.3820  -15.2310   20.2700 N   0  0  0  0  0  0  0  0  0  0  0  0
  -24.6130  -15.8810   20.3940 H   0  0  0  0  0  0  0  0  0  0  0  0
  -26.2080  -15.6720   19.8850 H   0  0  0  0  0  0  0  0  0  0  0  0
  -28.0390  -25.0490   20.5000 C   0  0  0  0  0  2  0  0  0  0  0  0
  -28.3210  -26.4850   20.2210 O   0  0  0  0  0  0  0  0  0  0  0  0
  -24.6200  -31.8920   23.2420 C   0  0  0  0  0  0  0  0  0  0  0  0
  -27.2110  -27.3440   20.1720 C   0  0  0  0  0  0  0  0  0  0  0  0
  -23.4070  -30.5010   21.6050 C   0  0  0  0  0  3  0  0  0  0  0  0
  -24.8480  -28.9580   20.1640 C   0  0  0  0  0  0  0  0  0  0  0  0
  -25.9450  -30.8190   21.4100 C   0  0  0  0  0  2  0  0  0  0  0  0
  -26.0190  -29.4420   20.7600 C   0  0  0  0  0  0  0  0  0  0  0  0
  -27.2050  -28.6480   20.7540 C   0  0  0  0  0  3  0  0  0  0  0  0
  -26.0220  -26.9210   19.5370 C   0  0  0  0  0  3  0  0  0  0  0  0
  -24.8520  -27.7020   19.5410 C   0  0  0  0  0  3  0  0  0  0  0  0
  -23.6120  -29.8320   20.2200 C   0  0  0  0  0  2  0  0  0  0  0  0
  -24.6760  -31.0890   22.1410 N   0  0  0  0  0  0  0  0  0  0  0  0
  -23.5410  -32.1680   23.7830 O   0  0  0  0  0  0  0  0  0  0  0  0
  -22.7490  -29.4790   22.5630 C   0  0  0  0  0  0  0  0  0  0  0  0
  -21.4240  -29.3010   22.4390 N   0  0  0  0  0  0  0  0  0  0  0  0
  -23.4310  -28.8530   23.3780 O   0  0  0  0  0  0  0  0  0  0  0  0
  -20.9320  -29.8570   21.7520 H   0  0  0  0  0  0  0  0  0  0  0  0
  -18.0480  -28.1040   22.9470 C   0  0  0  0  0  0  0  0  0  0  0  0
  -20.6070  -28.3630   23.2110 C   0  0  0  0  0  3  0  0  0  0  0  0
  -20.7080  -26.9310   22.6350 C   0  0  0  0  0  2  0  0  0  0  0  0
  -19.6030  -26.6100   21.6230 C   0  0  0  0  0  2  0  0  0  0  0  0
  -18.2230  -26.7550   22.2700 C   0  0  0  0  0  2  0  0  0  0  0  0
  -19.1670  -28.8660   23.3740 C   0  0  0  0  0  0  0  0  0  0  0  0
  -18.9490  -30.1290   23.9660 C   0  0  0  0  0  3  0  0  0  0  0  0
  -17.6450  -30.6300   24.1360 C   0  0  0  0  0  3  0  0  0  0  0  0
  -16.5400  -29.8640   23.7240 C   0  0  0  0  0  3  0  0  0  0  0  0
  -16.7430  -28.6020   23.1360 C   0  0  0  0  0  3  0  0  0  0  0  0
  -25.9070  -32.5210   23.8580 C   0  0  0  0  0  3  0  0  0  0  0  0
  -26.4370  -31.7370   25.1220 C   0  0  1  0  0  0  0  0  0  0  0  0
  -25.3540  -31.4870   26.1970 C   0  0  0  0  0  1  0  0  0  0  0  0
  -27.0170  -30.3630   24.7130 C   0  0  0  0  0  1  0  0  0  0  0  0
  -27.5930  -32.5250   25.7810 C   0  0  0  0  0  1  0  0  0  0  0  0
  -25.5970  -33.9150   24.2060 N   0  0  0  0  0  0  0  0  0  0  0  0
  -25.9010  -34.9750   23.4450 C   0  0  0  0  0  0  0  0  0  0  0  0
  -26.5410  -34.8820   22.3940 O   0  0  0  0  0  0  0  0  0  0  0  0
  -25.0270  -34.0600   25.0250 H   0  0  0  0  0  0  0  0  0  0  0  0
  -24.1400  -36.7500   23.1630 C   0  0  0  0  0  1  0  0  0  0  0  0
  -25.4170  -36.3580   23.9230 C   0  0  0  0  0  3  0  0  0  0  0  0
  -27.5740  -37.2640   24.6700 C   0  0  0  0  0  1  0  0  0  0  0  0
  -26.4330  -37.4220   23.7720 N   0  0  0  0  0  0  0  0  0  0  0  0
  -26.0230  -38.3370   23.9360 H   0  0  0  0  0  0  0  0  0  0  0  0
  1 50  1  0
  1  2  1  0
  2  4  1  0
  3  1  2  0
  5 10  1  0
  5  2  1  0
  6  8  1  0
  7  9  2  0
  7 10  1  0
  9 11  1  0
 10  6  2  0
 11 20  1  0
 11  8  2  0
 12 20  1  0
 13 18  1  0
 14 15  1  0
 14 13  1  0
 16 15  1  0
 16 25  1  0
 16 17  1  0
 18 12  1  0
 18 17  1  0
 19 12  2  0
 20 21  1  0
 22 23  2  0
 23 42  1  0
 24 23  1  0
 24 27  1  0
 25 26  1  0
 25 22  1  0
 26 24  2  0
 27 28  1  0
 28 29  2  0
 30 33  1  0
 30 29  1  0
 31 30  2  0
 32 31  1  0
 32 27  2  0
 33 34  1  0
 34 35  1  0
 35 36  2  0
 37 36  1  0
 37 41  1  0
 38 37  2  0
 39 34  2  0
 39 38  1  0
 40 39  1  0
 42 43  1  0
 43 46  1  0
 43 45  1  0
 44 42  2  0
 47 48  1  0
 47 22  1  0
 49 47  1  0
 51 50  1  0
 52 63  2  0
 53 51  1  0
 53 58  1  0
 54 62  1  0
 54 64  1  0
 55 61  1  0
 55 57  1  0
 56 62  1  0
 57 56  1  0
 58 57  2  0
 59 60  1  0
 59 53  2  0
 60 55  2  0
 61 54  1  0
 62 52  1  0
 64 66  2  0
 65 64  1  0
 67 65  1  0
 68 77  2  0
 68 73  1  0
 69 65  1  0
 69 73  1  0
 70 69  1  0
 71 72  1  0
 71 70  1  0
 72 68  1  0
 73 74  2  0
 74 75  1  0
 76 75  2  0
 77 76  1  0
 78 52  1  0
 78 83  1  0
 78 79  1  0
 79 82  1  1
 79 80  1  0
 81 79  1  0
 83 86  1  0
 84 88  1  0
 84 83  1  0
 85 84  2  0
 88 87  1  0
 90 88  1  0
 90 91  1  0
 90 89  1  0
M  ISO  4  12 100  20 100  50 101  51 101
M  END
>  <TORSDO>  (52) 
F 19

>  <SCORE>  (52) 
-14.083

>  <name>  (52) 
51

>  <ligand_id>  (52) 
51

>  <original_smiles>  (52) 
[H]c1c([H])c([H])c2c(c1[H])C([H])([H])C([H])([H])C([H])([H])C2([H])N([H])C(=O)C1([H])N(C(=O)C([H])(N([H])C(=O)C([H])(N([H])C([H])([H])[H])C([H])([H])[H])C(C([H])([H])[H])(C([H])([H])[H])C([H])([H])[H])C([H])([H])c2c([H])c(OC([H])([H])C(=O)N([H])C([H])([H])c3c([H])c([H])c(N([H])C(=O)N4C([H])([H])C([H])([H])C([H])([H])C([H])(n5nc(-c6c([H])c([H])c(Oc7c([H])c([H])c(F)c([H])c7F)c([H])c6[H])c(C(=O)N([H])[H])c5N([H])[H])C4([H])[H])c([H])c3[H])c([H])c([H])c2C1([H])[H]

>  <smiles>  (52) 
[H]c1c([H])c([H])c2c(c1[H])C([H])([H])C([H])([H])C([H])([H])C2([H])N([H])C(=O)C1([H])N(C(=O)C([H])(N([H])C(=O)C([H])(N([H])C([H])([H])[H])C([H])([H])[H])C(C([H])([H])[H])(C([H])([H])[H])C([H])([H])[H])C([H])([H])c2c([H])c(OC([H])([H])C(=O)N([H])C([H])([H])c3c([H])c([H])c(N([H])C(=O)N4C([H])([H])C([H])([H])C([H])([H])C([H])(n5nc(-c6c([H])c([H])c(Oc7c([H])c([H])c(F)c([H])c7F)c([H])c6[H])c(C(=O)N([H])[H])c5N([H])[H])C4([H])[H])c([H])c3[H])c([H])c([H])c2C1([H])[H]

$$$$
52:0:0
     RDKit          3D

 98106  0  0  1  0  0  0  0  0999 V2000
  -29.3730  -19.2550   20.2080 C   0  0  0  0  0  3  0  0  0  0  0  0
  -30.4860  -18.1220   20.2590 C   0  0  0  0  0  3  0  0  0  0  0  0
  -31.9400  -18.7070   20.3260 C   0  0  0  0  0  3  0  0  0  0  0  0
  -32.6100  -22.1290   17.7020 C   0  0  0  0  0  3  0  0  0  0  0  0
  -33.0250  -22.1740   19.0460 C   0  0  0  0  0  3  0  0  0  0  0  0
  -32.0360  -20.9500   17.1860 C   0  0  0  0  0  3  0  0  0  0  0  0
  -32.8420  -21.0520   19.8780 C   0  0  0  0  0  3  0  0  0  0  0  0
  -31.8570  -19.8260   18.0180 C   0  0  0  0  0  3  0  0  0  0  0  0
  -32.2210  -19.8800   19.3810 C   0  0  0  0  0  0  0  0  0  0  0  0
  -32.9130  -17.6920   20.1700 O   0  0  0  0  0  0  0  0  0  0  0  0
  -32.7150  -17.2080   19.3760 H   0  0  0  0  0  0  0  0  0  0  0  0
  -30.2590  -16.9940   21.3460 C   0  0  0  0  0  2  0  0  0  0  0  0
  -30.6110  -14.5890   20.4840 C   0  0  0  0  0  0  0  0  0  0  0  0
  -30.3650  -12.4010   19.3470 C   0  0  0  0  0  2  0  0  0  0  0  0
  -29.4110  -12.5450   18.1430 C   0  0  0  0  0  2  0  0  0  0  0  0
  -27.9420  -12.3830   18.5820 C   0  0  0  0  0  2  0  0  0  0  0  0
  -27.5890  -13.2470   19.8210 C   0  0  0  0  0  3  0  0  0  0  0  0
  -28.6470  -13.0700   20.9320 C   0  0  0  0  0  2  0  0  0  0  0  0
  -29.9590  -13.3970   20.3520 N   0  0  0  0  0  0  0  0  0  0  0  0
  -31.7750  -14.7480   20.1120 O   0  0  0  0  0  0  0  0  0  0  0  0
  -29.8460  -15.6340   20.8950 N   0  0  0  0  0  0  0  0  0  0  0  0
  -28.8790  -15.3990   21.0590 H   0  0  0  0  0  0  0  0  0  0  0  0
  -25.1940  -13.8520   20.5410 C   0  0  0  0  0  0  0  0  0  0  0  0
  -24.1290  -13.0770   20.9120 C   0  0  0  0  0  0  0  0  0  0  0  0
  -24.5920  -11.7260   20.8820 C   0  0  0  0  0  0  0  0  0  0  0  0
  -26.2390  -12.9720   20.3070 N   0  0  0  0  0  0  0  0  0  0  0  0
  -25.8810  -11.6900   20.5740 N   0  0  0  0  0  0  0  0  0  0  0  0
  -23.8690  -10.4630   21.0690 C   0  0  0  0  0  0  0  0  0  0  0  0
  -24.3060   -9.4940   22.0010 C   0  0  0  0  0  3  0  0  0  0  0  0
  -23.5820   -8.2950   22.1760 C   0  0  0  0  0  3  0  0  0  0  0  0
  -22.4110   -8.0560   21.4180 C   0  0  0  0  0  0  0  0  0  0  0  0
  -21.9970   -9.0130   20.4770 C   0  0  0  0  0  3  0  0  0  0  0  0
  -22.7200  -10.2020   20.3000 C   0  0  0  0  0  3  0  0  0  0  0  0
  -21.6620   -6.9090   21.5030 O   0  0  0  0  0  0  0  0  0  0  0  0
  -21.6150   -6.1600   22.6520 C   0  0  0  0  0  0  0  0  0  0  0  0
  -21.1890   -6.7070   23.8830 C   0  0  0  0  0  3  0  0  0  0  0  0
  -21.0920   -5.8850   25.0240 C   0  0  0  0  0  3  0  0  0  0  0  0
  -21.4120   -4.5180   24.9350 C   0  0  0  0  0  0  0  0  0  0  0  0
  -21.8290   -3.9690   23.7110 C   0  0  0  0  0  3  0  0  0  0  0  0
  -21.9290   -4.7870   22.5720 C   0  0  0  0  0  0  0  0  0  0  0  0
  -22.3120   -4.2490   21.3890 F   0  0  0  0  0  0  0  0  0  0  0  0
  -21.3110   -3.7270   26.0290 F   0  0  0  0  0  0  0  0  0  0  0  0
  -22.7290  -13.5520   21.1790 C   0  0  0  0  0  0  0  0  0  0  0  0
  -21.9970  -12.8500   22.0390 N   0  0  0  0  0  0  0  0  0  0  0  0
  -22.2920  -14.5790   20.6610 O   0  0  0  0  0  0  0  0  0  0  0  0
  -22.3630  -12.0190   22.4780 H   0  0  0  0  0  0  0  0  0  0  0  0
  -21.0570  -13.1490   22.2580 H   0  0  0  0  0  0  0  0  0  0  0  0
  -25.3590  -15.2220   20.3640 N   0  0  0  0  0  0  0  0  0  0  0  0
  -24.5930  -15.8770   20.4830 H   0  0  0  0  0  0  0  0  0  0  0  0
  -26.2000  -15.6600   20.0060 H   0  0  0  0  0  0  0  0  0  0  0  0
  -29.4730  -20.5030   21.1600 C   0  0  0  0  0  3  0  0  0  0  0  0
  -28.4380  -21.6630   20.9340 C   0  0  0  0  0  2  0  0  0  0  0  0
  -28.9500  -22.8780   20.2110 N   0  0  0  0  0  4  0  0  0  0  0  0
  -28.8890  -22.6960   19.2200 H   0  0  0  0  0  0  0  0  0  0  0  0
  -29.9300  -22.9870   20.4230 H   0  0  0  0  0  0  0  0  0  0  0  0
  -28.2470  -24.1720   20.5340 C   0  0  0  0  0  2  0  0  0  0  0  0
  -28.6380  -25.3880   19.6260 C   0  0  0  0  0  2  0  0  0  0  0  0
  -28.4750  -26.7010   20.2290 O   0  0  0  0  0  0  0  0  0  0  0  0
  -24.5990  -31.8860   23.2450 C   0  0  0  0  0  0  0  0  0  0  0  0
  -27.2810  -27.4080   20.1900 C   0  0  0  0  0  0  0  0  0  0  0  0
  -23.4140  -30.4790   21.5970 C   0  0  0  0  0  3  0  0  0  0  0  0
  -24.8830  -28.9370   20.1810 C   0  0  0  0  0  0  0  0  0  0  0  0
  -25.9440  -30.8280   21.4240 C   0  0  0  0  0  2  0  0  0  0  0  0
  -26.0340  -29.4530   20.7860 C   0  0  0  0  0  0  0  0  0  0  0  0
  -27.2310  -28.6920   20.7910 C   0  0  0  0  0  3  0  0  0  0  0  0
  -26.1030  -26.9100   19.5830 C   0  0  0  0  0  3  0  0  0  0  0  0
  -24.9110  -27.6640   19.5850 C   0  0  0  0  0  3  0  0  0  0  0  0
  -23.6360  -29.7980   20.2200 C   0  0  0  0  0  2  0  0  0  0  0  0
  -24.6700  -31.0830   22.1460 N   0  0  0  0  0  0  0  0  0  0  0  0
  -23.5110  -32.1610   23.7710 O   0  0  0  0  0  0  0  0  0  0  0  0
  -22.7550  -29.4590   22.5520 C   0  0  0  0  0  0  0  0  0  0  0  0
  -21.4300  -29.2790   22.4210 N   0  0  0  0  0  0  0  0  0  0  0  0
  -23.4350  -28.8290   23.3670 O   0  0  0  0  0  0  0  0  0  0  0  0
  -20.9430  -29.8370   21.7310 H   0  0  0  0  0  0  0  0  0  0  0  0
  -18.0440  -28.1100   22.9120 C   0  0  0  0  0  0  0  0  0  0  0  0
  -20.6050  -28.3450   23.1850 C   0  0  0  0  0  3  0  0  0  0  0  0
  -20.6970  -26.9170   22.5970 C   0  0  0  0  0  2  0  0  0  0  0  0
  -19.5900  -26.6120   21.5820 C   0  0  0  0  0  2  0  0  0  0  0  0
  -18.2090  -26.7660   22.2250 C   0  0  0  0  0  2  0  0  0  0  0  0
  -19.1700  -28.8600   23.3460 C   0  0  0  0  0  0  0  0  0  0  0  0
  -18.9610  -30.1230   23.9420 C   0  0  0  0  0  3  0  0  0  0  0  0
  -17.6590  -30.6320   24.1140 C   0  0  0  0  0  3  0  0  0  0  0  0
  -16.5480  -29.8790   23.6930 C   0  0  0  0  0  3  0  0  0  0  0  0
  -16.7440  -28.6210   23.0950 C   0  0  0  0  0  3  0  0  0  0  0  0
  -25.8760  -32.5230   23.8750 C   0  0  0  0  0  3  0  0  0  0  0  0
  -26.3830  -31.7550   25.1570 C   0  0  1  0  0  0  0  0  0  0  0  0
  -25.2790  -31.5160   26.2140 C   0  0  0  0  0  1  0  0  0  0  0  0
  -26.9780  -30.3790   24.7740 C   0  0  0  0  0  1  0  0  0  0  0  0
  -27.5240  -32.5590   25.8270 C   0  0  0  0  0  1  0  0  0  0  0  0
  -25.5560  -33.9180   24.1960 N   0  0  0  0  0  0  0  0  0  0  0  0
  -25.8990  -34.9710   23.4400 C   0  0  0  0  0  0  0  0  0  0  0  0
  -26.5820  -34.8670   22.4170 O   0  0  0  0  0  0  0  0  0  0  0  0
  -24.9330  -34.0660   24.9760 H   0  0  0  0  0  0  0  0  0  0  0  0
  -24.1720  -36.7640   23.0630 C   0  0  0  0  0  1  0  0  0  0  0  0
  -25.4040  -36.3580   23.8870 C   0  0  0  0  0  3  0  0  0  0  0  0
  -27.5300  -37.2490   24.7420 C   0  0  0  0  0  1  0  0  0  0  0  0
  -26.4370  -37.4120   23.7870 N   0  0  0  0  0  0  0  0  0  0  0  0
  -26.0270  -38.3320   23.9270 H   0  0  0  0  0  0  0  0  0  0  0  0
  1 51  2  0
  2  1  1  0
  2  3  1  0
  2 12  1  0
  3 10  1  0
  4  5  1  0
  5  7  2  0
  6  4  2  0
  6  8  1  0
  8  9  2  0
  9  7  1  0
  9  3  1  0
 11 10  1  0
 13 21  1  0
 14 19  1  0
 15 16  1  0
 15 14  1  0
 17 16  1  0
 17 26  1  0
 17 18  1  0
 19 13  1  0
 19 18  1  0
 20 13  2  0
 21 22  1  0
 21 12  1  0
 23 24  2  0
 24 43  1  0
 25 24  1  0
 25 28  1  0
 26 23  1  0
 26 27  1  0
 27 25  2  0
 28 29  1  0
 29 30  2  0
 31 34  1  0
 31 30  1  0
 32 31  2  0
 33 32  1  0
 33 28  2  0
 34 35  1  0
 35 36  1  0
 36 37  2  0
 38 37  1  0
 38 42  1  0
 39 38  2  0
 40 35  2  0
 40 39  1  0
 41 40  1  0
 43 44  1  0
 44 47  1  0
 44 46  1  0
 45 43  2  0
 48 49  1  0
 48 23  1  0
 50 48  1  0
 52 51  1  0
 53 55  1  0
 53 56  1  0
 53 52  1  0
 54 53  1  0
 57 58  1  0
 57 56  1  0
 59 70  2  0
 60 58  1  0
 60 65  1  0
 61 69  1  0
 61 71  1  0
 62 68  1  0
 62 64  1  0
 63 69  1  0
 64 65  2  0
 64 63  1  0
 66 67  1  0
 66 60  2  0
 67 62  2  0
 68 61  1  0
 69 59  1  0
 71 73  2  0
 72 71  1  0
 74 72  1  0
 75 84  2  0
 75 80  1  0
 76 72  1  0
 76 80  1  0
 77 76  1  0
 78 79  1  0
 78 77  1  0
 79 75  1  0
 80 81  2  0
 81 82  1  0
 83 82  2  0
 84 83  1  0
 85 59  1  0
 85 90  1  0
 85 86  1  0
 86 89  1  1
 86 87  1  0
 88 86  1  0
 90 93  1  0
 91 95  1  0
 91 90  1  0
 92 91  2  0
 95 94  1  0
 97 95  1  0
 97 98  1  0
 97 96  1  0
M  ISO  4  13 100  21 100  57 101  58 101
M  END
>  <TORSDO>  (53) 
F 26

>  <SCORE>  (53) 
-12.385

>  <name>  (53) 
52

>  <ligand_id>  (53) 
52

>  <original_smiles>  (53) 
[H]OC([H])(c1c([H])c([H])c([H])c([H])c1[H])C([H])(C([H])([H])N([H])C(=O)N1C([H])([H])C([H])([H])C([H])([H])C([H])(n2nc(-c3c([H])c([H])c(Oc4c([H])c([H])c(F)c([H])c4F)c([H])c3[H])c(C(=O)N([H])[H])c2N([H])[H])C1([H])[H])C([H])([H])C([H])([H])C([H])([H])[N+]([H])([H])C([H])([H])C([H])([H])Oc1c([H])c([H])c2c(c1[H])C([H])([H])N(C(=O)C([H])(N([H])C(=O)C([H])(N([H])C([H])([H])[H])C([H])([H])[H])C(C([H])([H])[H])(C([H])([H])[H])C([H])([H])[H])C([H])(C(=O)N([H])C1([H])c3c([H])c([H])c([H])c([H])c3C([H])([H])C([H])([H])C1([H])[H])C2([H])[H]

>  <smiles>  (53) 
[H]OC([H])(c1c([H])c([H])c([H])c([H])c1[H])C([H])(C([H])([H])N([H])C(=O)N1C([H])([H])C([H])([H])C([H])([H])C([H])(n2nc(-c3c([H])c([H])c(Oc4c([H])c([H])c(F)c([H])c4F)c([H])c3[H])c(C(=O)N([H])[H])c2N([H])[H])C1([H])[H])C([H])([H])C([H])([H])C([H])([H])[N+]([H])([H])C([H])([H])C([H])([H])Oc1c([H])c([H])c2c(c1[H])C([H])([H])N(C(=O)C([H])(N([H])C(=O)C([H])(N([H])C([H])([H])[H])C([H])([H])[H])C(C([H])([H])[H])(C([H])([H])[H])C([H])([H])[H])C([H])(C(=O)N([H])C1([H])c3c([H])c([H])c([H])c([H])c3C([H])([H])C([H])([H])C1([H])[H])C2([H])[H]

$$$$
53:0:0
     RDKit          3D

 83 90  0  0  1  0  0  0  0  0999 V2000
  -27.9490  -23.9120   20.2000 C   0  0  0  0  0  3  0  0  0  0  0  0
  -28.1500  -25.6420   20.2980 O   0  0  0  0  0  0  0  0  0  0  0  0
  -24.6720  -31.8880   23.2420 C   0  0  0  0  0  0  0  0  0  0  0  0
  -27.1710  -26.8340   20.2470 C   0  0  0  0  0  0  0  0  0  0  0  0
  -23.4710  -30.4970   21.6080 C   0  0  0  0  0  3  0  0  0  0  0  0
  -24.9060  -28.8480   20.1930 C   0  0  0  0  0  0  0  0  0  0  0  0
  -26.0490  -30.6390   21.4750 C   0  0  0  0  0  2  0  0  0  0  0  0
  -26.1040  -29.2100   20.8200 C   0  0  0  0  0  0  0  0  0  0  0  0
  -27.2230  -28.2300   20.8150 C   0  0  0  0  0  3  0  0  0  0  0  0
  -25.9390  -26.6690   19.5680 C   0  0  0  0  0  3  0  0  0  0  0  0
  -24.8600  -27.6020   19.5430 C   0  0  0  0  0  3  0  0  0  0  0  0
  -23.7020  -29.8000   20.2370 C   0  0  0  0  0  2  0  0  0  0  0  0
  -24.7550  -31.0400   22.1610 N   0  0  0  0  0  0  0  0  0  0  0  0
  -23.5830  -32.1920   23.7560 O   0  0  0  0  0  0  0  0  0  0  0  0
  -22.7560  -29.5220   22.5800 C   0  0  0  0  0  0  0  0  0  0  0  0
  -21.4230  -29.3690   22.4550 N   0  0  0  0  0  0  0  0  0  0  0  0
  -23.4110  -28.8980   23.4200 O   0  0  0  0  0  0  0  0  0  0  0  0
  -20.9460  -29.9220   21.7570 H   0  0  0  0  0  0  0  0  0  0  0  0
  -18.0330  -28.1690   22.9680 C   0  0  0  0  0  0  0  0  0  0  0  0
  -20.5930  -28.4390   23.2300 C   0  0  0  0  0  3  0  0  0  0  0  0
  -20.6940  -27.0020   22.6640 C   0  0  0  0  0  2  0  0  0  0  0  0
  -19.5940  -26.6750   21.6500 C   0  0  0  0  0  2  0  0  0  0  0  0
  -18.2110  -26.8200   22.2910 C   0  0  0  0  0  2  0  0  0  0  0  0
  -19.1500  -28.9350   23.3940 C   0  0  0  0  0  0  0  0  0  0  0  0
  -18.9270  -30.1950   23.9910 C   0  0  0  0  0  3  0  0  0  0  0  0
  -17.6200  -30.6890   24.1620 C   0  0  0  0  0  3  0  0  0  0  0  0
  -16.5170  -29.9210   23.7490 C   0  0  0  0  0  3  0  0  0  0  0  0
  -16.7250  -28.6620   23.1580 C   0  0  0  0  0  3  0  0  0  0  0  0
  -25.9420  -32.5310   23.8780 C   0  0  0  0  0  3  0  0  0  0  0  0
  -26.4400  -31.7670   25.1680 C   0  0  1  0  0  0  0  0  0  0  0  0
  -25.3350  -31.5460   26.2290 C   0  0  0  0  0  1  0  0  0  0  0  0
  -27.0170  -30.3800   24.8050 C   0  0  0  0  0  1  0  0  0  0  0  0
  -27.5910  -32.5580   25.8350 C   0  0  0  0  0  1  0  0  0  0  0  0
  -25.6270  -33.9320   24.2180 N   0  0  0  0  0  0  0  0  0  0  0  0
  -25.9330  -34.9970   23.4640 C   0  0  0  0  0  0  0  0  0  0  0  0
  -26.5690  -34.9020   22.4100 O   0  0  0  0  0  0  0  0  0  0  0  0
  -25.0570  -34.0770   25.0370 H   0  0  0  0  0  0  0  0  0  0  0  0
  -24.1800  -36.7890   23.2110 C   0  0  0  0  0  1  0  0  0  0  0  0
  -25.4650  -36.3850   23.9520 C   0  0  0  0  0  3  0  0  0  0  0  0
  -27.6320  -37.2910   24.6730 C   0  0  0  0  0  1  0  0  0  0  0  0
  -26.4840  -37.4450   23.7830 N   0  0  0  0  0  0  0  0  0  0  0  0
  -26.0790  -38.3630   23.9460 H   0  0  0  0  0  0  0  0  0  0  0  0
  -28.9470  -22.2690   20.2790 C   0  0  0  0  0  3  0  0  0  0  0  0
  -28.7110  -20.3580   20.2370 C   0  0  0  0  0  3  0  0  0  0  0  0
  -29.7530  -18.7430   20.2450 C   0  0  0  0  0  3  0  0  0  0  0  0
  -30.2820  -15.6460   20.1480 C   0  0  0  0  0  0  0  0  0  0  0  0
  -30.3500  -13.1330   19.2860 C   0  0  0  0  0  2  0  0  0  0  0  0
  -29.4300  -12.7740   18.0850 C   0  0  0  0  0  2  0  0  0  0  0  0
  -28.0130  -12.4240   18.5630 C   0  0  0  0  0  2  0  0  0  0  0  0
  -27.5300  -13.4030   19.6600 C   0  0  0  0  0  3  0  0  0  0  0  0
  -28.5860  -13.6800   20.7550 C   0  0  0  0  0  2  0  0  0  0  0  0
  -29.7510  -14.2930   20.0790 N   0  0  0  0  0  0  0  0  0  0  0  0
  -31.5110  -15.5990   19.9480 O   0  0  0  0  0  0  0  0  0  0  0  0
  -29.5270  -16.9940   20.2480 N   0  0  0  0  0  0  0  0  0  0  0  0
  -28.5450  -16.7820   20.3500 H   0  0  0  0  0  0  0  0  0  0  0  0
  -25.1770  -13.9060   20.4730 C   0  0  0  0  0  0  0  0  0  0  0  0
  -24.1340  -13.1120   20.8550 C   0  0  0  0  0  0  0  0  0  0  0  0
  -24.6200  -11.7680   20.8040 C   0  0  0  0  0  0  0  0  0  0  0  0
  -26.2270  -13.0500   20.2020 N   0  0  0  0  0  0  0  0  0  0  0  0
  -25.9070  -11.7560   20.4690 N   0  0  0  0  0  0  0  0  0  0  0  0
  -23.9110  -10.4960   20.9970 C   0  0  0  0  0  0  0  0  0  0  0  0
  -24.3510   -9.5380   21.9370 C   0  0  0  0  0  3  0  0  0  0  0  0
  -23.6360   -8.3340   22.1190 C   0  0  0  0  0  3  0  0  0  0  0  0
  -22.4690   -8.0770   21.3610 C   0  0  0  0  0  0  0  0  0  0  0  0
  -22.0480   -9.0240   20.4100 C   0  0  0  0  0  3  0  0  0  0  0  0
  -22.7630  -10.2200   20.2260 C   0  0  0  0  0  3  0  0  0  0  0  0
  -21.7270   -6.9240   21.4530 O   0  0  0  0  0  0  0  0  0  0  0  0
  -21.6590   -6.2030   22.6170 C   0  0  0  0  0  0  0  0  0  0  0  0
  -21.1670   -6.7650   23.8150 C   0  0  0  0  0  3  0  0  0  0  0  0
  -21.0490   -5.9670   24.9700 C   0  0  0  0  0  3  0  0  0  0  0  0
  -21.4130   -4.6090   24.9290 C   0  0  0  0  0  0  0  0  0  0  0  0
  -21.8990   -4.0450   23.7360 C   0  0  0  0  0  3  0  0  0  0  0  0
  -22.0180   -4.8400   22.5820 C   0  0  0  0  0  0  0  0  0  0  0  0
  -22.4660   -4.2870   21.4300 F   0  0  0  0  0  0  0  0  0  0  0  0
  -21.2940   -3.8400   26.0380 F   0  0  0  0  0  0  0  0  0  0  0  0
  -22.7360  -13.5700   21.1460 C   0  0  0  0  0  0  0  0  0  0  0  0
  -22.0320  -12.8660   22.0240 N   0  0  0  0  0  0  0  0  0  0  0  0
  -22.2780  -14.5880   20.6300 O   0  0  0  0  0  0  0  0  0  0  0  0
  -22.4170  -12.0420   22.4630 H   0  0  0  0  0  0  0  0  0  0  0  0
  -21.0930  -13.1550   22.2630 H   0  0  0  0  0  0  0  0  0  0  0  0
  -25.3150  -15.2810   20.3020 N   0  0  0  0  0  0  0  0  0  0  0  0
  -24.5370  -15.9190   20.4270 H   0  0  0  0  0  0  0  0  0  0  0  0
  -26.1390  -15.7310   19.9280 H   0  0  0  0  0  0  0  0  0  0  0  0
  1 43  2  0
  1  2  1  0
  3 14  2  0
  4  2  1  0
  4  9  1  0
  5 13  1  0
  5 15  1  0
  6 12  1  0
  6  8  1  0
  7 13  1  0
  8  7  1  0
  9  8  2  0
 10  4  2  0
 11 10  1  0
 11  6  2  0
 12  5  1  0
 13  3  1  0
 15 17  2  0
 16 15  1  0
 18 16  1  0
 19 28  2  0
 19 24  1  0
 20 16  1  0
 20 24  1  0
 21 20  1  0
 22 23  1  0
 22 21  1  0
 23 19  1  0
 24 25  2  0
 25 26  1  0
 27 26  2  0
 28 27  1  0
 29  3  1  0
 29 34  1  0
 29 30  1  0
 30 33  1  1
 30 31  1  0
 32 30  1  0
 34 37  1  0
 35 39  1  0
 35 34  1  0
 36 35  2  0
 39 38  1  0
 41 42  1  0
 41 39  1  0
 41 40  1  0
 44 45  2  0
 44 43  1  0
 45 54  1  0
 46 54  1  0
 47 52  1  0
 48 49  1  0
 48 47  1  0
 50 49  1  0
 50 59  1  0
 50 51  1  0
 52 46  1  0
 52 51  1  0
 53 46  2  0
 54 55  1  0
 56 57  2  0
 57 76  1  0
 58 57  1  0
 58 61  1  0
 59 60  1  0
 59 56  1  0
 60 58  2  0
 61 62  1  0
 62 63  2  0
 64 67  1  0
 64 63  1  0
 65 64  2  0
 66 65  1  0
 66 61  2  0
 67 68  1  0
 68 69  1  0
 69 70  2  0
 71 70  1  0
 71 75  1  0
 72 71  2  0
 73 68  2  0
 73 72  1  0
 74 73  1  0
 76 77  1  0
 77 80  1  0
 77 79  1  0
 78 76  2  0
 81 82  1  0
 81 56  1  0
 83 81  1  0
M  ISO  4   1 101   2 101  46 100  54 100
M  END
>  <TORSDO>  (54) 
F 19

>  <SCORE>  (54) 
-16.287

>  <name>  (54) 
53

>  <ligand_id>  (54) 
53

>  <original_smiles>  (54) 
[H]c1c([H])c([H])c2c(c1[H])C([H])([H])C([H])([H])C([H])([H])C2([H])N([H])C(=O)C1([H])N(C(=O)C([H])(N([H])C(=O)C([H])(N([H])C([H])([H])[H])C([H])([H])[H])C(C([H])([H])[H])(C([H])([H])[H])C([H])([H])[H])C([H])([H])c2c([H])c(OC([H])([H])C([H])([H])C([H])([H])C([H])([H])N([H])C(=O)N3C([H])([H])C([H])([H])C([H])([H])C([H])(n4nc(-c5c([H])c([H])c(Oc6c([H])c([H])c(F)c([H])c6F)c([H])c5[H])c(C(=O)N([H])[H])c4N([H])[H])C3([H])[H])c([H])c([H])c2C1([H])[H]

>  <smiles>  (54) 
[H]c1c([H])c([H])c2c(c1[H])C([H])([H])C([H])([H])C([H])([H])C2([H])N([H])C(=O)C1([H])N(C(=O)C([H])(N([H])C(=O)C([H])(N([H])C([H])([H])[H])C([H])([H])[H])C(C([H])([H])[H])(C([H])([H])[H])C([H])([H])[H])C([H])([H])c2c([H])c(OC([H])([H])C([H])([H])C([H])([H])C([H])([H])N([H])C(=O)N3C([H])([H])C([H])([H])C([H])([H])C([H])(n4nc(-c5c([H])c([H])c(Oc6c([H])c([H])c(F)c([H])c6F)c([H])c5[H])c(C(=O)N([H])[H])c4N([H])[H])C3([H])[H])c([H])c([H])c2C1([H])[H]

$$$$
54:0:0
     RDKit          3D

 87 95  0  0  1  0  0  0  0  0999 V2000
  -28.4030  -21.3220   20.2450 C   0  0  0  0  0  2  0  0  0  0  0  0
  -30.5070  -15.1840   20.2380 C   0  0  0  0  0  0  0  0  0  0  0  0
  -30.3910  -12.7830   19.3440 C   0  0  0  0  0  2  0  0  0  0  0  0
  -29.4500  -12.6340   18.1250 C   0  0  0  0  0  2  0  0  0  0  0  0
  -28.0080  -12.3800   18.5940 C   0  0  0  0  0  2  0  0  0  0  0  0
  -27.5860  -13.3390   19.7380 C   0  0  0  0  0  3  0  0  0  0  0  0
  -28.6540  -13.4630   20.8430 C   0  0  0  0  0  2  0  0  0  0  0  0
  -29.8850  -13.9190   20.1860 N   0  0  0  0  0  0  0  0  0  0  0  0
  -31.7240  -15.1540   20.0100 O   0  0  0  0  0  0  0  0  0  0  0  0
  -29.2130  -17.2560   19.2380 C   0  0  0  0  0  2  0  0  0  0  0  0
  -30.4780  -17.6630   21.1220 C   0  0  0  0  0  2  0  0  0  0  0  0
  -28.5220  -18.7510   19.4030 C   0  0  0  0  0  2  0  0  0  0  0  0
  -29.7730  -19.1530   21.3100 C   0  0  0  0  0  2  0  0  0  0  0  0
  -29.8330  -16.4790   20.3900 N   0  0  0  0  0  0  0  0  0  0  0  0
  -29.2440  -19.9140   20.0970 N   0  0  2  0  0  4  0  0  0  0  0  0
  -30.0400  -20.1270   19.5140 H   0  0  0  0  0  0  0  0  0  0  0  0
  -25.2340  -13.8880   20.5610 C   0  0  0  0  0  0  0  0  0  0  0  0
  -24.1780  -13.1040   20.9350 C   0  0  0  0  0  0  0  0  0  0  0  0
  -24.6450  -11.7550   20.8640 C   0  0  0  0  0  0  0  0  0  0  0  0
  -26.2690  -13.0170   20.2730 N   0  0  0  0  0  0  0  0  0  0  0  0
  -25.9290  -11.7270   20.5240 N   0  0  0  0  0  0  0  0  0  0  0  0
  -23.9230  -10.4880   21.0410 C   0  0  0  0  0  0  0  0  0  0  0  0
  -24.3520   -9.5150   21.9700 C   0  0  0  0  0  3  0  0  0  0  0  0
  -23.6270   -8.3150   22.1380 C   0  0  0  0  0  3  0  0  0  0  0  0
  -22.4580   -8.0810   21.3750 C   0  0  0  0  0  0  0  0  0  0  0  0
  -22.0480   -9.0420   20.4360 C   0  0  0  0  0  3  0  0  0  0  0  0
  -22.7740  -10.2330   20.2660 C   0  0  0  0  0  3  0  0  0  0  0  0
  -21.7030   -6.9350   21.4510 O   0  0  0  0  0  0  0  0  0  0  0  0
  -21.6140   -6.2080   22.6110 C   0  0  0  0  0  0  0  0  0  0  0  0
  -21.1240   -6.7740   23.8090 C   0  0  0  0  0  3  0  0  0  0  0  0
  -20.9830   -5.9730   24.9600 C   0  0  0  0  0  3  0  0  0  0  0  0
  -21.3220   -4.6070   24.9130 C   0  0  0  0  0  0  0  0  0  0  0  0
  -21.8060   -4.0420   23.7200 C   0  0  0  0  0  3  0  0  0  0  0  0
  -21.9480   -4.8390   22.5720 C   0  0  0  0  0  0  0  0  0  0  0  0
  -22.3930   -4.2840   21.4200 F   0  0  0  0  0  0  0  0  0  0  0  0
  -21.1800   -3.8350   26.0170 F   0  0  0  0  0  0  0  0  0  0  0  0
  -22.7870  -13.5760   21.2400 C   0  0  0  0  0  0  0  0  0  0  0  0
  -22.0770  -12.8670   22.1100 N   0  0  0  0  0  0  0  0  0  0  0  0
  -22.3400  -14.6080   20.7430 O   0  0  0  0  0  0  0  0  0  0  0  0
  -22.4530  -12.0330   22.5370 H   0  0  0  0  0  0  0  0  0  0  0  0
  -21.1460  -13.1690   22.3590 H   0  0  0  0  0  0  0  0  0  0  0  0
  -25.3940  -15.2640   20.4130 N   0  0  0  0  0  0  0  0  0  0  0  0
  -24.6320  -15.9150   20.5730 H   0  0  0  0  0  0  0  0  0  0  0  0
  -26.2450  -15.7150   20.1060 H   0  0  0  0  0  0  0  0  0  0  0  0
  -28.9020  -23.0030   20.2450 C   0  0  0  0  0  3  0  0  0  0  0  0
  -27.9120  -24.4510   20.1180 C   0  0  0  0  0  3  0  0  0  0  0  0
  -28.2070  -26.0310   20.2460 O   0  0  0  0  0  0  0  0  0  0  0  0
  -24.6500  -31.8880   23.2520 C   0  0  0  0  0  0  0  0  0  0  0  0
  -27.1840  -27.0860   20.1970 C   0  0  0  0  0  0  0  0  0  0  0  0
  -23.4430  -30.5070   21.6100 C   0  0  0  0  0  3  0  0  0  0  0  0
  -24.8800  -28.9170   20.1750 C   0  0  0  0  0  0  0  0  0  0  0  0
  -26.0060  -30.7310   21.4500 C   0  0  0  0  0  2  0  0  0  0  0  0
  -26.0690  -29.3330   20.7860 C   0  0  0  0  0  0  0  0  0  0  0  0
  -27.2200  -28.4370   20.7740 C   0  0  0  0  0  3  0  0  0  0  0  0
  -25.9630  -26.8000   19.5470 C   0  0  0  0  0  3  0  0  0  0  0  0
  -24.8460  -27.6680   19.5380 C   0  0  0  0  0  3  0  0  0  0  0  0
  -23.6630  -29.8340   20.2280 C   0  0  0  0  0  2  0  0  0  0  0  0
  -24.7210  -31.0670   22.1580 N   0  0  0  0  0  0  0  0  0  0  0  0
  -23.5650  -32.1780   23.7800 O   0  0  0  0  0  0  0  0  0  0  0  0
  -22.7550  -29.5030   22.5700 C   0  0  0  0  0  0  0  0  0  0  0  0
  -21.4250  -29.3370   22.4420 N   0  0  0  0  0  0  0  0  0  0  0  0
  -23.4210  -28.8740   23.3950 O   0  0  0  0  0  0  0  0  0  0  0  0
  -20.9430  -29.8950   21.7520 H   0  0  0  0  0  0  0  0  0  0  0  0
  -18.0410  -28.1350   22.9430 C   0  0  0  0  0  0  0  0  0  0  0  0
  -20.6010  -28.3990   23.2100 C   0  0  0  0  0  3  0  0  0  0  0  0
  -20.7010  -26.9670   22.6340 C   0  0  0  0  0  2  0  0  0  0  0  0
  -19.6000  -26.6460   21.6190 C   0  0  0  0  0  2  0  0  0  0  0  0
  -18.2180  -26.7880   22.2620 C   0  0  0  0  0  2  0  0  0  0  0  0
  -19.1590  -28.8980   23.3740 C   0  0  0  0  0  0  0  0  0  0  0  0
  -18.9370  -30.1560   23.9730 C   0  0  0  0  0  3  0  0  0  0  0  0
  -17.6310  -30.6530   24.1460 C   0  0  0  0  0  3  0  0  0  0  0  0
  -16.5290  -29.8880   23.7280 C   0  0  0  0  0  3  0  0  0  0  0  0
  -16.7340  -28.6310   23.1320 C   0  0  0  0  0  3  0  0  0  0  0  0
  -25.9290  -32.5180   23.8820 C   0  0  0  0  0  3  0  0  0  0  0  0
  -25.6210  -33.9190   24.2190 N   0  0  0  0  0  0  0  0  0  0  0  0
  -25.9290  -34.9760   23.4580 C   0  0  0  0  0  0  0  0  0  0  0  0
  -26.5680  -34.8770   22.4070 O   0  0  0  0  0  0  0  0  0  0  0  0
  -25.0480  -34.0690   25.0370 H   0  0  0  0  0  0  0  0  0  0  0  0
  -24.1770  -36.7640   23.1830 C   0  0  0  0  0  1  0  0  0  0  0  0
  -25.4580  -36.3650   23.9340 C   0  0  0  0  0  3  0  0  0  0  0  0
  -27.6220  -37.2680   24.6640 C   0  0  0  0  0  1  0  0  0  0  0  0
  -26.4780  -37.4240   23.7690 N   0  0  0  0  0  0  0  0  0  0  0  0
  -26.0730  -38.3430   23.9280 H   0  0  0  0  0  0  0  0  0  0  0  0
  -26.4320  -31.7480   25.1660 C   0  0  1  0  0  0  0  0  0  0  0  0
  -25.3310  -31.5220   26.2290 C   0  0  0  0  0  1  0  0  0  0  0  0
  -27.0090  -30.3640   24.7890 C   0  0  0  0  0  1  0  0  0  0  0  0
  -27.5840  -32.5370   25.8320 C   0  0  0  0  0  1  0  0  0  0  0  0
  1 45  1  0
  2 14  1  0
  3  8  1  0
  4  5  1  0
  4  3  1  0
  6  5  1  0
  6 20  1  0
  6  7  1  0
  8  2  1  0
  8  7  1  0
  9  2  2  0
 10 12  1  0
 10 14  1  0
 11 13  1  0
 12 15  1  0
 14 11  1  0
 15  1  1  0
 15 13  1  0
 15 16  1  6
 17 18  2  0
 18 37  1  0
 19 18  1  0
 19 22  1  0
 20 21  1  0
 20 17  1  0
 21 19  2  0
 22 23  1  0
 23 24  2  0
 25 28  1  0
 25 24  1  0
 26 25  2  0
 27 26  1  0
 27 22  2  0
 28 29  1  0
 29 30  1  0
 30 31  2  0
 32 31  1  0
 32 36  1  0
 33 32  2  0
 34 29  2  0
 34 33  1  0
 35 34  1  0
 37 38  1  0
 38 41  1  0
 38 40  1  0
 39 37  2  0
 42 17  1  0
 42 43  1  0
 44 42  1  0
 46 45  2  0
 46 47  1  0
 48 59  2  0
 49 47  1  0
 49 54  1  0
 50 58  1  0
 50 60  1  0
 51 57  1  0
 51 53  1  0
 52 58  1  0
 53 52  1  0
 54 53  2  0
 55 49  2  0
 56 55  1  0
 56 51  2  0
 57 50  1  0
 58 48  1  0
 60 62  2  0
 61 60  1  0
 63 61  1  0
 64 73  2  0
 64 69  1  0
 65 61  1  0
 65 69  1  0
 66 65  1  0
 67 68  1  0
 67 66  1  0
 68 64  1  0
 69 70  2  0
 70 71  1  0
 72 71  2  0
 73 72  1  0
 74 48  1  0
 74 75  1  0
 74 84  1  0
 75 78  1  0
 76 80  1  0
 76 75  1  0
 77 76  2  0
 80 79  1  0
 82 83  1  0
 82 80  1  0
 82 81  1  0
 84 87  1  1
 84 85  1  0
 86 84  1  0
M  ISO  4   2 100  14 100  46 101  47 101
M  END
>  <TORSDO>  (55) 
F 18

>  <SCORE>  (55) 
-15.663

>  <name>  (55) 
54

>  <ligand_id>  (55) 
54

>  <original_smiles>  (55) 
[H]c1c([H])c([H])c2c(c1[H])C([H])([H])C([H])([H])C([H])([H])C2([H])N([H])C(=O)C1([H])N(C(=O)C([H])(N([H])C(=O)C([H])(N([H])C([H])([H])[H])C([H])([H])[H])C(C([H])([H])[H])(C([H])([H])[H])C([H])([H])[H])C([H])([H])c2c([H])c(OC([H])([H])C([H])([H])C([H])([H])[N+]3([H])C([H])([H])C([H])([H])N(C(=O)N4C([H])([H])C([H])([H])C([H])([H])C([H])(n5nc(-c6c([H])c([H])c(Oc7c([H])c([H])c(F)c([H])c7F)c([H])c6[H])c(C(=O)N([H])[H])c5N([H])[H])C4([H])[H])C([H])([H])C3([H])[H])c([H])c([H])c2C1([H])[H]

>  <smiles>  (55) 
[H]c1c([H])c([H])c2c(c1[H])C([H])([H])C([H])([H])C([H])([H])C2([H])N([H])C(=O)C1([H])N(C(=O)C([H])(N([H])C(=O)C([H])(N([H])C([H])([H])[H])C([H])([H])[H])C(C([H])([H])[H])(C([H])([H])[H])C([H])([H])[H])C([H])([H])c2c([H])c(OC([H])([H])C([H])([H])C([H])([H])[N+]3([H])C([H])([H])C([H])([H])N(C(=O)N4C([H])([H])C([H])([H])C([H])([H])C([H])(n5nc(-c6c([H])c([H])c(Oc7c([H])c([H])c(F)c([H])c7F)c([H])c6[H])c(C(=O)N([H])[H])c5N([H])[H])C4([H])[H])C([H])([H])C3([H])[H])c([H])c([H])c2C1([H])[H]

$$$$
55:0:0
     RDKit          3D

 92100  0  0  1  0  0  0  0  0999 V2000
  -28.9880  -21.7130   20.4490 N   0  0  0  0  0  4  0  0  0  0  0  0
  -28.3960  -21.4960   19.6630 H   0  0  0  0  0  0  0  0  0  0  0  0
  -29.9430  -21.7210   20.1310 H   0  0  0  0  0  0  0  0  0  0  0  0
  -28.8230  -20.6450   21.4710 C   0  0  0  0  0  2  0  0  0  0  0  0
  -28.4770  -18.2230   20.7040 C   0  0  0  0  0  3  0  0  0  0  0  0
  -30.7080  -18.9200   21.3760 C   0  0  0  0  0  3  0  0  0  0  0  0
  -28.9250  -16.8880   20.5870 C   0  0  0  0  0  3  0  0  0  0  0  0
  -31.1550  -17.5840   21.2680 C   0  0  0  0  0  3  0  0  0  0  0  0
  -29.3580  -19.2500   21.1210 C   0  0  0  0  0  0  0  0  0  0  0  0
  -30.2650  -16.5570   20.8820 C   0  0  0  0  0  0  0  0  0  0  0  0
  -30.9060  -14.4760   19.8100 C   0  0  0  0  0  0  0  0  0  0  0  0
  -30.3670  -12.4290   18.5350 C   0  0  0  0  0  2  0  0  0  0  0  0
  -29.2930  -12.6980   17.4650 C   0  0  0  0  0  2  0  0  0  0  0  0
  -27.8860  -12.5400   18.0650 C   0  0  0  0  0  2  0  0  0  0  0  0
  -27.7120  -13.3350   19.3850 C   0  0  0  0  0  3  0  0  0  0  0  0
  -28.8830  -13.0630   20.3540 C   0  0  0  0  0  2  0  0  0  0  0  0
  -30.1480  -13.3560   19.6570 N   0  0  0  0  0  0  0  0  0  0  0  0
  -31.8520  -14.7510   19.0660 O   0  0  0  0  0  0  0  0  0  0  0  0
  -30.6880  -15.2000   20.9160 N   0  0  0  0  0  0  0  0  0  0  0  0
  -31.4700  -15.0740   21.5430 H   0  0  0  0  0  0  0  0  0  0  0  0
  -25.4240  -13.9410   20.3980 C   0  0  0  0  0  0  0  0  0  0  0  0
  -24.3940  -13.1670   20.8620 C   0  0  0  0  0  0  0  0  0  0  0  0
  -24.8220  -11.8130   20.7140 C   0  0  0  0  0  0  0  0  0  0  0  0
  -26.4190  -13.0590   20.0050 N   0  0  0  0  0  0  0  0  0  0  0  0
  -26.0650  -11.7700   20.2480 N   0  0  0  0  0  0  0  0  0  0  0  0
  -24.1000  -10.5520   20.9300 C   0  0  0  0  0  0  0  0  0  0  0  0
  -24.5750   -9.5720   21.8260 C   0  0  0  0  0  3  0  0  0  0  0  0
  -23.8520   -8.3770   22.0310 C   0  0  0  0  0  3  0  0  0  0  0  0
  -22.6380   -8.1560   21.3390 C   0  0  0  0  0  0  0  0  0  0  0  0
  -22.1790   -9.1270   20.4320 C   0  0  0  0  0  3  0  0  0  0  0  0
  -22.9040  -10.3120   20.2250 C   0  0  0  0  0  3  0  0  0  0  0  0
  -21.8830   -7.0130   21.4540 O   0  0  0  0  0  0  0  0  0  0  0  0
  -21.8290   -6.3000   22.6240 C   0  0  0  0  0  0  0  0  0  0  0  0
  -21.4000   -6.8870   23.8360 C   0  0  0  0  0  3  0  0  0  0  0  0
  -21.2950   -6.1000   25.0000 C   0  0  0  0  0  3  0  0  0  0  0  0
  -21.6080   -4.7290   24.9540 C   0  0  0  0  0  0  0  0  0  0  0  0
  -22.0310   -4.1420   23.7490 C   0  0  0  0  0  3  0  0  0  0  0  0
  -22.1380   -4.9250   22.5860 C   0  0  0  0  0  0  0  0  0  0  0  0
  -22.5250   -4.3500   21.4220 F   0  0  0  0  0  0  0  0  0  0  0  0
  -21.4990   -3.9710   26.0710 F   0  0  0  0  0  0  0  0  0  0  0  0
  -23.0490  -13.6510   21.3240 C   0  0  0  0  0  0  0  0  0  0  0  0
  -22.4220  -12.9340   22.2490 N   0  0  0  0  0  0  0  0  0  0  0  0
  -22.5690  -14.7020   20.9020 O   0  0  0  0  0  0  0  0  0  0  0  0
  -22.8260  -12.0840   22.6130 H   0  0  0  0  0  0  0  0  0  0  0  0
  -21.5260  -13.2400   22.5990 H   0  0  0  0  0  0  0  0  0  0  0  0
  -25.5840  -15.3160   20.2550 N   0  0  0  0  0  0  0  0  0  0  0  0
  -24.8290  -15.9630   20.4560 H   0  0  0  0  0  0  0  0  0  0  0  0
  -26.3600  -15.7490   19.7740 H   0  0  0  0  0  0  0  0  0  0  0  0
  -28.6370  -23.0510   21.0070 C   0  0  0  0  0  2  0  0  0  0  0  0
  -28.7550  -24.2730   20.0580 C   0  0  0  0  0  2  0  0  0  0  0  0
  -28.4430  -25.5730   20.8420 C   0  0  0  0  0  2  0  0  0  0  0  0
  -28.4980  -26.7810   20.0700 O   0  0  0  0  0  0  0  0  0  0  0  0
  -24.6380  -31.8850   23.2260 C   0  0  0  0  0  0  0  0  0  0  0  0
  -27.3310  -27.5100   20.0940 C   0  0  0  0  0  0  0  0  0  0  0  0
  -23.4380  -30.4600   21.5970 C   0  0  0  0  0  3  0  0  0  0  0  0
  -24.9030  -28.9540   20.1510 C   0  0  0  0  0  0  0  0  0  0  0  0
  -25.9530  -30.8720   21.3660 C   0  0  0  0  0  2  0  0  0  0  0  0
  -26.0610  -29.5070   20.7200 C   0  0  0  0  0  0  0  0  0  0  0  0
  -27.2800  -28.7920   20.6850 C   0  0  0  0  0  3  0  0  0  0  0  0
  -26.1590  -26.9640   19.5300 C   0  0  0  0  0  3  0  0  0  0  0  0
  -24.9460  -27.6790   19.5580 C   0  0  0  0  0  3  0  0  0  0  0  0
  -23.6420  -29.7850   20.2150 C   0  0  0  0  0  2  0  0  0  0  0  0
  -24.6950  -31.0880   22.1210 N   0  0  0  0  0  0  0  0  0  0  0  0
  -23.5600  -32.1330   23.7820 O   0  0  0  0  0  0  0  0  0  0  0  0
  -22.8230  -29.4210   22.5620 C   0  0  0  0  0  0  0  0  0  0  0  0
  -21.5030  -29.2040   22.4450 N   0  0  0  0  0  0  0  0  0  0  0  0
  -23.5280  -28.8160   23.3730 O   0  0  0  0  0  0  0  0  0  0  0  0
  -20.9940  -29.7500   21.7650 H   0  0  0  0  0  0  0  0  0  0  0  0
  -18.1650  -27.9240   22.9620 C   0  0  0  0  0  0  0  0  0  0  0  0
  -20.7160  -28.2450   23.2190 C   0  0  0  0  0  3  0  0  0  0  0  0
  -20.8530  -26.8170   22.6400 C   0  0  0  0  0  2  0  0  0  0  0  0
  -19.7500  -26.4620   21.6370 C   0  0  0  0  0  2  0  0  0  0  0  0
  -18.3710  -26.5770   22.2920 C   0  0  0  0  0  2  0  0  0  0  0  0
  -19.2660  -28.7140   23.3870 C   0  0  0  0  0  0  0  0  0  0  0  0
  -19.0200  -29.9720   23.9770 C   0  0  0  0  0  3  0  0  0  0  0  0
  -17.7040  -30.4410   24.1480 C   0  0  0  0  0  3  0  0  0  0  0  0
  -16.6160  -29.6480   23.7450 C   0  0  0  0  0  3  0  0  0  0  0  0
  -16.8480  -28.3920   23.1550 C   0  0  0  0  0  3  0  0  0  0  0  0
  -25.9200  -32.5390   23.8280 C   0  0  0  0  0  3  0  0  0  0  0  0
  -25.5860  -33.9280   24.1720 N   0  0  0  0  0  0  0  0  0  0  0  0
  -25.8810  -34.9890   23.4100 C   0  0  0  0  0  0  0  0  0  0  0  0
  -26.5340  -34.9060   22.3660 O   0  0  0  0  0  0  0  0  0  0  0  0
  -25.0090  -34.0660   24.9870 H   0  0  0  0  0  0  0  0  0  0  0  0
  -24.1070  -36.7430   23.0890 C   0  0  0  0  0  1  0  0  0  0  0  0
  -25.3680  -36.3640   23.8830 C   0  0  0  0  0  3  0  0  0  0  0  0
  -27.4930  -37.2910   24.6910 C   0  0  0  0  0  1  0  0  0  0  0  0
  -26.3770  -37.4400   23.7620 N   0  0  0  0  0  0  0  0  0  0  0  0
  -25.9520  -38.3500   23.9180 H   0  0  0  0  0  0  0  0  0  0  0  0
  -26.4780  -31.7710   25.0900 C   0  0  1  0  0  0  0  0  0  0  0  0
  -25.4040  -31.4900   26.1680 C   0  0  0  0  0  1  0  0  0  0  0  0
  -27.0990  -30.4170   24.6750 C   0  0  0  0  0  1  0  0  0  0  0  0
  -27.6110  -32.5940   25.7480 C   0  0  0  0  0  1  0  0  0  0  0  0
  1 49  1  0
  1  4  1  0
  2  1  1  0
  3  1  1  0
  5  9  1  0
  7  5  2  0
  7 10  1  0
  8  6  1  0
  9  6  2  0
  9  4  1  0
 10 19  1  0
 10  8  2  0
 11 19  1  0
 12 17  1  0
 13 14  1  0
 13 12  1  0
 15 14  1  0
 15 24  1  0
 15 16  1  0
 17 11  1  0
 17 16  1  0
 18 11  2  0
 19 20  1  0
 21 22  2  0
 22 41  1  0
 23 22  1  0
 23 26  1  0
 24 25  1  0
 24 21  1  0
 25 23  2  0
 26 27  1  0
 27 28  2  0
 29 32  1  0
 29 28  1  0
 30 29  2  0
 31 30  1  0
 31 26  2  0
 32 33  1  0
 33 34  1  0
 34 35  2  0
 36 35  1  0
 36 40  1  0
 37 36  2  0
 38 33  2  0
 38 37  1  0
 39 38  1  0
 41 42  1  0
 42 45  1  0
 42 44  1  0
 43 41  2  0
 46 21  1  0
 46 47  1  0
 48 46  1  0
 50 51  1  0
 50 49  1  0
 52 54  1  0
 52 51  1  0
 53 64  2  0
 54 59  1  0
 55 63  1  0
 55 65  1  0
 56 62  1  0
 56 58  1  0
 57 63  1  0
 58 57  1  0
 59 58  2  0
 60 61  1  0
 60 54  2  0
 61 56  2  0
 62 55  1  0
 63 53  1  0
 65 67  2  0
 66 65  1  0
 68 66  1  0
 69 78  2  0
 69 74  1  0
 70 66  1  0
 70 74  1  0
 71 70  1  0
 72 73  1  0
 72 71  1  0
 73 69  1  0
 74 75  2  0
 75 76  1  0
 77 76  2  0
 78 77  1  0
 79 53  1  0
 79 80  1  0
 79 89  1  0
 80 83  1  0
 81 85  1  0
 81 80  1  0
 82 81  2  0
 85 84  1  0
 87 85  1  0
 87 88  1  0
 87 86  1  0
 89 92  1  1
 89 90  1  0
 91 89  1  0
M  ISO  4  11 100  19 100  51 101  52 101
M  END
>  <TORSDO>  (56) 
F 21

>  <SCORE>  (56) 
-12.277

>  <name>  (56) 
55

>  <ligand_id>  (56) 
55

>  <original_smiles>  (56) 
[H]c1c([H])c([H])c2c(c1[H])C([H])([H])C([H])([H])C([H])([H])C2([H])N([H])C(=O)C1([H])N(C(=O)C([H])(N([H])C(=O)C([H])(N([H])C([H])([H])[H])C([H])([H])[H])C(C([H])([H])[H])(C([H])([H])[H])C([H])([H])[H])C([H])([H])c2c([H])c(OC([H])([H])C([H])([H])C([H])([H])[N+]([H])([H])C([H])([H])c3c([H])c([H])c(N([H])C(=O)N4C([H])([H])C([H])([H])C([H])([H])C([H])(n5nc(-c6c([H])c([H])c(Oc7c([H])c([H])c(F)c([H])c7F)c([H])c6[H])c(C(=O)N([H])[H])c5N([H])[H])C4([H])[H])c([H])c3[H])c([H])c([H])c2C1([H])[H]

>  <smiles>  (56) 
[H]c1c([H])c([H])c2c(c1[H])C([H])([H])C([H])([H])C([H])([H])C2([H])N([H])C(=O)C1([H])N(C(=O)C([H])(N([H])C(=O)C([H])(N([H])C([H])([H])[H])C([H])([H])[H])C(C([H])([H])[H])(C([H])([H])[H])C([H])([H])[H])C([H])([H])c2c([H])c(OC([H])([H])C([H])([H])C([H])([H])[N+]([H])([H])C([H])([H])c3c([H])c([H])c(N([H])C(=O)N4C([H])([H])C([H])([H])C([H])([H])C([H])(n5nc(-c6c([H])c([H])c(Oc7c([H])c([H])c(F)c([H])c7F)c([H])c6[H])c(C(=O)N([H])[H])c5N([H])[H])C4([H])[H])c([H])c3[H])c([H])c([H])c2C1([H])[H]

$$$$
56:0:0
     RDKit          3D

 96106  0  0  1  0  0  0  0  0999 V2000
  -28.0590  -20.3310   19.7840 C   0  0  0  0  0  3  0  0  0  0  0  0
  -28.1570  -21.6260   20.3390 C   0  0  0  0  0  3  0  0  0  0  0  0
  -30.4860  -20.2210   19.4960 C   0  0  0  0  0  3  0  0  0  0  0  0
  -30.5610  -21.5140   20.0520 C   0  0  0  0  0  0  0  0  0  0  0  0
  -29.2100  -19.6240   19.3450 C   0  0  0  0  0  0  0  0  0  0  0  0
  -29.4290  -22.2150   20.4550 C   0  0  0  0  0  0  0  0  0  0  0  0
  -31.7940  -22.3300   20.3010 C   0  0  0  0  0  3  0  0  0  0  0  0
  -31.1960  -23.6770   20.7580 C   0  0  0  0  0  3  0  0  0  0  0  0
  -29.7550  -23.4790   20.9660 N   0  0  0  0  0  0  0  0  0  0  0  0
  -28.7980  -24.5840   21.0950 C   0  0  0  0  0  2  0  0  0  0  0  0
  -28.6220  -25.4390   19.8170 C   0  0  0  0  0  2  0  0  0  0  0  0
  -28.4500  -26.8150   20.1780 O   0  0  0  0  0  0  0  0  0  0  0  0
  -24.5760  -31.9090   23.2530 C   0  0  0  0  0  0  0  0  0  0  0  0
  -27.2230  -27.4490   20.1900 C   0  0  0  0  0  0  0  0  0  0  0  0
  -23.3610  -30.5000   21.6200 C   0  0  0  0  0  3  0  0  0  0  0  0
  -24.8110  -28.9410   20.2120 C   0  0  0  0  0  0  0  0  0  0  0  0
  -25.8830  -30.8570   21.4070 C   0  0  0  0  0  2  0  0  0  0  0  0
  -25.9680  -29.4770   20.7860 C   0  0  0  0  0  0  0  0  0  0  0  0
  -27.1720  -28.7400   20.7680 C   0  0  0  0  0  3  0  0  0  0  0  0
  -26.0400  -26.9170   19.6270 C   0  0  0  0  0  3  0  0  0  0  0  0
  -24.8410  -27.6590   19.6350 C   0  0  0  0  0  3  0  0  0  0  0  0
  -23.5660  -29.8020   20.2480 C   0  0  0  0  0  2  0  0  0  0  0  0
  -24.6260  -31.1040   22.1540 N   0  0  0  0  0  0  0  0  0  0  0  0
  -23.4970  -32.1860   23.7950 O   0  0  0  0  0  0  0  0  0  0  0  0
  -22.7100  -29.4880   22.5910 C   0  0  0  0  0  0  0  0  0  0  0  0
  -21.3860  -29.3040   22.4630 N   0  0  0  0  0  0  0  0  0  0  0  0
  -23.3940  -28.8700   23.4110 O   0  0  0  0  0  0  0  0  0  0  0  0
  -20.8950  -29.8580   21.7750 H   0  0  0  0  0  0  0  0  0  0  0  0
  -18.0150  -28.1060   22.9550 C   0  0  0  0  0  0  0  0  0  0  0  0
  -20.5690  -28.3710   23.2390 C   0  0  0  0  0  3  0  0  0  0  0  0
  -20.6770  -26.9340   22.6770 C   0  0  0  0  0  2  0  0  0  0  0  0
  -19.5830  -26.6010   21.6590 C   0  0  0  0  0  2  0  0  0  0  0  0
  -18.1970  -26.7500   22.2940 C   0  0  0  0  0  2  0  0  0  0  0  0
  -19.1290  -28.8740   23.3830 C   0  0  0  0  0  0  0  0  0  0  0  0
  -18.9050  -30.1440   23.9590 C   0  0  0  0  0  3  0  0  0  0  0  0
  -17.5990  -30.6450   24.1110 C   0  0  0  0  0  3  0  0  0  0  0  0
  -16.4980  -29.8740   23.6980 C   0  0  0  0  0  3  0  0  0  0  0  0
  -16.7070  -28.6060   23.1260 C   0  0  0  0  0  3  0  0  0  0  0  0
  -25.8640  -32.5420   23.8670 C   0  0  0  0  0  3  0  0  0  0  0  0
  -25.5610  -33.9410   24.1900 N   0  0  0  0  0  0  0  0  0  0  0  0
  -25.9020  -34.9900   23.4280 C   0  0  0  0  0  0  0  0  0  0  0  0
  -26.5780  -34.8790   22.4020 O   0  0  0  0  0  0  0  0  0  0  0  0
  -24.9640  -34.1020   24.9880 H   0  0  0  0  0  0  0  0  0  0  0  0
  -24.1870  -36.7890   23.0510 C   0  0  0  0  0  1  0  0  0  0  0  0
  -25.4170  -36.3810   23.8770 C   0  0  0  0  0  3  0  0  0  0  0  0
  -27.5500  -37.2550   24.7260 C   0  0  0  0  0  1  0  0  0  0  0  0
  -26.4570  -37.4280   23.7720 N   0  0  0  0  0  0  0  0  0  0  0  0
  -26.0560  -38.3510   23.9160 H   0  0  0  0  0  0  0  0  0  0  0  0
  -26.3860  -31.7760   25.1440 C   0  0  1  0  0  0  0  0  0  0  0  0
  -25.2960  -31.5440   26.2170 C   0  0  0  0  0  1  0  0  0  0  0  0
  -26.9620  -30.3970   24.7490 C   0  0  0  0  0  1  0  0  0  0  0  0
  -27.5420  -32.5670   25.7990 C   0  0  0  0  0  1  0  0  0  0  0  0
  -29.0380  -18.2360   18.7120 C   0  0  0  0  0  3  0  0  0  0  0  0
  -28.1400  -19.2480   16.3990 C   0  0  0  0  0  2  0  0  0  0  0  0
  -29.6430  -19.2750   16.2950 C   0  0  0  0  0  2  0  0  0  0  0  0
  -28.9650  -18.2420   17.1760 C   0  0  0  0  0  3  0  0  0  0  0  0
  -30.0560  -17.1690   19.1860 C   0  0  0  0  0  2  0  0  0  0  0  0
  -30.1080  -16.8710   20.7090 C   0  0  0  0  0  2  0  0  0  0  0  0
  -30.6910  -14.4410   20.5360 C   0  0  0  0  0  0  0  0  0  0  0  0
  -30.3910  -12.3080   19.3510 C   0  0  0  0  0  2  0  0  0  0  0  0
  -29.4690  -12.5760   18.1420 C   0  0  0  0  0  2  0  0  0  0  0  0
  -27.9870  -12.4470   18.5440 C   0  0  0  0  0  2  0  0  0  0  0  0
  -27.6500  -13.2520   19.8280 C   0  0  0  0  0  3  0  0  0  0  0  0
  -28.6860  -12.9780   20.9440 C   0  0  0  0  0  2  0  0  0  0  0  0
  -30.0270  -13.2640   20.4050 N   0  0  0  0  0  0  0  0  0  0  0  0
  -31.8150  -14.6500   20.0700 O   0  0  0  0  0  0  0  0  0  0  0  0
  -29.9270  -15.4440   20.9970 N   0  0  0  0  0  0  0  0  0  0  0  0
  -29.0320  -15.1690   21.3790 H   0  0  0  0  0  0  0  0  0  0  0  0
  -25.2440  -13.8820   20.4920 C   0  0  0  0  0  0  0  0  0  0  0  0
  -24.1700  -13.1150   20.8530 C   0  0  0  0  0  0  0  0  0  0  0  0
  -24.6270  -11.7620   20.8410 C   0  0  0  0  0  0  0  0  0  0  0  0
  -26.2890  -12.9930   20.2860 N   0  0  0  0  0  0  0  0  0  0  0  0
  -25.9210  -11.7140   20.5520 N   0  0  0  0  0  0  0  0  0  0  0  0
  -23.8930  -10.5040   21.0330 C   0  0  0  0  0  0  0  0  0  0  0  0
  -24.3200   -9.5410   21.9730 C   0  0  0  0  0  3  0  0  0  0  0  0
  -23.5910   -8.3460   22.1540 C   0  0  0  0  0  3  0  0  0  0  0  0
  -22.4210   -8.1080   21.3940 C   0  0  0  0  0  0  0  0  0  0  0  0
  -22.0150   -9.0580   20.4410 C   0  0  0  0  0  3  0  0  0  0  0  0
  -22.7440  -10.2450   20.2580 C   0  0  0  0  0  3  0  0  0  0  0  0
  -21.6660   -6.9640   21.4820 O   0  0  0  0  0  0  0  0  0  0  0  0
  -21.6120   -6.2240   22.6350 C   0  0  0  0  0  0  0  0  0  0  0  0
  -21.1980   -6.7850   23.8630 C   0  0  0  0  0  3  0  0  0  0  0  0
  -21.0870   -5.9690   25.0080 C   0  0  0  0  0  3  0  0  0  0  0  0
  -21.3860   -4.5940   24.9240 C   0  0  0  0  0  0  0  0  0  0  0  0
  -21.7960   -4.0350   23.7010 C   0  0  0  0  0  3  0  0  0  0  0  0
  -21.9050   -4.8480   22.5600 C   0  0  0  0  0  0  0  0  0  0  0  0
  -22.2780   -4.2990   21.3780 F   0  0  0  0  0  0  0  0  0  0  0  0
  -21.2750   -3.8100   26.0210 F   0  0  0  0  0  0  0  0  0  0  0  0
  -22.7710  -13.5970   21.1080 C   0  0  0  0  0  0  0  0  0  0  0  0
  -22.0350  -12.9110   21.9730 N   0  0  0  0  0  0  0  0  0  0  0  0
  -22.3420  -14.6210   20.5770 O   0  0  0  0  0  0  0  0  0  0  0  0
  -22.3960  -12.0810   22.4210 H   0  0  0  0  0  0  0  0  0  0  0  0
  -21.0980  -13.2180   22.1910 H   0  0  0  0  0  0  0  0  0  0  0  0
  -25.4110  -15.2520   20.3080 N   0  0  0  0  0  0  0  0  0  0  0  0
  -24.6370  -15.9020   20.3950 H   0  0  0  0  0  0  0  0  0  0  0  0
  -26.2690  -15.6930   20.0030 H   0  0  0  0  0  0  0  0  0  0  0  0
  1  2  1  0
  2  6  2  0
  3  4  2  0
  4  7  1  0
  4  6  1  0
  5  3  1  0
  5  1  2  0
  6  9  1  0
  7  8  2  0
  8  9  1  0
  9 10  1  0
 11 12  1  0
 11 10  1  0
 12 14  1  0
 13 24  2  0
 14 19  1  0
 15 23  1  0
 15 25  1  0
 16 22  1  0
 16 18  1  0
 17 23  1  0
 18 17  1  0
 19 18  2  0
 20 21  1  0
 20 14  2  0
 21 16  2  0
 22 15  1  0
 23 13  1  0
 25 27  2  0
 26 25  1  0
 28 26  1  0
 29 38  2  0
 29 34  1  0
 30 26  1  0
 30 34  1  0
 31 30  1  0
 32 33  1  0
 32 31  1  0
 33 29  1  0
 34 35  2  0
 35 36  1  0
 37 36  2  0
 38 37  1  0
 39 13  1  0
 39 40  1  0
 39 49  1  0
 40 43  1  0
 41 45  1  0
 41 40  1  0
 42 41  2  0
 45 44  1  0
 47 45  1  0
 47 48  1  0
 47 46  1  0
 49 52  1  1
 49 50  1  0
 51 49  1  0
 53 57  1  0
 53  5  1  0
 54 56  1  0
 55 54  1  0
 55 56  1  0
 56 53  1  0
 57 58  1  0
 58 67  1  0
 59 67  1  0
 60 65  1  0
 61 62  1  0
 61 60  1  0
 63 62  1  0
 63 72  1  0
 63 64  1  0
 65 59  1  0
 65 64  1  0
 66 59  2  0
 67 68  1  0
 69 70  2  0
 70 89  1  0
 71 70  1  0
 71 74  1  0
 72 69  1  0
 72 73  1  0
 73 71  2  0
 74 75  1  0
 75 76  2  0
 77 80  1  0
 77 76  1  0
 78 77  2  0
 79 78  1  0
 79 74  2  0
 80 81  1  0
 81 82  1  0
 82 83  2  0
 84 83  1  0
 84 88  1  0
 85 84  2  0
 86 81  2  0
 86 85  1  0
 87 86  1  0
 89 90  1  0
 90 93  1  0
 90 92  1  0
 91 89  2  0
 94 95  1  0
 94 69  1  0
 96 94  1  0
M  ISO  4  11 101  12 101  59 100  67 100
M  END
>  <TORSDO>  (57) 
F 22

>  <SCORE>  (57) 
-13.568

>  <name>  (57) 
56

>  <ligand_id>  (57) 
56

>  <original_smiles>  (57) 
[H]c1c([H])c([H])c2c(c1[H])C([H])([H])C([H])([H])C([H])([H])C2([H])N([H])C(=O)C1([H])N(C(=O)C([H])(N([H])C(=O)C([H])(N([H])C([H])([H])[H])C([H])([H])[H])C(C([H])([H])[H])(C([H])([H])[H])C([H])([H])[H])C([H])([H])c2c([H])c(OC([H])([H])C([H])([H])N3c4c([H])c([H])c(C([H])(C([H])([H])C([H])([H])N([H])C(=O)N5C([H])([H])C([H])([H])C([H])([H])C([H])(n6nc(-c7c([H])c([H])c(Oc8c([H])c([H])c(F)c([H])c8F)c([H])c7[H])c(C(=O)N([H])[H])c6N([H])[H])C5([H])[H])C5([H])C([H])([H])C5([H])[H])c([H])c4C([H])([H])C3([H])[H])c([H])c([H])c2C1([H])[H]

>  <smiles>  (57) 
[H]c1c([H])c([H])c2c(c1[H])C([H])([H])C([H])([H])C([H])([H])C2([H])N([H])C(=O)C1([H])N(C(=O)C([H])(N([H])C(=O)C([H])(N([H])C([H])([H])[H])C([H])([H])[H])C(C([H])([H])[H])(C([H])([H])[H])C([H])([H])[H])C([H])([H])c2c([H])c(OC([H])([H])C([H])([H])N3c4c([H])c([H])c(C([H])(C([H])([H])C([H])([H])N([H])C(=O)N5C([H])([H])C([H])([H])C([H])([H])C([H])(n6nc(-c7c([H])c([H])c(Oc8c([H])c([H])c(F)c([H])c8F)c([H])c7[H])c(C(=O)N([H])[H])c6N([H])[H])C5([H])[H])C5([H])C([H])([H])C5([H])[H])c([H])c4C([H])([H])C3([H])[H])c([H])c([H])c2C1([H])[H]

$$$$
57:0:0
     RDKit          3D

 93102  0  0  1  0  0  0  0  0999 V2000
  -29.0270  -21.2050   20.5380 C   0  0  0  0  0  0  0  0  0  0  0  0
  -31.2560  -23.9470   19.4940 C   0  0  0  0  0  2  0  0  0  0  0  0
  -30.5830  -24.4150   20.7720 C   0  0  0  0  0  2  0  0  0  0  0  0
  -30.5910  -22.6050   19.1750 C   0  0  0  0  0  2  0  0  0  0  0  0
  -29.1630  -23.8560   20.6630 C   0  0  0  0  0  3  0  0  0  0  0  0
  -29.4050  -22.4640   20.0410 N   0  0  0  0  0  0  0  0  0  0  0  0
  -28.3110  -21.1380   21.5410 O   0  0  0  0  0  0  0  0  0  0  0  0
  -30.0080  -18.5290   17.8790 C   0  0  0  0  0  3  0  0  0  0  0  0
  -29.6570  -19.7410   18.5050 C   0  0  0  0  0  3  0  0  0  0  0  0
  -30.1420  -17.3330   18.6080 C   0  0  0  0  0  3  0  0  0  0  0  0
  -29.5760  -18.5650   20.6290 C   0  0  0  0  0  3  0  0  0  0  0  0
  -29.4680  -19.8340   19.9040 C   0  0  0  0  0  0  0  0  0  0  0  0
  -29.9120  -17.2860   20.0020 C   0  0  0  0  0  0  0  0  0  0  0  0
  -30.6130  -14.7960   20.3320 C   0  0  0  0  0  0  0  0  0  0  0  0
  -30.3910  -12.5110   19.3550 C   0  0  0  0  0  2  0  0  0  0  0  0
  -29.4720  -12.6020   18.1170 C   0  0  0  0  0  2  0  0  0  0  0  0
  -27.9970  -12.4380   18.5310 C   0  0  0  0  0  2  0  0  0  0  0  0
  -27.6190  -13.3280   19.7450 C   0  0  0  0  0  3  0  0  0  0  0  0
  -28.6660  -13.2360   20.8800 C   0  0  0  0  0  2  0  0  0  0  0  0
  -29.9770  -13.5730   20.3060 N   0  0  0  0  0  0  0  0  0  0  0  0
  -31.7840  -14.8770   19.9450 O   0  0  0  0  0  0  0  0  0  0  0  0
  -29.9020  -15.9480   20.6570 N   0  0  0  0  0  0  0  0  0  0  0  0
  -29.1020  -15.7830   21.2510 H   0  0  0  0  0  0  0  0  0  0  0  0
  -25.2230  -13.9280   20.4440 C   0  0  0  0  0  0  0  0  0  0  0  0
  -24.1530  -13.1600   20.8150 C   0  0  0  0  0  0  0  0  0  0  0  0
  -24.6150  -11.8070   20.8050 C   0  0  0  0  0  0  0  0  0  0  0  0
  -26.2680  -13.0450   20.2250 N   0  0  0  0  0  0  0  0  0  0  0  0
  -25.9080  -11.7660   20.5060 N   0  0  0  0  0  0  0  0  0  0  0  0
  -23.8830  -10.5490   21.0070 C   0  0  0  0  0  0  0  0  0  0  0  0
  -24.3150   -9.5850   21.9440 C   0  0  0  0  0  3  0  0  0  0  0  0
  -23.5840   -8.3920   22.1320 C   0  0  0  0  0  3  0  0  0  0  0  0
  -22.4090   -8.1530   21.3810 C   0  0  0  0  0  0  0  0  0  0  0  0
  -21.9970   -9.1060   20.4330 C   0  0  0  0  0  3  0  0  0  0  0  0
  -22.7280  -10.2910   20.2440 C   0  0  0  0  0  3  0  0  0  0  0  0
  -21.6480   -7.0120   21.4800 O   0  0  0  0  0  0  0  0  0  0  0  0
  -21.6090   -6.2690   22.6330 C   0  0  0  0  0  0  0  0  0  0  0  0
  -21.2040   -6.8260   23.8650 C   0  0  0  0  0  3  0  0  0  0  0  0
  -21.1120   -6.0120   25.0100 C   0  0  0  0  0  3  0  0  0  0  0  0
  -21.4130   -4.6380   24.9250 C   0  0  0  0  0  0  0  0  0  0  0  0
  -21.8110   -4.0800   23.6970 C   0  0  0  0  0  3  0  0  0  0  0  0
  -21.9070   -4.8930   22.5550 C   0  0  0  0  0  0  0  0  0  0  0  0
  -22.2710   -4.3460   21.3700 F   0  0  0  0  0  0  0  0  0  0  0  0
  -21.3160   -3.8540   26.0230 F   0  0  0  0  0  0  0  0  0  0  0  0
  -22.7540  -13.6430   21.0650 C   0  0  0  0  0  0  0  0  0  0  0  0
  -22.0130  -12.9610   21.9320 N   0  0  0  0  0  0  0  0  0  0  0  0
  -22.3220  -14.6610   20.5250 O   0  0  0  0  0  0  0  0  0  0  0  0
  -22.3740  -12.1400   22.3950 H   0  0  0  0  0  0  0  0  0  0  0  0
  -21.0740  -13.2700   22.1390 H   0  0  0  0  0  0  0  0  0  0  0  0
  -25.3880  -15.2960   20.2510 N   0  0  0  0  0  0  0  0  0  0  0  0
  -24.6140  -15.9450   20.3340 H   0  0  0  0  0  0  0  0  0  0  0  0
  -26.2380  -15.7360   19.9190 H   0  0  0  0  0  0  0  0  0  0  0  0
  -28.2160  -24.9550   19.9260 C   0  0  0  0  0  2  0  0  0  0  0  0
  -28.3270  -26.4240   20.2650 O   0  0  0  0  0  0  0  0  0  0  0  0
  -24.6070  -31.9000   23.2420 C   0  0  0  0  0  0  0  0  0  0  0  0
  -27.2180  -27.3020   20.1860 C   0  0  0  0  0  0  0  0  0  0  0  0
  -23.4060  -30.5060   21.5980 C   0  0  0  0  0  3  0  0  0  0  0  0
  -24.8570  -28.9510   20.1690 C   0  0  0  0  0  0  0  0  0  0  0  0
  -25.9490  -30.8100   21.4230 C   0  0  0  0  0  2  0  0  0  0  0  0
  -26.0280  -29.4290   20.7710 C   0  0  0  0  0  0  0  0  0  0  0  0
  -27.2070  -28.6150   20.7720 C   0  0  0  0  0  3  0  0  0  0  0  0
  -26.0260  -26.8990   19.5410 C   0  0  0  0  0  3  0  0  0  0  0  0
  -24.8620  -27.6930   19.5430 C   0  0  0  0  0  3  0  0  0  0  0  0
  -23.6230  -29.8320   20.2170 C   0  0  0  0  0  2  0  0  0  0  0  0
  -24.6730  -31.0910   22.1430 N   0  0  0  0  0  0  0  0  0  0  0  0
  -23.5250  -32.1730   23.7810 O   0  0  0  0  0  0  0  0  0  0  0  0
  -22.7410  -29.4910   22.5590 C   0  0  0  0  0  0  0  0  0  0  0  0
  -21.4130  -29.3170   22.4370 N   0  0  0  0  0  0  0  0  0  0  0  0
  -23.4200  -28.8600   23.3730 O   0  0  0  0  0  0  0  0  0  0  0  0
  -20.9210  -29.8790   21.7560 H   0  0  0  0  0  0  0  0  0  0  0  0
  -18.0320  -28.1300   22.9480 C   0  0  0  0  0  0  0  0  0  0  0  0
  -20.5940  -28.3800   23.2090 C   0  0  0  0  0  3  0  0  0  0  0  0
  -20.6860  -26.9490   22.6280 C   0  0  0  0  0  2  0  0  0  0  0  0
  -19.5790  -26.6360   21.6160 C   0  0  0  0  0  2  0  0  0  0  0  0
  -18.2000  -26.7840   22.2640 C   0  0  0  0  0  2  0  0  0  0  0  0
  -19.1550  -28.8860   23.3770 C   0  0  0  0  0  0  0  0  0  0  0  0
  -18.9410  -30.1490   23.9730 C   0  0  0  0  0  3  0  0  0  0  0  0
  -17.6380  -30.6540   24.1420 C   0  0  0  0  0  3  0  0  0  0  0  0
  -16.5300  -29.8950   23.7290 C   0  0  0  0  0  3  0  0  0  0  0  0
  -16.7280  -28.6340   23.1400 C   0  0  0  0  0  3  0  0  0  0  0  0
  -25.8890  -32.5330   23.8650 C   0  0  0  0  0  3  0  0  0  0  0  0
  -25.5800  -33.9320   24.1940 N   0  0  0  0  0  0  0  0  0  0  0  0
  -25.9120  -34.9850   23.4350 C   0  0  0  0  0  0  0  0  0  0  0  0
  -26.5760  -34.8770   22.4000 O   0  0  0  0  0  0  0  0  0  0  0  0
  -24.9890  -34.0860   24.9980 H   0  0  0  0  0  0  0  0  0  0  0  0
  -24.1820  -36.7750   23.0850 C   0  0  0  0  0  1  0  0  0  0  0  0
  -25.4290  -36.3760   23.8910 C   0  0  0  0  0  3  0  0  0  0  0  0
  -27.5730  -37.2590   24.7020 C   0  0  0  0  0  1  0  0  0  0  0  0
  -26.4610  -37.4290   23.7690 N   0  0  0  0  0  0  0  0  0  0  0  0
  -26.0570  -38.3500   23.9180 H   0  0  0  0  0  0  0  0  0  0  0  0
  -26.3960  -31.7650   25.1460 C   0  0  1  0  0  0  0  0  0  0  0  0
  -25.3020  -31.5380   26.2170 C   0  0  0  0  0  1  0  0  0  0  0  0
  -26.9700  -30.3850   24.7590 C   0  0  0  0  0  1  0  0  0  0  0  0
  -27.5460  -32.5610   25.8070 C   0  0  0  0  0  1  0  0  0  0  0  0
  1  7  2  0
  2  3  1  0
  4  2  1  0
  4  6  1  0
  5 52  1  0
  5  3  1  0
  6  1  1  0
  6  5  1  0
  8  9  2  0
  8 10  1  0
  9 12  1  0
 10 13  2  0
 12  1  1  0
 12 11  2  0
 13 11  1  0
 13 22  1  0
 14 22  1  0
 15 20  1  0
 16 17  1  0
 16 15  1  0
 18 17  1  0
 18 27  1  0
 18 19  1  0
 20 14  1  0
 20 19  1  0
 21 14  2  0
 22 23  1  0
 24 25  2  0
 25 44  1  0
 26 25  1  0
 26 29  1  0
 27 24  1  0
 27 28  1  0
 28 26  2  0
 29 30  1  0
 30 31  2  0
 32 35  1  0
 32 31  1  0
 33 32  2  0
 34 33  1  0
 34 29  2  0
 35 36  1  0
 36 37  1  0
 37 38  2  0
 39 38  1  0
 39 43  1  0
 40 39  2  0
 41 36  2  0
 41 40  1  0
 42 41  1  0
 44 45  1  0
 45 48  1  0
 45 47  1  0
 46 44  2  0
 49 50  1  0
 49 24  1  0
 51 49  1  0
 52 53  1  0
 54 65  2  0
 55 53  1  0
 55 60  1  0
 56 64  1  0
 56 66  1  0
 57 63  1  0
 57 59  1  0
 58 64  1  0
 59 60  2  0
 59 58  1  0
 61 62  1  0
 61 55  2  0
 62 57  2  0
 63 56  1  0
 64 54  1  0
 66 68  2  0
 67 66  1  0
 69 67  1  0
 70 79  2  0
 70 75  1  0
 71 67  1  0
 71 75  1  0
 72 71  1  0
 73 74  1  0
 73 72  1  0
 74 70  1  0
 75 76  2  0
 76 77  1  0
 78 77  2  0
 79 78  1  0
 80 54  1  0
 80 81  1  0
 80 90  1  0
 81 84  1  0
 82 86  1  0
 82 81  1  0
 83 82  2  0
 86 85  1  0
 88 86  1  0
 88 89  1  0
 88 87  1  0
 90 93  1  1
 90 91  1  0
 92 90  1  0
M  ISO  4  14 100  22 100  52 101  53 101
M  END
>  <TORSDO>  (58) 
F 18

>  <SCORE>  (58) 
-14.790

>  <name>  (58) 
57

>  <ligand_id>  (58) 
57

>  <original_smiles>  (58) 
[H]c1c([H])c(C(=O)N2C([H])([H])C([H])([H])C([H])([H])C2([H])C([H])([H])Oc2c([H])c([H])c3c(c2[H])C([H])([H])N(C(=O)C([H])(N([H])C(=O)C([H])(N([H])C([H])([H])[H])C([H])([H])[H])C(C([H])([H])[H])(C([H])([H])[H])C([H])([H])[H])C([H])(C(=O)N([H])C2([H])c4c([H])c([H])c([H])c([H])c4C([H])([H])C([H])([H])C2([H])[H])C3([H])[H])c([H])c(N([H])C(=O)N2C([H])([H])C([H])([H])C([H])([H])C([H])(n3nc(-c4c([H])c([H])c(Oc5c([H])c([H])c(F)c([H])c5F)c([H])c4[H])c(C(=O)N([H])[H])c3N([H])[H])C2([H])[H])c1[H]

>  <smiles>  (58) 
[H]c1c([H])c(C(=O)N2C([H])([H])C([H])([H])C([H])([H])C2([H])C([H])([H])Oc2c([H])c([H])c3c(c2[H])C([H])([H])N(C(=O)C([H])(N([H])C(=O)C([H])(N([H])C([H])([H])[H])C([H])([H])[H])C(C([H])([H])[H])(C([H])([H])[H])C([H])([H])[H])C([H])(C(=O)N([H])C2([H])c4c([H])c([H])c([H])c([H])c4C([H])([H])C([H])([H])C2([H])[H])C3([H])[H])c([H])c(N([H])C(=O)N2C([H])([H])C([H])([H])C([H])([H])C([H])(n3nc(-c4c([H])c([H])c(Oc5c([H])c([H])c(F)c([H])c5F)c([H])c4[H])c(C(=O)N([H])[H])c3N([H])[H])C2([H])[H])c1[H]

$$$$
58:0:0
     RDKit          3D

 86 94  0  0  1  0  0  0  0  0999 V2000
  -31.1700  -20.9320   20.4430 C   0  0  0  0  0  3  0  0  0  0  0  0
  -30.2760  -22.0570   20.4060 C   0  0  0  0  0  3  0  0  0  0  0  0
  -30.8430  -19.5330   20.3890 C   0  0  0  0  0  3  0  0  0  0  0  0
  -28.5970  -20.3530   20.2540 C   0  0  0  0  0  3  0  0  0  0  0  0
  -28.8660  -21.9710   20.3050 C   0  0  0  0  0  0  0  0  0  0  0  0
  -29.5320  -19.0050   20.2890 C   0  0  0  0  0  0  0  0  0  0  0  0
  -30.1920  -15.8550   20.2000 C   0  0  0  0  0  0  0  0  0  0  0  0
  -30.3410  -13.2850   19.3630 C   0  0  0  0  0  2  0  0  0  0  0  0
  -29.4560  -12.8160   18.1690 C   0  0  0  0  0  2  0  0  0  0  0  0
  -28.0490  -12.4220   18.6400 C   0  0  0  0  0  2  0  0  0  0  0  0
  -27.5220  -13.4180   19.6950 C   0  0  0  0  0  3  0  0  0  0  0  0
  -28.5540  -13.7840   20.7920 C   0  0  0  0  0  2  0  0  0  0  0  0
  -29.6910  -14.4650   20.1150 N   0  0  0  0  0  0  0  0  0  0  0  0
  -31.4300  -15.7760   20.0400 O   0  0  0  0  0  0  0  0  0  0  0  0
  -29.4130  -17.2430   20.2600 N   0  0  0  0  0  0  0  0  0  0  0  0
  -28.4360  -16.9880   20.2920 H   0  0  0  0  0  0  0  0  0  0  0  0
  -25.1650  -13.9080   20.4880 C   0  0  0  0  0  0  0  0  0  0  0  0
  -24.1200  -13.1120   20.8580 C   0  0  0  0  0  0  0  0  0  0  0  0
  -24.6060  -11.7690   20.8140 C   0  0  0  0  0  0  0  0  0  0  0  0
  -26.2190  -13.0530   20.2290 N   0  0  0  0  0  0  0  0  0  0  0  0
  -25.8990  -11.7570   20.4910 N   0  0  0  0  0  0  0  0  0  0  0  0
  -23.8950  -10.4960   20.9990 C   0  0  0  0  0  0  0  0  0  0  0  0
  -24.3210   -9.5410   21.9480 C   0  0  0  0  0  3  0  0  0  0  0  0
  -23.6030   -8.3370   22.1240 C   0  0  0  0  0  3  0  0  0  0  0  0
  -22.4450   -8.0810   21.3530 C   0  0  0  0  0  0  0  0  0  0  0  0
  -22.0370   -9.0260   20.3930 C   0  0  0  0  0  3  0  0  0  0  0  0
  -22.7560  -10.2200   20.2160 C   0  0  0  0  0  3  0  0  0  0  0  0
  -21.7000   -6.9290   21.4370 O   0  0  0  0  0  0  0  0  0  0  0  0
  -21.6170   -6.2090   22.6020 C   0  0  0  0  0  0  0  0  0  0  0  0
  -21.1080   -6.7740   23.7910 C   0  0  0  0  0  3  0  0  0  0  0  0
  -20.9740   -5.9790   24.9470 C   0  0  0  0  0  3  0  0  0  0  0  0
  -21.3410   -4.6210   24.9140 C   0  0  0  0  0  0  0  0  0  0  0  0
  -21.8440   -4.0550   23.7290 C   0  0  0  0  0  3  0  0  0  0  0  0
  -21.9780   -4.8470   22.5760 C   0  0  0  0  0  0  0  0  0  0  0  0
  -22.4430   -4.2910   21.4310 F   0  0  0  0  0  0  0  0  0  0  0  0
  -21.2070   -3.8540   26.0220 F   0  0  0  0  0  0  0  0  0  0  0  0
  -22.7170  -13.5690   21.1330 C   0  0  0  0  0  0  0  0  0  0  0  0
  -22.0030  -12.8670   22.0040 N   0  0  0  0  0  0  0  0  0  0  0  0
  -22.2660  -14.5890   20.6110 O   0  0  0  0  0  0  0  0  0  0  0  0
  -22.3830  -12.0440   22.4480 H   0  0  0  0  0  0  0  0  0  0  0  0
  -21.0620  -13.1570   22.2300 H   0  0  0  0  0  0  0  0  0  0  0  0
  -25.3030  -15.2820   20.3150 N   0  0  0  0  0  0  0  0  0  0  0  0
  -24.5210  -15.9180   20.4310 H   0  0  0  0  0  0  0  0  0  0  0  0
  -26.1290  -15.7320   19.9470 H   0  0  0  0  0  0  0  0  0  0  0  0
  -27.9040  -23.6280   20.2440 C   0  0  0  0  0  2  0  0  0  0  0  0
  -28.1320  -25.4200   20.3730 O   0  0  0  0  0  0  0  0  0  0  0  0
  -24.6750  -31.8720   23.2620 C   0  0  0  0  0  0  0  0  0  0  0  0
  -27.1850  -26.6880   20.3150 C   0  0  0  0  0  0  0  0  0  0  0  0
  -23.4950  -30.4780   21.6190 C   0  0  0  0  0  3  0  0  0  0  0  0
  -24.9430  -28.7980   20.2290 C   0  0  0  0  0  0  0  0  0  0  0  0
  -26.0790  -30.5740   21.5310 C   0  0  0  0  0  2  0  0  0  0  0  0
  -26.1380  -29.1300   20.8780 C   0  0  0  0  0  0  0  0  0  0  0  0
  -27.2390  -28.1060   20.8840 C   0  0  0  0  0  3  0  0  0  0  0  0
  -25.9550  -26.5930   19.6070 C   0  0  0  0  0  3  0  0  0  0  0  0
  -24.8960  -27.5580   19.5690 C   0  0  0  0  0  3  0  0  0  0  0  0
  -23.7460  -29.7690   20.2550 C   0  0  0  0  0  2  0  0  0  0  0  0
  -24.7750  -31.0100   22.1900 N   0  0  0  0  0  0  0  0  0  0  0  0
  -23.5770  -32.1850   23.7580 O   0  0  0  0  0  0  0  0  0  0  0  0
  -22.7530  -29.5170   22.5880 C   0  0  0  0  0  0  0  0  0  0  0  0
  -21.4200  -29.3750   22.4510 N   0  0  0  0  0  0  0  0  0  0  0  0
  -23.3920  -28.8940   23.4400 O   0  0  0  0  0  0  0  0  0  0  0  0
  -20.9530  -29.9280   21.7440 H   0  0  0  0  0  0  0  0  0  0  0  0
  -18.0190  -28.1820   22.9320 C   0  0  0  0  0  0  0  0  0  0  0  0
  -20.5780  -28.4480   23.2190 C   0  0  0  0  0  3  0  0  0  0  0  0
  -20.6800  -27.0100   22.6570 C   0  0  0  0  0  2  0  0  0  0  0  0
  -19.5890  -26.6850   21.6310 C   0  0  0  0  0  2  0  0  0  0  0  0
  -18.2010  -26.8320   22.2590 C   0  0  0  0  0  2  0  0  0  0  0  0
  -19.1330  -28.9480   23.3680 C   0  0  0  0  0  0  0  0  0  0  0  0
  -18.9060  -30.2070   23.9630 C   0  0  0  0  0  3  0  0  0  0  0  0
  -17.5980  -30.7030   24.1240 C   0  0  0  0  0  3  0  0  0  0  0  0
  -16.4980  -29.9370   23.7000 C   0  0  0  0  0  3  0  0  0  0  0  0
  -16.7090  -28.6770   23.1110 C   0  0  0  0  0  3  0  0  0  0  0  0
  -25.9330  -32.5200   23.9170 C   0  0  0  0  0  3  0  0  0  0  0  0
  -25.6150  -33.9250   24.2440 N   0  0  0  0  0  0  0  0  0  0  0  0
  -25.9320  -34.9870   23.4900 C   0  0  0  0  0  0  0  0  0  0  0  0
  -26.5750  -34.8860   22.4430 O   0  0  0  0  0  0  0  0  0  0  0  0
  -25.0360  -34.0750   25.0570 H   0  0  0  0  0  0  0  0  0  0  0  0
  -24.1820  -36.7830   23.2210 C   0  0  0  0  0  1  0  0  0  0  0  0
  -25.4640  -36.3790   23.9670 C   0  0  0  0  0  3  0  0  0  0  0  0
  -27.6290  -37.2890   24.6910 C   0  0  0  0  0  1  0  0  0  0  0  0
  -26.4850  -37.4380   23.7970 N   0  0  0  0  0  0  0  0  0  0  0  0
  -26.0790  -38.3570   23.9500 H   0  0  0  0  0  0  0  0  0  0  0  0
  -26.4050  -31.7660   25.2230 C   0  0  1  0  0  0  0  0  0  0  0  0
  -25.2830  -31.5600   26.2680 C   0  0  0  0  0  1  0  0  0  0  0  0
  -26.9830  -30.3740   24.8840 C   0  0  0  0  0  1  0  0  0  0  0  0
  -27.5480  -32.5590   25.9010 C   0  0  0  0  0  1  0  0  0  0  0  0
  2  1  1  0
  3  1  2  0
  4  6  2  0
  4  5  1  0
  5  2  2  0
  6  3  1  0
  7 15  1  0
  8 13  1  0
  9 10  1  0
  9  8  1  0
 11 10  1  0
 11 20  1  0
 11 12  1  0
 13  7  1  0
 13 12  1  0
 14  7  2  0
 15  6  1  0
 15 16  1  0
 17 18  2  0
 18 37  1  0
 19 18  1  0
 19 22  1  0
 20 17  1  0
 20 21  1  0
 21 19  2  0
 22 23  1  0
 23 24  2  0
 25 28  1  0
 25 24  1  0
 26 25  2  0
 27 26  1  0
 27 22  2  0
 28 29  1  0
 29 30  1  0
 30 31  2  0
 32 31  1  0
 32 36  1  0
 33 32  2  0
 34 29  2  0
 34 33  1  0
 35 34  1  0
 37 38  1  0
 38 41  1  0
 38 40  1  0
 39 37  2  0
 42 43  1  0
 42 17  1  0
 44 42  1  0
 45  5  1  0
 45 46  1  0
 47 58  2  0
 48 46  1  0
 48 53  1  0
 49 57  1  0
 49 59  1  0
 50 56  1  0
 50 52  1  0
 51 57  1  0
 52 53  2  0
 52 51  1  0
 54 48  2  0
 55 54  1  0
 55 50  2  0
 56 49  1  0
 57 47  1  0
 59 61  2  0
 60 59  1  0
 62 60  1  0
 63 72  2  0
 63 68  1  0
 64 60  1  0
 64 68  1  0
 65 64  1  0
 66 67  1  0
 66 65  1  0
 67 63  1  0
 68 69  2  0
 69 70  1  0
 71 70  2  0
 72 71  1  0
 73 47  1  0
 73 74  1  0
 73 83  1  0
 74 77  1  0
 75 79  1  0
 75 74  1  0
 76 75  2  0
 79 78  1  0
 81 82  1  0
 81 79  1  0
 81 80  1  0
 83 86  1  1
 83 84  1  0
 85 83  1  0
M  ISO  4   7 100  15 100  45 101  46 101
M  END
>  <TORSDO>  (59) 
F 17

>  <SCORE>  (59) 
-16.516

>  <name>  (59) 
58

>  <ligand_id>  (59) 
58

>  <original_smiles>  (59) 
[H]c1c([H])c(N([H])C(=O)N2C([H])([H])C([H])([H])C([H])([H])C([H])(n3nc(-c4c([H])c([H])c(Oc5c([H])c([H])c(F)c([H])c5F)c([H])c4[H])c(C(=O)N([H])[H])c3N([H])[H])C2([H])[H])c([H])c(C([H])([H])Oc2c([H])c([H])c3c(c2[H])C([H])([H])N(C(=O)C([H])(N([H])C(=O)C([H])(N([H])C([H])([H])[H])C([H])([H])[H])C(C([H])([H])[H])(C([H])([H])[H])C([H])([H])[H])C([H])(C(=O)N([H])C2([H])c4c([H])c([H])c([H])c([H])c4C([H])([H])C([H])([H])C2([H])[H])C3([H])[H])c1[H]

>  <smiles>  (59) 
[H]c1c([H])c(N([H])C(=O)N2C([H])([H])C([H])([H])C([H])([H])C([H])(n3nc(-c4c([H])c([H])c(Oc5c([H])c([H])c(F)c([H])c5F)c([H])c4[H])c(C(=O)N([H])[H])c3N([H])[H])C2([H])[H])c([H])c(C([H])([H])Oc2c([H])c([H])c3c(c2[H])C([H])([H])N(C(=O)C([H])(N([H])C(=O)C([H])(N([H])C([H])([H])[H])C([H])([H])[H])C(C([H])([H])[H])(C([H])([H])[H])C([H])([H])[H])C([H])(C(=O)N([H])C2([H])c4c([H])c([H])c([H])c([H])c4C([H])([H])C([H])([H])C2([H])[H])C3([H])[H])c1[H]

$$$$
59:0:0
     RDKit          3D

100110  0  0  1  0  0  0  0  0999 V2000
  -28.9990  -22.9580   19.0990 C   0  0  0  0  0  3  0  0  0  0  0  0
  -28.5730  -21.2620   22.6570 C   0  0  0  0  0  2  0  0  0  0  0  0
  -28.2490  -22.2430   21.5220 C   0  0  0  0  0  2  0  0  0  0  0  0
  -28.7820  -19.8200   22.1410 C   0  0  0  0  0  2  0  0  0  0  0  0
  -30.1460  -20.9780   20.3330 C   0  0  0  0  0  2  0  0  0  0  0  0
  -29.4000  -22.3310   20.4800 C   0  0  0  0  0  3  0  0  0  0  0  0
  -29.2390  -19.7640   20.6550 C   0  0  0  0  0  3  0  0  0  0  0  0
  -31.8360  -15.0420   18.8730 C   0  0  0  0  0  0  0  0  0  0  0  0
  -31.2780  -12.8570   17.9000 C   0  0  0  0  0  2  0  0  0  0  0  0
  -30.0830  -13.0410   16.9430 C   0  0  0  0  0  2  0  0  0  0  0  0
  -28.7440  -12.9490   17.7030 C   0  0  0  0  0  2  0  0  0  0  0  0
  -28.7160  -13.8320   18.9770 C   0  0  0  0  0  3  0  0  0  0  0  0
  -29.9940  -13.6240   19.8230 C   0  0  0  0  0  2  0  0  0  0  0  0
  -31.1530  -13.8710   18.9530 N   0  0  0  0  0  0  0  0  0  0  0  0
  -32.8520  -15.1950   18.1860 O   0  0  0  0  0  0  0  0  0  0  0  0
  -31.6830  -16.7570   20.5660 C   0  0  0  0  0  2  0  0  0  0  0  0
  -30.5940  -17.0250   18.3430 C   0  0  0  0  0  2  0  0  0  0  0  0
  -30.6860  -17.7550   21.2060 C   0  0  0  0  0  2  0  0  0  0  0  0
  -30.3560  -18.4460   18.8540 C   0  0  0  0  0  2  0  0  0  0  0  0
  -31.1660  -16.1100   19.3510 N   0  0  0  0  0  0  0  0  0  0  0  0
  -29.7950  -18.4400   20.2290 N   0  0  2  0  0  4  0  0  0  0  0  0
  -28.9880  -17.8330   20.1750 H   0  0  0  0  0  0  0  0  0  0  0  0
  -26.6880  -14.5420   20.3910 C   0  0  0  0  0  0  0  0  0  0  0  0
  -25.6520  -13.8230   20.9250 C   0  0  0  0  0  0  0  0  0  0  0  0
  -25.8940  -12.4620   20.5640 C   0  0  0  0  0  0  0  0  0  0  0  0
  -27.5040  -13.6150   19.7580 N   0  0  0  0  0  0  0  0  0  0  0  0
  -27.0430  -12.3510   19.9150 N   0  0  0  0  0  0  0  0  0  0  0  0
  -25.0680  -11.2620   20.7480 C   0  0  0  0  0  0  0  0  0  0  0  0
  -25.4860  -10.2040   21.5850 C   0  0  0  0  0  3  0  0  0  0  0  0
  -24.6680   -9.0660   21.7620 C   0  0  0  0  0  3  0  0  0  0  0  0
  -23.4210   -8.9800   21.1000 C   0  0  0  0  0  0  0  0  0  0  0  0
  -23.0210  -10.0260   20.2490 C   0  0  0  0  0  3  0  0  0  0  0  0
  -23.8370  -11.1550   20.0700 C   0  0  0  0  0  3  0  0  0  0  0  0
  -22.5720   -7.9060   21.1950 O   0  0  0  0  0  0  0  0  0  0  0  0
  -22.3700   -7.2510   22.3840 C   0  0  0  0  0  0  0  0  0  0  0  0
  -21.9220   -7.9290   23.5390 C   0  0  0  0  0  3  0  0  0  0  0  0
  -21.6640   -7.2080   24.7220 C   0  0  0  0  0  3  0  0  0  0  0  0
  -21.8370   -5.8110   24.7500 C   0  0  0  0  0  0  0  0  0  0  0  0
  -22.2770   -5.1340   23.5990 C   0  0  0  0  0  3  0  0  0  0  0  0
  -22.5390   -5.8530   22.4190 C   0  0  0  0  0  0  0  0  0  0  0  0
  -22.9430   -5.1930   21.3060 F   0  0  0  0  0  0  0  0  0  0  0  0
  -21.5820   -5.1170   25.8820 F   0  0  0  0  0  0  0  0  0  0  0  0
  -24.4460  -14.3760   21.6290 C   0  0  0  0  0  0  0  0  0  0  0  0
  -23.8930  -13.6230   22.5740 N   0  0  0  0  0  0  0  0  0  0  0  0
  -24.0170  -15.5010   21.3730 O   0  0  0  0  0  0  0  0  0  0  0  0
  -24.2550  -12.7060   22.7890 H   0  0  0  0  0  0  0  0  0  0  0  0
  -23.0920  -13.9630   23.0870 H   0  0  0  0  0  0  0  0  0  0  0  0
  -26.9910  -15.9010   20.3620 N   0  0  0  0  0  0  0  0  0  0  0  0
  -26.2340  -16.5230   20.6210 H   0  0  0  0  0  0  0  0  0  0  0  0
  -27.4740  -16.2280   19.5350 H   0  0  0  0  0  0  0  0  0  0  0  0
  -25.7250  -20.8060   17.1850 C   0  0  0  0  0  3  0  0  0  0  0  0
  -27.0530  -20.3720   17.0050 C   0  0  0  0  0  3  0  0  0  0  0  0
  -25.4600  -21.9580   17.9470 C   0  0  0  0  0  3  0  0  0  0  0  0
  -28.1130  -21.0800   17.6060 C   0  0  0  0  0  3  0  0  0  0  0  0
  -26.5210  -22.6720   18.5380 C   0  0  0  0  0  3  0  0  0  0  0  0
  -27.8540  -22.2250   18.3940 C   0  0  0  0  0  0  0  0  0  0  0  0
  -28.6840  -24.3420   19.2620 O   0  0  0  0  0  0  0  0  0  0  0  0
  -29.8210  -25.2070   19.2610 C   0  0  0  0  0  2  0  0  0  0  0  0
  -29.4420  -26.6160   19.7500 C   0  0  0  0  0  2  0  0  0  0  0  0
  -28.8900  -27.4020   18.6930 O   0  0  0  0  0  0  0  0  0  0  0  0
  -25.0040  -31.1940   23.2960 C   0  0  0  0  0  0  0  0  0  0  0  0
  -27.6810  -27.9640   19.0040 C   0  0  0  0  0  0  0  0  0  0  0  0
  -23.7500  -30.0430   21.5010 C   0  0  0  0  0  3  0  0  0  0  0  0
  -25.1630  -29.0690   19.6120 C   0  0  0  0  0  0  0  0  0  0  0  0
  -26.1690  -30.7810   21.1360 C   0  0  0  0  0  2  0  0  0  0  0  0
  -26.3210  -29.6080   20.1890 C   0  0  0  0  0  0  0  0  0  0  0  0
  -27.5870  -29.0580   19.8910 C   0  0  0  0  0  3  0  0  0  0  0  0
  -26.5140  -27.4340   18.4220 C   0  0  0  0  0  3  0  0  0  0  0  0
  -25.2530  -27.9790   18.7280 C   0  0  0  0  0  3  0  0  0  0  0  0
  -23.8480  -29.7170   19.9850 C   0  0  0  0  0  2  0  0  0  0  0  0
  -24.9980  -30.6760   22.0350 N   0  0  0  0  0  0  0  0  0  0  0  0
  -23.9790  -31.1900   23.9940 O   0  0  0  0  0  0  0  0  0  0  0  0
  -23.3440  -28.7550   22.2540 C   0  0  0  0  0  0  0  0  0  0  0  0
  -22.0810  -28.3330   22.0800 N   0  0  0  0  0  0  0  0  0  0  0  0
  -24.1610  -28.1460   22.9500 O   0  0  0  0  0  0  0  0  0  0  0  0
  -21.4720  -28.8910   21.5000 H   0  0  0  0  0  0  0  0  0  0  0  0
  -19.1030  -26.2910   22.1340 C   0  0  0  0  0  0  0  0  0  0  0  0
  -21.4920  -27.1270   22.6580 C   0  0  0  0  0  3  0  0  0  0  0  0
  -21.9870  -25.8590   21.9240 C   0  0  0  0  0  2  0  0  0  0  0  0
  -21.0610  -25.4200   20.7870 C   0  0  0  0  0  2  0  0  0  0  0  0
  -19.6550  -25.1320   21.3210 C   0  0  0  0  0  2  0  0  0  0  0  0
  -19.9660  -27.2370   22.7500 C   0  0  0  0  0  0  0  0  0  0  0  0
  -19.4010  -28.3150   23.4660 C   0  0  0  0  0  3  0  0  0  0  0  0
  -18.0060  -28.4550   23.5730 C   0  0  0  0  0  3  0  0  0  0  0  0
  -17.1560  -27.5090   22.9760 C   0  0  0  0  0  3  0  0  0  0  0  0
  -17.7050  -26.4270   22.2640 C   0  0  0  0  0  3  0  0  0  0  0  0
  -26.2860  -31.8390   23.9110 C   0  0  0  0  0  3  0  0  0  0  0  0
  -25.9000  -33.1420   24.4660 N   0  0  0  0  0  0  0  0  0  0  0  0
  -26.1580  -34.3220   23.8830 C   0  0  0  0  0  0  0  0  0  0  0  0
  -26.8170  -34.4270   22.8450 O   0  0  0  0  0  0  0  0  0  0  0  0
  -25.3090  -33.1300   25.2840 H   0  0  0  0  0  0  0  0  0  0  0  0
  -24.3270  -36.0440   23.8280 C   0  0  0  0  0  1  0  0  0  0  0  0
  -25.5970  -35.5860   24.5620 C   0  0  0  0  0  3  0  0  0  0  0  0
  -27.6860  -36.4440   25.5230 C   0  0  0  0  0  1  0  0  0  0  0  0
  -26.5660  -36.7020   24.6230 N   0  0  0  0  0  0  0  0  0  0  0  0
  -26.1100  -37.5590   24.9210 H   0  0  0  0  0  0  0  0  0  0  0  0
  -26.9640  -30.9390   25.0160 C   0  0  1  0  0  0  0  0  0  0  0  0
  -25.9830  -30.4570   26.1090 C   0  0  0  0  0  1  0  0  0  0  0  0
  -27.6150  -29.6910   24.3770 C   0  0  0  0  0  1  0  0  0  0  0  0
  -28.1000  -31.7280   25.7080 C   0  0  0  0  0  1  0  0  0  0  0  0
  1 57  1  0
  3  2  1  0
  4  2  1  0
  5  6  1  0
  6  1  1  0
  6  3  1  0
  7  5  1  0
  7  4  1  0
  8 14  1  0
  8 20  1  0
  9 14  1  0
 10 11  1  0
 10  9  1  0
 12 11  1  0
 12 26  1  0
 12 13  1  0
 14 13  1  0
 15  8  2  0
 16 18  1  0
 17 19  1  0
 17 20  1  0
 19 21  1  0
 20 16  1  0
 21 22  1  6
 21  7  1  0
 21 18  1  0
 23 24  2  0
 24 43  1  0
 25 28  1  0
 25 24  1  0
 26 27  1  0
 26 23  1  0
 27 25  2  0
 28 29  1  0
 29 30  2  0
 31 34  1  0
 31 30  1  0
 32 31  2  0
 33 32  1  0
 33 28  2  0
 34 35  1  0
 35 40  2  0
 35 36  1  0
 36 37  2  0
 37 38  1  0
 38 42  1  0
 39 38  2  0
 40 39  1  0
 41 40  1  0
 43 44  1  0
 44 46  1  0
 44 47  1  0
 45 43  2  0
 48 23  1  0
 48 49  1  0
 50 48  1  0
 51 53  1  0
 52 51  2  0
 52 54  1  0
 53 55  2  0
 54 56  2  0
 56 55  1  0
 56  1  1  0
 58 57  1  0
 58 59  1  0
 60 62  1  0
 60 59  1  0
 61 72  2  0
 62 67  1  0
 63 71  1  0
 63 73  1  0
 64 70  1  0
 64 66  1  0
 65 71  1  0
 66 65  1  0
 67 66  2  0
 68 69  1  0
 68 62  2  0
 69 64  2  0
 70 63  1  0
 71 61  1  0
 73 75  2  0
 74 73  1  0
 76 74  1  0
 77 86  2  0
 77 82  1  0
 78 74  1  0
 78 82  1  0
 79 78  1  0
 80 81  1  0
 80 79  1  0
 81 77  1  0
 82 83  2  0
 83 84  1  0
 85 84  2  0
 86 85  1  0
 87 61  1  0
 87 88  1  0
 87 97  1  0
 88 91  1  0
 89 88  1  0
 89 93  1  0
 90 89  2  0
 93 92  1  0
 93 95  1  0
 95 96  1  0
 95 94  1  0
 97100  1  1
 97 98  1  0
 99 97  1  0
M  ISO  4   8 100  20 100  59 101  60 101
M  END
>  <TORSDO>  (60) 
F 21

>  <SCORE>  (60) 
-3.238

>  <name>  (60) 
59

>  <ligand_id>  (60) 
59

>  <original_smiles>  (60) 
[H]c1c([H])c([H])c(C([H])(OC([H])([H])C([H])([H])Oc2c([H])c([H])c3c(c2[H])C([H])([H])N(C(=O)C([H])(N([H])C(=O)C([H])(N([H])C([H])([H])[H])C([H])([H])[H])C(C([H])([H])[H])(C([H])([H])[H])C([H])([H])[H])C([H])(C(=O)N([H])C2([H])c4c([H])c([H])c([H])c([H])c4C([H])([H])C([H])([H])C2([H])[H])C3([H])[H])C2([H])C([H])([H])C([H])([H])C([H])([H])C([H])([N+]3([H])C([H])([H])C([H])([H])N(C(=O)N4C([H])([H])C([H])([H])C([H])([H])C([H])(n5nc(-c6c([H])c([H])c(Oc7c([H])c([H])c(F)c([H])c7F)c([H])c6[H])c(C(=O)N([H])[H])c5N([H])[H])C4([H])[H])C([H])([H])C3([H])[H])C2([H])[H])c([H])c1[H]

>  <smiles>  (60) 
[H]c1c([H])c([H])c(C([H])(OC([H])([H])C([H])([H])Oc2c([H])c([H])c3c(c2[H])C([H])([H])N(C(=O)C([H])(N([H])C(=O)C([H])(N([H])C([H])([H])[H])C([H])([H])[H])C(C([H])([H])[H])(C([H])([H])[H])C([H])([H])[H])C([H])(C(=O)N([H])C2([H])c4c([H])c([H])c([H])c([H])c4C([H])([H])C([H])([H])C2([H])[H])C3([H])[H])C2([H])C([H])([H])C([H])([H])C([H])([H])C([H])([N+]3([H])C([H])([H])C([H])([H])N(C(=O)N4C([H])([H])C([H])([H])C([H])([H])C([H])(n5nc(-c6c([H])c([H])c(Oc7c([H])c([H])c(F)c([H])c7F)c([H])c6[H])c(C(=O)N([H])[H])c5N([H])[H])C4([H])[H])C([H])([H])C3([H])[H])C2([H])[H])c([H])c1[H]

$$$$
60:0:0
     RDKit          3D

 94103  0  0  1  0  0  0  0  0999 V2000
  -29.2880  -22.3700   20.8780 C   0  0  0  0  0  0  0  0  0  0  0  0
  -30.7180  -24.1860   17.9660 C   0  0  0  0  0  2  0  0  0  0  0  0
  -30.7650  -25.2310   19.0700 C   0  0  0  0  0  2  0  0  0  0  0  0
  -30.4690  -22.8790   18.7180 C   0  0  0  0  0  2  0  0  0  0  0  0
  -29.7660  -24.7160   20.1170 C   0  0  0  0  0  3  0  0  0  0  0  0
  -29.7900  -23.2460   19.9660 N   0  0  0  0  0  0  0  0  0  0  0  0
  -28.6470  -22.7380   21.8660 O   0  0  0  0  0  0  0  0  0  0  0  0
  -30.8150  -20.3410   20.6290 C   0  0  0  0  0  3  0  0  0  0  0  0
  -28.4080  -20.0110   20.5510 C   0  0  0  0  0  3  0  0  0  0  0  0
  -31.0110  -18.9690   20.3670 C   0  0  0  0  0  3  0  0  0  0  0  0
  -28.6040  -18.6350   20.2970 C   0  0  0  0  0  3  0  0  0  0  0  0
  -29.5110  -20.8900   20.6680 C   0  0  0  0  0  0  0  0  0  0  0  0
  -29.9080  -18.1150   20.1600 C   0  0  0  0  0  0  0  0  0  0  0  0
  -30.1330  -16.7050   19.6230 C   0  0  0  0  0  2  0  0  0  0  0  0
  -30.7200  -14.4750   20.4350 C   0  0  0  0  0  0  0  0  0  0  0  0
  -30.4070  -12.2990   19.3600 C   0  0  0  0  0  2  0  0  0  0  0  0
  -29.4990  -12.5340   18.1340 C   0  0  0  0  0  2  0  0  0  0  0  0
  -28.0160  -12.4190   18.5350 C   0  0  0  0  0  2  0  0  0  0  0  0
  -27.6630  -13.2590   19.7940 C   0  0  0  0  0  3  0  0  0  0  0  0
  -28.7010  -13.0460   20.9240 C   0  0  0  0  0  2  0  0  0  0  0  0
  -30.0380  -13.3020   20.3710 N   0  0  0  0  0  0  0  0  0  0  0  0
  -31.8980  -14.5850   20.0890 O   0  0  0  0  0  0  0  0  0  0  0  0
  -29.9430  -15.5690   20.5390 N   0  0  0  0  0  0  0  0  0  0  0  0
  -29.0040  -15.4170   20.8690 H   0  0  0  0  0  0  0  0  0  0  0  0
  -25.2540  -13.8810   20.4440 C   0  0  0  0  0  0  0  0  0  0  0  0
  -24.1770  -13.1160   20.8030 C   0  0  0  0  0  0  0  0  0  0  0  0
  -24.6370  -11.7630   20.8040 C   0  0  0  0  0  0  0  0  0  0  0  0
  -26.3020  -12.9950   20.2510 N   0  0  0  0  0  0  0  0  0  0  0  0
  -25.9330  -11.7170   20.5250 N   0  0  0  0  0  0  0  0  0  0  0  0
  -23.9050  -10.5060   21.0000 C   0  0  0  0  0  0  0  0  0  0  0  0
  -24.3210   -9.5500   21.9530 C   0  0  0  0  0  3  0  0  0  0  0  0
  -23.5900   -8.3560   22.1360 C   0  0  0  0  0  3  0  0  0  0  0  0
  -22.4300   -8.1090   21.3650 C   0  0  0  0  0  0  0  0  0  0  0  0
  -22.0350   -9.0530   20.4010 C   0  0  0  0  0  3  0  0  0  0  0  0
  -22.7660  -10.2380   20.2160 C   0  0  0  0  0  3  0  0  0  0  0  0
  -21.6720   -6.9670   21.4550 O   0  0  0  0  0  0  0  0  0  0  0  0
  -21.6070   -6.2370   22.6160 C   0  0  0  0  0  0  0  0  0  0  0  0
  -21.1700   -6.8070   23.8310 C   0  0  0  0  0  3  0  0  0  0  0  0
  -21.0520   -6.0040   24.9830 C   0  0  0  0  0  3  0  0  0  0  0  0
  -21.3600   -4.6320   24.9200 C   0  0  0  0  0  0  0  0  0  0  0  0
  -21.7900   -4.0610   23.7090 C   0  0  0  0  0  3  0  0  0  0  0  0
  -21.9100   -4.8620   22.5590 C   0  0  0  0  0  0  0  0  0  0  0  0
  -22.3060   -4.3040   21.3890 F   0  0  0  0  0  0  0  0  0  0  0  0
  -21.2380   -3.8570   26.0230 F   0  0  0  0  0  0  0  0  0  0  0  0
  -22.7740  -13.5990   21.0390 C   0  0  0  0  0  0  0  0  0  0  0  0
  -22.0290  -12.9170   21.9030 N   0  0  0  0  0  0  0  0  0  0  0  0
  -22.3480  -14.6150   20.4940 O   0  0  0  0  0  0  0  0  0  0  0  0
  -22.3880  -12.0950   22.3650 H   0  0  0  0  0  0  0  0  0  0  0  0
  -21.0880  -13.2200   22.1050 H   0  0  0  0  0  0  0  0  0  0  0  0
  -25.4230  -15.2480   20.2470 N   0  0  0  0  0  0  0  0  0  0  0  0
  -24.6510  -15.9020   20.3300 H   0  0  0  0  0  0  0  0  0  0  0  0
  -26.2740  -15.6830   19.9160 H   0  0  0  0  0  0  0  0  0  0  0  0
  -28.3580  -25.3230   19.8950 C   0  0  0  0  0  2  0  0  0  0  0  0
  -28.3960  -26.7370   20.1310 O   0  0  0  0  0  0  0  0  0  0  0  0
  -24.5830  -31.8850   23.2180 C   0  0  0  0  0  0  0  0  0  0  0  0
  -27.2050  -27.4370   20.1230 C   0  0  0  0  0  0  0  0  0  0  0  0
  -23.3670  -30.4860   21.5820 C   0  0  0  0  0  3  0  0  0  0  0  0
  -24.8090  -28.9460   20.1500 C   0  0  0  0  0  0  0  0  0  0  0  0
  -25.8930  -30.8400   21.3710 C   0  0  0  0  0  2  0  0  0  0  0  0
  -25.9710  -29.4690   20.7300 C   0  0  0  0  0  0  0  0  0  0  0  0
  -27.1700  -28.7230   20.7110 C   0  0  0  0  0  3  0  0  0  0  0  0
  -26.0210  -26.9260   19.5430 C   0  0  0  0  0  3  0  0  0  0  0  0
  -24.8290  -27.6750   19.5540 C   0  0  0  0  0  3  0  0  0  0  0  0
  -23.5670  -29.8070   20.2010 C   0  0  0  0  0  2  0  0  0  0  0  0
  -24.6330  -31.0850   22.1160 N   0  0  0  0  0  0  0  0  0  0  0  0
  -23.5050  -32.1590   23.7630 O   0  0  0  0  0  0  0  0  0  0  0  0
  -22.7180  -29.4670   22.5450 C   0  0  0  0  0  0  0  0  0  0  0  0
  -21.3930  -29.2880   22.4220 N   0  0  0  0  0  0  0  0  0  0  0  0
  -23.4040  -28.8380   23.3550 O   0  0  0  0  0  0  0  0  0  0  0  0
  -20.9020  -29.8480   21.7390 H   0  0  0  0  0  0  0  0  0  0  0  0
  -18.0150  -28.1110   22.9380 C   0  0  0  0  0  0  0  0  0  0  0  0
  -20.5770  -28.3520   23.1940 C   0  0  0  0  0  3  0  0  0  0  0  0
  -20.6660  -26.9230   22.6120 C   0  0  0  0  0  2  0  0  0  0  0  0
  -19.5560  -26.6110   21.6030 C   0  0  0  0  0  2  0  0  0  0  0  0
  -18.1790  -26.7620   22.2560 C   0  0  0  0  0  2  0  0  0  0  0  0
  -19.1410  -28.8640   23.3640 C   0  0  0  0  0  0  0  0  0  0  0  0
  -18.9350  -30.1270   23.9580 C   0  0  0  0  0  3  0  0  0  0  0  0
  -17.6340  -30.6370   24.1330 C   0  0  0  0  0  3  0  0  0  0  0  0
  -16.5220  -29.8800   23.7220 C   0  0  0  0  0  3  0  0  0  0  0  0
  -16.7140  -28.6190   23.1320 C   0  0  0  0  0  3  0  0  0  0  0  0
  -25.8740  -32.5110   23.8340 C   0  0  0  0  0  3  0  0  0  0  0  0
  -26.4010  -31.7320   25.1000 C   0  0  1  0  0  0  0  0  0  0  0  0
  -25.3170  -31.4870   26.1760 C   0  0  0  0  0  1  0  0  0  0  0  0
  -26.9800  -30.3580   24.6930 C   0  0  0  0  0  1  0  0  0  0  0  0
  -27.5560  -32.5230   25.7580 C   0  0  0  0  0  1  0  0  0  0  0  0
  -25.5680  -33.9080   24.1730 N   0  0  0  0  0  0  0  0  0  0  0  0
  -25.8960  -34.9630   23.4150 C   0  0  0  0  0  0  0  0  0  0  0  0
  -26.5600  -34.8640   22.3790 O   0  0  0  0  0  0  0  0  0  0  0  0
  -24.9790  -34.0590   24.9770 H   0  0  0  0  0  0  0  0  0  0  0  0
  -24.1700  -36.7600   23.0720 C   0  0  0  0  0  1  0  0  0  0  0  0
  -25.4120  -36.3490   23.8790 C   0  0  0  0  0  3  0  0  0  0  0  0
  -27.5490  -37.2280   24.7100 C   0  0  0  0  0  1  0  0  0  0  0  0
  -26.4450  -37.4020   23.7690 N   0  0  0  0  0  0  0  0  0  0  0  0
  -26.0410  -38.3220   23.9200 H   0  0  0  0  0  0  0  0  0  0  0  0
  1  7  2  0
  2  4  1  0
  2  3  1  0
  3  5  1  0
  4  6  1  0
  5 53  1  0
  6  5  1  0
  6  1  1  0
  8 12  1  0
  9 12  2  0
 10  8  2  0
 11  9  1  0
 12  1  1  0
 13 11  2  0
 13 10  1  0
 14 13  1  0
 14 23  1  0
 15 23  1  0
 16 21  1  0
 17 18  1  0
 17 16  1  0
 19 18  1  0
 19 28  1  0
 19 20  1  0
 21 15  1  0
 21 20  1  0
 22 15  2  0
 23 24  1  0
 25 26  2  0
 26 27  1  0
 26 45  1  0
 27 30  1  0
 28 25  1  0
 28 29  1  0
 29 27  2  0
 30 31  1  0
 31 32  2  0
 33 36  1  0
 33 32  1  0
 34 33  2  0
 35 34  1  0
 35 30  2  0
 36 37  1  0
 37 38  1  0
 38 39  2  0
 40 39  1  0
 40 44  1  0
 41 40  2  0
 42 37  2  0
 42 41  1  0
 43 42  1  0
 45 46  1  0
 46 49  1  0
 46 48  1  0
 47 45  2  0
 50 51  1  0
 50 25  1  0
 52 50  1  0
 53 54  1  0
 55 66  2  0
 56 54  1  0
 56 61  1  0
 57 65  1  0
 57 67  1  0
 58 64  1  0
 58 60  1  0
 59 65  1  0
 60 59  1  0
 61 60  2  0
 62 63  1  0
 62 56  2  0
 63 58  2  0
 64 57  1  0
 65 55  1  0
 67 69  2  0
 68 67  1  0
 70 68  1  0
 71 80  2  0
 71 76  1  0
 72 68  1  0
 72 76  1  0
 73 72  1  0
 74 75  1  0
 74 73  1  0
 75 71  1  0
 76 77  2  0
 77 78  1  0
 79 78  2  0
 80 79  1  0
 81 55  1  0
 81 86  1  0
 81 82  1  0
 82 85  1  1
 82 83  1  0
 84 82  1  0
 86 89  1  0
 87 91  1  0
 87 86  1  0
 88 87  2  0
 91 90  1  0
 93 91  1  0
 93 94  1  0
 93 92  1  0
M  ISO  4  15 100  23 100  53 101  54 101
M  END
>  <TORSDO>  (61) 
F 19

>  <SCORE>  (61) 
-14.490

>  <name>  (61) 
60

>  <ligand_id>  (61) 
60

>  <original_smiles>  (61) 
[H]c1c([H])c([H])c2c(c1[H])C([H])([H])C([H])([H])C([H])([H])C2([H])N([H])C(=O)C1([H])N(C(=O)C([H])(N([H])C(=O)C([H])(N([H])C([H])([H])[H])C([H])([H])[H])C(C([H])([H])[H])(C([H])([H])[H])C([H])([H])[H])C([H])([H])c2c([H])c(OC([H])([H])C3([H])N(C(=O)c4c([H])c([H])c(C([H])([H])N([H])C(=O)N5C([H])([H])C([H])([H])C([H])([H])C([H])(n6nc(-c7c([H])c([H])c(Oc8c([H])c([H])c(F)c([H])c8F)c([H])c7[H])c(C(=O)N([H])[H])c6N([H])[H])C5([H])[H])c([H])c4[H])C([H])([H])C([H])([H])C3([H])[H])c([H])c([H])c2C1([H])[H]

>  <smiles>  (61) 
[H]c1c([H])c([H])c2c(c1[H])C([H])([H])C([H])([H])C([H])([H])C2([H])N([H])C(=O)C1([H])N(C(=O)C([H])(N([H])C(=O)C([H])(N([H])C([H])([H])[H])C([H])([H])[H])C(C([H])([H])[H])(C([H])([H])[H])C([H])([H])[H])C([H])([H])c2c([H])c(OC([H])([H])C3([H])N(C(=O)c4c([H])c([H])c(C([H])([H])N([H])C(=O)N5C([H])([H])C([H])([H])C([H])([H])C([H])(n6nc(-c7c([H])c([H])c(Oc8c([H])c([H])c(F)c([H])c8F)c([H])c7[H])c(C(=O)N([H])[H])c6N([H])[H])C5([H])[H])c([H])c4[H])C([H])([H])C([H])([H])C3([H])[H])c([H])c([H])c2C1([H])[H]

$$$$
61:0:0
     RDKit          3D

 88 96  0  0  1  0  0  0  0  0999 V2000
  -30.5810  -19.2010   20.7390 C   0  0  0  0  0  2  0  0  0  0  0  0
  -28.5630  -18.9160   19.4600 C   0  0  0  0  0  2  0  0  0  0  0  0
  -30.0840  -20.7350   21.1300 C   0  0  0  0  0  2  0  0  0  0  0  0
  -28.1050  -20.4830   19.7770 C   0  0  0  0  0  2  0  0  0  0  0  0
  -29.4620  -18.0610   20.5000 C   0  0  0  0  0  3  0  0  0  0  0  0
  -29.1430  -21.5440   20.2000 N   0  0  1  0  0  4  0  0  0  0  0  0
  -29.7000  -21.7290   19.3740 H   0  0  0  0  0  0  0  0  0  0  0  0
  -30.4360  -15.2140   20.2770 C   0  0  0  0  0  0  0  0  0  0  0  0
  -30.4010  -12.7930   19.3720 C   0  0  0  0  0  2  0  0  0  0  0  0
  -29.4660  -12.6360   18.1460 C   0  0  0  0  0  2  0  0  0  0  0  0
  -28.0210  -12.3660   18.6090 C   0  0  0  0  0  2  0  0  0  0  0  0
  -27.5830  -13.3360   19.7360 C   0  0  0  0  0  3  0  0  0  0  0  0
  -28.6410  -13.4250   20.8590 C   0  0  0  0  0  2  0  0  0  0  0  0
  -29.8800  -13.9150   20.2280 N   0  0  0  0  0  0  0  0  0  0  0  0
  -31.6460  -15.2680   20.0270 O   0  0  0  0  0  0  0  0  0  0  0  0
  -29.6000  -16.4080   20.4150 N   0  0  0  0  0  0  0  0  0  0  0  0
  -28.6760  -16.0330   20.5670 H   0  0  0  0  0  0  0  0  0  0  0  0
  -25.1970  -13.9060   20.4680 C   0  0  0  0  0  0  0  0  0  0  0  0
  -24.1370  -13.1320   20.8400 C   0  0  0  0  0  0  0  0  0  0  0  0
  -24.6030  -11.7780   20.8170 C   0  0  0  0  0  0  0  0  0  0  0  0
  -26.2470  -13.0310   20.2370 N   0  0  0  0  0  0  0  0  0  0  0  0
  -25.8990  -11.7460   20.5160 N   0  0  0  0  0  0  0  0  0  0  0  0
  -23.8790  -10.5160   21.0110 C   0  0  0  0  0  0  0  0  0  0  0  0
  -24.3130   -9.5540   21.9510 C   0  0  0  0  0  3  0  0  0  0  0  0
  -23.5890   -8.3560   22.1340 C   0  0  0  0  0  3  0  0  0  0  0  0
  -22.4200   -8.1100   21.3790 C   0  0  0  0  0  0  0  0  0  0  0  0
  -22.0020   -9.0600   20.4300 C   0  0  0  0  0  3  0  0  0  0  0  0
  -22.7250  -10.2500   20.2450 C   0  0  0  0  0  3  0  0  0  0  0  0
  -21.6710   -6.9600   21.4690 O   0  0  0  0  0  0  0  0  0  0  0  0
  -21.6260   -6.2210   22.6240 C   0  0  0  0  0  0  0  0  0  0  0  0
  -21.1950   -6.7780   23.8480 C   0  0  0  0  0  3  0  0  0  0  0  0
  -21.0980   -5.9660   24.9950 C   0  0  0  0  0  3  0  0  0  0  0  0
  -21.4210   -4.5970   24.9200 C   0  0  0  0  0  0  0  0  0  0  0  0
  -21.8440   -4.0390   23.6990 C   0  0  0  0  0  3  0  0  0  0  0  0
  -21.9420   -4.8490   22.5550 C   0  0  0  0  0  0  0  0  0  0  0  0
  -22.3310   -4.3030   21.3780 F   0  0  0  0  0  0  0  0  0  0  0  0
  -21.3200   -3.8150   26.0190 F   0  0  0  0  0  0  0  0  0  0  0  0
  -22.7350  -13.6010   21.1050 C   0  0  0  0  0  0  0  0  0  0  0  0
  -22.0090  -12.9080   21.9680 N   0  0  0  0  0  0  0  0  0  0  0  0
  -22.2960  -14.6240   20.5750 O   0  0  0  0  0  0  0  0  0  0  0  0
  -22.3780  -12.0790   22.4140 H   0  0  0  0  0  0  0  0  0  0  0  0
  -21.0720  -13.2090   22.1940 H   0  0  0  0  0  0  0  0  0  0  0  0
  -25.3590  -15.2770   20.2760 N   0  0  0  0  0  0  0  0  0  0  0  0
  -24.5800  -15.9260   20.3700 H   0  0  0  0  0  0  0  0  0  0  0  0
  -26.1730  -15.6910   19.8440 H   0  0  0  0  0  0  0  0  0  0  0  0
  -28.6640  -23.0240   20.7570 C   0  0  0  0  0  2  0  0  0  0  0  0
  -28.2830  -24.5010   19.9140 C   0  0  0  0  0  2  0  0  0  0  0  0
  -28.2590  -26.0460   20.3910 O   0  0  0  0  0  0  0  0  0  0  0  0
  -24.6190  -31.8780   23.2640 C   0  0  0  0  0  0  0  0  0  0  0  0
  -27.2130  -27.0730   20.2620 C   0  0  0  0  0  0  0  0  0  0  0  0
  -23.4290  -30.4760   21.6160 C   0  0  0  0  0  3  0  0  0  0  0  0
  -24.8930  -28.8870   20.2020 C   0  0  0  0  0  0  0  0  0  0  0  0
  -26.0050  -30.7060   21.4950 C   0  0  0  0  0  2  0  0  0  0  0  0
  -26.0740  -29.3200   20.8150 C   0  0  0  0  0  0  0  0  0  0  0  0
  -27.2340  -28.4380   20.8090 C   0  0  0  0  0  3  0  0  0  0  0  0
  -25.9950  -26.7590   19.6240 C   0  0  0  0  0  3  0  0  0  0  0  0
  -24.8750  -27.6260   19.5830 C   0  0  0  0  0  3  0  0  0  0  0  0
  -23.6620  -29.7830   20.2450 C   0  0  0  0  0  2  0  0  0  0  0  0
  -24.7020  -31.0520   22.1710 N   0  0  0  0  0  0  0  0  0  0  0  0
  -23.5300  -32.1690   23.7820 O   0  0  0  0  0  0  0  0  0  0  0  0
  -22.7430  -29.4810   22.5840 C   0  0  0  0  0  0  0  0  0  0  0  0
  -21.4160  -29.3080   22.4490 N   0  0  0  0  0  0  0  0  0  0  0  0
  -23.4070  -28.8660   23.4220 O   0  0  0  0  0  0  0  0  0  0  0  0
  -20.9500  -29.8460   21.7320 H   0  0  0  0  0  0  0  0  0  0  0  0
  -18.0170  -28.1240   22.9470 C   0  0  0  0  0  0  0  0  0  0  0  0
  -20.5780  -28.3780   23.2130 C   0  0  0  0  0  3  0  0  0  0  0  0
  -20.6650  -26.9440   22.6390 C   0  0  0  0  0  2  0  0  0  0  0  0
  -19.5670  -26.6350   21.6170 C   0  0  0  0  0  2  0  0  0  0  0  0
  -18.1860  -26.7770   22.2640 C   0  0  0  0  0  2  0  0  0  0  0  0
  -19.1390  -28.8880   23.3720 C   0  0  0  0  0  0  0  0  0  0  0  0
  -18.9210  -30.1480   23.9660 C   0  0  0  0  0  3  0  0  0  0  0  0
  -17.6150  -30.6500   24.1330 C   0  0  0  0  0  3  0  0  0  0  0  0
  -16.5100  -29.8830   23.7240 C   0  0  0  0  0  3  0  0  0  0  0  0
  -16.7120  -28.6190   23.1420 C   0  0  0  0  0  3  0  0  0  0  0  0
  -25.8920  -32.5100   23.9040 C   0  0  0  0  0  3  0  0  0  0  0  0
  -25.5790  -33.9160   24.2150 N   0  0  0  0  0  0  0  0  0  0  0  0
  -25.9130  -34.9660   23.4500 C   0  0  0  0  0  0  0  0  0  0  0  0
  -26.5890  -34.8540   22.4240 O   0  0  0  0  0  0  0  0  0  0  0  0
  -24.9700  -34.0740   25.0030 H   0  0  0  0  0  0  0  0  0  0  0  0
  -24.1830  -36.7540   23.0740 C   0  0  0  0  0  1  0  0  0  0  0  0
  -25.4220  -36.3590   23.8930 C   0  0  0  0  0  3  0  0  0  0  0  0
  -27.5550  -37.2570   24.7170 C   0  0  0  0  0  1  0  0  0  0  0  0
  -26.4530  -37.4150   23.7710 N   0  0  0  0  0  0  0  0  0  0  0  0
  -26.0420  -38.3350   23.9120 H   0  0  0  0  0  0  0  0  0  0  0  0
  -26.3880  -31.7550   25.2050 C   0  0  1  0  0  0  0  0  0  0  0  0
  -25.2980  -31.5220   26.2760 C   0  0  0  0  0  1  0  0  0  0  0  0
  -26.9740  -30.3620   24.8700 C   0  0  0  0  0  1  0  0  0  0  0  0
  -27.5340  -32.5600   25.8620 C   0  0  0  0  0  1  0  0  0  0  0  0
  1  3  1  0
  2  4  1  0
  2  5  1  0
  4  6  1  0
  5 16  1  0
  5  1  1  0
  6 46  1  0
  6  3  1  0
  6  7  1  6
  8 16  1  0
  9 14  1  0
 10 11  1  0
 10  9  1  0
 12 11  1  0
 12 21  1  0
 12 13  1  0
 14  8  1  0
 14 13  1  0
 15  8  2  0
 16 17  1  0
 18 19  2  0
 19 38  1  0
 20 19  1  0
 20 23  1  0
 21 18  1  0
 21 22  1  0
 22 20  2  0
 23 24  1  0
 24 25  2  0
 26 29  1  0
 26 25  1  0
 27 26  2  0
 28 27  1  0
 28 23  2  0
 29 30  1  0
 30 31  1  0
 31 32  2  0
 33 32  1  0
 33 37  1  0
 34 33  2  0
 35 30  2  0
 35 34  1  0
 36 35  1  0
 38 39  1  0
 39 42  1  0
 39 41  1  0
 40 38  2  0
 43 44  1  0
 43 18  1  0
 45 43  1  0
 47 48  1  0
 47 46  1  0
 49 60  2  0
 50 48  1  0
 50 55  1  0
 51 59  1  0
 51 61  1  0
 52 58  1  0
 52 54  1  0
 53 59  1  0
 54 53  1  0
 55 54  2  0
 56 50  2  0
 57 56  1  0
 57 52  2  0
 58 51  1  0
 59 49  1  0
 61 63  2  0
 62 61  1  0
 64 62  1  0
 65 74  2  0
 65 70  1  0
 66 62  1  0
 66 70  1  0
 67 66  1  0
 68 69  1  0
 68 67  1  0
 69 65  1  0
 70 71  2  0
 71 72  1  0
 73 72  2  0
 74 73  1  0
 75 49  1  0
 75 76  1  0
 75 85  1  0
 76 79  1  0
 77 81  1  0
 77 76  1  0
 78 77  2  0
 81 80  1  0
 83 81  1  0
 83 84  1  0
 83 82  1  0
 85 88  1  1
 85 86  1  0
 87 85  1  0
M  ISO  4   8 100  16 100  47 101  48 101
M  END
>  <TORSDO>  (62) 
F 18

>  <SCORE>  (62) 
-15.423

>  <name>  (62) 
61

>  <ligand_id>  (62) 
61

>  <original_smiles>  (62) 
[H]c1c([H])c([H])c2c(c1[H])C([H])([H])C([H])([H])C([H])([H])C2([H])N([H])C(=O)C1([H])N(C(=O)C([H])(N([H])C(=O)C([H])(N([H])C([H])([H])[H])C([H])([H])[H])C(C([H])([H])[H])(C([H])([H])[H])C([H])([H])[H])C([H])([H])c2c([H])c(OC([H])([H])C([H])([H])[N+]3([H])C([H])([H])C([H])([H])C([H])(N([H])C(=O)N4C([H])([H])C([H])([H])C([H])([H])C([H])(n5nc(-c6c([H])c([H])c(Oc7c([H])c([H])c(F)c([H])c7F)c([H])c6[H])c(C(=O)N([H])[H])c5N([H])[H])C4([H])[H])C([H])([H])C3([H])[H])c([H])c([H])c2C1([H])[H]

>  <smiles>  (62) 
[H]c1c([H])c([H])c2c(c1[H])C([H])([H])C([H])([H])C([H])([H])C2([H])N([H])C(=O)C1([H])N(C(=O)C([H])(N([H])C(=O)C([H])(N([H])C([H])([H])[H])C([H])([H])[H])C(C([H])([H])[H])(C([H])([H])[H])C([H])([H])[H])C([H])([H])c2c([H])c(OC([H])([H])C([H])([H])[N+]3([H])C([H])([H])C([H])([H])C([H])(N([H])C(=O)N4C([H])([H])C([H])([H])C([H])([H])C([H])(n5nc(-c6c([H])c([H])c(Oc7c([H])c([H])c(F)c([H])c7F)c([H])c6[H])c(C(=O)N([H])[H])c5N([H])[H])C4([H])[H])C([H])([H])C3([H])[H])c([H])c([H])c2C1([H])[H]

$$$$
62:0:0
     RDKit          3D

 94103  0  0  1  0  0  0  0  0999 V2000
  -28.6140  -24.9520   18.3900 C   0  0  0  0  0  2  0  0  0  0  0  0
  -29.3310  -24.3910   20.6820 C   0  0  0  0  0  2  0  0  0  0  0  0
  -28.3920  -23.4590   18.0830 C   0  0  0  0  0  2  0  0  0  0  0  0
  -29.1080  -22.8800   20.4010 C   0  0  0  0  0  2  0  0  0  0  0  0
  -28.3340  -25.2310   19.8720 C   0  0  0  0  0  3  0  0  0  0  0  0
  -29.1810  -22.5320   18.9500 N   0  0  1  0  0  4  0  0  0  0  0  0
  -30.1490  -22.6240   18.6780 H   0  0  0  0  0  0  0  0  0  0  0  0
  -28.4100  -26.6400   20.1530 O   0  0  0  0  0  0  0  0  0  0  0  0
  -24.6210  -31.8390   23.2060 C   0  0  0  0  0  0  0  0  0  0  0  0
  -27.2330  -27.3730   20.1170 C   0  0  0  0  0  0  0  0  0  0  0  0
  -23.4010  -30.4390   21.5760 C   0  0  0  0  0  3  0  0  0  0  0  0
  -24.8400  -28.8980   20.1440 C   0  0  0  0  0  0  0  0  0  0  0  0
  -25.9290  -30.7870   21.3620 C   0  0  0  0  0  2  0  0  0  0  0  0
  -26.0050  -29.4150   20.7240 C   0  0  0  0  0  0  0  0  0  0  0  0
  -27.2030  -28.6590   20.7080 C   0  0  0  0  0  3  0  0  0  0  0  0
  -26.0440  -26.8860   19.5190 C   0  0  0  0  0  3  0  0  0  0  0  0
  -24.8540  -27.6330   19.5400 C   0  0  0  0  0  3  0  0  0  0  0  0
  -23.6000  -29.7600   20.1960 C   0  0  0  0  0  2  0  0  0  0  0  0
  -24.6710  -31.0360   22.1060 N   0  0  0  0  0  0  0  0  0  0  0  0
  -23.5440  -32.1160   23.7520 O   0  0  0  0  0  0  0  0  0  0  0  0
  -22.7530  -29.4190   22.5400 C   0  0  0  0  0  0  0  0  0  0  0  0
  -21.4260  -29.2520   22.4290 N   0  0  0  0  0  0  0  0  0  0  0  0
  -23.4400  -28.7830   23.3430 O   0  0  0  0  0  0  0  0  0  0  0  0
  -20.9330  -29.8150   21.7500 H   0  0  0  0  0  0  0  0  0  0  0  0
  -18.0450  -28.0920   22.9610 C   0  0  0  0  0  0  0  0  0  0  0  0
  -20.6080  -28.3220   23.2070 C   0  0  0  0  0  3  0  0  0  0  0  0
  -20.6890  -26.8900   22.6290 C   0  0  0  0  0  2  0  0  0  0  0  0
  -19.5730  -26.5800   21.6250 C   0  0  0  0  0  2  0  0  0  0  0  0
  -18.2000  -26.7410   22.2830 C   0  0  0  0  0  2  0  0  0  0  0  0
  -19.1760  -28.8410   23.3810 C   0  0  0  0  0  0  0  0  0  0  0  0
  -18.9770  -30.1070   23.9740 C   0  0  0  0  0  3  0  0  0  0  0  0
  -17.6810  -30.6230   24.1510 C   0  0  0  0  0  3  0  0  0  0  0  0
  -16.5640  -29.8710   23.7500 C   0  0  0  0  0  3  0  0  0  0  0  0
  -16.7470  -28.6070   23.1600 C   0  0  0  0  0  3  0  0  0  0  0  0
  -25.9130  -32.4670   23.8160 C   0  0  0  0  0  3  0  0  0  0  0  0
  -26.4490  -31.6840   25.0770 C   0  0  1  0  0  0  0  0  0  0  0  0
  -25.3710  -31.4330   26.1570 C   0  0  0  0  0  1  0  0  0  0  0  0
  -27.0270  -30.3110   24.6600 C   0  0  0  0  0  1  0  0  0  0  0  0
  -27.6060  -32.4720   25.7320 C   0  0  0  0  0  1  0  0  0  0  0  0
  -25.6070  -33.8610   24.1610 N   0  0  0  0  0  0  0  0  0  0  0  0
  -25.9210  -34.9190   23.4020 C   0  0  0  0  0  0  0  0  0  0  0  0
  -26.5730  -34.8240   22.3580 O   0  0  0  0  0  0  0  0  0  0  0  0
  -25.0250  -34.0080   24.9730 H   0  0  0  0  0  0  0  0  0  0  0  0
  -24.1750  -36.7010   23.0910 C   0  0  0  0  0  1  0  0  0  0  0  0
  -25.4340  -36.3010   23.8750 C   0  0  0  0  0  3  0  0  0  0  0  0
  -27.5830  -37.1930   24.6620 C   0  0  0  0  0  1  0  0  0  0  0  0
  -26.4570  -37.3610   23.7450 N   0  0  0  0  0  0  0  0  0  0  0  0
  -26.0490  -38.2770   23.9110 H   0  0  0  0  0  0  0  0  0  0  0  0
  -28.7920  -21.1250   18.6300 C   0  0  0  0  0  2  0  0  0  0  0  0
  -29.1950  -18.2120   21.1100 C   0  0  0  0  0  3  0  0  0  0  0  0
  -31.2320  -18.3730   19.7880 C   0  0  0  0  0  3  0  0  0  0  0  0
  -28.6830  -19.3510   20.4540 C   0  0  0  0  0  3  0  0  0  0  0  0
  -30.7170  -19.5090   19.1270 C   0  0  0  0  0  3  0  0  0  0  0  0
  -30.4700  -17.7110   20.7760 C   0  0  0  0  0  0  0  0  0  0  0  0
  -29.4320  -20.0000   19.4480 C   0  0  0  0  0  0  0  0  0  0  0  0
  -31.0210  -16.4810   21.4890 C   0  0  0  0  0  2  0  0  0  0  0  0
  -30.8260  -14.3350   20.2280 C   0  0  0  0  0  0  0  0  0  0  0  0
  -30.3730  -12.2390   19.0020 C   0  0  0  0  0  2  0  0  0  0  0  0
  -29.3880  -12.4900   17.8440 C   0  0  0  0  0  2  0  0  0  0  0  0
  -27.9330  -12.3830   18.3360 C   0  0  0  0  0  2  0  0  0  0  0  0
  -27.6740  -13.2140   19.6200 C   0  0  0  0  0  3  0  0  0  0  0  0
  -28.7640  -12.9430   20.6810 C   0  0  0  0  0  2  0  0  0  0  0  0
  -30.0790  -13.2090   20.0700 N   0  0  0  0  0  0  0  0  0  0  0  0
  -31.8640  -14.5460   19.5930 O   0  0  0  0  0  0  0  0  0  0  0  0
  -30.3620  -15.2270   21.1140 N   0  0  0  0  0  0  0  0  0  0  0  0
  -29.5080  -14.9910   21.5970 H   0  0  0  0  0  0  0  0  0  0  0  0
  -25.3190  -13.8790   20.4230 C   0  0  0  0  0  0  0  0  0  0  0  0
  -24.2450  -13.1320   20.8300 C   0  0  0  0  0  0  0  0  0  0  0  0
  -24.6690  -11.7690   20.7730 C   0  0  0  0  0  0  0  0  0  0  0  0
  -26.3310  -12.9730   20.1480 N   0  0  0  0  0  0  0  0  0  0  0  0
  -25.9440  -11.6980   20.4120 N   0  0  0  0  0  0  0  0  0  0  0  0
  -23.9180  -10.5250   20.9840 C   0  0  0  0  0  0  0  0  0  0  0  0
  -24.3630   -9.5390   21.8920 C   0  0  0  0  0  3  0  0  0  0  0  0
  -23.6140   -8.3590   22.0930 C   0  0  0  0  0  3  0  0  0  0  0  0
  -22.4050   -8.1570   21.3840 C   0  0  0  0  0  0  0  0  0  0  0  0
  -21.9790   -9.1320   20.4640 C   0  0  0  0  0  3  0  0  0  0  0  0
  -22.7290  -10.3030   20.2630 C   0  0  0  0  0  3  0  0  0  0  0  0
  -21.6260   -7.0320   21.4950 O   0  0  0  0  0  0  0  0  0  0  0  0
  -21.6050   -6.2810   22.6430 C   0  0  0  0  0  0  0  0  0  0  0  0
  -21.2590   -6.8390   23.8930 C   0  0  0  0  0  3  0  0  0  0  0  0
  -21.1830   -6.0160   25.0350 C   0  0  0  0  0  3  0  0  0  0  0  0
  -21.4420   -4.6370   24.9270 C   0  0  0  0  0  0  0  0  0  0  0  0
  -21.7800   -4.0780   23.6820 C   0  0  0  0  0  3  0  0  0  0  0  0
  -21.8580   -4.8970   22.5430 C   0  0  0  0  0  0  0  0  0  0  0  0
  -22.1640   -4.3510   21.3420 F   0  0  0  0  0  0  0  0  0  0  0  0
  -21.3600   -3.8440   26.0220 F   0  0  0  0  0  0  0  0  0  0  0  0
  -22.8740  -13.6440   21.1630 C   0  0  0  0  0  0  0  0  0  0  0  0
  -22.1650  -12.9610   22.0550 N   0  0  0  0  0  0  0  0  0  0  0  0
  -22.4410  -14.6830   20.6670 O   0  0  0  0  0  0  0  0  0  0  0  0
  -22.5290  -12.1200   22.4770 H   0  0  0  0  0  0  0  0  0  0  0  0
  -21.2450  -13.2840   22.3190 H   0  0  0  0  0  0  0  0  0  0  0  0
  -25.5130  -15.2460   20.2460 N   0  0  0  0  0  0  0  0  0  0  0  0
  -24.7680  -15.9200   20.3840 H   0  0  0  0  0  0  0  0  0  0  0  0
  -26.3650  -15.6620   19.8910 H   0  0  0  0  0  0  0  0  0  0  0  0
  1  5  1  0
  3  1  1  0
  3  6  1  0
  4  2  1  0
  5  8  1  0
  5  2  1  0
  6  4  1  0
  6  7  1  6
  9 20  2  0
 10  8  1  0
 10 15  1  0
 11 19  1  0
 11 21  1  0
 12 18  1  0
 12 14  1  0
 13 19  1  0
 14 13  1  0
 15 14  2  0
 16 17  1  0
 16 10  2  0
 17 12  2  0
 18 11  1  0
 19  9  1  0
 21 23  2  0
 22 21  1  0
 24 22  1  0
 25 34  2  0
 25 30  1  0
 26 22  1  0
 26 30  1  0
 27 26  1  0
 28 29  1  0
 28 27  1  0
 29 25  1  0
 30 31  2  0
 31 32  1  0
 33 32  2  0
 34 33  1  0
 35  9  1  0
 35 40  1  0
 35 36  1  0
 36 39  1  1
 36 37  1  0
 38 36  1  0
 40 43  1  0
 41 45  1  0
 41 40  1  0
 42 41  2  0
 45 44  1  0
 47 45  1  0
 47 48  1  0
 47 46  1  0
 49  6  1  0
 49 55  1  0
 51 54  2  0
 52 50  2  0
 53 55  2  0
 53 51  1  0
 54 50  1  0
 54 56  1  0
 55 52  1  0
 57 65  1  0
 58 63  1  0
 59 60  1  0
 59 58  1  0
 61 60  1  0
 61 70  1  0
 61 62  1  0
 63 57  1  0
 63 62  1  0
 64 57  2  0
 65 56  1  0
 65 66  1  0
 67 68  2  0
 68 87  1  0
 69 68  1  0
 69 72  1  0
 70 71  1  0
 70 67  1  0
 71 69  2  0
 72 73  1  0
 73 74  2  0
 75 78  1  0
 75 74  1  0
 76 75  2  0
 77 76  1  0
 77 72  2  0
 78 79  1  0
 79 80  1  0
 80 81  2  0
 82 81  1  0
 82 86  1  0
 83 82  2  0
 84 79  2  0
 84 83  1  0
 85 84  1  0
 87 88  1  0
 88 91  1  0
 88 90  1  0
 89 87  2  0
 92 93  1  0
 92 67  1  0
 94 92  1  0
M  ISO  4   5 101   8 101  57 100  65 100
M  END
>  <TORSDO>  (63) 
F 19

>  <SCORE>  (63) 
-14.145

>  <name>  (63) 
62

>  <ligand_id>  (63) 
62

>  <original_smiles>  (63) 
[H]c1c([H])c([H])c2c(c1[H])C([H])([H])C([H])([H])C([H])([H])C2([H])N([H])C(=O)C1([H])N(C(=O)C([H])(N([H])C(=O)C([H])(N([H])C([H])([H])[H])C([H])([H])[H])C(C([H])([H])[H])(C([H])([H])[H])C([H])([H])[H])C([H])([H])c2c([H])c(OC3([H])C([H])([H])C([H])([H])[N+]([H])(C([H])([H])c4c([H])c([H])c(C([H])([H])N([H])C(=O)N5C([H])([H])C([H])([H])C([H])([H])C([H])(n6nc(-c7c([H])c([H])c(Oc8c([H])c([H])c(F)c([H])c8F)c([H])c7[H])c(C(=O)N([H])[H])c6N([H])[H])C5([H])[H])c([H])c4[H])C([H])([H])C3([H])[H])c([H])c([H])c2C1([H])[H]

>  <smiles>  (63) 
[H]c1c([H])c([H])c2c(c1[H])C([H])([H])C([H])([H])C([H])([H])C2([H])N([H])C(=O)C1([H])N(C(=O)C([H])(N([H])C(=O)C([H])(N([H])C([H])([H])[H])C([H])([H])[H])C(C([H])([H])[H])(C([H])([H])[H])C([H])([H])[H])C([H])([H])c2c([H])c(OC3([H])C([H])([H])C([H])([H])[N+]([H])(C([H])([H])c4c([H])c([H])c(C([H])([H])N([H])C(=O)N5C([H])([H])C([H])([H])C([H])([H])C([H])(n6nc(-c7c([H])c([H])c(Oc8c([H])c([H])c(F)c([H])c8F)c([H])c7[H])c(C(=O)N([H])[H])c6N([H])[H])C5([H])[H])c([H])c4[H])C([H])([H])C3([H])[H])c([H])c([H])c2C1([H])[H]

$$$$
63:0:0
     RDKit          3D

 91 99  0  0  1  0  0  0  0  0999 V2000
  -30.2060  -19.1150   19.1810 C   0  0  0  0  0  3  0  0  0  0  0  0
  -30.5160  -17.7440   19.4380 C   0  0  0  0  0  3  0  0  0  0  0  0
  -28.0020  -18.8110   20.0710 C   0  0  0  0  0  3  0  0  0  0  0  0
  -28.3040  -17.4450   20.3600 C   0  0  0  0  0  0  0  0  0  0  0  0
  -28.9420  -19.6880   19.4770 C   0  0  0  0  0  0  0  0  0  0  0  0
  -29.5740  -16.8570   20.0310 C   0  0  0  0  0  0  0  0  0  0  0  0
  -30.5500  -14.4620   19.5950 C   0  0  0  0  0  0  0  0  0  0  0  0
  -30.3240  -12.2300   18.5120 C   0  0  0  0  0  2  0  0  0  0  0  0
  -29.2630  -12.3330   17.3910 C   0  0  0  0  0  2  0  0  0  0  0  0
  -27.8350  -12.1610   17.9490 C   0  0  0  0  0  2  0  0  0  0  0  0
  -27.5860  -13.0210   19.2150 C   0  0  0  0  0  3  0  0  0  0  0  0
  -28.7320  -12.8370   20.2340 C   0  0  0  0  0  2  0  0  0  0  0  0
  -29.9850  -13.2150   19.5600 N   0  0  0  0  0  0  0  0  0  0  0  0
  -31.6180  -14.6960   19.0160 O   0  0  0  0  0  0  0  0  0  0  0  0
  -29.8180  -15.4200   20.2490 N   0  0  0  0  0  0  0  0  0  0  0  0
  -29.1520  -14.9910   20.8700 H   0  0  0  0  0  0  0  0  0  0  0  0
  -25.2500  -13.6280   20.0980 C   0  0  0  0  0  0  0  0  0  0  0  0
  -24.2320  -12.8590   20.5920 C   0  0  0  0  0  0  0  0  0  0  0  0
  -24.7070  -11.5120   20.5640 C   0  0  0  0  0  0  0  0  0  0  0  0
  -26.2830  -12.7490   19.8120 N   0  0  0  0  0  0  0  0  0  0  0  0
  -25.9640  -11.4730   20.1430 N   0  0  0  0  0  0  0  0  0  0  0  0
  -24.0170  -10.2490   20.8500 C   0  0  0  0  0  0  0  0  0  0  0  0
  -24.4810   -9.3650   21.8490 C   0  0  0  0  0  3  0  0  0  0  0  0
  -23.7890   -8.1650   22.1210 C   0  0  0  0  0  3  0  0  0  0  0  0
  -22.6200   -7.8390   21.3910 C   0  0  0  0  0  0  0  0  0  0  0  0
  -22.1780   -8.7110   20.3800 C   0  0  0  0  0  3  0  0  0  0  0  0
  -22.8710   -9.9020   20.1070 C   0  0  0  0  0  3  0  0  0  0  0  0
  -21.8970   -6.6850   21.5690 O   0  0  0  0  0  0  0  0  0  0  0  0
  -21.7990   -6.0770   22.7950 C   0  0  0  0  0  0  0  0  0  0  0  0
  -21.2720   -6.7480   23.9210 C   0  0  0  0  0  3  0  0  0  0  0  0
  -21.1250   -6.0630   25.1430 C   0  0  0  0  0  3  0  0  0  0  0  0
  -21.4970   -4.7080   25.2400 C   0  0  0  0  0  0  0  0  0  0  0  0
  -22.0170   -4.0370   24.1200 C   0  0  0  0  0  3  0  0  0  0  0  0
  -22.1660   -4.7210   22.9000 C   0  0  0  0  0  0  0  0  0  0  0  0
  -22.6470   -4.0640   21.8170 F   0  0  0  0  0  0  0  0  0  0  0  0
  -21.3500   -4.0470   26.4110 F   0  0  0  0  0  0  0  0  0  0  0  0
  -22.8590  -13.3310   20.9730 C   0  0  0  0  0  0  0  0  0  0  0  0
  -22.2260  -12.6700   21.9350 N   0  0  0  0  0  0  0  0  0  0  0  0
  -22.3560  -14.3220   20.4460 O   0  0  0  0  0  0  0  0  0  0  0  0
  -22.6410  -11.8620   22.3760 H   0  0  0  0  0  0  0  0  0  0  0  0
  -21.3090  -12.9740   22.2340 H   0  0  0  0  0  0  0  0  0  0  0  0
  -25.3750  -14.9920   19.8360 N   0  0  0  0  0  0  0  0  0  0  0  0
  -24.5730  -15.6100   19.9030 H   0  0  0  0  0  0  0  0  0  0  0  0
  -26.0980  -15.3630   19.2330 H   0  0  0  0  0  0  0  0  0  0  0  0
  -27.2440  -16.6670   21.0010 C   0  0  0  0  0  0  0  0  0  0  0  0
  -26.4020  -16.0560   21.5150 N   0  0  0  0  0  0  0  0  0  0  0  0
  -28.5640  -21.1410   19.0010 C   0  0  0  0  0  2  0  0  0  0  0  0
  -28.4480  -22.2360   19.9740 O   0  0  0  0  0  0  0  0  0  0  0  0
  -28.6860  -23.6150   19.4930 C   0  0  0  0  0  3  0  0  0  0  0  0
  -27.6870  -24.7860   19.9030 C   0  0  0  0  0  3  0  0  0  0  0  0
  -28.0180  -26.1890   19.5180 O   0  0  0  0  0  0  0  0  0  0  0  0
  -24.5810  -31.5540   22.8900 C   0  0  0  0  0  0  0  0  0  0  0  0
  -26.9630  -27.1100   19.5280 C   0  0  0  0  0  0  0  0  0  0  0  0
  -23.3000  -30.2860   21.2060 C   0  0  0  0  0  3  0  0  0  0  0  0
  -24.6720  -28.8030   19.6430 C   0  0  0  0  0  0  0  0  0  0  0  0
  -25.8410  -30.5560   20.9690 C   0  0  0  0  0  2  0  0  0  0  0  0
  -25.8650  -29.2150   20.2500 C   0  0  0  0  0  0  0  0  0  0  0  0
  -27.0190  -28.3780   20.1860 C   0  0  0  0  0  3  0  0  0  0  0  0
  -25.7650  -26.7720   18.8690 C   0  0  0  0  0  3  0  0  0  0  0  0
  -24.6240  -27.5950   18.9390 C   0  0  0  0  0  3  0  0  0  0  0  0
  -23.4560  -29.6980   19.7810 C   0  0  0  0  0  2  0  0  0  0  0  0
  -24.5950  -30.8110   21.7470 N   0  0  0  0  0  0  0  0  0  0  0  0
  -23.5200  -31.8190   23.4710 O   0  0  0  0  0  0  0  0  0  0  0  0
  -22.6440  -29.2200   22.1200 C   0  0  0  0  0  0  0  0  0  0  0  0
  -21.3070  -29.1070   22.0530 N   0  0  0  0  0  0  0  0  0  0  0  0
  -23.3360  -28.5050   22.8500 O   0  0  0  0  0  0  0  0  0  0  0  0
  -20.8070  -29.7270   21.4280 H   0  0  0  0  0  0  0  0  0  0  0  0
  -17.9050  -28.0610   22.6910 C   0  0  0  0  0  0  0  0  0  0  0  0
  -20.4870  -28.1490   22.7990 C   0  0  0  0  0  3  0  0  0  0  0  0
  -20.4640  -26.7720   22.0980 C   0  0  0  0  0  2  0  0  0  0  0  0
  -19.2780  -26.6050   21.1430 C   0  0  0  0  0  2  0  0  0  0  0  0
  -17.9530  -26.7720   21.8930 C   0  0  0  0  0  2  0  0  0  0  0  0
  -19.0930  -28.7170   23.1080 C   0  0  0  0  0  0  0  0  0  0  0  0
  -18.9930  -29.9340   23.8180 C   0  0  0  0  0  3  0  0  0  0  0  0
  -17.7330  -30.4880   24.1190 C   0  0  0  0  0  3  0  0  0  0  0  0
  -16.5600  -29.8260   23.7210 C   0  0  0  0  0  3  0  0  0  0  0  0
  -16.6460  -28.6160   23.0100 C   0  0  0  0  0  3  0  0  0  0  0  0
  -25.8940  -32.1230   23.5100 C   0  0  0  0  0  3  0  0  0  0  0  0
  -25.6040  -33.4780   24.0000 N   0  0  0  0  0  0  0  0  0  0  0  0
  -25.9020  -34.6050   23.3400 C   0  0  0  0  0  0  0  0  0  0  0  0
  -26.5230  -34.6110   22.2730 O   0  0  0  0  0  0  0  0  0  0  0  0
  -25.0660  -33.5500   24.8520 H   0  0  0  0  0  0  0  0  0  0  0  0
  -24.1710  -36.4210   23.2520 C   0  0  0  0  0  1  0  0  0  0  0  0
  -25.4440  -35.9360   23.9630 C   0  0  0  0  0  3  0  0  0  0  0  0
  -27.6150  -36.7300   24.7890 C   0  0  0  0  0  1  0  0  0  0  0  0
  -26.4750  -36.9950   23.9120 N   0  0  0  0  0  0  0  0  0  0  0  0
  -26.0800  -37.8950   24.1730 H   0  0  0  0  0  0  0  0  0  0  0  0
  -26.4690  -31.2250   24.6730 C   0  0  1  0  0  0  0  0  0  0  0  0
  -25.4270  -30.8780   25.7620 C   0  0  0  0  0  1  0  0  0  0  0  0
  -27.0310  -29.8980   24.1110 C   0  0  0  0  0  1  0  0  0  0  0  0
  -27.6530  -31.9500   25.3590 C   0  0  0  0  0  1  0  0  0  0  0  0
  1  2  2  0
  1  5  1  0
  2  6  1  0
  3  4  1  0
  4 45  1  0
  5  3  2  0
  6 15  1  0
  6  4  2  0
  7 15  1  0
  8 13  1  0
  9 10  1  0
  9  8  1  0
 11 10  1  0
 11 20  1  0
 11 12  1  0
 13  7  1  0
 13 12  1  0
 14  7  2  0
 15 16  1  0
 17 18  2  0
 18 37  1  0
 19 18  1  0
 19 22  1  0
 20 17  1  0
 20 21  1  0
 21 19  2  0
 22 23  1  0
 23 24  2  0
 25 28  1  0
 25 24  1  0
 26 25  2  0
 27 26  1  0
 27 22  2  0
 28 29  1  0
 29 34  2  0
 29 30  1  0
 30 31  2  0
 31 32  1  0
 32 36  1  0
 33 32  2  0
 34 33  1  0
 35 34  1  0
 37 38  1  0
 38 41  1  0
 38 40  1  0
 39 37  2  0
 42 43  1  0
 42 17  1  0
 44 42  1  0
 45 46  3  0
 47  5  1  0
 47 48  1  0
 49 50  2  0
 49 48  1  0
 51 53  1  0
 51 50  1  0
 52 63  2  0
 53 58  1  0
 54 62  1  0
 54 64  1  0
 55 61  1  0
 55 57  1  0
 56 62  1  0
 57 56  1  0
 58 57  2  0
 59 60  1  0
 59 53  2  0
 60 55  2  0
 61 54  1  0
 62 52  1  0
 64 66  2  0
 65 64  1  0
 67 65  1  0
 68 77  2  0
 68 73  1  0
 69 65  1  0
 69 73  1  0
 70 69  1  0
 71 72  1  0
 71 70  1  0
 72 68  1  0
 73 74  2  0
 74 75  1  0
 76 75  2  0
 77 76  1  0
 78 52  1  0
 78 79  1  0
 78 88  1  0
 79 82  1  0
 80 84  1  0
 80 79  1  0
 81 80  2  0
 84 83  1  0
 86 84  1  0
 86 87  1  0
 86 85  1  0
 88 91  1  1
 88 89  1  0
 90 88  1  0
M  ISO  4   7 100  15 100  50 101  51 101
M  END
>  <TORSDO>  (64) 
F 21

>  <SCORE>  (64) 
-9.879

>  <name>  (64) 
63

>  <ligand_id>  (64) 
63

>  <original_smiles>  (64) 
[H]c1c([H])c([H])c2c(c1[H])C([H])([H])C([H])([H])C([H])([H])C2([H])N([H])C(=O)C1([H])N(C(=O)C([H])(N([H])C(=O)C([H])(N([H])C([H])([H])[H])C([H])([H])[H])C(C([H])([H])[H])(C([H])([H])[H])C([H])([H])[H])C([H])([H])c2c([H])c(OC([H])([H])C([H])([H])OC([H])([H])c3c([H])c([H])c(N([H])C(=O)N4C([H])([H])C([H])([H])C([H])([H])C([H])(n5nc(-c6c([H])c([H])c(Oc7c([H])c([H])c(F)c([H])c7F)c([H])c6[H])c(C(=O)N([H])[H])c5N([H])[H])C4([H])[H])c(C#N)c3[H])c([H])c([H])c2C1([H])[H]

>  <smiles>  (64) 
[H]c1c([H])c([H])c2c(c1[H])C([H])([H])C([H])([H])C([H])([H])C2([H])N([H])C(=O)C1([H])N(C(=O)C([H])(N([H])C(=O)C([H])(N([H])C([H])([H])[H])C([H])([H])[H])C(C([H])([H])[H])(C([H])([H])[H])C([H])([H])[H])C([H])([H])c2c([H])c(OC([H])([H])C([H])([H])OC([H])([H])c3c([H])c([H])c(N([H])C(=O)N4C([H])([H])C([H])([H])C([H])([H])C([H])(n5nc(-c6c([H])c([H])c(Oc7c([H])c([H])c(F)c([H])c7F)c([H])c6[H])c(C(=O)N([H])[H])c5N([H])[H])C4([H])[H])c(C#N)c3[H])c([H])c([H])c2C1([H])[H]

$$$$
64:0:0
     RDKit          3D

 90 98  0  0  1  0  0  0  0  0999 V2000
  -28.7720  -19.1630   20.8930 C   0  0  0  0  0  3  0  0  0  0  0  0
  -31.0460  -19.5030   20.2150 C   0  0  0  0  0  3  0  0  0  0  0  0
  -28.5210  -20.5740   20.7480 C   0  0  0  0  0  3  0  0  0  0  0  0
  -30.8010  -20.8990   20.0870 C   0  0  0  0  0  3  0  0  0  0  0  0
  -30.0570  -18.5890   20.6610 C   0  0  0  0  0  0  0  0  0  0  0  0
  -29.5490  -21.4920   20.3820 C   0  0  0  0  0  0  0  0  0  0  0  0
  -29.4710  -22.9300   20.3590 N   0  0  0  0  0  0  0  0  0  0  0  0
  -30.3610  -23.3950   20.1990 H   0  0  0  0  0  0  0  0  0  0  0  0
  -28.3020  -23.8430   20.1570 C   0  0  0  0  0  2  0  0  0  0  0  0
  -28.3450  -25.2450   20.9380 C   0  0  0  0  0  2  0  0  0  0  0  0
  -28.4270  -26.5550   20.2540 O   0  0  0  0  0  0  0  0  0  0  0  0
  -24.6080  -31.9110   23.2580 C   0  0  0  0  0  0  0  0  0  0  0  0
  -27.2950  -27.3750   20.2540 C   0  0  0  0  0  0  0  0  0  0  0  0
  -23.4340  -30.4960   21.6080 C   0  0  0  0  0  3  0  0  0  0  0  0
  -24.9140  -28.9480   20.2100 C   0  0  0  0  0  0  0  0  0  0  0  0
  -25.9710  -30.8410   21.4480 C   0  0  0  0  0  2  0  0  0  0  0  0
  -26.0710  -29.4600   20.8120 C   0  0  0  0  0  0  0  0  0  0  0  0
  -27.2680  -28.6860   20.8190 C   0  0  0  0  0  3  0  0  0  0  0  0
  -26.1190  -26.9020   19.6410 C   0  0  0  0  0  3  0  0  0  0  0  0
  -24.9390  -27.6740   19.6150 C   0  0  0  0  0  3  0  0  0  0  0  0
  -23.6700  -29.8120   20.2350 C   0  0  0  0  0  2  0  0  0  0  0  0
  -24.6900  -31.1000   22.1620 N   0  0  0  0  0  0  0  0  0  0  0  0
  -23.5180  -32.1790   23.7820 O   0  0  0  0  0  0  0  0  0  0  0  0
  -22.7700  -29.4780   22.5660 C   0  0  0  0  0  0  0  0  0  0  0  0
  -21.4470  -29.2930   22.4270 N   0  0  0  0  0  0  0  0  0  0  0  0
  -23.4450  -28.8570   23.3920 O   0  0  0  0  0  0  0  0  0  0  0  0
  -20.9620  -29.8450   21.7340 H   0  0  0  0  0  0  0  0  0  0  0  0
  -18.0690  -28.0950   22.9120 C   0  0  0  0  0  0  0  0  0  0  0  0
  -20.6260  -28.3530   23.1920 C   0  0  0  0  0  3  0  0  0  0  0  0
  -20.7300  -26.9240   22.6110 C   0  0  0  0  0  2  0  0  0  0  0  0
  -19.6320  -26.6050   21.5930 C   0  0  0  0  0  2  0  0  0  0  0  0
  -18.2470  -26.7480   22.2320 C   0  0  0  0  0  2  0  0  0  0  0  0
  -19.1860  -28.8560   23.3490 C   0  0  0  0  0  0  0  0  0  0  0  0
  -18.9640  -30.1160   23.9440 C   0  0  0  0  0  3  0  0  0  0  0  0
  -17.6580  -30.6170   24.1070 C   0  0  0  0  0  3  0  0  0  0  0  0
  -16.5560  -29.8530   23.6870 C   0  0  0  0  0  3  0  0  0  0  0  0
  -16.7610  -28.5950   23.0940 C   0  0  0  0  0  3  0  0  0  0  0  0
  -25.8790  -32.5550   23.8940 C   0  0  0  0  0  3  0  0  0  0  0  0
  -26.3740  -31.8050   25.1910 C   0  0  1  0  0  0  0  0  0  0  0  0
  -25.2630  -31.5800   26.2420 C   0  0  0  0  0  1  0  0  0  0  0  0
  -26.9680  -30.4220   24.8290 C   0  0  0  0  0  1  0  0  0  0  0  0
  -27.5100  -32.6110   25.8620 C   0  0  0  0  0  1  0  0  0  0  0  0
  -25.5620  -33.9570   24.1980 N   0  0  0  0  0  0  0  0  0  0  0  0
  -25.9050  -35.0000   23.4300 C   0  0  0  0  0  0  0  0  0  0  0  0
  -26.5910  -34.8830   22.4110 O   0  0  0  0  0  0  0  0  0  0  0  0
  -24.9540  -34.1220   24.9870 H   0  0  0  0  0  0  0  0  0  0  0  0
  -24.1840  -36.7880   23.0170 C   0  0  0  0  0  1  0  0  0  0  0  0
  -25.4080  -36.3940   23.8590 C   0  0  0  0  0  3  0  0  0  0  0  0
  -27.5230  -37.2930   24.7250 C   0  0  0  0  0  1  0  0  0  0  0  0
  -26.4430  -37.4460   23.7540 N   0  0  0  0  0  0  0  0  0  0  0  0
  -26.0330  -38.3680   23.8770 H   0  0  0  0  0  0  0  0  0  0  0  0
  -30.5180  -17.1410   21.1060 C   0  0  0  0  0  2  0  0  0  0  0  0
  -30.6260  -14.7130   20.2850 C   0  0  0  0  0  0  0  0  0  0  0  0
  -30.3500  -12.5020   19.1750 C   0  0  0  0  0  2  0  0  0  0  0  0
  -29.3870  -12.6380   17.9780 C   0  0  0  0  0  2  0  0  0  0  0  0
  -27.9240  -12.4720   18.4360 C   0  0  0  0  0  2  0  0  0  0  0  0
  -27.5890  -13.3230   19.6910 C   0  0  0  0  0  3  0  0  0  0  0  0
  -28.6700  -13.1770   20.7830 C   0  0  0  0  0  2  0  0  0  0  0  0
  -29.9580  -13.5210   20.1700 N   0  0  0  0  0  0  0  0  0  0  0  0
  -31.8020  -14.8070   19.9250 O   0  0  0  0  0  0  0  0  0  0  0  0
  -29.9190  -15.8330   20.6560 N   0  0  0  0  0  0  0  0  0  0  0  0
  -28.9360  -15.7020   20.8390 H   0  0  0  0  0  0  0  0  0  0  0  0
  -25.2080  -13.9030   20.4540 C   0  0  0  0  0  0  0  0  0  0  0  0
  -24.1520  -13.1230   20.8390 C   0  0  0  0  0  0  0  0  0  0  0  0
  -24.6220  -11.7750   20.8000 C   0  0  0  0  0  0  0  0  0  0  0  0
  -26.2540  -13.0300   20.2020 N   0  0  0  0  0  0  0  0  0  0  0  0
  -25.9080  -11.7440   20.4720 N   0  0  0  0  0  0  0  0  0  0  0  0
  -23.9050  -10.5080   20.9970 C   0  0  0  0  0  0  0  0  0  0  0  0
  -24.3500   -9.5440   21.9290 C   0  0  0  0  0  3  0  0  0  0  0  0
  -23.6320   -8.3430   22.1140 C   0  0  0  0  0  3  0  0  0  0  0  0
  -22.4550   -8.0970   21.3670 C   0  0  0  0  0  0  0  0  0  0  0  0
  -22.0300   -9.0490   20.4250 C   0  0  0  0  0  3  0  0  0  0  0  0
  -22.7490  -10.2420   20.2380 C   0  0  0  0  0  3  0  0  0  0  0  0
  -21.7080   -6.9470   21.4630 O   0  0  0  0  0  0  0  0  0  0  0  0
  -21.6650   -6.2100   22.6190 C   0  0  0  0  0  0  0  0  0  0  0  0
  -21.2200   -6.7630   23.8390 C   0  0  0  0  0  3  0  0  0  0  0  0
  -21.1270   -5.9510   24.9870 C   0  0  0  0  0  3  0  0  0  0  0  0
  -21.4680   -4.5870   24.9150 C   0  0  0  0  0  0  0  0  0  0  0  0
  -21.9060   -4.0330   23.7000 C   0  0  0  0  0  3  0  0  0  0  0  0
  -22.0010   -4.8430   22.5540 C   0  0  0  0  0  0  0  0  0  0  0  0
  -22.4040   -4.2990   21.3800 F   0  0  0  0  0  0  0  0  0  0  0  0
  -21.3700   -3.8050   26.0160 F   0  0  0  0  0  0  0  0  0  0  0  0
  -22.7560  -13.5930   21.1310 C   0  0  0  0  0  0  0  0  0  0  0  0
  -22.0430  -12.8890   22.0040 N   0  0  0  0  0  0  0  0  0  0  0  0
  -22.3080  -14.6180   20.6210 O   0  0  0  0  0  0  0  0  0  0  0  0
  -22.4210  -12.0600   22.4380 H   0  0  0  0  0  0  0  0  0  0  0  0
  -21.1080  -13.1850   22.2430 H   0  0  0  0  0  0  0  0  0  0  0  0
  -25.3620  -15.2750   20.2740 N   0  0  0  0  0  0  0  0  0  0  0  0
  -24.5890  -15.9220   20.3890 H   0  0  0  0  0  0  0  0  0  0  0  0
  -26.1930  -15.7160   19.9020 H   0  0  0  0  0  0  0  0  0  0  0  0
  2  5  1  0
  3  1  1  0
  4  2  2  0
  4  6  1  0
  5  1  2  0
  5 52  1  0
  6  3  2  0
  7  6  1  0
  8  7  1  0
  9  7  1  0
  9 10  1  0
 11 13  1  0
 11 10  1  0
 12 23  2  0
 13 18  1  0
 14 22  1  0
 14 24  1  0
 15 21  1  0
 15 17  1  0
 16 22  1  0
 17 18  2  0
 17 16  1  0
 19 13  2  0
 20 19  1  0
 20 15  2  0
 21 14  1  0
 22 12  1  0
 24 26  2  0
 25 24  1  0
 27 25  1  0
 28 37  2  0
 28 33  1  0
 29 25  1  0
 29 33  1  0
 30 29  1  0
 31 32  1  0
 31 30  1  0
 32 28  1  0
 33 34  2  0
 34 35  1  0
 36 35  2  0
 37 36  1  0
 38 12  1  0
 38 43  1  0
 38 39  1  0
 39 42  1  1
 39 40  1  0
 41 39  1  0
 43 46  1  0
 44 48  1  0
 44 43  1  0
 45 44  2  0
 48 47  1  0
 50 48  1  0
 50 51  1  0
 50 49  1  0
 53 61  1  0
 54 59  1  0
 55 56  1  0
 55 54  1  0
 57 56  1  0
 57 66  1  0
 57 58  1  0
 59 53  1  0
 59 58  1  0
 60 53  2  0
 61 62  1  0
 61 52  1  0
 63 64  2  0
 64 83  1  0
 65 64  1  0
 65 68  1  0
 66 63  1  0
 66 67  1  0
 67 65  2  0
 68 69  1  0
 69 70  2  0
 71 74  1  0
 71 70  1  0
 72 71  2  0
 73 72  1  0
 73 68  2  0
 74 75  1  0
 75 76  1  0
 76 77  2  0
 78 77  1  0
 78 82  1  0
 79 78  2  0
 80 75  2  0
 80 79  1  0
 81 80  1  0
 83 84  1  0
 84 87  1  0
 84 86  1  0
 85 83  2  0
 88 89  1  0
 88 63  1  0
 90 88  1  0
M  ISO  4  10 101  11 101  53 100  61 100
M  END
>  <TORSDO>  (65) 
F 20

>  <SCORE>  (65) 
-13.714

>  <name>  (65) 
64

>  <ligand_id>  (65) 
64

>  <original_smiles>  (65) 
[H]c1c([H])c([H])c2c(c1[H])C([H])([H])C([H])([H])C([H])([H])C2([H])N([H])C(=O)C1([H])N(C(=O)C([H])(N([H])C(=O)C([H])(N([H])C([H])([H])[H])C([H])([H])[H])C(C([H])([H])[H])(C([H])([H])[H])C([H])([H])[H])C([H])([H])c2c([H])c(OC([H])([H])C([H])([H])N([H])c3c([H])c([H])c(C([H])([H])N([H])C(=O)N4C([H])([H])C([H])([H])C([H])([H])C([H])(n5nc(-c6c([H])c([H])c(Oc7c([H])c([H])c(F)c([H])c7F)c([H])c6[H])c(C(=O)N([H])[H])c5N([H])[H])C4([H])[H])c([H])c3[H])c([H])c([H])c2C1([H])[H]

>  <smiles>  (65) 
[H]c1c([H])c([H])c2c(c1[H])C([H])([H])C([H])([H])C([H])([H])C2([H])N([H])C(=O)C1([H])N(C(=O)C([H])(N([H])C(=O)C([H])(N([H])C([H])([H])[H])C([H])([H])[H])C(C([H])([H])[H])(C([H])([H])[H])C([H])([H])[H])C([H])([H])c2c([H])c(OC([H])([H])C([H])([H])N([H])c3c([H])c([H])c(C([H])([H])N([H])C(=O)N4C([H])([H])C([H])([H])C([H])([H])C([H])(n5nc(-c6c([H])c([H])c(Oc7c([H])c([H])c(F)c([H])c7F)c([H])c6[H])c(C(=O)N([H])[H])c5N([H])[H])C4([H])[H])c([H])c3[H])c([H])c([H])c2C1([H])[H]

$$$$
65:0:0
     RDKit          3D

 90 99  0  0  1  0  0  0  0  0999 V2000
  -28.5200  -19.8520   20.8150 C   0  0  0  0  0  3  0  0  0  0  0  0
  -28.7020  -18.4110   20.8880 C   0  0  0  0  0  3  0  0  0  0  0  0
  -30.6070  -18.5200   19.4770 C   0  0  0  0  0  3  0  0  0  0  0  0
  -30.4020  -19.9610   19.4080 C   0  0  0  0  0  0  0  0  0  0  0  0
  -29.3710  -20.6980   20.0420 C   0  0  0  0  0  0  0  0  0  0  0  0
  -29.7390  -17.6500   20.2260 C   0  0  0  0  0  0  0  0  0  0  0  0
  -31.2380  -20.9410   18.6360 C   0  0  0  0  0  3  0  0  0  0  0  0
  -30.6280  -22.3220   19.0110 C   0  0  0  0  0  3  0  0  0  0  0  0
  -29.3600  -22.1500   19.7450 N   0  0  0  0  0  0  0  0  0  0  0  0
  -30.5470  -15.0150   19.9340 C   0  0  0  0  0  0  0  0  0  0  0  0
  -30.3690  -12.6940   18.9340 C   0  0  0  0  0  2  0  0  0  0  0  0
  -29.3460  -12.7110   17.7730 C   0  0  0  0  0  2  0  0  0  0  0  0
  -27.9140  -12.4960   18.3030 C   0  0  0  0  0  2  0  0  0  0  0  0
  -27.5970  -13.3850   19.5330 C   0  0  0  0  0  3  0  0  0  0  0  0
  -28.7300  -13.3260   20.5830 C   0  0  0  0  0  2  0  0  0  0  0  0
  -29.9710  -13.7460   19.9130 N   0  0  0  0  0  0  0  0  0  0  0  0
  -31.6950  -15.1360   19.4930 O   0  0  0  0  0  0  0  0  0  0  0  0
  -29.7560  -16.1190   20.3350 N   0  0  0  0  0  0  0  0  0  0  0  0
  -28.9260  -15.7660   20.7830 H   0  0  0  0  0  0  0  0  0  0  0  0
  -25.2690  -13.9540   20.4440 C   0  0  0  0  0  0  0  0  0  0  0  0
  -24.2270  -13.1730   20.8630 C   0  0  0  0  0  0  0  0  0  0  0  0
  -24.6800  -11.8220   20.7640 C   0  0  0  0  0  0  0  0  0  0  0  0
  -26.2900  -13.0790   20.1100 N   0  0  0  0  0  0  0  0  0  0  0  0
  -25.9460  -11.7900   20.3660 N   0  0  0  0  0  0  0  0  0  0  0  0
  -23.9600  -10.5580   20.9690 C   0  0  0  0  0  0  0  0  0  0  0  0
  -24.4270   -9.5780   21.8740 C   0  0  0  0  0  3  0  0  0  0  0  0
  -23.7050   -8.3820   22.0700 C   0  0  0  0  0  3  0  0  0  0  0  0
  -22.5010   -8.1530   21.3600 C   0  0  0  0  0  0  0  0  0  0  0  0
  -22.0530   -9.1210   20.4440 C   0  0  0  0  0  3  0  0  0  0  0  0
  -22.7780  -10.3100   20.2470 C   0  0  0  0  0  3  0  0  0  0  0  0
  -21.7480   -7.0080   21.4630 O   0  0  0  0  0  0  0  0  0  0  0  0
  -21.7220   -6.2680   22.6170 C   0  0  0  0  0  0  0  0  0  0  0  0
  -21.2920   -6.8170   23.8450 C   0  0  0  0  0  3  0  0  0  0  0  0
  -21.2130   -6.0010   24.9920 C   0  0  0  0  0  3  0  0  0  0  0  0
  -21.5570   -4.6380   24.9120 C   0  0  0  0  0  0  0  0  0  0  0  0
  -21.9850   -4.0910   23.6890 C   0  0  0  0  0  3  0  0  0  0  0  0
  -22.0650   -4.9040   22.5450 C   0  0  0  0  0  0  0  0  0  0  0  0
  -22.4570   -4.3670   21.3650 F   0  0  0  0  0  0  0  0  0  0  0  0
  -21.4750   -3.8500   26.0100 F   0  0  0  0  0  0  0  0  0  0  0  0
  -22.8540  -13.6510   21.2360 C   0  0  0  0  0  0  0  0  0  0  0  0
  -22.1730  -12.9390   22.1260 N   0  0  0  0  0  0  0  0  0  0  0  0
  -22.3940  -14.6930   20.7730 O   0  0  0  0  0  0  0  0  0  0  0  0
  -22.5590  -12.1000   22.5330 H   0  0  0  0  0  0  0  0  0  0  0  0
  -21.2550  -13.2460   22.4120 H   0  0  0  0  0  0  0  0  0  0  0  0
  -25.4280  -15.3280   20.2940 N   0  0  0  0  0  0  0  0  0  0  0  0
  -24.6610  -15.9720   20.4480 H   0  0  0  0  0  0  0  0  0  0  0  0
  -26.2400  -15.7690   19.8810 H   0  0  0  0  0  0  0  0  0  0  0  0
  -28.7980  -23.4090   20.4780 C   0  0  0  0  0  2  0  0  0  0  0  0
  -28.3880  -24.8360   19.6800 C   0  0  0  0  0  2  0  0  0  0  0  0
  -28.3260  -26.2830   20.2540 O   0  0  0  0  0  0  0  0  0  0  0  0
  -24.6380  -31.9060   23.2340 C   0  0  0  0  0  0  0  0  0  0  0  0
  -27.2310  -27.2190   20.1640 C   0  0  0  0  0  0  0  0  0  0  0  0
  -23.4340  -30.5040   21.6010 C   0  0  0  0  0  3  0  0  0  0  0  0
  -24.8810  -28.9360   20.1630 C   0  0  0  0  0  0  0  0  0  0  0  0
  -25.9830  -30.7820   21.4200 C   0  0  0  0  0  2  0  0  0  0  0  0
  -26.0590  -29.3930   20.7640 C   0  0  0  0  0  0  0  0  0  0  0  0
  -27.2310  -28.5490   20.7480 C   0  0  0  0  0  3  0  0  0  0  0  0
  -26.0220  -26.8590   19.5310 C   0  0  0  0  0  3  0  0  0  0  0  0
  -24.8730  -27.6820   19.5350 C   0  0  0  0  0  3  0  0  0  0  0  0
  -23.6480  -29.8260   20.2190 C   0  0  0  0  0  2  0  0  0  0  0  0
  -24.7050  -31.0860   22.1390 N   0  0  0  0  0  0  0  0  0  0  0  0
  -23.5530  -32.1850   23.7670 O   0  0  0  0  0  0  0  0  0  0  0  0
  -22.7680  -29.4920   22.5690 C   0  0  0  0  0  0  0  0  0  0  0  0
  -21.4440  -29.3040   22.4400 N   0  0  0  0  0  0  0  0  0  0  0  0
  -23.4460  -28.8820   23.3990 O   0  0  0  0  0  0  0  0  0  0  0  0
  -20.9510  -29.8600   21.7550 H   0  0  0  0  0  0  0  0  0  0  0  0
  -18.0770  -28.0540   22.9310 C   0  0  0  0  0  0  0  0  0  0  0  0
  -20.6310  -28.3580   23.2110 C   0  0  0  0  0  3  0  0  0  0  0  0
  -20.7540  -26.9220   22.6480 C   0  0  0  0  0  2  0  0  0  0  0  0
  -19.6640  -26.5750   21.6290 C   0  0  0  0  0  2  0  0  0  0  0  0
  -18.2770  -26.7030   22.2660 C   0  0  0  0  0  2  0  0  0  0  0  0
  -19.1810  -28.8380   23.3590 C   0  0  0  0  0  0  0  0  0  0  0  0
  -18.9400  -30.1000   23.9430 C   0  0  0  0  0  3  0  0  0  0  0  0
  -17.6250  -30.5790   24.1030 C   0  0  0  0  0  3  0  0  0  0  0  0
  -16.5360  -29.7940   23.6880 C   0  0  0  0  0  3  0  0  0  0  0  0
  -16.7620  -28.5330   23.1080 C   0  0  0  0  0  3  0  0  0  0  0  0
  -25.9150  -32.5480   23.8550 C   0  0  0  0  0  3  0  0  0  0  0  0
  -25.6030  -33.9520   24.1650 N   0  0  0  0  0  0  0  0  0  0  0  0
  -25.9270  -34.9980   23.3900 C   0  0  0  0  0  0  0  0  0  0  0  0
  -26.5860  -34.8810   22.3540 O   0  0  0  0  0  0  0  0  0  0  0  0
  -25.0140  -34.1150   24.9680 H   0  0  0  0  0  0  0  0  0  0  0  0
  -24.1920  -36.7910   23.0360 C   0  0  0  0  0  1  0  0  0  0  0  0
  -25.4440  -36.3920   23.8350 C   0  0  0  0  0  3  0  0  0  0  0  0
  -27.5860  -37.2980   24.6310 C   0  0  0  0  0  1  0  0  0  0  0  0
  -26.4750  -37.4450   23.6950 N   0  0  0  0  0  0  0  0  0  0  0  0
  -26.0670  -38.3670   23.8260 H   0  0  0  0  0  0  0  0  0  0  0  0
  -26.4190  -31.8000   25.1520 C   0  0  1  0  0  0  0  0  0  0  0  0
  -25.3200  -31.5860   26.2180 C   0  0  0  0  0  1  0  0  0  0  0  0
  -27.0040  -30.4160   24.7940 C   0  0  0  0  0  1  0  0  0  0  0  0
  -27.5630  -32.6090   25.8090 C   0  0  0  0  0  1  0  0  0  0  0  0
  1  2  1  0
  3  6  1  0
  4  3  2  0
  4  5  1  0
  5  1  2  0
  6 18  1  0
  6  2  2  0
  7  8  2  0
  7  4  1  0
  8  9  1  0
  9  5  1  0
  9 48  1  0
 10 18  1  0
 11 16  1  0
 12 13  1  0
 12 11  1  0
 14 13  1  0
 14 23  1  0
 14 15  1  0
 16 10  1  0
 16 15  1  0
 17 10  2  0
 18 19  1  0
 20 21  2  0
 21 40  1  0
 22 21  1  0
 22 25  1  0
 23 24  1  0
 23 20  1  0
 24 22  2  0
 25 26  1  0
 26 27  2  0
 28 31  1  0
 28 27  1  0
 29 28  2  0
 30 29  1  0
 30 25  2  0
 31 32  1  0
 32 33  1  0
 33 34  2  0
 35 34  1  0
 35 39  1  0
 36 35  2  0
 37 32  2  0
 37 36  1  0
 38 37  1  0
 40 41  1  0
 41 44  1  0
 41 43  1  0
 42 40  2  0
 45 20  1  0
 45 46  1  0
 47 45  1  0
 49 50  1  0
 49 48  1  0
 51 62  2  0
 52 50  1  0
 52 57  1  0
 53 61  1  0
 53 63  1  0
 54 60  1  0
 54 56  1  0
 55 61  1  0
 56 55  1  0
 57 56  2  0
 58 59  1  0
 58 52  2  0
 59 54  2  0
 60 53  1  0
 61 51  1  0
 63 65  2  0
 64 63  1  0
 66 64  1  0
 67 76  2  0
 67 72  1  0
 68 64  1  0
 68 72  1  0
 69 68  1  0
 70 71  1  0
 70 69  1  0
 71 67  1  0
 72 73  2  0
 73 74  1  0
 75 74  2  0
 76 75  1  0
 77 51  1  0
 77 78  1  0
 77 87  1  0
 78 81  1  0
 79 83  1  0
 79 78  1  0
 80 79  2  0
 83 82  1  0
 85 86  1  0
 85 83  1  0
 85 84  1  0
 87 90  1  1
 87 88  1  0
 89 87  1  0
M  ISO  4  10 100  18 100  49 101  50 101
M  END
>  <TORSDO>  (66) 
F 18

>  <SCORE>  (66) 
-14.135

>  <name>  (66) 
65

>  <ligand_id>  (66) 
65

>  <original_smiles>  (66) 
[H]c1c([H])c([H])c2c(c1[H])C([H])([H])C([H])([H])C([H])([H])C2([H])N([H])C(=O)C1([H])N(C(=O)C([H])(N([H])C(=O)C([H])(N([H])C([H])([H])[H])C([H])([H])[H])C(C([H])([H])[H])(C([H])([H])[H])C([H])([H])[H])C([H])([H])c2c([H])c(OC([H])([H])C([H])([H])N3c4c([H])c([H])c(N([H])C(=O)N5C([H])([H])C([H])([H])C([H])([H])C([H])(n6nc(-c7c([H])c([H])c(Oc8c([H])c([H])c(F)c([H])c8F)c([H])c7[H])c(C(=O)N([H])[H])c6N([H])[H])C5([H])[H])c([H])c4C([H])([H])C3([H])[H])c([H])c([H])c2C1([H])[H]

>  <smiles>  (66) 
[H]c1c([H])c([H])c2c(c1[H])C([H])([H])C([H])([H])C([H])([H])C2([H])N([H])C(=O)C1([H])N(C(=O)C([H])(N([H])C(=O)C([H])(N([H])C([H])([H])[H])C([H])([H])[H])C(C([H])([H])[H])(C([H])([H])[H])C([H])([H])[H])C([H])([H])c2c([H])c(OC([H])([H])C([H])([H])N3c4c([H])c([H])c(N([H])C(=O)N5C([H])([H])C([H])([H])C([H])([H])C([H])(n6nc(-c7c([H])c([H])c(Oc8c([H])c([H])c(F)c([H])c8F)c([H])c7[H])c(C(=O)N([H])[H])c6N([H])[H])C5([H])[H])c([H])c4C([H])([H])C3([H])[H])c([H])c([H])c2C1([H])[H]

$$$$
66:0:0
     RDKit          3D

 86 94  0  0  1  0  0  0  0  0999 V2000
  -29.1870  -21.3180   21.2240 C   0  0  0  0  0  3  0  0  0  0  0  0
  -28.3800  -21.1180   19.1690 C   0  0  0  0  0  3  0  0  0  0  0  0
  -29.5320  -19.8170   21.2250 C   0  0  0  0  0  3  0  0  0  0  0  0
  -28.7130  -19.6270   19.1720 C   0  0  0  0  0  3  0  0  0  0  0  0
  -28.5590  -22.1940   20.1860 C   0  0  0  0  0  0  0  0  0  0  0  0
  -29.3450  -18.7470   20.1930 C   0  0  0  0  0  0  0  0  0  0  0  0
  -30.2600  -15.7190   20.1520 C   0  0  0  0  0  0  0  0  0  0  0  0
  -30.3680  -13.1860   19.3140 C   0  0  0  0  0  2  0  0  0  0  0  0
  -29.4450  -12.7990   18.1230 C   0  0  0  0  0  2  0  0  0  0  0  0
  -28.0320  -12.4420   18.6110 C   0  0  0  0  0  2  0  0  0  0  0  0
  -27.5460  -13.4280   19.6970 C   0  0  0  0  0  3  0  0  0  0  0  0
  -28.6050  -13.7230   20.7850 C   0  0  0  0  0  2  0  0  0  0  0  0
  -29.7610  -14.3480   20.1030 N   0  0  0  0  0  0  0  0  0  0  0  0
  -31.4880  -15.6960   19.9420 O   0  0  0  0  0  0  0  0  0  0  0  0
  -29.4300  -17.0280   20.2420 N   0  0  0  0  0  0  0  0  0  0  0  0
  -28.4830  -16.6860   20.3090 H   0  0  0  0  0  0  0  0  0  0  0  0
  -25.2060  -13.9340   20.5460 C   0  0  0  0  0  0  0  0  0  0  0  0
  -24.1600  -13.1410   20.9260 C   0  0  0  0  0  0  0  0  0  0  0  0
  -24.6350  -11.7950   20.8480 C   0  0  0  0  0  0  0  0  0  0  0  0
  -26.2460  -13.0750   20.2480 N   0  0  0  0  0  0  0  0  0  0  0  0
  -25.9180  -11.7780   20.4970 N   0  0  0  0  0  0  0  0  0  0  0  0
  -23.9180  -10.5250   21.0260 C   0  0  0  0  0  0  0  0  0  0  0  0
  -24.3490   -9.5550   21.9580 C   0  0  0  0  0  3  0  0  0  0  0  0
  -23.6270   -8.3540   22.1270 C   0  0  0  0  0  3  0  0  0  0  0  0
  -22.4590   -8.1140   21.3660 C   0  0  0  0  0  0  0  0  0  0  0  0
  -22.0470   -9.0720   20.4240 C   0  0  0  0  0  3  0  0  0  0  0  0
  -22.7690  -10.2640   20.2520 C   0  0  0  0  0  3  0  0  0  0  0  0
  -21.7100   -6.9650   21.4440 O   0  0  0  0  0  0  0  0  0  0  0  0
  -21.6210   -6.2410   22.6070 C   0  0  0  0  0  0  0  0  0  0  0  0
  -21.1120   -6.8040   23.7970 C   0  0  0  0  0  3  0  0  0  0  0  0
  -20.9720   -6.0060   24.9500 C   0  0  0  0  0  3  0  0  0  0  0  0
  -21.3310   -4.6460   24.9130 C   0  0  0  0  0  0  0  0  0  0  0  0
  -21.8340   -4.0820   23.7270 C   0  0  0  0  0  3  0  0  0  0  0  0
  -21.9740   -4.8770   22.5770 C   0  0  0  0  0  0  0  0  0  0  0  0
  -22.4380   -4.3230   21.4310 F   0  0  0  0  0  0  0  0  0  0  0  0
  -21.1910   -3.8770   26.0190 F   0  0  0  0  0  0  0  0  0  0  0  0
  -22.7690  -13.6060   21.2420 C   0  0  0  0  0  0  0  0  0  0  0  0
  -22.0680  -12.8890   22.1130 N   0  0  0  0  0  0  0  0  0  0  0  0
  -22.3150  -14.6380   20.7530 O   0  0  0  0  0  0  0  0  0  0  0  0
  -22.4500  -12.0540   22.5310 H   0  0  0  0  0  0  0  0  0  0  0  0
  -21.1340  -13.1820   22.3670 H   0  0  0  0  0  0  0  0  0  0  0  0
  -25.3510  -15.3100   20.3950 N   0  0  0  0  0  0  0  0  0  0  0  0
  -24.5750  -15.9490   20.5370 H   0  0  0  0  0  0  0  0  0  0  0  0
  -26.1650  -15.7610   20.0010 H   0  0  0  0  0  0  0  0  0  0  0  0
  -27.7930  -23.9010   20.1770 C   0  0  0  0  0  2  0  0  0  0  0  0
  -28.1150  -25.6130   20.3110 O   0  0  0  0  0  0  0  0  0  0  0  0
  -24.6620  -31.9150   23.2510 C   0  0  0  0  0  0  0  0  0  0  0  0
  -27.1570  -26.8350   20.2600 C   0  0  0  0  0  0  0  0  0  0  0  0
  -23.4600  -30.5190   21.6230 C   0  0  0  0  0  3  0  0  0  0  0  0
  -24.8950  -28.8660   20.2080 C   0  0  0  0  0  0  0  0  0  0  0  0
  -26.0380  -30.6560   21.4870 C   0  0  0  0  0  2  0  0  0  0  0  0
  -26.0950  -29.2230   20.8340 C   0  0  0  0  0  0  0  0  0  0  0  0
  -27.2120  -28.2350   20.8280 C   0  0  0  0  0  3  0  0  0  0  0  0
  -25.9230  -26.6850   19.5790 C   0  0  0  0  0  3  0  0  0  0  0  0
  -24.8460  -27.6220   19.5560 C   0  0  0  0  0  3  0  0  0  0  0  0
  -23.6900  -29.8190   20.2540 C   0  0  0  0  0  2  0  0  0  0  0  0
  -24.7450  -31.0630   22.1720 N   0  0  0  0  0  0  0  0  0  0  0  0
  -23.5730  -32.2210   23.7660 O   0  0  0  0  0  0  0  0  0  0  0  0
  -22.7450  -29.5460   22.5990 C   0  0  0  0  0  0  0  0  0  0  0  0
  -21.4140  -29.3860   22.4710 N   0  0  0  0  0  0  0  0  0  0  0  0
  -23.4000  -28.9330   23.4470 O   0  0  0  0  0  0  0  0  0  0  0  0
  -20.9350  -29.9310   21.7680 H   0  0  0  0  0  0  0  0  0  0  0  0
  -18.0320  -28.1550   22.9720 C   0  0  0  0  0  0  0  0  0  0  0  0
  -20.5870  -28.4540   23.2490 C   0  0  0  0  0  3  0  0  0  0  0  0
  -20.7060  -27.0130   22.6990 C   0  0  0  0  0  2  0  0  0  0  0  0
  -19.6170  -26.6650   21.6810 C   0  0  0  0  0  2  0  0  0  0  0  0
  -18.2280  -26.8010   22.3110 C   0  0  0  0  0  2  0  0  0  0  0  0
  -19.1380  -28.9370   23.3980 C   0  0  0  0  0  0  0  0  0  0  0  0
  -18.8970  -30.2000   23.9820 C   0  0  0  0  0  3  0  0  0  0  0  0
  -17.5830  -30.6820   24.1390 C   0  0  0  0  0  3  0  0  0  0  0  0
  -16.4920  -29.8990   23.7250 C   0  0  0  0  0  3  0  0  0  0  0  0
  -16.7170  -28.6360   23.1490 C   0  0  0  0  0  3  0  0  0  0  0  0
  -25.9320  -32.5610   23.8830 C   0  0  0  0  0  3  0  0  0  0  0  0
  -25.6160  -33.9640   24.2200 N   0  0  0  0  0  0  0  0  0  0  0  0
  -25.9160  -35.0270   23.4620 C   0  0  0  0  0  0  0  0  0  0  0  0
  -26.5470  -34.9310   22.4070 O   0  0  0  0  0  0  0  0  0  0  0  0
  -25.0470  -34.1100   25.0410 H   0  0  0  0  0  0  0  0  0  0  0  0
  -24.1590  -36.8170   23.2140 C   0  0  0  0  0  1  0  0  0  0  0  0
  -25.4490  -36.4160   23.9480 C   0  0  0  0  0  3  0  0  0  0  0  0
  -27.6160  -37.3300   24.6580 C   0  0  0  0  0  1  0  0  0  0  0  0
  -26.4640  -37.4780   23.7730 N   0  0  0  0  0  0  0  0  0  0  0  0
  -26.0580  -38.3960   23.9330 H   0  0  0  0  0  0  0  0  0  0  0  0
  -26.4320  -31.8030   25.1750 C   0  0  1  0  0  0  0  0  0  0  0  0
  -25.3290  -31.5820   26.2370 C   0  0  0  0  0  1  0  0  0  0  0  0
  -27.0120  -30.4160   24.8140 C   0  0  0  0  0  1  0  0  0  0  0  0
  -27.5810  -32.5990   25.8380 C   0  0  0  0  0  1  0  0  0  0  0  0
  1  3  1  0
  2  4  2  0
  2  5  1  0
  4  6  1  0
  5  1  2  0
  6 15  1  0
  6  3  2  0
  7 15  1  0
  8 13  1  0
  9 10  1  0
  9  8  1  0
 11 10  1  0
 11 20  1  0
 11 12  1  0
 13  7  1  0
 13 12  1  0
 14  7  2  0
 15 16  1  0
 17 18  2  0
 18 37  1  0
 19 18  1  0
 19 22  1  0
 20 21  1  0
 20 17  1  0
 21 19  2  0
 22 23  1  0
 23 24  2  0
 25 28  1  0
 25 24  1  0
 26 25  2  0
 27 26  1  0
 27 22  2  0
 28 29  1  0
 29 30  1  0
 30 31  2  0
 32 31  1  0
 32 36  1  0
 33 32  2  0
 34 29  2  0
 34 33  1  0
 35 34  1  0
 37 38  1  0
 38 41  1  0
 38 40  1  0
 39 37  2  0
 42 43  1  0
 42 17  1  0
 44 42  1  0
 45  5  1  0
 45 46  1  0
 47 58  2  0
 48 46  1  0
 48 53  1  0
 49 57  1  0
 49 59  1  0
 50 56  1  0
 50 52  1  0
 51 57  1  0
 52 51  1  0
 53 52  2  0
 54 48  2  0
 55 54  1  0
 55 50  2  0
 56 49  1  0
 57 47  1  0
 59 61  2  0
 60 59  1  0
 62 60  1  0
 63 72  2  0
 63 68  1  0
 64 60  1  0
 64 68  1  0
 65 64  1  0
 66 67  1  0
 66 65  1  0
 67 63  1  0
 68 69  2  0
 69 70  1  0
 71 70  2  0
 72 71  1  0
 73 47  1  0
 73 74  1  0
 73 83  1  0
 74 77  1  0
 75 79  1  0
 75 74  1  0
 76 75  2  0
 79 78  1  0
 81 82  1  0
 81 79  1  0
 81 80  1  0
 83 86  1  1
 83 84  1  0
 85 83  1  0
M  ISO  4   7 100  15 100  45 101  46 101
M  END
>  <TORSDO>  (67) 
F 17

>  <SCORE>  (67) 
-16.448

>  <name>  (67) 
66

>  <ligand_id>  (67) 
66

>  <original_smiles>  (67) 
[H]c1c([H])c([H])c2c(c1[H])C([H])([H])C([H])([H])C([H])([H])C2([H])N([H])C(=O)C1([H])N(C(=O)C([H])(N([H])C(=O)C([H])(N([H])C([H])([H])[H])C([H])([H])[H])C(C([H])([H])[H])(C([H])([H])[H])C([H])([H])[H])C([H])([H])c2c([H])c(OC([H])([H])c3c([H])c([H])c(N([H])C(=O)N4C([H])([H])C([H])([H])C([H])([H])C([H])(n5nc(-c6c([H])c([H])c(Oc7c([H])c([H])c(F)c([H])c7F)c([H])c6[H])c(C(=O)N([H])[H])c5N([H])[H])C4([H])[H])c([H])c3[H])c([H])c([H])c2C1([H])[H]

>  <smiles>  (67) 
[H]c1c([H])c([H])c2c(c1[H])C([H])([H])C([H])([H])C([H])([H])C2([H])N([H])C(=O)C1([H])N(C(=O)C([H])(N([H])C(=O)C([H])(N([H])C([H])([H])[H])C([H])([H])[H])C(C([H])([H])[H])(C([H])([H])[H])C([H])([H])[H])C([H])([H])c2c([H])c(OC([H])([H])c3c([H])c([H])c(N([H])C(=O)N4C([H])([H])C([H])([H])C([H])([H])C([H])(n5nc(-c6c([H])c([H])c(Oc7c([H])c([H])c(F)c([H])c7F)c([H])c6[H])c(C(=O)N([H])[H])c5N([H])[H])C4([H])[H])c([H])c3[H])c([H])c([H])c2C1([H])[H]

$$$$
67:0:0
     RDKit          3D

115125  0  0  1  0  0  0  0  0999 V2000
  -31.0410  -21.3160   19.1750 C   0  0  0  0  0  0  0  0  0  0  0  0
  -31.0040  -17.7540   20.9280 C   0  0  0  0  0  0  0  0  0  0  0  0
  -32.2560  -20.4770   22.2190 C   0  0  0  0  0  2  0  0  0  0  0  0
  -31.4810  -21.6720   21.6360 C   0  0  0  0  0  2  0  0  0  0  0  0
  -31.3270  -19.3700   22.7560 C   0  0  0  0  0  2  0  0  0  0  0  0
  -29.2850  -20.8560   20.8720 C   0  0  0  0  0  2  0  0  0  0  0  0
  -29.2040  -19.4370   21.5210 C   0  0  0  0  0  2  0  0  0  0  0  0
  -30.6490  -21.2810   20.4810 N   0  0  0  0  0  0  0  0  0  0  0  0
  -30.5110  -18.7770   21.6810 N   0  0  0  0  0  0  0  0  0  0  0  0
  -30.2580  -21.0810   18.2480 O   0  0  0  0  0  0  0  0  0  0  0  0
  -32.1710  -17.3900   21.0830 O   0  0  0  0  0  0  0  0  0  0  0  0
  -33.0160  -22.8100   18.8420 C   0  0  0  0  0  0  0  0  0  0  0  0
  -32.4560  -21.5880   18.9270 C   0  0  0  0  0  3  0  0  0  0  0  0
  -34.4690  -22.7050   18.4430 C   0  0  0  0  0  3  0  0  0  0  0  0
  -33.4090  -20.4730   18.5760 C   0  0  0  0  0  3  0  0  0  0  0  0
  -34.7290  -21.1960   18.2440 C   0  0  0  0  0  3  0  0  0  0  0  0
  -32.7550  -25.0460   19.9270 C   0  0  0  0  0  3  0  0  0  0  0  0
  -31.1970  -24.3910   18.1670 C   0  0  0  0  0  3  0  0  0  0  0  0
  -32.0070  -26.2230   20.1500 C   0  0  0  0  0  3  0  0  0  0  0  0
  -30.4510  -25.5600   18.3940 C   0  0  0  0  0  3  0  0  0  0  0  0
  -32.3220  -24.1060   18.9690 C   0  0  0  0  0  0  0  0  0  0  0  0
  -30.8270  -26.4600   19.4120 C   0  0  0  0  0  0  0  0  0  0  0  0
  -29.8850  -27.5980   19.7560 C   0  0  0  0  0  2  0  0  0  0  0  0
  -28.6980  -27.0250   20.2810 O   0  0  0  0  0  0  0  0  0  0  0  0
  -24.6740  -32.0050   23.4200 C   0  0  0  0  0  0  0  0  0  0  0  0
  -27.5560  -27.7800   20.2760 C   0  0  0  0  0  0  0  0  0  0  0  0
  -23.5600  -30.6150   21.7040 C   0  0  0  0  0  3  0  0  0  0  0  0
  -25.1060  -29.1690   20.2800 C   0  0  0  0  0  0  0  0  0  0  0  0
  -26.0760  -31.0710   21.5850 C   0  0  0  0  0  2  0  0  0  0  0  0
  -26.2300  -29.7280   20.9050 C   0  0  0  0  0  0  0  0  0  0  0  0
  -27.4640  -29.0440   20.8970 C   0  0  0  0  0  3  0  0  0  0  0  0
  -26.4150  -27.2170   19.6720 C   0  0  0  0  0  3  0  0  0  0  0  0
  -25.1920  -27.9110   19.6600 C   0  0  0  0  0  3  0  0  0  0  0  0
  -23.8300  -29.9800   20.3140 C   0  0  0  0  0  2  0  0  0  0  0  0
  -24.7870  -31.2420   22.2950 N   0  0  0  0  0  0  0  0  0  0  0  0
  -23.5710  -32.2260   23.9370 O   0  0  0  0  0  0  0  0  0  0  0  0
  -22.9150  -29.5460   22.6160 C   0  0  0  0  0  0  0  0  0  0  0  0
  -21.5990  -29.3330   22.4500 N   0  0  0  0  0  0  0  0  0  0  0  0
  -23.5960  -28.9120   23.4270 O   0  0  0  0  0  0  0  0  0  0  0  0
  -21.1120  -29.9000   21.7710 H   0  0  0  0  0  0  0  0  0  0  0  0
  -18.2400  -28.0650   22.8480 C   0  0  0  0  0  0  0  0  0  0  0  0
  -20.7880  -28.3520   23.1700 C   0  0  0  0  0  3  0  0  0  0  0  0
  -20.9220  -26.9470   22.5370 C   0  0  0  0  0  2  0  0  0  0  0  0
  -19.8410  -26.6500   21.4940 C   0  0  0  0  0  2  0  0  0  0  0  0
  -18.4480  -26.7470   22.1210 C   0  0  0  0  0  2  0  0  0  0  0  0
  -19.3390  -28.8260   23.3270 C   0  0  0  0  0  0  0  0  0  0  0  0
  -19.0920  -30.0610   23.9630 C   0  0  0  0  0  3  0  0  0  0  0  0
  -17.7770  -30.5360   24.1280 C   0  0  0  0  0  3  0  0  0  0  0  0
  -16.6910  -29.7700   23.6680 C   0  0  0  0  0  3  0  0  0  0  0  0
  -16.9230  -28.5370   23.0340 C   0  0  0  0  0  3  0  0  0  0  0  0
  -25.9230  -32.6560   24.0940 C   0  0  0  0  0  3  0  0  0  0  0  0
  -25.5830  -34.0500   24.4000 N   0  0  0  0  0  0  0  0  0  0  0  0
  -25.9330  -35.1010   23.6460 C   0  0  0  0  0  0  0  0  0  0  0  0
  -26.6480  -35.0000   22.6440 O   0  0  0  0  0  0  0  0  0  0  0  0
  -24.9540  -34.2030   25.1740 H   0  0  0  0  0  0  0  0  0  0  0  0
  -24.1940  -36.8630   23.2040 C   0  0  0  0  0  1  0  0  0  0  0  0
  -25.4070  -36.4850   24.0700 C   0  0  0  0  0  3  0  0  0  0  0  0
  -27.4910  -37.4100   24.9800 C   0  0  0  0  0  1  0  0  0  0  0  0
  -26.4260  -37.5540   23.9920 N   0  0  0  0  0  0  0  0  0  0  0  0
  -25.9990  -38.4690   24.1170 H   0  0  0  0  0  0  0  0  0  0  0  0
  -26.3950  -31.8960   25.3940 C   0  0  1  0  0  0  0  0  0  0  0  0
  -25.2530  -31.6170   26.3990 C   0  0  0  0  0  1  0  0  0  0  0  0
  -27.0420  -30.5400   25.0280 C   0  0  0  0  0  1  0  0  0  0  0  0
  -27.4810  -32.7230   26.1210 C   0  0  0  0  0  1  0  0  0  0  0  0
  -30.1390  -17.0330   19.8470 C   0  0  0  0  0  3  0  0  0  0  0  0
  -31.3430  -14.7770   19.9780 C   0  0  0  0  0  0  0  0  0  0  0  0
  -30.8850  -12.6280   18.9330 C   0  0  0  0  0  2  0  0  0  0  0  0
  -29.9050  -12.8630   17.7640 C   0  0  0  0  0  2  0  0  0  0  0  0
  -28.4520  -12.7740   18.2640 C   0  0  0  0  0  2  0  0  0  0  0  0
  -28.1870  -13.6320   19.5330 C   0  0  0  0  0  3  0  0  0  0  0  0
  -29.2970  -13.4540   20.5970 C   0  0  0  0  0  2  0  0  0  0  0  0
  -30.5910  -13.6540   19.9370 N   0  0  0  0  0  0  0  0  0  0  0  0
  -32.5530  -14.7700   19.7750 O   0  0  0  0  0  0  0  0  0  0  0  0
  -30.7480  -15.7930   19.3490 N   0  0  0  0  0  0  0  0  0  0  0  0
  -31.4090  -16.0590   18.6380 H   0  0  0  0  0  0  0  0  0  0  0  0
  -25.8590  -14.2790   20.4140 C   0  0  0  0  0  0  0  0  0  0  0  0
  -24.7810  -13.5250   20.7930 C   0  0  0  0  0  0  0  0  0  0  0  0
  -25.1850  -12.1620   20.6610 C   0  0  0  0  0  0  0  0  0  0  0  0
  -26.8560  -13.3760   20.0790 N   0  0  0  0  0  0  0  0  0  0  0  0
  -26.4580  -12.0940   20.2890 N   0  0  0  0  0  0  0  0  0  0  0  0
  -24.4170  -10.9180   20.8080 C   0  0  0  0  0  0  0  0  0  0  0  0
  -24.8260   -9.8980   21.6970 C   0  0  0  0  0  3  0  0  0  0  0  0
  -24.0600   -8.7210   21.8380 C   0  0  0  0  0  3  0  0  0  0  0  0
  -22.8710   -8.5530   21.0880 C   0  0  0  0  0  0  0  0  0  0  0  0
  -22.4800   -9.5600   20.1910 C   0  0  0  0  0  3  0  0  0  0  0  0
  -23.2460  -10.7300   20.0470 C   0  0  0  0  0  3  0  0  0  0  0  0
  -22.0790   -7.4330   21.1400 O   0  0  0  0  0  0  0  0  0  0  0  0
  -21.9580   -6.6900   22.2860 C   0  0  0  0  0  0  0  0  0  0  0  0
  -21.4730   -7.2480   23.4890 C   0  0  0  0  0  3  0  0  0  0  0  0
  -21.2990   -6.4310   24.6230 C   0  0  0  0  0  3  0  0  0  0  0  0
  -21.6010   -5.0570   24.5570 C   0  0  0  0  0  0  0  0  0  0  0  0
  -22.0810   -4.5000   23.3590 C   0  0  0  0  0  3  0  0  0  0  0  0
  -22.2560   -5.3130   22.2260 C   0  0  0  0  0  0  0  0  0  0  0  0
  -22.6970   -4.7650   21.0670 F   0  0  0  0  0  0  0  0  0  0  0  0
  -21.4270   -4.2710   25.6440 F   0  0  0  0  0  0  0  0  0  0  0  0
  -23.4180  -14.0370   21.1600 C   0  0  0  0  0  0  0  0  0  0  0  0
  -22.7090  -13.3290   22.0320 N   0  0  0  0  0  0  0  0  0  0  0  0
  -22.9900  -15.0990   20.7070 O   0  0  0  0  0  0  0  0  0  0  0  0
  -23.0620  -12.4670   22.4180 H   0  0  0  0  0  0  0  0  0  0  0  0
  -21.7970  -13.6570   22.3200 H   0  0  0  0  0  0  0  0  0  0  0  0
  -26.0620  -15.6510   20.3000 N   0  0  0  0  0  0  0  0  0  0  0  0
  -25.3020  -16.3100   20.4370 H   0  0  0  0  0  0  0  0  0  0  0  0
  -26.8890  -16.0750   19.9000 H   0  0  0  0  0  0  0  0  0  0  0  0
  -29.9610  -17.9110   18.5770 C   0  0  0  0  0  2  0  0  0  0  0  0
  -29.0190  -17.3790   17.4730 C   0  0  0  0  0  2  0  0  0  0  0  0
  -29.5260  -17.6470   16.0410 C   0  0  0  0  0  2  0  0  0  0  0  0
  -30.9030  -19.3490   14.8010 C   0  0  0  0  0  0  0  0  0  0  0  0
  -31.6770  -20.4310   14.8680 N   0  0  0  0  0  0  0  0  0  0  0  0
  -30.6710  -18.7820   13.6160 N   0  0  0  0  0  4  0  0  0  0  0  0
  -30.3780  -18.8490   15.9270 N   0  0  0  0  0  0  0  0  0  0  0  0
  -32.1080  -20.8460   14.0540 H   0  0  0  0  0  0  0  0  0  0  0  0
  -31.8660  -20.8850   15.7520 H   0  0  0  0  0  0  0  0  0  0  0  0
  -31.0690  -19.1360   12.7570 H   0  0  0  0  0  0  0  0  0  0  0  0
  -30.0940  -17.9590   13.5260 H   0  0  0  0  0  0  0  0  0  0  0  0
  -30.6990  -19.2520   16.8130 H   0  0  0  0  0  0  0  0  0  0  0  0
  1  8  1  0
  2 11  2  0
  2  9  1  0
  3  5  1  0
  4  3  1  0
  6  7  1  0
  7  9  1  0
  8  6  1  0
  8  4  1  0
  9  5  1  0
 10  1  2  0
 12 13  1  0
 12 21  1  0
 13  1  1  0
 14 12  2  0
 15 13  1  0
 16 14  1  0
 16 15  2  0
 17 19  1  0
 18 20  2  0
 18 21  1  0
 20 22  1  0
 21 17  2  0
 22 23  1  0
 22 19  2  0
 23 24  1  0
 25 36  2  0
 26 24  1  0
 26 31  1  0
 27 35  1  0
 27 37  1  0
 28 34  1  0
 28 30  1  0
 29 35  1  0
 30 29  1  0
 31 30  2  0
 32 26  2  0
 33 32  1  0
 33 28  2  0
 34 27  1  0
 35 25  1  0
 37 39  2  0
 38 37  1  0
 40 38  1  0
 41 50  2  0
 41 46  1  0
 42 38  1  0
 42 46  1  0
 43 42  1  0
 44 45  1  0
 44 43  1  0
 45 41  1  0
 46 47  2  0
 47 48  1  0
 49 48  2  0
 50 49  1  0
 51 25  1  0
 51 52  1  0
 51 61  1  0
 52 55  1  0
 53 57  1  0
 53 52  1  0
 54 53  2  0
 57 56  1  0
 59 57  1  0
 59 60  1  0
 59 58  1  0
 61 64  1  1
 61 62  1  0
 63 61  1  0
 65104  1  0
 65  2  1  0
 67 72  1  0
 68 69  1  0
 68 67  1  0
 70 69  1  0
 70 79  1  0
 70 71  1  0
 72 66  1  0
 72 71  1  0
 73 66  2  0
 74 65  1  0
 74 66  1  0
 75 74  1  0
 76 77  2  0
 77 96  1  0
 78 77  1  0
 78 81  1  0
 79 80  1  0
 79 76  1  0
 80 78  2  0
 81 82  1  0
 82 83  2  0
 84 87  1  0
 84 83  1  0
 85 84  2  0
 86 85  1  0
 86 81  2  0
 87 88  1  0
 88 89  1  0
 89 90  2  0
 91 90  1  0
 91 95  1  0
 92 91  2  0
 93 88  2  0
 93 92  1  0
 94 93  1  0
 96 97  1  0
 97100  1  0
 97 99  1  0
 98 96  2  0
101 76  1  0
101102  1  0
103101  1  0
105104  1  0
106105  1  0
107108  1  0
107110  1  0
108112  1  0
109107  2  0
110106  1  0
110115  1  0
111108  1  0
113109  1  0
114109  1  0
M  ISO  4  23 101  24 101  66 100  74 100
M  END
>  <TORSDO>  (68) 
F 24

>  <SCORE>  (68) 
-10.274

>  <name>  (68) 
67

>  <ligand_id>  (68) 
67

>  <original_smiles>  (68) 
[H]c1c([H])c([H])c2c(c1[H])C([H])([H])C([H])([H])C([H])([H])C2([H])N([H])C(=O)C1([H])N(C(=O)C([H])(N([H])C(=O)C([H])(N([H])C([H])([H])[H])C([H])([H])[H])C(C([H])([H])[H])(C([H])([H])[H])C([H])([H])[H])C([H])([H])c2c([H])c(OC([H])([H])c3c([H])c([H])c(C4=C(C(=O)N5C([H])([H])C([H])([H])N(C(=O)C([H])(N([H])C(=O)N6C([H])([H])C([H])([H])C([H])([H])C([H])(n7nc(-c8c([H])c([H])c(Oc9c([H])c([H])c(F)c([H])c9F)c([H])c8[H])c(C(=O)N([H])[H])c7N([H])[H])C6([H])[H])C([H])([H])C([H])([H])C([H])([H])N([H])C(N([H])[H])=[N+]([H])[H])C([H])([H])C([H])([H])C5([H])[H])C([H])([H])C([H])([H])C4([H])[H])c([H])c3[H])c([H])c([H])c2C1([H])[H]

>  <smiles>  (68) 
[H]c1c([H])c([H])c2c(c1[H])C([H])([H])C([H])([H])C([H])([H])C2([H])N([H])C(=O)C1([H])N(C(=O)C([H])(N([H])C(=O)C([H])(N([H])C([H])([H])[H])C([H])([H])[H])C(C([H])([H])[H])(C([H])([H])[H])C([H])([H])[H])C([H])([H])c2c([H])c(OC([H])([H])c3c([H])c([H])c(C4=C(C(=O)N5C([H])([H])C([H])([H])N(C(=O)C([H])(N([H])C(=O)N6C([H])([H])C([H])([H])C([H])([H])C([H])(n7nc(-c8c([H])c([H])c(Oc9c([H])c([H])c(F)c([H])c9F)c([H])c8[H])c(C(=O)N([H])[H])c7N([H])[H])C6([H])[H])C([H])([H])C([H])([H])C([H])([H])N([H])C(N([H])[H])=[N+]([H])[H])C([H])([H])C([H])([H])C5([H])[H])C([H])([H])C([H])([H])C4([H])[H])c([H])c3[H])c([H])c([H])c2C1([H])[H]

$$$$
68:0:0
     RDKit          3D

 94102  0  0  1  0  0  0  0  0999 V2000
  -28.5570  -21.4470   21.3190 C   0  0  0  0  0  0  0  0  0  0  0  0
  -29.1320  -22.5030   20.7230 N   0  0  0  0  0  0  0  0  0  0  0  0
  -27.4240  -21.5330   21.7870 O   0  0  0  0  0  0  0  0  0  0  0  0
  -28.5770  -23.3460   20.7400 H   0  0  0  0  0  0  0  0  0  0  0  0
  -30.5420  -20.0280   22.0510 C   0  0  0  0  0  3  0  0  0  0  0  0
  -28.6960  -18.9770   20.8550 C   0  0  0  0  0  3  0  0  0  0  0  0
  -31.1940  -18.7800   22.1440 C   0  0  0  0  0  3  0  0  0  0  0  0
  -29.3500  -17.7350   20.9390 C   0  0  0  0  0  3  0  0  0  0  0  0
  -29.2940  -20.1370   21.3940 C   0  0  0  0  0  0  0  0  0  0  0  0
  -30.6060  -17.6320   21.5710 C   0  0  0  0  0  0  0  0  0  0  0  0
  -31.3280  -16.2980   21.5500 C   0  0  0  0  0  2  0  0  0  0  0  0
  -31.8340  -14.6280   19.8110 C   0  0  0  0  0  0  0  0  0  0  0  0
  -31.2870  -12.4800   18.7530 C   0  0  0  0  0  2  0  0  0  0  0  0
  -30.3010  -12.7370   17.5970 C   0  0  0  0  0  2  0  0  0  0  0  0
  -28.8440  -12.7490   18.1030 C   0  0  0  0  0  2  0  0  0  0  0  0
  -28.6480  -13.6330   19.3640 C   0  0  0  0  0  3  0  0  0  0  0  0
  -29.7450  -13.3460   20.4170 C   0  0  0  0  0  2  0  0  0  0  0  0
  -31.0570  -13.5150   19.7680 N   0  0  0  0  0  0  0  0  0  0  0  0
  -32.9210  -14.7300   19.2400 O   0  0  0  0  0  0  0  0  0  0  0  0
  -31.2130  -15.7350   20.2140 N   0  0  0  0  0  0  0  0  0  0  0  0
  -31.3890  -16.4810   19.5590 H   0  0  0  0  0  0  0  0  0  0  0  0
  -26.3560  -14.4460   20.2180 C   0  0  0  0  0  0  0  0  0  0  0  0
  -25.2420  -13.7680   20.6380 C   0  0  0  0  0  0  0  0  0  0  0  0
  -25.5690  -12.3810   20.5490 C   0  0  0  0  0  0  0  0  0  0  0  0
  -27.3010  -13.4770   19.9160 N   0  0  0  0  0  0  0  0  0  0  0  0
  -26.8310  -12.2280   20.1650 N   0  0  0  0  0  0  0  0  0  0  0  0
  -24.7350  -11.1870   20.7540 C   0  0  0  0  0  0  0  0  0  0  0  0
  -25.0820  -10.1980   21.7000 C   0  0  0  0  0  3  0  0  0  0  0  0
  -24.2540   -9.0720   21.8940 C   0  0  0  0  0  3  0  0  0  0  0  0
  -23.0640   -8.9280   21.1420 C   0  0  0  0  0  0  0  0  0  0  0  0
  -22.7340   -9.9050   20.1850 C   0  0  0  0  0  3  0  0  0  0  0  0
  -23.5630  -11.0220   19.9900 C   0  0  0  0  0  3  0  0  0  0  0  0
  -22.2130   -7.8540   21.2450 O   0  0  0  0  0  0  0  0  0  0  0  0
  -22.0390   -7.1830   22.4290 C   0  0  0  0  0  0  0  0  0  0  0  0
  -21.6120   -7.8430   23.6040 C   0  0  0  0  0  3  0  0  0  0  0  0
  -21.3770   -7.1030   24.7810 C   0  0  0  0  0  3  0  0  0  0  0  0
  -21.5630   -5.7080   24.7840 C   0  0  0  0  0  0  0  0  0  0  0  0
  -21.9830   -5.0490   23.6160 C   0  0  0  0  0  3  0  0  0  0  0  0
  -22.2160   -5.7840   22.4410 C   0  0  0  0  0  0  0  0  0  0  0  0
  -22.6000   -5.1420   21.3100 F   0  0  0  0  0  0  0  0  0  0  0  0
  -21.3300   -4.9970   25.9120 F   0  0  0  0  0  0  0  0  0  0  0  0
  -23.9150  -14.3680   21.0060 C   0  0  0  0  0  0  0  0  0  0  0  0
  -23.1890  -13.7360   21.9230 N   0  0  0  0  0  0  0  0  0  0  0  0
  -23.5340  -15.4280   20.5140 O   0  0  0  0  0  0  0  0  0  0  0  0
  -23.5110  -12.8760   22.3430 H   0  0  0  0  0  0  0  0  0  0  0  0
  -22.3000  -14.1180   22.2100 H   0  0  0  0  0  0  0  0  0  0  0  0
  -26.6330  -15.7980   20.0480 N   0  0  0  0  0  0  0  0  0  0  0  0
  -25.9250  -16.5110   20.1890 H   0  0  0  0  0  0  0  0  0  0  0  0
  -27.4800  -16.1550   19.6250 H   0  0  0  0  0  0  0  0  0  0  0  0
  -30.4040  -22.5710   20.0090 C   0  0  0  0  0  2  0  0  0  0  0  0
  -30.4170  -23.6710   18.9240 C   0  0  0  0  0  2  0  0  0  0  0  0
  -30.2400  -25.1230   19.4280 C   0  0  0  0  0  2  0  0  0  0  0  0
  -28.8210  -25.6700   19.1970 C   0  0  0  0  0  2  0  0  0  0  0  0
  -28.7400  -27.0290   19.6200 O   0  0  0  0  0  0  0  0  0  0  0  0
  -24.6790  -31.6510   23.1560 C   0  0  0  0  0  0  0  0  0  0  0  0
  -27.4980  -27.6290   19.6840 C   0  0  0  0  0  0  0  0  0  0  0  0
  -23.5040  -30.2920   21.4530 C   0  0  0  0  0  3  0  0  0  0  0  0
  -25.0020  -28.9530   19.8770 C   0  0  0  0  0  0  0  0  0  0  0  0
  -25.9890  -30.8300   21.2010 C   0  0  0  0  0  2  0  0  0  0  0  0
  -26.1390  -29.5130   20.4680 C   0  0  0  0  0  0  0  0  0  0  0  0
  -27.3840  -28.8540   20.3740 C   0  0  0  0  0  3  0  0  0  0  0  0
  -26.3380  -27.0830   19.0820 C   0  0  0  0  0  3  0  0  0  0  0  0
  -25.0960  -27.7350   19.1820 C   0  0  0  0  0  3  0  0  0  0  0  0
  -23.7070  -29.7210   20.0220 C   0  0  0  0  0  2  0  0  0  0  0  0
  -24.7450  -30.9360   21.9970 N   0  0  0  0  0  0  0  0  0  0  0  0
  -23.6020  -31.8130   23.7460 O   0  0  0  0  0  0  0  0  0  0  0  0
  -22.9510  -29.1690   22.3590 C   0  0  0  0  0  0  0  0  0  0  0  0
  -21.6680  -28.8220   22.1650 N   0  0  0  0  0  0  0  0  0  0  0  0
  -23.6750  -28.6060   23.1870 O   0  0  0  0  0  0  0  0  0  0  0  0
  -21.1510  -29.3100   21.4480 H   0  0  0  0  0  0  0  0  0  0  0  0
  -18.4880  -27.1200   22.4110 C   0  0  0  0  0  0  0  0  0  0  0  0
  -20.9460  -27.7680   22.8770 C   0  0  0  0  0  3  0  0  0  0  0  0
  -21.3140  -26.3690   22.3300 C   0  0  0  0  0  2  0  0  0  0  0  0
  -20.3560  -25.8670   21.2440 C   0  0  0  0  0  2  0  0  0  0  0  0
  -18.9200  -25.8120   21.7740 C   0  0  0  0  0  2  0  0  0  0  0  0
  -19.4400  -28.0440   22.9210 C   0  0  0  0  0  0  0  0  0  0  0  0
  -18.9810  -29.2580   23.4790 C   0  0  0  0  0  3  0  0  0  0  0  0
  -17.6070  -29.5550   23.5310 C   0  0  0  0  0  3  0  0  0  0  0  0
  -16.6710  -28.6270   23.0390 C   0  0  0  0  0  3  0  0  0  0  0  0
  -17.1110  -27.4120   22.4860 C   0  0  0  0  0  3  0  0  0  0  0  0
  -25.9420  -32.3190   23.7830 C   0  0  0  0  0  3  0  0  0  0  0  0
  -25.5890  -33.7020   24.1310 N   0  0  0  0  0  0  0  0  0  0  0  0
  -25.8910  -34.7730   23.3870 C   0  0  0  0  0  0  0  0  0  0  0  0
  -26.5690  -34.7050   22.3570 O   0  0  0  0  0  0  0  0  0  0  0  0
  -24.9860  -33.8260   24.9320 H   0  0  0  0  0  0  0  0  0  0  0  0
  -24.1010  -36.5080   23.0520 C   0  0  0  0  0  1  0  0  0  0  0  0
  -25.3560  -36.1390   23.8570 C   0  0  0  0  0  3  0  0  0  0  0  0
  -27.4640  -37.0810   24.6910 C   0  0  0  0  0  1  0  0  0  0  0  0
  -26.3530  -37.2260   23.7550 N   0  0  0  0  0  0  0  0  0  0  0  0
  -25.9200  -38.1310   23.9190 H   0  0  0  0  0  0  0  0  0  0  0  0
  -26.4920  -31.5480   25.0460 C   0  0  1  0  0  0  0  0  0  0  0  0
  -25.4050  -31.2350   26.1010 C   0  0  0  0  0  1  0  0  0  0  0  0
  -27.1410  -30.2100   24.6230 C   0  0  0  0  0  1  0  0  0  0  0  0
  -27.6050  -32.3800   25.7290 C   0  0  0  0  0  1  0  0  0  0  0  0
  1  9  1  0
  1  3  2  0
  2  4  1  0
  2  1  1  0
  5  7  1  0
  6  8  2  0
  6  9  1  0
  8 10  1  0
  9  5  2  0
 10  7  2  0
 11 10  1  0
 12 20  1  0
 13 18  1  0
 14 15  1  0
 14 13  1  0
 16 15  1  0
 16 25  1  0
 16 17  1  0
 18 12  1  0
 18 17  1  0
 19 12  2  0
 20 11  1  0
 21 20  1  0
 22 23  2  0
 23 42  1  0
 24 23  1  0
 24 27  1  0
 25 26  1  0
 25 22  1  0
 26 24  2  0
 27 28  1  0
 28 29  2  0
 30 33  1  0
 30 29  1  0
 31 30  2  0
 32 31  1  0
 32 27  2  0
 33 34  1  0
 34 39  2  0
 34 35  1  0
 35 36  2  0
 36 37  1  0
 37 41  1  0
 38 37  2  0
 39 38  1  0
 40 39  1  0
 42 43  1  0
 43 46  1  0
 43 45  1  0
 44 42  2  0
 47 48  1  0
 47 22  1  0
 49 47  1  0
 50  2  1  0
 51 52  1  0
 51 50  1  0
 53 52  1  0
 53 54  1  0
 54 56  1  0
 55 66  2  0
 56 61  1  0
 57 65  1  0
 57 67  1  0
 58 64  1  0
 58 60  1  0
 59 65  1  0
 60 59  1  0
 61 60  2  0
 62 63  1  0
 62 56  2  0
 63 58  2  0
 64 57  1  0
 65 55  1  0
 67 69  2  0
 68 67  1  0
 70 68  1  0
 71 80  2  0
 71 76  1  0
 72 68  1  0
 72 76  1  0
 73 72  1  0
 74 75  1  0
 74 73  1  0
 75 71  1  0
 76 77  2  0
 77 78  1  0
 79 78  2  0
 80 79  1  0
 81 55  1  0
 81 82  1  0
 81 91  1  0
 82 85  1  0
 83 87  1  0
 83 82  1  0
 84 83  2  0
 87 86  1  0
 89 87  1  0
 89 90  1  0
 89 88  1  0
 91 94  1  1
 91 92  1  0
 93 91  1  0
M  ISO  4  12 100  20 100  53 101  54 101
M  END
>  <TORSDO>  (69) 
F 22

>  <SCORE>  (69) 
-10.281

>  <name>  (69) 
68

>  <ligand_id>  (69) 
68

>  <original_smiles>  (69) 
[H]c1c([H])c([H])c2c(c1[H])C([H])([H])C([H])([H])C([H])([H])C2([H])N([H])C(=O)C1([H])N(C(=O)C([H])(N([H])C(=O)C([H])(N([H])C([H])([H])[H])C([H])([H])[H])C(C([H])([H])[H])(C([H])([H])[H])C([H])([H])[H])C([H])([H])c2c([H])c(OC([H])([H])C([H])([H])C([H])([H])C([H])([H])N([H])C(=O)c3c([H])c([H])c(C([H])([H])N([H])C(=O)N4C([H])([H])C([H])([H])C([H])([H])C([H])(n5nc(-c6c([H])c([H])c(Oc7c([H])c([H])c(F)c([H])c7F)c([H])c6[H])c(C(=O)N([H])[H])c5N([H])[H])C4([H])[H])c([H])c3[H])c([H])c([H])c2C1([H])[H]

>  <smiles>  (69) 
[H]c1c([H])c([H])c2c(c1[H])C([H])([H])C([H])([H])C([H])([H])C2([H])N([H])C(=O)C1([H])N(C(=O)C([H])(N([H])C(=O)C([H])(N([H])C([H])([H])[H])C([H])([H])[H])C(C([H])([H])[H])(C([H])([H])[H])C([H])([H])[H])C([H])([H])c2c([H])c(OC([H])([H])C([H])([H])C([H])([H])C([H])([H])N([H])C(=O)c3c([H])c([H])c(C([H])([H])N([H])C(=O)N4C([H])([H])C([H])([H])C([H])([H])C([H])(n5nc(-c6c([H])c([H])c(Oc7c([H])c([H])c(F)c([H])c7F)c([H])c6[H])c(C(=O)N([H])[H])c5N([H])[H])C4([H])[H])c([H])c3[H])c([H])c([H])c2C1([H])[H]

$$$$
69:0:0
     RDKit          3D

 91100  0  0  1  0  0  0  0  0999 V2000
  -30.2200  -21.8160   20.7900 C   0  0  0  0  0  3  0  0  0  0  0  0
  -29.8970  -23.2150   20.8510 C   0  0  0  0  0  3  0  0  0  0  0  0
  -27.9750  -21.3060   20.1690 C   0  0  0  0  0  3  0  0  0  0  0  0
  -29.2680  -20.8000   20.4830 C   0  0  0  0  0  0  0  0  0  0  0  0
  -28.5870  -23.7110   20.6040 C   0  0  0  0  0  0  0  0  0  0  0  0
  -27.6440  -22.7020   20.2300 C   0  0  0  0  0  0  0  0  0  0  0  0
  -26.3620  -23.0650   19.9910 F   0  0  0  0  0  0  0  0  0  0  0  0
  -30.7670  -14.8210   20.0610 C   0  0  0  0  0  0  0  0  0  0  0  0
  -30.3830  -12.5850   19.0160 C   0  0  0  0  0  2  0  0  0  0  0  0
  -29.3930  -12.6550   17.8370 C   0  0  0  0  0  2  0  0  0  0  0  0
  -27.9520  -12.4680   18.3480 C   0  0  0  0  0  2  0  0  0  0  0  0
  -27.6420  -13.3510   19.5870 C   0  0  0  0  0  3  0  0  0  0  0  0
  -28.7660  -13.2980   20.6470 C   0  0  0  0  0  2  0  0  0  0  0  0
  -30.0080  -13.6690   19.9610 N   0  0  0  0  0  0  0  0  0  0  0  0
  -31.9580  -14.7220   19.7520 O   0  0  0  0  0  0  0  0  0  0  0  0
  -28.5350  -18.1400   20.5620 C   0  0  0  0  0  2  0  0  0  0  0  0
  -30.6560  -18.7070   19.5860 C   0  0  0  0  0  2  0  0  0  0  0  0
  -29.0150  -16.6390   20.8420 C   0  0  0  0  0  2  0  0  0  0  0  0
  -31.2000  -17.2660   19.9000 C   0  0  0  0  0  2  0  0  0  0  0  0
  -29.6410  -19.2450   20.6100 C   0  0  0  0  0  3  0  0  0  0  0  0
  -30.2370  -16.1310   20.1400 N   0  0  0  0  0  0  0  0  0  0  0  0
  -25.3020  -13.9200   20.4610 C   0  0  0  0  0  0  0  0  0  0  0  0
  -24.2590  -13.1360   20.8680 C   0  0  0  0  0  0  0  0  0  0  0  0
  -24.7220  -11.7870   20.7840 C   0  0  0  0  0  0  0  0  0  0  0  0
  -26.3320  -13.0480   20.1510 N   0  0  0  0  0  0  0  0  0  0  0  0
  -25.9950  -11.7580   20.4110 N   0  0  0  0  0  0  0  0  0  0  0  0
  -24.0050  -10.5200   20.9800 C   0  0  0  0  0  0  0  0  0  0  0  0
  -24.4570   -9.5500   21.9010 C   0  0  0  0  0  3  0  0  0  0  0  0
  -23.7370   -8.3490   22.0860 C   0  0  0  0  0  3  0  0  0  0  0  0
  -22.5510   -8.1130   21.3520 C   0  0  0  0  0  0  0  0  0  0  0  0
  -22.1200   -9.0700   20.4190 C   0  0  0  0  0  3  0  0  0  0  0  0
  -22.8380  -10.2630   20.2300 C   0  0  0  0  0  3  0  0  0  0  0  0
  -21.8020   -6.9640   21.4490 O   0  0  0  0  0  0  0  0  0  0  0  0
  -21.7460   -6.2360   22.6100 C   0  0  0  0  0  0  0  0  0  0  0  0
  -21.2750   -6.7950   23.8190 C   0  0  0  0  0  3  0  0  0  0  0  0
  -21.1710   -5.9910   24.9720 C   0  0  0  0  0  3  0  0  0  0  0  0
  -21.5270   -4.6300   24.9170 C   0  0  0  0  0  0  0  0  0  0  0  0
  -21.9900   -4.0720   23.7130 C   0  0  0  0  0  3  0  0  0  0  0  0
  -22.0970   -4.8710   22.5630 C   0  0  0  0  0  0  0  0  0  0  0  0
  -22.5250   -4.3230   21.4000 F   0  0  0  0  0  0  0  0  0  0  0  0
  -21.4190   -3.8570   26.0220 F   0  0  0  0  0  0  0  0  0  0  0  0
  -22.8780  -13.6080   21.2170 C   0  0  0  0  0  0  0  0  0  0  0  0
  -22.1920  -12.8940   22.1010 N   0  0  0  0  0  0  0  0  0  0  0  0
  -22.4180  -14.6440   20.7420 O   0  0  0  0  0  0  0  0  0  0  0  0
  -22.5780  -12.0540   22.5080 H   0  0  0  0  0  0  0  0  0  0  0  0
  -21.2660  -13.1910   22.3750 H   0  0  0  0  0  0  0  0  0  0  0  0
  -25.4510  -15.2950   20.2990 N   0  0  0  0  0  0  0  0  0  0  0  0
  -24.6830  -15.9360   20.4640 H   0  0  0  0  0  0  0  0  0  0  0  0
  -26.2690  -15.7470   19.9190 H   0  0  0  0  0  0  0  0  0  0  0  0
  -28.1100  -25.1750   21.0320 C   0  0  0  0  0  2  0  0  0  0  0  0
  -28.3900  -26.4470   20.2960 O   0  0  0  0  0  0  0  0  0  0  0  0
  -24.5960  -31.8950   23.2520 C   0  0  0  0  0  0  0  0  0  0  0  0
  -27.3110  -27.3500   20.2450 C   0  0  0  0  0  0  0  0  0  0  0  0
  -23.4410  -30.4840   21.5880 C   0  0  0  0  0  3  0  0  0  0  0  0
  -24.9370  -28.9520   20.1840 C   0  0  0  0  0  0  0  0  0  0  0  0
  -25.9820  -30.8280   21.4520 C   0  0  0  0  0  2  0  0  0  0  0  0
  -26.0930  -29.4500   20.8030 C   0  0  0  0  0  0  0  0  0  0  0  0
  -27.2880  -28.6650   20.8200 C   0  0  0  0  0  3  0  0  0  0  0  0
  -26.1380  -26.9140   19.5970 C   0  0  0  0  0  3  0  0  0  0  0  0
  -24.9640  -27.6910   19.5690 C   0  0  0  0  0  3  0  0  0  0  0  0
  -23.6890  -29.8130   20.2110 C   0  0  0  0  0  2  0  0  0  0  0  0
  -24.6900  -31.0860   22.1550 N   0  0  0  0  0  0  0  0  0  0  0  0
  -23.4990  -32.1570   23.7660 O   0  0  0  0  0  0  0  0  0  0  0  0
  -22.7700  -29.4600   22.5340 C   0  0  0  0  0  0  0  0  0  0  0  0
  -21.4440  -29.2870   22.3980 N   0  0  0  0  0  0  0  0  0  0  0  0
  -23.4420  -28.8260   23.3510 O   0  0  0  0  0  0  0  0  0  0  0  0
  -20.9620  -29.8500   21.7100 H   0  0  0  0  0  0  0  0  0  0  0  0
  -18.0560  -28.1130   22.8960 C   0  0  0  0  0  0  0  0  0  0  0  0
  -20.6180  -28.3420   23.1540 C   0  0  0  0  0  3  0  0  0  0  0  0
  -20.7020  -26.9220   22.5510 C   0  0  0  0  0  2  0  0  0  0  0  0
  -19.5910  -26.6300   21.5380 C   0  0  0  0  0  2  0  0  0  0  0  0
  -18.2160  -26.7760   22.1930 C   0  0  0  0  0  2  0  0  0  0  0  0
  -19.1840  -28.8560   23.3340 C   0  0  0  0  0  0  0  0  0  0  0  0
  -18.9820  -30.1080   23.9530 C   0  0  0  0  0  3  0  0  0  0  0  0
  -17.6820  -30.6180   24.1370 C   0  0  0  0  0  3  0  0  0  0  0  0
  -16.5680  -29.8710   23.7160 C   0  0  0  0  0  3  0  0  0  0  0  0
  -16.7550  -28.6210   23.1020 C   0  0  0  0  0  3  0  0  0  0  0  0
  -25.8580  -32.5430   23.8990 C   0  0  0  0  0  3  0  0  0  0  0  0
  -25.5350  -33.9440   24.2030 N   0  0  0  0  0  0  0  0  0  0  0  0
  -25.8820  -34.9890   23.4400 C   0  0  0  0  0  0  0  0  0  0  0  0
  -26.5800  -34.8770   22.4290 O   0  0  0  0  0  0  0  0  0  0  0  0
  -24.9210  -34.1060   24.9890 H   0  0  0  0  0  0  0  0  0  0  0  0
  -24.1650  -36.7780   23.0080 C   0  0  0  0  0  1  0  0  0  0  0  0
  -25.3770  -36.3820   23.8670 C   0  0  0  0  0  3  0  0  0  0  0  0
  -27.4780  -37.2780   24.7690 C   0  0  0  0  0  1  0  0  0  0  0  0
  -26.4110  -37.4370   23.7840 N   0  0  0  0  0  0  0  0  0  0  0  0
  -25.9970  -38.3550   23.9120 H   0  0  0  0  0  0  0  0  0  0  0  0
  -26.3440  -31.7920   25.2000 C   0  0  1  0  0  0  0  0  0  0  0  0
  -25.2210  -31.5570   26.2390 C   0  0  0  0  0  1  0  0  0  0  0  0
  -26.9500  -30.4150   24.8440 C   0  0  0  0  0  1  0  0  0  0  0  0
  -27.4710  -32.6030   25.8830 C   0  0  0  0  0  1  0  0  0  0  0  0
  1  2  1  0
  3  6  2  0
  3  4  1  0
  4  1  2  0
  5  2  2  0
  5 50  1  0
  6  5  1  0
  7  6  1  0
  8 21  1  0
  9 14  1  0
 10 11  1  0
 10  9  1  0
 12 11  1  0
 12 25  1  0
 12 13  1  0
 14  8  1  0
 14 13  1  0
 15  8  2  0
 16 20  1  0
 16 18  1  0
 17 19  1  0
 17 20  1  0
 19 21  1  0
 20  4  1  0
 21 18  1  0
 22 23  2  0
 23 42  1  0
 24 23  1  0
 24 27  1  0
 25 26  1  0
 25 22  1  0
 26 24  2  0
 27 28  1  0
 28 29  2  0
 30 33  1  0
 30 29  1  0
 31 30  2  0
 32 31  1  0
 32 27  2  0
 33 34  1  0
 34 35  1  0
 35 36  2  0
 37 36  1  0
 37 41  1  0
 38 37  2  0
 39 34  2  0
 39 38  1  0
 40 39  1  0
 42 43  1  0
 43 46  1  0
 43 45  1  0
 44 42  2  0
 47 22  1  0
 47 48  1  0
 49 47  1  0
 51 50  1  0
 52 63  2  0
 53 51  1  0
 53 58  1  0
 54 62  1  0
 54 64  1  0
 55 61  1  0
 55 57  1  0
 56 62  1  0
 57 58  2  0
 57 56  1  0
 59 53  2  0
 60 59  1  0
 60 55  2  0
 61 54  1  0
 62 52  1  0
 64 66  2  0
 65 64  1  0
 67 65  1  0
 68 77  2  0
 68 73  1  0
 69 65  1  0
 69 73  1  0
 70 69  1  0
 71 72  1  0
 71 70  1  0
 72 68  1  0
 73 74  2  0
 74 75  1  0
 76 75  2  0
 77 76  1  0
 78 52  1  0
 78 79  1  0
 78 88  1  0
 79 82  1  0
 80 84  1  0
 80 79  1  0
 81 80  2  0
 84 83  1  0
 86 84  1  0
 86 87  1  0
 86 85  1  0
 88 91  1  1
 88 89  1  0
 90 88  1  0
M  ISO  4   8 100  21 100  50 101  51 101
M  END
>  <TORSDO>  (70) 
F 17

>  <SCORE>  (70) 
-15.279

>  <name>  (70) 
69

>  <ligand_id>  (70) 
69

>  <original_smiles>  (70) 
[H]c1c([H])c([H])c2c(c1[H])C([H])([H])C([H])([H])C([H])([H])C2([H])N([H])C(=O)C1([H])N(C(=O)C([H])(N([H])C(=O)C([H])(N([H])C([H])([H])[H])C([H])([H])[H])C(C([H])([H])[H])(C([H])([H])[H])C([H])([H])[H])C([H])([H])c2c([H])c(OC([H])([H])c3c([H])c([H])c(C4([H])C([H])([H])C([H])([H])N(C(=O)N5C([H])([H])C([H])([H])C([H])([H])C([H])(n6nc(-c7c([H])c([H])c(Oc8c([H])c([H])c(F)c([H])c8F)c([H])c7[H])c(C(=O)N([H])[H])c6N([H])[H])C5([H])[H])C([H])([H])C4([H])[H])c([H])c3F)c([H])c([H])c2C1([H])[H]

>  <smiles>  (70) 
[H]c1c([H])c([H])c2c(c1[H])C([H])([H])C([H])([H])C([H])([H])C2([H])N([H])C(=O)C1([H])N(C(=O)C([H])(N([H])C(=O)C([H])(N([H])C([H])([H])[H])C([H])([H])[H])C(C([H])([H])[H])(C([H])([H])[H])C([H])([H])[H])C([H])([H])c2c([H])c(OC([H])([H])c3c([H])c([H])c(C4([H])C([H])([H])C([H])([H])N(C(=O)N5C([H])([H])C([H])([H])C([H])([H])C([H])(n6nc(-c7c([H])c([H])c(Oc8c([H])c([H])c(F)c([H])c8F)c([H])c7[H])c(C(=O)N([H])[H])c6N([H])[H])C5([H])[H])C([H])([H])C4([H])[H])c([H])c3F)c([H])c([H])c2C1([H])[H]

$$$$
70:0:0
     RDKit          3D

 92100  0  0  1  0  0  0  0  0999 V2000
  -27.9390  -21.8940   20.7260 C   0  0  0  0  0  2  0  0  0  0  0  0
  -28.5030  -18.0980   20.3010 C   0  0  0  0  0  3  0  0  0  0  0  0
  -30.3620  -19.0050   21.5730 C   0  0  0  0  0  3  0  0  0  0  0  0
  -27.9810  -19.4010   20.1350 C   0  0  0  0  0  3  0  0  0  0  0  0
  -29.8390  -20.3090   21.4100 C   0  0  0  0  0  3  0  0  0  0  0  0
  -29.6800  -17.8830   21.0510 C   0  0  0  0  0  0  0  0  0  0  0  0
  -28.6260  -20.5190   20.7140 C   0  0  0  0  0  0  0  0  0  0  0  0
  -30.1700  -16.4620   21.3430 C   0  0  0  0  0  2  0  0  0  0  0  0
  -31.0560  -14.5510   20.0630 C   0  0  0  0  0  0  0  0  0  0  0  0
  -30.6810  -12.3980   18.9380 C   0  0  0  0  0  2  0  0  0  0  0  0
  -29.7080  -12.6510   17.7690 C   0  0  0  0  0  2  0  0  0  0  0  0
  -28.2430  -12.5570   18.2430 C   0  0  0  0  0  2  0  0  0  0  0  0
  -27.9700  -13.3750   19.5340 C   0  0  0  0  0  3  0  0  0  0  0  0
  -29.0610  -13.1150   20.5980 C   0  0  0  0  0  2  0  0  0  0  0  0
  -30.3650  -13.3850   19.9780 N   0  0  0  0  0  0  0  0  0  0  0  0
  -32.2140  -14.6810   19.6640 O   0  0  0  0  0  0  0  0  0  0  0  0
  -30.2870  -15.6440   20.1430 N   0  0  0  0  0  0  0  0  0  0  0  0
  -30.4810  -16.2510   19.3630 H   0  0  0  0  0  0  0  0  0  0  0  0
  -25.6080  -14.0360   20.3140 C   0  0  0  0  0  0  0  0  0  0  0  0
  -24.5330  -13.2840   20.7100 C   0  0  0  0  0  0  0  0  0  0  0  0
  -24.9640  -11.9230   20.6640 C   0  0  0  0  0  0  0  0  0  0  0  0
  -26.6270  -13.1320   20.0540 N   0  0  0  0  0  0  0  0  0  0  0  0
  -26.2450  -11.8580   20.3220 N   0  0  0  0  0  0  0  0  0  0  0  0
  -24.2170  -10.6750   20.8720 C   0  0  0  0  0  0  0  0  0  0  0  0
  -24.6290   -9.7210   21.8290 C   0  0  0  0  0  3  0  0  0  0  0  0
  -23.8870   -8.5360   22.0260 C   0  0  0  0  0  3  0  0  0  0  0  0
  -22.7170   -8.2970   21.2640 C   0  0  0  0  0  0  0  0  0  0  0  0
  -22.3240   -9.2380   20.2970 C   0  0  0  0  0  3  0  0  0  0  0  0
  -23.0670  -10.4140   20.0990 C   0  0  0  0  0  3  0  0  0  0  0  0
  -21.9490   -7.1630   21.3690 O   0  0  0  0  0  0  0  0  0  0  0  0
  -21.8380   -6.4740   22.5490 C   0  0  0  0  0  0  0  0  0  0  0  0
  -21.3720   -7.0910   23.7310 C   0  0  0  0  0  3  0  0  0  0  0  0
  -21.2050   -6.3280   24.9040 C   0  0  0  0  0  3  0  0  0  0  0  0
  -21.4970   -4.9510   24.8960 C   0  0  0  0  0  0  0  0  0  0  0  0
  -21.9580   -4.3350   23.7190 C   0  0  0  0  0  3  0  0  0  0  0  0
  -22.1260   -5.0940   22.5490 C   0  0  0  0  0  0  0  0  0  0  0  0
  -22.5500   -4.4920   21.4110 F   0  0  0  0  0  0  0  0  0  0  0  0
  -21.3300   -4.2160   26.0200 F   0  0  0  0  0  0  0  0  0  0  0  0
  -23.1520  -13.7880   21.0170 C   0  0  0  0  0  0  0  0  0  0  0  0
  -22.4380  -13.1120   21.9110 N   0  0  0  0  0  0  0  0  0  0  0  0
  -22.7150  -14.8150   20.5010 O   0  0  0  0  0  0  0  0  0  0  0  0
  -22.8050  -12.2800   22.3490 H   0  0  0  0  0  0  0  0  0  0  0  0
  -21.5120  -13.4310   22.1610 H   0  0  0  0  0  0  0  0  0  0  0  0
  -25.7970  -15.4030   20.1300 N   0  0  0  0  0  0  0  0  0  0  0  0
  -25.0570  -16.0870   20.2520 H   0  0  0  0  0  0  0  0  0  0  0  0
  -26.6570  -15.8080   19.7820 H   0  0  0  0  0  0  0  0  0  0  0  0
  -28.5620  -22.9720   19.9180 N   0  0  0  0  0  4  0  0  0  0  0  0
  -28.4370  -22.7490   18.9420 H   0  0  0  0  0  0  0  0  0  0  0  0
  -29.5560  -22.9820   20.0950 H   0  0  0  0  0  0  0  0  0  0  0  0
  -27.9680  -24.3100   20.2340 C   0  0  0  0  0  2  0  0  0  0  0  0
  -28.4670  -25.4940   19.3680 C   0  0  0  0  0  2  0  0  0  0  0  0
  -28.3300  -26.7680   20.0270 O   0  0  0  0  0  0  0  0  0  0  0  0
  -24.5210  -31.8890   23.2090 C   0  0  0  0  0  0  0  0  0  0  0  0
  -27.1290  -27.4560   20.0400 C   0  0  0  0  0  0  0  0  0  0  0  0
  -23.2920  -30.4980   21.5740 C   0  0  0  0  0  3  0  0  0  0  0  0
  -24.7260  -28.9640   20.1190 C   0  0  0  0  0  0  0  0  0  0  0  0
  -25.8150  -30.8470   21.3490 C   0  0  0  0  0  2  0  0  0  0  0  0
  -25.8910  -29.4780   20.7000 C   0  0  0  0  0  0  0  0  0  0  0  0
  -27.0900  -28.7280   20.6650 C   0  0  0  0  0  3  0  0  0  0  0  0
  -25.9420  -26.9580   19.4540 C   0  0  0  0  0  3  0  0  0  0  0  0
  -24.7460  -27.7060   19.4930 C   0  0  0  0  0  3  0  0  0  0  0  0
  -23.4860  -29.8290   20.1860 C   0  0  0  0  0  2  0  0  0  0  0  0
  -24.5610  -31.0940   22.1020 N   0  0  0  0  0  0  0  0  0  0  0  0
  -23.4480  -32.1600   23.7670 O   0  0  0  0  0  0  0  0  0  0  0  0
  -22.6550  -29.4700   22.5360 C   0  0  0  0  0  0  0  0  0  0  0  0
  -21.3330  -29.2660   22.4040 N   0  0  0  0  0  0  0  0  0  0  0  0
  -23.3420  -28.8610   23.3570 O   0  0  0  0  0  0  0  0  0  0  0  0
  -20.8420  -29.7830   21.6870 H   0  0  0  0  0  0  0  0  0  0  0  0
  -17.9680  -28.0630   22.9410 C   0  0  0  0  0  0  0  0  0  0  0  0
  -20.5260  -28.3420   23.1980 C   0  0  0  0  0  3  0  0  0  0  0  0
  -20.6290  -26.8990   22.6550 C   0  0  0  0  0  2  0  0  0  0  0  0
  -19.5370  -26.5770   21.6290 C   0  0  0  0  0  2  0  0  0  0  0  0
  -18.1580  -26.7070   22.2830 C   0  0  0  0  0  2  0  0  0  0  0  0
  -19.0830  -28.8410   23.3540 C   0  0  0  0  0  0  0  0  0  0  0  0
  -18.8570  -30.1100   23.9260 C   0  0  0  0  0  3  0  0  0  0  0  0
  -17.5500  -30.6030   24.0910 C   0  0  0  0  0  3  0  0  0  0  0  0
  -16.4510  -29.8240   23.6990 C   0  0  0  0  0  3  0  0  0  0  0  0
  -16.6610  -28.5540   23.1300 C   0  0  0  0  0  3  0  0  0  0  0  0
  -25.8160  -32.5160   23.8150 C   0  0  0  0  0  3  0  0  0  0  0  0
  -25.5160  -33.9130   24.1530 N   0  0  0  0  0  0  0  0  0  0  0  0
  -25.8470  -34.9670   23.3940 C   0  0  0  0  0  0  0  0  0  0  0  0
  -26.5090  -34.8620   22.3570 O   0  0  0  0  0  0  0  0  0  0  0  0
  -24.9280  -34.0720   24.9590 H   0  0  0  0  0  0  0  0  0  0  0  0
  -24.1240  -36.7680   23.0500 C   0  0  0  0  0  1  0  0  0  0  0  0
  -25.3660  -36.3560   23.8570 C   0  0  0  0  0  3  0  0  0  0  0  0
  -27.5080  -37.2260   24.6850 C   0  0  0  0  0  1  0  0  0  0  0  0
  -26.4020  -37.4050   23.7460 N   0  0  0  0  0  0  0  0  0  0  0  0
  -26.0020  -38.3270   23.8980 H   0  0  0  0  0  0  0  0  0  0  0  0
  -26.3510  -31.7380   25.0780 C   0  0  1  0  0  0  0  0  0  0  0  0
  -25.2740  -31.4920   26.1610 C   0  0  0  0  0  1  0  0  0  0  0  0
  -26.9270  -30.3650   24.6660 C   0  0  0  0  0  1  0  0  0  0  0  0
  -27.5130  -32.5270   25.7260 C   0  0  0  0  0  1  0  0  0  0  0  0
  2  6  1  0
  4  2  2  0
  4  7  1  0
  5  3  1  0
  6  8  1  0
  6  3  2  0
  7  1  1  0
  7  5  2  0
  9 17  1  0
 10 15  1  0
 11 12  1  0
 11 10  1  0
 13 12  1  0
 13 22  1  0
 13 14  1  0
 15  9  1  0
 15 14  1  0
 16  9  2  0
 17  8  1  0
 18 17  1  0
 19 20  2  0
 20 39  1  0
 21 20  1  0
 21 24  1  0
 22 19  1  0
 22 23  1  0
 23 21  2  0
 24 25  1  0
 25 26  2  0
 27 30  1  0
 27 26  1  0
 28 27  2  0
 29 28  1  0
 29 24  2  0
 30 31  1  0
 31 32  1  0
 32 33  2  0
 34 33  1  0
 34 38  1  0
 35 34  2  0
 36 31  2  0
 36 35  1  0
 37 36  1  0
 39 40  1  0
 40 43  1  0
 40 42  1  0
 41 39  2  0
 44 45  1  0
 44 19  1  0
 46 44  1  0
 47 49  1  0
 47 50  1  0
 47  1  1  0
 48 47  1  0
 51 52  1  0
 51 50  1  0
 52 54  1  0
 53 64  2  0
 54 59  1  0
 55 63  1  0
 55 65  1  0
 56 62  1  0
 56 58  1  0
 57 63  1  0
 58 57  1  0
 59 58  2  0
 60 61  1  0
 60 54  2  0
 61 56  2  0
 62 55  1  0
 63 53  1  0
 65 67  2  0
 66 65  1  0
 68 66  1  0
 69 78  2  0
 69 74  1  0
 70 66  1  0
 70 74  1  0
 71 70  1  0
 72 73  1  0
 72 71  1  0
 73 69  1  0
 74 75  2  0
 75 76  1  0
 77 76  2  0
 78 77  1  0
 79 53  1  0
 79 80  1  0
 79 89  1  0
 80 83  1  0
 81 85  1  0
 81 80  1  0
 82 81  2  0
 85 84  1  0
 87 85  1  0
 87 88  1  0
 87 86  1  0
 89 92  1  1
 89 90  1  0
 91 89  1  0
M  ISO  4   9 100  17 100  51 101  52 101
M  END
>  <TORSDO>  (71) 
F 21

>  <SCORE>  (71) 
-13.256

>  <name>  (71) 
70

>  <ligand_id>  (71) 
70

>  <original_smiles>  (71) 
[H]c1c([H])c([H])c2c(c1[H])C([H])([H])C([H])([H])C([H])([H])C2([H])N([H])C(=O)C1([H])N(C(=O)C([H])(N([H])C(=O)C([H])(N([H])C([H])([H])[H])C([H])([H])[H])C(C([H])([H])[H])(C([H])([H])[H])C([H])([H])[H])C([H])([H])c2c([H])c(OC([H])([H])C([H])([H])[N+]([H])([H])C([H])([H])c3c([H])c([H])c(C([H])([H])N([H])C(=O)N4C([H])([H])C([H])([H])C([H])([H])C([H])(n5nc(-c6c([H])c([H])c(Oc7c([H])c([H])c(F)c([H])c7F)c([H])c6[H])c(C(=O)N([H])[H])c5N([H])[H])C4([H])[H])c([H])c3[H])c([H])c([H])c2C1([H])[H]

>  <smiles>  (71) 
[H]c1c([H])c([H])c2c(c1[H])C([H])([H])C([H])([H])C([H])([H])C2([H])N([H])C(=O)C1([H])N(C(=O)C([H])(N([H])C(=O)C([H])(N([H])C([H])([H])[H])C([H])([H])[H])C(C([H])([H])[H])(C([H])([H])[H])C([H])([H])[H])C([H])([H])c2c([H])c(OC([H])([H])C([H])([H])[N+]([H])([H])C([H])([H])c3c([H])c([H])c(C([H])([H])N([H])C(=O)N4C([H])([H])C([H])([H])C([H])([H])C([H])(n5nc(-c6c([H])c([H])c(Oc7c([H])c([H])c(F)c([H])c7F)c([H])c6[H])c(C(=O)N([H])[H])c5N([H])[H])C4([H])[H])c([H])c3[H])c([H])c([H])c2C1([H])[H]

$$$$
71:0:0
     RDKit          3D

 86 94  0  0  1  0  0  0  0  0999 V2000
  -31.1700  -20.9320   20.4430 C   0  0  0  0  0  3  0  0  0  0  0  0
  -30.2760  -22.0570   20.4060 C   0  0  0  0  0  3  0  0  0  0  0  0
  -30.8430  -19.5330   20.3890 C   0  0  0  0  0  3  0  0  0  0  0  0
  -28.5970  -20.3530   20.2540 C   0  0  0  0  0  3  0  0  0  0  0  0
  -28.8660  -21.9710   20.3050 C   0  0  0  0  0  0  0  0  0  0  0  0
  -29.5320  -19.0050   20.2890 C   0  0  0  0  0  0  0  0  0  0  0  0
  -30.1920  -15.8550   20.2000 C   0  0  0  0  0  0  0  0  0  0  0  0
  -30.3410  -13.2850   19.3630 C   0  0  0  0  0  2  0  0  0  0  0  0
  -29.4560  -12.8160   18.1690 C   0  0  0  0  0  2  0  0  0  0  0  0
  -28.0490  -12.4220   18.6400 C   0  0  0  0  0  2  0  0  0  0  0  0
  -27.5220  -13.4180   19.6950 C   0  0  0  0  0  3  0  0  0  0  0  0
  -28.5540  -13.7840   20.7920 C   0  0  0  0  0  2  0  0  0  0  0  0
  -29.6910  -14.4650   20.1150 N   0  0  0  0  0  0  0  0  0  0  0  0
  -31.4300  -15.7760   20.0400 O   0  0  0  0  0  0  0  0  0  0  0  0
  -29.4130  -17.2430   20.2600 N   0  0  0  0  0  0  0  0  0  0  0  0
  -28.4360  -16.9880   20.2920 H   0  0  0  0  0  0  0  0  0  0  0  0
  -25.1650  -13.9080   20.4880 C   0  0  0  0  0  0  0  0  0  0  0  0
  -24.1200  -13.1120   20.8580 C   0  0  0  0  0  0  0  0  0  0  0  0
  -24.6060  -11.7690   20.8140 C   0  0  0  0  0  0  0  0  0  0  0  0
  -26.2190  -13.0530   20.2290 N   0  0  0  0  0  0  0  0  0  0  0  0
  -25.8990  -11.7570   20.4910 N   0  0  0  0  0  0  0  0  0  0  0  0
  -23.8950  -10.4960   20.9990 C   0  0  0  0  0  0  0  0  0  0  0  0
  -24.3210   -9.5410   21.9480 C   0  0  0  0  0  3  0  0  0  0  0  0
  -23.6030   -8.3370   22.1240 C   0  0  0  0  0  3  0  0  0  0  0  0
  -22.4450   -8.0810   21.3530 C   0  0  0  0  0  0  0  0  0  0  0  0
  -22.0370   -9.0260   20.3930 C   0  0  0  0  0  3  0  0  0  0  0  0
  -22.7560  -10.2200   20.2160 C   0  0  0  0  0  3  0  0  0  0  0  0
  -21.7000   -6.9290   21.4370 O   0  0  0  0  0  0  0  0  0  0  0  0
  -21.6170   -6.2090   22.6020 C   0  0  0  0  0  0  0  0  0  0  0  0
  -21.1080   -6.7740   23.7910 C   0  0  0  0  0  3  0  0  0  0  0  0
  -20.9740   -5.9790   24.9470 C   0  0  0  0  0  3  0  0  0  0  0  0
  -21.3410   -4.6210   24.9140 C   0  0  0  0  0  0  0  0  0  0  0  0
  -21.8440   -4.0550   23.7290 C   0  0  0  0  0  3  0  0  0  0  0  0
  -21.9780   -4.8470   22.5760 C   0  0  0  0  0  0  0  0  0  0  0  0
  -22.4430   -4.2910   21.4310 F   0  0  0  0  0  0  0  0  0  0  0  0
  -21.2070   -3.8540   26.0220 F   0  0  0  0  0  0  0  0  0  0  0  0
  -22.7170  -13.5690   21.1330 C   0  0  0  0  0  0  0  0  0  0  0  0
  -22.0030  -12.8670   22.0040 N   0  0  0  0  0  0  0  0  0  0  0  0
  -22.2660  -14.5890   20.6110 O   0  0  0  0  0  0  0  0  0  0  0  0
  -22.3830  -12.0440   22.4480 H   0  0  0  0  0  0  0  0  0  0  0  0
  -21.0620  -13.1570   22.2300 H   0  0  0  0  0  0  0  0  0  0  0  0
  -25.3030  -15.2820   20.3150 N   0  0  0  0  0  0  0  0  0  0  0  0
  -24.5210  -15.9180   20.4310 H   0  0  0  0  0  0  0  0  0  0  0  0
  -26.1290  -15.7320   19.9470 H   0  0  0  0  0  0  0  0  0  0  0  0
  -27.9040  -23.6280   20.2440 C   0  0  0  0  0  2  0  0  0  0  0  0
  -28.1320  -25.4200   20.3730 O   0  0  0  0  0  0  0  0  0  0  0  0
  -24.6750  -31.8720   23.2620 C   0  0  0  0  0  0  0  0  0  0  0  0
  -27.1850  -26.6880   20.3150 C   0  0  0  0  0  0  0  0  0  0  0  0
  -23.4950  -30.4780   21.6190 C   0  0  0  0  0  3  0  0  0  0  0  0
  -24.9430  -28.7980   20.2290 C   0  0  0  0  0  0  0  0  0  0  0  0
  -26.0790  -30.5740   21.5310 C   0  0  0  0  0  2  0  0  0  0  0  0
  -26.1380  -29.1300   20.8780 C   0  0  0  0  0  0  0  0  0  0  0  0
  -27.2390  -28.1060   20.8840 C   0  0  0  0  0  3  0  0  0  0  0  0
  -25.9550  -26.5930   19.6070 C   0  0  0  0  0  3  0  0  0  0  0  0
  -24.8960  -27.5580   19.5690 C   0  0  0  0  0  3  0  0  0  0  0  0
  -23.7460  -29.7690   20.2550 C   0  0  0  0  0  2  0  0  0  0  0  0
  -24.7750  -31.0100   22.1900 N   0  0  0  0  0  0  0  0  0  0  0  0
  -23.5770  -32.1850   23.7580 O   0  0  0  0  0  0  0  0  0  0  0  0
  -22.7530  -29.5170   22.5880 C   0  0  0  0  0  0  0  0  0  0  0  0
  -21.4200  -29.3750   22.4510 N   0  0  0  0  0  0  0  0  0  0  0  0
  -23.3920  -28.8940   23.4400 O   0  0  0  0  0  0  0  0  0  0  0  0
  -20.9530  -29.9280   21.7440 H   0  0  0  0  0  0  0  0  0  0  0  0
  -18.0190  -28.1820   22.9320 C   0  0  0  0  0  0  0  0  0  0  0  0
  -20.5780  -28.4480   23.2190 C   0  0  0  0  0  3  0  0  0  0  0  0
  -20.6800  -27.0100   22.6570 C   0  0  0  0  0  2  0  0  0  0  0  0
  -19.5890  -26.6850   21.6310 C   0  0  0  0  0  2  0  0  0  0  0  0
  -18.2010  -26.8320   22.2590 C   0  0  0  0  0  2  0  0  0  0  0  0
  -19.1330  -28.9480   23.3680 C   0  0  0  0  0  0  0  0  0  0  0  0
  -18.9060  -30.2070   23.9630 C   0  0  0  0  0  3  0  0  0  0  0  0
  -17.5980  -30.7030   24.1240 C   0  0  0  0  0  3  0  0  0  0  0  0
  -16.4980  -29.9370   23.7000 C   0  0  0  0  0  3  0  0  0  0  0  0
  -16.7090  -28.6770   23.1110 C   0  0  0  0  0  3  0  0  0  0  0  0
  -25.9330  -32.5200   23.9170 C   0  0  0  0  0  3  0  0  0  0  0  0
  -25.6150  -33.9250   24.2440 N   0  0  0  0  0  0  0  0  0  0  0  0
  -25.9320  -34.9870   23.4900 C   0  0  0  0  0  0  0  0  0  0  0  0
  -26.5750  -34.8860   22.4430 O   0  0  0  0  0  0  0  0  0  0  0  0
  -25.0360  -34.0750   25.0570 H   0  0  0  0  0  0  0  0  0  0  0  0
  -24.1820  -36.7830   23.2210 C   0  0  0  0  0  1  0  0  0  0  0  0
  -25.4640  -36.3790   23.9670 C   0  0  0  0  0  3  0  0  0  0  0  0
  -27.6290  -37.2890   24.6910 C   0  0  0  0  0  1  0  0  0  0  0  0
  -26.4850  -37.4380   23.7970 N   0  0  0  0  0  0  0  0  0  0  0  0
  -26.0790  -38.3570   23.9500 H   0  0  0  0  0  0  0  0  0  0  0  0
  -26.4050  -31.7660   25.2230 C   0  0  1  0  0  0  0  0  0  0  0  0
  -25.2830  -31.5600   26.2680 C   0  0  0  0  0  1  0  0  0  0  0  0
  -26.9830  -30.3740   24.8840 C   0  0  0  0  0  1  0  0  0  0  0  0
  -27.5480  -32.5590   25.9010 C   0  0  0  0  0  1  0  0  0  0  0  0
  2  1  1  0
  3  1  2  0
  4  6  2  0
  4  5  1  0
  5  2  2  0
  6  3  1  0
  7 15  1  0
  8 13  1  0
  9 10  1  0
  9  8  1  0
 11 10  1  0
 11 20  1  0
 11 12  1  0
 13  7  1  0
 13 12  1  0
 14  7  2  0
 15  6  1  0
 15 16  1  0
 17 18  2  0
 18 37  1  0
 19 18  1  0
 19 22  1  0
 20 17  1  0
 20 21  1  0
 21 19  2  0
 22 23  1  0
 23 24  2  0
 25 28  1  0
 25 24  1  0
 26 25  2  0
 27 26  1  0
 27 22  2  0
 28 29  1  0
 29 30  1  0
 30 31  2  0
 32 31  1  0
 32 36  1  0
 33 32  2  0
 34 29  2  0
 34 33  1  0
 35 34  1  0
 37 38  1  0
 38 41  1  0
 38 40  1  0
 39 37  2  0
 42 43  1  0
 42 17  1  0
 44 42  1  0
 45  5  1  0
 45 46  1  0
 47 58  2  0
 48 46  1  0
 48 53  1  0
 49 57  1  0
 49 59  1  0
 50 56  1  0
 50 52  1  0
 51 57  1  0
 52 53  2  0
 52 51  1  0
 54 48  2  0
 55 54  1  0
 55 50  2  0
 56 49  1  0
 57 47  1  0
 59 61  2  0
 60 59  1  0
 62 60  1  0
 63 72  2  0
 63 68  1  0
 64 60  1  0
 64 68  1  0
 65 64  1  0
 66 67  1  0
 66 65  1  0
 67 63  1  0
 68 69  2  0
 69 70  1  0
 71 70  2  0
 72 71  1  0
 73 47  1  0
 73 74  1  0
 73 83  1  0
 74 77  1  0
 75 79  1  0
 75 74  1  0
 76 75  2  0
 79 78  1  0
 81 82  1  0
 81 79  1  0
 81 80  1  0
 83 86  1  1
 83 84  1  0
 85 83  1  0
M  ISO  4   7 100  15 100  45 101  46 101
M  END
>  <TORSDO>  (72) 
F 17

>  <SCORE>  (72) 
-16.516

>  <name>  (72) 
71

>  <ligand_id>  (72) 
71

>  <original_smiles>  (72) 
[H]c1c([H])c(N([H])C(=O)N2C([H])([H])C([H])([H])C([H])([H])C([H])(n3nc(-c4c([H])c([H])c(Oc5c([H])c([H])c(F)c([H])c5F)c([H])c4[H])c(C(=O)N([H])[H])c3N([H])[H])C2([H])[H])c([H])c(C([H])([H])Oc2c([H])c([H])c3c(c2[H])C([H])([H])N(C(=O)C([H])(N([H])C(=O)C([H])(N([H])C([H])([H])[H])C([H])([H])[H])C(C([H])([H])[H])(C([H])([H])[H])C([H])([H])[H])C([H])(C(=O)N([H])C2([H])c4c([H])c([H])c([H])c([H])c4C([H])([H])C([H])([H])C2([H])[H])C3([H])[H])c1[H]

>  <smiles>  (72) 
[H]c1c([H])c(N([H])C(=O)N2C([H])([H])C([H])([H])C([H])([H])C([H])(n3nc(-c4c([H])c([H])c(Oc5c([H])c([H])c(F)c([H])c5F)c([H])c4[H])c(C(=O)N([H])[H])c3N([H])[H])C2([H])[H])c([H])c(C([H])([H])Oc2c([H])c([H])c3c(c2[H])C([H])([H])N(C(=O)C([H])(N([H])C(=O)C([H])(N([H])C([H])([H])[H])C([H])([H])[H])C(C([H])([H])[H])(C([H])([H])[H])C([H])([H])[H])C([H])(C(=O)N([H])C2([H])c4c([H])c([H])c([H])c([H])c4C([H])([H])C([H])([H])C2([H])[H])C3([H])[H])c1[H]

$$$$
72:0:0
     RDKit          3D

 96105  0  0  1  0  0  0  0  0999 V2000
  -28.6570  -23.4720   22.0910 C   0  0  0  0  0  3  0  0  0  0  0  0
  -30.9450  -23.9790   21.4260 C   0  0  0  0  0  3  0  0  0  0  0  0
  -28.2100  -24.6380   21.4390 C   0  0  0  0  0  3  0  0  0  0  0  0
  -30.4970  -25.1440   20.7710 C   0  0  0  0  0  3  0  0  0  0  0  0
  -30.0270  -23.1260   22.0750 C   0  0  0  0  0  0  0  0  0  0  0  0
  -29.1260  -25.4760   20.7650 C   0  0  0  0  0  0  0  0  0  0  0  0
  -30.5250  -21.9040   22.7950 C   0  0  0  0  0  0  0  0  0  0  0  0
  -30.4560  -19.7540   20.1370 C   0  0  0  0  0  2  0  0  0  0  0  0
  -31.6180  -18.7590   22.1770 C   0  0  0  0  0  2  0  0  0  0  0  0
  -29.4370  -20.3870   21.1000 C   0  0  0  0  0  2  0  0  0  0  0  0
  -30.5370  -19.4440   23.0360 C   0  0  0  0  0  2  0  0  0  0  0  0
  -31.1320  -18.4950   20.7310 C   0  0  0  0  0  3  0  0  0  0  0  0
  -30.1130  -20.6810   22.3720 N   0  0  0  0  0  0  0  0  0  0  0  0
  -31.2980  -22.0620   23.7470 O   0  0  0  0  0  0  0  0  0  0  0  0
  -32.2760  -18.0300   19.8040 C   0  0  0  0  0  2  0  0  0  0  0  0
  -32.9420  -16.6890   20.1720 C   0  0  0  0  0  2  0  0  0  0  0  0
  -32.2660  -14.5150   19.1750 C   0  0  0  0  0  0  0  0  0  0  0  0
  -31.7660  -12.1430   18.7210 C   0  0  0  0  0  2  0  0  0  0  0  0
  -30.7210  -11.9590   17.6080 C   0  0  0  0  0  2  0  0  0  0  0  0
  -29.2970  -12.0150   18.1870 C   0  0  0  0  0  2  0  0  0  0  0  0
  -29.0750  -13.2540   19.0940 C   0  0  0  0  0  3  0  0  0  0  0  0
  -30.2150  -13.3950   20.1260 C   0  0  0  0  0  2  0  0  0  0  0  0
  -31.5030  -13.4170   19.4060 N   0  0  0  0  0  0  0  0  0  0  0  0
  -33.1760  -14.5470   18.3410 O   0  0  0  0  0  0  0  0  0  0  0  0
  -32.0550  -15.5370   20.0140 N   0  0  0  0  0  0  0  0  0  0  0  0
  -31.3120  -15.4240   20.6870 H   0  0  0  0  0  0  0  0  0  0  0  0
  -26.9700  -14.2500   20.1960 C   0  0  0  0  0  0  0  0  0  0  0  0
  -25.8180  -13.6710   20.6530 C   0  0  0  0  0  0  0  0  0  0  0  0
  -25.9700  -12.2670   20.4430 C   0  0  0  0  0  0  0  0  0  0  0  0
  -27.7650  -13.2090   19.7420 N   0  0  0  0  0  0  0  0  0  0  0  0
  -27.1720  -12.0040   19.9440 N   0  0  0  0  0  0  0  0  0  0  0  0
  -25.0220  -11.1620   20.6350 C   0  0  0  0  0  0  0  0  0  0  0  0
  -25.3030  -10.0900   21.5120 C   0  0  0  0  0  3  0  0  0  0  0  0
  -24.3670   -9.0490   21.6920 C   0  0  0  0  0  3  0  0  0  0  0  0
  -23.1350   -9.0730   20.9960 C   0  0  0  0  0  0  0  0  0  0  0  0
  -22.8710  -10.1290   20.1070 C   0  0  0  0  0  3  0  0  0  0  0  0
  -23.8050  -11.1620   19.9240 C   0  0  0  0  0  3  0  0  0  0  0  0
  -22.1780   -8.0920   21.0890 O   0  0  0  0  0  0  0  0  0  0  0  0
  -21.9420   -7.4260   22.2650 C   0  0  0  0  0  0  0  0  0  0  0  0
  -21.5820   -8.1070   23.4480 C   0  0  0  0  0  3  0  0  0  0  0  0
  -21.2810   -7.3770   24.6160 C   0  0  0  0  0  3  0  0  0  0  0  0
  -21.3290   -5.9710   24.6020 C   0  0  0  0  0  0  0  0  0  0  0  0
  -21.6820   -5.2910   23.4230 C   0  0  0  0  0  3  0  0  0  0  0  0
  -21.9840   -6.0160   22.2570 C   0  0  0  0  0  0  0  0  0  0  0  0
  -22.3030   -5.3560   21.1180 F   0  0  0  0  0  0  0  0  0  0  0  0
  -21.0330   -5.2700   25.7210 F   0  0  0  0  0  0  0  0  0  0  0  0
  -24.6010  -14.3840   21.1710 C   0  0  0  0  0  0  0  0  0  0  0  0
  -23.8860  -13.7750   22.1100 N   0  0  0  0  0  0  0  0  0  0  0  0
  -24.3040  -15.5110   20.7770 O   0  0  0  0  0  0  0  0  0  0  0  0
  -24.1410  -12.8580   22.4490 H   0  0  0  0  0  0  0  0  0  0  0  0
  -23.0730  -14.2320   22.4980 H   0  0  0  0  0  0  0  0  0  0  0  0
  -27.4020  -15.5700   20.1090 N   0  0  0  0  0  0  0  0  0  0  0  0
  -26.8190  -16.3530   20.3870 H   0  0  0  0  0  0  0  0  0  0  0  0
  -28.2890  -15.8570   19.7150 H   0  0  0  0  0  0  0  0  0  0  0  0
  -28.6640  -26.7470   20.0680 C   0  0  0  0  0  2  0  0  0  0  0  0
  -27.4810  -26.5520   19.2910 O   0  0  0  0  0  0  0  0  0  0  0  0
  -24.4410  -31.7770   23.1010 C   0  0  0  0  0  0  0  0  0  0  0  0
  -26.4010  -27.3680   19.5380 C   0  0  0  0  0  0  0  0  0  0  0  0
  -22.9500  -30.5410   21.5580 C   0  0  0  0  0  3  0  0  0  0  0  0
  -24.1160  -28.9870   19.9060 C   0  0  0  0  0  0  0  0  0  0  0  0
  -25.4480  -30.7590   21.0660 C   0  0  0  0  0  2  0  0  0  0  0  0
  -25.3640  -29.4180   20.3720 C   0  0  0  0  0  0  0  0  0  0  0  0
  -26.5090  -28.6170   20.1910 C   0  0  0  0  0  3  0  0  0  0  0  0
  -25.1420  -26.9510   19.0600 C   0  0  0  0  0  3  0  0  0  0  0  0
  -23.9970  -27.7480   19.2500 C   0  0  0  0  0  3  0  0  0  0  0  0
  -22.9460  -29.9160   20.1360 C   0  0  0  0  0  2  0  0  0  0  0  0
  -24.3060  -31.0360   21.9650 N   0  0  0  0  0  0  0  0  0  0  0  0
  -23.4560  -32.0890   23.7830 O   0  0  0  0  0  0  0  0  0  0  0  0
  -22.3510  -29.5170   22.5460 C   0  0  0  0  0  0  0  0  0  0  0  0
  -21.0310  -29.2930   22.4460 N   0  0  0  0  0  0  0  0  0  0  0  0
  -23.0680  -28.9250   23.3570 O   0  0  0  0  0  0  0  0  0  0  0  0
  -20.5120  -29.8250   21.7610 H   0  0  0  0  0  0  0  0  0  0  0  0
  -17.7510  -27.8390   22.8580 C   0  0  0  0  0  0  0  0  0  0  0  0
  -20.2560  -28.3450   23.2440 C   0  0  0  0  0  3  0  0  0  0  0  0
  -20.5160  -26.8910   22.7850 C   0  0  0  0  0  2  0  0  0  0  0  0
  -19.5080  -26.3980   21.7420 C   0  0  0  0  0  2  0  0  0  0  0  0
  -18.0820  -26.4650   22.3000 C   0  0  0  0  0  2  0  0  0  0  0  0
  -18.7720  -28.7280   23.2860 C   0  0  0  0  0  0  0  0  0  0  0  0
  -18.4130  -30.0070   23.7630 C   0  0  0  0  0  3  0  0  0  0  0  0
  -17.0630  -30.4010   23.8170 C   0  0  0  0  0  3  0  0  0  0  0  0
  -16.0540  -29.5120   23.4080 C   0  0  0  0  0  3  0  0  0  0  0  0
  -16.3990  -28.2330   22.9330 C   0  0  0  0  0  3  0  0  0  0  0  0
  -25.8370  -32.2860   23.5850 C   0  0  0  0  0  3  0  0  0  0  0  0
  -26.4610  -31.3990   24.7300 C   0  0  1  0  0  0  0  0  0  0  0  0
  -25.4950  -31.1360   25.9090 C   0  0  0  0  0  1  0  0  0  0  0  0
  -26.9110  -30.0280   24.1730 C   0  0  0  0  0  1  0  0  0  0  0  0
  -27.7280  -32.0840   25.2940 C   0  0  0  0  0  1  0  0  0  0  0  0
  -25.6670  -33.6750   24.0350 N   0  0  0  0  0  0  0  0  0  0  0  0
  -26.0650  -34.7500   23.3420 C   0  0  0  0  0  0  0  0  0  0  0  0
  -26.6860  -34.6710   22.2780 O   0  0  0  0  0  0  0  0  0  0  0  0
  -25.1180  -33.8160   24.8690 H   0  0  0  0  0  0  0  0  0  0  0  0
  -24.5190  -36.7240   23.1660 C   0  0  0  0  0  1  0  0  0  0  0  0
  -25.7200  -36.1340   23.9220 C   0  0  0  0  0  3  0  0  0  0  0  0
  -27.9410  -36.7280   24.7850 C   0  0  0  0  0  1  0  0  0  0  0  0
  -26.8500  -37.0870   23.8830 N   0  0  0  0  0  0  0  0  0  0  0  0
  -26.5390  -38.0250   24.1200 H   0  0  0  0  0  0  0  0  0  0  0  0
  2  5  2  0
  3  1  2  0
  4  2  1  0
  5  1  1  0
  5  7  1  0
  6  4  2  0
  6  3  1  0
  7 14  2  0
  8 12  1  0
  8 10  1  0
  9 11  1  0
 10 13  1  0
 12 15  1  0
 12  9  1  0
 13  7  1  0
 13 11  1  0
 15 16  1  0
 17 23  1  0
 17 25  1  0
 18 23  1  0
 19 20  1  0
 19 18  1  0
 21 20  1  0
 21 30  1  0
 21 22  1  0
 23 22  1  0
 24 17  2  0
 25 16  1  0
 25 26  1  0
 27 28  2  0
 28 47  1  0
 29 32  1  0
 29 28  1  0
 30 31  1  0
 30 27  1  0
 31 29  2  0
 32 33  1  0
 33 34  2  0
 35 38  1  0
 35 34  1  0
 36 35  2  0
 37 36  1  0
 37 32  2  0
 38 39  1  0
 39 40  1  0
 40 41  2  0
 42 41  1  0
 42 46  1  0
 43 42  2  0
 44 39  2  0
 44 43  1  0
 45 44  1  0
 47 48  1  0
 48 50  1  0
 48 51  1  0
 49 47  2  0
 52 27  1  0
 52 53  1  0
 54 52  1  0
 55  6  1  0
 56 58  1  0
 56 55  1  0
 57 68  2  0
 58 63  1  0
 59 67  1  0
 59 69  1  0
 60 66  1  0
 60 62  1  0
 61 67  1  0
 62 61  1  0
 63 62  2  0
 64 65  1  0
 64 58  2  0
 65 60  2  0
 66 59  1  0
 67 57  1  0
 69 71  2  0
 70 69  1  0
 72 70  1  0
 73 82  2  0
 73 78  1  0
 74 70  1  0
 74 78  1  0
 75 74  1  0
 76 77  1  0
 76 75  1  0
 77 73  1  0
 78 79  2  0
 79 80  1  0
 81 80  2  0
 82 81  1  0
 83 57  1  0
 83 88  1  0
 83 84  1  0
 84 87  1  1
 84 85  1  0
 86 84  1  0
 88 91  1  0
 89 93  1  0
 89 88  1  0
 90 89  2  0
 93 92  1  0
 95 93  1  0
 95 96  1  0
 95 94  1  0
M  ISO  4  17 100  25 100  55 101  56 101
M  END
>  <TORSDO>  (73) 
F 20

>  <SCORE>  (73) 
-10.628

>  <name>  (73) 
72

>  <ligand_id>  (73) 
72

>  <original_smiles>  (73) 
[H]c1c([H])c([H])c2c(c1[H])C([H])([H])C([H])([H])C([H])([H])C2([H])N([H])C(=O)C1([H])N(C(=O)C([H])(N([H])C(=O)C([H])(N([H])C([H])([H])[H])C([H])([H])[H])C(C([H])([H])[H])(C([H])([H])[H])C([H])([H])[H])C([H])([H])c2c([H])c(OC([H])([H])c3c([H])c([H])c(C(=O)N4C([H])([H])C([H])([H])C([H])(C([H])([H])C([H])([H])N([H])C(=O)N5C([H])([H])C([H])([H])C([H])([H])C([H])(n6nc(-c7c([H])c([H])c(Oc8c([H])c([H])c(F)c([H])c8F)c([H])c7[H])c(C(=O)N([H])[H])c6N([H])[H])C5([H])[H])C([H])([H])C4([H])[H])c([H])c3[H])c([H])c([H])c2C1([H])[H]

>  <smiles>  (73) 
[H]c1c([H])c([H])c2c(c1[H])C([H])([H])C([H])([H])C([H])([H])C2([H])N([H])C(=O)C1([H])N(C(=O)C([H])(N([H])C(=O)C([H])(N([H])C([H])([H])[H])C([H])([H])[H])C(C([H])([H])[H])(C([H])([H])[H])C([H])([H])[H])C([H])([H])c2c([H])c(OC([H])([H])c3c([H])c([H])c(C(=O)N4C([H])([H])C([H])([H])C([H])(C([H])([H])C([H])([H])N([H])C(=O)N5C([H])([H])C([H])([H])C([H])([H])C([H])(n6nc(-c7c([H])c([H])c(Oc8c([H])c([H])c(F)c([H])c8F)c([H])c7[H])c(C(=O)N([H])[H])c6N([H])[H])C5([H])[H])C([H])([H])C4([H])[H])c([H])c3[H])c([H])c([H])c2C1([H])[H]

$$$$
73:0:0
     RDKit          3D

 87 95  0  0  1  0  0  0  0  0999 V2000
  -28.3430  -20.3520   20.7730 C   0  0  0  0  0  3  0  0  0  0  0  0
  -30.2020  -20.9310   19.5460 C   0  0  0  0  0  3  0  0  0  0  0  0
  -27.9200  -21.7790   20.7390 C   0  0  0  0  0  3  0  0  0  0  0  0
  -29.7780  -22.3530   19.5100 C   0  0  0  0  0  3  0  0  0  0  0  0
  -29.5340  -19.7860   20.1610 C   0  0  0  0  0  0  0  0  0  0  0  0
  -28.5900  -22.9230   20.1160 C   0  0  0  0  0  0  0  0  0  0  0  0
  -30.2450  -18.2000   20.1870 C   0  0  0  0  0  2  0  0  0  0  0  0
  -30.5290  -15.3550   20.1680 C   0  0  0  0  0  0  0  0  0  0  0  0
  -30.4510  -12.9400   19.2640 C   0  0  0  0  0  2  0  0  0  0  0  0
  -29.5010  -12.7760   18.0520 C   0  0  0  0  0  2  0  0  0  0  0  0
  -28.0610  -12.5130   18.5250 C   0  0  0  0  0  2  0  0  0  0  0  0
  -27.6440  -13.4600   19.6780 C   0  0  0  0  0  3  0  0  0  0  0  0
  -28.7200  -13.5800   20.7780 C   0  0  0  0  0  2  0  0  0  0  0  0
  -29.9420  -14.0670   20.1200 N   0  0  0  0  0  0  0  0  0  0  0  0
  -31.7390  -15.3570   19.9040 O   0  0  0  0  0  0  0  0  0  0  0  0
  -29.7970  -16.6240   20.3000 N   0  0  0  0  0  0  0  0  0  0  0  0
  -28.8100  -16.4950   20.4660 H   0  0  0  0  0  0  0  0  0  0  0  0
  -25.2930  -14.0040   20.5030 C   0  0  0  0  0  0  0  0  0  0  0  0
  -24.2410  -13.2200   20.8860 C   0  0  0  0  0  0  0  0  0  0  0  0
  -24.7090  -11.8700   20.8170 C   0  0  0  0  0  0  0  0  0  0  0  0
  -26.3300  -13.1360   20.2160 N   0  0  0  0  0  0  0  0  0  0  0  0
  -25.9930  -11.8450   20.4720 N   0  0  0  0  0  0  0  0  0  0  0  0
  -23.9870  -10.6030   21.0000 C   0  0  0  0  0  0  0  0  0  0  0  0
  -24.4180   -9.6360   21.9340 C   0  0  0  0  0  3  0  0  0  0  0  0
  -23.6950   -8.4360   22.1060 C   0  0  0  0  0  3  0  0  0  0  0  0
  -22.5270   -8.1960   21.3440 C   0  0  0  0  0  0  0  0  0  0  0  0
  -22.1150   -9.1520   20.3990 C   0  0  0  0  0  3  0  0  0  0  0  0
  -22.8400  -10.3430   20.2250 C   0  0  0  0  0  3  0  0  0  0  0  0
  -21.7730   -7.0490   21.4270 O   0  0  0  0  0  0  0  0  0  0  0  0
  -21.6850   -6.3290   22.5910 C   0  0  0  0  0  0  0  0  0  0  0  0
  -21.1370   -6.8810   23.7690 C   0  0  0  0  0  3  0  0  0  0  0  0
  -21.0010   -6.0840   24.9240 C   0  0  0  0  0  3  0  0  0  0  0  0
  -21.4010   -4.7350   24.9000 C   0  0  0  0  0  0  0  0  0  0  0  0
  -21.9410   -4.1810   23.7260 C   0  0  0  0  0  3  0  0  0  0  0  0
  -22.0800   -4.9760   22.5730 C   0  0  0  0  0  0  0  0  0  0  0  0
  -22.5810   -4.4310   21.4390 F   0  0  0  0  0  0  0  0  0  0  0  0
  -21.2630   -3.9660   26.0050 F   0  0  0  0  0  0  0  0  0  0  0  0
  -22.8510  -13.6890   21.1970 C   0  0  0  0  0  0  0  0  0  0  0  0
  -22.1460  -12.9780   22.0690 N   0  0  0  0  0  0  0  0  0  0  0  0
  -22.4010  -14.7220   20.7020 O   0  0  0  0  0  0  0  0  0  0  0  0
  -22.5260  -12.1440   22.4900 H   0  0  0  0  0  0  0  0  0  0  0  0
  -21.2140  -13.2750   22.3220 H   0  0  0  0  0  0  0  0  0  0  0  0
  -25.4470  -15.3790   20.3460 N   0  0  0  0  0  0  0  0  0  0  0  0
  -24.6770  -16.0250   20.4830 H   0  0  0  0  0  0  0  0  0  0  0  0
  -26.2740  -15.8250   19.9720 H   0  0  0  0  0  0  0  0  0  0  0  0
  -27.8620  -24.4830   19.8860 C   0  0  0  0  0  2  0  0  0  0  0  0
  -28.2330  -26.0370   20.1780 O   0  0  0  0  0  0  0  0  0  0  0  0
  -24.6920  -31.9260   23.2300 C   0  0  0  0  0  0  0  0  0  0  0  0
  -27.2340  -27.1330   20.1210 C   0  0  0  0  0  0  0  0  0  0  0  0
  -23.4840  -30.5440   21.5900 C   0  0  0  0  0  3  0  0  0  0  0  0
  -24.9230  -28.9780   20.1270 C   0  0  0  0  0  0  0  0  0  0  0  0
  -26.0450  -30.7820   21.4120 C   0  0  0  0  0  2  0  0  0  0  0  0
  -26.1150  -29.3860   20.7380 C   0  0  0  0  0  0  0  0  0  0  0  0
  -27.2660  -28.4830   20.7160 C   0  0  0  0  0  3  0  0  0  0  0  0
  -26.0130  -26.8730   19.4600 C   0  0  0  0  0  3  0  0  0  0  0  0
  -24.8940  -27.7400   19.4670 C   0  0  0  0  0  3  0  0  0  0  0  0
  -23.6980  -29.8840   20.2010 C   0  0  0  0  0  2  0  0  0  0  0  0
  -24.7610  -31.1090   22.1310 N   0  0  0  0  0  0  0  0  0  0  0  0
  -23.6080  -32.2010   23.7700 O   0  0  0  0  0  0  0  0  0  0  0  0
  -22.8100  -29.5280   22.5500 C   0  0  0  0  0  0  0  0  0  0  0  0
  -21.4850  -29.3350   22.4190 N   0  0  0  0  0  0  0  0  0  0  0  0
  -23.4870  -28.9170   23.3810 O   0  0  0  0  0  0  0  0  0  0  0  0
  -20.9910  -29.8800   21.7270 H   0  0  0  0  0  0  0  0  0  0  0  0
  -18.1240  -28.0690   22.9290 C   0  0  0  0  0  0  0  0  0  0  0  0
  -20.6790  -28.3800   23.1880 C   0  0  0  0  0  3  0  0  0  0  0  0
  -20.8050  -26.9520   22.6080 C   0  0  0  0  0  2  0  0  0  0  0  0
  -19.7070  -26.6140   21.5940 C   0  0  0  0  0  2  0  0  0  0  0  0
  -18.3240  -26.7280   22.2430 C   0  0  0  0  0  2  0  0  0  0  0  0
  -19.2290  -28.8510   23.3590 C   0  0  0  0  0  0  0  0  0  0  0  0
  -18.9860  -30.1030   23.9630 C   0  0  0  0  0  3  0  0  0  0  0  0
  -17.6710  -30.5750   24.1380 C   0  0  0  0  0  3  0  0  0  0  0  0
  -16.5810  -29.7910   23.7240 C   0  0  0  0  0  3  0  0  0  0  0  0
  -16.8080  -28.5400   23.1250 C   0  0  0  0  0  3  0  0  0  0  0  0
  -25.9680  -32.5680   23.8520 C   0  0  0  0  0  3  0  0  0  0  0  0
  -25.6500  -33.9640   24.1980 N   0  0  0  0  0  0  0  0  0  0  0  0
  -25.9410  -35.0280   23.4380 C   0  0  0  0  0  0  0  0  0  0  0  0
  -26.5700  -34.9390   22.3810 O   0  0  0  0  0  0  0  0  0  0  0  0
  -25.0870  -34.1050   25.0250 H   0  0  0  0  0  0  0  0  0  0  0  0
  -24.1820  -36.8090   23.1780 C   0  0  0  0  0  1  0  0  0  0  0  0
  -25.4620  -36.4100   23.9280 C   0  0  0  0  0  3  0  0  0  0  0  0
  -27.6120  -37.3250   24.6820 C   0  0  0  0  0  1  0  0  0  0  0  0
  -26.4770  -37.4760   23.7750 N   0  0  0  0  0  0  0  0  0  0  0  0
  -26.0640  -38.3910   23.9330 H   0  0  0  0  0  0  0  0  0  0  0  0
  -26.4890  -31.7970   25.1280 C   0  0  1  0  0  0  0  0  0  0  0  0
  -25.3970  -31.5480   26.1950 C   0  0  0  0  0  1  0  0  0  0  0  0
  -27.0830  -30.4240   24.7400 C   0  0  0  0  0  1  0  0  0  0  0  0
  -27.6310  -32.5980   25.7940 C   0  0  0  0  0  1  0  0  0  0  0  0
  2  5  1  0
  3  1  1  0
  4  2  2  0
  4  6  1  0
  5  7  1  0
  5  1  2  0
  6  3  2  0
  7 16  1  0
  8 16  1  0
  9 14  1  0
 10 11  1  0
 10  9  1  0
 12 11  1  0
 12 21  1  0
 12 13  1  0
 14  8  1  0
 14 13  1  0
 15  8  2  0
 16 17  1  0
 18 19  2  0
 19 38  1  0
 20 19  1  0
 20 23  1  0
 21 22  1  0
 21 18  1  0
 22 20  2  0
 23 24  1  0
 24 25  2  0
 26 29  1  0
 26 25  1  0
 27 26  2  0
 28 27  1  0
 28 23  2  0
 29 30  1  0
 30 31  1  0
 31 32  2  0
 33 32  1  0
 33 37  1  0
 34 33  2  0
 35 30  2  0
 35 34  1  0
 36 35  1  0
 38 39  1  0
 39 42  1  0
 39 41  1  0
 40 38  2  0
 43 44  1  0
 43 18  1  0
 45 43  1  0
 46  6  1  0
 46 47  1  0
 48 59  2  0
 49 47  1  0
 49 54  1  0
 50 58  1  0
 50 60  1  0
 51 57  1  0
 51 53  1  0
 52 58  1  0
 53 52  1  0
 54 53  2  0
 55 56  1  0
 55 49  2  0
 56 51  2  0
 57 50  1  0
 58 48  1  0
 60 62  2  0
 61 60  1  0
 63 61  1  0
 64 73  2  0
 64 69  1  0
 65 61  1  0
 65 69  1  0
 66 65  1  0
 67 68  1  0
 67 66  1  0
 68 64  1  0
 69 70  2  0
 70 71  1  0
 72 71  2  0
 73 72  1  0
 74 48  1  0
 74 75  1  0
 74 84  1  0
 75 78  1  0
 76 80  1  0
 76 75  1  0
 77 76  2  0
 80 79  1  0
 82 80  1  0
 82 83  1  0
 82 81  1  0
 84 87  1  1
 84 85  1  0
 86 84  1  0
M  ISO  4   8 100  16 100  46 101  47 101
M  END
>  <TORSDO>  (74) 
F 18

>  <SCORE>  (74) 
-15.768

>  <name>  (74) 
73

>  <ligand_id>  (74) 
73

>  <original_smiles>  (74) 
[H]c1c([H])c([H])c2c(c1[H])C([H])([H])C([H])([H])C([H])([H])C2([H])N([H])C(=O)C1([H])N(C(=O)C([H])(N([H])C(=O)C([H])(N([H])C([H])([H])[H])C([H])([H])[H])C(C([H])([H])[H])(C([H])([H])[H])C([H])([H])[H])C([H])([H])c2c([H])c(OC([H])([H])c3c([H])c([H])c(C([H])([H])N([H])C(=O)N4C([H])([H])C([H])([H])C([H])([H])C([H])(n5nc(-c6c([H])c([H])c(Oc7c([H])c([H])c(F)c([H])c7F)c([H])c6[H])c(C(=O)N([H])[H])c5N([H])[H])C4([H])[H])c([H])c3[H])c([H])c([H])c2C1([H])[H]

>  <smiles>  (74) 
[H]c1c([H])c([H])c2c(c1[H])C([H])([H])C([H])([H])C([H])([H])C2([H])N([H])C(=O)C1([H])N(C(=O)C([H])(N([H])C(=O)C([H])(N([H])C([H])([H])[H])C([H])([H])[H])C(C([H])([H])[H])(C([H])([H])[H])C([H])([H])[H])C([H])([H])c2c([H])c(OC([H])([H])c3c([H])c([H])c(C([H])([H])N([H])C(=O)N4C([H])([H])C([H])([H])C([H])([H])C([H])(n5nc(-c6c([H])c([H])c(Oc7c([H])c([H])c(F)c([H])c7F)c([H])c6[H])c(C(=O)N([H])[H])c5N([H])[H])C4([H])[H])c([H])c3[H])c([H])c([H])c2C1([H])[H]

$$$$
74:0:0
     RDKit          3D

 94102  0  0  1  0  0  0  0  0999 V2000
  -29.4340  -21.4810   17.2430 C   0  0  0  0  0  2  0  0  0  0  0  0
  -30.7170  -20.7710   16.7820 C   0  0  0  0  0  2  0  0  0  0  0  0
  -31.6210  -20.3310   17.9490 C   0  0  0  0  0  2  0  0  0  0  0  0
  -30.7070  -19.2380   20.0740 C   0  0  0  0  0  3  0  0  0  0  0  0
  -30.9380  -17.9070   18.0460 C   0  0  0  0  0  3  0  0  0  0  0  0
  -30.2820  -18.0920   20.7830 C   0  0  0  0  0  3  0  0  0  0  0  0
  -30.5050  -16.7710   18.7460 C   0  0  0  0  0  3  0  0  0  0  0  0
  -31.0650  -19.1400   18.7100 C   0  0  0  0  0  0  0  0  0  0  0  0
  -30.2250  -16.8430   20.1310 C   0  0  0  0  0  0  0  0  0  0  0  0
  -30.6850  -14.5500   20.7210 C   0  0  0  0  0  0  0  0  0  0  0  0
  -30.4190  -12.3530   19.6980 C   0  0  0  0  0  2  0  0  0  0  0  0
  -29.5530  -12.5340   18.4340 C   0  0  0  0  0  2  0  0  0  0  0  0
  -28.0570  -12.4160   18.7870 C   0  0  0  0  0  2  0  0  0  0  0  0
  -27.6500  -13.2940   20.0010 C   0  0  0  0  0  3  0  0  0  0  0  0
  -28.6480  -13.1380   21.1730 C   0  0  0  0  0  2  0  0  0  0  0  0
  -30.0030  -13.3820   20.6580 N   0  0  0  0  0  0  0  0  0  0  0  0
  -31.8790  -14.6500   20.4270 O   0  0  0  0  0  0  0  0  0  0  0  0
  -29.9340  -15.6550   20.8570 N   0  0  0  0  0  0  0  0  0  0  0  0
  -28.9990  -15.5480   21.2220 H   0  0  0  0  0  0  0  0  0  0  0  0
  -25.2180  -13.9020   20.5890 C   0  0  0  0  0  0  0  0  0  0  0  0
  -24.1360  -13.1300   20.9180 C   0  0  0  0  0  0  0  0  0  0  0  0
  -24.6040  -11.7800   20.9290 C   0  0  0  0  0  0  0  0  0  0  0  0
  -26.2770  -13.0220   20.4210 N   0  0  0  0  0  0  0  0  0  0  0  0
  -25.9060  -11.7410   20.6840 N   0  0  0  0  0  0  0  0  0  0  0  0
  -23.8720  -10.5180   21.1020 C   0  0  0  0  0  0  0  0  0  0  0  0
  -24.2780   -9.5550   22.0520 C   0  0  0  0  0  3  0  0  0  0  0  0
  -23.5470   -8.3570   22.2130 C   0  0  0  0  0  3  0  0  0  0  0  0
  -22.3990   -8.1150   21.4230 C   0  0  0  0  0  0  0  0  0  0  0  0
  -22.0140   -9.0660   20.4620 C   0  0  0  0  0  3  0  0  0  0  0  0
  -22.7450  -10.2550   20.3000 C   0  0  0  0  0  3  0  0  0  0  0  0
  -21.6440   -6.9680   21.4920 O   0  0  0  0  0  0  0  0  0  0  0  0
  -21.5710   -6.2210   22.6410 C   0  0  0  0  0  0  0  0  0  0  0  0
  -21.1290   -6.7740   23.8620 C   0  0  0  0  0  3  0  0  0  0  0  0
  -21.0030   -5.9530   25.0010 C   0  0  0  0  0  3  0  0  0  0  0  0
  -21.3120   -4.5830   24.9200 C   0  0  0  0  0  0  0  0  0  0  0  0
  -21.7470   -4.0290   23.7030 C   0  0  0  0  0  3  0  0  0  0  0  0
  -21.8740   -4.8470   22.5660 C   0  0  0  0  0  0  0  0  0  0  0  0
  -22.2750   -4.3050   21.3910 F   0  0  0  0  0  0  0  0  0  0  0  0
  -21.1840   -3.7930   26.0110 F   0  0  0  0  0  0  0  0  0  0  0  0
  -22.7260  -13.6060   21.1170 C   0  0  0  0  0  0  0  0  0  0  0  0
  -21.9590  -12.9170   21.9570 N   0  0  0  0  0  0  0  0  0  0  0  0
  -22.3110  -14.6240   20.5650 O   0  0  0  0  0  0  0  0  0  0  0  0
  -22.3060  -12.0940   22.4260 H   0  0  0  0  0  0  0  0  0  0  0  0
  -21.0120  -13.2190   22.1320 H   0  0  0  0  0  0  0  0  0  0  0  0
  -25.3850  -15.2700   20.3990 N   0  0  0  0  0  0  0  0  0  0  0  0
  -24.6070  -15.9200   20.4590 H   0  0  0  0  0  0  0  0  0  0  0  0
  -26.2430  -15.7130   20.0970 H   0  0  0  0  0  0  0  0  0  0  0  0
  -29.6730  -22.9710   17.5320 C   0  0  0  0  0  2  0  0  0  0  0  0
  -28.5550  -23.5700   18.2820 N   0  0  0  0  0  4  0  0  0  0  0  0
  -28.4690  -23.0780   19.1580 H   0  0  0  0  0  0  0  0  0  0  0  0
  -27.6960  -23.4290   17.7730 H   0  0  0  0  0  0  0  0  0  0  0  0
  -28.7160  -25.0160   18.5490 C   0  0  0  0  0  2  0  0  0  0  0  0
  -28.3700  -25.3560   20.0040 C   0  0  0  0  0  2  0  0  0  0  0  0
  -28.3740  -26.7690   20.1760 O   0  0  0  0  0  0  0  0  0  0  0  0
  -24.5590  -31.8760   23.2360 C   0  0  0  0  0  0  0  0  0  0  0  0
  -27.1740  -27.4440   20.1490 C   0  0  0  0  0  0  0  0  0  0  0  0
  -23.3360  -30.4780   21.6000 C   0  0  0  0  0  3  0  0  0  0  0  0
  -24.7740  -28.9340   20.1720 C   0  0  0  0  0  0  0  0  0  0  0  0
  -25.8580  -30.8350   21.3840 C   0  0  0  0  0  2  0  0  0  0  0  0
  -25.9340  -29.4630   20.7510 C   0  0  0  0  0  0  0  0  0  0  0  0
  -27.1340  -28.7250   20.7370 C   0  0  0  0  0  3  0  0  0  0  0  0
  -25.9940  -26.9240   19.5630 C   0  0  0  0  0  3  0  0  0  0  0  0
  -24.7970  -27.6620   19.5780 C   0  0  0  0  0  3  0  0  0  0  0  0
  -23.5330  -29.7950   20.2210 C   0  0  0  0  0  2  0  0  0  0  0  0
  -24.6030  -31.0780   22.1330 N   0  0  0  0  0  0  0  0  0  0  0  0
  -23.4820  -32.1510   23.7830 O   0  0  0  0  0  0  0  0  0  0  0  0
  -22.6890  -29.4580   22.5640 C   0  0  0  0  0  0  0  0  0  0  0  0
  -21.3630  -29.2840   22.4460 N   0  0  0  0  0  0  0  0  0  0  0  0
  -23.3750  -28.8290   23.3740 O   0  0  0  0  0  0  0  0  0  0  0  0
  -20.8700  -29.8450   21.7640 H   0  0  0  0  0  0  0  0  0  0  0  0
  -17.9850  -28.1130   22.9620 C   0  0  0  0  0  0  0  0  0  0  0  0
  -20.5460  -28.3510   23.2210 C   0  0  0  0  0  3  0  0  0  0  0  0
  -20.6350  -26.9190   22.6440 C   0  0  0  0  0  2  0  0  0  0  0  0
  -19.5260  -26.6050   21.6360 C   0  0  0  0  0  2  0  0  0  0  0  0
  -18.1490  -26.7610   22.2870 C   0  0  0  0  0  2  0  0  0  0  0  0
  -19.1120  -28.8660   23.3860 C   0  0  0  0  0  0  0  0  0  0  0  0
  -18.9060  -30.1320   23.9760 C   0  0  0  0  0  3  0  0  0  0  0  0
  -17.6060  -30.6450   24.1470 C   0  0  0  0  0  3  0  0  0  0  0  0
  -16.4940  -29.8880   23.7380 C   0  0  0  0  0  3  0  0  0  0  0  0
  -16.6840  -28.6240   23.1520 C   0  0  0  0  0  3  0  0  0  0  0  0
  -25.8520  -32.5000   23.8490 C   0  0  0  0  0  3  0  0  0  0  0  0
  -25.5560  -33.9010   24.1740 N   0  0  0  0  0  0  0  0  0  0  0  0
  -25.8960  -34.9460   23.4080 C   0  0  0  0  0  0  0  0  0  0  0  0
  -26.5650  -34.8330   22.3760 O   0  0  0  0  0  0  0  0  0  0  0  0
  -24.9680  -34.0660   24.9780 H   0  0  0  0  0  0  0  0  0  0  0  0
  -24.1820  -36.7470   23.0390 C   0  0  0  0  0  1  0  0  0  0  0  0
  -25.4180  -36.3400   23.8580 C   0  0  0  0  0  3  0  0  0  0  0  0
  -27.5580  -37.2080   24.6890 C   0  0  0  0  0  1  0  0  0  0  0  0
  -26.4600  -37.3850   23.7430 N   0  0  0  0  0  0  0  0  0  0  0  0
  -26.0610  -38.3090   23.8880 H   0  0  0  0  0  0  0  0  0  0  0  0
  -26.3730  -31.7300   25.1240 C   0  0  1  0  0  0  0  0  0  0  0  0
  -25.2850  -31.5020   26.1990 C   0  0  0  0  0  1  0  0  0  0  0  0
  -26.9430  -30.3480   24.7260 C   0  0  0  0  0  1  0  0  0  0  0  0
  -27.5330  -32.5170   25.7760 C   0  0  0  0  0  1  0  0  0  0  0  0
  1 48  1  0
  2  1  1  0
  2  3  1  0
  3  8  1  0
  4  6  1  0
  5  8  1  0
  5  7  2  0
  7  9  1  0
  8  4  2  0
  9  6  2  0
  9 18  1  0
 10 18  1  0
 11 16  1  0
 12 13  1  0
 12 11  1  0
 14 13  1  0
 14 23  1  0
 14 15  1  0
 16 10  1  0
 16 15  1  0
 17 10  2  0
 18 19  1  0
 20 21  2  0
 21 22  1  0
 21 40  1  0
 22 25  1  0
 23 20  1  0
 23 24  1  0
 24 22  2  0
 25 26  1  0
 26 27  2  0
 28 31  1  0
 28 27  1  0
 29 28  2  0
 30 29  1  0
 30 25  2  0
 31 32  1  0
 32 33  1  0
 33 34  2  0
 35 34  1  0
 35 39  1  0
 36 35  2  0
 37 32  2  0
 37 36  1  0
 38 37  1  0
 40 41  1  0
 41 44  1  0
 41 43  1  0
 42 40  2  0
 45 46  1  0
 45 20  1  0
 47 45  1  0
 48 49  1  0
 49 52  1  0
 49 50  1  0
 51 49  1  0
 52 53  1  0
 53 54  1  0
 55 66  2  0
 56 54  1  0
 56 61  1  0
 57 65  1  0
 57 67  1  0
 58 64  1  0
 58 60  1  0
 59 65  1  0
 60 59  1  0
 61 60  2  0
 62 63  1  0
 62 56  2  0
 63 58  2  0
 64 57  1  0
 65 55  1  0
 67 69  2  0
 68 67  1  0
 70 68  1  0
 71 80  2  0
 71 76  1  0
 72 68  1  0
 72 76  1  0
 73 72  1  0
 74 75  1  0
 74 73  1  0
 75 71  1  0
 76 77  2  0
 77 78  1  0
 79 78  2  0
 80 79  1  0
 81 55  1  0
 81 82  1  0
 81 91  1  0
 82 85  1  0
 83 87  1  0
 83 82  1  0
 84 83  2  0
 87 86  1  0
 89 87  1  0
 89 90  1  0
 89 88  1  0
 91 94  1  1
 91 92  1  0
 93 91  1  0
M  ISO  4  10 100  18 100  53 101  54 101
M  END
>  <TORSDO>  (75) 
F 23

>  <SCORE>  (75) 
-12.660

>  <name>  (75) 
74

>  <ligand_id>  (75) 
74

>  <original_smiles>  (75) 
[H]c1c([H])c([H])c2c(c1[H])C([H])([H])C([H])([H])C([H])([H])C2([H])N([H])C(=O)C1([H])N(C(=O)C([H])(N([H])C(=O)C([H])(N([H])C([H])([H])[H])C([H])([H])[H])C(C([H])([H])[H])(C([H])([H])[H])C([H])([H])[H])C([H])([H])c2c([H])c(OC([H])([H])C([H])([H])[N+]([H])([H])C([H])([H])C([H])([H])C([H])([H])C([H])([H])c3c([H])c([H])c(N([H])C(=O)N4C([H])([H])C([H])([H])C([H])([H])C([H])(n5nc(-c6c([H])c([H])c(Oc7c([H])c([H])c(F)c([H])c7F)c([H])c6[H])c(C(=O)N([H])[H])c5N([H])[H])C4([H])[H])c([H])c3[H])c([H])c([H])c2C1([H])[H]

>  <smiles>  (75) 
[H]c1c([H])c([H])c2c(c1[H])C([H])([H])C([H])([H])C([H])([H])C2([H])N([H])C(=O)C1([H])N(C(=O)C([H])(N([H])C(=O)C([H])(N([H])C([H])([H])[H])C([H])([H])[H])C(C([H])([H])[H])(C([H])([H])[H])C([H])([H])[H])C([H])([H])c2c([H])c(OC([H])([H])C([H])([H])[N+]([H])([H])C([H])([H])C([H])([H])C([H])([H])C([H])([H])c3c([H])c([H])c(N([H])C(=O)N4C([H])([H])C([H])([H])C([H])([H])C([H])(n5nc(-c6c([H])c([H])c(Oc7c([H])c([H])c(F)c([H])c7F)c([H])c6[H])c(C(=O)N([H])[H])c5N([H])[H])C4([H])[H])c([H])c3[H])c([H])c([H])c2C1([H])[H]

$$$$
75:0:0
     RDKit          3D

 81 85  0  0  1  0  0  0  0  0999 V2000
  -28.1090  -24.6470   20.3000 O   0  0  0  0  0  1  0  0  0  0  0  0
  -24.7100  -31.7810   23.1610 C   0  0  0  0  0  0  0  0  0  0  0  0
  -27.2070  -26.1440   20.2640 C   0  0  0  0  0  0  0  0  0  0  0  0
  -23.5560  -30.3680   21.5220 C   0  0  0  0  0  3  0  0  0  0  0  0
  -25.0090  -28.5810   20.1690 C   0  0  0  0  0  0  0  0  0  0  0  0
  -26.1560  -30.3130   21.5020 C   0  0  0  0  0  2  0  0  0  0  0  0
  -26.2110  -28.8120   20.8490 C   0  0  0  0  0  0  0  0  0  0  0  0
  -27.2590  -27.6460   20.8460 C   0  0  0  0  0  3  0  0  0  0  0  0
  -25.9680  -26.2870   19.5230 C   0  0  0  0  0  3  0  0  0  0  0  0
  -24.9660  -27.3480   19.4800 C   0  0  0  0  0  3  0  0  0  0  0  0
  -23.8360  -29.6140   20.1780 C   0  0  0  0  0  2  0  0  0  0  0  0
  -24.8390  -30.8700   22.1140 N   0  0  0  0  0  0  0  0  0  0  0  0
  -23.6010  -32.1150   23.6230 O   0  0  0  0  0  0  0  0  0  0  0  0
  -22.7620  -29.4580   22.5040 C   0  0  0  0  0  0  0  0  0  0  0  0
  -21.4220  -29.3560   22.3730 N   0  0  0  0  0  0  0  0  0  0  0  0
  -23.3780  -28.8290   23.3670 O   0  0  0  0  0  0  0  0  0  0  0  0
  -20.9670  -29.9120   21.6630 H   0  0  0  0  0  0  0  0  0  0  0  0
  -17.9970  -28.2130   22.9010 C   0  0  0  0  0  0  0  0  0  0  0  0
  -20.5670  -28.4380   23.1430 C   0  0  0  0  0  3  0  0  0  0  0  0
  -20.6330  -27.0060   22.5600 C   0  0  0  0  0  2  0  0  0  0  0  0
  -19.5210  -26.7160   21.5460 C   0  0  0  0  0  2  0  0  0  0  0  0
  -18.1460  -26.8740   22.1990 C   0  0  0  0  0  2  0  0  0  0  0  0
  -19.1320  -28.9550   23.3290 C   0  0  0  0  0  0  0  0  0  0  0  0
  -18.9320  -30.2040   23.9560 C   0  0  0  0  0  3  0  0  0  0  0  0
  -17.6350  -30.7130   24.1530 C   0  0  0  0  0  3  0  0  0  0  0  0
  -16.5160  -29.9710   23.7350 C   0  0  0  0  0  3  0  0  0  0  0  0
  -16.6980  -28.7220   23.1160 C   0  0  0  0  0  3  0  0  0  0  0  0
  -25.9400  -32.4590   23.8420 C   0  0  0  0  0  3  0  0  0  0  0  0
  -25.5980  -33.8650   24.1720 N   0  0  0  0  0  0  0  0  0  0  0  0
  -25.9200  -34.9450   23.4450 C   0  0  0  0  0  0  0  0  0  0  0  0
  -26.5760  -34.8640   22.4040 O   0  0  0  0  0  0  0  0  0  0  0  0
  -25.0070  -33.9990   24.9800 H   0  0  0  0  0  0  0  0  0  0  0  0
  -24.1680  -36.7480   23.1980 C   0  0  0  0  0  1  0  0  0  0  0  0
  -25.4480  -36.3330   23.9420 C   0  0  0  0  0  3  0  0  0  0  0  0
  -27.6060  -37.2470   24.6880 C   0  0  0  0  0  1  0  0  0  0  0  0
  -26.4650  -37.3980   23.7880 N   0  0  0  0  0  0  0  0  0  0  0  0
  -26.0550  -38.3150   23.9480 H   0  0  0  0  0  0  0  0  0  0  0  0
  -26.3960  -31.7200   25.1620 C   0  0  1  0  0  0  0  0  0  0  0  0
  -25.2580  -31.5140   26.1910 C   0  0  0  0  0  1  0  0  0  0  0  0
  -26.9880  -30.3300   24.8490 C   0  0  0  0  0  1  0  0  0  0  0  0
  -27.5230  -32.5250   25.8520 C   0  0  0  0  0  1  0  0  0  0  0  0
  -28.1400  -22.5480   20.1630 C   0  0  0  0  0 15  0  0  0  0  0  0
  -29.1420  -20.4180   20.2160 C   0  0  0  0  0 15  0  0  0  0  0  0
  -29.9010  -16.6470   20.0860 C   0  0  0  0  0  0  0  0  0  0  0  0
  -30.2300  -13.8900   19.2940 C   0  0  0  0  0  2  0  0  0  0  0  0
  -29.4480  -13.0530   18.1990 C   0  0  0  0  0  2  0  0  0  0  0  0
  -28.1340  -12.4820   18.7300 C   0  0  0  0  0  2  0  0  0  0  0  0
  -27.5010  -13.5140   19.6750 C   0  0  0  0  0  3  0  0  0  0  0  0
  -28.4750  -14.2100   20.6950 C   0  0  0  0  0  2  0  0  0  0  0  0
  -29.4550  -15.1290   19.9600 N   0  0  0  0  0  0  0  0  0  0  0  0
  -31.1430  -16.3980   20.0040 O   0  0  0  0  0  0  0  0  0  0  0  0
  -29.2570  -18.3100   20.1340 N   0  0  0  0  0  2  0  0  0  0  0  0
  -30.2580  -18.4710   20.1320 H   0  0  0  0  0  0  0  0  0  0  0  0
  -25.1600  -13.9200   20.5080 C   0  0  0  0  0  0  0  0  0  0  0  0
  -24.1280  -13.1120   20.8810 C   0  0  0  0  0  0  0  0  0  0  0  0
  -24.6260  -11.7720   20.8220 C   0  0  0  0  0  0  0  0  0  0  0  0
  -26.2240  -13.0860   20.2420 N   0  0  0  0  0  0  0  0  0  0  0  0
  -25.9190  -11.7780   20.4820 N   0  0  0  0  0  0  0  0  0  0  0  0
  -23.9140  -10.4950   21.0120 C   0  0  0  0  0  0  0  0  0  0  0  0
  -24.3570   -9.5290   21.9420 C   0  0  0  0  0  3  0  0  0  0  0  0
  -23.6350   -8.3280   22.1300 C   0  0  0  0  0  3  0  0  0  0  0  0
  -22.4560   -8.0830   21.3870 C   0  0  0  0  0  0  0  0  0  0  0  0
  -22.0290   -9.0390   20.4470 C   0  0  0  0  0  3  0  0  0  0  0  0
  -22.7510  -10.2310   20.2590 C   0  0  0  0  0  3  0  0  0  0  0  0
  -21.7070   -6.9350   21.4820 O   0  0  0  0  0  0  0  0  0  0  0  0
  -21.6700   -6.1910   22.6350 C   0  0  0  0  0  0  0  0  0  0  0  0
  -21.2140   -6.7320   23.8560 C   0  0  0  0  0  3  0  0  0  0  0  0
  -21.1260   -5.9140   25.0000 C   0  0  0  0  0  3  0  0  0  0  0  0
  -21.4850   -4.5540   24.9250 C   0  0  0  0  0  0  0  0  0  0  0  0
  -21.9340   -4.0110   23.7070 C   0  0  0  0  0  3  0  0  0  0  0  0
  -22.0220   -4.8270   22.5660 C   0  0  0  0  0  0  0  0  0  0  0  0
  -22.4340   -4.2930   21.3900 F   0  0  0  0  0  0  0  0  0  0  0  0
  -21.3950   -3.7660   26.0220 F   0  0  0  0  0  0  0  0  0  0  0  0
  -22.7270  -13.5620   21.1730 C   0  0  0  0  0  0  0  0  0  0  0  0
  -22.0260  -12.8570   22.0520 N   0  0  0  0  0  0  0  0  0  0  0  0
  -22.2670  -14.5820   20.6590 O   0  0  0  0  0  0  0  0  0  0  0  0
  -22.4140  -12.0340   22.4890 H   0  0  0  0  0  0  0  0  0  0  0  0
  -21.0880  -13.1430   22.2910 H   0  0  0  0  0  0  0  0  0  0  0  0
  -25.2790  -15.2960   20.3350 N   0  0  0  0  0  0  0  0  0  0  0  0
  -24.4980  -15.9290   20.4650 H   0  0  0  0  0  0  0  0  0  0  0  0
  -26.1180  -15.7610   20.0090 H   0  0  0  0  0  0  0  0  0  0  0  0
  2 13  2  0
  3  1  1  0
  3  8  1  0
  4 12  1  0
  4 14  1  0
  5 11  1  0
  5  7  1  0
  6 12  1  0
  7  6  1  0
  8  7  2  0
  9  3  2  0
 10  9  1  0
 10  5  2  0
 11  4  1  0
 12  2  1  0
 14 16  2  0
 15 14  1  0
 17 15  1  0
 18 27  2  0
 18 23  1  0
 19 15  1  0
 19 23  1  0
 20 19  1  0
 21 22  1  0
 21 20  1  0
 22 18  1  0
 23 24  2  0
 24 25  1  0
 26 25  2  0
 27 26  1  0
 28  2  1  0
 28 29  1  0
 28 38  1  0
 29 32  1  0
 30 34  1  0
 30 29  1  0
 31 30  2  0
 34 33  1  0
 36 34  1  0
 36 37  1  0
 36 35  1  0
 38 41  1  1
 38 39  1  0
 40 38  1  0
 44 52  1  0
 45 50  1  0
 46 47  1  0
 46 45  1  0
 48 47  1  0
 48 57  1  0
 48 49  1  0
 50 44  1  0
 50 49  1  0
 51 44  2  0
 53 52  1  0
 54 55  2  0
 55 74  1  0
 56 55  1  0
 56 59  1  0
 57 58  1  0
 57 54  1  0
 58 56  2  0
 59 60  1  0
 60 61  2  0
 62 65  1  0
 62 61  1  0
 63 62  2  0
 64 63  1  0
 64 59  2  0
 65 66  1  0
 66 67  1  0
 67 68  2  0
 69 68  1  0
 69 73  1  0
 70 69  2  0
 71 66  2  0
 71 70  1  0
 72 71  1  0
 74 75  1  0
 75 78  1  0
 75 77  1  0
 76 74  2  0
 79 80  1  0
 79 54  1  0
 81 79  1  0
M  ISO  4   1 101  42 101  44 100  52 100
M  END
>  <TORSDO>  (76) 
F 17

>  <SCORE>  (76) 
-16.141

>  <name>  (76) 
75

>  <ligand_id>  (76) 
75

>  <original_smiles>  (76) 
[H]c1c([H])c([H])c2c(c1[H])C([H])([H])C([H])([H])C([H])([H])C2([H])N([H])C(=O)C1([H])N(C(=O)C([H])(N([H])C(=O)C([H])(N([H])C([H])([H])[H])C([H])([H])[H])C(C([H])([H])[H])(C([H])([H])[H])C([H])([H])[H])C([H])([H])c2c([H])c(OC([H])([H])C([H])([H])N([H])C(=O)N3C([H])([H])C([H])([H])C([H])([H])C([H])(n4nc(-c5c([H])c([H])c(Oc6c([H])c([H])c(F)c([H])c6F)c([H])c5[H])c(C(=O)N([H])[H])c4N([H])[H])C3([H])[H])c([H])c([H])c2C1([H])[H]

>  <smiles>  (76) 
[H]c1c([H])c([H])c2c(c1[H])C([H])([H])C([H])([H])C([H])([H])C2([H])N([H])C(=O)C1([H])N(C(=O)C([H])(N([H])C(=O)C([H])(N([H])C([H])([H])[H])C([H])([H])[H])C(C([H])([H])[H])(C([H])([H])[H])C([H])([H])[H])C([H])([H])c2c([H])c(OC([H])([H])C([H])([H])N([H])C(=O)N3C([H])([H])C([H])([H])C([H])([H])C([H])(n4nc(-c5c([H])c([H])c(Oc6c([H])c([H])c(F)c([H])c6F)c([H])c5[H])c(C(=O)N([H])[H])c4N([H])[H])C3([H])[H])c([H])c([H])c2C1([H])[H]

$$$$
76:0:0
     RDKit          3D

107116  0  0  1  0  0  0  0  0999 V2000
  -31.5680  -22.3640   17.7200 C   0  0  0  0  0  2  0  0  0  0  0  0
  -32.5400  -26.1320   17.5540 C   0  0  0  0  0  2  0  0  0  0  0  0
  -30.2650  -25.7560   16.4710 C   0  0  0  0  0  2  0  0  0  0  0  0
  -32.5060  -24.6790   18.0730 C   0  0  0  0  0  2  0  0  0  0  0  0
  -30.2530  -24.3420   17.0750 C   0  0  0  0  0  2  0  0  0  0  0  0
  -31.1540  -26.7450   17.2480 C   0  0  0  0  0  3  0  0  0  0  0  0
  -31.6220  -23.7860   17.2670 N   0  0  2  0  0  4  0  0  0  0  0  0
  -32.0390  -23.7390   16.3470 H   0  0  0  0  0  0  0  0  0  0  0  0
  -30.4520  -27.3590   18.4010 N   0  0  0  0  0  4  0  0  0  0  0  0
  -29.4760  -27.4610   18.1570 H   0  0  0  0  0  0  0  0  0  0  0  0
  -30.8020  -28.3010   18.5040 H   0  0  0  0  0  0  0  0  0  0  0  0
  -30.5430  -26.6880   19.7200 C   0  0  0  0  0  2  0  0  0  0  0  0
  -29.4400  -27.1860   20.6390 C   0  0  0  0  0  2  0  0  0  0  0  0
  -28.2320  -26.6710   20.0780 O   0  0  0  0  0  0  0  0  0  0  0  0
  -24.5170  -31.8680   23.2200 C   0  0  0  0  0  0  0  0  0  0  0  0
  -27.0880  -27.4290   20.1600 C   0  0  0  0  0  0  0  0  0  0  0  0
  -23.2650  -30.4770   21.5940 C   0  0  0  0  0  3  0  0  0  0  0  0
  -24.6820  -28.9090   20.1690 C   0  0  0  0  0  0  0  0  0  0  0  0
  -25.7780  -30.8190   21.3560 C   0  0  0  0  0  2  0  0  0  0  0  0
  -25.8390  -29.4390   20.7490 C   0  0  0  0  0  0  0  0  0  0  0  0
  -27.0320  -28.7050   20.7640 C   0  0  0  0  0  3  0  0  0  0  0  0
  -25.9160  -26.8990   19.5770 C   0  0  0  0  0  3  0  0  0  0  0  0
  -24.7120  -27.6310   19.5830 C   0  0  0  0  0  3  0  0  0  0  0  0
  -23.4460  -29.7780   20.2170 C   0  0  0  0  0  2  0  0  0  0  0  0
  -24.5390  -31.0690   22.1170 N   0  0  0  0  0  0  0  0  0  0  0  0
  -23.4500  -32.1600   23.7760 O   0  0  0  0  0  0  0  0  0  0  0  0
  -22.6140  -29.4710   22.5670 C   0  0  0  0  0  0  0  0  0  0  0  0
  -21.2960  -29.2660   22.4170 N   0  0  0  0  0  0  0  0  0  0  0  0
  -23.2910  -28.8770   23.4110 O   0  0  0  0  0  0  0  0  0  0  0  0
  -20.8120  -29.7990   21.7060 H   0  0  0  0  0  0  0  0  0  0  0  0
  -17.9450  -27.9910   22.8070 C   0  0  0  0  0  0  0  0  0  0  0  0
  -20.4760  -28.3400   23.1940 C   0  0  0  0  0  3  0  0  0  0  0  0
  -20.6500  -26.8880   22.6940 C   0  0  0  0  0  2  0  0  0  0  0  0
  -19.6120  -26.4830   21.6420 C   0  0  0  0  0  2  0  0  0  0  0  0
  -18.1950  -26.6160   22.2090 C   0  0  0  0  0  2  0  0  0  0  0  0
  -19.0170  -28.8060   23.2550 C   0  0  0  0  0  0  0  0  0  0  0  0
  -18.7330  -30.0900   23.7710 C   0  0  0  0  0  3  0  0  0  0  0  0
  -17.4080  -30.5590   23.8440 C   0  0  0  0  0  3  0  0  0  0  0  0
  -16.3490  -29.7410   23.4140 C   0  0  0  0  0  3  0  0  0  0  0  0
  -16.6180  -28.4600   22.9020 C   0  0  0  0  0  3  0  0  0  0  0  0
  -25.8250  -32.4760   23.8190 C   0  0  0  0  0  3  0  0  0  0  0  0
  -25.5440  -33.8750   24.1600 N   0  0  0  0  0  0  0  0  0  0  0  0
  -25.8920  -34.9250   23.4030 C   0  0  0  0  0  0  0  0  0  0  0  0
  -26.5530  -34.8150   22.3660 O   0  0  0  0  0  0  0  0  0  0  0  0
  -24.9540  -34.0380   24.9640 H   0  0  0  0  0  0  0  0  0  0  0  0
  -24.1890  -36.7470   23.0750 C   0  0  0  0  0  1  0  0  0  0  0  0
  -25.4320  -36.3190   23.8710 C   0  0  0  0  0  3  0  0  0  0  0  0
  -27.5910  -37.1630   24.6820 C   0  0  0  0  0  1  0  0  0  0  0  0
  -26.4800  -37.3560   23.7530 N   0  0  0  0  0  0  0  0  0  0  0  0
  -26.0900  -38.2800   23.9140 H   0  0  0  0  0  0  0  0  0  0  0  0
  -26.3650  -31.6860   25.0750 C   0  0  1  0  0  0  0  0  0  0  0  0
  -25.2930  -31.4480   26.1640 C   0  0  0  0  0  1  0  0  0  0  0  0
  -26.9240  -30.3080   24.6500 C   0  0  0  0  0  1  0  0  0  0  0  0
  -27.5380  -32.4620   25.7190 C   0  0  0  0  0  1  0  0  0  0  0  0
  -33.4680  -21.2130   20.8420 C   0  0  0  0  0  3  0  0  0  0  0  0
  -32.4710  -21.7170   19.9880 C   0  0  0  0  0  3  0  0  0  0  0  0
  -35.0110  -21.1190   18.9630 C   0  0  0  0  0  3  0  0  0  0  0  0
  -34.7340  -20.8800   20.3230 C   0  0  0  0  0  0  0  0  0  0  0  0
  -32.7210  -21.8890   18.6080 C   0  0  0  0  0  0  0  0  0  0  0  0
  -34.0140  -21.6040   18.0940 C   0  0  0  0  0  0  0  0  0  0  0  0
  -34.3610  -21.7780   16.6230 C   0  0  0  0  0  1  0  0  0  0  0  0
  -35.7670  -20.2200   21.2160 C   0  0  0  0  0  2  0  0  0  0  0  0
  -35.7250  -18.7990   21.0940 O   0  0  0  0  0  0  0  0  0  0  0  0
  -36.4570  -18.2750   19.9900 C   0  0  0  0  0  2  0  0  0  0  0  0
  -35.6820  -17.1740   19.2350 C   0  0  0  0  0  2  0  0  0  0  0  0
  -34.6790  -17.6980   18.1730 C   0  0  0  0  0  2  0  0  0  0  0  0
  -33.1580  -17.5260   18.4220 C   0  0  0  0  0  2  0  0  0  0  0  0
  -32.6560  -17.5580   19.8840 C   0  0  0  0  0  2  0  0  0  0  0  0
  -31.2300  -16.9910   20.0780 C   0  0  0  0  0  2  0  0  0  0  0  0
  -31.8540  -14.5270   20.3160 C   0  0  0  0  0  0  0  0  0  0  0  0
  -31.4940  -12.2890   19.3920 C   0  0  0  0  0  2  0  0  0  0  0  0
  -30.5870  -12.4320   18.1520 C   0  0  0  0  0  2  0  0  0  0  0  0
  -29.1030  -12.3890   18.5640 C   0  0  0  0  0  2  0  0  0  0  0  0
  -28.7770  -13.3610   19.7310 C   0  0  0  0  0  3  0  0  0  0  0  0
  -29.7950  -13.1910   20.8810 C   0  0  0  0  0  2  0  0  0  0  0  0
  -31.1450  -13.3710   20.3210 N   0  0  0  0  0  0  0  0  0  0  0  0
  -33.0040  -14.5870   19.8980 O   0  0  0  0  0  0  0  0  0  0  0  0
  -31.1170  -15.6140   20.5930 N   0  0  0  0  0  0  0  0  0  0  0  0
  -30.2190  -15.3800   20.9870 H   0  0  0  0  0  0  0  0  0  0  0  0
  -26.4220  -14.1390   20.4330 C   0  0  0  0  0  0  0  0  0  0  0  0
  -25.3020  -13.4420   20.7930 C   0  0  0  0  0  0  0  0  0  0  0  0
  -25.6650  -12.0610   20.7420 C   0  0  0  0  0  0  0  0  0  0  0  0
  -27.4030  -13.1880   20.1980 N   0  0  0  0  0  0  0  0  0  0  0  0
  -26.9480  -11.9320   20.4360 N   0  0  0  0  0  0  0  0  0  0  0  0
  -24.8540  -10.8480   20.9120 C   0  0  0  0  0  0  0  0  0  0  0  0
  -25.1640   -9.8810   21.8940 C   0  0  0  0  0  3  0  0  0  0  0  0
  -24.3530   -8.7370   22.0510 C   0  0  0  0  0  3  0  0  0  0  0  0
  -23.2200   -8.5500   21.2250 C   0  0  0  0  0  0  0  0  0  0  0  0
  -22.9300   -9.5030   20.2340 C   0  0  0  0  0  3  0  0  0  0  0  0
  -23.7400  -10.6390   20.0740 C   0  0  0  0  0  3  0  0  0  0  0  0
  -22.3940   -7.4550   21.2890 O   0  0  0  0  0  0  0  0  0  0  0  0
  -22.1110   -6.8370   22.4800 C   0  0  0  0  0  0  0  0  0  0  0  0
  -21.5440   -7.5380   23.5680 C   0  0  0  0  0  3  0  0  0  0  0  0
  -21.2020   -6.8500   24.7480 C   0  0  0  0  0  3  0  0  0  0  0  0
  -21.4180   -5.4630   24.8430 C   0  0  0  0  0  0  0  0  0  0  0  0
  -21.9780   -4.7610   23.7590 C   0  0  0  0  0  3  0  0  0  0  0  0
  -22.3200   -5.4490   22.5810 C   0  0  0  0  0  0  0  0  0  0  0  0
  -22.8400   -4.7650   21.5330 F   0  0  0  0  0  0  0  0  0  0  0  0
  -21.0830   -4.7970   25.9730 F   0  0  0  0  0  0  0  0  0  0  0  0
  -23.9430  -14.0150   21.0730 C   0  0  0  0  0  0  0  0  0  0  0  0
  -23.1820  -13.3780   21.9570 N   0  0  0  0  0  0  0  0  0  0  0  0
  -23.5660  -15.0600   20.5450 O   0  0  0  0  0  0  0  0  0  0  0  0
  -23.5000  -12.5270   22.4000 H   0  0  0  0  0  0  0  0  0  0  0  0
  -22.2720  -13.7410   22.1990 H   0  0  0  0  0  0  0  0  0  0  0  0
  -26.6870  -15.4950   20.2680 N   0  0  0  0  0  0  0  0  0  0  0  0
  -25.9790  -16.2070   20.4080 H   0  0  0  0  0  0  0  0  0  0  0  0
  -27.5630  -15.8690   19.9250 H   0  0  0  0  0  0  0  0  0  0  0  0
  1 59  1  0
  2  4  1  0
  3  5  1  0
  3  6  1  0
  5  7  1  0
  6  2  1  0
  6  9  1  0
  7  1  1  0
  7  4  1  0
  7  8  1  6
  9 11  1  0
  9 12  1  0
 10  9  1  0
 12 13  1  0
 14 16  1  0
 14 13  1  0
 15 26  2  0
 16 21  1  0
 17 25  1  0
 17 27  1  0
 18 24  1  0
 18 20  1  0
 19 25  1  0
 20 21  2  0
 20 19  1  0
 22 23  1  0
 22 16  2  0
 23 18  2  0
 24 17  1  0
 25 15  1  0
 27 29  2  0
 28 27  1  0
 30 28  1  0
 31 40  2  0
 31 36  1  0
 32 28  1  0
 32 36  1  0
 33 32  1  0
 34 35  1  0
 34 33  1  0
 35 31  1  0
 36 37  2  0
 37 38  1  0
 39 38  2  0
 40 39  1  0
 41 15  1  0
 41 42  1  0
 41 51  1  0
 42 45  1  0
 43 47  1  0
 43 42  1  0
 44 43  2  0
 47 46  1  0
 49 47  1  0
 49 50  1  0
 49 48  1  0
 51 54  1  1
 51 52  1  0
 53 51  1  0
 56 55  2  0
 57 58  2  0
 58 55  1  0
 58 62  1  0
 59 56  1  0
 60 59  2  0
 60 57  1  0
 61 60  1  0
 63 62  1  0
 64 63  1  0
 65 64  1  0
 66 67  1  0
 66 65  1  0
 67 68  1  0
 68 69  1  0
 69 78  1  0
 70 76  1  0
 70 78  1  0
 71 76  1  0
 72 73  1  0
 72 71  1  0
 74 73  1  0
 74 83  1  0
 74 75  1  0
 76 75  1  0
 77 70  2  0
 78 79  1  0
 80 81  2  0
 81100  1  0
 82 81  1  0
 82 85  1  0
 83 80  1  0
 83 84  1  0
 84 82  2  0
 85 86  1  0
 86 87  2  0
 88 91  1  0
 88 87  1  0
 89 88  2  0
 90 89  1  0
 90 85  2  0
 91 92  1  0
 92 97  2  0
 92 93  1  0
 93 94  2  0
 94 95  1  0
 95 99  1  0
 96 95  2  0
 97 96  1  0
 98 97  1  0
100101  1  0
101104  1  0
101103  1  0
102100  2  0
105106  1  0
105 80  1  0
107105  1  0
M  ISO  4  13 101  14 101  70 100  78 100
M  END
>  <TORSDO>  (77) 
F 29

>  <SCORE>  (77) 
-10.165

>  <name>  (77) 
76

>  <ligand_id>  (77) 
76

>  <original_smiles>  (77) 
[H]c1c([H])c([H])c2c(c1[H])C([H])([H])C([H])([H])C([H])([H])C2([H])N([H])C(=O)C1([H])N(C(=O)C([H])(N([H])C(=O)C([H])(N([H])C([H])([H])[H])C([H])([H])[H])C(C([H])([H])[H])(C([H])([H])[H])C([H])([H])[H])C([H])([H])c2c([H])c(OC([H])([H])C([H])([H])[N+]([H])([H])C3([H])C([H])([H])C([H])([H])[N+]([H])(C([H])([H])c4c([H])c([H])c(C([H])([H])OC([H])([H])C([H])([H])C([H])([H])C([H])([H])C([H])([H])C([H])([H])N([H])C(=O)N5C([H])([H])C([H])([H])C([H])([H])C([H])(n6nc(-c7c([H])c([H])c(Oc8c([H])c([H])c(F)c([H])c8F)c([H])c7[H])c(C(=O)N([H])[H])c6N([H])[H])C5([H])[H])c([H])c4C([H])([H])[H])C([H])([H])C3([H])[H])c([H])c([H])c2C1([H])[H]

>  <smiles>  (77) 
[H]c1c([H])c([H])c2c(c1[H])C([H])([H])C([H])([H])C([H])([H])C2([H])N([H])C(=O)C1([H])N(C(=O)C([H])(N([H])C(=O)C([H])(N([H])C([H])([H])[H])C([H])([H])[H])C(C([H])([H])[H])(C([H])([H])[H])C([H])([H])[H])C([H])([H])c2c([H])c(OC([H])([H])C([H])([H])[N+]([H])([H])C3([H])C([H])([H])C([H])([H])[N+]([H])(C([H])([H])c4c([H])c([H])c(C([H])([H])OC([H])([H])C([H])([H])C([H])([H])C([H])([H])C([H])([H])C([H])([H])N([H])C(=O)N5C([H])([H])C([H])([H])C([H])([H])C([H])(n6nc(-c7c([H])c([H])c(Oc8c([H])c([H])c(F)c([H])c8F)c([H])c7[H])c(C(=O)N([H])[H])c6N([H])[H])C5([H])[H])c([H])c4C([H])([H])[H])C([H])([H])C3([H])[H])c([H])c([H])c2C1([H])[H]

$$$$
77:0:0
     RDKit          3D

 89 97  0  0  1  0  0  0  0  0999 V2000
  -29.4940  -19.9730   21.5250 C   0  0  0  0  0  3  0  0  0  0  0  0
  -29.3780  -19.8550   19.1740 C   0  0  0  0  0  3  0  0  0  0  0  0
  -29.1960  -21.3980   21.4730 C   0  0  0  0  0  3  0  0  0  0  0  0
  -29.0830  -21.2790   19.1220 C   0  0  0  0  0  3  0  0  0  0  0  0
  -29.6440  -19.1210   20.3770 C   0  0  0  0  0  0  0  0  0  0  0  0
  -29.0140  -22.1490   20.2630 C   0  0  0  0  0  0  0  0  0  0  0  0
  -30.4000  -17.6560   20.4140 C   0  0  0  0  0  2  0  0  0  0  0  0
  -30.5970  -14.9920   20.2800 C   0  0  0  0  0  0  0  0  0  0  0  0
  -30.4470  -12.6580   19.3290 C   0  0  0  0  0  2  0  0  0  0  0  0
  -29.5130  -12.6310   18.1000 C   0  0  0  0  0  2  0  0  0  0  0  0
  -28.0490  -12.4290   18.5350 C   0  0  0  0  0  2  0  0  0  0  0  0
  -27.6490  -13.3460   19.7220 C   0  0  0  0  0  3  0  0  0  0  0  0
  -28.7080  -13.3530   20.8430 C   0  0  0  0  0  2  0  0  0  0  0  0
  -29.9790  -13.7500   20.2270 N   0  0  0  0  0  0  0  0  0  0  0  0
  -31.7970  -15.0430   19.9950 O   0  0  0  0  0  0  0  0  0  0  0  0
  -29.8590  -16.1900   20.4430 N   0  0  0  0  0  0  0  0  0  0  0  0
  -28.8690  -16.0830   20.6090 H   0  0  0  0  0  0  0  0  0  0  0  0
  -25.2690  -13.9080   20.4760 C   0  0  0  0  0  0  0  0  0  0  0  0
  -24.2120  -13.1240   20.8490 C   0  0  0  0  0  0  0  0  0  0  0  0
  -24.6860  -11.7760   20.8120 C   0  0  0  0  0  0  0  0  0  0  0  0
  -26.3160  -13.0370   20.2270 N   0  0  0  0  0  0  0  0  0  0  0  0
  -25.9760  -11.7500   20.4970 N   0  0  0  0  0  0  0  0  0  0  0  0
  -23.9680  -10.5080   21.0010 C   0  0  0  0  0  0  0  0  0  0  0  0
  -24.3920   -9.5520   21.9490 C   0  0  0  0  0  3  0  0  0  0  0  0
  -23.6720   -8.3510   22.1260 C   0  0  0  0  0  3  0  0  0  0  0  0
  -22.5140   -8.0960   21.3550 C   0  0  0  0  0  0  0  0  0  0  0  0
  -22.1090   -9.0410   20.3950 C   0  0  0  0  0  3  0  0  0  0  0  0
  -22.8290  -10.2330   20.2160 C   0  0  0  0  0  3  0  0  0  0  0  0
  -21.7680   -6.9460   21.4400 O   0  0  0  0  0  0  0  0  0  0  0  0
  -21.6820   -6.2280   22.6060 C   0  0  0  0  0  0  0  0  0  0  0  0
  -21.1800   -6.7980   23.7960 C   0  0  0  0  0  3  0  0  0  0  0  0
  -21.0440   -6.0050   24.9540 C   0  0  0  0  0  3  0  0  0  0  0  0
  -21.3980   -4.6430   24.9210 C   0  0  0  0  0  0  0  0  0  0  0  0
  -21.8930   -4.0720   23.7350 C   0  0  0  0  0  3  0  0  0  0  0  0
  -22.0320   -4.8630   22.5800 C   0  0  0  0  0  0  0  0  0  0  0  0
  -22.4870   -4.3030   21.4340 F   0  0  0  0  0  0  0  0  0  0  0  0
  -21.2610   -3.8800   26.0300 F   0  0  0  0  0  0  0  0  0  0  0  0
  -22.8130  -13.5910   21.1250 C   0  0  0  0  0  0  0  0  0  0  0  0
  -22.0900  -12.8860   21.9880 N   0  0  0  0  0  0  0  0  0  0  0  0
  -22.3690  -14.6160   20.6090 O   0  0  0  0  0  0  0  0  0  0  0  0
  -22.4630  -12.0580   22.4280 H   0  0  0  0  0  0  0  0  0  0  0  0
  -21.1510  -13.1810   22.2140 H   0  0  0  0  0  0  0  0  0  0  0  0
  -25.4210  -15.2800   20.3000 N   0  0  0  0  0  0  0  0  0  0  0  0
  -24.6470  -15.9230   20.4150 H   0  0  0  0  0  0  0  0  0  0  0  0
  -26.2530  -15.7260   19.9340 H   0  0  0  0  0  0  0  0  0  0  0  0
  -29.0360  -23.7960   20.1430 C   0  0  0  0  0  2  0  0  0  0  0  0
  -27.9030  -24.7920   20.4520 N   0  0  0  0  0  0  0  0  0  0  0  0
  -27.1310  -24.5910   19.8250 H   0  0  0  0  0  0  0  0  0  0  0  0
  -28.2700  -26.3090   20.1880 O   0  0  0  0  0  0  0  0  0  0  0  0
  -24.6100  -31.9230   23.2300 C   0  0  0  0  0  0  0  0  0  0  0  0
  -27.1870  -27.2470   20.1850 C   0  0  0  0  0  0  0  0  0  0  0  0
  -23.4020  -30.5200   21.6010 C   0  0  0  0  0  3  0  0  0  0  0  0
  -24.8450  -28.9540   20.1670 C   0  0  0  0  0  0  0  0  0  0  0  0
  -25.9490  -30.8060   21.4120 C   0  0  0  0  0  2  0  0  0  0  0  0
  -26.0230  -29.4140   20.7710 C   0  0  0  0  0  0  0  0  0  0  0  0
  -27.1930  -28.5720   20.7710 C   0  0  0  0  0  3  0  0  0  0  0  0
  -25.9910  -26.8850   19.5330 C   0  0  0  0  0  3  0  0  0  0  0  0
  -24.8390  -27.7000   19.5350 C   0  0  0  0  0  3  0  0  0  0  0  0
  -23.6140  -29.8430   20.2200 C   0  0  0  0  0  2  0  0  0  0  0  0
  -24.6730  -31.1050   22.1360 N   0  0  0  0  0  0  0  0  0  0  0  0
  -23.5280  -32.2020   23.7680 O   0  0  0  0  0  0  0  0  0  0  0  0
  -22.7410  -29.5090   22.5700 C   0  0  0  0  0  0  0  0  0  0  0  0
  -21.4150  -29.3180   22.4450 N   0  0  0  0  0  0  0  0  0  0  0  0
  -23.4220  -28.8970   23.3960 O   0  0  0  0  0  0  0  0  0  0  0  0
  -20.9210  -29.8640   21.7530 H   0  0  0  0  0  0  0  0  0  0  0  0
  -18.0500  -28.0850   22.9620 C   0  0  0  0  0  0  0  0  0  0  0  0
  -20.6060  -28.3770   23.2230 C   0  0  0  0  0  3  0  0  0  0  0  0
  -20.7230  -26.9420   22.6560 C   0  0  0  0  0  2  0  0  0  0  0  0
  -19.6230  -26.6020   21.6470 C   0  0  0  0  0  2  0  0  0  0  0  0
  -18.2400  -26.7340   22.2930 C   0  0  0  0  0  2  0  0  0  0  0  0
  -19.1610  -28.8630   23.3850 C   0  0  0  0  0  0  0  0  0  0  0  0
  -18.9270  -30.1260   23.9720 C   0  0  0  0  0  3  0  0  0  0  0  0
  -17.6170  -30.6110   24.1410 C   0  0  0  0  0  3  0  0  0  0  0  0
  -16.5200  -29.8310   23.7320 C   0  0  0  0  0  3  0  0  0  0  0  0
  -16.7380  -28.5700   23.1480 C   0  0  0  0  0  3  0  0  0  0  0  0
  -25.8920  -32.5650   23.8430 C   0  0  0  0  0  3  0  0  0  0  0  0
  -26.4180  -31.8000   25.1190 C   0  0  1  0  0  0  0  0  0  0  0  0
  -25.3300  -31.5580   26.1930 C   0  0  0  0  0  1  0  0  0  0  0  0
  -27.0080  -30.4250   24.7310 C   0  0  0  0  0  1  0  0  0  0  0  0
  -27.5670  -32.6030   25.7750 C   0  0  0  0  0  1  0  0  0  0  0  0
  -25.5770  -33.9630   24.1780 N   0  0  0  0  0  0  0  0  0  0  0  0
  -25.8980  -35.0210   23.4210 C   0  0  0  0  0  0  0  0  0  0  0  0
  -26.5590  -34.9230   22.3840 O   0  0  0  0  0  0  0  0  0  0  0  0
  -24.9880  -34.1120   24.9840 H   0  0  0  0  0  0  0  0  0  0  0  0
  -24.1660  -36.8160   23.0850 C   0  0  0  0  0  1  0  0  0  0  0  0
  -25.4110  -36.4070   23.8880 C   0  0  0  0  0  3  0  0  0  0  0  0
  -27.5450  -37.2960   24.7180 C   0  0  0  0  0  1  0  0  0  0  0  0
  -26.4410  -37.4620   23.7760 N   0  0  0  0  0  0  0  0  0  0  0  0
  -26.0340  -38.3810   23.9240 H   0  0  0  0  0  0  0  0  0  0  0  0
  2  5  1  0
  3  1  1  0
  4  2  2  0
  4  6  1  0
  5  7  1  0
  5  1  2  0
  6  3  2  0
  7 16  1  0
  8 16  1  0
  9 14  1  0
 10 11  1  0
 10  9  1  0
 12 11  1  0
 12 21  1  0
 12 13  1  0
 14  8  1  0
 14 13  1  0
 15  8  2  0
 16 17  1  0
 18 19  2  0
 19 38  1  0
 20 19  1  0
 20 23  1  0
 21 18  1  0
 21 22  1  0
 22 20  2  0
 23 24  1  0
 24 25  2  0
 26 29  1  0
 26 25  1  0
 27 26  2  0
 28 27  1  0
 28 23  2  0
 29 30  1  0
 30 31  1  0
 31 32  2  0
 33 32  1  0
 33 37  1  0
 34 33  2  0
 35 30  2  0
 35 34  1  0
 36 35  1  0
 38 39  1  0
 39 42  1  0
 39 41  1  0
 40 38  2  0
 43 44  1  0
 43 18  1  0
 45 43  1  0
 46  6  1  0
 46 47  1  0
 48 47  1  0
 49 47  1  0
 50 61  2  0
 51 49  1  0
 51 56  1  0
 52 60  1  0
 52 62  1  0
 53 59  1  0
 53 55  1  0
 54 60  1  0
 55 54  1  0
 56 55  2  0
 57 58  1  0
 57 51  2  0
 58 53  2  0
 59 52  1  0
 60 50  1  0
 62 64  2  0
 63 62  1  0
 65 63  1  0
 66 75  2  0
 66 71  1  0
 67 63  1  0
 67 71  1  0
 68 67  1  0
 69 70  1  0
 69 68  1  0
 70 66  1  0
 71 72  2  0
 72 73  1  0
 74 73  2  0
 75 74  1  0
 76 50  1  0
 76 81  1  0
 76 77  1  0
 77 80  1  1
 77 78  1  0
 79 77  1  0
 81 84  1  0
 82 86  1  0
 82 81  1  0
 83 82  2  0
 86 85  1  0
 88 86  1  0
 88 89  1  0
 88 87  1  0
M  ISO  4   8 100  16 100  47 101  49 101
M  END
>  <TORSDO>  (78) 
F 19

>  <SCORE>  (78) 
-13.870

>  <name>  (78) 
77

>  <ligand_id>  (78) 
77

>  <original_smiles>  (78) 
[H]c1c([H])c([H])c2c(c1[H])C([H])([H])C([H])([H])C([H])([H])C2([H])N([H])C(=O)C1([H])N(C(=O)C([H])(N([H])C(=O)C([H])(N([H])C([H])([H])[H])C([H])([H])[H])C(C([H])([H])[H])(C([H])([H])[H])C([H])([H])[H])C([H])([H])c2c([H])c(ON([H])C([H])([H])c3c([H])c([H])c(C([H])([H])N([H])C(=O)N4C([H])([H])C([H])([H])C([H])([H])C([H])(n5nc(-c6c([H])c([H])c(Oc7c([H])c([H])c(F)c([H])c7F)c([H])c6[H])c(C(=O)N([H])[H])c5N([H])[H])C4([H])[H])c([H])c3[H])c([H])c([H])c2C1([H])[H]

>  <smiles>  (78) 
[H]c1c([H])c([H])c2c(c1[H])C([H])([H])C([H])([H])C([H])([H])C2([H])N([H])C(=O)C1([H])N(C(=O)C([H])(N([H])C(=O)C([H])(N([H])C([H])([H])[H])C([H])([H])[H])C(C([H])([H])[H])(C([H])([H])[H])C([H])([H])[H])C([H])([H])c2c([H])c(ON([H])C([H])([H])c3c([H])c([H])c(C([H])([H])N([H])C(=O)N4C([H])([H])C([H])([H])C([H])([H])C([H])(n5nc(-c6c([H])c([H])c(Oc7c([H])c([H])c(F)c([H])c7F)c([H])c6[H])c(C(=O)N([H])[H])c5N([H])[H])C4([H])[H])c([H])c3[H])c([H])c([H])c2C1([H])[H]

$$$$
78:0:0
     RDKit          3D

 88 96  0  0  1  0  0  0  0  0999 V2000
  -30.2980  -20.0140   20.2090 C   0  0  0  0  0  3  0  0  0  0  0  0
  -27.9960  -19.5590   20.3510 C   0  0  0  0  0  3  0  0  0  0  0  0
  -30.5810  -18.5740   20.2410 C   0  0  0  0  0  3  0  0  0  0  0  0
  -28.2680  -18.1450   20.3980 C   0  0  0  0  0  3  0  0  0  0  0  0
  -28.9770  -20.5950   20.2390 C   0  0  0  0  0  0  0  0  0  0  0  0
  -29.5660  -17.5530   20.3280 C   0  0  0  0  0  0  0  0  0  0  0  0
  -30.4910  -14.9580   20.0280 C   0  0  0  0  0  0  0  0  0  0  0  0
  -30.3260  -12.6530   18.9960 C   0  0  0  0  0  2  0  0  0  0  0  0
  -29.3170  -12.6920   17.8230 C   0  0  0  0  0  2  0  0  0  0  0  0
  -27.8740  -12.4830   18.3260 C   0  0  0  0  0  2  0  0  0  0  0  0
  -27.5530  -13.3510   19.5710 C   0  0  0  0  0  3  0  0  0  0  0  0
  -28.6730  -13.2680   20.6320 C   0  0  0  0  0  2  0  0  0  0  0  0
  -29.9240  -13.6900   19.9830 N   0  0  0  0  0  0  0  0  0  0  0  0
  -31.6500  -15.1040   19.6210 O   0  0  0  0  0  0  0  0  0  0  0  0
  -29.6500  -16.0300   20.3880 N   0  0  0  0  0  0  0  0  0  0  0  0
  -28.7760  -15.6360   20.7020 H   0  0  0  0  0  0  0  0  0  0  0  0
  -25.2100  -13.9240   20.4370 C   0  0  0  0  0  0  0  0  0  0  0  0
  -24.1660  -13.1450   20.8550 C   0  0  0  0  0  0  0  0  0  0  0  0
  -24.6250  -11.7940   20.7740 C   0  0  0  0  0  0  0  0  0  0  0  0
  -26.2380  -13.0490   20.1290 N   0  0  0  0  0  0  0  0  0  0  0  0
  -25.8970  -11.7610   20.3930 N   0  0  0  0  0  0  0  0  0  0  0  0
  -23.9070  -10.5300   20.9780 C   0  0  0  0  0  0  0  0  0  0  0  0
  -24.3680   -9.5540   21.8880 C   0  0  0  0  0  3  0  0  0  0  0  0
  -23.6480   -8.3550   22.0800 C   0  0  0  0  0  3  0  0  0  0  0  0
  -22.4520   -8.1230   21.3610 C   0  0  0  0  0  0  0  0  0  0  0  0
  -22.0090   -9.0850   20.4380 C   0  0  0  0  0  3  0  0  0  0  0  0
  -22.7300  -10.2760   20.2440 C   0  0  0  0  0  3  0  0  0  0  0  0
  -21.7020   -6.9760   21.4630 O   0  0  0  0  0  0  0  0  0  0  0  0
  -21.6680   -6.2380   22.6190 C   0  0  0  0  0  0  0  0  0  0  0  0
  -21.2150   -6.7850   23.8400 C   0  0  0  0  0  3  0  0  0  0  0  0
  -21.1310   -5.9740   24.9870 C   0  0  0  0  0  3  0  0  0  0  0  0
  -21.4910   -4.6140   24.9170 C   0  0  0  0  0  0  0  0  0  0  0  0
  -21.9380   -4.0660   23.7030 C   0  0  0  0  0  3  0  0  0  0  0  0
  -22.0240   -4.8750   22.5560 C   0  0  0  0  0  0  0  0  0  0  0  0
  -22.4360   -4.3370   21.3830 F   0  0  0  0  0  0  0  0  0  0  0  0
  -21.4030   -3.8320   26.0180 F   0  0  0  0  0  0  0  0  0  0  0  0
  -22.7860  -13.6200   21.2090 C   0  0  0  0  0  0  0  0  0  0  0  0
  -22.1050  -12.9120   22.1030 N   0  0  0  0  0  0  0  0  0  0  0  0
  -22.3230  -14.6540   20.7270 O   0  0  0  0  0  0  0  0  0  0  0  0
  -22.4940  -12.0770   22.5120 H   0  0  0  0  0  0  0  0  0  0  0  0
  -21.1820  -13.2130   22.3840 H   0  0  0  0  0  0  0  0  0  0  0  0
  -25.3600  -15.2970   20.2610 N   0  0  0  0  0  0  0  0  0  0  0  0
  -24.5600  -15.9160   20.3350 H   0  0  0  0  0  0  0  0  0  0  0  0
  -26.1150  -15.6990   19.7210 H   0  0  0  0  0  0  0  0  0  0  0  0
  -28.4570  -22.1060   20.1470 C   0  0  0  0  0  3  0  0  0  0  0  0
  -28.8930  -23.4490   20.1830 C   0  0  0  0  0  3  0  0  0  0  0  0
  -27.9580  -24.7690   19.9260 C   0  0  0  0  0  2  0  0  0  0  0  0
  -28.2880  -26.2500   20.2260 O   0  0  0  0  0  0  0  0  0  0  0  0
  -24.6100  -31.8570   23.2560 C   0  0  0  0  0  0  0  0  0  0  0  0
  -27.2350  -27.2330   20.1560 C   0  0  0  0  0  0  0  0  0  0  0  0
  -23.4300  -30.4980   21.5730 C   0  0  0  0  0  3  0  0  0  0  0  0
  -24.8990  -28.9650   20.1330 C   0  0  0  0  0  0  0  0  0  0  0  0
  -25.9860  -30.7760   21.4440 C   0  0  0  0  0  2  0  0  0  0  0  0
  -26.0700  -29.4010   20.7630 C   0  0  0  0  0  0  0  0  0  0  0  0
  -27.2400  -28.5530   20.7590 C   0  0  0  0  0  3  0  0  0  0  0  0
  -26.0340  -26.9010   19.4850 C   0  0  0  0  0  3  0  0  0  0  0  0
  -24.8930  -27.7270   19.4780 C   0  0  0  0  0  3  0  0  0  0  0  0
  -23.6690  -29.8560   20.1810 C   0  0  0  0  0  2  0  0  0  0  0  0
  -24.6940  -31.0630   22.1470 N   0  0  0  0  0  0  0  0  0  0  0  0
  -23.5180  -32.1270   23.7780 O   0  0  0  0  0  0  0  0  0  0  0  0
  -22.7420  -29.4660   22.5020 C   0  0  0  0  0  0  0  0  0  0  0  0
  -21.4150  -29.3030   22.3610 N   0  0  0  0  0  0  0  0  0  0  0  0
  -23.4050  -28.8160   23.3140 O   0  0  0  0  0  0  0  0  0  0  0  0
  -20.9350  -29.8810   21.6840 H   0  0  0  0  0  0  0  0  0  0  0  0
  -18.0210  -28.1270   22.8320 C   0  0  0  0  0  0  0  0  0  0  0  0
  -20.5830  -28.3520   23.1030 C   0  0  0  0  0  3  0  0  0  0  0  0
  -20.6670  -26.9360   22.4860 C   0  0  0  0  0  2  0  0  0  0  0  0
  -19.5610  -26.6570   21.4640 C   0  0  0  0  0  2  0  0  0  0  0  0
  -18.1820  -26.7980   22.1140 C   0  0  0  0  0  2  0  0  0  0  0  0
  -19.1490  -28.8640   23.2830 C   0  0  0  0  0  0  0  0  0  0  0  0
  -18.9440  -30.1090   23.9180 C   0  0  0  0  0  3  0  0  0  0  0  0
  -17.6440  -30.6160   24.1040 C   0  0  0  0  0  3  0  0  0  0  0  0
  -16.5310  -29.8770   23.6650 C   0  0  0  0  0  3  0  0  0  0  0  0
  -16.7210  -28.6330   23.0370 C   0  0  0  0  0  3  0  0  0  0  0  0
  -25.8810  -32.4800   23.9120 C   0  0  0  0  0  3  0  0  0  0  0  0
  -25.5740  -33.8810   24.2410 N   0  0  0  0  0  0  0  0  0  0  0  0
  -25.8890  -34.9320   23.4730 C   0  0  0  0  0  0  0  0  0  0  0  0
  -26.5370  -34.8250   22.4280 O   0  0  0  0  0  0  0  0  0  0  0  0
  -24.9970  -34.0370   25.0540 H   0  0  0  0  0  0  0  0  0  0  0  0
  -24.1400  -36.7160   23.1690 C   0  0  0  0  0  1  0  0  0  0  0  0
  -25.4120  -36.3230   23.9360 C   0  0  0  0  0  3  0  0  0  0  0  0
  -27.5670  -37.2350   24.6850 C   0  0  0  0  0  1  0  0  0  0  0  0
  -26.4350  -37.3810   23.7740 N   0  0  0  0  0  0  0  0  0  0  0  0
  -26.0270  -38.3000   23.9190 H   0  0  0  0  0  0  0  0  0  0  0  0
  -26.3560  -31.7040   25.2020 C   0  0  1  0  0  0  0  0  0  0  0  0
  -25.2340  -31.4770   26.2430 C   0  0  0  0  0  1  0  0  0  0  0  0
  -26.9350  -30.3190   24.8300 C   0  0  0  0  0  1  0  0  0  0  0  0
  -27.4960  -32.4880   25.8940 C   0  0  0  0  0  1  0  0  0  0  0  0
  1  5  2  0
  1  3  1  0
  2  4  2  0
  3  6  2  0
  5  2  1  0
  6 15  1  0
  6  4  1  0
  7 15  1  0
  8 13  1  0
  9 10  1  0
  9  8  1  0
 11 10  1  0
 11 20  1  0
 11 12  1  0
 13  7  1  0
 13 12  1  0
 14  7  2  0
 15 16  1  0
 17 18  2  0
 18 37  1  0
 19 18  1  0
 19 22  1  0
 20 21  1  0
 20 17  1  0
 21 19  2  0
 22 23  1  0
 23 24  2  0
 25 28  1  0
 25 24  1  0
 26 25  2  0
 27 26  1  0
 27 22  2  0
 28 29  1  0
 29 30  1  0
 30 31  2  0
 32 31  1  0
 32 36  1  0
 33 32  2  0
 34 29  2  0
 34 33  1  0
 35 34  1  0
 37 38  1  0
 38 41  1  0
 38 40  1  0
 39 37  2  0
 42 43  1  0
 42 17  1  0
 44 42  1  0
 45 46  2  0
 45  5  1  0
 47 46  1  0
 47 48  1  0
 49 60  2  0
 50 48  1  0
 50 55  1  0
 51 59  1  0
 51 61  1  0
 52 58  1  0
 52 54  1  0
 53 59  1  0
 54 53  1  0
 55 54  2  0
 56 50  2  0
 57 56  1  0
 57 52  2  0
 58 51  1  0
 59 49  1  0
 61 63  2  0
 62 61  1  0
 64 62  1  0
 65 74  2  0
 65 70  1  0
 66 62  1  0
 66 70  1  0
 67 66  1  0
 68 69  1  0
 68 67  1  0
 69 65  1  0
 70 71  2  0
 71 72  1  0
 73 72  2  0
 74 73  1  0
 75 49  1  0
 75 76  1  0
 75 85  1  0
 76 79  1  0
 77 81  1  0
 77 76  1  0
 78 77  2  0
 81 80  1  0
 83 84  1  0
 83 81  1  0
 83 82  1  0
 85 88  1  1
 85 86  1  0
 87 85  1  0
M  ISO  4   7 100  15 100  47 101  48 101
M  END
>  <TORSDO>  (79) 
F 18

>  <SCORE>  (79) 
-14.579

>  <name>  (79) 
78

>  <ligand_id>  (79) 
78

>  <original_smiles>  (79) 
[H]C(=C([H])C([H])([H])Oc1c([H])c([H])c2c(c1[H])C([H])([H])N(C(=O)C([H])(N([H])C(=O)C([H])(N([H])C([H])([H])[H])C([H])([H])[H])C(C([H])([H])[H])(C([H])([H])[H])C([H])([H])[H])C([H])(C(=O)N([H])C1([H])c3c([H])c([H])c([H])c([H])c3C([H])([H])C([H])([H])C1([H])[H])C2([H])[H])c1c([H])c([H])c(N([H])C(=O)N2C([H])([H])C([H])([H])C([H])([H])C([H])(n3nc(-c4c([H])c([H])c(Oc5c([H])c([H])c(F)c([H])c5F)c([H])c4[H])c(C(=O)N([H])[H])c3N([H])[H])C2([H])[H])c([H])c1[H]

>  <smiles>  (79) 
[H]C(=C([H])C([H])([H])Oc1c([H])c([H])c2c(c1[H])C([H])([H])N(C(=O)C([H])(N([H])C(=O)C([H])(N([H])C([H])([H])[H])C([H])([H])[H])C(C([H])([H])[H])(C([H])([H])[H])C([H])([H])[H])C([H])(C(=O)N([H])C1([H])c3c([H])c([H])c([H])c([H])c3C([H])([H])C([H])([H])C1([H])[H])C2([H])[H])c1c([H])c([H])c(N([H])C(=O)N2C([H])([H])C([H])([H])C([H])([H])C([H])(n3nc(-c4c([H])c([H])c(Oc5c([H])c([H])c(F)c([H])c5F)c([H])c4[H])c(C(=O)N([H])[H])c3N([H])[H])C2([H])[H])c([H])c1[H]

$$$$
79:0:0
     RDKit          3D

 84 90  0  0  1  0  0  0  0  0999 V2000
  -28.1100  -23.0800   19.6700 N   0  0  0  0  0  2  0  0  0  0  0  0
  -27.7120  -23.0910   18.7330 H   0  0  0  0  0  0  0  0  0  0  0  0
  -30.2380  -16.3430   19.7150 C   0  0  0  0  0  0  0  0  0  0  0  0
  -30.4350  -13.6670   18.9040 C   0  0  0  0  0  2  0  0  0  0  0  0
  -29.5310  -12.9980   17.8080 C   0  0  0  0  0  2  0  0  0  0  0  0
  -28.2090  -12.4990   18.3960 C   0  0  0  0  0  2  0  0  0  0  0  0
  -27.6870  -13.5150   19.4280 C   0  0  0  0  0  3  0  0  0  0  0  0
  -28.7530  -14.0690   20.4260 C   0  0  0  0  0  2  0  0  0  0  0  0
  -29.7610  -14.8830   19.6550 N   0  0  0  0  0  0  0  0  0  0  0  0
  -31.4530  -16.1670   19.4240 O   0  0  0  0  0  0  0  0  0  0  0  0
  -28.3250  -20.1810   21.0530 C   0  0  0  0  0  2  0  0  0  0  0  0
  -28.4680  -18.5000   20.7310 C   0  0  0  0  0  2  0  0  0  0  0  0
  -29.6930  -19.6590   19.3730 C   0  0  0  0  0  1  0  0  0  0  0  0
  -28.7630  -21.3040   19.9670 C   0  0  0  0  0  2  0  0  0  0  0  0
  -29.5610  -17.9010   19.8190 N   0  0  0  0  0  0  0  0  0  0  0  0
  -25.4220  -13.9520   20.4530 C   0  0  0  0  0  0  0  0  0  0  0  0
  -24.4040  -13.1470   20.8700 C   0  0  0  0  0  0  0  0  0  0  0  0
  -24.8690  -11.8030   20.7150 C   0  0  0  0  0  0  0  0  0  0  0  0
  -26.4410  -13.1080   20.0630 N   0  0  0  0  0  0  0  0  0  0  0  0
  -26.1290  -11.8000   20.2780 N   0  0  0  0  0  0  0  0  0  0  0  0
  -24.1530  -10.5310   20.9000 C   0  0  0  0  0  0  0  0  0  0  0  0
  -24.5880   -9.5650   21.8340 C   0  0  0  0  0  3  0  0  0  0  0  0
  -23.8650   -8.3640   22.0150 C   0  0  0  0  0  3  0  0  0  0  0  0
  -22.6930   -8.1200   21.2600 C   0  0  0  0  0  0  0  0  0  0  0  0
  -22.2770   -9.0750   20.3160 C   0  0  0  0  0  3  0  0  0  0  0  0
  -23.0000  -10.2660   20.1340 C   0  0  0  0  0  3  0  0  0  0  0  0
  -21.9430   -6.9720   21.3490 O   0  0  0  0  0  0  0  0  0  0  0  0
  -21.7930   -6.2980   22.5350 C   0  0  0  0  0  0  0  0  0  0  0  0
  -21.2270   -6.9120   23.6740 C   0  0  0  0  0  3  0  0  0  0  0  0
  -21.0270   -6.1640   24.8510 C   0  0  0  0  0  3  0  0  0  0  0  0
  -21.3830   -4.8020   24.8900 C   0  0  0  0  0  0  0  0  0  0  0  0
  -21.9420   -4.1890   23.7550 C   0  0  0  0  0  3  0  0  0  0  0  0
  -22.1430   -4.9340   22.5810 C   0  0  0  0  0  0  0  0  0  0  0  0
  -22.6610   -4.3310   21.4840 F   0  0  0  0  0  0  0  0  0  0  0  0
  -21.1850   -4.0810   26.0180 F   0  0  0  0  0  0  0  0  0  0  0  0
  -23.0390  -13.6060   21.2890 C   0  0  0  0  0  0  0  0  0  0  0  0
  -22.3920  -12.8680   22.1830 N   0  0  0  0  0  0  0  0  0  0  0  0
  -22.5610  -14.6560   20.8610 O   0  0  0  0  0  0  0  0  0  0  0  0
  -22.7960  -12.0190   22.5490 H   0  0  0  0  0  0  0  0  0  0  0  0
  -21.4800  -13.1560   22.5070 H   0  0  0  0  0  0  0  0  0  0  0  0
  -25.5630  -15.3330   20.3360 N   0  0  0  0  0  0  0  0  0  0  0  0
  -24.8070  -15.9730   20.5540 H   0  0  0  0  0  0  0  0  0  0  0  0
  -26.3760  -15.7950   19.9510 H   0  0  0  0  0  0  0  0  0  0  0  0
  -28.2140  -25.0620   20.1950 O   0  0  0  0  0  1  0  0  0  0  0  0
  -24.6880  -31.7620   23.1450 C   0  0  0  0  0  0  0  0  0  0  0  0
  -27.2600  -26.4280   20.1200 C   0  0  0  0  0  0  0  0  0  0  0  0
  -23.5400  -30.3750   21.4760 C   0  0  0  0  0  3  0  0  0  0  0  0
  -25.0150  -28.6850   20.0670 C   0  0  0  0  0  0  0  0  0  0  0  0
  -26.1320  -30.4230   21.4280 C   0  0  0  0  0  2  0  0  0  0  0  0
  -26.2040  -28.9630   20.7480 C   0  0  0  0  0  0  0  0  0  0  0  0
  -27.2840  -27.8730   20.7390 C   0  0  0  0  0  3  0  0  0  0  0  0
  -26.0370  -26.4640   19.3700 C   0  0  0  0  0  3  0  0  0  0  0  0
  -24.9930  -27.4670   19.3550 C   0  0  0  0  0  3  0  0  0  0  0  0
  -23.8160  -29.6730   20.1080 C   0  0  0  0  0  2  0  0  0  0  0  0
  -24.8140  -30.8960   22.0690 N   0  0  0  0  0  0  0  0  0  0  0  0
  -23.5810  -32.0630   23.6300 O   0  0  0  0  0  0  0  0  0  0  0  0
  -22.7840  -29.4110   22.4350 C   0  0  0  0  0  0  0  0  0  0  0  0
  -21.4510  -29.2650   22.2900 N   0  0  0  0  0  0  0  0  0  0  0  0
  -23.4180  -28.7870   23.2890 O   0  0  0  0  0  0  0  0  0  0  0  0
  -20.9830  -29.8180   21.5860 H   0  0  0  0  0  0  0  0  0  0  0  0
  -18.0580  -28.0260   22.7610 C   0  0  0  0  0  0  0  0  0  0  0  0
  -20.6160  -28.3140   23.0410 C   0  0  0  0  0  3  0  0  0  0  0  0
  -20.7290  -26.8910   22.4470 C   0  0  0  0  0  2  0  0  0  0  0  0
  -19.6390  -26.5780   21.4180 C   0  0  0  0  0  2  0  0  0  0  0  0
  -18.2520  -26.6950   22.0540 C   0  0  0  0  0  2  0  0  0  0  0  0
  -19.1670  -28.7940   23.2100 C   0  0  0  0  0  0  0  0  0  0  0  0
  -18.9270  -30.0350   23.8390 C   0  0  0  0  0  3  0  0  0  0  0  0
  -17.6130  -30.5090   24.0190 C   0  0  0  0  0  3  0  0  0  0  0  0
  -16.5210  -29.7410   23.5820 C   0  0  0  0  0  3  0  0  0  0  0  0
  -16.7440  -28.5000   22.9590 C   0  0  0  0  0  3  0  0  0  0  0  0
  -25.9240  -32.4280   23.8250 C   0  0  0  0  0  3  0  0  0  0  0  0
  -25.5860  -33.8320   24.1550 N   0  0  0  0  0  0  0  0  0  0  0  0
  -25.9140  -34.9070   23.4250 C   0  0  0  0  0  0  0  0  0  0  0  0
  -26.5810  -34.8230   22.3910 O   0  0  0  0  0  0  0  0  0  0  0  0
  -24.9880  -33.9680   24.9570 H   0  0  0  0  0  0  0  0  0  0  0  0
  -24.1700  -36.7090   23.1410 C   0  0  0  0  0  1  0  0  0  0  0  0
  -25.4340  -36.2930   23.9110 C   0  0  0  0  0  3  0  0  0  0  0  0
  -27.5770  -37.2020   24.7030 C   0  0  0  0  0  1  0  0  0  0  0  0
  -26.4560  -37.3570   23.7800 N   0  0  0  0  0  0  0  0  0  0  0  0
  -26.0450  -38.2740   23.9330 H   0  0  0  0  0  0  0  0  0  0  0  0
  -26.3800  -31.6800   25.1410 C   0  0  1  0  0  0  0  0  0  0  0  0
  -25.2410  -31.4650   26.1660 C   0  0  0  0  0  1  0  0  0  0  0  0
  -26.9770  -30.2930   24.8180 C   0  0  0  0  0  1  0  0  0  0  0  0
  -27.5040  -32.4830   25.8380 C   0  0  0  0  0  1  0  0  0  0  0  0
  1 14  1  0
  2  1  1  0
  3 15  1  0
  4  9  1  0
  5  6  1  0
  5  4  1  0
  7  6  1  0
  7 19  1  0
  7  8  1  0
  9  3  1  0
  9  8  1  0
 10  3  2  0
 12 11  1  0
 13 15  1  0
 14 11  1  0
 15 12  1  0
 16 17  2  0
 17 36  1  0
 18 17  1  0
 18 21  1  0
 19 20  1  0
 19 16  1  0
 20 18  2  0
 21 22  1  0
 22 23  2  0
 24 27  1  0
 24 23  1  0
 25 24  2  0
 26 25  1  0
 26 21  2  0
 27 28  1  0
 28 33  2  0
 28 29  1  0
 29 30  2  0
 30 31  1  0
 31 35  1  0
 32 31  2  0
 33 32  1  0
 34 33  1  0
 36 37  1  0
 37 40  1  0
 37 39  1  0
 38 36  2  0
 41 16  1  0
 41 42  1  0
 43 41  1  0
 45 56  2  0
 46 44  1  0
 46 51  1  0
 47 55  1  0
 47 57  1  0
 48 54  1  0
 48 50  1  0
 49 55  1  0
 50 49  1  0
 51 50  2  0
 52 46  2  0
 53 52  1  0
 53 48  2  0
 54 47  1  0
 55 45  1  0
 57 59  2  0
 58 57  1  0
 60 58  1  0
 61 70  2  0
 61 66  1  0
 62 58  1  0
 62 66  1  0
 63 62  1  0
 64 65  1  0
 64 63  1  0
 65 61  1  0
 66 67  2  0
 67 68  1  0
 69 68  2  0
 70 69  1  0
 71 45  1  0
 71 72  1  0
 71 81  1  0
 72 75  1  0
 73 77  1  0
 73 72  1  0
 74 73  2  0
 77 76  1  0
 79 77  1  0
 79 80  1  0
 79 78  1  0
 81 84  1  1
 81 82  1  0
 83 81  1  0
M  ISO  4   1 101   3 100  15 100  44 101
M  END
>  <TORSDO>  (80) 
F 16

>  <SCORE>  (80) 
-15.597

>  <name>  (80) 
79

>  <ligand_id>  (80) 
79

>  <original_smiles>  (80) 
[H]c1c([H])c([H])c2c(c1[H])C([H])([H])C([H])([H])C([H])([H])C2([H])N([H])C(=O)C1([H])N(C(=O)C([H])(N([H])C(=O)C([H])(N([H])C([H])([H])[H])C([H])([H])[H])C(C([H])([H])[H])(C([H])([H])[H])C([H])([H])[H])C([H])([H])c2c([H])c(ON([H])C3([H])C([H])([H])N(C(=O)N4C([H])([H])C([H])([H])C([H])([H])C([H])(n5nc(-c6c([H])c([H])c(Oc7c([H])c([H])c(F)c([H])c7F)c([H])c6[H])c(C(=O)N([H])[H])c5N([H])[H])C4([H])[H])C([H])([H])C3([H])[H])c([H])c([H])c2C1([H])[H]

>  <smiles>  (80) 
[H]c1c([H])c([H])c2c(c1[H])C([H])([H])C([H])([H])C([H])([H])C2([H])N([H])C(=O)C1([H])N(C(=O)C([H])(N([H])C(=O)C([H])(N([H])C([H])([H])[H])C([H])([H])[H])C(C([H])([H])[H])(C([H])([H])[H])C([H])([H])[H])C([H])([H])c2c([H])c(ON([H])C3([H])C([H])([H])N(C(=O)N4C([H])([H])C([H])([H])C([H])([H])C([H])(n5nc(-c6c([H])c([H])c(Oc7c([H])c([H])c(F)c([H])c7F)c([H])c6[H])c(C(=O)N([H])[H])c5N([H])[H])C4([H])[H])C([H])([H])C3([H])[H])c([H])c([H])c2C1([H])[H]

$$$$
80:0:0
     RDKit          3D

 81 85  0  0  1  0  0  0  0  0999 V2000
  -28.1090  -24.6470   20.3000 O   0  0  0  0  0  1  0  0  0  0  0  0
  -24.7100  -31.7810   23.1610 C   0  0  0  0  0  0  0  0  0  0  0  0
  -27.2070  -26.1440   20.2640 C   0  0  0  0  0  0  0  0  0  0  0  0
  -23.5560  -30.3680   21.5220 C   0  0  0  0  0  3  0  0  0  0  0  0
  -25.0090  -28.5810   20.1690 C   0  0  0  0  0  0  0  0  0  0  0  0
  -26.1560  -30.3130   21.5020 C   0  0  0  0  0  2  0  0  0  0  0  0
  -26.2110  -28.8120   20.8490 C   0  0  0  0  0  0  0  0  0  0  0  0
  -27.2590  -27.6460   20.8460 C   0  0  0  0  0  3  0  0  0  0  0  0
  -25.9680  -26.2870   19.5230 C   0  0  0  0  0  3  0  0  0  0  0  0
  -24.9660  -27.3480   19.4800 C   0  0  0  0  0  3  0  0  0  0  0  0
  -23.8360  -29.6140   20.1780 C   0  0  0  0  0  2  0  0  0  0  0  0
  -24.8390  -30.8700   22.1140 N   0  0  0  0  0  0  0  0  0  0  0  0
  -23.6010  -32.1150   23.6230 O   0  0  0  0  0  0  0  0  0  0  0  0
  -22.7620  -29.4580   22.5040 C   0  0  0  0  0  0  0  0  0  0  0  0
  -21.4220  -29.3560   22.3730 N   0  0  0  0  0  0  0  0  0  0  0  0
  -23.3780  -28.8290   23.3670 O   0  0  0  0  0  0  0  0  0  0  0  0
  -20.9670  -29.9120   21.6630 H   0  0  0  0  0  0  0  0  0  0  0  0
  -17.9970  -28.2130   22.9010 C   0  0  0  0  0  0  0  0  0  0  0  0
  -20.5670  -28.4380   23.1430 C   0  0  0  0  0  3  0  0  0  0  0  0
  -20.6330  -27.0060   22.5600 C   0  0  0  0  0  2  0  0  0  0  0  0
  -19.5210  -26.7160   21.5460 C   0  0  0  0  0  2  0  0  0  0  0  0
  -18.1460  -26.8740   22.1990 C   0  0  0  0  0  2  0  0  0  0  0  0
  -19.1320  -28.9550   23.3290 C   0  0  0  0  0  0  0  0  0  0  0  0
  -18.9320  -30.2040   23.9560 C   0  0  0  0  0  3  0  0  0  0  0  0
  -17.6350  -30.7130   24.1530 C   0  0  0  0  0  3  0  0  0  0  0  0
  -16.5160  -29.9710   23.7350 C   0  0  0  0  0  3  0  0  0  0  0  0
  -16.6980  -28.7220   23.1160 C   0  0  0  0  0  3  0  0  0  0  0  0
  -25.9400  -32.4590   23.8420 C   0  0  0  0  0  3  0  0  0  0  0  0
  -25.5980  -33.8650   24.1720 N   0  0  0  0  0  0  0  0  0  0  0  0
  -25.9200  -34.9450   23.4450 C   0  0  0  0  0  0  0  0  0  0  0  0
  -26.5760  -34.8640   22.4040 O   0  0  0  0  0  0  0  0  0  0  0  0
  -25.0070  -33.9990   24.9800 H   0  0  0  0  0  0  0  0  0  0  0  0
  -24.1680  -36.7480   23.1980 C   0  0  0  0  0  1  0  0  0  0  0  0
  -25.4480  -36.3330   23.9420 C   0  0  0  0  0  3  0  0  0  0  0  0
  -27.6060  -37.2470   24.6880 C   0  0  0  0  0  1  0  0  0  0  0  0
  -26.4650  -37.3980   23.7880 N   0  0  0  0  0  0  0  0  0  0  0  0
  -26.0550  -38.3150   23.9480 H   0  0  0  0  0  0  0  0  0  0  0  0
  -26.3960  -31.7200   25.1620 C   0  0  1  0  0  0  0  0  0  0  0  0
  -25.2580  -31.5140   26.1910 C   0  0  0  0  0  1  0  0  0  0  0  0
  -26.9880  -30.3300   24.8490 C   0  0  0  0  0  1  0  0  0  0  0  0
  -27.5230  -32.5250   25.8520 C   0  0  0  0  0  1  0  0  0  0  0  0
  -28.1400  -22.5480   20.1630 C   0  0  0  0  0 15  0  0  0  0  0  0
  -29.1420  -20.4180   20.2160 C   0  0  0  0  0 15  0  0  0  0  0  0
  -29.9010  -16.6470   20.0860 C   0  0  0  0  0  0  0  0  0  0  0  0
  -30.2300  -13.8900   19.2940 C   0  0  0  0  0  2  0  0  0  0  0  0
  -29.4480  -13.0530   18.1990 C   0  0  0  0  0  2  0  0  0  0  0  0
  -28.1340  -12.4820   18.7300 C   0  0  0  0  0  2  0  0  0  0  0  0
  -27.5010  -13.5140   19.6750 C   0  0  0  0  0  3  0  0  0  0  0  0
  -28.4750  -14.2100   20.6950 C   0  0  0  0  0  2  0  0  0  0  0  0
  -29.4550  -15.1290   19.9600 N   0  0  0  0  0  0  0  0  0  0  0  0
  -31.1430  -16.3980   20.0040 O   0  0  0  0  0  0  0  0  0  0  0  0
  -29.2570  -18.3100   20.1340 N   0  0  0  0  0  2  0  0  0  0  0  0
  -30.2580  -18.4710   20.1320 H   0  0  0  0  0  0  0  0  0  0  0  0
  -25.1600  -13.9200   20.5080 C   0  0  0  0  0  0  0  0  0  0  0  0
  -24.1280  -13.1120   20.8810 C   0  0  0  0  0  0  0  0  0  0  0  0
  -24.6260  -11.7720   20.8220 C   0  0  0  0  0  0  0  0  0  0  0  0
  -26.2240  -13.0860   20.2420 N   0  0  0  0  0  0  0  0  0  0  0  0
  -25.9190  -11.7780   20.4820 N   0  0  0  0  0  0  0  0  0  0  0  0
  -23.9140  -10.4950   21.0120 C   0  0  0  0  0  0  0  0  0  0  0  0
  -24.3570   -9.5290   21.9420 C   0  0  0  0  0  3  0  0  0  0  0  0
  -23.6350   -8.3280   22.1300 C   0  0  0  0  0  3  0  0  0  0  0  0
  -22.4560   -8.0830   21.3870 C   0  0  0  0  0  0  0  0  0  0  0  0
  -22.0290   -9.0390   20.4470 C   0  0  0  0  0  3  0  0  0  0  0  0
  -22.7510  -10.2310   20.2590 C   0  0  0  0  0  3  0  0  0  0  0  0
  -21.7070   -6.9350   21.4820 O   0  0  0  0  0  0  0  0  0  0  0  0
  -21.6700   -6.1910   22.6350 C   0  0  0  0  0  0  0  0  0  0  0  0
  -21.2140   -6.7320   23.8560 C   0  0  0  0  0  3  0  0  0  0  0  0
  -21.1260   -5.9140   25.0000 C   0  0  0  0  0  3  0  0  0  0  0  0
  -21.4850   -4.5540   24.9250 C   0  0  0  0  0  0  0  0  0  0  0  0
  -21.9340   -4.0110   23.7070 C   0  0  0  0  0  3  0  0  0  0  0  0
  -22.0220   -4.8270   22.5660 C   0  0  0  0  0  0  0  0  0  0  0  0
  -22.4340   -4.2930   21.3900 F   0  0  0  0  0  0  0  0  0  0  0  0
  -21.3950   -3.7660   26.0220 F   0  0  0  0  0  0  0  0  0  0  0  0
  -22.7270  -13.5620   21.1730 C   0  0  0  0  0  0  0  0  0  0  0  0
  -22.0260  -12.8570   22.0520 N   0  0  0  0  0  0  0  0  0  0  0  0
  -22.2670  -14.5820   20.6590 O   0  0  0  0  0  0  0  0  0  0  0  0
  -22.4140  -12.0340   22.4890 H   0  0  0  0  0  0  0  0  0  0  0  0
  -21.0880  -13.1430   22.2910 H   0  0  0  0  0  0  0  0  0  0  0  0
  -25.2790  -15.2960   20.3350 N   0  0  0  0  0  0  0  0  0  0  0  0
  -24.4980  -15.9290   20.4650 H   0  0  0  0  0  0  0  0  0  0  0  0
  -26.1180  -15.7610   20.0090 H   0  0  0  0  0  0  0  0  0  0  0  0
  2 13  2  0
  3  1  1  0
  3  8  1  0
  4 12  1  0
  4 14  1  0
  5 11  1  0
  5  7  1  0
  6 12  1  0
  7  6  1  0
  8  7  2  0
  9  3  2  0
 10  9  1  0
 10  5  2  0
 11  4  1  0
 12  2  1  0
 14 16  2  0
 15 14  1  0
 17 15  1  0
 18 27  2  0
 18 23  1  0
 19 15  1  0
 19 23  1  0
 20 19  1  0
 21 22  1  0
 21 20  1  0
 22 18  1  0
 23 24  2  0
 24 25  1  0
 26 25  2  0
 27 26  1  0
 28  2  1  0
 28 29  1  0
 28 38  1  0
 29 32  1  0
 30 34  1  0
 30 29  1  0
 31 30  2  0
 34 33  1  0
 36 34  1  0
 36 37  1  0
 36 35  1  0
 38 41  1  1
 38 39  1  0
 40 38  1  0
 44 52  1  0
 45 50  1  0
 46 47  1  0
 46 45  1  0
 48 47  1  0
 48 57  1  0
 48 49  1  0
 50 44  1  0
 50 49  1  0
 51 44  2  0
 53 52  1  0
 54 55  2  0
 55 74  1  0
 56 55  1  0
 56 59  1  0
 57 58  1  0
 57 54  1  0
 58 56  2  0
 59 60  1  0
 60 61  2  0
 62 65  1  0
 62 61  1  0
 63 62  2  0
 64 63  1  0
 64 59  2  0
 65 66  1  0
 66 67  1  0
 67 68  2  0
 69 68  1  0
 69 73  1  0
 70 69  2  0
 71 66  2  0
 71 70  1  0
 72 71  1  0
 74 75  1  0
 75 78  1  0
 75 77  1  0
 76 74  2  0
 79 80  1  0
 79 54  1  0
 81 79  1  0
M  ISO  4   1 101  42 101  44 100  52 100
M  END
>  <TORSDO>  (81) 
F 17

>  <SCORE>  (81) 
-16.141

>  <name>  (81) 
80

>  <ligand_id>  (81) 
80

>  <original_smiles>  (81) 
[H]c1c([H])c([H])c2c(c1[H])C([H])([H])C([H])([H])C([H])([H])C2([H])N([H])C(=O)C1([H])N(C(=O)C([H])(N([H])C(=O)C([H])(N([H])C([H])([H])[H])C([H])([H])[H])C(C([H])([H])[H])(C([H])([H])[H])C([H])([H])[H])C([H])([H])c2c([H])c(OC([H])([H])C([H])([H])N([H])C(=O)N3C([H])([H])C([H])([H])C([H])([H])C([H])(n4nc(-c5c([H])c([H])c(Oc6c([H])c([H])c(F)c([H])c6F)c([H])c5[H])c(C(=O)N([H])[H])c4N([H])[H])C3([H])[H])c([H])c([H])c2C1([H])[H]

>  <smiles>  (81) 
[H]c1c([H])c([H])c2c(c1[H])C([H])([H])C([H])([H])C([H])([H])C2([H])N([H])C(=O)C1([H])N(C(=O)C([H])(N([H])C(=O)C([H])(N([H])C([H])([H])[H])C([H])([H])[H])C(C([H])([H])[H])(C([H])([H])[H])C([H])([H])[H])C([H])([H])c2c([H])c(OC([H])([H])C([H])([H])N([H])C(=O)N3C([H])([H])C([H])([H])C([H])([H])C([H])(n4nc(-c5c([H])c([H])c(Oc6c([H])c([H])c(F)c([H])c6F)c([H])c5[H])c(C(=O)N([H])[H])c4N([H])[H])C3([H])[H])c([H])c([H])c2C1([H])[H]

$$$$
81:0:0
     RDKit          3D

109119  0  0  1  0  0  0  0  0999 V2000
  -30.3010  -19.7920   20.7020 C   0  0  0  0  0  3  0  0  0  0  0  0
  -29.7630  -19.2860   18.3690 C   0  0  0  0  0  3  0  0  0  0  0  0
  -28.1450  -20.3990   19.8070 C   0  0  0  0  0  3  0  0  0  0  0  0
  -30.6450  -19.1850   19.4720 C   0  0  0  0  0  0  0  0  0  0  0  0
  -29.0520  -20.4070   20.8810 C   0  0  0  0  0  0  0  0  0  0  0  0
  -28.5190  -19.9250   18.5430 C   0  0  0  0  0  0  0  0  0  0  0  0
  -32.0240  -15.9600   19.0480 C   0  0  0  0  0  0  0  0  0  0  0  0
  -31.2890  -13.8490   18.0370 C   0  0  0  0  0  2  0  0  0  0  0  0
  -30.0930  -14.0960   17.0980 C   0  0  0  0  0  2  0  0  0  0  0  0
  -28.7730  -13.9990   17.8830 C   0  0  0  0  0  2  0  0  0  0  0  0
  -28.7830  -14.8470   19.1810 C   0  0  0  0  0  3  0  0  0  0  0  0
  -30.0790  -14.6200   19.9930 C   0  0  0  0  0  2  0  0  0  0  0  0
  -31.2340  -14.8540   19.1080 N   0  0  0  0  0  0  0  0  0  0  0  0
  -32.9130  -16.0880   18.2010 O   0  0  0  0  0  0  0  0  0  0  0  0
  -32.9920  -18.1830   21.4940 C   0  0  0  0  0  2  0  0  0  0  0  0
  -33.1360  -18.8540   20.1270 C   0  0  0  0  0  2  0  0  0  0  0  0
  -32.0260  -17.0090   21.2580 C   0  0  0  0  0  2  0  0  0  0  0  0
  -31.9210  -18.3660   19.3250 C   0  0  0  0  0  3  0  0  0  0  0  0
  -31.6880  -17.0060   19.8270 N   0  0  0  0  0  0  0  0  0  0  0  0
  -26.8830  -15.4570   20.8110 C   0  0  0  0  0  0  0  0  0  0  0  0
  -25.8080  -14.7420   21.2730 C   0  0  0  0  0  0  0  0  0  0  0  0
  -25.9190  -13.4430   20.6920 C   0  0  0  0  0  0  0  0  0  0  0  0
  -27.5890  -14.5940   19.9880 N   0  0  0  0  0  0  0  0  0  0  0  0
  -27.0250  -13.3560   19.9670 N   0  0  0  0  0  0  0  0  0  0  0  0
  -25.0060  -12.2930   20.7460 C   0  0  0  0  0  0  0  0  0  0  0  0
  -25.4690  -10.9990   21.0740 C   0  0  0  0  0  3  0  0  0  0  0  0
  -24.5710   -9.9100   21.1370 C   0  0  0  0  0  3  0  0  0  0  0  0
  -23.1940  -10.1100   20.8740 C   0  0  0  0  0  0  0  0  0  0  0  0
  -22.7430  -11.3960   20.5240 C   0  0  0  0  0  3  0  0  0  0  0  0
  -23.6390  -12.4770   20.4580 C   0  0  0  0  0  3  0  0  0  0  0  0
  -22.2520   -9.1080   20.8780 O   0  0  0  0  0  0  0  0  0  0  0  0
  -22.3920   -7.9910   21.6650 C   0  0  0  0  0  0  0  0  0  0  0  0
  -22.8310   -8.0730   23.0040 C   0  0  0  0  0  3  0  0  0  0  0  0
  -22.8980   -6.9090   23.7960 C   0  0  0  0  0  3  0  0  0  0  0  0
  -22.5130   -5.6670   23.2560 C   0  0  0  0  0  0  0  0  0  0  0  0
  -22.0730   -5.5840   21.9230 C   0  0  0  0  0  3  0  0  0  0  0  0
  -22.0090   -6.7430   21.1310 C   0  0  0  0  0  0  0  0  0  0  0  0
  -21.5630   -6.6610   19.8540 F   0  0  0  0  0  0  0  0  0  0  0  0
  -22.5670   -4.5520   24.0210 F   0  0  0  0  0  0  0  0  0  0  0  0
  -24.6900  -15.2670   22.1300 C   0  0  0  0  0  0  0  0  0  0  0  0
  -24.1540  -14.4350   23.0160 N   0  0  0  0  0  0  0  0  0  0  0  0
  -24.3170  -16.4360   22.0540 O   0  0  0  0  0  0  0  0  0  0  0  0
  -24.4710  -13.4810   23.0960 H   0  0  0  0  0  0  0  0  0  0  0  0
  -23.4260  -14.7660   23.6310 H   0  0  0  0  0  0  0  0  0  0  0  0
  -27.3080  -16.7650   21.0110 N   0  0  0  0  0  0  0  0  0  0  0  0
  -26.7420  -17.4310   21.5240 H   0  0  0  0  0  0  0  0  0  0  0  0
  -28.0910  -17.1890   20.5280 H   0  0  0  0  0  0  0  0  0  0  0  0
  -26.6670  -19.4080   16.9970 C   0  0  0  0  0  0  0  0  0  0  0  0
  -27.6080  -20.2020   17.5130 N   0  0  0  0  0  0  0  0  0  0  0  0
  -26.7640  -18.1830   16.8910 O   0  0  0  0  0  0  0  0  0  0  0  0
  -27.3610  -21.1760   17.4240 H   0  0  0  0  0  0  0  0  0  0  0  0
  -24.0410  -22.1890   16.9050 C   0  0  0  0  0  3  0  0  0  0  0  0
  -23.0340  -21.6140   16.1110 C   0  0  0  0  0  3  0  0  0  0  0  0
  -25.2480  -21.4950   17.1180 C   0  0  0  0  0  3  0  0  0  0  0  0
  -23.2530  -20.3620   15.5050 C   0  0  0  0  0  3  0  0  0  0  0  0
  -25.4520  -20.1960   16.5760 C   0  0  0  0  0  0  0  0  0  0  0  0
  -24.4500  -19.6500   15.7280 C   0  0  0  0  0  0  0  0  0  0  0  0
  -24.6000  -18.1030   14.9710 Cl  0  0  0  0  0  0  0  0  0  0  0  0
  -28.7220  -21.0480   22.2250 C   0  0  0  0  0  2  0  0  0  0  0  0
  -28.0640  -22.4420   22.1690 C   0  0  0  0  0  2  0  0  0  0  0  0
  -27.5170  -24.4140   20.6620 C   0  0  0  0  0  1  0  0  0  0  0  0
  -28.6030  -23.4190   21.0900 C   0  0  0  0  0  3  0  0  0  0  0  0
  -29.8900  -24.1440   21.4940 C   0  0  0  0  0  0  0  0  0  0  0  0
  -30.8470  -24.1480   20.5530 N   0  0  0  0  0  0  0  0  0  0  0  0
  -29.9780  -24.6900   22.5960 O   0  0  0  0  0  0  0  0  0  0  0  0
  -30.6460  -23.5470   19.7670 H   0  0  0  0  0  0  0  0  0  0  0  0
  -32.0310  -24.9890   20.3460 C   0  0  0  0  0  2  0  0  0  0  0  0
  -32.3170  -26.1000   21.3770 C   0  0  0  0  0  2  0  0  0  0  0  0
  -32.1830  -27.3860   20.7660 O   0  0  0  0  0  0  0  0  0  0  0  0
  -27.0190  -30.4250   24.5250 C   0  0  0  0  0  0  0  0  0  0  0  0
  -30.8830  -27.8260   20.7510 C   0  0  0  0  0  0  0  0  0  0  0  0
  -26.3100  -29.3350   22.4180 C   0  0  0  0  0  3  0  0  0  0  0  0
  -28.1880  -28.6530   20.8420 C   0  0  0  0  0  0  0  0  0  0  0  0
  -28.6640  -30.3080   22.6600 C   0  0  0  0  0  2  0  0  0  0  0  0
  -29.1340  -29.2440   21.6910 C   0  0  0  0  0  0  0  0  0  0  0  0
  -30.4810  -28.8360   21.6470 C   0  0  0  0  0  3  0  0  0  0  0  0
  -29.9250  -27.2450   19.8920 C   0  0  0  0  0  3  0  0  0  0  0  0
  -28.5780  -27.6500   19.9400 C   0  0  0  0  0  3  0  0  0  0  0  0
  -26.7680  -29.1510   20.9470 C   0  0  0  0  0  2  0  0  0  0  0  0
  -27.3410  -30.0230   23.2640 N   0  0  0  0  0  0  0  0  0  0  0  0
  -25.8750  -30.2740   24.9750 O   0  0  0  0  0  0  0  0  0  0  0  0
  -25.8840  -27.9610   22.9770 C   0  0  0  0  0  0  0  0  0  0  0  0
  -24.7390  -27.4530   22.4990 N   0  0  0  0  0  0  0  0  0  0  0  0
  -26.5870  -27.3700   23.8010 O   0  0  0  0  0  0  0  0  0  0  0  0
  -24.2140  -28.0140   21.8410 H   0  0  0  0  0  0  0  0  0  0  0  0
  -22.0350  -25.1770   21.7430 C   0  0  0  0  0  0  0  0  0  0  0  0
  -24.1650  -26.1520   22.8420 C   0  0  0  0  0  3  0  0  0  0  0  0
  -24.9240  -25.0040   22.1400 C   0  0  0  0  0  2  0  0  0  0  0  0
  -24.3050  -24.6120   20.7930 C   0  0  0  0  0  2  0  0  0  0  0  0
  -22.8550  -24.1510   20.9770 C   0  0  0  0  0  2  0  0  0  0  0  0
  -22.6510  -26.1280   22.6030 C   0  0  0  0  0  0  0  0  0  0  0  0
  -21.8460  -27.0870   23.2520 C   0  0  0  0  0  3  0  0  0  0  0  0
  -20.4490  -27.0980   23.0670 C   0  0  0  0  0  3  0  0  0  0  0  0
  -19.8430  -26.1450   22.2280 C   0  0  0  0  0  3  0  0  0  0  0  0
  -20.6350  -25.1890   21.5660 C   0  0  0  0  0  3  0  0  0  0  0  0
  -28.0650  -31.1170   25.4540 C   0  0  0  0  0  3  0  0  0  0  0  0
  -27.4850  -32.3890   25.9030 N   0  0  0  0  0  0  0  0  0  0  0  0
  -27.7700  -33.5850   25.3710 C   0  0  0  0  0  0  0  0  0  0  0  0
  -28.6250  -33.7390   24.4940 O   0  0  0  0  0  0  0  0  0  0  0  0
  -26.7450  -32.3280   26.5880 H   0  0  0  0  0  0  0  0  0  0  0  0
  -25.8950  -35.1880   24.8970 C   0  0  0  0  0  1  0  0  0  0  0  0
  -26.9920  -34.8050   25.9010 C   0  0  0  0  0  3  0  0  0  0  0  0
  -28.7750  -35.7710   27.2860 C   0  0  0  0  0  1  0  0  0  0  0  0
  -27.8500  -35.9770   26.1740 N   0  0  0  0  0  0  0  0  0  0  0  0
  -27.2860  -36.7970   26.3760 H   0  0  0  0  0  0  0  0  0  0  0  0
  -28.4770  -30.2280   26.6900 C   0  0  1  0  0  0  0  0  0  0  0  0
  -27.2770  -29.6160   27.4490 C   0  0  0  0  0  1  0  0  0  0  0  0
  -29.4010  -29.0700   26.2460 C   0  0  0  0  0  1  0  0  0  0  0  0
  -29.2900  -31.0770   27.6970 C   0  0  0  0  0  1  0  0  0  0  0  0
  1  5  1  0
  2  6  2  0
  2  4  1  0
  3  5  2  0
  4  1  2  0
  5 59  1  0
  6  3  1  0
  7 13  1  0
  7 19  1  0
  8 13  1  0
  9 10  1  0
  9  8  1  0
 11 10  1  0
 11 23  1  0
 11 12  1  0
 13 12  1  0
 14  7  2  0
 16 15  1  0
 17 15  1  0
 18  4  1  0
 18 19  1  0
 18 16  1  0
 19 17  1  0
 20 45  1  0
 20 21  2  0
 21 40  1  0
 22 25  1  0
 22 21  1  0
 23 20  1  0
 24 23  1  0
 24 22  2  0
 25 26  1  0
 26 27  2  0
 28 31  1  0
 28 27  1  0
 29 28  2  0
 30 29  1  0
 30 25  2  0
 31 32  1  0
 32 33  1  0
 33 34  2  0
 35 34  1  0
 35 39  1  0
 36 35  2  0
 37 32  2  0
 37 36  1  0
 38 37  1  0
 40 41  1  0
 41 43  1  0
 41 44  1  0
 42 40  2  0
 45 46  1  0
 47 45  1  0
 48 49  1  0
 49  6  1  0
 50 48  2  0
 51 49  1  0
 52 54  1  0
 53 52  2  0
 55 57  2  0
 55 53  1  0
 56 48  1  0
 56 54  2  0
 57 56  1  0
 58 57  1  0
 60 59  1  0
 62 61  1  0
 62 63  1  0
 62 60  1  0
 63 65  2  0
 64 63  1  0
 66 64  1  0
 67 64  1  0
 67 68  1  0
 69 68  1  0
 70 81  2  0
 71 69  1  0
 71 76  1  0
 72 82  1  0
 72 80  1  0
 73 79  1  0
 73 75  1  0
 74 80  1  0
 75 74  1  0
 76 75  2  0
 77 78  1  0
 77 71  2  0
 78 73  2  0
 79 72  1  0
 80 70  1  0
 82 84  2  0
 83 82  1  0
 85 83  1  0
 86 91  1  0
 87 83  1  0
 88 87  1  0
 89 90  1  0
 89 88  1  0
 90 86  1  0
 91 87  1  0
 91 92  2  0
 93 92  1  0
 94 93  2  0
 95 86  2  0
 95 94  1  0
 96 70  1  0
 96 97  1  0
 96106  1  0
 97100  1  0
 98102  1  0
 98 97  1  0
 99 98  2  0
102101  1  0
102104  1  0
104105  1  0
104103  1  0
106107  1  1
106109  1  0
108106  1  0
M  ISO  4   7 100  19 100  68 101  69 101
M  END
>  <TORSDO>  (82) 
F 24

>  <SCORE>  (82) 
4.852

>  <name>  (82) 
81

>  <ligand_id>  (82) 
81

>  <original_smiles>  (82) 
[H]c1c([H])c([H])c(C(=O)N([H])c2c([H])c(C([H])([H])C([H])([H])C([H])(C(=O)N([H])C([H])([H])C([H])([H])Oc3c([H])c([H])c4c(c3[H])C([H])([H])N(C(=O)C([H])(N([H])C(=O)C([H])(N([H])C([H])([H])[H])C([H])([H])[H])C(C([H])([H])[H])(C([H])([H])[H])C([H])([H])[H])C([H])(C(=O)N([H])C3([H])c5c([H])c([H])c([H])c([H])c5C([H])([H])C([H])([H])C3([H])[H])C4([H])[H])C([H])([H])[H])c([H])c(C3([H])N(C(=O)N4C([H])([H])C([H])([H])C([H])([H])C([H])(n5nc(-c6c([H])c([H])c(Oc7c([H])c([H])c(F)c([H])c7F)c([H])c6[H])c(C(=O)N([H])[H])c5N([H])[H])C4([H])[H])C([H])([H])C([H])([H])C3([H])[H])c2[H])c(Cl)c1[H]

>  <smiles>  (82) 
[H]c1c([H])c([H])c(C(=O)N([H])c2c([H])c(C([H])([H])C([H])([H])C([H])(C(=O)N([H])C([H])([H])C([H])([H])Oc3c([H])c([H])c4c(c3[H])C([H])([H])N(C(=O)C([H])(N([H])C(=O)C([H])(N([H])C([H])([H])[H])C([H])([H])[H])C(C([H])([H])[H])(C([H])([H])[H])C([H])([H])[H])C([H])(C(=O)N([H])C3([H])c5c([H])c([H])c([H])c([H])c5C([H])([H])C([H])([H])C3([H])[H])C4([H])[H])C([H])([H])[H])c([H])c(C3([H])N(C(=O)N4C([H])([H])C([H])([H])C([H])([H])C([H])(n5nc(-c6c([H])c([H])c(Oc7c([H])c([H])c(F)c([H])c7F)c([H])c6[H])c(C(=O)N([H])[H])c5N([H])[H])C4([H])[H])C([H])([H])C([H])([H])C3([H])[H])c2[H])c(Cl)c1[H]

$$$$
82:0:0
     RDKit          3D

 90 98  0  0  1  0  0  0  0  0999 V2000
  -28.7720  -19.1630   20.8930 C   0  0  0  0  0  3  0  0  0  0  0  0
  -31.0460  -19.5030   20.2150 C   0  0  0  0  0  3  0  0  0  0  0  0
  -28.5210  -20.5740   20.7480 C   0  0  0  0  0  3  0  0  0  0  0  0
  -30.8010  -20.8990   20.0870 C   0  0  0  0  0  3  0  0  0  0  0  0
  -30.0570  -18.5890   20.6610 C   0  0  0  0  0  0  0  0  0  0  0  0
  -29.5490  -21.4920   20.3820 C   0  0  0  0  0  0  0  0  0  0  0  0
  -29.4710  -22.9300   20.3590 N   0  0  0  0  0  0  0  0  0  0  0  0
  -30.3610  -23.3950   20.1990 H   0  0  0  0  0  0  0  0  0  0  0  0
  -28.3020  -23.8430   20.1570 C   0  0  0  0  0  2  0  0  0  0  0  0
  -28.3450  -25.2450   20.9380 C   0  0  0  0  0  2  0  0  0  0  0  0
  -28.4270  -26.5550   20.2540 O   0  0  0  0  0  0  0  0  0  0  0  0
  -24.6080  -31.9110   23.2580 C   0  0  0  0  0  0  0  0  0  0  0  0
  -27.2950  -27.3750   20.2540 C   0  0  0  0  0  0  0  0  0  0  0  0
  -23.4340  -30.4960   21.6080 C   0  0  0  0  0  3  0  0  0  0  0  0
  -24.9140  -28.9480   20.2100 C   0  0  0  0  0  0  0  0  0  0  0  0
  -25.9710  -30.8410   21.4480 C   0  0  0  0  0  2  0  0  0  0  0  0
  -26.0710  -29.4600   20.8120 C   0  0  0  0  0  0  0  0  0  0  0  0
  -27.2680  -28.6860   20.8190 C   0  0  0  0  0  3  0  0  0  0  0  0
  -26.1190  -26.9020   19.6410 C   0  0  0  0  0  3  0  0  0  0  0  0
  -24.9390  -27.6740   19.6150 C   0  0  0  0  0  3  0  0  0  0  0  0
  -23.6700  -29.8120   20.2350 C   0  0  0  0  0  2  0  0  0  0  0  0
  -24.6900  -31.1000   22.1620 N   0  0  0  0  0  0  0  0  0  0  0  0
  -23.5180  -32.1790   23.7820 O   0  0  0  0  0  0  0  0  0  0  0  0
  -22.7700  -29.4780   22.5660 C   0  0  0  0  0  0  0  0  0  0  0  0
  -21.4470  -29.2930   22.4270 N   0  0  0  0  0  0  0  0  0  0  0  0
  -23.4450  -28.8570   23.3920 O   0  0  0  0  0  0  0  0  0  0  0  0
  -20.9620  -29.8450   21.7340 H   0  0  0  0  0  0  0  0  0  0  0  0
  -18.0690  -28.0950   22.9120 C   0  0  0  0  0  0  0  0  0  0  0  0
  -20.6260  -28.3530   23.1920 C   0  0  0  0  0  3  0  0  0  0  0  0
  -20.7300  -26.9240   22.6110 C   0  0  0  0  0  2  0  0  0  0  0  0
  -19.6320  -26.6050   21.5930 C   0  0  0  0  0  2  0  0  0  0  0  0
  -18.2470  -26.7480   22.2320 C   0  0  0  0  0  2  0  0  0  0  0  0
  -19.1860  -28.8560   23.3490 C   0  0  0  0  0  0  0  0  0  0  0  0
  -18.9640  -30.1160   23.9440 C   0  0  0  0  0  3  0  0  0  0  0  0
  -17.6580  -30.6170   24.1070 C   0  0  0  0  0  3  0  0  0  0  0  0
  -16.5560  -29.8530   23.6870 C   0  0  0  0  0  3  0  0  0  0  0  0
  -16.7610  -28.5950   23.0940 C   0  0  0  0  0  3  0  0  0  0  0  0
  -25.8790  -32.5550   23.8940 C   0  0  0  0  0  3  0  0  0  0  0  0
  -26.3740  -31.8050   25.1910 C   0  0  1  0  0  0  0  0  0  0  0  0
  -25.2630  -31.5800   26.2420 C   0  0  0  0  0  1  0  0  0  0  0  0
  -26.9680  -30.4220   24.8290 C   0  0  0  0  0  1  0  0  0  0  0  0
  -27.5100  -32.6110   25.8620 C   0  0  0  0  0  1  0  0  0  0  0  0
  -25.5620  -33.9570   24.1980 N   0  0  0  0  0  0  0  0  0  0  0  0
  -25.9050  -35.0000   23.4300 C   0  0  0  0  0  0  0  0  0  0  0  0
  -26.5910  -34.8830   22.4110 O   0  0  0  0  0  0  0  0  0  0  0  0
  -24.9540  -34.1220   24.9870 H   0  0  0  0  0  0  0  0  0  0  0  0
  -24.1840  -36.7880   23.0170 C   0  0  0  0  0  1  0  0  0  0  0  0
  -25.4080  -36.3940   23.8590 C   0  0  0  0  0  3  0  0  0  0  0  0
  -27.5230  -37.2930   24.7250 C   0  0  0  0  0  1  0  0  0  0  0  0
  -26.4430  -37.4460   23.7540 N   0  0  0  0  0  0  0  0  0  0  0  0
  -26.0330  -38.3680   23.8770 H   0  0  0  0  0  0  0  0  0  0  0  0
  -30.5180  -17.1410   21.1060 C   0  0  0  0  0  2  0  0  0  0  0  0
  -30.6260  -14.7130   20.2850 C   0  0  0  0  0  0  0  0  0  0  0  0
  -30.3500  -12.5020   19.1750 C   0  0  0  0  0  2  0  0  0  0  0  0
  -29.3870  -12.6380   17.9780 C   0  0  0  0  0  2  0  0  0  0  0  0
  -27.9240  -12.4720   18.4360 C   0  0  0  0  0  2  0  0  0  0  0  0
  -27.5890  -13.3230   19.6910 C   0  0  0  0  0  3  0  0  0  0  0  0
  -28.6700  -13.1770   20.7830 C   0  0  0  0  0  2  0  0  0  0  0  0
  -29.9580  -13.5210   20.1700 N   0  0  0  0  0  0  0  0  0  0  0  0
  -31.8020  -14.8070   19.9250 O   0  0  0  0  0  0  0  0  0  0  0  0
  -29.9190  -15.8330   20.6560 N   0  0  0  0  0  0  0  0  0  0  0  0
  -28.9360  -15.7020   20.8390 H   0  0  0  0  0  0  0  0  0  0  0  0
  -25.2080  -13.9030   20.4540 C   0  0  0  0  0  0  0  0  0  0  0  0
  -24.1520  -13.1230   20.8390 C   0  0  0  0  0  0  0  0  0  0  0  0
  -24.6220  -11.7750   20.8000 C   0  0  0  0  0  0  0  0  0  0  0  0
  -26.2540  -13.0300   20.2020 N   0  0  0  0  0  0  0  0  0  0  0  0
  -25.9080  -11.7440   20.4720 N   0  0  0  0  0  0  0  0  0  0  0  0
  -23.9050  -10.5080   20.9970 C   0  0  0  0  0  0  0  0  0  0  0  0
  -24.3500   -9.5440   21.9290 C   0  0  0  0  0  3  0  0  0  0  0  0
  -23.6320   -8.3430   22.1140 C   0  0  0  0  0  3  0  0  0  0  0  0
  -22.4550   -8.0970   21.3670 C   0  0  0  0  0  0  0  0  0  0  0  0
  -22.0300   -9.0490   20.4250 C   0  0  0  0  0  3  0  0  0  0  0  0
  -22.7490  -10.2420   20.2380 C   0  0  0  0  0  3  0  0  0  0  0  0
  -21.7080   -6.9470   21.4630 O   0  0  0  0  0  0  0  0  0  0  0  0
  -21.6650   -6.2100   22.6190 C   0  0  0  0  0  0  0  0  0  0  0  0
  -21.2200   -6.7630   23.8390 C   0  0  0  0  0  3  0  0  0  0  0  0
  -21.1270   -5.9510   24.9870 C   0  0  0  0  0  3  0  0  0  0  0  0
  -21.4680   -4.5870   24.9150 C   0  0  0  0  0  0  0  0  0  0  0  0
  -21.9060   -4.0330   23.7000 C   0  0  0  0  0  3  0  0  0  0  0  0
  -22.0010   -4.8430   22.5540 C   0  0  0  0  0  0  0  0  0  0  0  0
  -22.4040   -4.2990   21.3800 F   0  0  0  0  0  0  0  0  0  0  0  0
  -21.3700   -3.8050   26.0160 F   0  0  0  0  0  0  0  0  0  0  0  0
  -22.7560  -13.5930   21.1310 C   0  0  0  0  0  0  0  0  0  0  0  0
  -22.0430  -12.8890   22.0040 N   0  0  0  0  0  0  0  0  0  0  0  0
  -22.3080  -14.6180   20.6210 O   0  0  0  0  0  0  0  0  0  0  0  0
  -22.4210  -12.0600   22.4380 H   0  0  0  0  0  0  0  0  0  0  0  0
  -21.1080  -13.1850   22.2430 H   0  0  0  0  0  0  0  0  0  0  0  0
  -25.3620  -15.2750   20.2740 N   0  0  0  0  0  0  0  0  0  0  0  0
  -24.5890  -15.9220   20.3890 H   0  0  0  0  0  0  0  0  0  0  0  0
  -26.1930  -15.7160   19.9020 H   0  0  0  0  0  0  0  0  0  0  0  0
  2  5  1  0
  3  1  1  0
  4  2  2  0
  4  6  1  0
  5  1  2  0
  5 52  1  0
  6  3  2  0
  7  6  1  0
  8  7  1  0
  9  7  1  0
  9 10  1  0
 11 13  1  0
 11 10  1  0
 12 23  2  0
 13 18  1  0
 14 22  1  0
 14 24  1  0
 15 21  1  0
 15 17  1  0
 16 22  1  0
 17 18  2  0
 17 16  1  0
 19 13  2  0
 20 19  1  0
 20 15  2  0
 21 14  1  0
 22 12  1  0
 24 26  2  0
 25 24  1  0
 27 25  1  0
 28 37  2  0
 28 33  1  0
 29 25  1  0
 29 33  1  0
 30 29  1  0
 31 32  1  0
 31 30  1  0
 32 28  1  0
 33 34  2  0
 34 35  1  0
 36 35  2  0
 37 36  1  0
 38 12  1  0
 38 43  1  0
 38 39  1  0
 39 42  1  1
 39 40  1  0
 41 39  1  0
 43 46  1  0
 44 48  1  0
 44 43  1  0
 45 44  2  0
 48 47  1  0
 50 48  1  0
 50 51  1  0
 50 49  1  0
 53 61  1  0
 54 59  1  0
 55 56  1  0
 55 54  1  0
 57 56  1  0
 57 66  1  0
 57 58  1  0
 59 53  1  0
 59 58  1  0
 60 53  2  0
 61 62  1  0
 61 52  1  0
 63 64  2  0
 64 83  1  0
 65 64  1  0
 65 68  1  0
 66 63  1  0
 66 67  1  0
 67 65  2  0
 68 69  1  0
 69 70  2  0
 71 74  1  0
 71 70  1  0
 72 71  2  0
 73 72  1  0
 73 68  2  0
 74 75  1  0
 75 76  1  0
 76 77  2  0
 78 77  1  0
 78 82  1  0
 79 78  2  0
 80 75  2  0
 80 79  1  0
 81 80  1  0
 83 84  1  0
 84 87  1  0
 84 86  1  0
 85 83  2  0
 88 89  1  0
 88 63  1  0
 90 88  1  0
M  ISO  4  10 101  11 101  53 100  61 100
M  END
>  <TORSDO>  (83) 
F 20

>  <SCORE>  (83) 
-13.714

>  <name>  (83) 
82

>  <ligand_id>  (83) 
82

>  <original_smiles>  (83) 
[H]c1c([H])c([H])c2c(c1[H])C([H])([H])C([H])([H])C([H])([H])C2([H])N([H])C(=O)C1([H])N(C(=O)C([H])(N([H])C(=O)C([H])(N([H])C([H])([H])[H])C([H])([H])[H])C(C([H])([H])[H])(C([H])([H])[H])C([H])([H])[H])C([H])([H])c2c([H])c(OC([H])([H])C([H])([H])N([H])c3c([H])c([H])c(C([H])([H])N([H])C(=O)N4C([H])([H])C([H])([H])C([H])([H])C([H])(n5nc(-c6c([H])c([H])c(Oc7c([H])c([H])c(F)c([H])c7F)c([H])c6[H])c(C(=O)N([H])[H])c5N([H])[H])C4([H])[H])c([H])c3[H])c([H])c([H])c2C1([H])[H]

>  <smiles>  (83) 
[H]c1c([H])c([H])c2c(c1[H])C([H])([H])C([H])([H])C([H])([H])C2([H])N([H])C(=O)C1([H])N(C(=O)C([H])(N([H])C(=O)C([H])(N([H])C([H])([H])[H])C([H])([H])[H])C(C([H])([H])[H])(C([H])([H])[H])C([H])([H])[H])C([H])([H])c2c([H])c(OC([H])([H])C([H])([H])N([H])c3c([H])c([H])c(C([H])([H])N([H])C(=O)N4C([H])([H])C([H])([H])C([H])([H])C([H])(n5nc(-c6c([H])c([H])c(Oc7c([H])c([H])c(F)c([H])c7F)c([H])c6[H])c(C(=O)N([H])[H])c5N([H])[H])C4([H])[H])c([H])c3[H])c([H])c([H])c2C1([H])[H]

$$$$
83:0:0
     RDKit          3D

 87 95  0  0  1  0  0  0  0  0999 V2000
  -28.9390  -21.2050   17.9940 C   0  0  0  0  0  3  0  0  0  0  0  0
  -29.2130  -19.9730   18.6570 C   0  0  0  0  0  3  0  0  0  0  0  0
  -28.6620  -22.4480   18.6370 C   0  0  0  0  0  3  0  0  0  0  0  0
  -28.9330  -21.2290   20.6960 C   0  0  0  0  0  3  0  0  0  0  0  0
  -29.2580  -19.8410   20.0610 C   0  0  0  0  0  0  0  0  0  0  0  0
  -28.6150  -22.6060   20.0390 C   0  0  0  0  0  0  0  0  0  0  0  0
  -29.8030  -18.2760   20.6910 C   0  0  0  0  0  2  0  0  0  0  0  0
  -30.3880  -15.3430   20.2990 C   0  0  0  0  0  0  0  0  0  0  0  0
  -30.4000  -12.8810   19.4180 C   0  0  0  0  0  2  0  0  0  0  0  0
  -29.4870  -12.6140   18.1940 C   0  0  0  0  0  2  0  0  0  0  0  0
  -28.0420  -12.3250   18.6390 C   0  0  0  0  0  2  0  0  0  0  0  0
  -27.5720  -13.3030   19.7440 C   0  0  0  0  0  3  0  0  0  0  0  0
  -28.6160  -13.4960   20.8630 C   0  0  0  0  0  2  0  0  0  0  0  0
  -29.8260  -14.0310   20.2140 N   0  0  0  0  0  0  0  0  0  0  0  0
  -31.6220  -15.3240   20.1670 O   0  0  0  0  0  0  0  0  0  0  0  0
  -29.6180  -16.6300   20.3330 N   0  0  0  0  0  0  0  0  0  0  0  0
  -28.6350  -16.4140   20.2560 H   0  0  0  0  0  0  0  0  0  0  0  0
  -25.2010  -13.8510   20.4940 C   0  0  0  0  0  0  0  0  0  0  0  0
  -24.1410  -13.0710   20.8610 C   0  0  0  0  0  0  0  0  0  0  0  0
  -24.6140  -11.7230   20.8370 C   0  0  0  0  0  0  0  0  0  0  0  0
  -26.2470  -12.9800   20.2560 N   0  0  0  0  0  0  0  0  0  0  0  0
  -25.9070  -11.6930   20.5320 N   0  0  0  0  0  0  0  0  0  0  0  0
  -23.8900  -10.4580   21.0250 C   0  0  0  0  0  0  0  0  0  0  0  0
  -24.3180   -9.4930   21.9640 C   0  0  0  0  0  3  0  0  0  0  0  0
  -23.5900   -8.2960   22.1420 C   0  0  0  0  0  3  0  0  0  0  0  0
  -22.4220   -8.0550   21.3810 C   0  0  0  0  0  0  0  0  0  0  0  0
  -22.0140   -9.0090   20.4310 C   0  0  0  0  0  3  0  0  0  0  0  0
  -22.7420  -10.1970   20.2510 C   0  0  0  0  0  3  0  0  0  0  0  0
  -21.6670   -6.9100   21.4680 O   0  0  0  0  0  0  0  0  0  0  0  0
  -21.6120   -6.1720   22.6220 C   0  0  0  0  0  0  0  0  0  0  0  0
  -21.1730   -6.7290   23.8430 C   0  0  0  0  0  3  0  0  0  0  0  0
  -21.0640   -5.9160   24.9890 C   0  0  0  0  0  3  0  0  0  0  0  0
  -21.3830   -4.5480   24.9160 C   0  0  0  0  0  0  0  0  0  0  0  0
  -21.8150   -3.9900   23.7000 C   0  0  0  0  0  3  0  0  0  0  0  0
  -21.9250   -4.7990   22.5560 C   0  0  0  0  0  0  0  0  0  0  0  0
  -22.3220   -4.2510   21.3810 F   0  0  0  0  0  0  0  0  0  0  0  0
  -21.2720   -3.7650   26.0150 F   0  0  0  0  0  0  0  0  0  0  0  0
  -22.7390  -13.5430   21.1150 C   0  0  0  0  0  0  0  0  0  0  0  0
  -22.0050  -12.8480   21.9770 N   0  0  0  0  0  0  0  0  0  0  0  0
  -22.3050  -14.5660   20.5870 O   0  0  0  0  0  0  0  0  0  0  0  0
  -22.3710  -12.0210   22.4260 H   0  0  0  0  0  0  0  0  0  0  0  0
  -21.0640  -13.1470   22.1910 H   0  0  0  0  0  0  0  0  0  0  0  0
  -25.3540  -15.2220   20.3120 N   0  0  0  0  0  0  0  0  0  0  0  0
  -24.5790  -15.8670   20.4130 H   0  0  0  0  0  0  0  0  0  0  0  0
  -26.1890  -15.6640   19.9490 H   0  0  0  0  0  0  0  0  0  0  0  0
  -28.0290  -24.1710   20.6330 C   0  0  0  0  0  2  0  0  0  0  0  0
  -28.2310  -25.7760   20.2190 O   0  0  0  0  0  0  0  0  0  0  0  0
  -24.6410  -31.8200   23.1860 C   0  0  0  0  0  0  0  0  0  0  0  0
  -27.2150  -26.8870   20.2340 C   0  0  0  0  0  0  0  0  0  0  0  0
  -23.4580  -30.4100   21.5550 C   0  0  0  0  0  3  0  0  0  0  0  0
  -24.9170  -28.7870   20.1590 C   0  0  0  0  0  0  0  0  0  0  0  0
  -26.0280  -30.6150   21.4210 C   0  0  0  0  0  2  0  0  0  0  0  0
  -26.1040  -29.1930   20.7790 C   0  0  0  0  0  0  0  0  0  0  0  0
  -27.2510  -28.2680   20.7830 C   0  0  0  0  0  3  0  0  0  0  0  0
  -25.9920  -26.6400   19.5700 C   0  0  0  0  0  3  0  0  0  0  0  0
  -24.8870  -27.5310   19.5330 C   0  0  0  0  0  3  0  0  0  0  0  0
  -23.6990  -29.7120   20.1870 C   0  0  0  0  0  2  0  0  0  0  0  0
  -24.7310  -30.9760   22.1070 N   0  0  0  0  0  0  0  0  0  0  0  0
  -23.5460  -32.1130   23.6990 O   0  0  0  0  0  0  0  0  0  0  0  0
  -22.7580  -29.4220   22.5260 C   0  0  0  0  0  0  0  0  0  0  0  0
  -21.4260  -29.2660   22.4040 N   0  0  0  0  0  0  0  0  0  0  0  0
  -23.4200  -28.7970   23.3560 O   0  0  0  0  0  0  0  0  0  0  0  0
  -20.9440  -29.8210   21.7120 H   0  0  0  0  0  0  0  0  0  0  0  0
  -18.0370  -28.0790   22.9330 C   0  0  0  0  0  0  0  0  0  0  0  0
  -20.6000  -28.3340   23.1810 C   0  0  0  0  0  3  0  0  0  0  0  0
  -20.6900  -26.9010   22.6070 C   0  0  0  0  0  2  0  0  0  0  0  0
  -19.5810  -26.5830   21.5990 C   0  0  0  0  0  2  0  0  0  0  0  0
  -18.2040  -26.7310   22.2520 C   0  0  0  0  0  2  0  0  0  0  0  0
  -19.1610  -28.8390   23.3550 C   0  0  0  0  0  0  0  0  0  0  0  0
  -18.9480  -30.0980   23.9560 C   0  0  0  0  0  3  0  0  0  0  0  0
  -17.6450  -30.5990   24.1370 C   0  0  0  0  0  3  0  0  0  0  0  0
  -16.5360  -29.8380   23.7290 C   0  0  0  0  0  3  0  0  0  0  0  0
  -16.7330  -28.5800   23.1330 C   0  0  0  0  0  3  0  0  0  0  0  0
  -25.9040  -32.4730   23.8220 C   0  0  0  0  0  3  0  0  0  0  0  0
  -25.5790  -33.8730   24.1490 N   0  0  0  0  0  0  0  0  0  0  0  0
  -25.9110  -34.9350   23.4030 C   0  0  0  0  0  0  0  0  0  0  0  0
  -26.5860  -34.8380   22.3750 O   0  0  0  0  0  0  0  0  0  0  0  0
  -24.9780  -34.0200   24.9470 H   0  0  0  0  0  0  0  0  0  0  0  0
  -24.1810  -36.7330   23.0580 C   0  0  0  0  0  1  0  0  0  0  0  0
  -25.4230  -36.3220   23.8680 C   0  0  0  0  0  3  0  0  0  0  0  0
  -27.5530  -37.2130   24.7060 C   0  0  0  0  0  1  0  0  0  0  0  0
  -26.4530  -37.3790   23.7600 N   0  0  0  0  0  0  0  0  0  0  0  0
  -26.0440  -38.2980   23.9080 H   0  0  0  0  0  0  0  0  0  0  0  0
  -26.4060  -31.7190   25.1170 C   0  0  1  0  0  0  0  0  0  0  0  0
  -25.3000  -31.4950   26.1750 C   0  0  0  0  0  1  0  0  0  0  0  0
  -26.9930  -30.3350   24.7580 C   0  0  0  0  0  1  0  0  0  0  0  0
  -27.5480  -32.5220   25.7810 C   0  0  0  0  0  1  0  0  0  0  0  0
  1  3  2  0
  1  2  1  0
  2  5  2  0
  3  6  1  0
  5  7  1  0
  5  4  1  0
  6 46  1  0
  6  4  2  0
  8 16  1  0
  9 14  1  0
 10 11  1  0
 10  9  1  0
 12 11  1  0
 12 21  1  0
 12 13  1  0
 14  8  1  0
 14 13  1  0
 15  8  2  0
 16  7  1  0
 17 16  1  0
 18 19  2  0
 19 38  1  0
 20 19  1  0
 20 23  1  0
 21 18  1  0
 21 22  1  0
 22 20  2  0
 23 24  1  0
 24 25  2  0
 26 29  1  0
 26 25  1  0
 27 26  2  0
 28 27  1  0
 28 23  2  0
 29 30  1  0
 30 31  1  0
 31 32  2  0
 33 32  1  0
 33 37  1  0
 34 33  2  0
 35 30  2  0
 35 34  1  0
 36 35  1  0
 38 39  1  0
 39 42  1  0
 39 41  1  0
 40 38  2  0
 43 44  1  0
 43 18  1  0
 45 43  1  0
 47 49  1  0
 47 46  1  0
 48 59  2  0
 49 54  1  0
 50 58  1  0
 50 60  1  0
 51 57  1  0
 51 53  1  0
 52 58  1  0
 53 54  2  0
 53 52  1  0
 55 49  2  0
 56 55  1  0
 56 51  2  0
 57 50  1  0
 58 48  1  0
 60 62  2  0
 61 60  1  0
 63 61  1  0
 64 73  2  0
 64 69  1  0
 65 61  1  0
 65 69  1  0
 66 65  1  0
 67 68  1  0
 67 66  1  0
 68 64  1  0
 69 70  2  0
 70 71  1  0
 72 71  2  0
 73 72  1  0
 74 48  1  0
 74 75  1  0
 74 84  1  0
 75 78  1  0
 76 80  1  0
 76 75  1  0
 77 76  2  0
 80 79  1  0
 82 80  1  0
 82 83  1  0
 82 81  1  0
 84 87  1  1
 84 85  1  0
 86 84  1  0
M  ISO  4   8 100  16 100  46 101  47 101
M  END
>  <TORSDO>  (84) 
F 18

>  <SCORE>  (84) 
-16.530

>  <name>  (84) 
83

>  <ligand_id>  (84) 
83

>  <original_smiles>  (84) 
[H]c1c([H])c(C([H])([H])Oc2c([H])c([H])c3c(c2[H])C([H])([H])N(C(=O)C([H])(N([H])C(=O)C([H])(N([H])C([H])([H])[H])C([H])([H])[H])C(C([H])([H])[H])(C([H])([H])[H])C([H])([H])[H])C([H])(C(=O)N([H])C2([H])c4c([H])c([H])c([H])c([H])c4C([H])([H])C([H])([H])C2([H])[H])C3([H])[H])c([H])c(C([H])([H])N([H])C(=O)N2C([H])([H])C([H])([H])C([H])([H])C([H])(n3nc(-c4c([H])c([H])c(Oc5c([H])c([H])c(F)c([H])c5F)c([H])c4[H])c(C(=O)N([H])[H])c3N([H])[H])C2([H])[H])c1[H]

>  <smiles>  (84) 
[H]c1c([H])c(C([H])([H])Oc2c([H])c([H])c3c(c2[H])C([H])([H])N(C(=O)C([H])(N([H])C(=O)C([H])(N([H])C([H])([H])[H])C([H])([H])[H])C(C([H])([H])[H])(C([H])([H])[H])C([H])([H])[H])C([H])(C(=O)N([H])C2([H])c4c([H])c([H])c([H])c([H])c4C([H])([H])C([H])([H])C2([H])[H])C3([H])[H])c([H])c(C([H])([H])N([H])C(=O)N2C([H])([H])C([H])([H])C([H])([H])C([H])(n3nc(-c4c([H])c([H])c(Oc5c([H])c([H])c(F)c([H])c5F)c([H])c4[H])c(C(=O)N([H])[H])c3N([H])[H])C2([H])[H])c1[H]

$$$$
84:0:0
     RDKit          3D

 89 98  0  0  1  0  0  0  0  0999 V2000
  -29.3650  -21.2990   17.7330 C   0  0  0  0  0  3  0  0  0  0  0  0
  -29.6420  -20.0200   18.2990 C   0  0  0  0  0  3  0  0  0  0  0  0
  -29.0920  -22.4890   18.4710 C   0  0  0  0  0  3  0  0  0  0  0  0
  -29.3760  -21.1190   20.4270 C   0  0  0  0  0  3  0  0  0  0  0  0
  -29.6960  -19.7840   19.6880 C   0  0  0  0  0  0  0  0  0  0  0  0
  -29.0560  -22.5390   19.8810 C   0  0  0  0  0  0  0  0  0  0  0  0
  -30.5580  -15.2340   19.5330 C   0  0  0  0  0  0  0  0  0  0  0  0
  -30.3720  -12.8280   18.4950 C   0  0  0  0  0  2  0  0  0  0  0  0
  -29.2710  -12.6280   17.4180 C   0  0  0  0  0  2  0  0  0  0  0  0
  -27.9010  -12.3350   18.0590 C   0  0  0  0  0  2  0  0  0  0  0  0
  -27.6340  -13.2490   19.2770 C   0  0  0  0  0  3  0  0  0  0  0  0
  -28.8520  -13.3100   20.2320 C   0  0  0  0  0  2  0  0  0  0  0  0
  -29.9470  -13.9290   19.4480 N   0  0  0  0  0  0  0  0  0  0  0  0
  -31.7540  -15.1720   19.1990 O   0  0  0  0  0  0  0  0  0  0  0  0
  -28.4490  -17.3660   21.5490 C   0  0  0  0  0  2  0  0  0  0  0  0
  -29.8030  -18.0600   21.6590 C   0  0  0  0  0  2  0  0  0  0  0  0
  -28.4820  -16.6270   20.2010 C   0  0  0  0  0  2  0  0  0  0  0  0
  -30.2270  -18.1710   20.1980 C   0  0  0  0  0  3  0  0  0  0  0  0
  -29.8740  -16.5740   19.7710 N   0  0  0  0  0  0  0  0  0  0  0  0
  -25.4070  -13.8300   20.3910 C   0  0  0  0  0  0  0  0  0  0  0  0
  -24.3850  -13.0620   20.8680 C   0  0  0  0  0  0  0  0  0  0  0  0
  -24.7940  -11.7060   20.6850 C   0  0  0  0  0  0  0  0  0  0  0  0
  -26.3800  -12.9450   19.9550 N   0  0  0  0  0  0  0  0  0  0  0  0
  -26.0270  -11.6550   20.1940 N   0  0  0  0  0  0  0  0  0  0  0  0
  -24.0510  -10.4580   20.8910 C   0  0  0  0  0  0  0  0  0  0  0  0
  -24.5260   -9.4510   21.7580 C   0  0  0  0  0  3  0  0  0  0  0  0
  -23.7800   -8.2680   21.9560 C   0  0  0  0  0  3  0  0  0  0  0  0
  -22.5450   -8.0880   21.2890 C   0  0  0  0  0  0  0  0  0  0  0  0
  -22.0880   -9.0850   20.4090 C   0  0  0  0  0  3  0  0  0  0  0  0
  -22.8350  -10.2570   20.2070 C   0  0  0  0  0  3  0  0  0  0  0  0
  -21.7660   -6.9620   21.4020 O   0  0  0  0  0  0  0  0  0  0  0  0
  -21.7230   -6.2310   22.5610 C   0  0  0  0  0  0  0  0  0  0  0  0
  -21.3250   -6.8050   23.7880 C   0  0  0  0  0  3  0  0  0  0  0  0
  -21.2280   -6.0020   24.9420 C   0  0  0  0  0  3  0  0  0  0  0  0
  -21.5180   -4.6260   24.8710 C   0  0  0  0  0  0  0  0  0  0  0  0
  -21.9100   -4.0530   23.6480 C   0  0  0  0  0  3  0  0  0  0  0  0
  -22.0090   -4.8540   22.4960 C   0  0  0  0  0  0  0  0  0  0  0  0
  -22.3660   -4.2910   21.3160 F   0  0  0  0  0  0  0  0  0  0  0  0
  -21.4170   -3.8530   25.9760 F   0  0  0  0  0  0  0  0  0  0  0  0
  -23.0590  -13.5630   21.3610 C   0  0  0  0  0  0  0  0  0  0  0  0
  -22.4400  -12.8430   22.2880 N   0  0  0  0  0  0  0  0  0  0  0  0
  -22.5890  -14.6280   20.9610 O   0  0  0  0  0  0  0  0  0  0  0  0
  -22.8370  -11.9810   22.6320 H   0  0  0  0  0  0  0  0  0  0  0  0
  -21.5540  -13.1580   22.6590 H   0  0  0  0  0  0  0  0  0  0  0  0
  -25.5570  -15.2050   20.2600 N   0  0  0  0  0  0  0  0  0  0  0  0
  -24.8190  -15.8510   20.5160 H   0  0  0  0  0  0  0  0  0  0  0  0
  -26.3340  -15.6570   19.7990 H   0  0  0  0  0  0  0  0  0  0  0  0
  -28.4780  -24.0460   20.6060 C   0  0  0  0  0  2  0  0  0  0  0  0
  -28.6450  -25.6740   20.2890 O   0  0  0  0  0  0  0  0  0  0  0  0
  -24.6990  -31.5520   23.1120 C   0  0  0  0  0  0  0  0  0  0  0  0
  -27.5790  -26.7330   20.2610 C   0  0  0  0  0  0  0  0  0  0  0  0
  -23.6320  -30.0930   21.4430 C   0  0  0  0  0  3  0  0  0  0  0  0
  -25.2030  -28.5300   20.1030 C   0  0  0  0  0  0  0  0  0  0  0  0
  -26.1940  -30.4050   21.3960 C   0  0  0  0  0  2  0  0  0  0  0  0
  -26.3520  -28.9880   20.7620 C   0  0  0  0  0  0  0  0  0  0  0  0
  -27.5360  -28.1150   20.8080 C   0  0  0  0  0  3  0  0  0  0  0  0
  -26.3910  -26.4310   19.5580 C   0  0  0  0  0  3  0  0  0  0  0  0
  -25.2490  -27.2720   19.4820 C   0  0  0  0  0  3  0  0  0  0  0  0
  -23.9480  -29.4040   20.0860 C   0  0  0  0  0  2  0  0  0  0  0  0
  -24.8600  -30.7120   22.0380 N   0  0  0  0  0  0  0  0  0  0  0  0
  -23.5780  -31.8010   23.5850 O   0  0  0  0  0  0  0  0  0  0  0  0
  -22.9380  -29.0810   22.3910 C   0  0  0  0  0  0  0  0  0  0  0  0
  -21.6140  -28.8870   22.2390 N   0  0  0  0  0  0  0  0  0  0  0  0
  -23.5990  -28.4680   23.2330 O   0  0  0  0  0  0  0  0  0  0  0  0
  -21.1330  -29.4340   21.5390 H   0  0  0  0  0  0  0  0  0  0  0  0
  -18.2440  -27.6180   22.6990 C   0  0  0  0  0  0  0  0  0  0  0  0
  -20.7970  -27.9270   22.9910 C   0  0  0  0  0  3  0  0  0  0  0  0
  -20.9290  -26.5040   22.4000 C   0  0  0  0  0  2  0  0  0  0  0  0
  -19.8430  -26.1740   21.3720 C   0  0  0  0  0  2  0  0  0  0  0  0
  -18.4530  -26.2830   22.0040 C   0  0  0  0  0  2  0  0  0  0  0  0
  -19.3460  -28.3970   23.1490 C   0  0  0  0  0  0  0  0  0  0  0  0
  -19.0950  -29.6420   23.7640 C   0  0  0  0  0  3  0  0  0  0  0  0
  -17.7790  -30.1120   23.9310 C   0  0  0  0  0  3  0  0  0  0  0  0
  -16.6930  -29.3330   23.4950 C   0  0  0  0  0  3  0  0  0  0  0  0
  -16.9280  -28.0870   22.8860 C   0  0  0  0  0  3  0  0  0  0  0  0
  -25.9140  -32.2550   23.7900 C   0  0  0  0  0  3  0  0  0  0  0  0
  -25.5240  -33.6430   24.0970 N   0  0  0  0  0  0  0  0  0  0  0  0
  -25.8210  -34.7090   23.3420 C   0  0  0  0  0  0  0  0  0  0  0  0
  -26.5130  -34.6320   22.3240 O   0  0  0  0  0  0  0  0  0  0  0  0
  -24.9070  -33.7730   24.8850 H   0  0  0  0  0  0  0  0  0  0  0  0
  -24.0060  -36.4180   22.9710 C   0  0  0  0  0  1  0  0  0  0  0  0
  -25.2640  -36.0790   23.7850 C   0  0  0  0  0  3  0  0  0  0  0  0
  -27.3480  -37.0850   24.6120 C   0  0  0  0  0  1  0  0  0  0  0  0
  -26.2440  -37.1820   23.6610 N   0  0  0  0  0  0  0  0  0  0  0  0
  -25.7910  -38.0830   23.7930 H   0  0  0  0  0  0  0  0  0  0  0  0
  -26.3940  -31.5250   25.1060 C   0  0  1  0  0  0  0  0  0  0  0  0
  -25.2590  -31.2640   26.1240 C   0  0  0  0  0  1  0  0  0  0  0  0
  -27.0470  -30.1650   24.7760 C   0  0  0  0  0  1  0  0  0  0  0  0
  -27.4810  -32.3750   25.8070 C   0  0  0  0  0  1  0  0  0  0  0  0
  1  2  2  0
  1  3  1  0
  2  5  1  0
  3  6  2  0
  5  4  2  0
  6  4  1  0
  6 48  1  0
  7 19  1  0
  8 13  1  0
  9 10  1  0
  9  8  1  0
 11 10  1  0
 11 23  1  0
 11 12  1  0
 13  7  1  0
 13 12  1  0
 14  7  2  0
 15 16  1  0
 17 15  1  0
 18  5  1  0
 18 16  1  0
 19 18  1  0
 19 17  1  0
 20 21  2  0
 21 40  1  0
 22 21  1  0
 22 25  1  0
 23 24  1  0
 23 20  1  0
 24 22  2  0
 25 26  1  0
 26 27  2  0
 28 31  1  0
 28 27  1  0
 29 28  2  0
 30 29  1  0
 30 25  2  0
 31 32  1  0
 32 33  1  0
 33 34  2  0
 35 34  1  0
 35 39  1  0
 36 35  2  0
 37 32  2  0
 37 36  1  0
 38 37  1  0
 40 41  1  0
 41 43  1  0
 41 44  1  0
 42 40  2  0
 45 20  1  0
 45 46  1  0
 47 45  1  0
 49 48  1  0
 50 61  2  0
 51 49  1  0
 51 56  1  0
 52 60  1  0
 52 62  1  0
 53 55  1  0
 54 60  1  0
 55 56  2  0
 55 54  1  0
 57 51  2  0
 58 57  1  0
 58 53  2  0
 59 53  1  0
 59 52  1  0
 60 50  1  0
 62 64  2  0
 63 62  1  0
 65 63  1  0
 66 75  2  0
 66 71  1  0
 67 63  1  0
 67 71  1  0
 68 67  1  0
 69 70  1  0
 69 68  1  0
 70 66  1  0
 71 72  2  0
 72 73  1  0
 74 73  2  0
 75 74  1  0
 76 50  1  0
 76 77  1  0
 76 86  1  0
 77 80  1  0
 78 82  1  0
 78 77  1  0
 79 78  2  0
 82 81  1  0
 84 82  1  0
 84 85  1  0
 84 83  1  0
 86 89  1  1
 86 87  1  0
 88 86  1  0
M  ISO  4   7 100  19 100  48 101  49 101
M  END
>  <TORSDO>  (85) 
F 17

>  <SCORE>  (85) 
-13.451

>  <name>  (85) 
84

>  <ligand_id>  (85) 
84

>  <original_smiles>  (85) 
[H]c1c([H])c([H])c2c(c1[H])C([H])([H])C([H])([H])C([H])([H])C2([H])N([H])C(=O)C1([H])N(C(=O)C([H])(N([H])C(=O)C([H])(N([H])C([H])([H])[H])C([H])([H])[H])C(C([H])([H])[H])(C([H])([H])[H])C([H])([H])[H])C([H])([H])c2c([H])c(OC([H])([H])c3c([H])c([H])c([H])c(C4([H])N(C(=O)N5C([H])([H])C([H])([H])C([H])([H])C([H])(n6nc(-c7c([H])c([H])c(Oc8c([H])c([H])c(F)c([H])c8F)c([H])c7[H])c(C(=O)N([H])[H])c6N([H])[H])C5([H])[H])C([H])([H])C([H])([H])C4([H])[H])c3[H])c([H])c([H])c2C1([H])[H]

>  <smiles>  (85) 
[H]c1c([H])c([H])c2c(c1[H])C([H])([H])C([H])([H])C([H])([H])C2([H])N([H])C(=O)C1([H])N(C(=O)C([H])(N([H])C(=O)C([H])(N([H])C([H])([H])[H])C([H])([H])[H])C(C([H])([H])[H])(C([H])([H])[H])C([H])([H])[H])C([H])([H])c2c([H])c(OC([H])([H])c3c([H])c([H])c([H])c(C4([H])N(C(=O)N5C([H])([H])C([H])([H])C([H])([H])C([H])(n6nc(-c7c([H])c([H])c(Oc8c([H])c([H])c(F)c([H])c8F)c([H])c7[H])c(C(=O)N([H])[H])c6N([H])[H])C5([H])[H])C([H])([H])C([H])([H])C4([H])[H])c3[H])c([H])c([H])c2C1([H])[H]

$$$$
85:0:0
     RDKit          3D

 90 99  0  0  1  0  0  0  0  0999 V2000
  -30.5470  -22.5500   18.6550 C   0  0  0  0  0  3  0  0  0  0  0  0
  -30.3460  -21.2310   19.1240 C   0  0  0  0  0  3  0  0  0  0  0  0
  -29.8040  -23.6490   19.1430 C   0  0  0  0  0  3  0  0  0  0  0  0
  -28.6360  -22.0930   20.6040 C   0  0  0  0  0  3  0  0  0  0  0  0
  -29.3920  -20.9230   20.1200 C   0  0  0  0  0  0  0  0  0  0  0  0
  -28.8190  -23.4820   20.1340 C   0  0  0  0  0  0  0  0  0  0  0  0
  -30.5830  -14.8580   20.3460 C   0  0  0  0  0  0  0  0  0  0  0  0
  -30.3440  -12.5500   19.3670 C   0  0  0  0  0  2  0  0  0  0  0  0
  -29.4030  -12.5410   18.1450 C   0  0  0  0  0  2  0  0  0  0  0  0
  -27.9450  -12.3410   18.5970 C   0  0  0  0  0  2  0  0  0  0  0  0
  -27.5590  -13.2660   19.7820 C   0  0  0  0  0  3  0  0  0  0  0  0
  -28.6290  -13.2820   20.8940 C   0  0  0  0  0  2  0  0  0  0  0  0
  -29.9010  -13.6520   20.2630 N   0  0  0  0  0  0  0  0  0  0  0  0
  -31.7920  -14.8400   20.0970 O   0  0  0  0  0  0  0  0  0  0  0  0
  -28.8340  -18.2900   19.5230 C   0  0  0  0  0  2  0  0  0  0  0  0
  -30.6080  -18.6770   21.0770 C   0  0  0  0  0  2  0  0  0  0  0  0
  -28.7880  -16.7280   19.9280 C   0  0  0  0  0  2  0  0  0  0  0  0
  -30.5630  -17.1430   21.5300 C   0  0  0  0  0  2  0  0  0  0  0  0
  -29.2790  -19.3630   20.5930 C   0  0  0  0  0  3  0  0  0  0  0  0
  -29.9560  -16.1010   20.6310 N   0  0  0  0  0  0  0  0  0  0  0  0
  -25.1890  -13.8530   20.5420 C   0  0  0  0  0  0  0  0  0  0  0  0
  -24.1260  -13.0800   20.9200 C   0  0  0  0  0  0  0  0  0  0  0  0
  -24.5890  -11.7280   20.8870 C   0  0  0  0  0  0  0  0  0  0  0  0
  -26.2280  -12.9730   20.2970 N   0  0  0  0  0  0  0  0  0  0  0  0
  -25.8780  -11.6900   20.5710 N   0  0  0  0  0  0  0  0  0  0  0  0
  -23.8620  -10.4660   21.0790 C   0  0  0  0  0  0  0  0  0  0  0  0
  -24.3100   -9.4890   21.9940 C   0  0  0  0  0  3  0  0  0  0  0  0
  -23.5820   -8.2930   22.1770 C   0  0  0  0  0  3  0  0  0  0  0  0
  -22.3920   -8.0680   21.4430 C   0  0  0  0  0  0  0  0  0  0  0  0
  -21.9640   -9.0350   20.5170 C   0  0  0  0  0  3  0  0  0  0  0  0
  -22.6930  -10.2220   20.3330 C   0  0  0  0  0  3  0  0  0  0  0  0
  -21.6340   -6.9260   21.5370 O   0  0  0  0  0  0  0  0  0  0  0  0
  -21.6200   -6.1630   22.6770 C   0  0  0  0  0  0  0  0  0  0  0  0
  -21.2540   -6.7030   23.9300 C   0  0  0  0  0  3  0  0  0  0  0  0
  -21.1850   -5.8680   25.0620 C   0  0  0  0  0  3  0  0  0  0  0  0
  -21.4710   -4.4940   24.9450 C   0  0  0  0  0  0  0  0  0  0  0  0
  -21.8300   -3.9540   23.6970 C   0  0  0  0  0  3  0  0  0  0  0  0
  -21.9010   -4.7860   22.5660 C   0  0  0  0  0  0  0  0  0  0  0  0
  -22.2260   -4.2570   21.3620 F   0  0  0  0  0  0  0  0  0  0  0  0
  -21.3970   -3.6900   26.0310 F   0  0  0  0  0  0  0  0  0  0  0  0
  -22.7300  -13.5590   21.1960 C   0  0  0  0  0  0  0  0  0  0  0  0
  -22.0070  -12.8670   22.0680 N   0  0  0  0  0  0  0  0  0  0  0  0
  -22.2920  -14.5820   20.6730 O   0  0  0  0  0  0  0  0  0  0  0  0
  -22.3760  -12.0400   22.5130 H   0  0  0  0  0  0  0  0  0  0  0  0
  -21.0710  -13.1710   22.2970 H   0  0  0  0  0  0  0  0  0  0  0  0
  -25.3500  -15.2220   20.3610 N   0  0  0  0  0  0  0  0  0  0  0  0
  -24.5820  -15.8760   20.4760 H   0  0  0  0  0  0  0  0  0  0  0  0
  -26.1950  -15.6600   20.0200 H   0  0  0  0  0  0  0  0  0  0  0  0
  -27.9610  -24.7790   20.6000 C   0  0  0  0  0  2  0  0  0  0  0  0
  -28.2690  -26.2330   20.2060 O   0  0  0  0  0  0  0  0  0  0  0  0
  -24.6470  -31.8690   23.2130 C   0  0  0  0  0  0  0  0  0  0  0  0
  -27.2060  -27.1900   20.1810 C   0  0  0  0  0  0  0  0  0  0  0  0
  -23.4330  -30.4650   21.5890 C   0  0  0  0  0  3  0  0  0  0  0  0
  -24.8720  -28.8950   20.1600 C   0  0  0  0  0  0  0  0  0  0  0  0
  -25.9820  -30.7470   21.3980 C   0  0  0  0  0  2  0  0  0  0  0  0
  -26.0530  -29.3560   20.7550 C   0  0  0  0  0  0  0  0  0  0  0  0
  -27.2260  -28.5190   20.7500 C   0  0  0  0  0  3  0  0  0  0  0  0
  -26.0050  -26.8240   19.5360 C   0  0  0  0  0  3  0  0  0  0  0  0
  -24.8580  -27.6400   19.5350 C   0  0  0  0  0  3  0  0  0  0  0  0
  -23.6420  -29.7860   20.2100 C   0  0  0  0  0  2  0  0  0  0  0  0
  -24.7070  -31.0470   22.1220 N   0  0  0  0  0  0  0  0  0  0  0  0
  -23.5660  -32.1530   23.7500 O   0  0  0  0  0  0  0  0  0  0  0  0
  -22.7680  -29.4570   22.5590 C   0  0  0  0  0  0  0  0  0  0  0  0
  -21.4400  -29.2840   22.4450 N   0  0  0  0  0  0  0  0  0  0  0  0
  -23.4490  -28.8330   23.3770 O   0  0  0  0  0  0  0  0  0  0  0  0
  -20.9480  -29.8400   21.7570 H   0  0  0  0  0  0  0  0  0  0  0  0
  -18.0650  -28.0800   22.9700 C   0  0  0  0  0  0  0  0  0  0  0  0
  -20.6250  -28.3510   23.2270 C   0  0  0  0  0  3  0  0  0  0  0  0
  -20.7290  -26.9150   22.6640 C   0  0  0  0  0  2  0  0  0  0  0  0
  -19.6240  -26.5790   21.6570 C   0  0  0  0  0  2  0  0  0  0  0  0
  -18.2440  -26.7260   22.3040 C   0  0  0  0  0  2  0  0  0  0  0  0
  -19.1840  -28.8500   23.3890 C   0  0  0  0  0  0  0  0  0  0  0  0
  -18.9620  -30.1160   23.9720 C   0  0  0  0  0  3  0  0  0  0  0  0
  -17.6560  -30.6130   24.1410 C   0  0  0  0  0  3  0  0  0  0  0  0
  -16.5530  -29.8410   23.7380 C   0  0  0  0  0  3  0  0  0  0  0  0
  -16.7590  -28.5760   23.1570 C   0  0  0  0  0  3  0  0  0  0  0  0
  -25.9310  -32.5070   23.8250 C   0  0  0  0  0  3  0  0  0  0  0  0
  -25.6150  -33.9000   24.1730 N   0  0  0  0  0  0  0  0  0  0  0  0
  -25.9240  -34.9650   23.4190 C   0  0  0  0  0  0  0  0  0  0  0  0
  -26.5730  -34.8770   22.3730 O   0  0  0  0  0  0  0  0  0  0  0  0
  -25.0370  -34.0430   24.9880 H   0  0  0  0  0  0  0  0  0  0  0  0
  -24.1710  -36.7470   23.1260 C   0  0  0  0  0  1  0  0  0  0  0  0
  -25.4370  -36.3460   23.9010 C   0  0  0  0  0  3  0  0  0  0  0  0
  -27.5860  -37.2410   24.6800 C   0  0  0  0  0  1  0  0  0  0  0  0
  -26.4560  -37.4090   23.7690 N   0  0  0  0  0  0  0  0  0  0  0  0
  -26.0470  -38.3240   23.9380 H   0  0  0  0  0  0  0  0  0  0  0  0
  -26.4660  -31.7310   25.0900 C   0  0  1  0  0  0  0  0  0  0  0  0
  -25.3880  -31.4830   26.1720 C   0  0  0  0  0  1  0  0  0  0  0  0
  -27.0500  -30.3570   24.6870 C   0  0  0  0  0  1  0  0  0  0  0  0
  -27.6230  -32.5260   25.7410 C   0  0  0  0  0  1  0  0  0  0  0  0
  1  2  2  0
  1  3  1  0
  2  5  1  0
  3  6  2  0
  5  4  2  0
  6 49  1  0
  6  4  1  0
  7 20  1  0
  8 13  1  0
  9 10  1  0
  9  8  1  0
 11 10  1  0
 11 24  1  0
 11 12  1  0
 13  7  1  0
 13 12  1  0
 14  7  2  0
 15 17  1  0
 15 19  1  0
 16 18  1  0
 17 20  1  0
 19  5  1  0
 19 16  1  0
 20 18  1  0
 21 22  2  0
 22 41  1  0
 23 22  1  0
 23 26  1  0
 24 21  1  0
 24 25  1  0
 25 23  2  0
 26 27  1  0
 27 28  2  0
 29 32  1  0
 29 28  1  0
 30 29  2  0
 31 30  1  0
 31 26  2  0
 32 33  1  0
 33 34  1  0
 34 35  2  0
 36 35  1  0
 36 40  1  0
 37 36  2  0
 38 33  2  0
 38 37  1  0
 39 38  1  0
 41 42  1  0
 42 45  1  0
 42 44  1  0
 43 41  2  0
 46 47  1  0
 46 21  1  0
 48 46  1  0
 50 49  1  0
 51 62  2  0
 52 50  1  0
 52 57  1  0
 53 61  1  0
 53 63  1  0
 54 60  1  0
 54 56  1  0
 55 61  1  0
 56 55  1  0
 57 56  2  0
 58 52  2  0
 59 58  1  0
 59 54  2  0
 60 53  1  0
 61 51  1  0
 63 65  2  0
 64 63  1  0
 66 64  1  0
 67 76  2  0
 67 72  1  0
 68 64  1  0
 68 72  1  0
 69 68  1  0
 70 71  1  0
 70 69  1  0
 71 67  1  0
 72 73  2  0
 73 74  1  0
 75 74  2  0
 76 75  1  0
 77 51  1  0
 77 78  1  0
 77 87  1  0
 78 81  1  0
 79 83  1  0
 79 78  1  0
 80 79  2  0
 83 82  1  0
 85 83  1  0
 85 86  1  0
 85 84  1  0
 87 90  1  1
 87 88  1  0
 89 87  1  0
M  ISO  4   7 100  20 100  49 101  50 101
M  END
>  <TORSDO>  (86) 
F 17

>  <SCORE>  (86) 
-15.194

>  <name>  (86) 
85

>  <ligand_id>  (86) 
85

>  <original_smiles>  (86) 
[H]c1c([H])c([H])c2c(c1[H])C([H])([H])C([H])([H])C([H])([H])C2([H])N([H])C(=O)C1([H])N(C(=O)C([H])(N([H])C(=O)C([H])(N([H])C([H])([H])[H])C([H])([H])[H])C(C([H])([H])[H])(C([H])([H])[H])C([H])([H])[H])C([H])([H])c2c([H])c(OC([H])([H])c3c([H])c([H])c([H])c(C4([H])C([H])([H])C([H])([H])N(C(=O)N5C([H])([H])C([H])([H])C([H])([H])C([H])(n6nc(-c7c([H])c([H])c(Oc8c([H])c([H])c(F)c([H])c8F)c([H])c7[H])c(C(=O)N([H])[H])c6N([H])[H])C5([H])[H])C([H])([H])C4([H])[H])c3[H])c([H])c([H])c2C1([H])[H]

>  <smiles>  (86) 
[H]c1c([H])c([H])c2c(c1[H])C([H])([H])C([H])([H])C([H])([H])C2([H])N([H])C(=O)C1([H])N(C(=O)C([H])(N([H])C(=O)C([H])(N([H])C([H])([H])[H])C([H])([H])[H])C(C([H])([H])[H])(C([H])([H])[H])C([H])([H])[H])C([H])([H])c2c([H])c(OC([H])([H])c3c([H])c([H])c([H])c(C4([H])C([H])([H])C([H])([H])N(C(=O)N5C([H])([H])C([H])([H])C([H])([H])C([H])(n6nc(-c7c([H])c([H])c(Oc8c([H])c([H])c(F)c([H])c8F)c([H])c7[H])c(C(=O)N([H])[H])c6N([H])[H])C5([H])[H])C([H])([H])C4([H])[H])c3[H])c([H])c([H])c2C1([H])[H]

$$$$
86:0:0
     RDKit          3D

 94103  0  0  1  0  0  0  0  0999 V2000
  -29.1640  -21.9760   20.1600 C   0  0  0  0  0  2  0  0  0  0  0  0
  -31.0980  -21.8670   21.7140 C   0  0  0  0  0  2  0  0  0  0  0  0
  -29.3990  -23.4980   19.9760 C   0  0  0  0  0  2  0  0  0  0  0  0
  -31.3390  -23.3760   21.5090 C   0  0  0  0  0  2  0  0  0  0  0  0
  -30.4850  -21.2440   20.4540 C   0  0  0  0  0  3  0  0  0  0  0  0
  -30.1040  -24.1250   21.1330 N   0  0  1  0  0  4  0  0  0  0  0  0
  -29.4840  -24.0640   21.9290 H   0  0  0  0  0  0  0  0  0  0  0  0
  -31.0980  -18.9170   19.6320 C   0  0  0  0  0  3  0  0  0  0  0  0
  -29.5680  -19.0780   21.5100 C   0  0  0  0  0  3  0  0  0  0  0  0
  -31.0330  -17.5100   19.6960 C   0  0  0  0  0  3  0  0  0  0  0  0
  -29.5060  -17.6670   21.5750 C   0  0  0  0  0  3  0  0  0  0  0  0
  -30.3680  -19.7180   20.5370 C   0  0  0  0  0  0  0  0  0  0  0  0
  -30.2410  -16.8610   20.6750 C   0  0  0  0  0  0  0  0  0  0  0  0
  -30.7500  -14.4650   20.1000 C   0  0  0  0  0  0  0  0  0  0  0  0
  -30.3810  -12.3400   18.9120 C   0  0  0  0  0  2  0  0  0  0  0  0
  -29.3720  -12.5870   17.7730 C   0  0  0  0  0  2  0  0  0  0  0  0
  -27.9250  -12.4350   18.2840 C   0  0  0  0  0  2  0  0  0  0  0  0
  -27.6650  -13.2340   19.5890 C   0  0  0  0  0  3  0  0  0  0  0  0
  -28.7810  -12.9740   20.6250 C   0  0  0  0  0  2  0  0  0  0  0  0
  -30.0750  -13.2900   19.9930 N   0  0  0  0  0  0  0  0  0  0  0  0
  -31.8390  -14.6530   19.5490 O   0  0  0  0  0  0  0  0  0  0  0  0
  -30.1020  -15.4380   20.7740 N   0  0  0  0  0  0  0  0  0  0  0  0
  -29.3030  -15.1150   21.2980 H   0  0  0  0  0  0  0  0  0  0  0  0
  -25.3130  -13.8170   20.4570 C   0  0  0  0  0  0  0  0  0  0  0  0
  -24.2670  -13.0320   20.8660 C   0  0  0  0  0  0  0  0  0  0  0  0
  -24.7250  -11.6820   20.7660 C   0  0  0  0  0  0  0  0  0  0  0  0
  -26.3410  -12.9440   20.1380 N   0  0  0  0  0  0  0  0  0  0  0  0
  -25.9930  -11.6540   20.3780 N   0  0  0  0  0  0  0  0  0  0  0  0
  -24.0110  -10.4140   20.9610 C   0  0  0  0  0  0  0  0  0  0  0  0
  -24.4570   -9.4520   21.8930 C   0  0  0  0  0  3  0  0  0  0  0  0
  -23.7440   -8.2470   22.0750 C   0  0  0  0  0  3  0  0  0  0  0  0
  -22.5700   -7.9980   21.3260 C   0  0  0  0  0  0  0  0  0  0  0  0
  -22.1430   -8.9490   20.3820 C   0  0  0  0  0  3  0  0  0  0  0  0
  -22.8580  -10.1440   20.1980 C   0  0  0  0  0  3  0  0  0  0  0  0
  -21.8270   -6.8450   21.4170 O   0  0  0  0  0  0  0  0  0  0  0  0
  -21.7270   -6.1450   22.5930 C   0  0  0  0  0  0  0  0  0  0  0  0
  -21.2180   -6.7350   23.7700 C   0  0  0  0  0  3  0  0  0  0  0  0
  -21.0680   -5.9590   24.9380 C   0  0  0  0  0  3  0  0  0  0  0  0
  -21.4150   -4.5950   24.9270 C   0  0  0  0  0  0  0  0  0  0  0  0
  -21.9160   -4.0040   23.7530 C   0  0  0  0  0  3  0  0  0  0  0  0
  -22.0690   -4.7770   22.5890 C   0  0  0  0  0  0  0  0  0  0  0  0
  -22.5320   -4.1990   21.4550 F   0  0  0  0  0  0  0  0  0  0  0  0
  -21.2640   -3.8470   26.0440 F   0  0  0  0  0  0  0  0  0  0  0  0
  -22.8900  -13.4990   21.2390 C   0  0  0  0  0  0  0  0  0  0  0  0
  -22.2180  -12.7770   22.1280 N   0  0  0  0  0  0  0  0  0  0  0  0
  -22.4200  -14.5380   20.7770 O   0  0  0  0  0  0  0  0  0  0  0  0
  -22.6120  -11.9360   22.5230 H   0  0  0  0  0  0  0  0  0  0  0  0
  -21.2960  -13.0690   22.4190 H   0  0  0  0  0  0  0  0  0  0  0  0
  -25.4690  -15.1920   20.3140 N   0  0  0  0  0  0  0  0  0  0  0  0
  -24.7110  -15.8440   20.4880 H   0  0  0  0  0  0  0  0  0  0  0  0
  -26.3030  -15.6410   19.9580 H   0  0  0  0  0  0  0  0  0  0  0  0
  -30.4090  -25.5760   20.9200 C   0  0  0  0  0  2  0  0  0  0  0  0
  -29.2210  -26.5450   21.1160 C   0  0  0  0  0  2  0  0  0  0  0  0
  -28.4430  -26.6450   19.9250 O   0  0  0  0  0  0  0  0  0  0  0  0
  -24.5860  -31.7560   23.1370 C   0  0  0  0  0  0  0  0  0  0  0  0
  -27.2990  -27.4090   19.9950 C   0  0  0  0  0  0  0  0  0  0  0  0
  -23.3970  -30.3620   21.4720 C   0  0  0  0  0  3  0  0  0  0  0  0
  -24.8740  -28.8650   20.0260 C   0  0  0  0  0  0  0  0  0  0  0  0
  -25.9120  -30.7630   21.2770 C   0  0  0  0  0  2  0  0  0  0  0  0
  -26.0190  -29.4000   20.6280 C   0  0  0  0  0  0  0  0  0  0  0  0
  -27.2330  -28.6790   20.6200 C   0  0  0  0  0  3  0  0  0  0  0  0
  -26.1410  -26.8930   19.3790 C   0  0  0  0  0  3  0  0  0  0  0  0
  -24.9280  -27.6070   19.4010 C   0  0  0  0  0  3  0  0  0  0  0  0
  -23.6150  -29.7030   20.0830 C   0  0  0  0  0  2  0  0  0  0  0  0
  -24.6500  -30.9750   22.0210 N   0  0  0  0  0  0  0  0  0  0  0  0
  -23.5030  -32.0050   23.6840 O   0  0  0  0  0  0  0  0  0  0  0  0
  -22.7610  -29.3190   22.4180 C   0  0  0  0  0  0  0  0  0  0  0  0
  -21.4370  -29.1290   22.2960 N   0  0  0  0  0  0  0  0  0  0  0  0
  -23.4550  -28.6830   23.2150 O   0  0  0  0  0  0  0  0  0  0  0  0
  -20.9380  -29.6950   21.6240 H   0  0  0  0  0  0  0  0  0  0  0  0
  -18.0740  -27.9070   22.7910 C   0  0  0  0  0  0  0  0  0  0  0  0
  -20.6320  -28.1710   23.0530 C   0  0  0  0  0  3  0  0  0  0  0  0
  -20.7380  -26.7530   22.4450 C   0  0  0  0  0  2  0  0  0  0  0  0
  -19.6320  -26.4470   21.4320 C   0  0  0  0  0  2  0  0  0  0  0  0
  -18.2540  -26.5720   22.0880 C   0  0  0  0  0  2  0  0  0  0  0  0
  -19.1910  -28.6640   23.2310 C   0  0  0  0  0  0  0  0  0  0  0  0
  -18.9720  -29.9150   23.8470 C   0  0  0  0  0  3  0  0  0  0  0  0
  -17.6660  -30.4080   24.0310 C   0  0  0  0  0  3  0  0  0  0  0  0
  -16.5620  -29.6460   23.6090 C   0  0  0  0  0  3  0  0  0  0  0  0
  -16.7670  -28.3970   22.9950 C   0  0  0  0  0  3  0  0  0  0  0  0
  -25.8660  -32.3920   23.7640 C   0  0  0  0  0  3  0  0  0  0  0  0
  -26.4090  -31.5940   25.0130 C   0  0  1  0  0  0  0  0  0  0  0  0
  -25.3310  -31.3070   26.0840 C   0  0  0  0  0  1  0  0  0  0  0  0
  -27.0130  -30.2390   24.5740 C   0  0  0  0  0  1  0  0  0  0  0  0
  -27.5520  -32.3900   25.6860 C   0  0  0  0  0  1  0  0  0  0  0  0
  -25.5380  -33.7750   24.1320 N   0  0  0  0  0  0  0  0  0  0  0  0
  -25.8370  -34.8500   23.3910 C   0  0  0  0  0  0  0  0  0  0  0  0
  -26.4910  -34.7820   22.3450 O   0  0  0  0  0  0  0  0  0  0  0  0
  -24.9530  -33.9010   24.9450 H   0  0  0  0  0  0  0  0  0  0  0  0
  -24.0640  -36.6110   23.1050 C   0  0  0  0  0  1  0  0  0  0  0  0
  -25.3280  -36.2170   23.8860 C   0  0  0  0  0  3  0  0  0  0  0  0
  -27.4610  -37.1290   24.6930 C   0  0  0  0  0  1  0  0  0  0  0  0
  -26.3360  -37.2950   23.7770 N   0  0  0  0  0  0  0  0  0  0  0  0
  -25.9130  -38.2010   23.9580 H   0  0  0  0  0  0  0  0  0  0  0  0
  1  5  1  0
  3  1  1  0
  3  6  1  0
  4  2  1  0
  5 12  1  0
  5  2  1  0
  6  4  1  0
  6  7  1  1
  8 10  2  0
  8 12  1  0
  9 11  1  0
 10 13  1  0
 12  9  2  0
 13 22  1  0
 13 11  2  0
 14 22  1  0
 15 20  1  0
 16 17  1  0
 16 15  1  0
 18 17  1  0
 18 27  1  0
 18 19  1  0
 20 14  1  0
 20 19  1  0
 21 14  2  0
 22 23  1  0
 24 25  2  0
 25 44  1  0
 26 25  1  0
 26 29  1  0
 27 28  1  0
 27 24  1  0
 28 26  2  0
 29 30  1  0
 30 31  2  0
 32 35  1  0
 32 31  1  0
 33 32  2  0
 34 33  1  0
 34 29  2  0
 35 36  1  0
 36 37  1  0
 37 38  2  0
 39 38  1  0
 39 43  1  0
 40 39  2  0
 41 36  2  0
 41 40  1  0
 42 41  1  0
 44 45  1  0
 45 48  1  0
 45 47  1  0
 46 44  2  0
 49 24  1  0
 49 50  1  0
 51 49  1  0
 52 53  1  0
 52  6  1  0
 54 56  1  0
 54 53  1  0
 55 66  2  0
 56 61  1  0
 57 65  1  0
 57 67  1  0
 58 64  1  0
 58 60  1  0
 59 65  1  0
 60 59  1  0
 61 60  2  0
 62 63  1  0
 62 56  2  0
 63 58  2  0
 64 57  1  0
 65 55  1  0
 67 69  2  0
 68 67  1  0
 70 68  1  0
 71 80  2  0
 71 76  1  0
 72 68  1  0
 72 76  1  0
 73 72  1  0
 74 75  1  0
 74 73  1  0
 75 71  1  0
 76 77  2  0
 77 78  1  0
 79 78  2  0
 80 79  1  0
 81 55  1  0
 81 86  1  0
 81 82  1  0
 82 85  1  1
 82 83  1  0
 84 82  1  0
 86 89  1  0
 87 91  1  0
 87 86  1  0
 88 87  2  0
 91 90  1  0
 93 91  1  0
 93 94  1  0
 93 92  1  0
M  ISO  4  14 100  22 100  53 101  54 101
M  END
>  <TORSDO>  (87) 
F 19

>  <SCORE>  (87) 
-13.133

>  <name>  (87) 
86

>  <ligand_id>  (87) 
86

>  <original_smiles>  (87) 
[H]c1c([H])c([H])c2c(c1[H])C([H])([H])C([H])([H])C([H])([H])C2([H])N([H])C(=O)C1([H])N(C(=O)C([H])(N([H])C(=O)C([H])(N([H])C([H])([H])[H])C([H])([H])[H])C(C([H])([H])[H])(C([H])([H])[H])C([H])([H])[H])C([H])([H])c2c([H])c(OC([H])([H])C([H])([H])[N+]3([H])C([H])([H])C([H])([H])C([H])(c4c([H])c([H])c(N([H])C(=O)N5C([H])([H])C([H])([H])C([H])([H])C([H])(n6nc(-c7c([H])c([H])c(Oc8c([H])c([H])c(F)c([H])c8F)c([H])c7[H])c(C(=O)N([H])[H])c6N([H])[H])C5([H])[H])c([H])c4[H])C([H])([H])C3([H])[H])c([H])c([H])c2C1([H])[H]

>  <smiles>  (87) 
[H]c1c([H])c([H])c2c(c1[H])C([H])([H])C([H])([H])C([H])([H])C2([H])N([H])C(=O)C1([H])N(C(=O)C([H])(N([H])C(=O)C([H])(N([H])C([H])([H])[H])C([H])([H])[H])C(C([H])([H])[H])(C([H])([H])[H])C([H])([H])[H])C([H])([H])c2c([H])c(OC([H])([H])C([H])([H])[N+]3([H])C([H])([H])C([H])([H])C([H])(c4c([H])c([H])c(N([H])C(=O)N5C([H])([H])C([H])([H])C([H])([H])C([H])(n6nc(-c7c([H])c([H])c(Oc8c([H])c([H])c(F)c([H])c8F)c([H])c7[H])c(C(=O)N([H])[H])c6N([H])[H])C5([H])[H])c([H])c4[H])C([H])([H])C3([H])[H])c([H])c([H])c2C1([H])[H]

$$$$
87:0:0
     RDKit          3D

 94102  0  0  1  0  0  0  0  0999 V2000
  -26.0410  -20.7650   18.4990 C   0  0  0  0  0  1  0  0  0  0  0  0
  -27.5460  -21.0920   18.4620 C   0  0  0  0  0  3  0  0  0  0  0  0
  -28.9750  -19.1640   21.4880 C   0  0  0  0  0  3  0  0  0  0  0  0
  -29.6850  -18.1220   20.8580 C   0  0  0  0  0  3  0  0  0  0  0  0
  -28.3150  -20.1440   20.7200 C   0  0  0  0  0  3  0  0  0  0  0  0
  -29.0850  -19.0500   18.6850 C   0  0  0  0  0  3  0  0  0  0  0  0
  -29.7490  -18.0590   19.4490 C   0  0  0  0  0  0  0  0  0  0  0  0
  -28.3530  -20.0920   19.3070 C   0  0  0  0  0  0  0  0  0  0  0  0
  -30.5410  -16.9460   18.7630 C   0  0  0  0  0  2  0  0  0  0  0  0
  -31.2390  -14.6050   19.2800 C   0  0  0  0  0  0  0  0  0  0  0  0
  -31.1410  -12.1710   18.9420 C   0  0  0  0  0  2  0  0  0  0  0  0
  -30.1380  -11.8790   17.8070 C   0  0  0  0  0  2  0  0  0  0  0  0
  -28.6970  -11.7860   18.3560 C   0  0  0  0  0  2  0  0  0  0  0  0
  -28.3260  -12.9760   19.2830 C   0  0  0  0  0  3  0  0  0  0  0  0
  -29.4360  -13.2060   20.3340 C   0  0  0  0  0  2  0  0  0  0  0  0
  -30.7050  -13.4020   19.6150 N   0  0  0  0  0  0  0  0  0  0  0  0
  -32.3350  -14.7340   18.7300 O   0  0  0  0  0  0  0  0  0  0  0  0
  -30.3880  -15.6350   19.4010 N   0  0  0  0  0  0  0  0  0  0  0  0
  -29.4970  -15.4360   19.8280 H   0  0  0  0  0  0  0  0  0  0  0  0
  -26.0940  -13.7230   20.3270 C   0  0  0  0  0  0  0  0  0  0  0  0
  -25.0130  -13.0140   20.7760 C   0  0  0  0  0  0  0  0  0  0  0  0
  -25.3450  -11.6350   20.6020 C   0  0  0  0  0  0  0  0  0  0  0  0
  -27.0210  -12.7800   19.9100 N   0  0  0  0  0  0  0  0  0  0  0  0
  -26.5800  -11.5150   20.1320 N   0  0  0  0  0  0  0  0  0  0  0  0
  -24.5390  -10.4230   20.7990 C   0  0  0  0  0  0  0  0  0  0  0  0
  -24.8950   -9.4480   21.7580 C   0  0  0  0  0  3  0  0  0  0  0  0
  -24.0940   -8.3010   21.9420 C   0  0  0  0  0  3  0  0  0  0  0  0
  -22.9240   -8.1200   21.1660 C   0  0  0  0  0  0  0  0  0  0  0  0
  -22.5870   -9.0830   20.1980 C   0  0  0  0  0  3  0  0  0  0  0  0
  -23.3880  -10.2210   20.0120 C   0  0  0  0  0  3  0  0  0  0  0  0
  -22.0990   -7.0250   21.2580 O   0  0  0  0  0  0  0  0  0  0  0  0
  -21.8860   -6.3820   22.4510 C   0  0  0  0  0  0  0  0  0  0  0  0
  -21.3280   -7.0470   23.5660 C   0  0  0  0  0  3  0  0  0  0  0  0
  -21.0620   -6.3310   24.7510 C   0  0  0  0  0  3  0  0  0  0  0  0
  -21.3430   -4.9530   24.8200 C   0  0  0  0  0  0  0  0  0  0  0  0
  -21.8930   -4.2890   23.7090 C   0  0  0  0  0  3  0  0  0  0  0  0
  -22.1610   -5.0020   22.5280 C   0  0  0  0  0  0  0  0  0  0  0  0
  -22.6720   -4.3540   21.4530 F   0  0  0  0  0  0  0  0  0  0  0  0
  -21.0800   -4.2630   25.9540 F   0  0  0  0  0  0  0  0  0  0  0  0
  -23.7050  -13.5790   21.2530 C   0  0  0  0  0  0  0  0  0  0  0  0
  -23.0440  -12.8960   22.1800 N   0  0  0  0  0  0  0  0  0  0  0  0
  -23.2870  -14.6600   20.8390 O   0  0  0  0  0  0  0  0  0  0  0  0
  -23.3970  -12.0200   22.5380 H   0  0  0  0  0  0  0  0  0  0  0  0
  -22.1720  -13.2550   22.5410 H   0  0  0  0  0  0  0  0  0  0  0  0
  -26.3610  -15.0850   20.2210 N   0  0  0  0  0  0  0  0  0  0  0  0
  -25.6910  -15.7940   20.4990 H   0  0  0  0  0  0  0  0  0  0  0  0
  -27.2200  -15.4790   19.8600 H   0  0  0  0  0  0  0  0  0  0  0  0
  -27.7600  -22.5100   18.8550 N   0  0  0  0  0  4  0  0  0  0  0  0
  -26.8770  -22.9680   18.7150 H   0  0  0  0  0  0  0  0  0  0  0  0
  -27.9740  -22.5560   19.8380 H   0  0  0  0  0  0  0  0  0  0  0  0
  -28.7800  -23.2740   18.0880 C   0  0  0  0  0  2  0  0  0  0  0  0
  -28.4250  -24.7760   17.9220 C   0  0  0  0  0  2  0  0  0  0  0  0
  -28.2790  -25.5850   19.2280 C   0  0  0  0  0  2  0  0  0  0  0  0
  -28.2550  -26.9990   18.9730 O   0  0  0  0  0  0  0  0  0  0  0  0
  -24.3190  -31.4270   22.8980 C   0  0  0  0  0  0  0  0  0  0  0  0
  -27.0430  -27.6390   19.1110 C   0  0  0  0  0  0  0  0  0  0  0  0
  -23.1110  -30.2140   21.1120 C   0  0  0  0  0  3  0  0  0  0  0  0
  -24.5760  -28.9800   19.4250 C   0  0  0  0  0  0  0  0  0  0  0  0
  -25.6010  -30.7450   20.8700 C   0  0  0  0  0  2  0  0  0  0  0  0
  -25.7290  -29.4850   20.0380 C   0  0  0  0  0  0  0  0  0  0  0  0
  -26.9660  -28.8250   19.8740 C   0  0  0  0  0  3  0  0  0  0  0  0
  -25.8740  -27.1440   18.4920 C   0  0  0  0  0  3  0  0  0  0  0  0
  -24.6420  -27.8100   18.6470 C   0  0  0  0  0  3  0  0  0  0  0  0
  -23.2930  -29.7500   19.6400 C   0  0  0  0  0  2  0  0  0  0  0  0
  -24.3650  -30.8010   21.6870 N   0  0  0  0  0  0  0  0  0  0  0  0
  -23.2510  -31.5570   23.5120 O   0  0  0  0  0  0  0  0  0  0  0  0
  -22.5550  -29.0290   21.9360 C   0  0  0  0  0  0  0  0  0  0  0  0
  -21.2300  -28.8210   21.8670 N   0  0  0  0  0  0  0  0  0  0  0  0
  -23.3110  -28.3080   22.5930 O   0  0  0  0  0  0  0  0  0  0  0  0
  -20.6780  -29.4670   21.3230 H   0  0  0  0  0  0  0  0  0  0  0  0
  -17.9350  -27.4200   22.3710 C   0  0  0  0  0  0  0  0  0  0  0  0
  -20.4960  -27.7390   22.5240 C   0  0  0  0  0  3  0  0  0  0  0  0
  -20.6030  -26.4220   21.7200 C   0  0  0  0  0  2  0  0  0  0  0  0
  -19.4460  -26.2130   20.7380 C   0  0  0  0  0  2  0  0  0  0  0  0
  -18.1070  -26.2030   21.4780 C   0  0  0  0  0  2  0  0  0  0  0  0
  -19.0570  -28.1500   22.8480 C   0  0  0  0  0  0  0  0  0  0  0  0
  -18.8400  -29.2960   23.6440 C   0  0  0  0  0  3  0  0  0  0  0  0
  -17.5350  -29.7160   23.9620 C   0  0  0  0  0  3  0  0  0  0  0  0
  -16.4300  -28.9820   23.4990 C   0  0  0  0  0  3  0  0  0  0  0  0
  -16.6320  -27.8350   22.7110 C   0  0  0  0  0  3  0  0  0  0  0  0
  -25.5990  -32.0320   23.5550 C   0  0  0  0  0  3  0  0  0  0  0  0
  -25.2420  -33.3590   24.0730 N   0  0  0  0  0  0  0  0  0  0  0  0
  -25.5150  -34.5150   23.4520 C   0  0  0  0  0  0  0  0  0  0  0  0
  -26.1650  -34.5750   22.4050 O   0  0  0  0  0  0  0  0  0  0  0  0
  -24.6580  -33.3820   24.8960 H   0  0  0  0  0  0  0  0  0  0  0  0
  -23.7080  -36.2620   23.3670 C   0  0  0  0  0  1  0  0  0  0  0  0
  -24.9830  -35.8090   24.0970 C   0  0  0  0  0  3  0  0  0  0  0  0
  -27.0970  -36.6750   24.9990 C   0  0  0  0  0  1  0  0  0  0  0  0
  -25.9680  -36.9110   24.1020 N   0  0  0  0  0  0  0  0  0  0  0  0
  -25.5290  -37.7870   24.3720 H   0  0  0  0  0  0  0  0  0  0  0  0
  -26.2000  -31.1280   24.7000 C   0  0  1  0  0  0  0  0  0  0  0  0
  -25.1650  -30.7180   25.7750 C   0  0  0  0  0  1  0  0  0  0  0  0
  -26.8050  -29.8330   24.1110 C   0  0  0  0  0  1  0  0  0  0  0  0
  -27.3550  -31.8740   25.4090 C   0  0  0  0  0  1  0  0  0  0  0  0
  2  1  1  0
  2 48  1  0
  2  8  1  0
  4  3  1  0
  5  3  2  0
  6  8  2  0
  6  7  1  0
  7  4  2  0
  8  5  1  0
  9 18  1  0
  9  7  1  0
 10 18  1  0
 10 16  1  0
 11 16  1  0
 12 13  1  0
 12 11  1  0
 14 13  1  0
 14 23  1  0
 14 15  1  0
 16 15  1  0
 17 10  2  0
 18 19  1  0
 20 21  2  0
 21 40  1  0
 22 21  1  0
 22 25  1  0
 23 24  1  0
 23 20  1  0
 24 22  2  0
 25 26  1  0
 26 27  2  0
 28 31  1  0
 28 27  1  0
 29 28  2  0
 30 29  1  0
 30 25  2  0
 31 32  1  0
 32 37  2  0
 32 33  1  0
 33 34  2  0
 34 35  1  0
 35 39  1  0
 36 35  2  0
 37 36  1  0
 38 37  1  0
 40 41  1  0
 41 43  1  0
 41 44  1  0
 42 40  2  0
 45 20  1  0
 45 46  1  0
 47 45  1  0
 48 50  1  0
 49 48  1  0
 51 48  1  0
 52 51  1  0
 52 53  1  0
 54 56  1  0
 54 53  1  0
 55 66  2  0
 56 61  1  0
 57 65  1  0
 57 67  1  0
 58 64  1  0
 58 60  1  0
 59 65  1  0
 60 59  1  0
 61 60  2  0
 62 63  1  0
 62 56  2  0
 63 58  2  0
 64 57  1  0
 65 55  1  0
 67 69  2  0
 68 67  1  0
 70 68  1  0
 71 80  2  0
 71 76  1  0
 72 68  1  0
 72 76  1  0
 73 72  1  0
 74 75  1  0
 74 73  1  0
 75 71  1  0
 76 77  2  0
 77 78  1  0
 79 78  2  0
 80 79  1  0
 81 55  1  0
 81 82  1  0
 81 91  1  0
 82 85  1  0
 83 82  1  0
 83 87  1  0
 84 83  2  0
 87 86  1  0
 87 89  1  0
 89 90  1  0
 89 88  1  0
 91 94  1  1
 91 92  1  0
 93 91  1  0
M  ISO  4  10 100  18 100  53 101  54 101
M  END
>  <TORSDO>  (88) 
F 22

>  <SCORE>  (88) 
-9.942

>  <name>  (88) 
87

>  <ligand_id>  (88) 
87

>  <original_smiles>  (88) 
[H]c1c([H])c([H])c2c(c1[H])C([H])([H])C([H])([H])C([H])([H])C2([H])N([H])C(=O)C1([H])N(C(=O)C([H])(N([H])C(=O)C([H])(N([H])C([H])([H])[H])C([H])([H])[H])C(C([H])([H])[H])(C([H])([H])[H])C([H])([H])[H])C([H])([H])c2c([H])c(OC([H])([H])C([H])([H])C([H])([H])[N+]([H])([H])C([H])(c3c([H])c([H])c([H])c(C([H])([H])N([H])C(=O)N4C([H])([H])C([H])([H])C([H])([H])C([H])(n5nc(-c6c([H])c([H])c(Oc7c([H])c([H])c(F)c([H])c7F)c([H])c6[H])c(C(=O)N([H])[H])c5N([H])[H])C4([H])[H])c3[H])C([H])([H])[H])c([H])c([H])c2C1([H])[H]

>  <smiles>  (88) 
[H]c1c([H])c([H])c2c(c1[H])C([H])([H])C([H])([H])C([H])([H])C2([H])N([H])C(=O)C1([H])N(C(=O)C([H])(N([H])C(=O)C([H])(N([H])C([H])([H])[H])C([H])([H])[H])C(C([H])([H])[H])(C([H])([H])[H])C([H])([H])[H])C([H])([H])c2c([H])c(OC([H])([H])C([H])([H])C([H])([H])[N+]([H])([H])C([H])(c3c([H])c([H])c([H])c(C([H])([H])N([H])C(=O)N4C([H])([H])C([H])([H])C([H])([H])C([H])(n5nc(-c6c([H])c([H])c(Oc7c([H])c([H])c(F)c([H])c7F)c([H])c6[H])c(C(=O)N([H])[H])c5N([H])[H])C4([H])[H])c3[H])C([H])([H])[H])c([H])c([H])c2C1([H])[H]

$$$$
88:0:0
     RDKit          3D

 86 94  0  0  1  0  0  0  0  0999 V2000
  -29.1870  -21.3180   21.2240 C   0  0  0  0  0  3  0  0  0  0  0  0
  -28.3800  -21.1180   19.1690 C   0  0  0  0  0  3  0  0  0  0  0  0
  -29.5320  -19.8170   21.2250 C   0  0  0  0  0  3  0  0  0  0  0  0
  -28.7130  -19.6270   19.1720 C   0  0  0  0  0  3  0  0  0  0  0  0
  -28.5590  -22.1940   20.1860 C   0  0  0  0  0  0  0  0  0  0  0  0
  -29.3450  -18.7470   20.1930 C   0  0  0  0  0  0  0  0  0  0  0  0
  -30.2600  -15.7190   20.1520 C   0  0  0  0  0  0  0  0  0  0  0  0
  -30.3680  -13.1860   19.3140 C   0  0  0  0  0  2  0  0  0  0  0  0
  -29.4450  -12.7990   18.1230 C   0  0  0  0  0  2  0  0  0  0  0  0
  -28.0320  -12.4420   18.6110 C   0  0  0  0  0  2  0  0  0  0  0  0
  -27.5460  -13.4280   19.6970 C   0  0  0  0  0  3  0  0  0  0  0  0
  -28.6050  -13.7230   20.7850 C   0  0  0  0  0  2  0  0  0  0  0  0
  -29.7610  -14.3480   20.1030 N   0  0  0  0  0  0  0  0  0  0  0  0
  -31.4880  -15.6960   19.9420 O   0  0  0  0  0  0  0  0  0  0  0  0
  -29.4300  -17.0280   20.2420 N   0  0  0  0  0  0  0  0  0  0  0  0
  -28.4830  -16.6860   20.3090 H   0  0  0  0  0  0  0  0  0  0  0  0
  -25.2060  -13.9340   20.5460 C   0  0  0  0  0  0  0  0  0  0  0  0
  -24.1600  -13.1410   20.9260 C   0  0  0  0  0  0  0  0  0  0  0  0
  -24.6350  -11.7950   20.8480 C   0  0  0  0  0  0  0  0  0  0  0  0
  -26.2460  -13.0750   20.2480 N   0  0  0  0  0  0  0  0  0  0  0  0
  -25.9180  -11.7780   20.4970 N   0  0  0  0  0  0  0  0  0  0  0  0
  -23.9180  -10.5250   21.0260 C   0  0  0  0  0  0  0  0  0  0  0  0
  -24.3490   -9.5550   21.9580 C   0  0  0  0  0  3  0  0  0  0  0  0
  -23.6270   -8.3540   22.1270 C   0  0  0  0  0  3  0  0  0  0  0  0
  -22.4590   -8.1140   21.3660 C   0  0  0  0  0  0  0  0  0  0  0  0
  -22.0470   -9.0720   20.4240 C   0  0  0  0  0  3  0  0  0  0  0  0
  -22.7690  -10.2640   20.2520 C   0  0  0  0  0  3  0  0  0  0  0  0
  -21.7100   -6.9650   21.4440 O   0  0  0  0  0  0  0  0  0  0  0  0
  -21.6210   -6.2410   22.6070 C   0  0  0  0  0  0  0  0  0  0  0  0
  -21.1120   -6.8040   23.7970 C   0  0  0  0  0  3  0  0  0  0  0  0
  -20.9720   -6.0060   24.9500 C   0  0  0  0  0  3  0  0  0  0  0  0
  -21.3310   -4.6460   24.9130 C   0  0  0  0  0  0  0  0  0  0  0  0
  -21.8340   -4.0820   23.7270 C   0  0  0  0  0  3  0  0  0  0  0  0
  -21.9740   -4.8770   22.5770 C   0  0  0  0  0  0  0  0  0  0  0  0
  -22.4380   -4.3230   21.4310 F   0  0  0  0  0  0  0  0  0  0  0  0
  -21.1910   -3.8770   26.0190 F   0  0  0  0  0  0  0  0  0  0  0  0
  -22.7690  -13.6060   21.2420 C   0  0  0  0  0  0  0  0  0  0  0  0
  -22.0680  -12.8890   22.1130 N   0  0  0  0  0  0  0  0  0  0  0  0
  -22.3150  -14.6380   20.7530 O   0  0  0  0  0  0  0  0  0  0  0  0
  -22.4500  -12.0540   22.5310 H   0  0  0  0  0  0  0  0  0  0  0  0
  -21.1340  -13.1820   22.3670 H   0  0  0  0  0  0  0  0  0  0  0  0
  -25.3510  -15.3100   20.3950 N   0  0  0  0  0  0  0  0  0  0  0  0
  -24.5750  -15.9490   20.5370 H   0  0  0  0  0  0  0  0  0  0  0  0
  -26.1650  -15.7610   20.0010 H   0  0  0  0  0  0  0  0  0  0  0  0
  -27.7930  -23.9010   20.1770 C   0  0  0  0  0  2  0  0  0  0  0  0
  -28.1150  -25.6130   20.3110 O   0  0  0  0  0  0  0  0  0  0  0  0
  -24.6620  -31.9150   23.2510 C   0  0  0  0  0  0  0  0  0  0  0  0
  -27.1570  -26.8350   20.2600 C   0  0  0  0  0  0  0  0  0  0  0  0
  -23.4600  -30.5190   21.6230 C   0  0  0  0  0  3  0  0  0  0  0  0
  -24.8950  -28.8660   20.2080 C   0  0  0  0  0  0  0  0  0  0  0  0
  -26.0380  -30.6560   21.4870 C   0  0  0  0  0  2  0  0  0  0  0  0
  -26.0950  -29.2230   20.8340 C   0  0  0  0  0  0  0  0  0  0  0  0
  -27.2120  -28.2350   20.8280 C   0  0  0  0  0  3  0  0  0  0  0  0
  -25.9230  -26.6850   19.5790 C   0  0  0  0  0  3  0  0  0  0  0  0
  -24.8460  -27.6220   19.5560 C   0  0  0  0  0  3  0  0  0  0  0  0
  -23.6900  -29.8190   20.2540 C   0  0  0  0  0  2  0  0  0  0  0  0
  -24.7450  -31.0630   22.1720 N   0  0  0  0  0  0  0  0  0  0  0  0
  -23.5730  -32.2210   23.7660 O   0  0  0  0  0  0  0  0  0  0  0  0
  -22.7450  -29.5460   22.5990 C   0  0  0  0  0  0  0  0  0  0  0  0
  -21.4140  -29.3860   22.4710 N   0  0  0  0  0  0  0  0  0  0  0  0
  -23.4000  -28.9330   23.4470 O   0  0  0  0  0  0  0  0  0  0  0  0
  -20.9350  -29.9310   21.7680 H   0  0  0  0  0  0  0  0  0  0  0  0
  -18.0320  -28.1550   22.9720 C   0  0  0  0  0  0  0  0  0  0  0  0
  -20.5870  -28.4540   23.2490 C   0  0  0  0  0  3  0  0  0  0  0  0
  -20.7060  -27.0130   22.6990 C   0  0  0  0  0  2  0  0  0  0  0  0
  -19.6170  -26.6650   21.6810 C   0  0  0  0  0  2  0  0  0  0  0  0
  -18.2280  -26.8010   22.3110 C   0  0  0  0  0  2  0  0  0  0  0  0
  -19.1380  -28.9370   23.3980 C   0  0  0  0  0  0  0  0  0  0  0  0
  -18.8970  -30.2000   23.9820 C   0  0  0  0  0  3  0  0  0  0  0  0
  -17.5830  -30.6820   24.1390 C   0  0  0  0  0  3  0  0  0  0  0  0
  -16.4920  -29.8990   23.7250 C   0  0  0  0  0  3  0  0  0  0  0  0
  -16.7170  -28.6360   23.1490 C   0  0  0  0  0  3  0  0  0  0  0  0
  -25.9320  -32.5610   23.8830 C   0  0  0  0  0  3  0  0  0  0  0  0
  -25.6160  -33.9640   24.2200 N   0  0  0  0  0  0  0  0  0  0  0  0
  -25.9160  -35.0270   23.4620 C   0  0  0  0  0  0  0  0  0  0  0  0
  -26.5470  -34.9310   22.4070 O   0  0  0  0  0  0  0  0  0  0  0  0
  -25.0470  -34.1100   25.0410 H   0  0  0  0  0  0  0  0  0  0  0  0
  -24.1590  -36.8170   23.2140 C   0  0  0  0  0  1  0  0  0  0  0  0
  -25.4490  -36.4160   23.9480 C   0  0  0  0  0  3  0  0  0  0  0  0
  -27.6160  -37.3300   24.6580 C   0  0  0  0  0  1  0  0  0  0  0  0
  -26.4640  -37.4780   23.7730 N   0  0  0  0  0  0  0  0  0  0  0  0
  -26.0580  -38.3960   23.9330 H   0  0  0  0  0  0  0  0  0  0  0  0
  -26.4320  -31.8030   25.1750 C   0  0  1  0  0  0  0  0  0  0  0  0
  -25.3290  -31.5820   26.2370 C   0  0  0  0  0  1  0  0  0  0  0  0
  -27.0120  -30.4160   24.8140 C   0  0  0  0  0  1  0  0  0  0  0  0
  -27.5810  -32.5990   25.8380 C   0  0  0  0  0  1  0  0  0  0  0  0
  1  3  1  0
  2  4  2  0
  2  5  1  0
  4  6  1  0
  5  1  2  0
  6 15  1  0
  6  3  2  0
  7 15  1  0
  8 13  1  0
  9 10  1  0
  9  8  1  0
 11 10  1  0
 11 20  1  0
 11 12  1  0
 13  7  1  0
 13 12  1  0
 14  7  2  0
 15 16  1  0
 17 18  2  0
 18 37  1  0
 19 18  1  0
 19 22  1  0
 20 21  1  0
 20 17  1  0
 21 19  2  0
 22 23  1  0
 23 24  2  0
 25 28  1  0
 25 24  1  0
 26 25  2  0
 27 26  1  0
 27 22  2  0
 28 29  1  0
 29 30  1  0
 30 31  2  0
 32 31  1  0
 32 36  1  0
 33 32  2  0
 34 29  2  0
 34 33  1  0
 35 34  1  0
 37 38  1  0
 38 41  1  0
 38 40  1  0
 39 37  2  0
 42 43  1  0
 42 17  1  0
 44 42  1  0
 45  5  1  0
 45 46  1  0
 47 58  2  0
 48 46  1  0
 48 53  1  0
 49 57  1  0
 49 59  1  0
 50 56  1  0
 50 52  1  0
 51 57  1  0
 52 51  1  0
 53 52  2  0
 54 48  2  0
 55 54  1  0
 55 50  2  0
 56 49  1  0
 57 47  1  0
 59 61  2  0
 60 59  1  0
 62 60  1  0
 63 72  2  0
 63 68  1  0
 64 60  1  0
 64 68  1  0
 65 64  1  0
 66 67  1  0
 66 65  1  0
 67 63  1  0
 68 69  2  0
 69 70  1  0
 71 70  2  0
 72 71  1  0
 73 47  1  0
 73 74  1  0
 73 83  1  0
 74 77  1  0
 75 79  1  0
 75 74  1  0
 76 75  2  0
 79 78  1  0
 81 82  1  0
 81 79  1  0
 81 80  1  0
 83 86  1  1
 83 84  1  0
 85 83  1  0
M  ISO  4   7 100  15 100  45 101  46 101
M  END
>  <TORSDO>  (89) 
F 17

>  <SCORE>  (89) 
-16.448

>  <name>  (89) 
88

>  <ligand_id>  (89) 
88

>  <original_smiles>  (89) 
[H]c1c([H])c([H])c2c(c1[H])C([H])([H])C([H])([H])C([H])([H])C2([H])N([H])C(=O)C1([H])N(C(=O)C([H])(N([H])C(=O)C([H])(N([H])C([H])([H])[H])C([H])([H])[H])C(C([H])([H])[H])(C([H])([H])[H])C([H])([H])[H])C([H])([H])c2c([H])c(OC([H])([H])c3c([H])c([H])c(N([H])C(=O)N4C([H])([H])C([H])([H])C([H])([H])C([H])(n5nc(-c6c([H])c([H])c(Oc7c([H])c([H])c(F)c([H])c7F)c([H])c6[H])c(C(=O)N([H])[H])c5N([H])[H])C4([H])[H])c([H])c3[H])c([H])c([H])c2C1([H])[H]

>  <smiles>  (89) 
[H]c1c([H])c([H])c2c(c1[H])C([H])([H])C([H])([H])C([H])([H])C2([H])N([H])C(=O)C1([H])N(C(=O)C([H])(N([H])C(=O)C([H])(N([H])C([H])([H])[H])C([H])([H])[H])C(C([H])([H])[H])(C([H])([H])[H])C([H])([H])[H])C([H])([H])c2c([H])c(OC([H])([H])c3c([H])c([H])c(N([H])C(=O)N4C([H])([H])C([H])([H])C([H])([H])C([H])(n5nc(-c6c([H])c([H])c(Oc7c([H])c([H])c(F)c([H])c7F)c([H])c6[H])c(C(=O)N([H])[H])c5N([H])[H])C4([H])[H])c([H])c3[H])c([H])c([H])c2C1([H])[H]

$$$$
89:0:0
     RDKit          3D

 93101  0  0  1  0  0  0  0  0999 V2000
  -30.6760  -19.9860   20.5350 C   0  0  0  0  0  3  0  0  0  0  0  0
  -30.7640  -18.5300   20.6040 C   0  0  0  0  0  3  0  0  0  0  0  0
  -28.4050  -19.8590   20.0020 C   0  0  0  0  0  3  0  0  0  0  0  0
  -29.4910  -20.7470   20.2250 C   0  0  0  0  0  0  0  0  0  0  0  0
  -28.4700  -18.4030   20.0320 C   0  0  0  0  0  0  0  0  0  0  0  0
  -29.6670  -17.6340   20.3540 C   0  0  0  0  0  0  0  0  0  0  0  0
  -30.5370  -14.9730   20.3750 C   0  0  0  0  0  0  0  0  0  0  0  0
  -30.4680  -12.6160   19.4430 C   0  0  0  0  0  2  0  0  0  0  0  0
  -29.5280  -12.5690   18.2150 C   0  0  0  0  0  2  0  0  0  0  0  0
  -28.0650  -12.3430   18.6480 C   0  0  0  0  0  2  0  0  0  0  0  0
  -27.6490  -13.2570   19.8310 C   0  0  0  0  0  3  0  0  0  0  0  0
  -28.7120  -13.2680   20.9520 C   0  0  0  0  0  2  0  0  0  0  0  0
  -29.9800  -13.6960   20.3420 N   0  0  0  0  0  0  0  0  0  0  0  0
  -31.7420  -15.0810   20.1200 O   0  0  0  0  0  0  0  0  0  0  0  0
  -29.6640  -16.0900   20.4720 N   0  0  0  0  0  0  0  0  0  0  0  0
  -28.7230  -15.7360   20.5470 H   0  0  0  0  0  0  0  0  0  0  0  0
  -25.2600  -13.8070   20.5790 C   0  0  0  0  0  0  0  0  0  0  0  0
  -24.2010  -13.0280   20.9430 C   0  0  0  0  0  0  0  0  0  0  0  0
  -24.6780  -11.6840   20.9030 C   0  0  0  0  0  0  0  0  0  0  0  0
  -26.3120  -12.9450   20.3270 N   0  0  0  0  0  0  0  0  0  0  0  0
  -25.9690  -11.6570   20.5910 N   0  0  0  0  0  0  0  0  0  0  0  0
  -23.9580  -10.4200   21.0850 C   0  0  0  0  0  0  0  0  0  0  0  0
  -24.3920   -9.4530   22.0170 C   0  0  0  0  0  3  0  0  0  0  0  0
  -23.6710   -8.2540   22.1890 C   0  0  0  0  0  3  0  0  0  0  0  0
  -22.5010   -8.0140   21.4290 C   0  0  0  0  0  0  0  0  0  0  0  0
  -22.0860   -8.9710   20.4860 C   0  0  0  0  0  3  0  0  0  0  0  0
  -22.8100  -10.1620   20.3110 C   0  0  0  0  0  3  0  0  0  0  0  0
  -21.7510   -6.8670   21.5110 O   0  0  0  0  0  0  0  0  0  0  0  0
  -21.6970   -6.1250   22.6630 C   0  0  0  0  0  0  0  0  0  0  0  0
  -21.2420   -6.6730   23.8810 C   0  0  0  0  0  3  0  0  0  0  0  0
  -21.1360   -5.8570   25.0250 C   0  0  0  0  0  3  0  0  0  0  0  0
  -21.4770   -4.4930   24.9500 C   0  0  0  0  0  0  0  0  0  0  0  0
  -21.9270   -3.9440   23.7370 C   0  0  0  0  0  3  0  0  0  0  0  0
  -22.0350   -4.7580   22.5950 C   0  0  0  0  0  0  0  0  0  0  0  0
  -22.4490   -4.2200   21.4230 F   0  0  0  0  0  0  0  0  0  0  0  0
  -21.3680   -3.7050   26.0460 F   0  0  0  0  0  0  0  0  0  0  0  0
  -22.8010  -13.5010   21.2060 C   0  0  0  0  0  0  0  0  0  0  0  0
  -22.0730  -12.8050   22.0720 N   0  0  0  0  0  0  0  0  0  0  0  0
  -22.3610  -14.5240   20.6810 O   0  0  0  0  0  0  0  0  0  0  0  0
  -22.4440  -11.9790   22.5180 H   0  0  0  0  0  0  0  0  0  0  0  0
  -21.1330  -13.1030   22.2930 H   0  0  0  0  0  0  0  0  0  0  0  0
  -25.3890  -15.1730   20.4140 N   0  0  0  0  0  0  0  0  0  0  0  0
  -24.5750  -15.7680   20.5110 H   0  0  0  0  0  0  0  0  0  0  0  0
  -26.1310  -15.6000   19.8610 H   0  0  0  0  0  0  0  0  0  0  0  0
  -27.2160  -17.7120   19.5880 C   0  0  0  0  0  0  0  0  0  0  0  0
  -26.0720  -18.2510   19.9940 N   0  0  0  0  0  0  0  0  0  0  0  0
  -27.2450  -16.6980   18.8960 O   0  0  0  0  0  0  0  0  0  0  0  0
  -26.0810  -19.0640   20.5910 H   0  0  0  0  0  0  0  0  0  0  0  0
  -25.1890  -17.8570   19.7070 H   0  0  0  0  0  0  0  0  0  0  0  0
  -29.4320  -22.3310   20.0020 C   0  0  0  0  0  3  0  0  0  0  0  0
  -28.5120  -23.3870   20.2040 C   0  0  0  0  0  3  0  0  0  0  0  0
  -28.5190  -24.9200   19.6130 C   0  0  0  0  0  2  0  0  0  0  0  0
  -28.3080  -26.2420   20.3770 O   0  0  0  0  0  0  0  0  0  0  0  0
  -24.5820  -31.8620   23.2390 C   0  0  0  0  0  0  0  0  0  0  0  0
  -27.2180  -27.1720   20.2360 C   0  0  0  0  0  0  0  0  0  0  0  0
  -23.3970  -30.4540   21.5960 C   0  0  0  0  0  3  0  0  0  0  0  0
  -24.8630  -28.8770   20.1860 C   0  0  0  0  0  0  0  0  0  0  0  0
  -25.9480  -30.7340   21.4470 C   0  0  0  0  0  2  0  0  0  0  0  0
  -26.0310  -29.3410   20.8020 C   0  0  0  0  0  0  0  0  0  0  0  0
  -27.2010  -28.5000   20.8180 C   0  0  0  0  0  3  0  0  0  0  0  0
  -26.0210  -26.7950   19.5880 C   0  0  0  0  0  3  0  0  0  0  0  0
  -24.8690  -27.6160   19.5670 C   0  0  0  0  0  3  0  0  0  0  0  0
  -23.6290  -29.7660   20.2230 C   0  0  0  0  0  2  0  0  0  0  0  0
  -24.6610  -31.0390   22.1500 N   0  0  0  0  0  0  0  0  0  0  0  0
  -23.4930  -32.1480   23.7590 O   0  0  0  0  0  0  0  0  0  0  0  0
  -22.7140  -29.4520   22.5600 C   0  0  0  0  0  0  0  0  0  0  0  0
  -21.3840  -29.2910   22.4340 N   0  0  0  0  0  0  0  0  0  0  0  0
  -23.3820  -28.8220   23.3830 O   0  0  0  0  0  0  0  0  0  0  0  0
  -20.9030  -29.8510   21.7440 H   0  0  0  0  0  0  0  0  0  0  0  0
  -17.9930  -28.1310   22.9490 C   0  0  0  0  0  0  0  0  0  0  0  0
  -20.5560  -28.3610   23.2050 C   0  0  0  0  0  3  0  0  0  0  0  0
  -20.6370  -26.9310   22.6250 C   0  0  0  0  0  2  0  0  0  0  0  0
  -19.5270  -26.6250   21.6140 C   0  0  0  0  0  2  0  0  0  0  0  0
  -18.1510  -26.7840   22.2650 C   0  0  0  0  0  2  0  0  0  0  0  0
  -19.1220  -28.8780   23.3760 C   0  0  0  0  0  0  0  0  0  0  0  0
  -18.9190  -30.1400   23.9780 C   0  0  0  0  0  3  0  0  0  0  0  0
  -17.6200  -30.6530   24.1550 C   0  0  0  0  0  3  0  0  0  0  0  0
  -16.5060  -29.9020   23.7430 C   0  0  0  0  0  3  0  0  0  0  0  0
  -16.6930  -28.6420   23.1460 C   0  0  0  0  0  3  0  0  0  0  0  0
  -25.8560  -32.5020   23.8730 C   0  0  0  0  0  3  0  0  0  0  0  0
  -26.3480  -31.7490   25.1700 C   0  0  1  0  0  0  0  0  0  0  0  0
  -25.2380  -31.5340   26.2260 C   0  0  0  0  0  1  0  0  0  0  0  0
  -26.9310  -30.3630   24.8130 C   0  0  0  0  0  1  0  0  0  0  0  0
  -27.4940  -32.5480   25.8370 C   0  0  0  0  0  1  0  0  0  0  0  0
  -25.5450  -33.9060   24.1840 N   0  0  0  0  0  0  0  0  0  0  0  0
  -25.8890  -34.9530   23.4210 C   0  0  0  0  0  0  0  0  0  0  0  0
  -26.5680  -34.8370   22.3980 O   0  0  0  0  0  0  0  0  0  0  0  0
  -24.9410  -34.0690   24.9780 H   0  0  0  0  0  0  0  0  0  0  0  0
  -24.1770  -36.7560   23.0330 C   0  0  0  0  0  1  0  0  0  0  0  0
  -25.4050  -36.3480   23.8630 C   0  0  0  0  0  3  0  0  0  0  0  0
  -27.5310  -37.2320   24.7180 C   0  0  0  0  0  1  0  0  0  0  0  0
  -26.4460  -37.3940   23.7540 N   0  0  0  0  0  0  0  0  0  0  0  0
  -26.0430  -38.3190   23.8830 H   0  0  0  0  0  0  0  0  0  0  0  0
  1  2  1  0
  3  5  2  0
  3  4  1  0
  4  1  2  0
  5  6  1  0
  6 15  1  0
  6  2  2  0
  7 15  1  0
  8 13  1  0
  9 10  1  0
  9  8  1  0
 11 10  1  0
 11 20  1  0
 11 12  1  0
 13  7  1  0
 13 12  1  0
 14  7  2  0
 15 16  1  0
 17 18  2  0
 18 37  1  0
 19 18  1  0
 19 22  1  0
 20 17  1  0
 20 21  1  0
 21 19  2  0
 22 23  1  0
 23 24  2  0
 25 28  1  0
 25 24  1  0
 26 25  2  0
 27 26  1  0
 27 22  2  0
 28 29  1  0
 29 30  1  0
 30 31  2  0
 32 31  1  0
 32 36  1  0
 33 32  2  0
 34 29  2  0
 34 33  1  0
 35 34  1  0
 37 38  1  0
 38 41  1  0
 38 40  1  0
 39 37  2  0
 42 43  1  0
 42 17  1  0
 44 42  1  0
 45 46  1  0
 45  5  1  0
 46 48  1  0
 47 45  2  0
 49 46  1  0
 50 51  2  0
 50  4  1  0
 52 51  1  0
 52 53  1  0
 54 65  2  0
 55 53  1  0
 55 60  1  0
 56 64  1  0
 56 66  1  0
 57 63  1  0
 57 59  1  0
 58 64  1  0
 59 60  2  0
 59 58  1  0
 61 55  2  0
 62 61  1  0
 62 57  2  0
 63 56  1  0
 64 54  1  0
 66 68  2  0
 67 66  1  0
 69 67  1  0
 70 79  2  0
 70 75  1  0
 71 67  1  0
 71 75  1  0
 72 71  1  0
 73 74  1  0
 73 72  1  0
 74 70  1  0
 75 76  2  0
 76 77  1  0
 78 77  2  0
 79 78  1  0
 80 54  1  0
 80 85  1  0
 80 81  1  0
 81 84  1  1
 81 82  1  0
 83 81  1  0
 85 88  1  0
 86 90  1  0
 86 85  1  0
 87 86  2  0
 90 89  1  0
 92 90  1  0
 92 93  1  0
 92 91  1  0
M  ISO  4   7 100  15 100  52 101  53 101
M  END
>  <TORSDO>  (90) 
F 19

>  <SCORE>  (90) 
-14.507

>  <name>  (90) 
89

>  <ligand_id>  (90) 
89

>  <original_smiles>  (90) 
[H]C(=C([H])C([H])([H])Oc1c([H])c([H])c2c(c1[H])C([H])([H])N(C(=O)C([H])(N([H])C(=O)C([H])(N([H])C([H])([H])[H])C([H])([H])[H])C(C([H])([H])[H])(C([H])([H])[H])C([H])([H])[H])C([H])(C(=O)N([H])C1([H])c3c([H])c([H])c([H])c([H])c3C([H])([H])C([H])([H])C1([H])[H])C2([H])[H])c1c([H])c([H])c(N([H])C(=O)N2C([H])([H])C([H])([H])C([H])([H])C([H])(n3nc(-c4c([H])c([H])c(Oc5c([H])c([H])c(F)c([H])c5F)c([H])c4[H])c(C(=O)N([H])[H])c3N([H])[H])C2([H])[H])c(C(=O)N([H])[H])c1[H]

>  <smiles>  (90) 
[H]C(=C([H])C([H])([H])Oc1c([H])c([H])c2c(c1[H])C([H])([H])N(C(=O)C([H])(N([H])C(=O)C([H])(N([H])C([H])([H])[H])C([H])([H])[H])C(C([H])([H])[H])(C([H])([H])[H])C([H])([H])[H])C([H])(C(=O)N([H])C1([H])c3c([H])c([H])c([H])c([H])c3C([H])([H])C([H])([H])C1([H])[H])C2([H])[H])c1c([H])c([H])c(N([H])C(=O)N2C([H])([H])C([H])([H])C([H])([H])C([H])(n3nc(-c4c([H])c([H])c(Oc5c([H])c([H])c(F)c([H])c5F)c([H])c4[H])c(C(=O)N([H])[H])c3N([H])[H])C2([H])[H])c(C(=O)N([H])[H])c1[H]

$$$$
90:0:0
     RDKit          3D

116125  0  0  1  0  0  0  0  0999 V2000
  -24.4840  -20.6950   16.2480 C   0  0  0  0  0  3  0  0  0  0  0  0
  -21.2150  -20.4500   14.2480 C   0  0  0  0  0  3  0  0  0  0  0  0
  -22.5810  -20.4020   14.5850 C   0  0  0  0  0  3  0  0  0  0  0  0
  -22.0320  -21.0250   16.8750 C   0  0  0  0  0  3  0  0  0  0  0  0
  -20.2500  -20.7890   15.2180 C   0  0  0  0  0  0  0  0  0  0  0  0
  -20.6610  -21.0750   16.5440 C   0  0  0  0  0  0  0  0  0  0  0  0
  -23.0000  -20.6910   15.9000 C   0  0  0  0  0  0  0  0  0  0  0  0
  -18.7810  -20.8120   14.8150 C   0  0  0  0  0  2  0  0  0  0  0  0
  -19.6550  -21.4640   17.6210 C   0  0  0  0  0  2  0  0  0  0  0  0
  -17.8710  -21.5180   15.8310 C   0  0  0  0  0  2  0  0  0  0  0  0
  -18.2090  -21.0950   17.2640 C   0  0  0  0  0  2  0  0  0  0  0  0
  -25.9680  -22.7090   16.2600 C   0  0  0  0  0  0  0  0  0  0  0  0
  -24.8750  -22.0460   16.6540 N   0  0  0  0  0  0  0  0  0  0  0  0
  -26.9210  -22.1370   15.7240 O   0  0  0  0  0  0  0  0  0  0  0  0
  -24.1460  -22.5900   17.0940 H   0  0  0  0  0  0  0  0  0  0  0  0
  -26.0170  -24.2320   16.5080 C   0  0  0  0  0  3  0  0  0  0  0  0
  -27.4320  -24.6620   16.6410 N   0  0  0  0  0  4  0  0  0  0  0  0
  -27.9300  -24.1980   15.8940 H   0  0  0  0  0  0  0  0  0  0  0  0
  -27.4470  -25.6530   16.4700 H   0  0  0  0  0  0  0  0  0  0  0  0
  -28.1170  -24.3490   17.9240 C   0  0  0  0  0  2  0  0  0  0  0  0
  -30.2750  -25.3470   16.9880 C   0  0  0  0  0  1  0  0  0  0  0  0
  -30.1620  -24.5770   19.3590 C   0  0  0  0  0  1  0  0  0  0  0  0
  -29.3550  -25.2470   18.2270 C   0  0  2  0  0  0  0  0  0  0  0  0
  -28.9630  -26.6860   18.6760 C   0  0  0  0  0  2  0  0  0  0  0  0
  -28.3850  -26.7410   19.9850 O   0  0  0  0  0  0  0  0  0  0  0  0
  -24.6110  -31.8720   23.2160 C   0  0  0  0  0  0  0  0  0  0  0  0
  -27.2240  -27.4700   20.0620 C   0  0  0  0  0  0  0  0  0  0  0  0
  -23.3950  -30.4970   21.5580 C   0  0  0  0  0  3  0  0  0  0  0  0
  -24.8370  -28.9680   20.1220 C   0  0  0  0  0  0  0  0  0  0  0  0
  -25.9220  -30.8440   21.3630 C   0  0  0  0  0  2  0  0  0  0  0  0
  -25.9980  -29.4790   20.7140 C   0  0  0  0  0  0  0  0  0  0  0  0
  -27.1980  -28.7320   20.6920 C   0  0  0  0  0  3  0  0  0  0  0  0
  -26.0380  -26.9540   19.5040 C   0  0  0  0  0  3  0  0  0  0  0  0
  -24.8460  -27.6970   19.5260 C   0  0  0  0  0  3  0  0  0  0  0  0
  -23.5980  -29.8300   20.1730 C   0  0  0  0  0  2  0  0  0  0  0  0
  -24.6610  -31.0850   22.1040 N   0  0  0  0  0  0  0  0  0  0  0  0
  -23.5310  -32.1460   23.7580 O   0  0  0  0  0  0  0  0  0  0  0  0
  -22.7380  -29.4690   22.5050 C   0  0  0  0  0  0  0  0  0  0  0  0
  -21.4110  -29.3020   22.3740 N   0  0  0  0  0  0  0  0  0  0  0  0
  -23.4160  -28.8240   23.3080 O   0  0  0  0  0  0  0  0  0  0  0  0
  -20.9270  -29.8750   21.6960 H   0  0  0  0  0  0  0  0  0  0  0  0
  -18.0250  -28.1390   22.8450 C   0  0  0  0  0  0  0  0  0  0  0  0
  -20.5830  -28.3670   23.1330 C   0  0  0  0  0  3  0  0  0  0  0  0
  -20.6760  -26.9420   22.5420 C   0  0  0  0  0  2  0  0  0  0  0  0
  -19.5770  -26.6410   21.5190 C   0  0  0  0  0  2  0  0  0  0  0  0
  -18.1900  -26.7970   22.1510 C   0  0  0  0  0  2  0  0  0  0  0  0
  -19.1490  -28.8830   23.2900 C   0  0  0  0  0  0  0  0  0  0  0  0
  -18.9410  -30.1430   23.8920 C   0  0  0  0  0  3  0  0  0  0  0  0
  -17.6420  -30.6580   24.0560 C   0  0  0  0  0  3  0  0  0  0  0  0
  -16.5310  -29.9090   23.6340 C   0  0  0  0  0  3  0  0  0  0  0  0
  -16.7240  -28.6510   23.0340 C   0  0  0  0  0  3  0  0  0  0  0  0
  -25.9020  -32.4830   23.8440 C   0  0  0  0  0  3  0  0  0  0  0  0
  -25.5920  -33.8640   24.2370 N   0  0  0  0  0  0  0  0  0  0  0  0
  -25.9040  -34.9480   23.5140 C   0  0  0  0  0  0  0  0  0  0  0  0
  -26.5610  -34.8910   22.4710 O   0  0  0  0  0  0  0  0  0  0  0  0
  -25.0120  -33.9830   25.0540 H   0  0  0  0  0  0  0  0  0  0  0  0
  -24.1500  -36.7320   23.2630 C   0  0  0  0  0  1  0  0  0  0  0  0
  -25.4120  -36.3120   24.0330 C   0  0  0  0  0  3  0  0  0  0  0  0
  -27.5580  -37.1810   24.8470 C   0  0  0  0  0  1  0  0  0  0  0  0
  -26.4310  -37.3800   23.9380 N   0  0  0  0  0  0  0  0  0  0  0  0
  -26.0210  -38.2890   24.1350 H   0  0  0  0  0  0  0  0  0  0  0  0
  -26.4460  -31.6580   25.0740 C   0  0  1  0  0  0  0  0  0  0  0  0
  -25.3740  -31.3670   26.1480 C   0  0  0  0  0  1  0  0  0  0  0  0
  -27.0270  -30.3030   24.6070 C   0  0  0  0  0  1  0  0  0  0  0  0
  -27.6070  -32.4280   25.7470 C   0  0  0  0  0  1  0  0  0  0  0  0
  -26.0420  -26.2760   14.8760 C   0  0  0  0  0  1  0  0  0  0  0  0
  -25.2830  -25.0170   15.3570 C   0  0  0  0  0  3  0  0  0  0  0  0
  -22.8120  -24.3130   15.8500 C   0  0  0  0  0  1  0  0  0  0  0  0
  -23.8340  -25.4480   15.7110 C   0  0  0  0  0  2  0  0  0  0  0  0
  -24.8290  -19.6280   17.3110 C   0  0  0  0  0  2  0  0  0  0  0  0
  -26.2640  -19.6140   17.6590 N   0  0  0  0  0  4  0  0  0  0  0  0
  -26.7970  -19.4700   16.8160 H   0  0  0  0  0  0  0  0  0  0  0  0
  -26.5050  -20.5200   18.0250 H   0  0  0  0  0  0  0  0  0  0  0  0
  -26.6260  -18.5830   18.6550 C   0  0  0  0  0  2  0  0  0  0  0  0
  -28.1240  -18.6210   19.0080 C   0  0  0  0  0  2  0  0  0  0  0  0
  -28.5170  -17.5980   20.0890 C   0  0  0  0  0  2  0  0  0  0  0  0
  -30.0270  -17.6170   20.3930 C   0  0  0  0  0  2  0  0  0  0  0  0
  -30.4570  -16.7040   21.5600 C   0  0  0  0  0  2  0  0  0  0  0  0
  -30.7120  -14.3990   20.6250 C   0  0  0  0  0  0  0  0  0  0  0  0
  -30.4200  -12.2830   19.3990 C   0  0  0  0  0  2  0  0  0  0  0  0
  -29.4880  -12.5190   18.1940 C   0  0  0  0  0  2  0  0  0  0  0  0
  -28.0110  -12.3730   18.6080 C   0  0  0  0  0  2  0  0  0  0  0  0
  -27.6640  -13.1950   19.8780 C   0  0  0  0  0  3  0  0  0  0  0  0
  -28.7000  -12.9290   20.9910 C   0  0  0  0  0  2  0  0  0  0  0  0
  -30.0390  -13.2340   20.4510 N   0  0  0  0  0  0  0  0  0  0  0  0
  -31.7970  -14.6490   20.0900 O   0  0  0  0  0  0  0  0  0  0  0  0
  -30.0610  -15.3140   21.3550 N   0  0  0  0  0  0  0  0  0  0  0  0
  -29.1810  -15.0200   21.7540 H   0  0  0  0  0  0  0  0  0  0  0  0
  -25.2600  -13.8140   20.5660 C   0  0  0  0  0  0  0  0  0  0  0  0
  -24.1830  -13.0420   20.9140 C   0  0  0  0  0  0  0  0  0  0  0  0
  -24.6370  -11.6890   20.8710 C   0  0  0  0  0  0  0  0  0  0  0  0
  -26.3030  -12.9280   20.3360 N   0  0  0  0  0  0  0  0  0  0  0  0
  -25.9290  -11.6450   20.5730 N   0  0  0  0  0  0  0  0  0  0  0  0
  -23.9040  -10.4280   21.0390 C   0  0  0  0  0  0  0  0  0  0  0  0
  -24.3600   -9.4200   21.9180 C   0  0  0  0  0  3  0  0  0  0  0  0
  -23.6270   -8.2240   22.0760 C   0  0  0  0  0  3  0  0  0  0  0  0
  -22.4260   -8.0270   21.3540 C   0  0  0  0  0  0  0  0  0  0  0  0
  -21.9880   -9.0240   20.4650 C   0  0  0  0  0  3  0  0  0  0  0  0
  -22.7210  -10.2120   20.3050 C   0  0  0  0  0  3  0  0  0  0  0  0
  -21.6630   -6.8860   21.4240 O   0  0  0  0  0  0  0  0  0  0  0  0
  -21.6850   -6.0720   22.5280 C   0  0  0  0  0  0  0  0  0  0  0  0
  -21.4010   -6.5630   23.8220 C   0  0  0  0  0  3  0  0  0  0  0  0
  -21.3660   -5.6790   24.9170 C   0  0  0  0  0  3  0  0  0  0  0  0
  -21.6040   -4.3050   24.7230 C   0  0  0  0  0  0  0  0  0  0  0  0
  -21.8820   -3.8140   23.4350 C   0  0  0  0  0  3  0  0  0  0  0  0
  -21.9190   -4.6950   22.3400 C   0  0  0  0  0  0  0  0  0  0  0  0
  -22.1660   -4.2140   21.0980 F   0  0  0  0  0  0  0  0  0  0  0  0
  -21.5620   -3.4540   25.7740 F   0  0  0  0  0  0  0  0  0  0  0  0
  -22.7870  -13.5250   21.1830 C   0  0  0  0  0  0  0  0  0  0  0  0
  -22.0500  -12.8240   22.0380 N   0  0  0  0  0  0  0  0  0  0  0  0
  -22.3560  -14.5560   20.6690 O   0  0  0  0  0  0  0  0  0  0  0  0
  -22.4100  -11.9890   22.4760 H   0  0  0  0  0  0  0  0  0  0  0  0
  -21.1130  -13.1290   22.2610 H   0  0  0  0  0  0  0  0  0  0  0  0
  -25.4360  -15.1840   20.4120 N   0  0  0  0  0  0  0  0  0  0  0  0
  -24.6800  -15.8450   20.5560 H   0  0  0  0  0  0  0  0  0  0  0  0
  -26.3140  -15.6210   20.1670 H   0  0  0  0  0  0  0  0  0  0  0  0
  1 13  1  0
  1 70  1  0
  2  3  2  0
  2  5  1  0
  3  7  1  0
  5  6  2  0
  6  4  1  0
  6  9  1  0
  7  1  1  0
  7  4  2  0
  8  5  1  0
  8 10  1  0
 10 11  1  0
 11  9  1  0
 12 13  1  0
 13 15  1  0
 14 12  2  0
 16 12  1  0
 16 17  1  0
 17 20  1  0
 18 17  1  0
 19 17  1  0
 20 23  1  0
 23 21  1  6
 23 24  1  0
 23 22  1  0
 24 25  1  0
 25 27  1  0
 26 37  2  0
 27 32  1  0
 28 36  1  0
 28 38  1  0
 29 35  1  0
 29 31  1  0
 30 36  1  0
 31 30  1  0
 32 31  2  0
 33 34  1  0
 33 27  2  0
 34 29  2  0
 35 28  1  0
 36 26  1  0
 38 40  2  0
 39 38  1  0
 41 39  1  0
 42 51  2  0
 42 47  1  0
 43 39  1  0
 43 47  1  0
 44 43  1  0
 45 46  1  0
 45 44  1  0
 46 42  1  0
 47 48  2  0
 48 49  1  0
 50 49  2  0
 51 50  1  0
 52 26  1  0
 52 53  1  0
 52 62  1  0
 53 56  1  0
 54 58  1  0
 54 53  1  0
 55 54  2  0
 58 57  1  0
 60 58  1  0
 60 61  1  0
 60 59  1  0
 62 65  1  1
 62 63  1  0
 64 62  1  0
 67 66  1  0
 67 69  1  0
 67 16  1  0
 69 68  1  0
 70 71  1  0
 71 73  1  0
 71 74  1  0
 72 71  1  0
 74 75  1  0
 75 76  1  0
 76 77  1  0
 77 78  1  0
 79 87  1  0
 80 85  1  0
 81 82  1  0
 81 80  1  0
 83 82  1  0
 83 92  1  0
 83 84  1  0
 85 79  1  0
 85 84  1  0
 86 79  2  0
 87 78  1  0
 87 88  1  0
 89 90  2  0
 90109  1  0
 91 90  1  0
 91 94  1  0
 92 89  1  0
 92 93  1  0
 93 91  2  0
 94 95  1  0
 95 96  2  0
 97100  1  0
 97 96  1  0
 98 97  2  0
 99 98  1  0
 99 94  2  0
100101  1  0
101102  1  0
102103  2  0
104103  1  0
104108  1  0
105104  2  0
106101  2  0
106105  1  0
107106  1  0
109110  1  0
110113  1  0
110112  1  0
111109  2  0
114115  1  0
114 89  1  0
116114  1  0
M  ISO  4  24 101  25 101  79 100  87 100
M  END
>  <TORSDO>  (91) 
F 32

>  <SCORE>  (91) 
23.065

>  <name>  (91) 
90

>  <ligand_id>  (91) 
90

>  <original_smiles>  (91) 
[H]c1c([H])c([H])c2c(c1[H])C([H])([H])C([H])([H])C([H])([H])C2([H])N([H])C(=O)C1([H])N(C(=O)C([H])(N([H])C(=O)C([H])(N([H])C([H])([H])[H])C([H])([H])[H])C(C([H])([H])[H])(C([H])([H])[H])C([H])([H])[H])C([H])([H])c2c([H])c(OC([H])([H])C(C([H])([H])[H])(C([H])([H])[H])C([H])([H])[N+]([H])([H])C([H])(C(=O)N([H])C([H])(c3c([H])c([H])c4c(c3[H])C([H])([H])C([H])([H])C([H])([H])C4([H])[H])C([H])([H])[N+]([H])([H])C([H])([H])C([H])([H])C([H])([H])C([H])([H])C([H])([H])N([H])C(=O)N3C([H])([H])C([H])([H])C([H])([H])C([H])(n4nc(-c5c([H])c([H])c(Oc6c([H])c([H])c(F)c([H])c6F)c([H])c5[H])c(C(=O)N([H])[H])c4N([H])[H])C3([H])[H])C([H])(C([H])([H])[H])C([H])([H])C([H])([H])[H])c([H])c([H])c2C1([H])[H]

>  <smiles>  (91) 
[H]c1c([H])c([H])c2c(c1[H])C([H])([H])C([H])([H])C([H])([H])C2([H])N([H])C(=O)C1([H])N(C(=O)C([H])(N([H])C(=O)C([H])(N([H])C([H])([H])[H])C([H])([H])[H])C(C([H])([H])[H])(C([H])([H])[H])C([H])([H])[H])C([H])([H])c2c([H])c(OC([H])([H])C(C([H])([H])[H])(C([H])([H])[H])C([H])([H])[N+]([H])([H])C([H])(C(=O)N([H])C([H])(c3c([H])c([H])c4c(c3[H])C([H])([H])C([H])([H])C([H])([H])C4([H])[H])C([H])([H])[N+]([H])([H])C([H])([H])C([H])([H])C([H])([H])C([H])([H])C([H])([H])N([H])C(=O)N3C([H])([H])C([H])([H])C([H])([H])C([H])(n4nc(-c5c([H])c([H])c(Oc6c([H])c([H])c(F)c([H])c6F)c([H])c5[H])c(C(=O)N([H])[H])c4N([H])[H])C3([H])[H])C([H])(C([H])([H])[H])C([H])([H])C([H])([H])[H])c([H])c([H])c2C1([H])[H]

$$$$
91:0:0
     RDKit          3D

 86 94  0  0  1  0  0  0  0  0999 V2000
  -28.9280  -22.4220   20.4370 C   0  0  0  0  0  3  0  0  0  0  0  0
  -30.3970  -15.6130   20.0550 C   0  0  0  0  0  0  0  0  0  0  0  0
  -30.3460  -13.1130   19.2130 C   0  0  0  0  0  2  0  0  0  0  0  0
  -29.4130  -12.7660   18.0250 C   0  0  0  0  0  2  0  0  0  0  0  0
  -28.0010  -12.4430   18.5290 C   0  0  0  0  0  2  0  0  0  0  0  0
  -27.5450  -13.4400   19.6210 C   0  0  0  0  0  3  0  0  0  0  0  0
  -28.6170  -13.7290   20.6970 C   0  0  0  0  0  2  0  0  0  0  0  0
  -29.7790  -14.3040   19.9890 N   0  0  0  0  0  0  0  0  0  0  0  0
  -31.6150  -15.4720   19.8380 O   0  0  0  0  0  0  0  0  0  0  0  0
  -28.5110  -17.8360   20.4010 C   0  0  0  0  0  2  0  0  0  0  0  0
  -30.5540  -18.3250   19.5020 C   0  0  0  0  0  2  0  0  0  0  0  0
  -28.2930  -19.5360   20.7270 C   0  0  0  0  0  2  0  0  0  0  0  0
  -30.3320  -19.9820   19.8790 C   0  0  0  0  0  2  0  0  0  0  0  0
  -29.8290  -17.0540   20.0570 N   0  0  0  0  0  0  0  0  0  0  0  0
  -28.9680  -20.7400   19.9630 N   0  0  2  0  0  4  0  0  0  0  0  0
  -28.5950  -20.7230   19.0250 H   0  0  0  0  0  0  0  0  0  0  0  0
  -25.2180  -13.9680   20.4890 C   0  0  0  0  0  0  0  0  0  0  0  0
  -24.1710  -13.1820   20.8780 C   0  0  0  0  0  0  0  0  0  0  0  0
  -24.6360  -11.8320   20.8020 C   0  0  0  0  0  0  0  0  0  0  0  0
  -26.2490  -13.0990   20.1870 N   0  0  0  0  0  0  0  0  0  0  0  0
  -25.9160  -11.8060   20.4430 N   0  0  0  0  0  0  0  0  0  0  0  0
  -23.9130  -10.5670   20.9900 C   0  0  0  0  0  0  0  0  0  0  0  0
  -24.3460   -9.5980   21.9220 C   0  0  0  0  0  3  0  0  0  0  0  0
  -23.6190   -8.4010   22.1010 C   0  0  0  0  0  3  0  0  0  0  0  0
  -22.4440   -8.1650   21.3490 C   0  0  0  0  0  0  0  0  0  0  0  0
  -22.0300   -9.1220   20.4060 C   0  0  0  0  0  3  0  0  0  0  0  0
  -22.7580  -10.3100   20.2250 C   0  0  0  0  0  3  0  0  0  0  0  0
  -21.6880   -7.0210   21.4370 O   0  0  0  0  0  0  0  0  0  0  0  0
  -21.6050   -6.3010   22.6030 C   0  0  0  0  0  0  0  0  0  0  0  0
  -21.1020   -6.8690   23.7940 C   0  0  0  0  0  3  0  0  0  0  0  0
  -20.9680   -6.0750   24.9510 C   0  0  0  0  0  3  0  0  0  0  0  0
  -21.3280   -4.7150   24.9160 C   0  0  0  0  0  0  0  0  0  0  0  0
  -21.8230   -4.1460   23.7300 C   0  0  0  0  0  3  0  0  0  0  0  0
  -21.9580   -4.9380   22.5760 C   0  0  0  0  0  0  0  0  0  0  0  0
  -22.4170   -4.3790   21.4300 F   0  0  0  0  0  0  0  0  0  0  0  0
  -21.1910   -3.9490   26.0250 F   0  0  0  0  0  0  0  0  0  0  0  0
  -22.7840  -13.6550   21.2010 C   0  0  0  0  0  0  0  0  0  0  0  0
  -22.0860  -12.9480   22.0810 N   0  0  0  0  0  0  0  0  0  0  0  0
  -22.3330  -14.6880   20.7090 O   0  0  0  0  0  0  0  0  0  0  0  0
  -22.4670  -12.1120   22.4990 H   0  0  0  0  0  0  0  0  0  0  0  0
  -21.1570  -13.2480   22.3420 H   0  0  0  0  0  0  0  0  0  0  0  0
  -25.3760  -15.3420   20.3330 N   0  0  0  0  0  0  0  0  0  0  0  0
  -24.6110  -15.9920   20.4820 H   0  0  0  0  0  0  0  0  0  0  0  0
  -26.2090  -15.7840   19.9680 H   0  0  0  0  0  0  0  0  0  0  0  0
  -28.0550  -24.0330   19.9590 C   0  0  0  0  0  3  0  0  0  0  0  0
  -28.1800  -25.7260   20.2860 O   0  0  0  0  0  0  0  0  0  0  0  0
  -24.6740  -31.8880   23.2420 C   0  0  0  0  0  0  0  0  0  0  0  0
  -27.1960  -26.8980   20.2060 C   0  0  0  0  0  0  0  0  0  0  0  0
  -23.4770  -30.4990   21.6020 C   0  0  0  0  0  3  0  0  0  0  0  0
  -24.9190  -28.8760   20.1690 C   0  0  0  0  0  0  0  0  0  0  0  0
  -26.0500  -30.6680   21.4620 C   0  0  0  0  0  2  0  0  0  0  0  0
  -26.1130  -29.2480   20.7980 C   0  0  0  0  0  0  0  0  0  0  0  0
  -27.2390  -28.2830   20.7890 C   0  0  0  0  0  3  0  0  0  0  0  0
  -25.9730  -26.7190   19.5190 C   0  0  0  0  0  3  0  0  0  0  0  0
  -24.8830  -27.6370   19.5060 C   0  0  0  0  0  3  0  0  0  0  0  0
  -23.7080  -29.8150   20.2250 C   0  0  0  0  0  2  0  0  0  0  0  0
  -24.7570  -31.0490   22.1550 N   0  0  0  0  0  0  0  0  0  0  0  0
  -23.5840  -32.1810   23.7630 O   0  0  0  0  0  0  0  0  0  0  0  0
  -22.7740  -29.5100   22.5700 C   0  0  0  0  0  0  0  0  0  0  0  0
  -21.4440  -29.3430   22.4430 N   0  0  0  0  0  0  0  0  0  0  0  0
  -23.4360  -28.8900   23.4060 O   0  0  0  0  0  0  0  0  0  0  0  0
  -20.9600  -29.8950   21.7470 H   0  0  0  0  0  0  0  0  0  0  0  0
  -18.0650  -28.1090   22.9460 C   0  0  0  0  0  0  0  0  0  0  0  0
  -20.6230  -28.4010   23.2130 C   0  0  0  0  0  3  0  0  0  0  0  0
  -20.7360  -26.9690   22.6400 C   0  0  0  0  0  2  0  0  0  0  0  0
  -19.6390  -26.6360   21.6240 C   0  0  0  0  0  2  0  0  0  0  0  0
  -18.2550  -26.7640   22.2660 C   0  0  0  0  0  2  0  0  0  0  0  0
  -19.1750  -28.8860   23.3760 C   0  0  0  0  0  0  0  0  0  0  0  0
  -18.9390  -30.1400   23.9780 C   0  0  0  0  0  3  0  0  0  0  0  0
  -17.6280  -30.6220   24.1490 C   0  0  0  0  0  3  0  0  0  0  0  0
  -16.5330  -29.8460   23.7320 C   0  0  0  0  0  3  0  0  0  0  0  0
  -16.7530  -28.5910   23.1370 C   0  0  0  0  0  3  0  0  0  0  0  0
  -25.9430  -32.5330   23.8780 C   0  0  0  0  0  3  0  0  0  0  0  0
  -25.6300  -33.9390   24.1990 N   0  0  0  0  0  0  0  0  0  0  0  0
  -25.9440  -34.9920   23.4330 C   0  0  0  0  0  0  0  0  0  0  0  0
  -26.5850  -34.8830   22.3850 O   0  0  0  0  0  0  0  0  0  0  0  0
  -25.0550  -34.0960   25.0140 H   0  0  0  0  0  0  0  0  0  0  0  0
  -24.1960  -36.7850   23.1450 C   0  0  0  0  0  1  0  0  0  0  0  0
  -25.4750  -36.3870   23.9000 C   0  0  0  0  0  3  0  0  0  0  0  0
  -27.6370  -37.3000   24.6290 C   0  0  0  0  0  1  0  0  0  0  0  0
  -26.4980  -37.4430   23.7260 N   0  0  0  0  0  0  0  0  0  0  0  0
  -26.0940  -38.3640   23.8700 H   0  0  0  0  0  0  0  0  0  0  0  0
  -26.4300  -31.7820   25.1810 C   0  0  1  0  0  0  0  0  0  0  0  0
  -25.3170  -31.5720   26.2340 C   0  0  0  0  0  1  0  0  0  0  0  0
  -27.0110  -30.3920   24.8340 C   0  0  0  0  0  1  0  0  0  0  0  0
  -27.5750  -32.5810   25.8470 C   0  0  0  0  0  1  0  0  0  0  0  0
  2 14  1  0
  3  8  1  0
  4  5  1  0
  4  3  1  0
  6  5  1  0
  6 20  1  0
  6  7  1  0
  8  2  1  0
  8  7  1  0
  9  2  2  0
 10 12  1  0
 11 13  1  0
 11 14  1  0
 13 15  1  0
 14 10  1  0
 15  1  1  0
 15 12  1  0
 15 16  1  6
 17 18  2  0
 18 37  1  0
 19 18  1  0
 19 22  1  0
 20 21  1  0
 20 17  1  0
 21 19  2  0
 22 23  1  0
 23 24  2  0
 25 28  1  0
 25 24  1  0
 26 25  2  0
 27 26  1  0
 27 22  2  0
 28 29  1  0
 29 30  1  0
 30 31  2  0
 32 31  1  0
 32 36  1  0
 33 32  2  0
 34 29  2  0
 34 33  1  0
 35 34  1  0
 37 38  1  0
 38 41  1  0
 38 40  1  0
 39 37  2  0
 42 43  1  0
 42 17  1  0
 44 42  1  0
 45 46  1  0
 45  1  2  0
 47 58  2  0
 48 46  1  0
 48 53  1  0
 49 57  1  0
 49 59  1  0
 50 56  1  0
 50 52  1  0
 51 57  1  0
 52 51  1  0
 53 52  2  0
 54 48  2  0
 55 54  1  0
 55 50  2  0
 56 49  1  0
 57 47  1  0
 59 61  2  0
 60 59  1  0
 62 60  1  0
 63 72  2  0
 63 68  1  0
 64 60  1  0
 64 68  1  0
 65 64  1  0
 66 67  1  0
 66 65  1  0
 67 63  1  0
 68 69  2  0
 69 70  1  0
 71 70  2  0
 72 71  1  0
 73 47  1  0
 73 74  1  0
 73 83  1  0
 74 77  1  0
 75 79  1  0
 75 74  1  0
 76 75  2  0
 79 78  1  0
 81 82  1  0
 81 79  1  0
 81 80  1  0
 83 86  1  1
 83 84  1  0
 85 83  1  0
M  ISO  4   2 100  14 100  45 101  46 101
M  END
>  <TORSDO>  (92) 
F 17

>  <SCORE>  (92) 
-16.400

>  <name>  (92) 
91

>  <ligand_id>  (92) 
91

>  <original_smiles>  (92) 
[H]c1c([H])c([H])c2c(c1[H])C([H])([H])C([H])([H])C([H])([H])C2([H])N([H])C(=O)C1([H])N(C(=O)C([H])(N([H])C(=O)C([H])(N([H])C([H])([H])[H])C([H])([H])[H])C(C([H])([H])[H])(C([H])([H])[H])C([H])([H])[H])C([H])([H])c2c([H])c(OC([H])([H])C([H])([H])[N+]3([H])C([H])([H])C([H])([H])N(C(=O)N4C([H])([H])C([H])([H])C([H])([H])C([H])(n5nc(-c6c([H])c([H])c(Oc7c([H])c([H])c(F)c([H])c7F)c([H])c6[H])c(C(=O)N([H])[H])c5N([H])[H])C4([H])[H])C([H])([H])C3([H])[H])c([H])c([H])c2C1([H])[H]

>  <smiles>  (92) 
[H]c1c([H])c([H])c2c(c1[H])C([H])([H])C([H])([H])C([H])([H])C2([H])N([H])C(=O)C1([H])N(C(=O)C([H])(N([H])C(=O)C([H])(N([H])C([H])([H])[H])C([H])([H])[H])C(C([H])([H])[H])(C([H])([H])[H])C([H])([H])[H])C([H])([H])c2c([H])c(OC([H])([H])C([H])([H])[N+]3([H])C([H])([H])C([H])([H])N(C(=O)N4C([H])([H])C([H])([H])C([H])([H])C([H])(n5nc(-c6c([H])c([H])c(Oc7c([H])c([H])c(F)c([H])c7F)c([H])c6[H])c(C(=O)N([H])[H])c5N([H])[H])C4([H])[H])C([H])([H])C3([H])[H])c([H])c([H])c2C1([H])[H]

$$$$
92:0:0
     RDKit          3D

 93101  0  0  1  0  0  0  0  0999 V2000
  -30.0720  -21.0950   20.2400 C   0  0  0  0  0  0  0  0  0  0  0  0
  -30.7680  -21.8760   21.0780 N   0  0  0  0  0  0  0  0  0  0  0  0
  -29.4680  -21.5360   19.2600 O   0  0  0  0  0  0  0  0  0  0  0  0
  -31.1860  -21.4160   21.8780 H   0  0  0  0  0  0  0  0  0  0  0  0
  -28.8650  -18.8760   20.3640 C   0  0  0  0  0  3  0  0  0  0  0  0
  -31.2220  -18.9400   20.9660 C   0  0  0  0  0  3  0  0  0  0  0  0
  -28.8490  -17.4830   20.5810 C   0  0  0  0  0  3  0  0  0  0  0  0
  -31.2120  -17.5410   21.1620 C   0  0  0  0  0  3  0  0  0  0  0  0
  -30.0490  -19.6210   20.5550 C   0  0  0  0  0  0  0  0  0  0  0  0
  -30.0270  -16.8000   20.9540 C   0  0  0  0  0  0  0  0  0  0  0  0
  -30.6610  -14.4580   20.4870 C   0  0  0  0  0  0  0  0  0  0  0  0
  -30.3700  -12.3310   19.2700 C   0  0  0  0  0  2  0  0  0  0  0  0
  -29.4130  -12.5670   18.0830 C   0  0  0  0  0  2  0  0  0  0  0  0
  -27.9430  -12.4160   18.5240 C   0  0  0  0  0  2  0  0  0  0  0  0
  -27.6180  -13.2330   19.8030 C   0  0  0  0  0  3  0  0  0  0  0  0
  -28.6770  -12.9580   20.8950 C   0  0  0  0  0  2  0  0  0  0  0  0
  -30.0040  -13.2780   20.3350 N   0  0  0  0  0  0  0  0  0  0  0  0
  -31.7650  -14.6880   19.9820 O   0  0  0  0  0  0  0  0  0  0  0  0
  -29.9590  -15.3950   21.1510 N   0  0  0  0  0  0  0  0  0  0  0  0
  -29.0770  -15.0480   21.4940 H   0  0  0  0  0  0  0  0  0  0  0  0
  -25.2180  -13.8480   20.5090 C   0  0  0  0  0  0  0  0  0  0  0  0
  -24.1510  -13.0770   20.8850 C   0  0  0  0  0  0  0  0  0  0  0  0
  -24.6120  -11.7250   20.8560 C   0  0  0  0  0  0  0  0  0  0  0  0
  -26.2630  -12.9660   20.2800 N   0  0  0  0  0  0  0  0  0  0  0  0
  -25.9010  -11.6840   20.5440 N   0  0  0  0  0  0  0  0  0  0  0  0
  -23.8880  -10.4620   21.0500 C   0  0  0  0  0  0  0  0  0  0  0  0
  -24.3300   -9.4950   21.9790 C   0  0  0  0  0  3  0  0  0  0  0  0
  -23.6080   -8.2960   22.1610 C   0  0  0  0  0  3  0  0  0  0  0  0
  -22.4290   -8.0570   21.4150 C   0  0  0  0  0  0  0  0  0  0  0  0
  -22.0070   -9.0150   20.4750 C   0  0  0  0  0  3  0  0  0  0  0  0
  -22.7300  -10.2050   20.2910 C   0  0  0  0  0  3  0  0  0  0  0  0
  -21.6780   -6.9110   21.5060 O   0  0  0  0  0  0  0  0  0  0  0  0
  -21.6460   -6.1610   22.6540 C   0  0  0  0  0  0  0  0  0  0  0  0
  -21.2400   -6.7090   23.8910 C   0  0  0  0  0  3  0  0  0  0  0  0
  -21.1560   -5.8850   25.0320 C   0  0  0  0  0  3  0  0  0  0  0  0
  -21.4670   -4.5160   24.9370 C   0  0  0  0  0  0  0  0  0  0  0  0
  -21.8680   -3.9680   23.7050 C   0  0  0  0  0  3  0  0  0  0  0  0
  -21.9540   -4.7890   22.5660 C   0  0  0  0  0  0  0  0  0  0  0  0
  -22.3190   -4.2520   21.3780 F   0  0  0  0  0  0  0  0  0  0  0  0
  -21.3790   -3.7230   26.0300 F   0  0  0  0  0  0  0  0  0  0  0  0
  -22.7540  -13.5530   21.1600 C   0  0  0  0  0  0  0  0  0  0  0  0
  -22.0280  -12.8580   22.0280 N   0  0  0  0  0  0  0  0  0  0  0  0
  -22.3140  -14.5770   20.6400 O   0  0  0  0  0  0  0  0  0  0  0  0
  -22.3940  -12.0260   22.4690 H   0  0  0  0  0  0  0  0  0  0  0  0
  -21.0910  -13.1600   22.2560 H   0  0  0  0  0  0  0  0  0  0  0  0
  -25.3790  -15.2170   20.3230 N   0  0  0  0  0  0  0  0  0  0  0  0
  -24.6050  -15.8650   20.4190 H   0  0  0  0  0  0  0  0  0  0  0  0
  -26.2080  -15.6460   19.9320 H   0  0  0  0  0  0  0  0  0  0  0  0
  -31.1350  -23.2760   20.8470 C   0  0  0  0  0  2  0  0  0  0  0  0
  -29.9960  -24.2930   21.0920 C   0  0  0  0  0  2  0  0  0  0  0  0
  -30.4660  -25.7460   20.8550 C   0  0  0  0  0  2  0  0  0  0  0  0
  -29.3900  -26.8320   21.0590 C   0  0  0  0  0  2  0  0  0  0  0  0
  -28.3710  -26.6690   20.0810 O   0  0  0  0  0  0  0  0  0  0  0  0
  -24.5860  -31.8870   23.2320 C   0  0  0  0  0  0  0  0  0  0  0  0
  -27.2450  -27.4570   20.1610 C   0  0  0  0  0  0  0  0  0  0  0  0
  -23.3790  -30.4820   21.5890 C   0  0  0  0  0  3  0  0  0  0  0  0
  -24.8370  -28.9420   20.1720 C   0  0  0  0  0  0  0  0  0  0  0  0
  -25.9010  -30.8460   21.3920 C   0  0  0  0  0  2  0  0  0  0  0  0
  -25.9900  -29.4710   20.7650 C   0  0  0  0  0  0  0  0  0  0  0  0
  -27.1960  -28.7350   20.7690 C   0  0  0  0  0  3  0  0  0  0  0  0
  -26.0780  -26.9430   19.5600 C   0  0  0  0  0  3  0  0  0  0  0  0
  -24.8730  -27.6730   19.5700 C   0  0  0  0  0  3  0  0  0  0  0  0
  -23.5900  -29.7980   20.2120 C   0  0  0  0  0  2  0  0  0  0  0  0
  -24.6390  -31.0860   22.1300 N   0  0  0  0  0  0  0  0  0  0  0  0
  -23.5060  -32.1610   23.7710 O   0  0  0  0  0  0  0  0  0  0  0  0
  -22.7270  -29.4650   22.5510 C   0  0  0  0  0  0  0  0  0  0  0  0
  -21.4010  -29.2860   22.4240 N   0  0  0  0  0  0  0  0  0  0  0  0
  -23.4090  -28.8380   23.3650 O   0  0  0  0  0  0  0  0  0  0  0  0
  -20.9150  -29.8460   21.7380 H   0  0  0  0  0  0  0  0  0  0  0  0
  -18.0220  -28.1120   22.9250 C   0  0  0  0  0  0  0  0  0  0  0  0
  -20.5820  -28.3520   23.1940 C   0  0  0  0  0  3  0  0  0  0  0  0
  -20.6740  -26.9220   22.6130 C   0  0  0  0  0  2  0  0  0  0  0  0
  -19.5690  -26.6090   21.6000 C   0  0  0  0  0  2  0  0  0  0  0  0
  -18.1900  -26.7620   22.2470 C   0  0  0  0  0  2  0  0  0  0  0  0
  -19.1470  -28.8650   23.3550 C   0  0  0  0  0  0  0  0  0  0  0  0
  -18.9390  -30.1290   23.9480 C   0  0  0  0  0  3  0  0  0  0  0  0
  -17.6390  -30.6410   24.1160 C   0  0  0  0  0  3  0  0  0  0  0  0
  -16.5290  -29.8840   23.7030 C   0  0  0  0  0  3  0  0  0  0  0  0
  -16.7210  -28.6220   23.1140 C   0  0  0  0  0  3  0  0  0  0  0  0
  -25.8740  -32.5140   23.8510 C   0  0  0  0  0  3  0  0  0  0  0  0
  -25.5690  -33.9120   24.1820 N   0  0  0  0  0  0  0  0  0  0  0  0
  -25.9040  -34.9640   23.4230 C   0  0  0  0  0  0  0  0  0  0  0  0
  -26.5750  -34.8600   22.3920 O   0  0  0  0  0  0  0  0  0  0  0  0
  -24.9740  -34.0660   24.9830 H   0  0  0  0  0  0  0  0  0  0  0  0
  -24.1800  -36.7590   23.0620 C   0  0  0  0  0  1  0  0  0  0  0  0
  -25.4160  -36.3510   23.8810 C   0  0  0  0  0  3  0  0  0  0  0  0
  -27.5490  -37.2290   24.7230 C   0  0  0  0  0  1  0  0  0  0  0  0
  -26.4510  -37.4030   23.7760 N   0  0  0  0  0  0  0  0  0  0  0  0
  -26.0460  -38.3230   23.9280 H   0  0  0  0  0  0  0  0  0  0  0  0
  -26.3970  -31.7370   25.1210 C   0  0  1  0  0  0  0  0  0  0  0  0
  -25.3090  -31.4970   26.1930 C   0  0  0  0  0  1  0  0  0  0  0  0
  -26.9750  -30.3600   24.7180 C   0  0  0  0  0  1  0  0  0  0  0  0
  -27.5500  -32.5270   25.7820 C   0  0  0  0  0  1  0  0  0  0  0  0
  1  9  1  0
  1  2  1  0
  2  4  1  0
  3  1  2  0
  5  9  2  0
  5  7  1  0
  6  8  2  0
  7 10  2  0
  9  6  1  0
 10 19  1  0
 10  8  1  0
 11 19  1  0
 12 17  1  0
 13 14  1  0
 13 12  1  0
 15 14  1  0
 15 24  1  0
 15 16  1  0
 17 11  1  0
 17 16  1  0
 18 11  2  0
 19 20  1  0
 21 22  2  0
 22 41  1  0
 23 22  1  0
 23 26  1  0
 24 21  1  0
 24 25  1  0
 25 23  2  0
 26 27  1  0
 27 28  2  0
 29 32  1  0
 29 28  1  0
 30 29  2  0
 31 30  1  0
 31 26  2  0
 32 33  1  0
 33 34  1  0
 34 35  2  0
 36 35  1  0
 36 40  1  0
 37 36  2  0
 38 33  2  0
 38 37  1  0
 39 38  1  0
 41 42  1  0
 42 45  1  0
 42 44  1  0
 43 41  2  0
 46 47  1  0
 46 21  1  0
 48 46  1  0
 49  2  1  0
 49 50  1  0
 51 52  1  0
 51 50  1  0
 53 55  1  0
 53 52  1  0
 54 65  2  0
 55 60  1  0
 56 64  1  0
 56 66  1  0
 57 63  1  0
 57 59  1  0
 58 64  1  0
 59 60  2  0
 59 58  1  0
 61 62  1  0
 61 55  2  0
 62 57  2  0
 63 56  1  0
 64 54  1  0
 66 68  2  0
 67 66  1  0
 69 67  1  0
 70 79  2  0
 70 75  1  0
 71 67  1  0
 71 75  1  0
 72 71  1  0
 73 74  1  0
 73 72  1  0
 74 70  1  0
 75 76  2  0
 76 77  1  0
 78 77  2  0
 79 78  1  0
 80 54  1  0
 80 81  1  0
 80 90  1  0
 81 84  1  0
 82 86  1  0
 82 81  1  0
 83 82  2  0
 86 85  1  0
 88 86  1  0
 88 89  1  0
 88 87  1  0
 90 93  1  1
 90 91  1  0
 92 90  1  0
M  ISO  4  11 100  19 100  52 101  53 101
M  END
>  <TORSDO>  (93) 
F 21

>  <SCORE>  (93) 
-13.883

>  <name>  (93) 
92

>  <ligand_id>  (93) 
92

>  <original_smiles>  (93) 
[H]c1c([H])c([H])c2c(c1[H])C([H])([H])C([H])([H])C([H])([H])C2([H])N([H])C(=O)C1([H])N(C(=O)C([H])(N([H])C(=O)C([H])(N([H])C([H])([H])[H])C([H])([H])[H])C(C([H])([H])[H])(C([H])([H])[H])C([H])([H])[H])C([H])([H])c2c([H])c(OC([H])([H])C([H])([H])C([H])([H])C([H])([H])N([H])C(=O)c3c([H])c([H])c(N([H])C(=O)N4C([H])([H])C([H])([H])C([H])([H])C([H])(n5nc(-c6c([H])c([H])c(Oc7c([H])c([H])c(F)c([H])c7F)c([H])c6[H])c(C(=O)N([H])[H])c5N([H])[H])C4([H])[H])c([H])c3[H])c([H])c([H])c2C1([H])[H]

>  <smiles>  (93) 
[H]c1c([H])c([H])c2c(c1[H])C([H])([H])C([H])([H])C([H])([H])C2([H])N([H])C(=O)C1([H])N(C(=O)C([H])(N([H])C(=O)C([H])(N([H])C([H])([H])[H])C([H])([H])[H])C(C([H])([H])[H])(C([H])([H])[H])C([H])([H])[H])C([H])([H])c2c([H])c(OC([H])([H])C([H])([H])C([H])([H])C([H])([H])N([H])C(=O)c3c([H])c([H])c(N([H])C(=O)N4C([H])([H])C([H])([H])C([H])([H])C([H])(n5nc(-c6c([H])c([H])c(Oc7c([H])c([H])c(F)c([H])c7F)c([H])c6[H])c(C(=O)N([H])[H])c5N([H])[H])C4([H])[H])c([H])c3[H])c([H])c([H])c2C1([H])[H]

$$$$
93:0:0
     RDKit          3D

 95104  0  0  1  0  0  0  0  0999 V2000
  -31.2790  -21.2750   21.0460 C   0  0  0  0  0  2  0  0  0  0  0  0
  -30.2250  -21.1800   23.3670 C   0  0  0  0  0  2  0  0  0  0  0  0
  -31.3760  -22.8000   21.2080 C   0  0  0  0  0  2  0  0  0  0  0  0
  -30.4010  -22.7040   23.4480 C   0  0  0  0  0  2  0  0  0  0  0  0
  -31.2400  -20.5320   22.3960 C   0  0  0  0  0  3  0  0  0  0  0  0
  -30.2940  -23.2980   22.0930 N   0  0  1  0  0  4  0  0  0  0  0  0
  -29.4270  -22.9500   21.7120 H   0  0  0  0  0  0  0  0  0  0  0  0
  -32.0600  -18.1610   21.9950 C   0  0  0  0  0  3  0  0  0  0  0  0
  -29.6540  -18.5670   21.9930 C   0  0  0  0  0  3  0  0  0  0  0  0
  -31.8310  -16.8160   21.6440 C   0  0  0  0  0  3  0  0  0  0  0  0
  -29.4230  -17.2200   21.6710 C   0  0  0  0  0  3  0  0  0  0  0  0
  -30.9740  -19.0510   22.1500 C   0  0  0  0  0  0  0  0  0  0  0  0
  -30.5110  -16.3550   21.4570 C   0  0  0  0  0  0  0  0  0  0  0  0
  -30.5180  -14.4830   19.8840 C   0  0  0  0  0  0  0  0  0  0  0  0
  -30.0570  -12.5390   18.4390 C   0  0  0  0  0  2  0  0  0  0  0  0
  -28.9400  -12.8210   17.4150 C   0  0  0  0  0  2  0  0  0  0  0  0
  -27.5470  -12.5830   18.0290 C   0  0  0  0  0  2  0  0  0  0  0  0
  -27.3730  -13.2960   19.3940 C   0  0  0  0  0  3  0  0  0  0  0  0
  -28.5620  -12.9570   20.3160 C   0  0  0  0  0  2  0  0  0  0  0  0
  -29.8110  -13.3540   19.6340 N   0  0  0  0  0  0  0  0  0  0  0  0
  -31.3970  -14.9210   19.1310 O   0  0  0  0  0  0  0  0  0  0  0  0
  -30.2380  -15.0280   21.0740 N   0  0  0  0  0  0  0  0  0  0  0  0
  -29.4960  -14.5600   21.5720 H   0  0  0  0  0  0  0  0  0  0  0  0
  -25.0470  -13.7760   20.4000 C   0  0  0  0  0  0  0  0  0  0  0  0
  -24.0660  -12.9440   20.8680 C   0  0  0  0  0  0  0  0  0  0  0  0
  -24.5760  -11.6170   20.7320 C   0  0  0  0  0  0  0  0  0  0  0  0
  -26.0940  -12.9520   20.0140 N   0  0  0  0  0  0  0  0  0  0  0  0
  -25.8180  -11.6470   20.2650 N   0  0  0  0  0  0  0  0  0  0  0  0
  -23.9360  -10.3160   20.9620 C   0  0  0  0  0  0  0  0  0  0  0  0
  -24.4100   -9.4250   21.9500 C   0  0  0  0  0  3  0  0  0  0  0  0
  -23.7650   -8.1870   22.1640 C   0  0  0  0  0  3  0  0  0  0  0  0
  -22.6360   -7.8310   21.3890 C   0  0  0  0  0  0  0  0  0  0  0  0
  -22.1840   -8.7130   20.3920 C   0  0  0  0  0  3  0  0  0  0  0  0
  -22.8280   -9.9420   20.1770 C   0  0  0  0  0  3  0  0  0  0  0  0
  -21.9630   -6.6400   21.5110 O   0  0  0  0  0  0  0  0  0  0  0  0
  -21.8020   -6.0250   22.7270 C   0  0  0  0  0  0  0  0  0  0  0  0
  -21.1280   -6.6530   23.7980 C   0  0  0  0  0  3  0  0  0  0  0  0
  -20.9250   -5.9580   25.0060 C   0  0  0  0  0  3  0  0  0  0  0  0
  -21.3850   -4.6340   25.1440 C   0  0  0  0  0  0  0  0  0  0  0  0
  -22.0510   -4.0060   24.0770 C   0  0  0  0  0  3  0  0  0  0  0  0
  -22.2560   -4.6990   22.8710 C   0  0  0  0  0  0  0  0  0  0  0  0
  -22.8800   -4.0800   21.8400 F   0  0  0  0  0  0  0  0  0  0  0  0
  -21.1830   -3.9620   26.3020 F   0  0  0  0  0  0  0  0  0  0  0  0
  -22.6930  -13.3450   21.3290 C   0  0  0  0  0  0  0  0  0  0  0  0
  -22.1230  -12.6000   22.2690 N   0  0  0  0  0  0  0  0  0  0  0  0
  -22.1400  -14.3520   20.8900 O   0  0  0  0  0  0  0  0  0  0  0  0
  -22.5840  -11.7830   22.6400 H   0  0  0  0  0  0  0  0  0  0  0  0
  -21.2100  -12.8500   22.6240 H   0  0  0  0  0  0  0  0  0  0  0  0
  -25.1330  -15.1580   20.2530 N   0  0  0  0  0  0  0  0  0  0  0  0
  -24.3630  -15.7780   20.4850 H   0  0  0  0  0  0  0  0  0  0  0  0
  -25.9140  -15.6390   19.8250 H   0  0  0  0  0  0  0  0  0  0  0  0
  -30.1460  -24.7720   22.0930 C   0  0  0  0  0  2  0  0  0  0  0  0
  -29.3980  -25.2370   20.8330 C   0  0  0  0  0  2  0  0  0  0  0  0
  -28.9890  -26.7100   20.8470 C   0  0  0  0  0  2  0  0  0  0  0  0
  -28.2210  -26.8760   19.6640 O   0  0  0  0  0  0  0  0  0  0  0  0
  -24.4680  -31.8840   23.0790 C   0  0  0  0  0  0  0  0  0  0  0  0
  -27.0650  -27.6000   19.7870 C   0  0  0  0  0  0  0  0  0  0  0  0
  -23.2270  -30.5220   21.4250 C   0  0  0  0  0  3  0  0  0  0  0  0
  -24.6530  -29.0470   19.9150 C   0  0  0  0  0  0  0  0  0  0  0  0
  -25.7340  -30.9230   21.1670 C   0  0  0  0  0  2  0  0  0  0  0  0
  -25.8150  -29.5710   20.4950 C   0  0  0  0  0  0  0  0  0  0  0  0
  -27.0230  -28.8490   20.4410 C   0  0  0  0  0  3  0  0  0  0  0  0
  -25.8930  -27.0850   19.1990 C   0  0  0  0  0  3  0  0  0  0  0  0
  -24.6820  -27.7980   19.2710 C   0  0  0  0  0  3  0  0  0  0  0  0
  -23.4040  -29.8910   20.0170 C   0  0  0  0  0  2  0  0  0  0  0  0
  -24.4960  -31.1220   21.9500 N   0  0  0  0  0  0  0  0  0  0  0  0
  -23.4010  -32.1270   23.6600 O   0  0  0  0  0  0  0  0  0  0  0  0
  -22.6130  -29.4630   22.3690 C   0  0  0  0  0  0  0  0  0  0  0  0
  -21.2850  -29.2860   22.2830 N   0  0  0  0  0  0  0  0  0  0  0  0
  -23.3260  -28.8090   23.1350 O   0  0  0  0  0  0  0  0  0  0  0  0
  -20.7750  -29.8660   21.6320 H   0  0  0  0  0  0  0  0  0  0  0  0
  -17.9230  -28.1050   22.8720 C   0  0  0  0  0  0  0  0  0  0  0  0
  -20.4930  -28.3230   23.0440 C   0  0  0  0  0  3  0  0  0  0  0  0
  -20.5560  -26.9210   22.3970 C   0  0  0  0  0  2  0  0  0  0  0  0
  -19.4070  -26.6560   21.4200 C   0  0  0  0  0  2  0  0  0  0  0  0
  -18.0560  -26.7850   22.1300 C   0  0  0  0  0  2  0  0  0  0  0  0
  -19.0690  -28.8340   23.2860 C   0  0  0  0  0  0  0  0  0  0  0  0
  -18.8930  -30.0730   23.9420 C   0  0  0  0  0  3  0  0  0  0  0  0
  -17.6030  -30.5810   24.1860 C   0  0  0  0  0  3  0  0  0  0  0  0
  -16.4720  -29.8470   23.7880 C   0  0  0  0  0  3  0  0  0  0  0  0
  -16.6330  -28.6110   23.1350 C   0  0  0  0  0  3  0  0  0  0  0  0
  -25.7690  -32.5030   23.6800 C   0  0  0  0  0  3  0  0  0  0  0  0
  -26.3290  -31.6930   24.9130 C   0  0  1  0  0  0  0  0  0  0  0  0
  -25.2620  -31.3890   25.9890 C   0  0  0  0  0  1  0  0  0  0  0  0
  -26.9320  -30.3470   24.4460 C   0  0  0  0  0  1  0  0  0  0  0  0
  -27.4740  -32.4850   25.5870 C   0  0  0  0  0  1  0  0  0  0  0  0
  -25.4640  -33.8880   24.0600 N   0  0  0  0  0  0  0  0  0  0  0  0
  -25.7840  -34.9640   23.3290 C   0  0  0  0  0  0  0  0  0  0  0  0
  -26.4400  -34.8950   22.2860 O   0  0  0  0  0  0  0  0  0  0  0  0
  -24.8820  -34.0150   24.8750 H   0  0  0  0  0  0  0  0  0  0  0  0
  -24.0620  -36.7720   23.0330 C   0  0  0  0  0  1  0  0  0  0  0  0
  -25.2990  -36.3360   23.8330 C   0  0  0  0  0  3  0  0  0  0  0  0
  -27.4260  -37.1950   24.7120 C   0  0  0  0  0  1  0  0  0  0  0  0
  -26.3340  -37.3910   23.7610 N   0  0  0  0  0  0  0  0  0  0  0  0
  -25.9270  -38.3060   23.9330 H   0  0  0  0  0  0  0  0  0  0  0  0
  1  3  1  0
  1  5  1  0
  2  4  1  0
  3  6  1  0
  5 12  1  0
  5  2  1  0
  6 52  1  0
  6  4  1  0
  6  7  1  6
  8 12  1  0
  9 12  2  0
 10  8  2  0
 11  9  1  0
 13 10  1  0
 13 11  2  0
 14 22  1  0
 15 20  1  0
 16 17  1  0
 16 15  1  0
 18 17  1  0
 18 27  1  0
 18 19  1  0
 20 14  1  0
 20 19  1  0
 21 14  2  0
 22 13  1  0
 22 23  1  0
 24 25  2  0
 25 44  1  0
 26 25  1  0
 26 29  1  0
 27 28  1  0
 27 24  1  0
 28 26  2  0
 29 30  1  0
 30 31  2  0
 32 35  1  0
 32 31  1  0
 33 32  2  0
 34 33  1  0
 34 29  2  0
 35 36  1  0
 36 41  2  0
 36 37  1  0
 37 38  2  0
 38 39  1  0
 39 43  1  0
 40 39  2  0
 41 40  1  0
 42 41  1  0
 44 45  1  0
 45 48  1  0
 45 47  1  0
 46 44  2  0
 49 24  1  0
 49 50  1  0
 51 49  1  0
 53 54  1  0
 53 52  1  0
 55 57  1  0
 55 54  1  0
 56 67  2  0
 57 62  1  0
 58 66  1  0
 58 68  1  0
 59 65  1  0
 59 61  1  0
 60 66  1  0
 61 60  1  0
 62 61  2  0
 63 64  1  0
 63 57  2  0
 64 59  2  0
 65 58  1  0
 66 56  1  0
 68 70  2  0
 69 68  1  0
 71 69  1  0
 72 81  2  0
 72 77  1  0
 73 69  1  0
 73 77  1  0
 74 73  1  0
 75 76  1  0
 75 74  1  0
 76 72  1  0
 77 78  2  0
 78 79  1  0
 80 79  2  0
 81 80  1  0
 82 56  1  0
 82 87  1  0
 82 83  1  0
 83 86  1  1
 83 84  1  0
 85 83  1  0
 87 90  1  0
 88 92  1  0
 88 87  1  0
 89 88  2  0
 92 91  1  0
 94 92  1  0
 94 95  1  0
 94 93  1  0
M  ISO  4  14 100  22 100  54 101  55 101
M  END
>  <TORSDO>  (94) 
F 20

>  <SCORE>  (94) 
-10.808

>  <name>  (94) 
93

>  <ligand_id>  (94) 
93

>  <original_smiles>  (94) 
[H]c1c([H])c([H])c2c(c1[H])C([H])([H])C([H])([H])C([H])([H])C2([H])N([H])C(=O)C1([H])N(C(=O)C([H])(N([H])C(=O)C([H])(N([H])C([H])([H])[H])C([H])([H])[H])C(C([H])([H])[H])(C([H])([H])[H])C([H])([H])[H])C([H])([H])c2c([H])c(OC([H])([H])C([H])([H])C([H])([H])[N+]3([H])C([H])([H])C([H])([H])C([H])(c4c([H])c([H])c(N([H])C(=O)N5C([H])([H])C([H])([H])C([H])([H])C([H])(n6nc(-c7c([H])c([H])c(Oc8c([H])c([H])c(F)c([H])c8F)c([H])c7[H])c(C(=O)N([H])[H])c6N([H])[H])C5([H])[H])c([H])c4[H])C([H])([H])C3([H])[H])c([H])c([H])c2C1([H])[H]

>  <smiles>  (94) 
[H]c1c([H])c([H])c2c(c1[H])C([H])([H])C([H])([H])C([H])([H])C2([H])N([H])C(=O)C1([H])N(C(=O)C([H])(N([H])C(=O)C([H])(N([H])C([H])([H])[H])C([H])([H])[H])C(C([H])([H])[H])(C([H])([H])[H])C([H])([H])[H])C([H])([H])c2c([H])c(OC([H])([H])C([H])([H])C([H])([H])[N+]3([H])C([H])([H])C([H])([H])C([H])(c4c([H])c([H])c(N([H])C(=O)N5C([H])([H])C([H])([H])C([H])([H])C([H])(n6nc(-c7c([H])c([H])c(Oc8c([H])c([H])c(F)c([H])c8F)c([H])c7[H])c(C(=O)N([H])[H])c6N([H])[H])C5([H])[H])c([H])c4[H])C([H])([H])C3([H])[H])c([H])c([H])c2C1([H])[H]

$$$$
94:0:0
     RDKit          3D

 93101  0  0  1  0  0  0  0  0999 V2000
  -30.1520  -21.7510   19.4720 N   0  0  0  0  0  4  0  0  0  0  0  0
  -30.2590  -21.7540   20.4730 H   0  0  0  0  0  0  0  0  0  0  0  0
  -29.1830  -21.5800   19.2630 H   0  0  0  0  0  0  0  0  0  0  0  0
  -30.9430  -20.6380   18.9210 C   0  0  0  0  0  2  0  0  0  0  0  0
  -31.6140  -18.7320   20.4560 C   0  0  0  0  0  3  0  0  0  0  0  0
  -29.4210  -18.6520   19.3890 C   0  0  0  0  0  3  0  0  0  0  0  0
  -31.3980  -17.4500   21.0000 C   0  0  0  0  0  3  0  0  0  0  0  0
  -29.1980  -17.3760   19.9440 C   0  0  0  0  0  3  0  0  0  0  0  0
  -30.6440  -19.3200   19.6170 C   0  0  0  0  0  0  0  0  0  0  0  0
  -30.2070  -16.7520   20.7050 C   0  0  0  0  0  0  0  0  0  0  0  0
  -30.6990  -14.4050   20.5290 C   0  0  0  0  0  0  0  0  0  0  0  0
  -30.3580  -12.2790   19.3460 C   0  0  0  0  0  2  0  0  0  0  0  0
  -29.4340  -12.5320   18.1390 C   0  0  0  0  0  2  0  0  0  0  0  0
  -27.9540  -12.4150   18.5540 C   0  0  0  0  0  2  0  0  0  0  0  0
  -27.6200  -13.2310   19.8330 C   0  0  0  0  0  3  0  0  0  0  0  0
  -28.6630  -12.9760   20.9450 C   0  0  0  0  0  2  0  0  0  0  0  0
  -30.0020  -13.2490   20.3910 N   0  0  0  0  0  0  0  0  0  0  0  0
  -31.8230  -14.5750   20.0450 O   0  0  0  0  0  0  0  0  0  0  0  0
  -30.0270  -15.4090   21.1110 N   0  0  0  0  0  0  0  0  0  0  0  0
  -29.1070  -15.1530   21.4370 H   0  0  0  0  0  0  0  0  0  0  0  0
  -25.2150  -13.8440   20.5130 C   0  0  0  0  0  0  0  0  0  0  0  0
  -24.1440  -13.0740   20.8810 C   0  0  0  0  0  0  0  0  0  0  0  0
  -24.6050  -11.7230   20.8650 C   0  0  0  0  0  0  0  0  0  0  0  0
  -26.2620  -12.9620   20.2980 N   0  0  0  0  0  0  0  0  0  0  0  0
  -25.8970  -11.6820   20.5660 N   0  0  0  0  0  0  0  0  0  0  0  0
  -23.8770  -10.4620   21.0590 C   0  0  0  0  0  0  0  0  0  0  0  0
  -24.3140   -9.4930   21.9900 C   0  0  0  0  0  3  0  0  0  0  0  0
  -23.5880   -8.2970   22.1710 C   0  0  0  0  0  3  0  0  0  0  0  0
  -22.4100   -8.0610   21.4220 C   0  0  0  0  0  0  0  0  0  0  0  0
  -21.9940   -9.0180   20.4790 C   0  0  0  0  0  3  0  0  0  0  0  0
  -22.7220  -10.2060   20.2960 C   0  0  0  0  0  3  0  0  0  0  0  0
  -21.6540   -6.9180   21.5120 O   0  0  0  0  0  0  0  0  0  0  0  0
  -21.6260   -6.1630   22.6570 C   0  0  0  0  0  0  0  0  0  0  0  0
  -21.2410   -6.7080   23.9020 C   0  0  0  0  0  3  0  0  0  0  0  0
  -21.1600   -5.8810   25.0390 C   0  0  0  0  0  3  0  0  0  0  0  0
  -21.4520   -4.5080   24.9340 C   0  0  0  0  0  0  0  0  0  0  0  0
  -21.8330   -3.9620   23.6940 C   0  0  0  0  0  3  0  0  0  0  0  0
  -21.9160   -4.7870   22.5590 C   0  0  0  0  0  0  0  0  0  0  0  0
  -22.2610   -4.2520   21.3640 F   0  0  0  0  0  0  0  0  0  0  0  0
  -21.3680   -3.7110   26.0230 F   0  0  0  0  0  0  0  0  0  0  0  0
  -22.7460  -13.5530   21.1420 C   0  0  0  0  0  0  0  0  0  0  0  0
  -22.0120  -12.8620   22.0080 N   0  0  0  0  0  0  0  0  0  0  0  0
  -22.3120  -14.5770   20.6140 O   0  0  0  0  0  0  0  0  0  0  0  0
  -22.3770  -12.0330   22.4540 H   0  0  0  0  0  0  0  0  0  0  0  0
  -21.0740  -13.1660   22.2260 H   0  0  0  0  0  0  0  0  0  0  0  0
  -25.3800  -15.2140   20.3250 N   0  0  0  0  0  0  0  0  0  0  0  0
  -24.6080  -15.8660   20.4080 H   0  0  0  0  0  0  0  0  0  0  0  0
  -26.2300  -15.6480   19.9930 H   0  0  0  0  0  0  0  0  0  0  0  0
  -30.5530  -23.0630   18.9270 C   0  0  0  0  0  2  0  0  0  0  0  0
  -29.5550  -24.1760   19.2750 C   0  0  0  0  0  2  0  0  0  0  0  0
  -30.0270  -25.5450   18.7580 C   0  0  0  0  0  2  0  0  0  0  0  0
  -28.9060  -26.5860   18.7400 C   0  0  0  0  0  2  0  0  0  0  0  0
  -28.4340  -26.8040   20.0650 O   0  0  0  0  0  0  0  0  0  0  0  0
  -24.5960  -31.8850   23.2350 C   0  0  0  0  0  0  0  0  0  0  0  0
  -27.2480  -27.4880   20.1240 C   0  0  0  0  0  0  0  0  0  0  0  0
  -23.3870  -30.4800   21.5970 C   0  0  0  0  0  3  0  0  0  0  0  0
  -24.8390  -28.9450   20.1720 C   0  0  0  0  0  0  0  0  0  0  0  0
  -25.9060  -30.8540   21.3860 C   0  0  0  0  0  2  0  0  0  0  0  0
  -25.9940  -29.4810   20.7570 C   0  0  0  0  0  0  0  0  0  0  0  0
  -27.2010  -28.7530   20.7430 C   0  0  0  0  0  3  0  0  0  0  0  0
  -26.0740  -26.9430   19.5610 C   0  0  0  0  0  3  0  0  0  0  0  0
  -24.8690  -27.6690   19.5800 C   0  0  0  0  0  3  0  0  0  0  0  0
  -23.5920  -29.7970   20.2180 C   0  0  0  0  0  2  0  0  0  0  0  0
  -24.6490  -31.0860   22.1320 N   0  0  0  0  0  0  0  0  0  0  0  0
  -23.5170  -32.1530   23.7800 O   0  0  0  0  0  0  0  0  0  0  0  0
  -22.7450  -29.4540   22.5580 C   0  0  0  0  0  0  0  0  0  0  0  0
  -21.4200  -29.2730   22.4400 N   0  0  0  0  0  0  0  0  0  0  0  0
  -23.4350  -28.8270   23.3660 O   0  0  0  0  0  0  0  0  0  0  0  0
  -20.9230  -29.8330   21.7610 H   0  0  0  0  0  0  0  0  0  0  0  0
  -18.0510  -28.0810   22.9550 C   0  0  0  0  0  0  0  0  0  0  0  0
  -20.6100  -28.3350   23.2150 C   0  0  0  0  0  3  0  0  0  0  0  0
  -20.7080  -26.9040   22.6360 C   0  0  0  0  0  2  0  0  0  0  0  0
  -19.6010  -26.5830   21.6280 C   0  0  0  0  0  2  0  0  0  0  0  0
  -18.2220  -26.7300   22.2780 C   0  0  0  0  0  2  0  0  0  0  0  0
  -19.1730  -28.8400   23.3810 C   0  0  0  0  0  0  0  0  0  0  0  0
  -18.9590  -30.1030   23.9740 C   0  0  0  0  0  3  0  0  0  0  0  0
  -17.6560  -30.6080   24.1440 C   0  0  0  0  0  3  0  0  0  0  0  0
  -16.5490  -29.8460   23.7330 C   0  0  0  0  0  3  0  0  0  0  0  0
  -16.7480  -28.5830   23.1470 C   0  0  0  0  0  3  0  0  0  0  0  0
  -25.8850  -32.5170   23.8490 C   0  0  0  0  0  3  0  0  0  0  0  0
  -25.5740  -33.9140   24.1790 N   0  0  0  0  0  0  0  0  0  0  0  0
  -25.9070  -34.9660   23.4180 C   0  0  0  0  0  0  0  0  0  0  0  0
  -26.5800  -34.8620   22.3880 O   0  0  0  0  0  0  0  0  0  0  0  0
  -24.9730  -34.0700   24.9750 H   0  0  0  0  0  0  0  0  0  0  0  0
  -24.1770  -36.7530   23.0630 C   0  0  0  0  0  1  0  0  0  0  0  0
  -25.4200  -36.3530   23.8740 C   0  0  0  0  0  3  0  0  0  0  0  0
  -27.5550  -37.2370   24.7010 C   0  0  0  0  0  1  0  0  0  0  0  0
  -26.4510  -37.4070   23.7610 N   0  0  0  0  0  0  0  0  0  0  0  0
  -26.0440  -38.3260   23.9130 H   0  0  0  0  0  0  0  0  0  0  0  0
  -26.4140  -31.7430   25.1180 C   0  0  1  0  0  0  0  0  0  0  0  0
  -25.3290  -31.4940   26.1910 C   0  0  0  0  0  1  0  0  0  0  0  0
  -26.9990  -30.3700   24.7130 C   0  0  0  0  0  1  0  0  0  0  0  0
  -27.5680  -32.5380   25.7740 C   0  0  0  0  0  1  0  0  0  0  0  0
  1  2  1  0
  3  1  1  0
  4  1  1  0
  4  9  1  0
  5  7  1  0
  6  9  1  0
  6  8  2  0
  8 10  1  0
  9  5  2  0
 10  7  2  0
 10 19  1  0
 11 19  1  0
 12 17  1  0
 13 14  1  0
 13 12  1  0
 15 14  1  0
 15 24  1  0
 15 16  1  0
 17 11  1  0
 17 16  1  0
 18 11  2  0
 19 20  1  0
 21 22  2  0
 22 41  1  0
 23 22  1  0
 23 26  1  0
 24 21  1  0
 24 25  1  0
 25 23  2  0
 26 27  1  0
 27 28  2  0
 29 32  1  0
 29 28  1  0
 30 29  2  0
 31 30  1  0
 31 26  2  0
 32 33  1  0
 33 34  1  0
 34 35  2  0
 36 35  1  0
 36 40  1  0
 37 36  2  0
 38 33  2  0
 38 37  1  0
 39 38  1  0
 41 42  1  0
 42 45  1  0
 42 44  1  0
 43 41  2  0
 46 47  1  0
 46 21  1  0
 48 46  1  0
 49 50  1  0
 49  1  1  0
 51 50  1  0
 52 51  1  0
 52 53  1  0
 53 55  1  0
 54 65  2  0
 55 60  1  0
 56 64  1  0
 56 66  1  0
 57 63  1  0
 57 59  1  0
 58 64  1  0
 59 58  1  0
 60 59  2  0
 61 62  1  0
 61 55  2  0
 62 57  2  0
 63 56  1  0
 64 54  1  0
 66 68  2  0
 67 66  1  0
 69 67  1  0
 70 79  2  0
 70 75  1  0
 71 67  1  0
 71 75  1  0
 72 71  1  0
 73 74  1  0
 73 72  1  0
 74 70  1  0
 75 76  2  0
 76 77  1  0
 78 77  2  0
 79 78  1  0
 80 54  1  0
 80 81  1  0
 80 90  1  0
 81 84  1  0
 82 86  1  0
 82 81  1  0
 83 82  2  0
 86 85  1  0
 88 86  1  0
 88 89  1  0
 88 87  1  0
 90 93  1  1
 90 91  1  0
 92 90  1  0
M  ISO  4  11 100  19 100  52 101  53 101
M  END
>  <TORSDO>  (95) 
F 22

>  <SCORE>  (95) 
-13.130

>  <name>  (95) 
94

>  <ligand_id>  (95) 
94

>  <original_smiles>  (95) 
[H]c1c([H])c([H])c2c(c1[H])C([H])([H])C([H])([H])C([H])([H])C2([H])N([H])C(=O)C1([H])N(C(=O)C([H])(N([H])C(=O)C([H])(N([H])C([H])([H])[H])C([H])([H])[H])C(C([H])([H])[H])(C([H])([H])[H])C([H])([H])[H])C([H])([H])c2c([H])c(OC([H])([H])C([H])([H])C([H])([H])C([H])([H])[N+]([H])([H])C([H])([H])c3c([H])c([H])c(N([H])C(=O)N4C([H])([H])C([H])([H])C([H])([H])C([H])(n5nc(-c6c([H])c([H])c(Oc7c([H])c([H])c(F)c([H])c7F)c([H])c6[H])c(C(=O)N([H])[H])c5N([H])[H])C4([H])[H])c([H])c3[H])c([H])c([H])c2C1([H])[H]

>  <smiles>  (95) 
[H]c1c([H])c([H])c2c(c1[H])C([H])([H])C([H])([H])C([H])([H])C2([H])N([H])C(=O)C1([H])N(C(=O)C([H])(N([H])C(=O)C([H])(N([H])C([H])([H])[H])C([H])([H])[H])C(C([H])([H])[H])(C([H])([H])[H])C([H])([H])[H])C([H])([H])c2c([H])c(OC([H])([H])C([H])([H])C([H])([H])C([H])([H])[N+]([H])([H])C([H])([H])c3c([H])c([H])c(N([H])C(=O)N4C([H])([H])C([H])([H])C([H])([H])C([H])(n5nc(-c6c([H])c([H])c(Oc7c([H])c([H])c(F)c([H])c7F)c([H])c6[H])c(C(=O)N([H])[H])c5N([H])[H])C4([H])[H])c([H])c3[H])c([H])c([H])c2C1([H])[H]

$$$$
