0:0:0
     RDKit          3D

 86 94  0  0  1  0  0  0  0  0999 V2000
  -29.8160  -21.4530   20.0730 C   0  0  0  0  0  3  0  0  0  0  0  0
  -27.6750  -20.9480   20.3570 C   0  0  0  0  0  3  0  0  0  0  0  0
  -30.1550  -19.9440   20.0700 C   0  0  0  0  0  3  0  0  0  0  0  0
  -28.0040  -19.4730   20.3600 C   0  0  0  0  0  3  0  0  0  0  0  0
  -28.5060  -22.1700   20.2180 C   0  0  0  0  0  0  0  0  0  0  0  0
  -29.2780  -18.7380   20.2180 C   0  0  0  0  0  0  0  0  0  0  0  0
  -27.7590  -23.8390   20.2190 C   0  0  0  0  0  0  0  0  0  0  0  0
  -26.5340  -23.7000   20.2680 O   0  0  0  0  0  0  0  0  0  0  0  0
  -28.1520  -25.6050   20.1930 O   0  0  0  0  0  0  0  0  0  0  0  0
  -24.6670  -31.8430   23.2010 C   0  0  0  0  0  0  0  0  0  0  0  0
  -27.2120  -26.8320   20.1630 C   0  0  0  0  0  0  0  0  0  0  0  0
  -23.4880  -30.4670   21.5400 C   0  0  0  0  0  3  0  0  0  0  0  0
  -24.9440  -28.8460   20.1170 C   0  0  0  0  0  0  0  0  0  0  0  0
  -26.0660  -30.6170   21.4370 C   0  0  0  0  0  2  0  0  0  0  0  0
  -26.1330  -29.1950   20.7690 C   0  0  0  0  0  0  0  0  0  0  0  0
  -27.2520  -28.2130   20.7710 C   0  0  0  0  0  3  0  0  0  0  0  0
  -25.9920  -26.6960   19.4510 C   0  0  0  0  0  3  0  0  0  0  0  0
  -24.9090  -27.6200   19.4370 C   0  0  0  0  0  3  0  0  0  0  0  0
  -23.7360  -29.7920   20.1620 C   0  0  0  0  0  2  0  0  0  0  0  0
  -24.7630  -31.0070   22.1130 N   0  0  0  0  0  0  0  0  0  0  0  0
  -23.5700  -32.1370   23.7080 O   0  0  0  0  0  0  0  0  0  0  0  0
  -22.7670  -29.4740   22.4920 C   0  0  0  0  0  0  0  0  0  0  0  0
  -21.4340  -29.3310   22.3640 N   0  0  0  0  0  0  0  0  0  0  0  0
  -23.4190  -28.8330   23.3200 O   0  0  0  0  0  0  0  0  0  0  0  0
  -20.9590  -29.8980   21.6760 H   0  0  0  0  0  0  0  0  0  0  0  0
  -18.0320  -28.1600   22.8780 C   0  0  0  0  0  0  0  0  0  0  0  0
  -20.5990  -28.3890   23.1210 C   0  0  0  0  0  3  0  0  0  0  0  0
  -20.6730  -26.9680   22.5140 C   0  0  0  0  0  2  0  0  0  0  0  0
  -19.5590  -26.6830   21.5030 C   0  0  0  0  0  2  0  0  0  0  0  0
  -18.1850  -26.8280   22.1630 C   0  0  0  0  0  2  0  0  0  0  0  0
  -19.1640  -28.9000   23.3130 C   0  0  0  0  0  0  0  0  0  0  0  0
  -18.9640  -30.1460   23.9470 C   0  0  0  0  0  3  0  0  0  0  0  0
  -17.6650  -30.6520   24.1450 C   0  0  0  0  0  3  0  0  0  0  0  0
  -16.5490  -29.9110   23.7230 C   0  0  0  0  0  3  0  0  0  0  0  0
  -16.7330  -28.6660   23.0960 C   0  0  0  0  0  3  0  0  0  0  0  0
  -25.9280  -32.4820   23.8570 C   0  0  0  0  0  3  0  0  0  0  0  0
  -25.6070  -33.8800   24.2030 N   0  0  0  0  0  0  0  0  0  0  0  0
  -25.9060  -34.9480   23.4520 C   0  0  0  0  0  0  0  0  0  0  0  0
  -26.5410  -34.8630   22.3980 O   0  0  0  0  0  0  0  0  0  0  0  0
  -25.0410  -34.0200   25.0260 H   0  0  0  0  0  0  0  0  0  0  0  0
  -24.1400  -36.7300   23.2160 C   0  0  0  0  0  1  0  0  0  0  0  0
  -25.4340  -36.3330   23.9470 C   0  0  0  0  0  3  0  0  0  0  0  0
  -27.5920  -37.2610   24.6640 C   0  0  0  0  0  1  0  0  0  0  0  0
  -26.4470  -37.3960   23.7670 N   0  0  0  0  0  0  0  0  0  0  0  0
  -26.0380  -38.3160   23.9060 H   0  0  0  0  0  0  0  0  0  0  0  0
  -26.4130  -31.7090   25.1450 C   0  0  1  0  0  0  0  0  0  0  0  0
  -25.2970  -31.4760   26.1910 C   0  0  0  0  0  1  0  0  0  0  0  0
  -27.0010  -30.3280   24.7760 C   0  0  0  0  0  1  0  0  0  0  0  0
  -27.5540  -32.4990   25.8300 C   0  0  0  0  0  1  0  0  0  0  0  0
  -29.3740  -17.1330   20.2470 O   0  0  0  0  0  0  0  0  0  0  0  0
  -30.3830  -15.6490   20.0430 C   0  0  0  0  0  0  0  0  0  0  0  0
  -30.4340  -13.0870   19.2540 C   0  0  0  0  0  2  0  0  0  0  0  0
  -29.5040  -12.7440   18.0550 C   0  0  0  0  0  2  0  0  0  0  0  0
  -28.0860  -12.4040   18.5400 C   0  0  0  0  0  2  0  0  0  0  0  0
  -27.6050  -13.3960   19.6260 C   0  0  0  0  0  3  0  0  0  0  0  0
  -28.6530  -13.6870   20.7180 C   0  0  0  0  0  2  0  0  0  0  0  0
  -29.8450  -14.2400   20.0530 N   0  0  0  0  0  0  0  0  0  0  0  0
  -31.5930  -15.6630   19.7620 O   0  0  0  0  0  0  0  0  0  0  0  0
  -25.2770  -13.9010   20.5060 C   0  0  0  0  0  0  0  0  0  0  0  0
  -24.2370  -13.1070   20.8950 C   0  0  0  0  0  0  0  0  0  0  0  0
  -24.7090  -11.7610   20.8070 C   0  0  0  0  0  0  0  0  0  0  0  0
  -26.3100  -13.0410   20.1870 N   0  0  0  0  0  0  0  0  0  0  0  0
  -25.9870  -11.7440   20.4390 N   0  0  0  0  0  0  0  0  0  0  0  0
  -23.9930  -10.4910   20.9910 C   0  0  0  0  0  0  0  0  0  0  0  0
  -24.4250   -9.5260   21.9270 C   0  0  0  0  0  3  0  0  0  0  0  0
  -23.7050   -8.3230   22.1010 C   0  0  0  0  0  3  0  0  0  0  0  0
  -22.5380   -8.0780   21.3390 C   0  0  0  0  0  0  0  0  0  0  0  0
  -22.1250   -9.0320   20.3930 C   0  0  0  0  0  3  0  0  0  0  0  0
  -22.8450  -10.2250   20.2170 C   0  0  0  0  0  3  0  0  0  0  0  0
  -21.7900   -6.9280   21.4210 O   0  0  0  0  0  0  0  0  0  0  0  0
  -21.6880   -6.2180   22.5910 C   0  0  0  0  0  0  0  0  0  0  0  0
  -21.1630   -6.7920   23.7680 C   0  0  0  0  0  3  0  0  0  0  0  0
  -21.0110   -6.0060   24.9280 C   0  0  0  0  0  3  0  0  0  0  0  0
  -21.3760   -4.6470   24.9100 C   0  0  0  0  0  0  0  0  0  0  0  0
  -21.8930   -4.0710   23.7360 C   0  0  0  0  0  3  0  0  0  0  0  0
  -22.0450   -4.8550   22.5790 C   0  0  0  0  0  0  0  0  0  0  0  0
  -22.5250   -4.2900   21.4450 F   0  0  0  0  0  0  0  0  0  0  0  0
  -21.2230   -3.8890   26.0210 F   0  0  0  0  0  0  0  0  0  0  0  0
  -22.8510  -13.5720   21.2310 C   0  0  0  0  0  0  0  0  0  0  0  0
  -22.1610  -12.8550   22.1110 N   0  0  0  0  0  0  0  0  0  0  0  0
  -22.3910  -14.6060   20.7490 O   0  0  0  0  0  0  0  0  0  0  0  0
  -22.5470  -12.0180   22.5220 H   0  0  0  0  0  0  0  0  0  0  0  0
  -21.2310  -13.1480   22.3780 H   0  0  0  0  0  0  0  0  0  0  0  0
  -25.4300  -15.2780   20.3650 N   0  0  0  0  0  0  0  0  0  0  0  0
  -24.6740  -15.9300   20.5420 H   0  0  0  0  0  0  0  0  0  0  0  0
  -26.2740  -15.7280   20.0330 H   0  0  0  0  0  0  0  0  0  0  0  0
  1  5  1  0
  2  4  1  0
  3  1  2  0
  3  6  1  0
  5  7  1  0
  5  2  2  0
  6 50  1  0
  6  4  2  0
  7  8  2  0
  9  7  1  0
 10 21  2  0
 11  9  1  0
 11 16  1  0
 12 20  1  0
 12 22  1  0
 13 19  1  0
 13 15  1  0
 14 20  1  0
 15 16  2  0
 15 14  1  0
 17 11  2  0
 18 17  1  0
 18 13  2  0
 19 12  1  0
 20 10  1  0
 22 24  2  0
 23 22  1  0
 25 23  1  0
 26 35  2  0
 26 31  1  0
 27 23  1  0
 27 31  1  0
 28 27  1  0
 29 30  1  0
 29 28  1  0
 30 26  1  0
 31 32  2  0
 32 33  1  0
 34 33  2  0
 35 34  1  0
 36 10  1  0
 36 37  1  0
 36 46  1  0
 37 40  1  0
 38 42  1  0
 38 37  1  0
 39 38  2  0
 42 41  1  0
 44 45  1  0
 44 42  1  0
 44 43  1  0
 46 49  1  1
 46 47  1  0
 48 46  1  0
 51 57  1  0
 51 50  1  0
 52 57  1  0
 53 54  1  0
 53 52  1  0
 55 54  1  0
 55 62  1  0
 55 56  1  0
 57 56  1  0
 58 51  2  0
 59 60  2  0
 60 79  1  0
 61 60  1  0
 61 64  1  0
 62 63  1  0
 62 59  1  0
 63 61  2  0
 64 65  1  0
 65 66  2  0
 67 70  1  0
 67 66  1  0
 68 67  2  0
 69 68  1  0
 69 64  2  0
 70 71  1  0
 71 72  1  0
 72 73  2  0
 74 73  1  0
 74 78  1  0
 75 74  2  0
 76 71  2  0
 76 75  1  0
 77 76  1  0
 79 80  1  0
 80 83  1  0
 80 82  1  0
 81 79  2  0
 84 59  1  0
 84 85  1  0
 86 84  1  0
M  ISO  4   7 101   9 101  50 100  51 100
M  END
>  <TORSDO>  (1) 
F 18

>  <SCORE>  (1) 
-16.125

>  <name>  (1) 
0

>  <ligand_id>  (1) 
0

>  <original_smiles>  (1) 
[H]c1c([H])c([H])c2c(c1[H])C([H])([H])C([H])([H])C([H])([H])C2([H])N([H])C(=O)C1([H])N(C(=O)C([H])(N([H])C(=O)C([H])(N([H])C([H])([H])[H])C([H])([H])[H])C(C([H])([H])[H])(C([H])([H])[H])C([H])([H])[H])C([H])([H])c2c([H])c(OC(=O)c3c([H])c([H])c(OC(=O)N4C([H])([H])C([H])([H])C([H])([H])C([H])(n5nc(-c6c([H])c([H])c(Oc7c([H])c([H])c(F)c([H])c7F)c([H])c6[H])c(C(=O)N([H])[H])c5N([H])[H])C4([H])[H])c([H])c3[H])c([H])c([H])c2C1([H])[H]

>  <smiles>  (1) 
[H]c1c([H])c([H])c2c(c1[H])C([H])([H])C([H])([H])C([H])([H])C2([H])N([H])C(=O)C1([H])N(C(=O)C([H])(N([H])C(=O)C([H])(N([H])C([H])([H])[H])C([H])([H])[H])C(C([H])([H])[H])(C([H])([H])[H])C([H])([H])[H])C([H])([H])c2c([H])c(OC(=O)c3c([H])c([H])c(OC(=O)N4C([H])([H])C([H])([H])C([H])([H])C([H])(n5nc(-c6c([H])c([H])c(Oc7c([H])c([H])c(F)c([H])c7F)c([H])c6[H])c(C(=O)N([H])[H])c5N([H])[H])C4([H])[H])c([H])c3[H])c([H])c([H])c2C1([H])[H]

$$$$
1:0:0
     RDKit          3D

 99106  0  0  1  0  0  0  0  0999 V2000
  -30.6050  -22.6760   17.7980 C   0  0  0  0  0  0  0  0  0  0  0  0
  -30.8070  -21.3830   17.5270 N   0  0  0  0  0  0  0  0  0  0  0  0
  -31.3940  -23.5650   17.4620 O   0  0  0  0  0  0  0  0  0  0  0  0
  -30.0800  -20.7370   17.8060 H   0  0  0  0  0  0  0  0  0  0  0  0
  -32.0870  -20.7930   17.1420 C   0  0  0  0  0  2  0  0  0  0  0  0
  -32.5680  -19.8570   18.2590 C   0  0  0  0  0  2  0  0  0  0  0  0
  -32.7040  -20.5970   19.4650 O   0  0  0  0  0  0  0  0  0  0  0  0
  -32.9910  -19.7700   20.5840 C   0  0  0  0  0  2  0  0  0  0  0  0
  -33.0850  -20.6390   21.8460 C   0  0  0  0  0  2  0  0  0  0  0  0
  -31.8200  -21.2130   22.1730 O   0  0  0  0  0  0  0  0  0  0  0  0
  -31.1180  -20.5820   23.2430 C   0  0  0  0  0  2  0  0  0  0  0  0
  -30.3570  -19.3310   22.7880 C   0  0  0  0  0  2  0  0  0  0  0  0
  -31.2310  -18.2110   22.6850 O   0  0  0  0  0  0  0  0  0  0  0  0
  -30.5800  -17.1040   22.0800 C   0  0  0  0  0  2  0  0  0  0  0  0
  -31.5520  -15.9330   21.8920 C   0  0  0  0  0  2  0  0  0  0  0  0
  -31.0890  -14.1530   20.1860 C   0  0  0  0  0  0  0  0  0  0  0  0
  -30.5270  -12.1430   18.8690 C   0  0  0  0  0  2  0  0  0  0  0  0
  -29.5590  -12.4410   17.7110 C   0  0  0  0  0  2  0  0  0  0  0  0
  -28.0960  -12.3980   18.1950 C   0  0  0  0  0  2  0  0  0  0  0  0
  -27.8660  -13.2410   19.4770 C   0  0  0  0  0  3  0  0  0  0  0  0
  -28.9290  -12.9010   20.5420 C   0  0  0  0  0  2  0  0  0  0  0  0
  -30.2690  -13.0990   19.9540 N   0  0  0  0  0  0  0  0  0  0  0  0
  -32.0490  -14.4520   19.4710 O   0  0  0  0  0  0  0  0  0  0  0  0
  -30.8370  -14.7900   21.3340 N   0  0  0  0  0  0  0  0  0  0  0  0
  -30.0450  -14.4490   21.8580 H   0  0  0  0  0  0  0  0  0  0  0  0
  -25.5270  -14.0120   20.2450 C   0  0  0  0  0  0  0  0  0  0  0  0
  -24.4270  -13.3110   20.6720 C   0  0  0  0  0  0  0  0  0  0  0  0
  -24.8090  -11.9340   20.6510 C   0  0  0  0  0  0  0  0  0  0  0  0
  -26.5090  -13.0630   19.9970 N   0  0  0  0  0  0  0  0  0  0  0  0
  -26.0800  -11.8120   20.2960 N   0  0  0  0  0  0  0  0  0  0  0  0
  -24.0170  -10.7180   20.8870 C   0  0  0  0  0  0  0  0  0  0  0  0
  -24.4270   -9.7340   21.8110 C   0  0  0  0  0  3  0  0  0  0  0  0
  -23.6380   -8.5840   22.0310 C   0  0  0  0  0  3  0  0  0  0  0  0
  -22.4230   -8.4140   21.3250 C   0  0  0  0  0  0  0  0  0  0  0  0
  -22.0330   -9.3850   20.3870 C   0  0  0  0  0  3  0  0  0  0  0  0
  -22.8240  -10.5260   20.1660 C   0  0  0  0  0  3  0  0  0  0  0  0
  -21.6040   -7.3190   21.4570 O   0  0  0  0  0  0  0  0  0  0  0  0
  -21.5580   -6.5880   22.6180 C   0  0  0  0  0  0  0  0  0  0  0  0
  -21.2600   -7.1850   23.8640 C   0  0  0  0  0  3  0  0  0  0  0  0
  -21.1540   -6.3870   25.0210 C   0  0  0  0  0  3  0  0  0  0  0  0
  -21.3400   -4.9940   24.9370 C   0  0  0  0  0  0  0  0  0  0  0  0
  -21.6320   -4.3980   23.6970 C   0  0  0  0  0  3  0  0  0  0  0  0
  -21.7390   -5.1920   22.5420 C   0  0  0  0  0  0  0  0  0  0  0  0
  -21.9990   -4.6070   21.3460 F   0  0  0  0  0  0  0  0  0  0  0  0
  -21.2330   -4.2270   26.0450 F   0  0  0  0  0  0  0  0  0  0  0  0
  -23.0710  -13.8740   20.9800 C   0  0  0  0  0  0  0  0  0  0  0  0
  -22.3300  -13.2410   21.8860 N   0  0  0  0  0  0  0  0  0  0  0  0
  -22.6730  -14.9110   20.4520 O   0  0  0  0  0  0  0  0  0  0  0  0
  -22.6530  -12.3980   22.3380 H   0  0  0  0  0  0  0  0  0  0  0  0
  -21.4210  -13.6080   22.1280 H   0  0  0  0  0  0  0  0  0  0  0  0
  -25.7690  -15.3670   20.0320 N   0  0  0  0  0  0  0  0  0  0  0  0
  -25.0740  -16.0890   20.1900 H   0  0  0  0  0  0  0  0  0  0  0  0
  -26.6270  -15.7270   19.6330 H   0  0  0  0  0  0  0  0  0  0  0  0
  -29.3600  -23.0080   18.6270 C   0  0  0  0  0  2  0  0  0  0  0  0
  -29.6250  -24.1530   19.4350 O   0  0  0  0  0  0  0  0  0  0  0  0
  -28.7470  -24.2280   20.5480 C   0  0  0  0  0  2  0  0  0  0  0  0
  -28.7230  -25.6480   21.1230 C   0  0  0  0  0  0  0  0  0  0  0  0
  -28.7600  -25.8590   22.3380 O   0  0  0  0  0  0  0  0  0  0  0  0
  -28.5360  -26.5900   20.1760 O   0  0  0  0  0  0  0  0  0  0  0  0
  -24.6620  -31.7480   23.2230 C   0  0  0  0  0  0  0  0  0  0  0  0
  -27.3760  -27.3190   20.2230 C   0  0  0  0  0  0  0  0  0  0  0  0
  -23.4830  -30.3230   21.5790 C   0  0  0  0  0  3  0  0  0  0  0  0
  -24.9680  -28.7820   20.1910 C   0  0  0  0  0  0  0  0  0  0  0  0
  -26.0060  -30.7070   21.4020 C   0  0  0  0  0  2  0  0  0  0  0  0
  -26.1130  -29.3310   20.7840 C   0  0  0  0  0  0  0  0  0  0  0  0
  -27.3250  -28.6090   20.7960 C   0  0  0  0  0  3  0  0  0  0  0  0
  -26.2180  -26.7780   19.6270 C   0  0  0  0  0  3  0  0  0  0  0  0
  -25.0120  -27.5010   19.6140 C   0  0  0  0  0  3  0  0  0  0  0  0
  -23.7140  -29.6290   20.2100 C   0  0  0  0  0  2  0  0  0  0  0  0
  -24.7350  -30.9400   22.1270 N   0  0  0  0  0  0  0  0  0  0  0  0
  -23.5730  -32.0180   23.7480 O   0  0  0  0  0  0  0  0  0  0  0  0
  -22.8270  -29.3070   22.5390 C   0  0  0  0  0  0  0  0  0  0  0  0
  -21.5050  -29.1200   22.4030 N   0  0  0  0  0  0  0  0  0  0  0  0
  -23.5070  -28.6860   23.3620 O   0  0  0  0  0  0  0  0  0  0  0  0
  -21.0190  -29.6720   21.7100 H   0  0  0  0  0  0  0  0  0  0  0  0
  -18.1320  -27.9180   22.8730 C   0  0  0  0  0  0  0  0  0  0  0  0
  -20.6850  -28.1870   23.1720 C   0  0  0  0  0  3  0  0  0  0  0  0
  -20.7980  -26.7520   22.6070 C   0  0  0  0  0  2  0  0  0  0  0  0
  -19.7080  -26.4180   21.5830 C   0  0  0  0  0  2  0  0  0  0  0  0
  -18.3190  -26.5650   22.2110 C   0  0  0  0  0  2  0  0  0  0  0  0
  -19.2420  -28.6870   23.3100 C   0  0  0  0  0  0  0  0  0  0  0  0
  -19.0150  -29.9550   23.8870 C   0  0  0  0  0  3  0  0  0  0  0  0
  -17.7070  -30.4560   24.0320 C   0  0  0  0  0  3  0  0  0  0  0  0
  -16.6100  -29.6840   23.6130 C   0  0  0  0  0  3  0  0  0  0  0  0
  -16.8220  -28.4180   23.0400 C   0  0  0  0  0  3  0  0  0  0  0  0
  -25.9370  -32.3900   23.8530 C   0  0  0  0  0  3  0  0  0  0  0  0
  -26.4640  -31.6140   25.1210 C   0  0  1  0  0  0  0  0  0  0  0  0
  -25.3720  -31.3520   26.1850 C   0  0  0  0  0  1  0  0  0  0  0  0
  -27.0650  -30.2480   24.7160 C   0  0  0  0  0  1  0  0  0  0  0  0
  -27.6070  -32.4150   25.7900 C   0  0  0  0  0  1  0  0  0  0  0  0
  -25.6100  -33.7820   24.1920 N   0  0  0  0  0  0  0  0  0  0  0  0
  -25.9300  -34.8410   23.4360 C   0  0  0  0  0  0  0  0  0  0  0  0
  -26.6020  -34.7520   22.4040 O   0  0  0  0  0  0  0  0  0  0  0  0
  -25.0140  -33.9250   24.9930 H   0  0  0  0  0  0  0  0  0  0  0  0
  -24.1710  -36.6040   23.0910 C   0  0  0  0  0  1  0  0  0  0  0  0
  -25.4210  -36.2200   23.8980 C   0  0  0  0  0  3  0  0  0  0  0  0
  -27.5500  -37.1300   24.7160 C   0  0  0  0  0  1  0  0  0  0  0  0
  -26.4360  -37.2900   23.7850 N   0  0  0  0  0  0  0  0  0  0  0  0
  -26.0180  -38.2020   23.9450 H   0  0  0  0  0  0  0  0  0  0  0  0
  1 54  1  0
  2  1  1  0
  2  4  1  0
  3  1  2  0
  5  2  1  0
  5  6  1  0
  6  7  1  0
  7  8  1  0
  8  9  1  0
  9 10  1  0
 10 11  1  0
 12 11  1  0
 13 12  1  0
 14 13  1  0
 15 14  1  0
 16 24  1  0
 17 22  1  0
 18 19  1  0
 18 17  1  0
 20 19  1  0
 20 29  1  0
 20 21  1  0
 22 16  1  0
 22 21  1  0
 23 16  2  0
 24 25  1  0
 24 15  1  0
 26 27  2  0
 27 46  1  0
 28 27  1  0
 28 31  1  0
 29 26  1  0
 29 30  1  0
 30 28  2  0
 31 32  1  0
 32 33  2  0
 34 37  1  0
 34 33  1  0
 35 34  2  0
 36 35  1  0
 36 31  2  0
 37 38  1  0
 38 39  1  0
 39 40  2  0
 41 40  1  0
 41 45  1  0
 42 41  2  0
 43 38  2  0
 43 42  1  0
 44 43  1  0
 46 47  1  0
 47 50  1  0
 47 49  1  0
 48 46  2  0
 51 52  1  0
 51 26  1  0
 53 51  1  0
 54 55  1  0
 55 56  1  0
 56 57  1  0
 57 58  2  0
 59 61  1  0
 59 57  1  0
 60 71  2  0
 61 66  1  0
 62 70  1  0
 62 72  1  0
 63 69  1  0
 63 65  1  0
 64 70  1  0
 65 66  2  0
 65 64  1  0
 67 61  2  0
 68 67  1  0
 68 63  2  0
 69 62  1  0
 70 60  1  0
 72 74  2  0
 73 72  1  0
 75 73  1  0
 76 85  2  0
 76 81  1  0
 77 73  1  0
 77 81  1  0
 78 77  1  0
 79 80  1  0
 79 78  1  0
 80 76  1  0
 81 82  2  0
 82 83  1  0
 84 83  2  0
 85 84  1  0
 86 60  1  0
 86 91  1  0
 86 87  1  0
 87 90  1  1
 87 88  1  0
 89 87  1  0
 91 94  1  0
 92 96  1  0
 92 91  1  0
 93 92  2  0
 96 95  1  0
 98 96  1  0
 98 99  1  0
 98 97  1  0
M  ISO  4  16 100  24 100  57 101  59 101
M  END
>  <TORSDO>  (2) 
F 31

>  <SCORE>  (2) 
-9.776

>  <name>  (2) 
1

>  <ligand_id>  (2) 
1

>  <original_smiles>  (2) 
[H]c1c([H])c([H])c2c(c1[H])C([H])([H])C([H])([H])C([H])([H])C2([H])N([H])C(=O)C1([H])N(C(=O)C([H])(N([H])C(=O)C([H])(N([H])C([H])([H])[H])C([H])([H])[H])C(C([H])([H])[H])(C([H])([H])[H])C([H])([H])[H])C([H])([H])c2c([H])c(OC(=O)C([H])([H])OC([H])([H])C(=O)N([H])C([H])([H])C([H])([H])OC([H])([H])C([H])([H])OC([H])([H])C([H])([H])OC([H])([H])C([H])([H])N([H])C(=O)N3C([H])([H])C([H])([H])C([H])([H])C([H])(n4nc(-c5c([H])c([H])c(Oc6c([H])c([H])c(F)c([H])c6F)c([H])c5[H])c(C(=O)N([H])[H])c4N([H])[H])C3([H])[H])c([H])c([H])c2C1([H])[H]

>  <smiles>  (2) 
[H]c1c([H])c([H])c2c(c1[H])C([H])([H])C([H])([H])C([H])([H])C2([H])N([H])C(=O)C1([H])N(C(=O)C([H])(N([H])C(=O)C([H])(N([H])C([H])([H])[H])C([H])([H])[H])C(C([H])([H])[H])(C([H])([H])[H])C([H])([H])[H])C([H])([H])c2c([H])c(OC(=O)C([H])([H])OC([H])([H])C(=O)N([H])C([H])([H])C([H])([H])OC([H])([H])C([H])([H])OC([H])([H])C([H])([H])OC([H])([H])C([H])([H])N([H])C(=O)N3C([H])([H])C([H])([H])C([H])([H])C([H])(n4nc(-c5c([H])c([H])c(Oc6c([H])c([H])c(F)c([H])c6F)c([H])c5[H])c(C(=O)N([H])[H])c4N([H])[H])C3([H])[H])c([H])c([H])c2C1([H])[H]

$$$$
2:0:0
     RDKit          3D

 87 94  0  0  1  0  0  0  0  0999 V2000
  -29.1130  -22.7980   20.1480 O   0  0  0  0  0  0  0  0  0  0  0  0
  -29.2650  -24.1800   20.5710 C   0  0  0  0  0  2  0  0  0  0  0  0
  -28.1950  -25.1410   19.9510 C   0  0  0  0  0  2  0  0  0  0  0  0
  -28.3440  -26.5690   20.2300 O   0  0  0  0  0  0  0  0  0  0  0  0
  -24.6030  -31.8820   23.2540 C   0  0  0  0  0  0  0  0  0  0  0  0
  -27.2030  -27.3700   20.1730 C   0  0  0  0  0  0  0  0  0  0  0  0
  -23.3880  -30.4910   21.6140 C   0  0  0  0  0  3  0  0  0  0  0  0
  -24.8290  -28.9470   20.1790 C   0  0  0  0  0  0  0  0  0  0  0  0
  -25.9230  -30.8160   21.4190 C   0  0  0  0  0  2  0  0  0  0  0  0
  -25.9960  -29.4430   20.7740 C   0  0  0  0  0  0  0  0  0  0  0  0
  -27.1840  -28.6630   20.7670 C   0  0  0  0  0  3  0  0  0  0  0  0
  -26.0140  -26.9200   19.5460 C   0  0  0  0  0  3  0  0  0  0  0  0
  -24.8370  -27.6890   19.5590 C   0  0  0  0  0  3  0  0  0  0  0  0
  -23.5920  -29.8180   20.2320 C   0  0  0  0  0  2  0  0  0  0  0  0
  -24.6560  -31.0790   22.1530 N   0  0  0  0  0  0  0  0  0  0  0  0
  -23.5240  -32.1610   23.7950 O   0  0  0  0  0  0  0  0  0  0  0  0
  -22.7290  -29.4710   22.5730 C   0  0  0  0  0  0  0  0  0  0  0  0
  -21.4040  -29.2960   22.4460 N   0  0  0  0  0  0  0  0  0  0  0  0
  -23.4090  -28.8420   23.3890 O   0  0  0  0  0  0  0  0  0  0  0  0
  -20.9160  -29.8550   21.7610 H   0  0  0  0  0  0  0  0  0  0  0  0
  -18.0240  -28.1080   22.9390 C   0  0  0  0  0  0  0  0  0  0  0  0
  -20.5820  -28.3620   23.2170 C   0  0  0  0  0  3  0  0  0  0  0  0
  -20.6820  -26.9290   22.6440 C   0  0  0  0  0  2  0  0  0  0  0  0
  -19.5830  -26.6070   21.6270 C   0  0  0  0  0  2  0  0  0  0  0  0
  -18.2000  -26.7570   22.2670 C   0  0  0  0  0  2  0  0  0  0  0  0
  -19.1430  -28.8680   23.3700 C   0  0  0  0  0  0  0  0  0  0  0  0
  -18.9250  -30.1340   23.9590 C   0  0  0  0  0  3  0  0  0  0  0  0
  -17.6220  -30.6390   24.1180 C   0  0  0  0  0  3  0  0  0  0  0  0
  -16.5170  -29.8760   23.7040 C   0  0  0  0  0  3  0  0  0  0  0  0
  -16.7190  -28.6120   23.1200 C   0  0  0  0  0  3  0  0  0  0  0  0
  -25.8930  -32.5060   23.8720 C   0  0  0  0  0  3  0  0  0  0  0  0
  -26.4080  -31.7310   25.1470 C   0  0  1  0  0  0  0  0  0  0  0  0
  -25.3180  -31.5010   26.2190 C   0  0  0  0  0  1  0  0  0  0  0  0
  -26.9820  -30.3500   24.7520 C   0  0  0  0  0  1  0  0  0  0  0  0
  -27.5640  -32.5190   25.8080 C   0  0  0  0  0  1  0  0  0  0  0  0
  -25.5920  -33.9060   24.2030 N   0  0  0  0  0  0  0  0  0  0  0  0
  -25.9250  -34.9570   23.4410 C   0  0  0  0  0  0  0  0  0  0  0  0
  -26.5890  -34.8480   22.4060 O   0  0  0  0  0  0  0  0  0  0  0  0
  -25.0030  -34.0650   25.0080 H   0  0  0  0  0  0  0  0  0  0  0  0
  -24.2020  -36.7560   23.0930 C   0  0  0  0  0  1  0  0  0  0  0  0
  -25.4460  -36.3470   23.8980 C   0  0  0  0  0  3  0  0  0  0  0  0
  -27.5900  -37.2240   24.7140 C   0  0  0  0  0  1  0  0  0  0  0  0
  -26.4820  -37.3950   23.7780 N   0  0  0  0  0  0  0  0  0  0  0  0
  -26.0800  -38.3170   23.9270 H   0  0  0  0  0  0  0  0  0  0  0  0
  -29.8660  -21.8260   20.9130 C   0  0  0  0  0  2  0  0  0  0  0  0
  -29.9940  -20.3890   20.2800 C   0  0  0  0  0  2  0  0  0  0  0  0
  -29.6060  -19.3250   21.1790 O   0  0  0  0  0  0  0  0  0  0  0  0
  -30.3560  -18.0820   21.1900 C   0  0  0  0  0  2  0  0  0  0  0  0
  -29.9920  -17.0260   20.1000 C   0  0  0  0  0  2  0  0  0  0  0  0
  -30.6580  -14.5630   20.1340 C   0  0  0  0  0  0  0  0  0  0  0  0
  -30.3320  -12.3860   19.0110 C   0  0  0  0  0  2  0  0  0  0  0  0
  -29.3420  -12.5990   17.8440 C   0  0  0  0  0  2  0  0  0  0  0  0
  -27.8850  -12.4670   18.3310 C   0  0  0  0  0  2  0  0  0  0  0  0
  -27.6040  -13.2910   19.6150 C   0  0  0  0  0  3  0  0  0  0  0  0
  -28.7030  -13.0590   20.6790 C   0  0  0  0  0  2  0  0  0  0  0  0
  -30.0040  -13.3660   20.0610 N   0  0  0  0  0  0  0  0  0  0  0  0
  -31.7760  -14.7380   19.6440 O   0  0  0  0  0  0  0  0  0  0  0  0
  -29.9110  -15.6090   20.5580 N   0  0  0  0  0  0  0  0  0  0  0  0
  -29.0360  -15.3490   20.9880 H   0  0  0  0  0  0  0  0  0  0  0  0
  -25.2410  -13.9170   20.4180 C   0  0  0  0  0  0  0  0  0  0  0  0
  -24.1800  -13.1550   20.8240 C   0  0  0  0  0  0  0  0  0  0  0  0
  -24.6260  -11.7980   20.7700 C   0  0  0  0  0  0  0  0  0  0  0  0
  -26.2680  -13.0270   20.1440 N   0  0  0  0  0  0  0  0  0  0  0  0
  -25.9040  -11.7470   20.4140 N   0  0  0  0  0  0  0  0  0  0  0  0
  -23.8950  -10.5420   20.9820 C   0  0  0  0  0  0  0  0  0  0  0  0
  -24.3570   -9.5630   21.8880 C   0  0  0  0  0  3  0  0  0  0  0  0
  -23.6260   -8.3710   22.0880 C   0  0  0  0  0  3  0  0  0  0  0  0
  -22.4190   -8.1520   21.3830 C   0  0  0  0  0  0  0  0  0  0  0  0
  -21.9750   -9.1210   20.4660 C   0  0  0  0  0  3  0  0  0  0  0  0
  -22.7060  -10.3040   20.2640 C   0  0  0  0  0  3  0  0  0  0  0  0
  -21.6570   -7.0150   21.4950 O   0  0  0  0  0  0  0  0  0  0  0  0
  -21.6560   -6.2580   22.6390 C   0  0  0  0  0  0  0  0  0  0  0  0
  -21.3040   -6.8040   23.8930 C   0  0  0  0  0  3  0  0  0  0  0  0
  -21.2500   -5.9740   25.0310 C   0  0  0  0  0  3  0  0  0  0  0  0
  -21.5350   -4.6010   24.9170 C   0  0  0  0  0  0  0  0  0  0  0  0
  -21.8800   -4.0550   23.6680 C   0  0  0  0  0  3  0  0  0  0  0  0
  -21.9370   -4.8820   22.5310 C   0  0  0  0  0  0  0  0  0  0  0  0
  -22.2490   -4.3460   21.3260 F   0  0  0  0  0  0  0  0  0  0  0  0
  -21.4760   -3.8020   26.0080 F   0  0  0  0  0  0  0  0  0  0  0  0
  -22.7990  -13.6450   21.1510 C   0  0  0  0  0  0  0  0  0  0  0  0
  -22.0980  -12.9520   22.0420 N   0  0  0  0  0  0  0  0  0  0  0  0
  -22.3520  -14.6760   20.6520 O   0  0  0  0  0  0  0  0  0  0  0  0
  -22.4730  -12.1180   22.4680 H   0  0  0  0  0  0  0  0  0  0  0  0
  -21.1730  -13.2630   22.3040 H   0  0  0  0  0  0  0  0  0  0  0  0
  -25.4140  -15.2870   20.2390 N   0  0  0  0  0  0  0  0  0  0  0  0
  -24.6560  -15.9470   20.3780 H   0  0  0  0  0  0  0  0  0  0  0  0
  -26.2510  -15.7180   19.8670 H   0  0  0  0  0  0  0  0  0  0  0  0
  1  2  1  0
  1 45  1  0
  3  4  1  0
  3  2  1  0
  5 16  2  0
  6  4  1  0
  6 11  1  0
  7 15  1  0
  7 17  1  0
  8 14  1  0
  8 10  1  0
  9 15  1  0
 10  9  1  0
 11 10  2  0
 12 13  1  0
 12  6  2  0
 13  8  2  0
 14  7  1  0
 15  5  1  0
 17 19  2  0
 18 17  1  0
 20 18  1  0
 21 30  2  0
 21 26  1  0
 22 18  1  0
 22 26  1  0
 23 22  1  0
 24 25  1  0
 24 23  1  0
 25 21  1  0
 26 27  2  0
 27 28  1  0
 29 28  2  0
 30 29  1  0
 31  5  1  0
 31 36  1  0
 31 32  1  0
 32 35  1  1
 32 33  1  0
 34 32  1  0
 36 39  1  0
 37 41  1  0
 37 36  1  0
 38 37  2  0
 41 40  1  0
 43 41  1  0
 43 44  1  0
 43 42  1  0
 46 45  1  0
 46 47  1  0
 47 48  1  0
 49 58  1  0
 49 48  1  0
 50 58  1  0
 51 56  1  0
 52 53  1  0
 52 51  1  0
 54 53  1  0
 54 63  1  0
 54 55  1  0
 56 50  1  0
 56 55  1  0
 57 50  2  0
 58 59  1  0
 60 61  2  0
 61 80  1  0
 62 61  1  0
 62 65  1  0
 63 64  1  0
 63 60  1  0
 64 62  2  0
 65 66  1  0
 66 67  2  0
 68 71  1  0
 68 67  1  0
 69 68  2  0
 70 69  1  0
 70 65  2  0
 71 72  1  0
 72 73  1  0
 73 74  2  0
 75 74  1  0
 75 79  1  0
 76 75  2  0
 77 72  2  0
 77 76  1  0
 78 77  1  0
 80 81  1  0
 81 84  1  0
 81 83  1  0
 82 80  2  0
 85 86  1  0
 85 60  1  0
 87 85  1  0
M  ISO  4   3 101   4 101  50 100  58 100
M  END
>  <TORSDO>  (3) 
F 23

>  <SCORE>  (3) 
-12.462

>  <name>  (3) 
2

>  <ligand_id>  (3) 
2

>  <original_smiles>  (3) 
[H]c1c([H])c([H])c2c(c1[H])C([H])([H])C([H])([H])C([H])([H])C2([H])N([H])C(=O)C1([H])N(C(=O)C([H])(N([H])C(=O)C([H])(N([H])C([H])([H])[H])C([H])([H])[H])C(C([H])([H])[H])(C([H])([H])[H])C([H])([H])[H])C([H])([H])c2c([H])c(OC([H])([H])C([H])([H])OC([H])([H])C([H])([H])OC([H])([H])C([H])([H])N([H])C(=O)N3C([H])([H])C([H])([H])C([H])([H])C([H])(n4nc(-c5c([H])c([H])c(Oc6c([H])c([H])c(F)c([H])c6F)c([H])c5[H])c(C(=O)N([H])[H])c4N([H])[H])C3([H])[H])c([H])c([H])c2C1([H])[H]

>  <smiles>  (3) 
[H]c1c([H])c([H])c2c(c1[H])C([H])([H])C([H])([H])C([H])([H])C2([H])N([H])C(=O)C1([H])N(C(=O)C([H])(N([H])C(=O)C([H])(N([H])C([H])([H])[H])C([H])([H])[H])C(C([H])([H])[H])(C([H])([H])[H])C([H])([H])[H])C([H])([H])c2c([H])c(OC([H])([H])C([H])([H])OC([H])([H])C([H])([H])OC([H])([H])C([H])([H])N([H])C(=O)N3C([H])([H])C([H])([H])C([H])([H])C([H])(n4nc(-c5c([H])c([H])c(Oc6c([H])c([H])c(F)c([H])c6F)c([H])c5[H])c(C(=O)N([H])[H])c4N([H])[H])C3([H])[H])c([H])c([H])c2C1([H])[H]

$$$$
3:0:0
     RDKit          3D

 90 98  0  0  1  0  0  0  0  0999 V2000
  -29.6470  -22.0000   20.6810 C   0  0  0  0  0  2  0  0  0  0  0  0
  -28.8430  -23.3070   20.4230 C   0  0  0  0  0  2  0  0  0  0  0  0
  -29.4090  -24.5650   21.1330 C   0  0  0  0  0  2  0  0  0  0  0  0
  -28.4280  -25.7610   21.2880 C   0  0  0  0  0  2  0  0  0  0  0  0
  -28.3950  -26.6750   20.1820 O   0  0  0  0  0  0  0  0  0  0  0  0
  -24.6030  -31.8870   23.2550 C   0  0  0  0  0  0  0  0  0  0  0  0
  -27.2580  -27.4510   20.1750 C   0  0  0  0  0  0  0  0  0  0  0  0
  -23.4000  -30.4840   21.6100 C   0  0  0  0  0  3  0  0  0  0  0  0
  -24.8610  -28.9510   20.1840 C   0  0  0  0  0  0  0  0  0  0  0  0
  -25.9260  -30.8480   21.4150 C   0  0  0  0  0  2  0  0  0  0  0  0
  -26.0170  -29.4770   20.7750 C   0  0  0  0  0  0  0  0  0  0  0  0
  -27.2210  -28.7340   20.7710 C   0  0  0  0  0  3  0  0  0  0  0  0
  -26.0900  -26.9400   19.5750 C   0  0  0  0  0  3  0  0  0  0  0  0
  -24.8920  -27.6800   19.5810 C   0  0  0  0  0  3  0  0  0  0  0  0
  -23.6130  -29.8050   20.2300 C   0  0  0  0  0  2  0  0  0  0  0  0
  -24.6610  -31.0880   22.1520 N   0  0  0  0  0  0  0  0  0  0  0  0
  -23.5210  -32.1570   23.7950 O   0  0  0  0  0  0  0  0  0  0  0  0
  -22.7500  -29.4620   22.5700 C   0  0  0  0  0  0  0  0  0  0  0  0
  -21.4250  -29.2810   22.4440 N   0  0  0  0  0  0  0  0  0  0  0  0
  -23.4330  -28.8350   23.3830 O   0  0  0  0  0  0  0  0  0  0  0  0
  -20.9340  -29.8390   21.7590 H   0  0  0  0  0  0  0  0  0  0  0  0
  -18.0480  -28.0940   22.9460 C   0  0  0  0  0  0  0  0  0  0  0  0
  -20.6080  -28.3420   23.2120 C   0  0  0  0  0  3  0  0  0  0  0  0
  -20.7040  -26.9130   22.6290 C   0  0  0  0  0  2  0  0  0  0  0  0
  -19.5980  -26.5980   21.6170 C   0  0  0  0  0  2  0  0  0  0  0  0
  -18.2190  -26.7450   22.2650 C   0  0  0  0  0  2  0  0  0  0  0  0
  -19.1710  -28.8500   23.3770 C   0  0  0  0  0  0  0  0  0  0  0  0
  -18.9580  -30.1110   23.9730 C   0  0  0  0  0  3  0  0  0  0  0  0
  -17.6550  -30.6170   24.1430 C   0  0  0  0  0  3  0  0  0  0  0  0
  -16.5470  -29.8580   23.7300 C   0  0  0  0  0  3  0  0  0  0  0  0
  -16.7450  -28.5970   23.1380 C   0  0  0  0  0  3  0  0  0  0  0  0
  -25.8880  -32.5190   23.8760 C   0  0  0  0  0  3  0  0  0  0  0  0
  -25.5820  -33.9190   24.1980 N   0  0  0  0  0  0  0  0  0  0  0  0
  -25.9200  -34.9670   23.4350 C   0  0  0  0  0  0  0  0  0  0  0  0
  -26.5950  -34.8560   22.4080 O   0  0  0  0  0  0  0  0  0  0  0  0
  -24.9840  -34.0790   24.9950 H   0  0  0  0  0  0  0  0  0  0  0  0
  -24.1980  -36.7610   23.0600 C   0  0  0  0  0  1  0  0  0  0  0  0
  -25.4320  -36.3580   23.8820 C   0  0  0  0  0  3  0  0  0  0  0  0
  -27.5650  -37.2390   24.7230 C   0  0  0  0  0  1  0  0  0  0  0  0
  -26.4680  -37.4080   23.7730 N   0  0  0  0  0  0  0  0  0  0  0  0
  -26.0630  -38.3290   23.9180 H   0  0  0  0  0  0  0  0  0  0  0  0
  -26.4030  -31.7510   25.1540 C   0  0  1  0  0  0  0  0  0  0  0  0
  -25.3110  -31.5170   26.2230 C   0  0  0  0  0  1  0  0  0  0  0  0
  -26.9860  -30.3720   24.7650 C   0  0  0  0  0  1  0  0  0  0  0  0
  -27.5550  -32.5450   25.8150 C   0  0  0  0  0  1  0  0  0  0  0  0
  -29.0300  -20.9170   19.9790 O   0  0  0  0  0  0  0  0  0  0  0  0
  -28.8060  -17.2360   19.9120 C   0  0  0  0  0  3  0  0  0  0  0  0
  -30.6640  -17.8150   21.3650 C   0  0  0  0  0  3  0  0  0  0  0  0
  -28.5840  -18.6040   19.6560 C   0  0  0  0  0  3  0  0  0  0  0  0
  -30.4340  -19.1910   21.1090 C   0  0  0  0  0  3  0  0  0  0  0  0
  -29.8440  -16.8240   20.7750 C   0  0  0  0  0  0  0  0  0  0  0  0
  -29.3730  -19.6040   20.2610 C   0  0  0  0  0  0  0  0  0  0  0  0
  -30.6440  -14.5020   20.4870 C   0  0  0  0  0  0  0  0  0  0  0  0
  -30.3760  -12.3470   19.3070 C   0  0  0  0  0  2  0  0  0  0  0  0
  -29.4250  -12.5620   18.1100 C   0  0  0  0  0  2  0  0  0  0  0  0
  -27.9510  -12.4190   18.5390 C   0  0  0  0  0  2  0  0  0  0  0  0
  -27.6180  -13.2380   19.8150 C   0  0  0  0  0  3  0  0  0  0  0  0
  -28.6750  -12.9850   20.9140 C   0  0  0  0  0  2  0  0  0  0  0  0
  -30.0010  -13.3070   20.3570 N   0  0  0  0  0  0  0  0  0  0  0  0
  -31.7510  -14.7300   19.9870 O   0  0  0  0  0  0  0  0  0  0  0  0
  -29.9400  -15.4470   21.1360 N   0  0  0  0  0  0  0  0  0  0  0  0
  -29.0990  -15.0650   21.5410 H   0  0  0  0  0  0  0  0  0  0  0  0
  -25.2150  -13.8540   20.5080 C   0  0  0  0  0  0  0  0  0  0  0  0
  -24.1460  -13.0850   20.8810 C   0  0  0  0  0  0  0  0  0  0  0  0
  -24.6070  -11.7330   20.8590 C   0  0  0  0  0  0  0  0  0  0  0  0
  -26.2620  -12.9700   20.2890 N   0  0  0  0  0  0  0  0  0  0  0  0
  -25.8970  -11.6900   20.5550 N   0  0  0  0  0  0  0  0  0  0  0  0
  -23.8800  -10.4720   21.0550 C   0  0  0  0  0  0  0  0  0  0  0  0
  -24.3150   -9.5080   21.9910 C   0  0  0  0  0  3  0  0  0  0  0  0
  -23.5900   -8.3120   22.1750 C   0  0  0  0  0  3  0  0  0  0  0  0
  -22.4170   -8.0700   21.4220 C   0  0  0  0  0  0  0  0  0  0  0  0
  -22.0000   -9.0230   20.4760 C   0  0  0  0  0  3  0  0  0  0  0  0
  -22.7250  -10.2120   20.2900 C   0  0  0  0  0  3  0  0  0  0  0  0
  -21.6630   -6.9250   21.5150 O   0  0  0  0  0  0  0  0  0  0  0  0
  -21.6230   -6.1820   22.6680 C   0  0  0  0  0  0  0  0  0  0  0  0
  -21.2060   -6.7360   23.8980 C   0  0  0  0  0  3  0  0  0  0  0  0
  -21.1130   -5.9190   25.0420 C   0  0  0  0  0  3  0  0  0  0  0  0
  -21.4270   -4.5480   24.9580 C   0  0  0  0  0  0  0  0  0  0  0  0
  -21.8360   -3.9950   23.7320 C   0  0  0  0  0  3  0  0  0  0  0  0
  -21.9310   -4.8090   22.5890 C   0  0  0  0  0  0  0  0  0  0  0  0
  -22.3070   -4.2660   21.4070 F   0  0  0  0  0  0  0  0  0  0  0  0
  -21.3300   -3.7620   26.0540 F   0  0  0  0  0  0  0  0  0  0  0  0
  -22.7480  -13.5650   21.1490 C   0  0  0  0  0  0  0  0  0  0  0  0
  -22.0180  -12.8730   22.0170 N   0  0  0  0  0  0  0  0  0  0  0  0
  -22.3110  -14.5880   20.6230 O   0  0  0  0  0  0  0  0  0  0  0  0
  -22.3840  -12.0450   22.4640 H   0  0  0  0  0  0  0  0  0  0  0  0
  -21.0810  -13.1780   22.2390 H   0  0  0  0  0  0  0  0  0  0  0  0
  -25.3780  -15.2240   20.3220 N   0  0  0  0  0  0  0  0  0  0  0  0
  -24.6070  -15.8740   20.4240 H   0  0  0  0  0  0  0  0  0  0  0  0
  -26.2270  -15.6660   19.9960 H   0  0  0  0  0  0  0  0  0  0  0  0
  2  1  1  0
  2  3  1  0
  3  4  1  0
  5  4  1  0
  6 17  2  0
  7  5  1  0
  7 12  1  0
  8 16  1  0
  8 18  1  0
  9 15  1  0
  9 11  1  0
 10 16  1  0
 11 10  1  0
 12 11  2  0
 13 14  1  0
 13  7  2  0
 14  9  2  0
 15  8  1  0
 16  6  1  0
 18 20  2  0
 19 18  1  0
 21 19  1  0
 22 31  2  0
 22 27  1  0
 23 19  1  0
 23 27  1  0
 24 23  1  0
 25 26  1  0
 25 24  1  0
 26 22  1  0
 27 28  2  0
 28 29  1  0
 30 29  2  0
 31 30  1  0
 32  6  1  0
 32 33  1  0
 32 42  1  0
 33 36  1  0
 34 38  1  0
 34 33  1  0
 35 34  2  0
 38 37  1  0
 40 38  1  0
 40 41  1  0
 40 39  1  0
 42 45  1  1
 42 43  1  0
 44 42  1  0
 46 52  1  0
 46  1  1  0
 47 51  1  0
 49 47  2  0
 49 52  1  0
 50 48  1  0
 51 61  1  0
 51 48  2  0
 52 50  2  0
 53 61  1  0
 54 59  1  0
 55 56  1  0
 55 54  1  0
 57 56  1  0
 57 66  1  0
 57 58  1  0
 59 53  1  0
 59 58  1  0
 60 53  2  0
 61 62  1  0
 63 64  2  0
 64 83  1  0
 65 64  1  0
 65 68  1  0
 66 63  1  0
 66 67  1  0
 67 65  2  0
 68 69  1  0
 69 70  2  0
 71 74  1  0
 71 70  1  0
 72 71  2  0
 73 72  1  0
 73 68  2  0
 74 75  1  0
 75 76  1  0
 76 77  2  0
 78 77  1  0
 78 82  1  0
 79 78  2  0
 80 75  2  0
 80 79  1  0
 81 80  1  0
 83 84  1  0
 84 87  1  0
 84 86  1  0
 85 83  2  0
 88 89  1  0
 88 63  1  0
 90 88  1  0
M  ISO  4   4 101   5 101  53 100  61 100
M  END
>  <TORSDO>  (4) 
F 21

>  <SCORE>  (4) 
-13.693

>  <name>  (4) 
3

>  <ligand_id>  (4) 
3

>  <original_smiles>  (4) 
[H]c1c([H])c([H])c2c(c1[H])C([H])([H])C([H])([H])C([H])([H])C2([H])N([H])C(=O)C1([H])N(C(=O)C([H])(N([H])C(=O)C([H])(N([H])C([H])([H])[H])C([H])([H])[H])C(C([H])([H])[H])(C([H])([H])[H])C([H])([H])[H])C([H])([H])c2c([H])c(OC([H])([H])C([H])([H])C([H])([H])C([H])([H])Oc3c([H])c([H])c(N([H])C(=O)N4C([H])([H])C([H])([H])C([H])([H])C([H])(n5nc(-c6c([H])c([H])c(Oc7c([H])c([H])c(F)c([H])c7F)c([H])c6[H])c(C(=O)N([H])[H])c5N([H])[H])C4([H])[H])c([H])c3[H])c([H])c([H])c2C1([H])[H]

>  <smiles>  (4) 
[H]c1c([H])c([H])c2c(c1[H])C([H])([H])C([H])([H])C([H])([H])C2([H])N([H])C(=O)C1([H])N(C(=O)C([H])(N([H])C(=O)C([H])(N([H])C([H])([H])[H])C([H])([H])[H])C(C([H])([H])[H])(C([H])([H])[H])C([H])([H])[H])C([H])([H])c2c([H])c(OC([H])([H])C([H])([H])C([H])([H])C([H])([H])Oc3c([H])c([H])c(N([H])C(=O)N4C([H])([H])C([H])([H])C([H])([H])C([H])(n5nc(-c6c([H])c([H])c(Oc7c([H])c([H])c(F)c([H])c7F)c([H])c6[H])c(C(=O)N([H])[H])c5N([H])[H])C4([H])[H])c([H])c3[H])c([H])c([H])c2C1([H])[H]

$$$$
4:0:0
     RDKit          3D

102109  0  0  1  0  0  0  0  0999 V2000
  -25.3220  -26.8910   16.0800 C   0  0  0  0  0  2  0  0  0  0  0  0
  -24.8490  -25.6260   15.3560 C   0  0  0  0  0  2  0  0  0  0  0  0
  -24.7130  -24.6040   16.3330 O   0  0  0  0  0  0  0  0  0  0  0  0
  -24.2700  -23.3680   15.7960 C   0  0  0  0  0  2  0  0  0  0  0  0
  -24.2990  -22.3070   16.9040 C   0  0  0  0  0  2  0  0  0  0  0  0
  -25.7210  -21.9950   17.4010 C   0  0  0  0  0  2  0  0  0  0  0  0
  -25.7530  -20.8350   18.4040 C   0  0  0  0  0  2  0  0  0  0  0  0
  -27.1040  -20.5430   18.7320 O   0  0  0  0  0  0  0  0  0  0  0  0
  -27.2250  -19.4490   19.6310 C   0  0  0  0  0  2  0  0  0  0  0  0
  -28.7150  -19.1380   19.8270 C   0  0  0  0  0  2  0  0  0  0  0  0
  -28.9650  -17.9470   20.7690 C   0  0  0  0  0  2  0  0  0  0  0  0
  -30.4650  -17.6480   20.9420 C   0  0  0  0  0  2  0  0  0  0  0  0
  -30.7710  -16.5190   21.9470 C   0  0  0  0  0  2  0  0  0  0  0  0
  -30.7480  -14.3820   20.6580 C   0  0  0  0  0  0  0  0  0  0  0  0
  -30.4180  -12.2880   19.3960 C   0  0  0  0  0  2  0  0  0  0  0  0
  -29.4830  -12.5180   18.1920 C   0  0  0  0  0  2  0  0  0  0  0  0
  -28.0070  -12.3790   18.6100 C   0  0  0  0  0  2  0  0  0  0  0  0
  -27.6660  -13.2010   19.8800 C   0  0  0  0  0  3  0  0  0  0  0  0
  -28.7040  -12.9400   20.9930 C   0  0  0  0  0  2  0  0  0  0  0  0
  -30.0440  -13.2390   20.4530 N   0  0  0  0  0  0  0  0  0  0  0  0
  -31.8020  -14.6460   20.0710 O   0  0  0  0  0  0  0  0  0  0  0  0
  -30.2110  -15.2310   21.5440 N   0  0  0  0  0  0  0  0  0  0  0  0
  -29.3530  -14.9370   21.9870 H   0  0  0  0  0  0  0  0  0  0  0  0
  -25.2610  -13.8160   20.5680 C   0  0  0  0  0  0  0  0  0  0  0  0
  -24.1850  -13.0440   20.9170 C   0  0  0  0  0  0  0  0  0  0  0  0
  -24.6390  -11.6910   20.8720 C   0  0  0  0  0  0  0  0  0  0  0  0
  -26.3040  -12.9320   20.3390 N   0  0  0  0  0  0  0  0  0  0  0  0
  -25.9310  -11.6470   20.5760 N   0  0  0  0  0  0  0  0  0  0  0  0
  -23.9050  -10.4300   21.0410 C   0  0  0  0  0  0  0  0  0  0  0  0
  -24.3610   -9.4220   21.9180 C   0  0  0  0  0  3  0  0  0  0  0  0
  -23.6290   -8.2250   22.0760 C   0  0  0  0  0  3  0  0  0  0  0  0
  -22.4270   -8.0280   21.3540 C   0  0  0  0  0  0  0  0  0  0  0  0
  -21.9910   -9.0260   20.4650 C   0  0  0  0  0  3  0  0  0  0  0  0
  -22.7230  -10.2130   20.3060 C   0  0  0  0  0  3  0  0  0  0  0  0
  -21.6640   -6.8880   21.4240 O   0  0  0  0  0  0  0  0  0  0  0  0
  -21.6850   -6.0740   22.5280 C   0  0  0  0  0  0  0  0  0  0  0  0
  -21.4010   -6.5640   23.8210 C   0  0  0  0  0  3  0  0  0  0  0  0
  -21.3660   -5.6790   24.9180 C   0  0  0  0  0  3  0  0  0  0  0  0
  -21.6040   -4.3050   24.7230 C   0  0  0  0  0  0  0  0  0  0  0  0
  -21.8820   -3.8150   23.4340 C   0  0  0  0  0  3  0  0  0  0  0  0
  -21.9190   -4.6970   22.3400 C   0  0  0  0  0  0  0  0  0  0  0  0
  -22.1660   -4.2150   21.0980 F   0  0  0  0  0  0  0  0  0  0  0  0
  -21.5630   -3.4540   25.7740 F   0  0  0  0  0  0  0  0  0  0  0  0
  -22.7870  -13.5250   21.1840 C   0  0  0  0  0  0  0  0  0  0  0  0
  -22.0510  -12.8240   22.0390 N   0  0  0  0  0  0  0  0  0  0  0  0
  -22.3560  -14.5560   20.6690 O   0  0  0  0  0  0  0  0  0  0  0  0
  -22.4110  -11.9900   22.4770 H   0  0  0  0  0  0  0  0  0  0  0  0
  -21.1130  -13.1290   22.2600 H   0  0  0  0  0  0  0  0  0  0  0  0
  -25.4360  -15.1880   20.4090 N   0  0  0  0  0  0  0  0  0  0  0  0
  -24.6750  -15.8490   20.5210 H   0  0  0  0  0  0  0  0  0  0  0  0
  -26.2980  -15.6200   20.1000 H   0  0  0  0  0  0  0  0  0  0  0  0
  -25.6510  -28.0680   15.1580 C   0  0  0  0  0  2  0  0  0  0  0  0
  -26.2160  -29.0820   15.9730 O   0  0  0  0  0  0  0  0  0  0  0  0
  -26.7440  -30.1810   15.2460 C   0  0  0  0  0  2  0  0  0  0  0  0
  -27.5110  -31.0750   16.2290 C   0  0  0  0  0  2  0  0  0  0  0  0
  -28.6200  -30.3350   16.7200 O   0  0  0  0  0  0  0  0  0  0  0  0
  -29.4330  -31.0590   17.6320 C   0  0  0  0  0  2  0  0  0  0  0  0
  -30.4430  -30.0800   18.2400 C   0  0  0  0  0  2  0  0  0  0  0  0
  -29.7580  -29.2580   19.1740 O   0  0  0  0  0  0  0  0  0  0  0  0
  -30.3860  -28.0040   19.3930 C   0  0  0  0  0  2  0  0  0  0  0  0
  -29.6440  -27.2110   20.4830 C   0  0  0  0  0  2  0  0  0  0  0  0
  -28.3940  -26.7060   20.0120 O   0  0  0  0  0  0  0  0  0  0  0  0
  -24.6080  -31.8720   23.2130 C   0  0  0  0  0  0  0  0  0  0  0  0
  -27.2590  -27.4860   20.0930 C   0  0  0  0  0  0  0  0  0  0  0  0
  -23.3930  -30.4930   21.5540 C   0  0  0  0  0  3  0  0  0  0  0  0
  -24.8420  -28.9590   20.1250 C   0  0  0  0  0  0  0  0  0  0  0  0
  -25.9130  -30.8580   21.3530 C   0  0  0  0  0  2  0  0  0  0  0  0
  -25.9950  -29.4920   20.7100 C   0  0  0  0  0  0  0  0  0  0  0  0
  -27.2010  -28.7640   20.7000 C   0  0  0  0  0  3  0  0  0  0  0  0
  -26.0810  -26.9550   19.5260 C   0  0  0  0  0  3  0  0  0  0  0  0
  -24.8740  -27.6820   19.5390 C   0  0  0  0  0  3  0  0  0  0  0  0
  -23.6010  -29.8210   20.1690 C   0  0  0  0  0  2  0  0  0  0  0  0
  -24.6560  -31.0880   22.0990 N   0  0  0  0  0  0  0  0  0  0  0  0
  -23.5290  -32.1450   23.7570 O   0  0  0  0  0  0  0  0  0  0  0  0
  -22.7380  -29.4660   22.5040 C   0  0  0  0  0  0  0  0  0  0  0  0
  -21.4120  -29.2990   22.3770 N   0  0  0  0  0  0  0  0  0  0  0  0
  -23.4170  -28.8230   23.3080 O   0  0  0  0  0  0  0  0  0  0  0  0
  -20.9260  -29.8700   21.6990 H   0  0  0  0  0  0  0  0  0  0  0  0
  -18.0280  -28.1350   22.8490 C   0  0  0  0  0  0  0  0  0  0  0  0
  -20.5850  -28.3610   23.1340 C   0  0  0  0  0  3  0  0  0  0  0  0
  -20.6760  -26.9360   22.5410 C   0  0  0  0  0  2  0  0  0  0  0  0
  -19.5760  -26.6370   21.5180 C   0  0  0  0  0  2  0  0  0  0  0  0
  -18.1920  -26.7920   22.1580 C   0  0  0  0  0  2  0  0  0  0  0  0
  -19.1520  -28.8800   23.2920 C   0  0  0  0  0  0  0  0  0  0  0  0
  -18.9440  -30.1420   23.8920 C   0  0  0  0  0  3  0  0  0  0  0  0
  -17.6440  -30.6560   24.0540 C   0  0  0  0  0  3  0  0  0  0  0  0
  -16.5340  -29.9050   23.6310 C   0  0  0  0  0  3  0  0  0  0  0  0
  -16.7270  -28.6470   23.0340 C   0  0  0  0  0  3  0  0  0  0  0  0
  -25.8990  -32.4850   23.8420 C   0  0  0  0  0  3  0  0  0  0  0  0
  -26.4480  -31.6620   25.0710 C   0  0  1  0  0  0  0  0  0  0  0  0
  -25.3790  -31.3680   26.1480 C   0  0  0  0  0  1  0  0  0  0  0  0
  -27.0270  -30.3080   24.5990 C   0  0  0  0  0  1  0  0  0  0  0  0
  -27.6070  -32.4330   25.7450 C   0  0  0  0  0  1  0  0  0  0  0  0
  -25.5880  -33.8650   24.2350 N   0  0  0  0  0  0  0  0  0  0  0  0
  -25.9020  -34.9480   23.5140 C   0  0  0  0  0  0  0  0  0  0  0  0
  -26.5570  -34.8930   22.4690 O   0  0  0  0  0  0  0  0  0  0  0  0
  -25.0020  -33.9840   25.0490 H   0  0  0  0  0  0  0  0  0  0  0  0
  -24.1490  -36.7340   23.2640 C   0  0  0  0  0  1  0  0  0  0  0  0
  -25.4100  -36.3120   24.0350 C   0  0  0  0  0  3  0  0  0  0  0  0
  -27.5590  -37.1810   24.8460 C   0  0  0  0  0  1  0  0  0  0  0  0
  -26.4280  -37.3800   23.9430 N   0  0  0  0  0  0  0  0  0  0  0  0
  -26.0160  -38.2870   24.1440 H   0  0  0  0  0  0  0  0  0  0  0  0
  2  1  1  0
  2  3  1  0
  4  3  1  0
  4  5  1  0
  5  6  1  0
  6  7  1  0
  7  8  1  0
  8  9  1  0
  9 10  1  0
 10 11  1  0
 11 12  1  0
 12 13  1  0
 14 22  1  0
 15 20  1  0
 16 17  1  0
 16 15  1  0
 18 17  1  0
 18 27  1  0
 18 19  1  0
 20 14  1  0
 20 19  1  0
 21 14  2  0
 22 13  1  0
 22 23  1  0
 24 25  2  0
 25 44  1  0
 26 25  1  0
 26 29  1  0
 27 24  1  0
 27 28  1  0
 28 26  2  0
 29 30  1  0
 30 31  2  0
 32 35  1  0
 32 31  1  0
 33 32  2  0
 34 33  1  0
 34 29  2  0
 35 36  1  0
 36 37  1  0
 37 38  2  0
 39 38  1  0
 39 43  1  0
 40 39  2  0
 41 36  2  0
 41 40  1  0
 42 41  1  0
 44 45  1  0
 45 48  1  0
 45 47  1  0
 46 44  2  0
 49 50  1  0
 49 24  1  0
 51 49  1  0
 52 53  1  0
 52  1  1  0
 54 53  1  0
 54 55  1  0
 55 56  1  0
 56 57  1  0
 57 58  1  0
 58 59  1  0
 59 60  1  0
 60 61  1  0
 62 64  1  0
 62 61  1  0
 63 74  2  0
 64 69  1  0
 65 73  1  0
 65 75  1  0
 66 72  1  0
 66 68  1  0
 67 73  1  0
 68 67  1  0
 69 68  2  0
 70 71  1  0
 70 64  2  0
 71 66  2  0
 72 65  1  0
 73 63  1  0
 75 77  2  0
 76 75  1  0
 78 76  1  0
 79 88  2  0
 79 84  1  0
 80 76  1  0
 80 84  1  0
 81 80  1  0
 82 83  1  0
 82 81  1  0
 83 79  1  0
 84 85  2  0
 85 86  1  0
 87 86  2  0
 88 87  1  0
 89 63  1  0
 89 94  1  0
 89 90  1  0
 90 93  1  1
 90 91  1  0
 92 90  1  0
 94 97  1  0
 95 99  1  0
 95 94  1  0
 96 95  2  0
 99 98  1  0
101 99  1  0
101102  1  0
101100  1  0
M  ISO  4  14 100  22 100  61 101  62 101
M  END
>  <TORSDO>  (5) 
F 38

>  <SCORE>  (5) 
2.336

>  <name>  (5) 
4

>  <ligand_id>  (5) 
4

>  <original_smiles>  (5) 
[H]c1c([H])c([H])c2c(c1[H])C([H])([H])C([H])([H])C([H])([H])C2([H])N([H])C(=O)C1([H])N(C(=O)C([H])(N([H])C(=O)C([H])(N([H])C([H])([H])[H])C([H])([H])[H])C(C([H])([H])[H])(C([H])([H])[H])C([H])([H])[H])C([H])([H])c2c([H])c(OC([H])([H])C([H])([H])OC([H])([H])C([H])([H])OC([H])([H])C([H])([H])OC([H])([H])C([H])([H])C([H])([H])OC([H])([H])C([H])([H])C([H])([H])C([H])([H])OC([H])([H])C([H])([H])C([H])([H])C([H])([H])C([H])([H])N([H])C(=O)N3C([H])([H])C([H])([H])C([H])([H])C([H])(n4nc(-c5c([H])c([H])c(Oc6c([H])c([H])c(F)c([H])c6F)c([H])c5[H])c(C(=O)N([H])[H])c4N([H])[H])C3([H])[H])c([H])c([H])c2C1([H])[H]

>  <smiles>  (5) 
[H]c1c([H])c([H])c2c(c1[H])C([H])([H])C([H])([H])C([H])([H])C2([H])N([H])C(=O)C1([H])N(C(=O)C([H])(N([H])C(=O)C([H])(N([H])C([H])([H])[H])C([H])([H])[H])C(C([H])([H])[H])(C([H])([H])[H])C([H])([H])[H])C([H])([H])c2c([H])c(OC([H])([H])C([H])([H])OC([H])([H])C([H])([H])OC([H])([H])C([H])([H])OC([H])([H])C([H])([H])C([H])([H])OC([H])([H])C([H])([H])C([H])([H])C([H])([H])OC([H])([H])C([H])([H])C([H])([H])C([H])([H])C([H])([H])N([H])C(=O)N3C([H])([H])C([H])([H])C([H])([H])C([H])(n4nc(-c5c([H])c([H])c(Oc6c([H])c([H])c(F)c([H])c6F)c([H])c5[H])c(C(=O)N([H])[H])c4N([H])[H])C3([H])[H])c([H])c([H])c2C1([H])[H]

$$$$
5:0:0
     RDKit          3D

 97102  0  0  1  0  0  0  0  0999 V2000
  -31.3220  -22.8670   20.5630 C   0  0  0  0  0  2  0  0  0  0  0  0
  -27.7220  -25.5410   25.0620 C   0  0  0  0  0  1  0  0  0  0  0  0
  -28.6720  -27.0840   23.0400 C   0  0  0  0  0  1  0  0  0  0  0  0
  -28.4660  -23.9730   25.0010 C   0  0  0  0  0  2  0  0  0  0  0  0
  -29.9830  -25.9470   22.2410 C   0  0  0  0  0  2  0  0  0  0  0  0
  -29.4590  -23.2950   23.8030 C   0  0  0  0  0  0  0  0  0  0  0  0
  -30.1750  -24.1410   22.6020 C   0  0  0  0  0  0  0  0  0  0  0  0
  -30.1650  -21.2910   22.1860 C   0  0  0  0  0  3  0  0  0  0  0  0
  -29.5740  -21.7660   23.4390 N   0  0  0  0  0  0  0  0  0  0  0  0
  -30.5580  -22.7560   21.7990 N   0  0  0  0  0  0  0  0  0  0  0  0
  -30.4800  -19.3910   21.2140 C   0  0  0  0  0 15  0  0  0  0  0  0
  -30.6700  -15.8450   20.4510 C   0  0  0  0  0  0  0  0  0  0  0  0
  -30.6390  -13.2580   19.2530 C   0  0  0  0  0  2  0  0  0  0  0  0
  -29.7410  -12.7660   18.0460 C   0  0  0  0  0  2  0  0  0  0  0  0
  -28.3570  -12.3120   18.5130 C   0  0  0  0  0  2  0  0  0  0  0  0
  -27.8720  -13.2710   19.6120 C   0  0  0  0  0  3  0  0  0  0  0  0
  -28.9230  -13.6240   20.7230 C   0  0  0  0  0  2  0  0  0  0  0  0
  -30.0520  -14.4490   20.1360 N   0  0  0  0  0  0  0  0  0  0  0  0
  -31.8730  -15.5670   20.1870 O   0  0  0  0  0  0  0  0  0  0  0  0
  -30.1380  -17.4340   20.8610 N   0  0  0  0  0  2  0  0  0  0  0  0
  -29.1390  -17.3250   20.9720 H   0  0  0  0  0  0  0  0  0  0  0  0
  -25.5290  -13.8220   20.3610 C   0  0  0  0  0  0  0  0  0  0  0  0
  -24.4520  -13.0740   20.7390 C   0  0  0  0  0  0  0  0  0  0  0  0
  -24.8860  -11.7120   20.7200 C   0  0  0  0  0  0  0  0  0  0  0  0
  -26.5540  -12.9290   20.1350 N   0  0  0  0  0  0  0  0  0  0  0  0
  -26.1810  -11.6460   20.4030 N   0  0  0  0  0  0  0  0  0  0  0  0
  -24.1140  -10.4750   20.9280 C   0  0  0  0  0  0  0  0  0  0  0  0
  -24.4050   -9.5870   21.9870 C   0  0  0  0  0  3  0  0  0  0  0  0
  -23.6280   -8.4230   22.1830 C   0  0  0  0  0  3  0  0  0  0  0  0
  -22.5440   -8.1390   21.3190 C   0  0  0  0  0  0  0  0  0  0  0  0
  -22.2690   -9.0150   20.2540 C   0  0  0  0  0  3  0  0  0  0  0  0
  -23.0470  -10.1700   20.0570 C   0  0  0  0  0  3  0  0  0  0  0  0
  -21.7540   -7.0190   21.4160 O   0  0  0  0  0  0  0  0  0  0  0  0
  -21.4760   -6.4350   22.6260 C   0  0  0  0  0  0  0  0  0  0  0  0
  -20.8210   -7.1390   23.6590 C   0  0  0  0  0  3  0  0  0  0  0  0
  -20.4920   -6.4800   24.8620 C   0  0  0  0  0  3  0  0  0  0  0  0
  -20.8090   -5.1190   25.0290 C   0  0  0  0  0  0  0  0  0  0  0  0
  -21.4590   -4.4150   24.0000 C   0  0  0  0  0  3  0  0  0  0  0  0
  -21.7880   -5.0710   22.8010 C   0  0  0  0  0  0  0  0  0  0  0  0
  -22.3940   -4.3830   21.8030 F   0  0  0  0  0  0  0  0  0  0  0  0
  -20.4890   -4.4840   26.1800 F   0  0  0  0  0  0  0  0  0  0  0  0
  -23.0720  -13.5980   21.0030 C   0  0  0  0  0  0  0  0  0  0  0  0
  -22.3380  -12.9600   21.9050 N   0  0  0  0  0  0  0  0  0  0  0  0
  -22.6600  -14.6140   20.4450 O   0  0  0  0  0  0  0  0  0  0  0  0
  -22.6820  -12.1380   22.3770 H   0  0  0  0  0  0  0  0  0  0  0  0
  -21.4130  -13.3010   22.1280 H   0  0  0  0  0  0  0  0  0  0  0  0
  -25.7270  -15.1850   20.1580 N   0  0  0  0  0  0  0  0  0  0  0  0
  -24.9830  -15.8670   20.2540 H   0  0  0  0  0  0  0  0  0  0  0  0
  -26.5880  -15.5830   19.8040 H   0  0  0  0  0  0  0  0  0  0  0  0
  -30.6900  -23.7680   19.4850 C   0  0  0  0  0  2  0  0  0  0  0  0
  -31.2280  -23.3650   18.2290 O   0  0  0  0  0  0  0  0  0  0  0  0
  -30.5180  -23.7820   17.0630 C   0  0  0  0  0  2  0  0  0  0  0  0
  -29.1120  -23.1660   16.9460 C   0  0  0  0  0  2  0  0  0  0  0  0
  -28.1930  -24.1990   16.6100 O   0  0  0  0  0  0  0  0  0  0  0  0
  -26.8530  -23.9180   16.9800 C   0  0  0  0  0  2  0  0  0  0  0  0
  -25.9810  -25.1530   16.7370 C   0  0  0  0  0  2  0  0  0  0  0  0
  -26.4930  -26.3190   17.4050 O   0  0  0  0  0  0  0  0  0  0  0  0
  -24.6020  -32.1480   23.5080 C   0  0  0  0  0  0  0  0  0  0  0  0
  -25.7560  -26.7570   18.4730 C   0  0  0  0  0  2  0  0  0  0  0  0
  -23.1310  -31.0600   21.9040 C   0  0  0  0  0  3  0  0  0  0  0  0
  -24.3580  -29.7120   19.9570 C   0  0  0  0  0  0  0  0  0  0  0  0
  -25.6920  -30.7250   21.6670 C   0  0  0  0  0  2  0  0  0  0  0  0
  -25.5250  -29.2580   21.0170 C   0  0  0  0  0  3  0  0  0  0  0  0
  -26.4930  -27.6300   20.8080 C   0  0  0  0  0  1  0  0  0  0  0  0
  -24.6070  -27.7670   17.8180 C   0  0  0  0  0  3  0  0  0  0  0  0
  -24.0190  -29.0690   18.5470 C   0  0  0  0  0  3  0  0  0  0  0  0
  -23.2290  -30.6910   20.4010 C   0  0  0  0  0  3  0  0  0  0  0  0
  -24.5060  -31.3680   22.3870 N   0  0  0  0  0  0  0  0  0  0  0  0
  -23.6080  -32.4550   24.1900 O   0  0  0  0  0  0  0  0  0  0  0  0
  -22.4770  -29.9510   22.7780 C   0  0  0  0  0  0  0  0  0  0  0  0
  -21.1730  -29.6450   22.6130 N   0  0  0  0  0  0  0  0  0  0  0  0
  -23.1620  -29.3830   23.6310 O   0  0  0  0  0  0  0  0  0  0  0  0
  -20.6440  -30.1550   21.9200 H   0  0  0  0  0  0  0  0  0  0  0  0
  -18.0750  -27.7150   22.8470 C   0  0  0  0  0  0  0  0  0  0  0  0
  -20.4580  -28.5910   23.3570 C   0  0  0  0  0  3  0  0  0  0  0  0
  -20.9450  -27.1860   22.9340 C   0  0  0  0  0  2  0  0  0  0  0  0
  -20.0850  -26.5570   21.8340 C   0  0  0  0  0  2  0  0  0  0  0  0
  -18.6350  -26.4100   22.3050 C   0  0  0  0  0  2  0  0  0  0  0  0
  -18.9290  -28.7470   23.3240 C   0  0  0  0  0  0  0  0  0  0  0  0
  -18.3500  -29.9430   23.7980 C   0  0  0  0  0  3  0  0  0  0  0  0
  -16.9530  -30.1230   23.7920 C   0  0  0  0  0  3  0  0  0  0  0  0
  -16.1150  -29.0960   23.3250 C   0  0  0  0  0  3  0  0  0  0  0  0
  -16.6740  -27.8940   22.8590 C   0  0  0  0  0  3  0  0  0  0  0  0
  -25.9810  -32.6850   23.9700 C   0  0  0  0  0  3  0  0  0  0  0  0
  -26.5770  -31.8690   25.1880 C   0  0  1  0  0  0  0  0  0  0  0  0
  -25.5430  -31.6170   26.3080 C   0  0  0  0  0  1  0  0  0  0  0  0
  -27.1370  -30.4790   24.8220 C   0  0  0  0  0  1  0  0  0  0  0  0
  -27.7800  -32.6440   25.7720 C   0  0  0  0  0  1  0  0  0  0  0  0
  -25.8090  -34.1040   24.3620 N   0  0  0  0  0  0  0  0  0  0  0  0
  -26.2730  -35.1700   23.6920 C   0  0  0  0  0  0  0  0  0  0  0  0
  -26.9480  -35.0670   22.6660 O   0  0  0  0  0  0  0  0  0  0  0  0
  -25.2260  -34.2720   25.1670 H   0  0  0  0  0  0  0  0  0  0  0  0
  -24.8480  -37.2340   23.4050 C   0  0  0  0  0  1  0  0  0  0  0  0
  -25.9450  -36.5710   24.2550 C   0  0  0  0  0  3  0  0  0  0  0  0
  -28.1150  -37.0400   25.3100 C   0  0  0  0  0  1  0  0  0  0  0  0
  -27.1190  -37.4720   24.3340 N   0  0  0  0  0  0  0  0  0  0  0  0
  -26.8340  -38.4170   24.5720 H   0  0  0  0  0  0  0  0  0  0  0  0
  1 10  1  0
  4  2  1  0
  5  7  1  0
  5  3  1  0
  6  4  1  0
  7  6  2  0
  8  9  2  0
  9  6  1  0
 10  8  1  0
 10  7  1  0
 12 20  1  0
 13 18  1  0
 14 15  1  0
 14 13  1  0
 16 15  1  0
 16 25  1  0
 16 17  1  0
 18 12  1  0
 18 17  1  0
 19 12  2  0
 20 21  1  0
 22 23  2  0
 23 42  1  0
 24 23  1  0
 24 27  1  0
 25 22  1  0
 25 26  1  0
 26 24  2  0
 27 28  1  0
 28 29  2  0
 30 33  1  0
 30 29  1  0
 31 30  2  0
 32 31  1  0
 32 27  2  0
 33 34  1  0
 34 39  2  0
 34 35  1  0
 35 36  2  0
 36 37  1  0
 37 41  1  0
 38 37  2  0
 39 38  1  0
 40 39  1  0
 42 43  1  0
 43 46  1  0
 43 45  1  0
 44 42  2  0
 47 48  1  0
 47 22  1  0
 49 47  1  0
 50  1  1  0
 51 50  1  0
 52 51  1  0
 53 52  1  0
 54 53  1  0
 54 55  1  0
 56 55  1  0
 56 57  1  0
 57 59  1  0
 58 69  2  0
 60 68  1  0
 60 70  1  0
 61 67  2  0
 61 63  1  0
 62 68  1  0
 63 64  1  0
 63 62  1  0
 65 59  1  0
 65 66  2  0
 66 61  1  0
 67 60  1  0
 68 58  1  0
 70 72  2  0
 71 70  1  0
 73 71  1  0
 74 83  2  0
 74 79  1  0
 75 71  1  0
 76 75  1  0
 77 78  1  0
 77 76  1  0
 78 74  1  0
 79 75  1  0
 79 80  2  0
 81 80  1  0
 82 81  2  0
 83 82  1  0
 84 58  1  0
 84 89  1  0
 84 85  1  0
 85 88  1  1
 85 86  1  0
 87 85  1  0
 89 92  1  0
 90 94  1  0
 90 89  1  0
 91 90  2  0
 94 93  1  0
 94 96  1  0
 96 97  1  0
 96 95  1  0
M  ISO  4  12 100  20 100  56 101  57 101
M  END
>  <TORSDO>  (6) 
F 25

>  <SCORE>  (6) 
-8.476

>  <name>  (6) 
5

>  <ligand_id>  (6) 
5

>  <original_smiles>  (6) 
[H]c1c([H])c([H])c2c(c1[H])C([H])([H])C([H])([H])C([H])([H])C2([H])N([H])C(=O)C1([H])N(C(=O)C([H])(N([H])C(=O)C([H])(N([H])C([H])([H])[H])C([H])([H])[H])C(C([H])([H])[H])(C([H])([H])[H])C([H])([H])[H])C([H])([H])c2c([H])c(OC([H])([H])C([H])([H])OC([H])([H])C([H])([H])OC([H])([H])C([H])([H])n3c(C([H])([H])N([H])C(=O)N4C([H])([H])C([H])([H])C([H])([H])C([H])(n5nc(-c6c([H])c([H])c(Oc7c([H])c([H])c(F)c([H])c7F)c([H])c6[H])c(C(=O)N([H])[H])c5N([H])[H])C4([H])[H])nc4c([H])c([H])c([H])c([H])c43)c([H])c([H])c2C1([H])[H]

>  <smiles>  (6) 
[H]c1c([H])c([H])c2c(c1[H])C([H])([H])C([H])([H])C([H])([H])C2([H])N([H])C(=O)C1([H])N(C(=O)C([H])(N([H])C(=O)C([H])(N([H])C([H])([H])[H])C([H])([H])[H])C(C([H])([H])[H])(C([H])([H])[H])C([H])([H])[H])C([H])([H])c2c([H])c(OC([H])([H])C([H])([H])OC([H])([H])C([H])([H])OC([H])([H])C([H])([H])n3c(C([H])([H])N([H])C(=O)N4C([H])([H])C([H])([H])C([H])([H])C([H])(n5nc(-c6c([H])c([H])c(Oc7c([H])c([H])c(F)c([H])c7F)c([H])c6[H])c(C(=O)N([H])[H])c5N([H])[H])C4([H])[H])nc4c([H])c([H])c([H])c([H])c43)c([H])c([H])c2C1([H])[H]

$$$$
6:0:0
     RDKit          3D

 97105  0  0  1  0  0  0  0  0999 V2000
  -30.6410  -25.9580   21.6460 C   0  0  0  0  0  3  0  0  0  0  0  0
  -31.5360  -25.0620   19.5770 C   0  0  0  0  0  3  0  0  0  0  0  0
  -30.5200  -25.0730   20.5540 C   0  0  0  0  0  0  0  0  0  0  0  0
  -32.8170  -26.7540   20.8160 C   0  0  0  0  0  0  0  0  0  0  0  0
  -31.7820  -26.7760   21.7810 C   0  0  0  0  0  0  0  0  0  0  0  0
  -32.6760  -25.8780   19.7000 C   0  0  0  0  0  0  0  0  0  0  0  0
  -31.9120  -27.7970   23.1690 Cl  0  0  0  0  0  0  0  0  0  0  0  0
  -33.8660  -25.6930   18.4580 Cl  0  0  0  0  0  0  0  0  0  0  0  0
  -29.3160  -24.1910   20.4100 C   0  0  0  0  0  0  0  0  0  0  0  0
  -29.1230  -23.2990   21.3950 N   0  0  0  0  0  0  0  0  0  0  0  0
  -28.5450  -24.3300   19.4600 O   0  0  0  0  0  0  0  0  0  0  0  0
  -29.8030  -23.2940   22.1410 H   0  0  0  0  0  0  0  0  0  0  0  0
  -28.0240  -22.3400   21.4790 C   0  0  0  0  0  2  0  0  0  0  0  0
  -26.6570  -23.0300   21.3310 C   0  0  0  0  0  2  0  0  0  0  0  0
  -26.6830  -24.5630   21.4650 C   0  0  0  0  0  2  0  0  0  0  0  0
  -25.4930  -25.1960   20.7320 C   0  0  0  0  0  2  0  0  0  0  0  0
  -25.8670  -26.3370   19.7760 C   0  0  0  0  0  2  0  0  0  0  0  0
  -24.6280  -26.8520   19.0290 C   0  0  0  0  0  2  0  0  0  0  0  0
  -24.0990  -27.0420   16.6110 C   0  0  0  0  0  0  0  0  0  0  0  0
  -23.7020  -27.6430   14.2520 C   0  0  0  0  0  2  0  0  0  0  0  0
  -24.0800  -26.5090   13.2820 C   0  0  0  0  0  2  0  0  0  0  0  0
  -25.5770  -26.5630   12.9290 C   0  0  0  0  0  2  0  0  0  0  0  0
  -26.4830  -26.6930   14.1830 C   0  0  0  0  0  3  0  0  0  0  0  0
  -25.9730  -27.8140   15.1140 C   0  0  0  0  0  2  0  0  0  0  0  0
  -24.5610  -27.5490   15.4400 N   0  0  0  0  0  0  0  0  0  0  0  0
  -22.9630  -26.5770   16.7530 O   0  0  0  0  0  0  0  0  0  0  0  0
  -24.9400  -27.1710   17.6430 N   0  0  0  0  0  0  0  0  0  0  0  0
  -25.8250  -27.6150   17.4540 H   0  0  0  0  0  0  0  0  0  0  0  0
  -29.0350  -26.6200   14.5270 C   0  0  0  0  0  0  0  0  0  0  0  0
  -30.0810  -26.9400   13.7020 C   0  0  0  0  0  0  0  0  0  0  0  0
  -29.4950  -27.4050   12.4860 C   0  0  0  0  0  0  0  0  0  0  0  0
  -27.8830  -26.9010   13.8100 N   0  0  0  0  0  0  0  0  0  0  0  0
  -28.1710  -27.4260   12.5900 N   0  0  0  0  0  0  0  0  0  0  0  0
  -30.1120  -27.7740   11.2060 C   0  0  0  0  0  0  0  0  0  0  0  0
  -29.9300  -29.0570   10.6440 C   0  0  0  0  0  3  0  0  0  0  0  0
  -30.5480  -29.3990    9.4230 C   0  0  0  0  0  3  0  0  0  0  0  0
  -31.3610  -28.4550    8.7500 C   0  0  0  0  0  0  0  0  0  0  0  0
  -31.5180  -27.1710    9.3010 C   0  0  0  0  0  3  0  0  0  0  0  0
  -30.8980  -26.8310   10.5150 C   0  0  0  0  0  3  0  0  0  0  0  0
  -31.9810  -28.6900    7.5460 O   0  0  0  0  0  0  0  0  0  0  0  0
  -32.3130  -29.9590    7.1410 C   0  0  0  0  0  0  0  0  0  0  0  0
  -33.1530  -30.7920    7.9150 C   0  0  0  0  0  3  0  0  0  0  0  0
  -33.5240  -32.0610    7.4280 C   0  0  0  0  0  3  0  0  0  0  0  0
  -33.0670  -32.4960    6.1690 C   0  0  0  0  0  0  0  0  0  0  0  0
  -32.2380  -31.6640    5.3950 C   0  0  0  0  0  3  0  0  0  0  0  0
  -31.8640  -30.3980    5.8790 C   0  0  0  0  0  0  0  0  0  0  0  0
  -31.0820  -29.5920    5.1200 F   0  0  0  0  0  0  0  0  0  0  0  0
  -33.4330  -33.7110    5.6990 F   0  0  0  0  0  0  0  0  0  0  0  0
  -31.5400  -26.7310   13.9830 C   0  0  0  0  0  0  0  0  0  0  0  0
  -32.3980  -27.6170   13.4890 N   0  0  0  0  0  0  0  0  0  0  0  0
  -31.9260  -25.7990   14.6870 O   0  0  0  0  0  0  0  0  0  0  0  0
  -32.0830  -28.3980   12.9320 H   0  0  0  0  0  0  0  0  0  0  0  0
  -33.3870  -27.5090   13.6690 H   0  0  0  0  0  0  0  0  0  0  0  0
  -28.9660  -26.0970   15.8150 N   0  0  0  0  0  0  0  0  0  0  0  0
  -29.7940  -25.8440   16.3410 H   0  0  0  0  0  0  0  0  0  0  0  0
  -28.1030  -25.8880   16.3050 H   0  0  0  0  0  0  0  0  0  0  0  0
  -33.9390  -27.5250   21.0710 O   0  0  0  0  0  0  0  0  0  0  0  0
  -35.3580  -31.2840   15.1880 C   0  0  0  0  0  0  0  0  0  0  0  0
  -34.8120  -27.8220   20.0550 C   0  0  0  0  0  0  0  0  0  0  0  0
  -36.8610  -29.3740   15.6540 C   0  0  0  0  0  3  0  0  0  0  0  0
  -36.6440  -28.3400   17.9760 C   0  0  0  0  0  0  0  0  0  0  0  0
  -35.6770  -30.6070   17.5580 C   0  0  0  0  0  2  0  0  0  0  0  0
  -35.6880  -29.3040   18.3240 C   0  0  0  0  0  0  0  0  0  0  0  0
  -34.7590  -29.0490   19.3580 C   0  0  0  0  0  3  0  0  0  0  0  0
  -35.8150  -26.8850   19.7330 C   0  0  0  0  0  3  0  0  0  0  0  0
  -36.7120  -27.1250   18.6770 C   0  0  0  0  0  3  0  0  0  0  0  0
  -37.5820  -28.6800   16.8410 C   0  0  0  0  0  2  0  0  0  0  0  0
  -35.9160  -30.4480   16.1060 N   0  0  0  0  0  0  0  0  0  0  0  0
  -35.6490  -31.2000   13.9870 O   0  0  0  0  0  0  0  0  0  0  0  0
  -36.1840  -28.2920   14.7850 C   0  0  0  0  0  0  0  0  0  0  0  0
  -36.9910  -27.3540   14.2620 N   0  0  0  0  0  0  0  0  0  0  0  0
  -34.9630  -28.2900   14.6140 O   0  0  0  0  0  0  0  0  0  0  0  0
  -37.9820  -27.4280   14.4450 H   0  0  0  0  0  0  0  0  0  0  0  0
  -38.1080  -24.2290   12.8400 C   0  0  0  0  0  0  0  0  0  0  0  0
  -36.5750  -26.2210   13.4400 C   0  0  0  0  0  3  0  0  0  0  0  0
  -35.7510  -25.2080   14.2660 C   0  0  0  0  0  2  0  0  0  0  0  0
  -36.6040  -24.0880   14.8690 C   0  0  0  0  0  2  0  0  0  0  0  0
  -37.3300  -23.3110   13.7680 C   0  0  0  0  0  2  0  0  0  0  0  0
  -37.7640  -25.5980   12.6980 C   0  0  0  0  0  0  0  0  0  0  0  0
  -38.5430  -26.4170   11.8500 C   0  0  0  0  0  3  0  0  0  0  0  0
  -39.6410  -25.8840   11.1470 C   0  0  0  0  0  3  0  0  0  0  0  0
  -39.9680  -24.5230   11.2790 C   0  0  0  0  0  3  0  0  0  0  0  0
  -39.2020  -23.6990   12.1220 C   0  0  0  0  0  3  0  0  0  0  0  0
  -34.3510  -32.3980   15.6060 C   0  0  0  0  0  3  0  0  0  0  0  0
  -35.0540  -33.6830   15.5150 N   0  0  0  0  0  0  0  0  0  0  0  0
  -35.5760  -34.3400   16.5600 C   0  0  0  0  0  0  0  0  0  0  0  0
  -35.4490  -33.9560   17.7250 O   0  0  0  0  0  0  0  0  0  0  0  0
  -35.2500  -34.0270   14.5850 H   0  0  0  0  0  0  0  0  0  0  0  0
  -37.8720  -35.3350   16.2940 C   0  0  0  0  0  1  0  0  0  0  0  0
  -36.3640  -35.6300   16.2630 C   0  0  0  0  0  3  0  0  0  0  0  0
  -34.6970  -37.2530   17.0500 C   0  0  0  0  0  1  0  0  0  0  0  0
  -36.0550  -36.7360   17.1950 N   0  0  0  0  0  0  0  0  0  0  0  0
  -36.7040  -37.5080   17.0630 H   0  0  0  0  0  0  0  0  0  0  0  0
  -33.0400  -32.4130   14.7280 C   0  0  1  0  0  0  0  0  0  0  0  0
  -33.3150  -32.5190   13.2110 C   0  0  0  0  0  1  0  0  0  0  0  0
  -32.2040  -31.1310   14.9670 C   0  0  0  0  0  1  0  0  0  0  0  0
  -32.1500  -33.6080   15.1360 C   0  0  0  0  0  1  0  0  0  0  0  0
  1  5  1  0
  2  6  2  0
  2  3  1  0
  3  1  2  0
  4 57  1  0
  4  5  2  0
  5  7  1  0
  6  4  1  0
  8  6  1  0
  9  3  1  0
  9 10  1  0
 10 13  1  0
 10 12  1  0
 11  9  2  0
 14 15  1  0
 14 13  1  0
 16 15  1  0
 17 16  1  0
 18 17  1  0
 19 26  2  0
 19 27  1  0
 20 25  1  0
 21 20  1  0
 22 21  1  0
 23 22  1  0
 23 24  1  0
 24 25  1  0
 25 19  1  0
 27 18  1  0
 28 27  1  0
 29 54  1  0
 30 49  1  0
 30 29  2  0
 31 33  2  0
 31 30  1  0
 32 23  1  0
 32 29  1  0
 33 32  1  0
 34 31  1  0
 35 34  1  0
 36 35  2  0
 37 38  2  0
 37 36  1  0
 38 39  1  0
 39 34  2  0
 40 37  1  0
 41 40  1  0
 41 42  1  0
 43 42  2  0
 44 43  1  0
 45 46  1  0
 45 44  2  0
 46 41  2  0
 47 46  1  0
 48 44  1  0
 49 51  2  0
 50 53  1  0
 50 49  1  0
 52 50  1  0
 54 56  1  0
 54 55  1  0
 58 68  1  0
 59 57  1  0
 60 70  1  0
 60 68  1  0
 60 67  1  0
 61 63  2  0
 61 66  1  0
 62 63  1  0
 63 64  1  0
 64 59  2  0
 65 59  1  0
 66 65  2  0
 67 61  1  0
 68 62  1  0
 69 58  2  0
 71 73  1  0
 71 70  1  0
 72 70  2  0
 74 78  1  0
 75 71  1  0
 75 76  1  0
 76 77  1  0
 78 77  1  0
 79 74  1  0
 79 75  1  0
 80 79  2  0
 81 82  2  0
 81 80  1  0
 82 83  1  0
 83 74  2  0
 84 58  1  0
 85 84  1  0
 85 86  1  0
 86 87  2  0
 88 85  1  0
 90 89  1  0
 90 86  1  0
 90 92  1  0
 91 92  1  0
 93 92  1  0
 94 96  1  6
 94 97  1  0
 94 84  1  0
 95 94  1  0
M  ISO  4   4 101  19 100  27 100  57 101
M  END
>  <TORSDO>  (7) 
F 23

>  <SCORE>  (7) 
-3.293

>  <name>  (7) 
6

>  <ligand_id>  (7) 
6

>  <original_smiles>  (7) 
[H]c1c([H])c([H])c2c(c1[H])C([H])([H])C([H])([H])C([H])([H])C2([H])N([H])C(=O)C1([H])N(C(=O)C([H])(N([H])C(=O)C([H])(N([H])C([H])([H])[H])C([H])([H])[H])C(C([H])([H])[H])(C([H])([H])[H])C([H])([H])[H])C([H])([H])c2c([H])c(Oc3c(Cl)c([H])c(C(=O)N([H])C([H])([H])C([H])([H])C([H])([H])C([H])([H])C([H])([H])C([H])([H])N([H])C(=O)N4C([H])([H])C([H])([H])C([H])([H])C([H])(n5nc(-c6c([H])c([H])c(Oc7c([H])c([H])c(F)c([H])c7F)c([H])c6[H])c(C(=O)N([H])[H])c5N([H])[H])C4([H])[H])c([H])c3Cl)c([H])c([H])c2C1([H])[H]

>  <smiles>  (7) 
[H]c1c([H])c([H])c2c(c1[H])C([H])([H])C([H])([H])C([H])([H])C2([H])N([H])C(=O)C1([H])N(C(=O)C([H])(N([H])C(=O)C([H])(N([H])C([H])([H])[H])C([H])([H])[H])C(C([H])([H])[H])(C([H])([H])[H])C([H])([H])[H])C([H])([H])c2c([H])c(Oc3c(Cl)c([H])c(C(=O)N([H])C([H])([H])C([H])([H])C([H])([H])C([H])([H])C([H])([H])C([H])([H])N([H])C(=O)N4C([H])([H])C([H])([H])C([H])([H])C([H])(n5nc(-c6c([H])c([H])c(Oc7c([H])c([H])c(F)c([H])c7F)c([H])c6[H])c(C(=O)N([H])[H])c5N([H])[H])C4([H])[H])c([H])c3Cl)c([H])c([H])c2C1([H])[H]

$$$$
7:0:0
     RDKit          3D

 86 94  0  0  1  0  0  0  0  0999 V2000
  -26.5990  -21.9870   20.5570 C   0  0  0  0  0  3  0  0  0  0  0  0
  -27.4920  -20.8700   20.4110 C   0  0  0  0  0  3  0  0  0  0  0  0
  -26.9010  -23.3880   20.4480 C   0  0  0  0  0  3  0  0  0  0  0  0
  -29.1150  -22.5910   20.0270 C   0  0  0  0  0  3  0  0  0  0  0  0
  -28.8770  -20.9670   20.1300 C   0  0  0  0  0  0  0  0  0  0  0  0
  -28.1790  -23.9350   20.1660 C   0  0  0  0  0  0  0  0  0  0  0  0
  -28.2790  -25.5900   20.1230 O   0  0  0  0  0  0  0  0  0  0  0  0
  -24.7630  -31.9440   23.2280 C   0  0  0  0  0  0  0  0  0  0  0  0
  -27.3020  -26.8420   20.1480 C   0  0  0  0  0  0  0  0  0  0  0  0
  -23.5790  -30.5650   21.5730 C   0  0  0  0  0  3  0  0  0  0  0  0
  -25.0320  -28.9320   20.1320 C   0  0  0  0  0  0  0  0  0  0  0  0
  -26.1610  -30.6930   21.4570 C   0  0  0  0  0  2  0  0  0  0  0  0
  -26.2280  -29.2590   20.7800 C   0  0  0  0  0  0  0  0  0  0  0  0
  -27.3390  -28.2450   20.7580 C   0  0  0  0  0  3  0  0  0  0  0  0
  -26.0730  -26.7620   19.4350 C   0  0  0  0  0  3  0  0  0  0  0  0
  -24.9980  -27.7100   19.4360 C   0  0  0  0  0  3  0  0  0  0  0  0
  -23.8230  -29.8870   20.1930 C   0  0  0  0  0  2  0  0  0  0  0  0
  -24.8600  -31.1030   22.1390 N   0  0  0  0  0  0  0  0  0  0  0  0
  -23.6680  -32.2320   23.7440 O   0  0  0  0  0  0  0  0  0  0  0  0
  -22.8650  -29.5750   22.5330 C   0  0  0  0  0  0  0  0  0  0  0  0
  -21.5350  -29.4030   22.3990 N   0  0  0  0  0  0  0  0  0  0  0  0
  -23.5210  -28.9560   23.3740 O   0  0  0  0  0  0  0  0  0  0  0  0
  -21.0520  -29.9530   21.7010 H   0  0  0  0  0  0  0  0  0  0  0  0
  -18.1610  -28.1420   22.8970 C   0  0  0  0  0  0  0  0  0  0  0  0
  -20.7180  -28.4460   23.1580 C   0  0  0  0  0  3  0  0  0  0  0  0
  -20.8390  -27.0220   22.5650 C   0  0  0  0  0  2  0  0  0  0  0  0
  -19.7400  -26.6990   21.5470 C   0  0  0  0  0  2  0  0  0  0  0  0
  -18.3580  -26.8090   22.1950 C   0  0  0  0  0  2  0  0  0  0  0  0
  -19.2670  -28.9180   23.3350 C   0  0  0  0  0  0  0  0  0  0  0  0
  -19.0260  -30.1610   23.9580 C   0  0  0  0  0  3  0  0  0  0  0  0
  -17.7120  -30.6310   24.1450 C   0  0  0  0  0  3  0  0  0  0  0  0
  -16.6210  -29.8540   23.7180 C   0  0  0  0  0  3  0  0  0  0  0  0
  -16.8450  -28.6100   23.1020 C   0  0  0  0  0  3  0  0  0  0  0  0
  -26.0210  -32.5950   23.8780 C   0  0  0  0  0  3  0  0  0  0  0  0
  -25.6920  -33.9930   24.2280 N   0  0  0  0  0  0  0  0  0  0  0  0
  -25.9920  -35.0690   23.4880 C   0  0  0  0  0  0  0  0  0  0  0  0
  -26.6300  -34.9900   22.4360 O   0  0  0  0  0  0  0  0  0  0  0  0
  -25.1170  -34.1250   25.0480 H   0  0  0  0  0  0  0  0  0  0  0  0
  -24.2270  -36.8540   23.2530 C   0  0  0  0  0  1  0  0  0  0  0  0
  -25.5140  -36.4490   23.9900 C   0  0  0  0  0  3  0  0  0  0  0  0
  -27.6710  -37.3690   24.7270 C   0  0  0  0  0  1  0  0  0  0  0  0
  -26.5260  -37.5190   23.8330 N   0  0  0  0  0  0  0  0  0  0  0  0
  -26.1130  -38.4330   23.9970 H   0  0  0  0  0  0  0  0  0  0  0  0
  -26.5160  -31.8280   25.1680 C   0  0  1  0  0  0  0  0  0  0  0  0
  -25.4050  -31.5930   26.2190 C   0  0  0  0  0  1  0  0  0  0  0  0
  -27.1080  -30.4500   24.8040 C   0  0  0  0  0  1  0  0  0  0  0  0
  -27.6550  -32.6260   25.8460 C   0  0  0  0  0  1  0  0  0  0  0  0
  -29.8430  -19.3070   20.0050 C   0  0  0  0  0  2  0  0  0  0  0  0
  -30.4500  -16.0790   19.9870 C   0  0  0  0  0  0  0  0  0  0  0  0
  -30.6000  -13.4980   19.1790 C   0  0  0  0  0  2  0  0  0  0  0  0
  -29.6870  -12.9980   18.0180 C   0  0  0  0  0  2  0  0  0  0  0  0
  -28.3040  -12.5850   18.5390 C   0  0  0  0  0  2  0  0  0  0  0  0
  -27.7940  -13.5890   19.5940 C   0  0  0  0  0  3  0  0  0  0  0  0
  -28.8510  -13.9910   20.6540 C   0  0  0  0  0  2  0  0  0  0  0  0
  -29.9570  -14.6810   19.9380 N   0  0  0  0  0  0  0  0  0  0  0  0
  -31.6790  -16.0010   19.7760 O   0  0  0  0  0  0  0  0  0  0  0  0
  -29.6890  -17.4810   20.0810 N   0  0  0  0  0  0  0  0  0  0  0  0
  -28.7130  -17.2610   20.2160 H   0  0  0  0  0  0  0  0  0  0  0  0
  -25.4750  -14.0620   20.5010 C   0  0  0  0  0  0  0  0  0  0  0  0
  -24.4420  -13.2600   20.8920 C   0  0  0  0  0  0  0  0  0  0  0  0
  -24.9200  -11.9170   20.7870 C   0  0  0  0  0  0  0  0  0  0  0  0
  -26.5120  -13.2120   20.1720 N   0  0  0  0  0  0  0  0  0  0  0  0
  -26.1970  -11.9110   20.4090 N   0  0  0  0  0  0  0  0  0  0  0  0
  -24.2090  -10.6440   20.9650 C   0  0  0  0  0  0  0  0  0  0  0  0
  -24.6290   -9.6870   21.9140 C   0  0  0  0  0  3  0  0  0  0  0  0
  -23.9130   -8.4810   22.0820 C   0  0  0  0  0  3  0  0  0  0  0  0
  -22.7620   -8.2240   21.3010 C   0  0  0  0  0  0  0  0  0  0  0  0
  -22.3600   -9.1700   20.3410 C   0  0  0  0  0  3  0  0  0  0  0  0
  -23.0780  -10.3650   20.1710 C   0  0  0  0  0  3  0  0  0  0  0  0
  -22.0190   -7.0700   21.3780 O   0  0  0  0  0  0  0  0  0  0  0  0
  -21.8620   -6.3920   22.5600 C   0  0  0  0  0  0  0  0  0  0  0  0
  -21.2590   -6.9900   23.6880 C   0  0  0  0  0  3  0  0  0  0  0  0
  -21.0540   -6.2360   24.8600 C   0  0  0  0  0  3  0  0  0  0  0  0
  -21.4420   -4.8840   24.9050 C   0  0  0  0  0  0  0  0  0  0  0  0
  -22.0390   -4.2840   23.7810 C   0  0  0  0  0  3  0  0  0  0  0  0
  -22.2440   -5.0360   22.6110 C   0  0  0  0  0  0  0  0  0  0  0  0
  -22.7990   -4.4490   21.5240 F   0  0  0  0  0  0  0  0  0  0  0  0
  -21.2400   -4.1560   26.0280 F   0  0  0  0  0  0  0  0  0  0  0  0
  -23.0560  -13.7160   21.2400 C   0  0  0  0  0  0  0  0  0  0  0  0
  -22.3770  -12.9930   22.1220 N   0  0  0  0  0  0  0  0  0  0  0  0
  -22.5880  -14.7510   20.7680 O   0  0  0  0  0  0  0  0  0  0  0  0
  -22.7710  -12.1560   22.5260 H   0  0  0  0  0  0  0  0  0  0  0  0
  -21.4480  -13.2790   22.3970 H   0  0  0  0  0  0  0  0  0  0  0  0
  -25.6140  -15.4410   20.3640 N   0  0  0  0  0  0  0  0  0  0  0  0
  -24.8430  -16.0790   20.5290 H   0  0  0  0  0  0  0  0  0  0  0  0
  -26.4300  -15.8970   19.9770 H   0  0  0  0  0  0  0  0  0  0  0  0
  2  1  2  0
  3  1  1  0
  4  5  2  0
  4  6  1  0
  5  2  1  0
  6  3  2  0
  7  9  1  0
  7  6  1  0
  8 19  2  0
  9 14  1  0
 10 18  1  0
 10 20  1  0
 11 17  1  0
 11 13  1  0
 12 18  1  0
 13 12  1  0
 14 13  2  0
 15 16  1  0
 15  9  2  0
 16 11  2  0
 17 10  1  0
 18  8  1  0
 20 22  2  0
 21 20  1  0
 23 21  1  0
 24 33  2  0
 24 29  1  0
 25 21  1  0
 25 29  1  0
 26 25  1  0
 27 28  1  0
 27 26  1  0
 28 24  1  0
 29 30  2  0
 30 31  1  0
 32 31  2  0
 33 32  1  0
 34  8  1  0
 34 35  1  0
 34 44  1  0
 35 38  1  0
 36 40  1  0
 36 35  1  0
 37 36  2  0
 40 39  1  0
 42 40  1  0
 42 43  1  0
 42 41  1  0
 44 47  1  1
 44 45  1  0
 46 44  1  0
 48 57  1  0
 48  5  1  0
 49 57  1  0
 50 55  1  0
 51 52  1  0
 51 50  1  0
 53 52  1  0
 53 62  1  0
 53 54  1  0
 55 49  1  0
 55 54  1  0
 56 49  2  0
 57 58  1  0
 59 60  2  0
 60 79  1  0
 61 60  1  0
 61 64  1  0
 62 63  1  0
 62 59  1  0
 63 61  2  0
 64 65  1  0
 65 66  2  0
 67 70  1  0
 67 66  1  0
 68 67  2  0
 69 68  1  0
 69 64  2  0
 70 71  1  0
 71 76  2  0
 71 72  1  0
 72 73  2  0
 73 74  1  0
 74 78  1  0
 75 74  2  0
 76 75  1  0
 77 76  1  0
 79 80  1  0
 80 83  1  0
 80 82  1  0
 81 79  2  0
 84 59  1  0
 84 85  1  0
 86 84  1  0
M  ISO  4   6 101   7 101  49 100  57 100
M  END
>  <TORSDO>  (8) 
F 17

>  <SCORE>  (8) 
-15.190

>  <name>  (8) 
7

>  <ligand_id>  (8) 
7

>  <original_smiles>  (8) 
[H]c1c([H])c(Oc2c([H])c([H])c3c(c2[H])C([H])([H])N(C(=O)C([H])(N([H])C(=O)C([H])(N([H])C([H])([H])[H])C([H])([H])[H])C(C([H])([H])[H])(C([H])([H])[H])C([H])([H])[H])C([H])(C(=O)N([H])C2([H])c4c([H])c([H])c([H])c([H])c4C([H])([H])C([H])([H])C2([H])[H])C3([H])[H])c([H])c(C([H])([H])N([H])C(=O)N2C([H])([H])C([H])([H])C([H])([H])C([H])(n3nc(-c4c([H])c([H])c(Oc5c([H])c([H])c(F)c([H])c5F)c([H])c4[H])c(C(=O)N([H])[H])c3N([H])[H])C2([H])[H])c1[H]

>  <smiles>  (8) 
[H]c1c([H])c(Oc2c([H])c([H])c3c(c2[H])C([H])([H])N(C(=O)C([H])(N([H])C(=O)C([H])(N([H])C([H])([H])[H])C([H])([H])[H])C(C([H])([H])[H])(C([H])([H])[H])C([H])([H])[H])C([H])(C(=O)N([H])C2([H])c4c([H])c([H])c([H])c([H])c4C([H])([H])C([H])([H])C2([H])[H])C3([H])[H])c([H])c(C([H])([H])N([H])C(=O)N2C([H])([H])C([H])([H])C([H])([H])C([H])(n3nc(-c4c([H])c([H])c(Oc5c([H])c([H])c(F)c([H])c5F)c([H])c4[H])c(C(=O)N([H])[H])c3N([H])[H])C2([H])[H])c1[H]

$$$$
8:0:0
     RDKit          3D

 89 97  0  0  1  0  0  0  0  0999 V2000
  -30.4280  -19.7210   19.2600 C   0  0  0  0  0  3  0  0  0  0  0  0
  -29.0950  -18.9880   21.1200 C   0  0  0  0  0  3  0  0  0  0  0  0
  -29.9610  -21.0610   19.4170 C   0  0  0  0  0  3  0  0  0  0  0  0
  -28.6270  -20.3300   21.2760 C   0  0  0  0  0  3  0  0  0  0  0  0
  -30.0260  -18.6490   20.1090 C   0  0  0  0  0  0  0  0  0  0  0  0
  -29.0550  -21.4080   20.4500 C   0  0  0  0  0  0  0  0  0  0  0  0
  -30.7550  -17.2590   19.9870 C   0  0  0  0  0  2  0  0  0  0  0  0
  -30.8180  -14.7460   19.9980 C   0  0  0  0  0  0  0  0  0  0  0  0
  -30.4790  -12.5320   18.9350 C   0  0  0  0  0  2  0  0  0  0  0  0
  -29.4900  -12.6800   17.7610 C   0  0  0  0  0  2  0  0  0  0  0  0
  -28.0400  -12.5230   18.2590 C   0  0  0  0  0  2  0  0  0  0  0  0
  -27.7430  -13.3760   19.5220 C   0  0  0  0  0  3  0  0  0  0  0  0
  -28.8560  -13.2430   20.5850 C   0  0  0  0  0  2  0  0  0  0  0  0
  -30.1300  -13.5640   19.9340 N   0  0  0  0  0  0  0  0  0  0  0  0
  -31.9850  -14.8090   19.6030 O   0  0  0  0  0  0  0  0  0  0  0  0
  -30.1420  -15.9120   20.2680 N   0  0  0  0  0  0  0  0  0  0  0  0
  -29.1690  -15.8640   20.5280 H   0  0  0  0  0  0  0  0  0  0  0  0
  -25.3860  -13.9510   20.3630 C   0  0  0  0  0  0  0  0  0  0  0  0
  -24.3430  -13.1680   20.7780 C   0  0  0  0  0  0  0  0  0  0  0  0
  -24.8130  -11.8200   20.7180 C   0  0  0  0  0  0  0  0  0  0  0  0
  -26.4240  -13.0800   20.0740 N   0  0  0  0  0  0  0  0  0  0  0  0
  -26.0880  -11.7930   20.3510 N   0  0  0  0  0  0  0  0  0  0  0  0
  -24.1050  -10.5520   20.9340 C   0  0  0  0  0  0  0  0  0  0  0  0
  -24.5570   -9.6030   21.8780 C   0  0  0  0  0  3  0  0  0  0  0  0
  -23.8480   -8.3990   22.0800 C   0  0  0  0  0  3  0  0  0  0  0  0
  -22.6710   -8.1360   21.3390 C   0  0  0  0  0  0  0  0  0  0  0  0
  -22.2380   -9.0730   20.3850 C   0  0  0  0  0  3  0  0  0  0  0  0
  -22.9480  -10.2680   20.1800 C   0  0  0  0  0  3  0  0  0  0  0  0
  -21.9310   -6.9840   21.4510 O   0  0  0  0  0  0  0  0  0  0  0  0
  -21.8750   -6.2750   22.6250 C   0  0  0  0  0  0  0  0  0  0  0  0
  -21.3740   -6.8450   23.8170 C   0  0  0  0  0  3  0  0  0  0  0  0
  -21.2680   -6.0610   24.9820 C   0  0  0  0  0  3  0  0  0  0  0  0
  -21.6540   -4.7080   24.9580 C   0  0  0  0  0  0  0  0  0  0  0  0
  -22.1490   -4.1370   23.7720 C   0  0  0  0  0  3  0  0  0  0  0  0
  -22.2550   -4.9190   22.6080 C   0  0  0  0  0  0  0  0  0  0  0  0
  -22.7130   -4.3590   21.4620 F   0  0  0  0  0  0  0  0  0  0  0  0
  -21.5460   -3.9510   26.0760 F   0  0  0  0  0  0  0  0  0  0  0  0
  -22.9560  -13.6340   21.1140 C   0  0  0  0  0  0  0  0  0  0  0  0
  -22.2680  -12.9240   22.0020 N   0  0  0  0  0  0  0  0  0  0  0  0
  -22.4910  -14.6620   20.6240 O   0  0  0  0  0  0  0  0  0  0  0  0
  -22.6580  -12.0930   22.4230 H   0  0  0  0  0  0  0  0  0  0  0  0
  -21.3390  -13.2170   22.2670 H   0  0  0  0  0  0  0  0  0  0  0  0
  -25.5310  -15.3230   20.1840 N   0  0  0  0  0  0  0  0  0  0  0  0
  -24.7630  -15.9690   20.3310 H   0  0  0  0  0  0  0  0  0  0  0  0
  -26.3530  -15.7710   19.7980 H   0  0  0  0  0  0  0  0  0  0  0  0
  -28.5650  -22.7020   20.7240 O   0  0  0  0  0  0  0  0  0  0  0  0
  -28.9530  -23.9200   20.0020 C   0  0  0  0  0  2  0  0  0  0  0  0
  -28.2530  -25.2200   20.6080 C   0  0  0  0  0  2  0  0  0  0  0  0
  -28.4570  -26.5740   20.0400 O   0  0  0  0  0  0  0  0  0  0  0  0
  -24.6040  -31.8390   23.1280 C   0  0  0  0  0  0  0  0  0  0  0  0
  -27.3370  -27.4120   20.0150 C   0  0  0  0  0  0  0  0  0  0  0  0
  -23.4500  -30.4680   21.4290 C   0  0  0  0  0  3  0  0  0  0  0  0
  -24.9500  -28.9750   19.9940 C   0  0  0  0  0  0  0  0  0  0  0  0
  -25.9850  -30.8330   21.2980 C   0  0  0  0  0  2  0  0  0  0  0  0
  -26.0990  -29.4720   20.6230 C   0  0  0  0  0  0  0  0  0  0  0  0
  -27.3000  -28.7040   20.6220 C   0  0  0  0  0  3  0  0  0  0  0  0
  -26.1720  -26.9650   19.3580 C   0  0  0  0  0  3  0  0  0  0  0  0
  -24.9870  -27.7260   19.3510 C   0  0  0  0  0  3  0  0  0  0  0  0
  -23.6990  -29.8290   20.0370 C   0  0  0  0  0  2  0  0  0  0  0  0
  -24.6970  -31.0620   22.0100 N   0  0  0  0  0  0  0  0  0  0  0  0
  -23.5070  -32.0880   23.6500 O   0  0  0  0  0  0  0  0  0  0  0  0
  -22.7840  -29.4180   22.3510 C   0  0  0  0  0  0  0  0  0  0  0  0
  -21.4610  -29.2390   22.2030 N   0  0  0  0  0  0  0  0  0  0  0  0
  -23.4570  -28.7700   23.1560 O   0  0  0  0  0  0  0  0  0  0  0  0
  -20.9770  -29.8140   21.5270 H   0  0  0  0  0  0  0  0  0  0  0  0
  -18.0790  -28.0380   22.6530 C   0  0  0  0  0  0  0  0  0  0  0  0
  -20.6380  -28.2740   22.9350 C   0  0  0  0  0  3  0  0  0  0  0  0
  -20.7340  -26.8670   22.3010 C   0  0  0  0  0  2  0  0  0  0  0  0
  -19.6310  -26.5910   21.2750 C   0  0  0  0  0  2  0  0  0  0  0  0
  -18.2490  -26.7170   21.9240 C   0  0  0  0  0  2  0  0  0  0  0  0
  -19.2010  -28.7770   23.1150 C   0  0  0  0  0  0  0  0  0  0  0  0
  -18.9870  -30.0160   23.7570 C   0  0  0  0  0  3  0  0  0  0  0  0
  -17.6840  -30.5160   23.9430 C   0  0  0  0  0  3  0  0  0  0  0  0
  -16.5770  -29.7740   23.4970 C   0  0  0  0  0  3  0  0  0  0  0  0
  -16.7750  -28.5360   22.8590 C   0  0  0  0  0  3  0  0  0  0  0  0
  -25.8670  -32.4720   23.7920 C   0  0  0  0  0  3  0  0  0  0  0  0
  -26.3400  -31.7010   25.0840 C   0  0  1  0  0  0  0  0  0  0  0  0
  -25.2130  -31.4610   26.1140 C   0  0  0  0  0  1  0  0  0  0  0  0
  -26.9380  -30.3240   24.7110 C   0  0  0  0  0  1  0  0  0  0  0  0
  -27.4680  -32.4950   25.7850 C   0  0  0  0  0  1  0  0  0  0  0  0
  -25.5480  -33.8700   24.1120 N   0  0  0  0  0  0  0  0  0  0  0  0
  -25.9030  -34.9230   23.3630 C   0  0  0  0  0  0  0  0  0  0  0  0
  -26.6030  -34.8180   22.3520 O   0  0  0  0  0  0  0  0  0  0  0  0
  -24.9310  -34.0250   24.8950 H   0  0  0  0  0  0  0  0  0  0  0  0
  -24.1980  -36.7240   22.9420 C   0  0  0  0  0  1  0  0  0  0  0  0
  -25.4030  -36.3120   23.8040 C   0  0  0  0  0  3  0  0  0  0  0  0
  -27.5000  -37.1910   24.7330 C   0  0  0  0  0  1  0  0  0  0  0  0
  -26.4450  -37.3600   23.7370 N   0  0  0  0  0  0  0  0  0  0  0  0
  -26.0370  -38.2830   23.8620 H   0  0  0  0  0  0  0  0  0  0  0  0
  1  3  2  0
  1  5  1  0
  2  4  1  0
  3  6  1  0
  5  2  2  0
  6 46  1  0
  6  4  2  0
  7  5  1  0
  7 16  1  0
  8 16  1  0
  9 14  1  0
 10 11  1  0
 10  9  1  0
 12 11  1  0
 12 21  1  0
 12 13  1  0
 14  8  1  0
 14 13  1  0
 15  8  2  0
 16 17  1  0
 18 19  2  0
 19 38  1  0
 20 19  1  0
 20 23  1  0
 21 22  1  0
 21 18  1  0
 22 20  2  0
 23 24  1  0
 24 25  2  0
 26 29  1  0
 26 25  1  0
 27 26  2  0
 28 27  1  0
 28 23  2  0
 29 30  1  0
 30 31  1  0
 31 32  2  0
 33 32  1  0
 33 37  1  0
 34 33  2  0
 35 30  2  0
 35 34  1  0
 36 35  1  0
 38 39  1  0
 39 42  1  0
 39 41  1  0
 40 38  2  0
 43 44  1  0
 43 18  1  0
 45 43  1  0
 47 48  1  0
 47 46  1  0
 49 48  1  0
 50 61  2  0
 51 49  1  0
 51 56  1  0
 52 60  1  0
 52 62  1  0
 53 59  1  0
 53 55  1  0
 54 60  1  0
 55 54  1  0
 56 55  2  0
 57 51  2  0
 58 57  1  0
 58 53  2  0
 59 52  1  0
 60 50  1  0
 62 64  2  0
 63 62  1  0
 65 63  1  0
 66 75  2  0
 66 71  1  0
 67 63  1  0
 67 71  1  0
 68 67  1  0
 69 70  1  0
 69 68  1  0
 70 66  1  0
 71 72  2  0
 72 73  1  0
 74 73  2  0
 75 74  1  0
 76 50  1  0
 76 81  1  0
 76 77  1  0
 77 80  1  1
 77 78  1  0
 79 77  1  0
 81 84  1  0
 82 86  1  0
 82 81  1  0
 83 82  2  0
 86 85  1  0
 88 86  1  0
 88 89  1  0
 88 87  1  0
M  ISO  4   8 100  16 100  48 101  49 101
M  END
>  <TORSDO>  (9) 
F 20

>  <SCORE>  (9) 
-12.786

>  <name>  (9) 
8

>  <ligand_id>  (9) 
8

>  <original_smiles>  (9) 
[H]c1c([H])c([H])c2c(c1[H])C([H])([H])C([H])([H])C([H])([H])C2([H])N([H])C(=O)C1([H])N(C(=O)C([H])(N([H])C(=O)C([H])(N([H])C([H])([H])[H])C([H])([H])[H])C(C([H])([H])[H])(C([H])([H])[H])C([H])([H])[H])C([H])([H])c2c([H])c(OC([H])([H])C([H])([H])Oc3c([H])c([H])c(C([H])([H])N([H])C(=O)N4C([H])([H])C([H])([H])C([H])([H])C([H])(n5nc(-c6c([H])c([H])c(Oc7c([H])c([H])c(F)c([H])c7F)c([H])c6[H])c(C(=O)N([H])[H])c5N([H])[H])C4([H])[H])c([H])c3[H])c([H])c([H])c2C1([H])[H]

>  <smiles>  (9) 
[H]c1c([H])c([H])c2c(c1[H])C([H])([H])C([H])([H])C([H])([H])C2([H])N([H])C(=O)C1([H])N(C(=O)C([H])(N([H])C(=O)C([H])(N([H])C([H])([H])[H])C([H])([H])[H])C(C([H])([H])[H])(C([H])([H])[H])C([H])([H])[H])C([H])([H])c2c([H])c(OC([H])([H])C([H])([H])Oc3c([H])c([H])c(C([H])([H])N([H])C(=O)N4C([H])([H])C([H])([H])C([H])([H])C([H])(n5nc(-c6c([H])c([H])c(Oc7c([H])c([H])c(F)c([H])c7F)c([H])c6[H])c(C(=O)N([H])[H])c5N([H])[H])C4([H])[H])c([H])c3[H])c([H])c([H])c2C1([H])[H]

$$$$
9:0:0
     RDKit          3D

 81 85  0  0  1  0  0  0  0  0999 V2000
  -28.1610  -25.2440   20.3600 O   0  0  0  0  0  0  0  0  0  0  0  0
  -24.6650  -31.7960   23.1580 C   0  0  0  0  0  0  0  0  0  0  0  0
  -27.2130  -26.5420   20.2310 C   0  0  0  0  0  0  0  0  0  0  0  0
  -23.4910  -30.3720   21.5360 C   0  0  0  0  0  3  0  0  0  0  0  0
  -24.9510  -28.6840   20.1440 C   0  0  0  0  0  0  0  0  0  0  0  0
  -26.0760  -30.4710   21.4370 C   0  0  0  0  0  2  0  0  0  0  0  0
  -26.1460  -29.0140   20.7930 C   0  0  0  0  0  0  0  0  0  0  0  0
  -27.2460  -27.9750   20.8030 C   0  0  0  0  0  3  0  0  0  0  0  0
  -25.9860  -26.4750   19.5080 C   0  0  0  0  0  3  0  0  0  0  0  0
  -24.9220  -27.4430   19.4760 C   0  0  0  0  0  3  0  0  0  0  0  0
  -23.7450  -29.6490   20.1760 C   0  0  0  0  0  2  0  0  0  0  0  0
  -24.7700  -30.9200   22.0940 N   0  0  0  0  0  0  0  0  0  0  0  0
  -23.5660  -32.1030   23.6560 O   0  0  0  0  0  0  0  0  0  0  0  0
  -22.7620  -29.4170   22.5210 C   0  0  0  0  0  0  0  0  0  0  0  0
  -21.4270  -29.2750   22.4060 N   0  0  0  0  0  0  0  0  0  0  0  0
  -23.4140  -28.8000   23.3650 O   0  0  0  0  0  0  0  0  0  0  0  0
  -20.9480  -29.8240   21.7050 H   0  0  0  0  0  0  0  0  0  0  0  0
  -18.0380  -28.0640   22.9450 C   0  0  0  0  0  0  0  0  0  0  0  0
  -20.6000  -28.3450   23.1880 C   0  0  0  0  0  3  0  0  0  0  0  0
  -20.7000  -26.9070   22.6270 C   0  0  0  0  0  2  0  0  0  0  0  0
  -19.5950  -26.5750   21.6190 C   0  0  0  0  0  2  0  0  0  0  0  0
  -18.2160  -26.7150   22.2700 C   0  0  0  0  0  2  0  0  0  0  0  0
  -19.1560  -28.8370   23.3620 C   0  0  0  0  0  0  0  0  0  0  0  0
  -18.9300  -30.0950   23.9620 C   0  0  0  0  0  3  0  0  0  0  0  0
  -17.6220  -30.5820   24.1440 C   0  0  0  0  0  3  0  0  0  0  0  0
  -16.5200  -29.8090   23.7380 C   0  0  0  0  0  3  0  0  0  0  0  0
  -16.7290  -28.5510   23.1460 C   0  0  0  0  0  3  0  0  0  0  0  0
  -25.9150  -32.4680   23.8020 C   0  0  0  0  0  3  0  0  0  0  0  0
  -26.4200  -31.7190   25.0990 C   0  0  1  0  0  0  0  0  0  0  0  0
  -25.3160  -31.4920   26.1590 C   0  0  0  0  0  1  0  0  0  0  0  0
  -27.0160  -30.3380   24.7490 C   0  0  0  0  0  1  0  0  0  0  0  0
  -27.5610  -32.5280   25.7610 C   0  0  0  0  0  1  0  0  0  0  0  0
  -25.5730  -33.8660   24.1440 N   0  0  0  0  0  0  0  0  0  0  0  0
  -25.8880  -34.9430   23.4120 C   0  0  0  0  0  0  0  0  0  0  0  0
  -26.5480  -34.8670   22.3720 O   0  0  0  0  0  0  0  0  0  0  0  0
  -24.9800  -33.9970   24.9510 H   0  0  0  0  0  0  0  0  0  0  0  0
  -24.1280  -36.7300   23.1360 C   0  0  0  0  0  1  0  0  0  0  0  0
  -25.3970  -36.3240   23.9040 C   0  0  0  0  0  3  0  0  0  0  0  0
  -27.5400  -37.2350   24.6870 C   0  0  0  0  0  1  0  0  0  0  0  0
  -26.4120  -37.3940   23.7750 N   0  0  0  0  0  0  0  0  0  0  0  0
  -25.9960  -38.3070   23.9420 H   0  0  0  0  0  0  0  0  0  0  0  0
  -28.2670  -23.4220   19.9590 C   0  0  0  0  0  1  0  0  0  0  0  0
  -28.7490  -21.4890   20.5390 C   0  0  0  0  0 15  0  0  0  0  0  0
  -29.3330  -19.5700   20.0060 C   0  0  0  0  0  1  0  0  0  0  0  0
  -29.3110  -17.7380   20.3640 O   0  0  0  0  0  1  0  0  0  0  0  0
  -30.2340  -15.9710   20.1460 C   0  0  0  0  0  2  0  0  0  0  0  0
  -30.3470  -13.3120   19.4050 C   0  0  0  0  0  2  0  0  0  0  0  0
  -29.4930  -12.8180   18.1930 C   0  0  0  0  0  2  0  0  0  0  0  0
  -28.0820  -12.4150   18.6410 C   0  0  0  0  0  2  0  0  0  0  0  0
  -27.5250  -13.4330   19.6580 C   0  0  0  0  0  3  0  0  0  0  0  0
  -28.5130  -13.8650   20.7730 C   0  0  0  0  0  2  0  0  0  0  0  0
  -29.6860  -14.5120   20.1320 N   0  0  0  0  0  0  0  0  0  0  0  0
  -31.4540  -15.8700   19.8980 O   0  0  0  0  0  1  0  0  0  0  0  0
  -25.1680  -13.9300   20.4190 C   0  0  0  0  0  0  0  0  0  0  0  0
  -24.1160  -13.1430   20.7910 C   0  0  0  0  0  0  0  0  0  0  0  0
  -24.6010  -11.7980   20.7760 C   0  0  0  0  0  0  0  0  0  0  0  0
  -26.2190  -13.0680   20.1830 N   0  0  0  0  0  0  0  0  0  0  0  0
  -25.8950  -11.7770   20.4650 N   0  0  0  0  0  0  0  0  0  0  0  0
  -23.8810  -10.5320   20.9770 C   0  0  0  0  0  0  0  0  0  0  0  0
  -24.3140   -9.5740   21.9200 C   0  0  0  0  0  3  0  0  0  0  0  0
  -23.5880   -8.3780   22.1120 C   0  0  0  0  0  3  0  0  0  0  0  0
  -22.4120   -8.1320   21.3630 C   0  0  0  0  0  0  0  0  0  0  0  0
  -21.9980   -9.0780   20.4090 C   0  0  0  0  0  3  0  0  0  0  0  0
  -22.7250  -10.2640   20.2160 C   0  0  0  0  0  3  0  0  0  0  0  0
  -21.6590   -6.9870   21.4640 O   0  0  0  0  0  0  0  0  0  0  0  0
  -21.6160   -6.2510   22.6210 C   0  0  0  0  0  0  0  0  0  0  0  0
  -21.2040   -6.8140   23.8480 C   0  0  0  0  0  3  0  0  0  0  0  0
  -21.1090   -6.0050   24.9980 C   0  0  0  0  0  3  0  0  0  0  0  0
  -21.4170   -4.6330   24.9210 C   0  0  0  0  0  0  0  0  0  0  0  0
  -21.8230   -4.0690   23.6990 C   0  0  0  0  0  3  0  0  0  0  0  0
  -21.9190   -4.8750   22.5510 C   0  0  0  0  0  0  0  0  0  0  0  0
  -22.2890   -4.3230   21.3710 F   0  0  0  0  0  0  0  0  0  0  0  0
  -21.3200   -3.8530   26.0230 F   0  0  0  0  0  0  0  0  0  0  0  0
  -22.7140  -13.6110   21.0440 C   0  0  0  0  0  0  0  0  0  0  0  0
  -21.9860  -12.9260   21.9170 N   0  0  0  0  0  0  0  0  0  0  0  0
  -22.2760  -14.6260   20.5020 O   0  0  0  0  0  0  0  0  0  0  0  0
  -22.3570  -12.1090   22.3780 H   0  0  0  0  0  0  0  0  0  0  0  0
  -21.0450  -13.2240   22.1260 H   0  0  0  0  0  0  0  0  0  0  0  0
  -25.3170  -15.3010   20.2290 N   0  0  0  0  0  0  0  0  0  0  0  0
  -24.5480  -15.9530   20.3420 H   0  0  0  0  0  0  0  0  0  0  0  0
  -26.1730  -15.7460   19.9220 H   0  0  0  0  0  0  0  0  0  0  0  0
  2 13  2  0
  3  1  1  0
  3  8  1  0
  4 12  1  0
  4 14  1  0
  5 11  1  0
  5  7  1  0
  6 12  1  0
  7  8  2  0
  7  6  1  0
  9  3  2  0
 10  9  1  0
 10  5  2  0
 11  4  1  0
 12  2  1  0
 14 16  2  0
 15 14  1  0
 17 15  1  0
 18 27  2  0
 18 23  1  0
 19 15  1  0
 19 23  1  0
 20 19  1  0
 21 22  1  0
 21 20  1  0
 22 18  1  0
 23 24  2  0
 24 25  1  0
 26 25  2  0
 27 26  1  0
 28  2  1  0
 28 33  1  0
 28 29  1  0
 29 32  1  1
 29 30  1  0
 31 29  1  0
 33 36  1  0
 34 38  1  0
 34 33  1  0
 35 34  2  0
 38 37  1  0
 40 38  1  0
 40 41  1  0
 40 39  1  0
 42  1  1  0
 44 45  1  0
 47 52  1  0
 48 49  1  0
 48 47  1  0
 50 49  1  0
 50 57  1  0
 50 51  1  0
 52 46  1  0
 52 51  1  0
 53 46  1  0
 54 55  2  0
 55 74  1  0
 56 55  1  0
 56 59  1  0
 57 54  1  0
 57 58  1  0
 58 56  2  0
 59 60  1  0
 60 61  2  0
 62 65  1  0
 62 61  1  0
 63 62  2  0
 64 63  1  0
 64 59  2  0
 65 66  1  0
 66 67  1  0
 67 68  2  0
 69 68  1  0
 69 73  1  0
 70 69  2  0
 71 66  2  0
 71 70  1  0
 72 71  1  0
 74 75  1  0
 75 78  1  0
 75 77  1  0
 76 74  2  0
 79 80  1  0
 79 54  1  0
 81 79  1  0
M  ISO  4   1 101  42 101  45 100  46 100
M  END
>  <TORSDO>  (10) 
F 19

>  <SCORE>  (10) 
-16.013

>  <name>  (10) 
9

>  <ligand_id>  (10) 
9

>  <original_smiles>  (10) 
[H]c1c([H])c([H])c2c(c1[H])C([H])([H])C([H])([H])C([H])([H])C2([H])N([H])C(=O)C1([H])N(C(=O)C([H])(N([H])C(=O)C([H])(N([H])C([H])([H])[H])C([H])([H])[H])C(C([H])([H])[H])(C([H])([H])[H])C([H])([H])[H])C([H])([H])c2c([H])c(OC([H])([H])C([H])([H])C([H])([H])OC(=O)N3C([H])([H])C([H])([H])C([H])([H])C([H])(n4nc(-c5c([H])c([H])c(Oc6c([H])c([H])c(F)c([H])c6F)c([H])c5[H])c(C(=O)N([H])[H])c4N([H])[H])C3([H])[H])c([H])c([H])c2C1([H])[H]

>  <smiles>  (10) 
[H]c1c([H])c([H])c2c(c1[H])C([H])([H])C([H])([H])C([H])([H])C2([H])N([H])C(=O)C1([H])N(C(=O)C([H])(N([H])C(=O)C([H])(N([H])C([H])([H])[H])C([H])([H])[H])C(C([H])([H])[H])(C([H])([H])[H])C([H])([H])[H])C([H])([H])c2c([H])c(OC([H])([H])C([H])([H])C([H])([H])OC(=O)N3C([H])([H])C([H])([H])C([H])([H])C([H])(n4nc(-c5c([H])c([H])c(Oc6c([H])c([H])c(F)c([H])c6F)c([H])c5[H])c(C(=O)N([H])[H])c4N([H])[H])C3([H])[H])c([H])c([H])c2C1([H])[H]

$$$$
10:0:0
     RDKit          3D

104112  0  0  1  0  0  0  0  0999 V2000
  -32.4280  -27.9500   21.0160 C   0  0  0  0  0  0  0  0  0  0  0  0
  -32.5290  -29.2840   20.9610 N   0  0  0  0  0  0  0  0  0  0  0  0
  -32.9540  -27.2040   20.1850 O   0  0  0  0  0  0  0  0  0  0  0  0
  -32.0770  -29.8110   21.6960 H   0  0  0  0  0  0  0  0  0  0  0  0
  -33.1750  -30.0590   19.9050 C   0  0  0  0  0  2  0  0  0  0  0  0
  -32.1250  -30.6760   18.9700 C   0  0  0  0  0  2  0  0  0  0  0  0
  -31.4800  -29.6410   18.2420 O   0  0  0  0  0  0  0  0  0  0  0  0
  -30.3560  -30.1010   17.5060 C   0  0  0  0  0  2  0  0  0  0  0  0
  -29.7720  -28.9650   16.6480 C   0  0  0  0  0  2  0  0  0  0  0  0
  -28.9880  -28.0560   17.4160 O   0  0  0  0  0  0  0  0  0  0  0  0
  -29.7510  -27.0410   18.0600 C   0  0  0  0  0  2  0  0  0  0  0  0
  -28.8350  -26.1190   18.8760 C   0  0  0  0  0  2  0  0  0  0  0  0
  -28.4290  -26.7750   20.0760 O   0  0  0  0  0  0  0  0  0  0  0  0
  -24.6110  -31.8710   23.2110 C   0  0  0  0  0  0  0  0  0  0  0  0
  -27.2450  -27.4740   20.0670 C   0  0  0  0  0  0  0  0  0  0  0  0
  -23.3980  -30.4930   21.5520 C   0  0  0  0  0  3  0  0  0  0  0  0
  -24.8450  -28.9620   20.1150 C   0  0  0  0  0  0  0  0  0  0  0  0
  -25.9240  -30.8420   21.3630 C   0  0  0  0  0  2  0  0  0  0  0  0
  -26.0020  -29.4780   20.7120 C   0  0  0  0  0  0  0  0  0  0  0  0
  -27.2000  -28.7340   20.6990 C   0  0  0  0  0  3  0  0  0  0  0  0
  -26.0660  -26.9530   19.4880 C   0  0  0  0  0  3  0  0  0  0  0  0
  -24.8690  -27.6940   19.5080 C   0  0  0  0  0  3  0  0  0  0  0  0
  -23.6040  -29.8230   20.1670 C   0  0  0  0  0  2  0  0  0  0  0  0
  -24.6620  -31.0830   22.1000 N   0  0  0  0  0  0  0  0  0  0  0  0
  -23.5310  -32.1470   23.7510 O   0  0  0  0  0  0  0  0  0  0  0  0
  -22.7390  -29.4680   22.5010 C   0  0  0  0  0  0  0  0  0  0  0  0
  -21.4130  -29.3030   22.3740 N   0  0  0  0  0  0  0  0  0  0  0  0
  -23.4180  -28.8230   23.3050 O   0  0  0  0  0  0  0  0  0  0  0  0
  -20.9290  -29.8740   21.6940 H   0  0  0  0  0  0  0  0  0  0  0  0
  -18.0270  -28.1370   22.8500 C   0  0  0  0  0  0  0  0  0  0  0  0
  -20.5860  -28.3660   23.1320 C   0  0  0  0  0  3  0  0  0  0  0  0
  -20.6770  -26.9400   22.5410 C   0  0  0  0  0  2  0  0  0  0  0  0
  -19.5740  -26.6390   21.5210 C   0  0  0  0  0  2  0  0  0  0  0  0
  -18.1920  -26.7920   22.1620 C   0  0  0  0  0  2  0  0  0  0  0  0
  -19.1520  -28.8830   23.2910 C   0  0  0  0  0  0  0  0  0  0  0  0
  -18.9450  -30.1440   23.8910 C   0  0  0  0  0  3  0  0  0  0  0  0
  -17.6450  -30.6590   24.0560 C   0  0  0  0  0  3  0  0  0  0  0  0
  -16.5340  -29.9080   23.6330 C   0  0  0  0  0  3  0  0  0  0  0  0
  -16.7260  -28.6500   23.0350 C   0  0  0  0  0  3  0  0  0  0  0  0
  -25.9020  -32.4840   23.8410 C   0  0  0  0  0  3  0  0  0  0  0  0
  -25.5890  -33.8640   24.2340 N   0  0  0  0  0  0  0  0  0  0  0  0
  -25.9040  -34.9490   23.5140 C   0  0  0  0  0  0  0  0  0  0  0  0
  -26.5600  -34.8930   22.4700 O   0  0  0  0  0  0  0  0  0  0  0  0
  -25.0040  -33.9820   25.0480 H   0  0  0  0  0  0  0  0  0  0  0  0
  -24.1490  -36.7320   23.2640 C   0  0  0  0  0  1  0  0  0  0  0  0
  -25.4110  -36.3120   24.0340 C   0  0  0  0  0  3  0  0  0  0  0  0
  -27.5580  -37.1820   24.8470 C   0  0  0  0  0  1  0  0  0  0  0  0
  -26.4300  -37.3800   23.9410 N   0  0  0  0  0  0  0  0  0  0  0  0
  -26.0190  -38.2890   24.1390 H   0  0  0  0  0  0  0  0  0  0  0  0
  -26.4460  -31.6600   25.0720 C   0  0  1  0  0  0  0  0  0  0  0  0
  -25.3720  -31.3690   26.1460 C   0  0  0  0  0  1  0  0  0  0  0  0
  -27.0320  -30.3060   24.6080 C   0  0  0  0  0  1  0  0  0  0  0  0
  -27.6030  -32.4330   25.7490 C   0  0  0  0  0  1  0  0  0  0  0  0
  -31.6100  -27.3770   22.1810 C   0  0  0  0  0  2  0  0  0  0  0  0
  -31.0430  -26.1210   21.8190 O   0  0  0  0  0  0  0  0  0  0  0  0
  -30.2070  -25.6070   22.8450 C   0  0  0  0  0  2  0  0  0  0  0  0
  -29.6370  -24.2440   22.4310 C   0  0  0  0  0  2  0  0  0  0  0  0
  -30.7070  -23.1460   22.3190 C   0  0  0  0  0  2  0  0  0  0  0  0
  -30.1120  -21.7570   22.0490 C   0  0  0  0  0  2  0  0  0  0  0  0
  -31.1740  -20.8110   21.9970 O   0  0  0  0  0  0  0  0  0  0  0  0
  -29.3110  -17.5900   21.6040 C   0  0  0  0  0  3  0  0  0  0  0  0
  -31.7090  -17.1820   21.6690 C   0  0  0  0  0  3  0  0  0  0  0  0
  -29.5400  -18.9720   21.7460 C   0  0  0  0  0  3  0  0  0  0  0  0
  -31.9350  -18.5640   21.8180 C   0  0  0  0  0  3  0  0  0  0  0  0
  -30.3920  -16.6860   21.5450 C   0  0  0  0  0  0  0  0  0  0  0  0
  -30.8600  -19.4750   21.8550 C   0  0  0  0  0  0  0  0  0  0  0  0
  -30.7300  -14.4020   20.6350 C   0  0  0  0  0  0  0  0  0  0  0  0
  -30.4230  -12.2870   19.4020 C   0  0  0  0  0  2  0  0  0  0  0  0
  -29.4910  -12.5180   18.1960 C   0  0  0  0  0  2  0  0  0  0  0  0
  -28.0110  -12.3830   18.6080 C   0  0  0  0  0  2  0  0  0  0  0  0
  -27.6670  -13.2010   19.8810 C   0  0  0  0  0  3  0  0  0  0  0  0
  -28.7060  -12.9370   20.9930 C   0  0  0  0  0  2  0  0  0  0  0  0
  -30.0440  -13.2430   20.4530 N   0  0  0  0  0  0  0  0  0  0  0  0
  -31.8120  -14.6340   20.0880 O   0  0  0  0  0  0  0  0  0  0  0  0
  -30.0990  -15.3040   21.4040 N   0  0  0  0  0  0  0  0  0  0  0  0
  -29.1940  -15.0020   21.7300 H   0  0  0  0  0  0  0  0  0  0  0  0
  -25.2610  -13.8160   20.5670 C   0  0  0  0  0  0  0  0  0  0  0  0
  -24.1850  -13.0440   20.9160 C   0  0  0  0  0  0  0  0  0  0  0  0
  -24.6400  -11.6900   20.8720 C   0  0  0  0  0  0  0  0  0  0  0  0
  -26.3050  -12.9320   20.3380 N   0  0  0  0  0  0  0  0  0  0  0  0
  -25.9320  -11.6480   20.5760 N   0  0  0  0  0  0  0  0  0  0  0  0
  -23.9070  -10.4290   21.0400 C   0  0  0  0  0  0  0  0  0  0  0  0
  -24.3620   -9.4210   21.9180 C   0  0  0  0  0  3  0  0  0  0  0  0
  -23.6290   -8.2250   22.0750 C   0  0  0  0  0  3  0  0  0  0  0  0
  -22.4270   -8.0290   21.3550 C   0  0  0  0  0  0  0  0  0  0  0  0
  -21.9910   -9.0260   20.4640 C   0  0  0  0  0  3  0  0  0  0  0  0
  -22.7240  -10.2130   20.3050 C   0  0  0  0  0  3  0  0  0  0  0  0
  -21.6630   -6.8880   21.4240 O   0  0  0  0  0  0  0  0  0  0  0  0
  -21.6850   -6.0740   22.5280 C   0  0  0  0  0  0  0  0  0  0  0  0
  -21.4020   -6.5640   23.8220 C   0  0  0  0  0  3  0  0  0  0  0  0
  -21.3660   -5.6790   24.9180 C   0  0  0  0  0  3  0  0  0  0  0  0
  -21.6050   -4.3050   24.7230 C   0  0  0  0  0  0  0  0  0  0  0  0
  -21.8820   -3.8150   23.4340 C   0  0  0  0  0  3  0  0  0  0  0  0
  -21.9190   -4.6970   22.3400 C   0  0  0  0  0  0  0  0  0  0  0  0
  -22.1660   -4.2150   21.0980 F   0  0  0  0  0  0  0  0  0  0  0  0
  -21.5630   -3.4540   25.7740 F   0  0  0  0  0  0  0  0  0  0  0  0
  -22.7880  -13.5240   21.1830 C   0  0  0  0  0  0  0  0  0  0  0  0
  -22.0510  -12.8230   22.0380 N   0  0  0  0  0  0  0  0  0  0  0  0
  -22.3560  -14.5550   20.6690 O   0  0  0  0  0  0  0  0  0  0  0  0
  -22.4110  -11.9880   22.4770 H   0  0  0  0  0  0  0  0  0  0  0  0
  -21.1120  -13.1250   22.2580 H   0  0  0  0  0  0  0  0  0  0  0  0
  -25.4340  -15.1880   20.4070 N   0  0  0  0  0  0  0  0  0  0  0  0
  -24.6670  -15.8440   20.5060 H   0  0  0  0  0  0  0  0  0  0  0  0
  -26.2880  -15.6240   20.0850 H   0  0  0  0  0  0  0  0  0  0  0  0
  1 54  1  0
  2  1  1  0
  2  4  1  0
  3  1  2  0
  5  2  1  0
  6  5  1  0
  7  6  1  0
  8  7  1  0
  9 10  1  0
  9  8  1  0
 10 11  1  0
 11 12  1  0
 12 13  1  0
 14 25  2  0
 15 13  1  0
 15 20  1  0
 16 24  1  0
 16 26  1  0
 17 23  1  0
 17 19  1  0
 18 24  1  0
 19 18  1  0
 20 19  2  0
 21 22  1  0
 21 15  2  0
 22 17  2  0
 23 16  1  0
 24 14  1  0
 26 28  2  0
 27 26  1  0
 29 27  1  0
 30 39  2  0
 30 35  1  0
 31 27  1  0
 31 35  1  0
 32 31  1  0
 33 34  1  0
 33 32  1  0
 34 30  1  0
 35 36  2  0
 36 37  1  0
 38 37  2  0
 39 38  1  0
 40 14  1  0
 40 41  1  0
 40 50  1  0
 41 44  1  0
 42 46  1  0
 42 41  1  0
 43 42  2  0
 46 45  1  0
 48 46  1  0
 48 49  1  0
 48 47  1  0
 50 53  1  1
 50 51  1  0
 52 50  1  0
 55 54  1  0
 55 56  1  0
 57 56  1  0
 58 57  1  0
 59 58  1  0
 60 59  1  0
 61 63  1  0
 62 64  2  0
 63 66  2  0
 64 66  1  0
 65 61  2  0
 65 62  1  0
 66 60  1  0
 67 75  1  0
 68 73  1  0
 69 70  1  0
 69 68  1  0
 71 70  1  0
 71 80  1  0
 71 72  1  0
 73 67  1  0
 73 72  1  0
 74 67  2  0
 75 65  1  0
 75 76  1  0
 77 78  2  0
 78 97  1  0
 79 78  1  0
 79 82  1  0
 80 77  1  0
 80 81  1  0
 81 79  2  0
 82 83  1  0
 83 84  2  0
 85 88  1  0
 85 84  1  0
 86 85  2  0
 87 86  1  0
 87 82  2  0
 88 89  1  0
 89 90  1  0
 90 91  2  0
 92 91  1  0
 92 96  1  0
 93 92  2  0
 94 89  2  0
 94 93  1  0
 95 94  1  0
 97 98  1  0
 98101  1  0
 98100  1  0
 99 97  2  0
102103  1  0
102 77  1  0
104102  1  0
M  ISO  4  12 101  13 101  67 100  75 100
M  END
>  <TORSDO>  (11) 
F 32

>  <SCORE>  (11) 
-7.186

>  <name>  (11) 
10

>  <ligand_id>  (11) 
10

>  <original_smiles>  (11) 
[H]c1c([H])c([H])c2c(c1[H])C([H])([H])C([H])([H])C([H])([H])C2([H])N([H])C(=O)C1([H])N(C(=O)C([H])(N([H])C(=O)C([H])(N([H])C([H])([H])[H])C([H])([H])[H])C(C([H])([H])[H])(C([H])([H])[H])C([H])([H])[H])C([H])([H])c2c([H])c(OC([H])([H])C([H])([H])OC([H])([H])C([H])([H])OC([H])([H])C([H])([H])N([H])C(=O)C([H])([H])OC([H])([H])C([H])([H])C([H])([H])C([H])([H])Oc3c([H])c([H])c(N([H])C(=O)N4C([H])([H])C([H])([H])C([H])([H])C([H])(n5nc(-c6c([H])c([H])c(Oc7c([H])c([H])c(F)c([H])c7F)c([H])c6[H])c(C(=O)N([H])[H])c5N([H])[H])C4([H])[H])c([H])c3[H])c([H])c([H])c2C1([H])[H]

>  <smiles>  (11) 
[H]c1c([H])c([H])c2c(c1[H])C([H])([H])C([H])([H])C([H])([H])C2([H])N([H])C(=O)C1([H])N(C(=O)C([H])(N([H])C(=O)C([H])(N([H])C([H])([H])[H])C([H])([H])[H])C(C([H])([H])[H])(C([H])([H])[H])C([H])([H])[H])C([H])([H])c2c([H])c(OC([H])([H])C([H])([H])OC([H])([H])C([H])([H])OC([H])([H])C([H])([H])N([H])C(=O)C([H])([H])OC([H])([H])C([H])([H])C([H])([H])C([H])([H])Oc3c([H])c([H])c(N([H])C(=O)N4C([H])([H])C([H])([H])C([H])([H])C([H])(n5nc(-c6c([H])c([H])c(Oc7c([H])c([H])c(F)c([H])c7F)c([H])c6[H])c(C(=O)N([H])[H])c5N([H])[H])C4([H])[H])c([H])c3[H])c([H])c([H])c2C1([H])[H]

$$$$
11:0:0
     RDKit          3D

 90 97  0  0  1  0  0  0  0  0999 V2000
  -27.8060  -22.7890   22.0570 C   0  0  0  0  0  2  0  0  0  0  0  0
  -28.1210  -23.6690   20.9800 O   0  0  0  0  0  0  0  0  0  0  0  0
  -28.3570  -25.0040   21.4180 C   0  0  0  0  0  2  0  0  0  0  0  0
  -29.0330  -25.8100   20.2920 C   0  0  0  0  0  2  0  0  0  0  0  0
  -28.9770  -27.2200   20.5330 O   0  0  0  0  0  0  0  0  0  0  0  0
  -24.8130  -32.1180   23.5430 C   0  0  0  0  0  0  0  0  0  0  0  0
  -27.7520  -27.8490   20.4980 C   0  0  0  0  0  0  0  0  0  0  0  0
  -23.7220  -30.6820   21.8480 C   0  0  0  0  0  3  0  0  0  0  0  0
  -25.2850  -29.2330   20.4560 C   0  0  0  0  0  0  0  0  0  0  0  0
  -26.2290  -31.1650   21.7290 C   0  0  0  0  0  2  0  0  0  0  0  0
  -26.3990  -29.8060   21.0820 C   0  0  0  0  0  0  0  0  0  0  0  0
  -27.6340  -29.1210   21.0980 C   0  0  0  0  0  3  0  0  0  0  0  0
  -26.6140  -27.2830   19.8740 C   0  0  0  0  0  3  0  0  0  0  0  0
  -25.3870  -27.9680   19.8540 C   0  0  0  0  0  3  0  0  0  0  0  0
  -24.0040  -30.0320   20.4680 C   0  0  0  0  0  2  0  0  0  0  0  0
  -24.9370  -31.3350   22.4330 N   0  0  0  0  0  0  0  0  0  0  0  0
  -23.7050  -32.3340   24.0530 O   0  0  0  0  0  0  0  0  0  0  0  0
  -23.0900  -29.6210   22.7760 C   0  0  0  0  0  0  0  0  0  0  0  0
  -21.7860  -29.3620   22.5830 N   0  0  0  0  0  0  0  0  0  0  0  0
  -23.7700  -29.0330   23.6190 O   0  0  0  0  0  0  0  0  0  0  0  0
  -21.2950  -29.8870   21.8700 H   0  0  0  0  0  0  0  0  0  0  0  0
  -18.4720  -27.9650   22.9140 C   0  0  0  0  0  0  0  0  0  0  0  0
  -20.9920  -28.3730   23.3120 C   0  0  0  0  0  3  0  0  0  0  0  0
  -21.2090  -26.9500   22.7440 C   0  0  0  0  0  2  0  0  0  0  0  0
  -20.1790  -26.5620   21.6760 C   0  0  0  0  0  2  0  0  0  0  0  0
  -18.7620  -26.6280   22.2540 C   0  0  0  0  0  2  0  0  0  0  0  0
  -19.5210  -28.7900   23.3990 C   0  0  0  0  0  0  0  0  0  0  0  0
  -19.2030  -30.0400   23.9710 C   0  0  0  0  0  3  0  0  0  0  0  0
  -17.8650  -30.4650   24.0730 C   0  0  0  0  0  3  0  0  0  0  0  0
  -16.8290  -29.6370   23.6090 C   0  0  0  0  0  3  0  0  0  0  0  0
  -17.1330  -28.3910   23.0320 C   0  0  0  0  0  3  0  0  0  0  0  0
  -26.0510  -32.7960   24.2080 C   0  0  0  0  0  3  0  0  0  0  0  0
  -26.4950  -32.0970   25.5500 C   0  0  1  0  0  0  0  0  0  0  0  0
  -25.3360  -31.8630   26.5460 C   0  0  0  0  0  1  0  0  0  0  0  0
  -27.1490  -30.7280   25.2540 C   0  0  0  0  0  1  0  0  0  0  0  0
  -27.5660  -32.9570   26.2590 C   0  0  0  0  0  1  0  0  0  0  0  0
  -25.7090  -34.2050   24.4420 N   0  0  0  0  0  0  0  0  0  0  0  0
  -26.0740  -35.2180   23.6420 C   0  0  0  0  0  0  0  0  0  0  0  0
  -26.8020  -35.0650   22.6570 O   0  0  0  0  0  0  0  0  0  0  0  0
  -25.0670  -34.3930   25.1980 H   0  0  0  0  0  0  0  0  0  0  0  0
  -24.3440  -36.9560   23.0900 C   0  0  0  0  0  1  0  0  0  0  0  0
  -25.5440  -36.6220   23.9910 C   0  0  0  0  0  3  0  0  0  0  0  0
  -27.6240  -37.5810   24.8740 C   0  0  0  0  0  1  0  0  0  0  0  0
  -26.5690  -37.6810   23.8690 N   0  0  0  0  0  0  0  0  0  0  0  0
  -26.1450  -38.6010   23.9460 H   0  0  0  0  0  0  0  0  0  0  0  0
  -27.4930  -21.3830   21.5210 C   0  0  0  0  0  2  0  0  0  0  0  0
  -28.6650  -20.7680   20.9950 O   0  0  0  0  0  0  0  0  0  0  0  0
  -28.3670  -19.5800   20.2660 C   0  0  0  0  0  2  0  0  0  0  0  0
  -29.6620  -18.8370   19.8940 C   0  0  0  0  0  2  0  0  0  0  0  0
  -30.0630  -17.9670   20.9490 O   0  0  0  0  0  0  0  0  0  0  0  0
  -31.4690  -17.8850   21.1710 C   0  0  0  0  0  2  0  0  0  0  0  0
  -32.1640  -16.8510   20.2700 C   0  0  0  0  0  2  0  0  0  0  0  0
  -31.9300  -14.4640   19.7030 C   0  0  0  0  0  0  0  0  0  0  0  0
  -31.3700  -12.1870   18.9420 C   0  0  0  0  0  2  0  0  0  0  0  0
  -30.3890  -12.2580   17.7560 C   0  0  0  0  0  2  0  0  0  0  0  0
  -28.9350  -12.3150   18.2570 C   0  0  0  0  0  2  0  0  0  0  0  0
  -28.7260  -13.3820   19.3650 C   0  0  0  0  0  3  0  0  0  0  0  0
  -29.8210  -13.2870   20.4530 C   0  0  0  0  0  2  0  0  0  0  0  0
  -31.1380  -13.3620   19.7950 N   0  0  0  0  0  0  0  0  0  0  0  0
  -32.9520  -14.5110   19.0150 O   0  0  0  0  0  0  0  0  0  0  0  0
  -31.5220  -15.5410   20.3790 N   0  0  0  0  0  0  0  0  0  0  0  0
  -30.6870  -15.4770   20.9440 H   0  0  0  0  0  0  0  0  0  0  0  0
  -26.5230  -14.3100   20.3180 C   0  0  0  0  0  0  0  0  0  0  0  0
  -25.3730  -13.6950   20.7340 C   0  0  0  0  0  0  0  0  0  0  0  0
  -25.5970  -12.2930   20.5790 C   0  0  0  0  0  0  0  0  0  0  0  0
  -27.3840  -13.2930   19.9390 N   0  0  0  0  0  0  0  0  0  0  0  0
  -26.8320  -12.0680   20.1490 N   0  0  0  0  0  0  0  0  0  0  0  0
  -24.6860  -11.1530   20.7540 C   0  0  0  0  0  0  0  0  0  0  0  0
  -25.0150  -10.0650   21.5910 C   0  0  0  0  0  3  0  0  0  0  0  0
  -24.1140   -8.9910   21.7570 C   0  0  0  0  0  3  0  0  0  0  0  0
  -22.8680   -9.0000   21.0880 C   0  0  0  0  0  0  0  0  0  0  0  0
  -22.5550  -10.0750   20.2360 C   0  0  0  0  0  3  0  0  0  0  0  0
  -23.4560  -11.1380   20.0660 C   0  0  0  0  0  3  0  0  0  0  0  0
  -21.9430   -7.9870   21.1680 O   0  0  0  0  0  0  0  0  0  0  0  0
  -21.8340   -7.1990   22.2860 C   0  0  0  0  0  0  0  0  0  0  0  0
  -21.5870   -7.7470   23.5640 C   0  0  0  0  0  3  0  0  0  0  0  0
  -21.4110   -6.8960   24.6730 C   0  0  0  0  0  3  0  0  0  0  0  0
  -21.4730   -5.4990   24.5060 C   0  0  0  0  0  0  0  0  0  0  0  0
  -21.7140   -4.9520   23.2340 C   0  0  0  0  0  3  0  0  0  0  0  0
  -21.8900   -5.8000   22.1260 C   0  0  0  0  0  0  0  0  0  0  0  0
  -22.1010   -5.2670   20.8980 F   0  0  0  0  0  0  0  0  0  0  0  0
  -21.2960   -4.6800   25.5700 F   0  0  0  0  0  0  0  0  0  0  0  0
  -24.1040  -14.3690   21.1660 C   0  0  0  0  0  0  0  0  0  0  0  0
  -23.3490  -13.7420   22.0620 N   0  0  0  0  0  0  0  0  0  0  0  0
  -23.7960  -15.4850   20.7480 O   0  0  0  0  0  0  0  0  0  0  0  0
  -23.6150  -12.8390   22.4260 H   0  0  0  0  0  0  0  0  0  0  0  0
  -22.4980  -14.1770   22.3890 H   0  0  0  0  0  0  0  0  0  0  0  0
  -26.9010  -15.6450   20.2170 N   0  0  0  0  0  0  0  0  0  0  0  0
  -26.2750  -16.4070   20.4510 H   0  0  0  0  0  0  0  0  0  0  0  0
  -27.7960  -15.9620   19.8690 H   0  0  0  0  0  0  0  0  0  0  0  0
  2  3  1  0
  2  1  1  0
  4  5  1  0
  4  3  1  0
  6 17  2  0
  7  5  1  0
  7 12  1  0
  8 16  1  0
  8 18  1  0
  9 15  1  0
  9 11  1  0
 10 16  1  0
 11 12  2  0
 11 10  1  0
 13  7  2  0
 14 13  1  0
 14  9  2  0
 15  8  1  0
 16  6  1  0
 18 20  2  0
 19 18  1  0
 21 19  1  0
 22 31  2  0
 22 27  1  0
 23 19  1  0
 23 27  1  0
 24 23  1  0
 25 26  1  0
 25 24  1  0
 26 22  1  0
 27 28  2  0
 28 29  1  0
 30 29  2  0
 31 30  1  0
 32  6  1  0
 32 37  1  0
 32 33  1  0
 33 36  1  1
 33 34  1  0
 35 33  1  0
 37 40  1  0
 38 42  1  0
 38 37  1  0
 39 38  2  0
 42 41  1  0
 44 45  1  0
 44 42  1  0
 44 43  1  0
 46  1  1  0
 47 46  1  0
 48 47  1  0
 49 48  1  0
 49 50  1  0
 50 51  1  0
 52 61  1  0
 52 51  1  0
 53 59  1  0
 53 61  1  0
 54 59  1  0
 55 56  1  0
 55 54  1  0
 57 56  1  0
 57 66  1  0
 57 58  1  0
 59 58  1  0
 60 53  2  0
 61 62  1  0
 63 64  2  0
 64 83  1  0
 65 64  1  0
 65 68  1  0
 66 67  1  0
 66 63  1  0
 67 65  2  0
 68 69  1  0
 69 70  2  0
 71 74  1  0
 71 70  1  0
 72 71  2  0
 73 72  1  0
 73 68  2  0
 74 75  1  0
 75 76  1  0
 76 77  2  0
 78 77  1  0
 78 82  1  0
 79 78  2  0
 80 75  2  0
 80 79  1  0
 81 80  1  0
 83 84  1  0
 84 87  1  0
 84 86  1  0
 85 83  2  0
 88 63  1  0
 88 89  1  0
 90 88  1  0
M  ISO  4   4 101   5 101  53 100  61 100
M  END
>  <TORSDO>  (12) 
F 26

>  <SCORE>  (12) 
-9.736

>  <name>  (12) 
11

>  <ligand_id>  (12) 
11

>  <original_smiles>  (12) 
[H]c1c([H])c([H])c2c(c1[H])C([H])([H])C([H])([H])C([H])([H])C2([H])N([H])C(=O)C1([H])N(C(=O)C([H])(N([H])C(=O)C([H])(N([H])C([H])([H])[H])C([H])([H])[H])C(C([H])([H])[H])(C([H])([H])[H])C([H])([H])[H])C([H])([H])c2c([H])c(OC([H])([H])C([H])([H])OC([H])([H])C([H])([H])OC([H])([H])C([H])([H])OC([H])([H])C([H])([H])N([H])C(=O)N3C([H])([H])C([H])([H])C([H])([H])C([H])(n4nc(-c5c([H])c([H])c(Oc6c([H])c([H])c(F)c([H])c6F)c([H])c5[H])c(C(=O)N([H])[H])c4N([H])[H])C3([H])[H])c([H])c([H])c2C1([H])[H]

>  <smiles>  (12) 
[H]c1c([H])c([H])c2c(c1[H])C([H])([H])C([H])([H])C([H])([H])C2([H])N([H])C(=O)C1([H])N(C(=O)C([H])(N([H])C(=O)C([H])(N([H])C([H])([H])[H])C([H])([H])[H])C(C([H])([H])[H])(C([H])([H])[H])C([H])([H])[H])C([H])([H])c2c([H])c(OC([H])([H])C([H])([H])OC([H])([H])C([H])([H])OC([H])([H])C([H])([H])OC([H])([H])C([H])([H])N([H])C(=O)N3C([H])([H])C([H])([H])C([H])([H])C([H])(n4nc(-c5c([H])c([H])c(Oc6c([H])c([H])c(F)c([H])c6F)c([H])c5[H])c(C(=O)N([H])[H])c4N([H])[H])C3([H])[H])c([H])c([H])c2C1([H])[H]

$$$$
12:0:0
     RDKit          3D

 89 96  0  0  1  0  0  0  0  0999 V2000
  -27.8240  -22.0220   19.1010 C   0  0  0  0  0  2  0  0  0  0  0  0
  -27.8570  -23.0100   20.1240 O   0  0  0  0  0  0  0  0  0  0  0  0
  -28.3620  -24.2650   19.6770 C   0  0  0  0  0  2  0  0  0  0  0  0
  -28.2250  -25.2890   20.8160 C   0  0  0  0  0  2  0  0  0  0  0  0
  -28.4410  -26.6340   20.3810 O   0  0  0  0  0  0  0  0  0  0  0  0
  -24.6330  -31.7690   23.4680 C   0  0  0  0  0  0  0  0  0  0  0  0
  -27.3030  -27.4020   20.3300 C   0  0  0  0  0  0  0  0  0  0  0  0
  -23.4720  -30.4710   21.7090 C   0  0  0  0  0  3  0  0  0  0  0  0
  -24.9520  -28.9580   20.2930 C   0  0  0  0  0  0  0  0  0  0  0  0
  -26.0120  -30.7720   21.6500 C   0  0  0  0  0  2  0  0  0  0  0  0
  -26.0930  -29.4310   20.9530 C   0  0  0  0  0  0  0  0  0  0  0  0
  -27.2760  -28.6610   20.9650 C   0  0  0  0  0  3  0  0  0  0  0  0
  -26.1470  -26.9380   19.6660 C   0  0  0  0  0  3  0  0  0  0  0  0
  -24.9720  -27.7120   19.6440 C   0  0  0  0  0  3  0  0  0  0  0  0
  -23.7320  -29.8490   20.3130 C   0  0  0  0  0  2  0  0  0  0  0  0
  -24.7200  -31.0150   22.3360 N   0  0  0  0  0  0  0  0  0  0  0  0
  -23.5340  -32.0470   23.9690 O   0  0  0  0  0  0  0  0  0  0  0  0
  -22.7500  -29.4280   22.5920 C   0  0  0  0  0  0  0  0  0  0  0  0
  -21.4290  -29.2910   22.3970 N   0  0  0  0  0  0  0  0  0  0  0  0
  -23.3770  -28.7470   23.4080 O   0  0  0  0  0  0  0  0  0  0  0  0
  -20.9860  -29.8910   21.7150 H   0  0  0  0  0  0  0  0  0  0  0  0
  -18.0020  -28.1780   22.6810 C   0  0  0  0  0  0  0  0  0  0  0  0
  -20.5500  -28.3490   23.0880 C   0  0  0  0  0  3  0  0  0  0  0  0
  -20.6410  -26.9380   22.4610 C   0  0  0  0  0  2  0  0  0  0  0  0
  -19.5830  -26.6890   21.3810 C   0  0  0  0  0  2  0  0  0  0  0  0
  -18.1740  -26.8510   21.9610 C   0  0  0  0  0  2  0  0  0  0  0  0
  -19.1190  -28.8880   23.1970 C   0  0  0  0  0  0  0  0  0  0  0  0
  -18.9060  -30.1340   23.8260 C   0  0  0  0  0  3  0  0  0  0  0  0
  -17.6100  -30.6680   23.9460 C   0  0  0  0  0  3  0  0  0  0  0  0
  -16.5060  -29.9540   23.4480 C   0  0  0  0  0  3  0  0  0  0  0  0
  -16.7030  -28.7110   22.8200 C   0  0  0  0  0  3  0  0  0  0  0  0
  -25.9040  -32.3350   24.1740 C   0  0  0  0  0  3  0  0  0  0  0  0
  -26.3350  -31.5030   25.4430 C   0  0  1  0  0  0  0  0  0  0  0  0
  -25.1870  -31.2590   26.4490 C   0  0  0  0  0  1  0  0  0  0  0  0
  -26.8960  -30.1230   25.0260 C   0  0  0  0  0  1  0  0  0  0  0  0
  -27.4750  -32.2360   26.1900 C   0  0  0  0  0  1  0  0  0  0  0  0
  -25.6270  -33.7320   24.5370 N   0  0  0  0  0  0  0  0  0  0  0  0
  -26.0240  -34.7940   23.8230 C   0  0  0  0  0  0  0  0  0  0  0  0
  -26.7380  -34.6990   22.8210 O   0  0  0  0  0  0  0  0  0  0  0  0
  -25.0100  -33.8820   25.3210 H   0  0  0  0  0  0  0  0  0  0  0  0
  -24.3650  -36.6430   23.4420 C   0  0  0  0  0  1  0  0  0  0  0  0
  -25.5550  -36.1830   24.2980 C   0  0  0  0  0  3  0  0  0  0  0  0
  -27.6770  -36.9770   25.2450 C   0  0  0  0  0  1  0  0  0  0  0  0
  -26.6220  -37.2080   24.2620 N   0  0  0  0  0  0  0  0  0  0  0  0
  -26.2360  -38.1350   24.4210 H   0  0  0  0  0  0  0  0  0  0  0  0
  -27.4630  -20.6560   19.7130 C   0  0  0  0  0  2  0  0  0  0  0  0
  -28.6240  -20.0640   20.2770 O   0  0  0  0  0  0  0  0  0  0  0  0
  -28.3750  -18.7800   20.8390 C   0  0  0  0  0  2  0  0  0  0  0  0
  -29.6440  -18.2980   21.5530 C   0  0  0  0  0  2  0  0  0  0  0  0
  -30.4720  -17.6250   20.6110 O   0  0  0  0  0  0  0  0  0  0  0  0
  -31.7240  -17.2350   21.1600 C   0  0  0  0  0  2  0  0  0  0  0  0
  -32.3870  -16.2030   20.2420 C   0  0  0  0  0  2  0  0  0  0  0  0
  -31.7350  -14.9460   20.3550 O   0  0  0  0  0  0  0  0  0  0  0  0
  -32.1930  -13.9050   19.6390 C   0  0  0  0  0  0  0  0  0  0  0  0
  -31.5480  -11.6150   18.9080 C   0  0  0  0  0  2  0  0  0  0  0  0
  -30.5770  -11.6880   17.7180 C   0  0  0  0  0  2  0  0  0  0  0  0
  -29.1250  -11.7910   18.2170 C   0  0  0  0  0  2  0  0  0  0  0  0
  -28.9410  -12.9180   19.2680 C   0  0  0  0  0  3  0  0  0  0  0  0
  -30.0110  -12.8290   20.3760 C   0  0  0  0  0  2  0  0  0  0  0  0
  -31.3310  -12.8060   19.7320 N   0  0  0  0  0  0  0  0  0  0  0  0
  -33.2330  -13.9410   18.9750 O   0  0  0  0  0  0  0  0  0  0  0  0
  -26.7620  -13.9780   20.1280 C   0  0  0  0  0  0  0  0  0  0  0  0
  -25.5870  -13.4230   20.5630 C   0  0  0  0  0  0  0  0  0  0  0  0
  -25.7720  -12.0080   20.5010 C   0  0  0  0  0  0  0  0  0  0  0  0
  -27.5930  -12.9110   19.8280 N   0  0  0  0  0  0  0  0  0  0  0  0
  -27.0060  -11.7220   20.1100 N   0  0  0  0  0  0  0  0  0  0  0  0
  -24.8280  -10.9080   20.7360 C   0  0  0  0  0  0  0  0  0  0  0  0
  -25.1040   -9.8880   21.6730 C   0  0  0  0  0  3  0  0  0  0  0  0
  -24.1730   -8.8490   21.8940 C   0  0  0  0  0  3  0  0  0  0  0  0
  -22.9520   -8.8260   21.1800 C   0  0  0  0  0  0  0  0  0  0  0  0
  -22.6920   -9.8330   20.2340 C   0  0  0  0  0  3  0  0  0  0  0  0
  -23.6230  -10.8610   20.0090 C   0  0  0  0  0  3  0  0  0  0  0  0
  -22.0000   -7.8430   21.3110 O   0  0  0  0  0  0  0  0  0  0  0  0
  -21.8300   -7.1580   22.4870 C   0  0  0  0  0  0  0  0  0  0  0  0
  -21.5300   -7.8190   23.6980 C   0  0  0  0  0  3  0  0  0  0  0  0
  -21.2930   -7.0720   24.8680 C   0  0  0  0  0  3  0  0  0  0  0  0
  -21.3440   -5.6650   24.8300 C   0  0  0  0  0  0  0  0  0  0  0  0
  -21.6360   -5.0050   23.6230 C   0  0  0  0  0  3  0  0  0  0  0  0
  -21.8740   -5.7500   22.4550 C   0  0  0  0  0  0  0  0  0  0  0  0
  -22.1360   -5.1070   21.2920 F   0  0  0  0  0  0  0  0  0  0  0  0
  -21.1090   -4.9450   25.9510 F   0  0  0  0  0  0  0  0  0  0  0  0
  -24.3310  -14.1600   20.9290 C   0  0  0  0  0  0  0  0  0  0  0  0
  -23.5480  -13.6130   21.8540 N   0  0  0  0  0  0  0  0  0  0  0  0
  -24.0590  -15.2500   20.4270 O   0  0  0  0  0  0  0  0  0  0  0  0
  -23.7840  -12.7260   22.2770 H   0  0  0  0  0  0  0  0  0  0  0  0
  -22.7010  -14.0810   22.1430 H   0  0  0  0  0  0  0  0  0  0  0  0
  -27.1860  -15.2890   19.9480 N   0  0  0  0  0  0  0  0  0  0  0  0
  -26.5820  -16.0860   20.1110 H   0  0  0  0  0  0  0  0  0  0  0  0
  -28.0950  -15.5490   19.5880 H   0  0  0  0  0  0  0  0  0  0  0  0
  1 46  1  0
  1  2  1  0
  3  2  1  0
  3  4  1  0
  5  4  1  0
  6 17  2  0
  7  5  1  0
  7 12  1  0
  8 16  1  0
  8 18  1  0
  9 15  1  0
  9 11  1  0
 10 16  1  0
 11 12  2  0
 11 10  1  0
 13  7  2  0
 14 13  1  0
 14  9  2  0
 15  8  1  0
 16  6  1  0
 18 20  2  0
 19 18  1  0
 21 19  1  0
 22 31  2  0
 22 27  1  0
 23 19  1  0
 23 27  1  0
 24 23  1  0
 25 26  1  0
 25 24  1  0
 26 22  1  0
 27 28  2  0
 28 29  1  0
 30 29  2  0
 31 30  1  0
 32  6  1  0
 32 37  1  0
 32 33  1  0
 33 36  1  1
 33 34  1  0
 35 33  1  0
 37 40  1  0
 38 42  1  0
 38 37  1  0
 39 38  2  0
 42 41  1  0
 44 42  1  0
 44 45  1  0
 44 43  1  0
 46 47  1  0
 47 48  1  0
 48 49  1  0
 50 51  1  0
 50 49  1  0
 52 53  1  0
 52 51  1  0
 54 60  1  0
 54 53  1  0
 55 60  1  0
 56 57  1  0
 56 55  1  0
 58 57  1  0
 58 65  1  0
 58 59  1  0
 60 59  1  0
 61 54  2  0
 62 63  2  0
 63 82  1  0
 64 63  1  0
 64 67  1  0
 65 66  1  0
 65 62  1  0
 66 64  2  0
 67 68  1  0
 68 69  2  0
 70 73  1  0
 70 69  1  0
 71 70  2  0
 72 71  1  0
 72 67  2  0
 73 74  1  0
 74 75  1  0
 75 76  2  0
 77 76  1  0
 77 81  1  0
 78 77  2  0
 79 74  2  0
 79 78  1  0
 80 79  1  0
 82 83  1  0
 83 86  1  0
 83 85  1  0
 84 82  2  0
 87 88  1  0
 87 62  1  0
 89 87  1  0
M  ISO  4   4 101   5 101  53 100  54 100
M  END
>  <TORSDO>  (13) 
F 27

>  <SCORE>  (13) 
-9.349

>  <name>  (13) 
12

>  <ligand_id>  (13) 
12

>  <original_smiles>  (13) 
[H]c1c([H])c([H])c2c(c1[H])C([H])([H])C([H])([H])C([H])([H])C2([H])N([H])C(=O)C1([H])N(C(=O)C([H])(N([H])C(=O)C([H])(N([H])C([H])([H])[H])C([H])([H])[H])C(C([H])([H])[H])(C([H])([H])[H])C([H])([H])[H])C([H])([H])c2c([H])c(OC([H])([H])C([H])([H])OC([H])([H])C([H])([H])OC([H])([H])C([H])([H])OC([H])([H])C([H])([H])OC(=O)N3C([H])([H])C([H])([H])C([H])([H])C([H])(n4nc(-c5c([H])c([H])c(Oc6c([H])c([H])c(F)c([H])c6F)c([H])c5[H])c(C(=O)N([H])[H])c4N([H])[H])C3([H])[H])c([H])c([H])c2C1([H])[H]

>  <smiles>  (13) 
[H]c1c([H])c([H])c2c(c1[H])C([H])([H])C([H])([H])C([H])([H])C2([H])N([H])C(=O)C1([H])N(C(=O)C([H])(N([H])C(=O)C([H])(N([H])C([H])([H])[H])C([H])([H])[H])C(C([H])([H])[H])(C([H])([H])[H])C([H])([H])[H])C([H])([H])c2c([H])c(OC([H])([H])C([H])([H])OC([H])([H])C([H])([H])OC([H])([H])C([H])([H])OC([H])([H])C([H])([H])OC(=O)N3C([H])([H])C([H])([H])C([H])([H])C([H])(n4nc(-c5c([H])c([H])c(Oc6c([H])c([H])c(F)c([H])c6F)c([H])c5[H])c(C(=O)N([H])[H])c4N([H])[H])C3([H])[H])c([H])c([H])c2C1([H])[H]

$$$$
13:0:0
     RDKit          3D

 92 99  0  0  1  0  0  0  0  0999 V2000
  -27.9330  -22.1500   22.4490 C   0  0  0  0  0  2  0  0  0  0  0  0
  -27.2170  -23.3020   21.7130 C   0  0  0  0  0  2  0  0  0  0  0  0
  -28.0950  -24.3770   21.3630 O   0  0  0  0  0  0  0  0  0  0  0  0
  -27.4370  -25.3370   20.5310 C   0  0  0  0  0  2  0  0  0  0  0  0
  -28.4100  -26.3370   19.8510 C   0  0  0  0  0  2  0  0  0  0  0  0
  -27.7990  -27.1310   18.8210 O   0  0  0  0  0  0  0  0  0  0  0  0
  -25.7390  -31.3860   24.1290 C   0  0  0  0  0  0  0  0  0  0  0  0
  -26.8670  -28.0220   19.2900 C   0  0  0  0  0  0  0  0  0  0  0  0
  -24.0240  -30.8600   22.4260 C   0  0  0  0  0  3  0  0  0  0  0  0
  -24.8840  -29.7580   20.2910 C   0  0  0  0  0  0  0  0  0  0  0  0
  -26.5080  -30.9020   21.8080 C   0  0  0  0  0  2  0  0  0  0  0  0
  -26.2020  -29.8540   20.7590 C   0  0  0  0  0  0  0  0  0  0  0  0
  -27.2000  -28.9850   20.2670 C   0  0  0  0  0  3  0  0  0  0  0  0
  -25.5480  -27.9670   18.7940 C   0  0  0  0  0  3  0  0  0  0  0  0
  -24.5500  -28.8120   19.3080 C   0  0  0  0  0  3  0  0  0  0  0  0
  -23.8680  -30.7070   20.8890 C   0  0  0  0  0  2  0  0  0  0  0  0
  -25.4530  -31.0380   22.8420 N   0  0  0  0  0  0  0  0  0  0  0  0
  -24.8380  -31.5940   24.9520 O   0  0  0  0  0  0  0  0  0  0  0  0
  -23.3290  -29.6630   23.1170 C   0  0  0  0  0  0  0  0  0  0  0  0
  -22.0080  -29.5380   22.9080 N   0  0  0  0  0  0  0  0  0  0  0  0
  -23.9770  -28.8640   23.7970 O   0  0  0  0  0  0  0  0  0  0  0  0
  -21.5490  -30.2360   22.3410 H   0  0  0  0  0  0  0  0  0  0  0  0
  -18.7290  -28.0460   22.6370 C   0  0  0  0  0  0  0  0  0  0  0  0
  -21.1540  -28.4700   23.4260 C   0  0  0  0  0  3  0  0  0  0  0  0
  -21.4970  -27.1120   22.7720 C   0  0  0  0  0  2  0  0  0  0  0  0
  -20.6420  -26.8010   21.5420 C   0  0  0  0  0  2  0  0  0  0  0  0
  -19.1550  -26.7820   21.9080 C   0  0  0  0  0  2  0  0  0  0  0  0
  -19.6700  -28.8450   23.3370 C   0  0  0  0  0  0  0  0  0  0  0  0
  -19.2270  -30.0260   23.9680 C   0  0  0  0  0  3  0  0  0  0  0  0
  -17.8750  -30.4110   23.9100 C   0  0  0  0  0  3  0  0  0  0  0  0
  -16.9440  -29.6060   23.2320 C   0  0  0  0  0  3  0  0  0  0  0  0
  -17.3700  -28.4230   22.6010 C   0  0  0  0  0  3  0  0  0  0  0  0
  -27.2100  -31.5580   24.6210 C   0  0  0  0  0  3  0  0  0  0  0  0
  -27.7290  -30.3340   25.4690 C   0  0  1  0  0  0  0  0  0  0  0  0
  -26.7800  -29.9280   26.6200 C   0  0  0  0  0  1  0  0  0  0  0  0
  -27.9350  -29.0970   24.5680 C   0  0  0  0  0  1  0  0  0  0  0  0
  -29.1120  -30.6640   26.0770 C   0  0  0  0  0  1  0  0  0  0  0  0
  -27.2730  -32.8000   25.4050 N   0  0  0  0  0  0  0  0  0  0  0  0
  -27.8140  -33.9440   24.9720 C   0  0  0  0  0  0  0  0  0  0  0  0
  -28.3830  -34.0440   23.8810 O   0  0  0  0  0  0  0  0  0  0  0  0
  -26.7740  -32.8040   26.2830 H   0  0  0  0  0  0  0  0  0  0  0  0
  -26.6080  -36.1120   25.3650 C   0  0  0  0  0  1  0  0  0  0  0  0
  -27.7060  -35.1740   25.8930 C   0  0  0  0  0  3  0  0  0  0  0  0
  -29.9980  -35.1810   26.7720 C   0  0  0  0  0  1  0  0  0  0  0  0
  -28.9760  -35.9170   26.0320 N   0  0  0  0  0  0  0  0  0  0  0  0
  -28.8270  -36.8080   26.4950 H   0  0  0  0  0  0  0  0  0  0  0  0
  -29.0260  -21.6090   21.7020 O   0  0  0  0  0  0  0  0  0  0  0  0
  -30.0920  -21.1690   22.5590 C   0  0  0  0  0  2  0  0  0  0  0  0
  -31.1230  -20.3340   21.7780 C   0  0  0  0  0  0  0  0  0  0  0  0
  -30.6560  -19.5290   20.8160 N   0  0  0  0  0  0  0  0  0  0  0  0
  -32.3250  -20.4250   22.0370 O   0  0  0  0  0  0  0  0  0  0  0  0
  -29.6520  -19.5500   20.6800 H   0  0  0  0  0  0  0  0  0  0  0  0
  -31.4600  -18.7740   19.8550 C   0  0  0  0  0  2  0  0  0  0  0  0
  -31.6480  -17.2910   20.2480 C   0  0  0  0  0  2  0  0  0  0  0  0
  -32.9560  -15.3890   19.1940 C   0  0  0  0  0  0  0  0  0  0  0  0
  -32.5120  -13.0260   18.6730 C   0  0  0  0  0  2  0  0  0  0  0  0
  -31.5780  -12.9630   17.4460 C   0  0  0  0  0  2  0  0  0  0  0  0
  -30.1000  -13.0370   17.8790 C   0  0  0  0  0  2  0  0  0  0  0  0
  -29.8280  -14.2100   18.8570 C   0  0  0  0  0  3  0  0  0  0  0  0
  -30.8670  -14.2020   19.9990 C   0  0  0  0  0  2  0  0  0  0  0  0
  -32.2040  -14.2740   19.3900 N   0  0  0  0  0  0  0  0  0  0  0  0
  -34.0810  -15.3570   18.6900 O   0  0  0  0  0  0  0  0  0  0  0  0
  -32.3040  -16.5610   19.1600 N   0  0  0  0  0  0  0  0  0  0  0  0
  -32.7700  -17.1950   18.5280 H   0  0  0  0  0  0  0  0  0  0  0  0
  -27.5780  -15.2200   19.5860 C   0  0  0  0  0  0  0  0  0  0  0  0
  -26.4140  -14.6420   20.0240 C   0  0  0  0  0  0  0  0  0  0  0  0
  -26.6600  -13.2360   20.0520 C   0  0  0  0  0  0  0  0  0  0  0  0
  -28.4620  -14.1760   19.3740 N   0  0  0  0  0  0  0  0  0  0  0  0
  -27.9160  -12.9790   19.7100 N   0  0  0  0  0  0  0  0  0  0  0  0
  -25.7590  -12.1100   20.3280 C   0  0  0  0  0  0  0  0  0  0  0  0
  -26.0380  -11.1710   21.3450 C   0  0  0  0  0  3  0  0  0  0  0  0
  -25.1460  -10.1070   21.6010 C   0  0  0  0  0  3  0  0  0  0  0  0
  -23.9590   -9.9800   20.8440 C   0  0  0  0  0  0  0  0  0  0  0  0
  -23.6970  -10.9040   19.8180 C   0  0  0  0  0  3  0  0  0  0  0  0
  -24.5880  -11.9590   19.5600 C   0  0  0  0  0  3  0  0  0  0  0  0
  -23.0470   -8.9660   21.0060 O   0  0  0  0  0  0  0  0  0  0  0  0
  -22.7160   -8.4860   22.2470 C   0  0  0  0  0  0  0  0  0  0  0  0
  -22.1230   -9.3080   23.2300 C   0  0  0  0  0  3  0  0  0  0  0  0
  -21.7390   -8.7580   24.4680 C   0  0  0  0  0  3  0  0  0  0  0  0
  -21.9320   -7.3870   24.7210 C   0  0  0  0  0  0  0  0  0  0  0  0
  -22.5190   -6.5660   23.7420 C   0  0  0  0  0  3  0  0  0  0  0  0
  -22.9040   -7.1150   22.5050 C   0  0  0  0  0  0  0  0  0  0  0  0
  -23.4490   -6.3150   21.5580 F   0  0  0  0  0  0  0  0  0  0  0  0
  -21.5540   -6.8550   25.9080 F   0  0  0  0  0  0  0  0  0  0  0  0
  -25.1160  -15.3430   20.3050 C   0  0  0  0  0  0  0  0  0  0  0  0
  -24.2880  -14.7720   21.1740 N   0  0  0  0  0  0  0  0  0  0  0  0
  -24.8500  -16.4260   19.7900 O   0  0  0  0  0  0  0  0  0  0  0  0
  -24.5140  -13.8880   21.6070 H   0  0  0  0  0  0  0  0  0  0  0  0
  -23.4210  -15.2300   21.4160 H   0  0  0  0  0  0  0  0  0  0  0  0
  -27.9540  -16.5370   19.3400 N   0  0  0  0  0  0  0  0  0  0  0  0
  -27.3170  -17.3190   19.4380 H   0  0  0  0  0  0  0  0  0  0  0  0
  -28.8610  -16.8050   18.9770 H   0  0  0  0  0  0  0  0  0  0  0  0
  2  1  1  0
  3  2  1  0
  4  3  1  0
  5  4  1  0
  6  8  1  0
  6  5  1  0
  7 18  2  0
  8 13  1  0
  9 17  1  0
  9 19  1  0
 10 12  1  0
 10 16  1  0
 11 17  1  0
 12 11  1  0
 13 12  2  0
 14  8  2  0
 14 15  1  0
 15 10  2  0
 16  9  1  0
 17  7  1  0
 19 21  2  0
 20 19  1  0
 22 20  1  0
 23 28  1  0
 24 20  1  0
 25 24  1  0
 26 27  1  0
 26 25  1  0
 27 23  1  0
 28 24  1  0
 28 29  2  0
 30 29  1  0
 31 30  2  0
 32 23  2  0
 32 31  1  0
 33  7  1  0
 33 38  1  0
 33 34  1  0
 34 37  1  1
 34 35  1  0
 36 34  1  0
 38 41  1  0
 39 38  1  0
 39 43  1  0
 40 39  2  0
 43 42  1  0
 43 45  1  0
 45 46  1  0
 45 44  1  0
 47  1  1  0
 47 48  1  0
 49 51  2  0
 49 48  1  0
 50 49  1  0
 52 50  1  0
 53 54  1  0
 53 50  1  0
 55 61  1  0
 56 61  1  0
 57 58  1  0
 57 56  1  0
 59 58  1  0
 59 68  1  0
 59 60  1  0
 61 60  1  0
 62 55  2  0
 63 55  1  0
 63 54  1  0
 64 63  1  0
 65 66  2  0
 66 67  1  0
 66 85  1  0
 67 70  1  0
 68 65  1  0
 68 69  1  0
 69 67  2  0
 70 71  1  0
 71 72  2  0
 73 76  1  0
 73 72  1  0
 74 73  2  0
 75 74  1  0
 75 70  2  0
 76 77  1  0
 77 82  2  0
 77 78  1  0
 78 79  2  0
 79 80  1  0
 80 84  1  0
 81 80  2  0
 82 81  1  0
 83 82  1  0
 85 86  1  0
 86 89  1  0
 86 88  1  0
 87 85  2  0
 90 91  1  0
 90 65  1  0
 92 90  1  0
M  ISO  4   5 101   6 101  55 100  63 100
M  END
>  <TORSDO>  (14) 
F 25

>  <SCORE>  (14) 
-5.851

>  <name>  (14) 
13

>  <ligand_id>  (14) 
13

>  <original_smiles>  (14) 
[H]c1c([H])c([H])c2c(c1[H])C([H])([H])C([H])([H])C([H])([H])C2([H])N([H])C(=O)C1([H])N(C(=O)C([H])(N([H])C(=O)C([H])(N([H])C([H])([H])[H])C([H])([H])[H])C(C([H])([H])[H])(C([H])([H])[H])C([H])([H])[H])C([H])([H])c2c([H])c(OC([H])([H])C([H])([H])OC([H])([H])C([H])([H])OC([H])([H])C(=O)N([H])C([H])([H])C([H])([H])N([H])C(=O)N3C([H])([H])C([H])([H])C([H])([H])C([H])(n4nc(-c5c([H])c([H])c(Oc6c([H])c([H])c(F)c([H])c6F)c([H])c5[H])c(C(=O)N([H])[H])c4N([H])[H])C3([H])[H])c([H])c([H])c2C1([H])[H]

>  <smiles>  (14) 
[H]c1c([H])c([H])c2c(c1[H])C([H])([H])C([H])([H])C([H])([H])C2([H])N([H])C(=O)C1([H])N(C(=O)C([H])(N([H])C(=O)C([H])(N([H])C([H])([H])[H])C([H])([H])[H])C(C([H])([H])[H])(C([H])([H])[H])C([H])([H])[H])C([H])([H])c2c([H])c(OC([H])([H])C([H])([H])OC([H])([H])C([H])([H])OC([H])([H])C(=O)N([H])C([H])([H])C([H])([H])N([H])C(=O)N3C([H])([H])C([H])([H])C([H])([H])C([H])(n4nc(-c5c([H])c([H])c(Oc6c([H])c([H])c(F)c([H])c6F)c([H])c5[H])c(C(=O)N([H])[H])c4N([H])[H])C3([H])[H])c([H])c([H])c2C1([H])[H]

$$$$
14:0:0
     RDKit          3D

101109  0  0  1  0  0  0  0  0999 V2000
  -27.6920  -23.3600   16.1010 C   0  0  0  0  0  2  0  0  0  0  0  0
  -28.4460  -24.4490   16.6140 O   0  0  0  0  0  0  0  0  0  0  0  0
  -29.5760  -24.7670   15.8140 C   0  0  0  0  0  2  0  0  0  0  0  0
  -30.4460  -25.7790   16.5710 C   0  0  0  0  0  2  0  0  0  0  0  0
  -30.9590  -25.1450   17.7350 O   0  0  0  0  0  0  0  0  0  0  0  0
  -31.8240  -25.9800   18.4920 C   0  0  0  0  0  2  0  0  0  0  0  0
  -32.0430  -25.3800   19.8920 C   0  0  0  0  0  2  0  0  0  0  0  0
  -31.0000  -25.7750   20.7790 O   0  0  0  0  0  0  0  0  0  0  0  0
  -29.8200  -24.9810   20.7040 C   0  0  0  0  0  2  0  0  0  0  0  0
  -28.6150  -25.8570   21.0720 C   0  0  0  0  0  2  0  0  0  0  0  0
  -28.4110  -26.7760   20.0080 O   0  0  0  0  0  0  0  0  0  0  0  0
  -24.6120  -31.8700   23.2130 C   0  0  0  0  0  0  0  0  0  0  0  0
  -27.2390  -27.4760   20.0860 C   0  0  0  0  0  0  0  0  0  0  0  0
  -23.3980  -30.4920   21.5540 C   0  0  0  0  0  3  0  0  0  0  0  0
  -24.8440  -28.9540   20.1230 C   0  0  0  0  0  0  0  0  0  0  0  0
  -25.9220  -30.8460   21.3590 C   0  0  0  0  0  2  0  0  0  0  0  0
  -26.0020  -29.4810   20.7130 C   0  0  0  0  0  0  0  0  0  0  0  0
  -27.2060  -28.7470   20.6920 C   0  0  0  0  0  3  0  0  0  0  0  0
  -26.0710  -26.9440   19.5050 C   0  0  0  0  0  3  0  0  0  0  0  0
  -24.8700  -27.6810   19.5230 C   0  0  0  0  0  3  0  0  0  0  0  0
  -23.6040  -29.8170   20.1710 C   0  0  0  0  0  2  0  0  0  0  0  0
  -24.6620  -31.0820   22.1010 N   0  0  0  0  0  0  0  0  0  0  0  0
  -23.5320  -32.1430   23.7550 O   0  0  0  0  0  0  0  0  0  0  0  0
  -22.7390  -29.4670   22.5050 C   0  0  0  0  0  0  0  0  0  0  0  0
  -21.4130  -29.3020   22.3770 N   0  0  0  0  0  0  0  0  0  0  0  0
  -23.4180  -28.8230   23.3090 O   0  0  0  0  0  0  0  0  0  0  0  0
  -20.9310  -29.8740   21.6980 H   0  0  0  0  0  0  0  0  0  0  0  0
  -18.0270  -28.1370   22.8490 C   0  0  0  0  0  0  0  0  0  0  0  0
  -20.5850  -28.3650   23.1340 C   0  0  0  0  0  3  0  0  0  0  0  0
  -20.6750  -26.9390   22.5420 C   0  0  0  0  0  2  0  0  0  0  0  0
  -19.5740  -26.6370   21.5220 C   0  0  0  0  0  2  0  0  0  0  0  0
  -18.1910  -26.7920   22.1620 C   0  0  0  0  0  2  0  0  0  0  0  0
  -19.1510  -28.8830   23.2910 C   0  0  0  0  0  0  0  0  0  0  0  0
  -18.9450  -30.1440   23.8920 C   0  0  0  0  0  3  0  0  0  0  0  0
  -17.6450  -30.6580   24.0560 C   0  0  0  0  0  3  0  0  0  0  0  0
  -16.5340  -29.9080   23.6310 C   0  0  0  0  0  3  0  0  0  0  0  0
  -16.7260  -28.6490   23.0350 C   0  0  0  0  0  3  0  0  0  0  0  0
  -25.9040  -32.4830   23.8410 C   0  0  0  0  0  3  0  0  0  0  0  0
  -25.5910  -33.8630   24.2350 N   0  0  0  0  0  0  0  0  0  0  0  0
  -25.9030  -34.9490   23.5150 C   0  0  0  0  0  0  0  0  0  0  0  0
  -26.5590  -34.8930   22.4700 O   0  0  0  0  0  0  0  0  0  0  0  0
  -25.0060  -33.9780   25.0500 H   0  0  0  0  0  0  0  0  0  0  0  0
  -24.1480  -36.7320   23.2640 C   0  0  0  0  0  1  0  0  0  0  0  0
  -25.4100  -36.3120   24.0340 C   0  0  0  0  0  3  0  0  0  0  0  0
  -27.5580  -37.1810   24.8460 C   0  0  0  0  0  1  0  0  0  0  0  0
  -26.4290  -37.3800   23.9410 N   0  0  0  0  0  0  0  0  0  0  0  0
  -26.0190  -38.2890   24.1430 H   0  0  0  0  0  0  0  0  0  0  0  0
  -26.4480  -31.6610   25.0730 C   0  0  1  0  0  0  0  0  0  0  0  0
  -25.3760  -31.3710   26.1490 C   0  0  0  0  0  1  0  0  0  0  0  0
  -27.0300  -30.3060   24.6090 C   0  0  0  0  0  1  0  0  0  0  0  0
  -27.6050  -32.4340   25.7490 C   0  0  0  0  0  1  0  0  0  0  0  0
  -26.5630  -23.0500   17.0910 C   0  0  0  0  0  2  0  0  0  0  0  0
  -27.1390  -22.6510   18.3270 O   0  0  0  0  0  0  0  0  0  0  0  0
  -26.1750  -22.4100   19.3410 C   0  0  0  0  0  2  0  0  0  0  0  0
  -26.9100  -22.1230   20.6550 C   0  0  0  0  0  2  0  0  0  0  0  0
  -27.5160  -20.8390   20.5920 O   0  0  0  0  0  0  0  0  0  0  0  0
  -28.2680  -20.5410   21.7610 C   0  0  0  0  0  2  0  0  0  0  0  0
  -29.4790  -18.6440   20.5760 C   0  0  0  0  0  3  0  0  0  0  0  0
  -28.6930  -18.2930   22.8530 C   0  0  0  0  0  3  0  0  0  0  0  0
  -29.9840  -17.3270   20.5430 C   0  0  0  0  0  3  0  0  0  0  0  0
  -29.1830  -16.9740   22.8190 C   0  0  0  0  0  3  0  0  0  0  0  0
  -28.8220  -19.1280   21.7270 C   0  0  0  0  0  0  0  0  0  0  0  0
  -29.8250  -16.4760   21.6650 C   0  0  0  0  0  0  0  0  0  0  0  0
  -30.7110  -14.3800   20.6750 C   0  0  0  0  0  0  0  0  0  0  0  0
  -30.4310  -12.2940   19.3860 C   0  0  0  0  0  2  0  0  0  0  0  0
  -29.4870  -12.5400   18.1920 C   0  0  0  0  0  2  0  0  0  0  0  0
  -28.0110  -12.3870   18.6090 C   0  0  0  0  0  2  0  0  0  0  0  0
  -27.6720  -13.1940   19.8890 C   0  0  0  0  0  3  0  0  0  0  0  0
  -28.7070  -12.8930   20.9930 C   0  0  0  0  0  2  0  0  0  0  0  0
  -30.0550  -13.2090   20.4730 N   0  0  0  0  0  0  0  0  0  0  0  0
  -31.7210  -14.7190   20.0480 O   0  0  0  0  0  0  0  0  0  0  0  0
  -30.2110  -15.1100   21.6830 N   0  0  0  0  0  0  0  0  0  0  0  0
  -29.6890  -14.5520   22.3410 H   0  0  0  0  0  0  0  0  0  0  0  0
  -25.2630  -13.8150   20.5690 C   0  0  0  0  0  0  0  0  0  0  0  0
  -24.1860  -13.0430   20.9150 C   0  0  0  0  0  0  0  0  0  0  0  0
  -24.6390  -11.6900   20.8710 C   0  0  0  0  0  0  0  0  0  0  0  0
  -26.3070  -12.9290   20.3420 N   0  0  0  0  0  0  0  0  0  0  0  0
  -25.9320  -11.6450   20.5760 N   0  0  0  0  0  0  0  0  0  0  0  0
  -23.9050  -10.4290   21.0410 C   0  0  0  0  0  0  0  0  0  0  0  0
  -24.3610   -9.4210   21.9180 C   0  0  0  0  0  3  0  0  0  0  0  0
  -23.6290   -8.2240   22.0750 C   0  0  0  0  0  3  0  0  0  0  0  0
  -22.4270   -8.0280   21.3540 C   0  0  0  0  0  0  0  0  0  0  0  0
  -21.9900   -9.0260   20.4650 C   0  0  0  0  0  3  0  0  0  0  0  0
  -22.7220  -10.2140   20.3050 C   0  0  0  0  0  3  0  0  0  0  0  0
  -21.6630   -6.8880   21.4250 O   0  0  0  0  0  0  0  0  0  0  0  0
  -21.6850   -6.0730   22.5280 C   0  0  0  0  0  0  0  0  0  0  0  0
  -21.4010   -6.5640   23.8210 C   0  0  0  0  0  3  0  0  0  0  0  0
  -21.3660   -5.6790   24.9180 C   0  0  0  0  0  3  0  0  0  0  0  0
  -21.6040   -4.3060   24.7230 C   0  0  0  0  0  0  0  0  0  0  0  0
  -21.8820   -3.8140   23.4350 C   0  0  0  0  0  3  0  0  0  0  0  0
  -21.9190   -4.6960   22.3400 C   0  0  0  0  0  0  0  0  0  0  0  0
  -22.1650   -4.2140   21.0980 F   0  0  0  0  0  0  0  0  0  0  0  0
  -21.5640   -3.4540   25.7750 F   0  0  0  0  0  0  0  0  0  0  0  0
  -22.7880  -13.5240   21.1830 C   0  0  0  0  0  0  0  0  0  0  0  0
  -22.0530  -12.8240   22.0410 N   0  0  0  0  0  0  0  0  0  0  0  0
  -22.3560  -14.5540   20.6690 O   0  0  0  0  0  0  0  0  0  0  0  0
  -22.4150  -11.9910   22.4800 H   0  0  0  0  0  0  0  0  0  0  0  0
  -21.1150  -13.1280   22.2620 H   0  0  0  0  0  0  0  0  0  0  0  0
  -25.4400  -15.1860   20.4150 N   0  0  0  0  0  0  0  0  0  0  0  0
  -24.6850  -15.8520   20.5350 H   0  0  0  0  0  0  0  0  0  0  0  0
  -26.3170  -15.6230   20.1590 H   0  0  0  0  0  0  0  0  0  0  0  0
  1  2  1  0
  1 52  1  0
  3  4  1  0
  3  2  1  0
  4  5  1  0
  5  6  1  0
  6  7  1  0
  7  8  1  0
  9  8  1  0
  9 10  1  0
 11 13  1  0
 11 10  1  0
 12 23  2  0
 13 18  1  0
 14 22  1  0
 14 24  1  0
 15 21  1  0
 15 17  1  0
 16 22  1  0
 17 16  1  0
 18 17  2  0
 19 20  1  0
 19 13  2  0
 20 15  2  0
 21 14  1  0
 22 12  1  0
 24 26  2  0
 25 24  1  0
 27 25  1  0
 28 37  2  0
 28 33  1  0
 29 25  1  0
 29 33  1  0
 30 29  1  0
 31 32  1  0
 31 30  1  0
 32 28  1  0
 33 34  2  0
 34 35  1  0
 36 35  2  0
 37 36  1  0
 38 12  1  0
 38 39  1  0
 38 48  1  0
 39 42  1  0
 40 44  1  0
 40 39  1  0
 41 40  2  0
 44 43  1  0
 46 44  1  0
 46 47  1  0
 46 45  1  0
 48 51  1  1
 48 49  1  0
 50 48  1  0
 52 53  1  0
 53 54  1  0
 54 55  1  0
 56 55  1  0
 56 57  1  0
 58 62  1  0
 60 58  2  0
 60 63  1  0
 61 59  1  0
 62 57  1  0
 62 59  2  0
 63 72  1  0
 63 61  2  0
 64 72  1  0
 65 70  1  0
 66 67  1  0
 66 65  1  0
 68 67  1  0
 68 77  1  0
 68 69  1  0
 70 64  1  0
 70 69  1  0
 71 64  2  0
 72 73  1  0
 74 75  2  0
 75 94  1  0
 76 75  1  0
 76 79  1  0
 77 74  1  0
 77 78  1  0
 78 76  2  0
 79 80  1  0
 80 81  2  0
 82 85  1  0
 82 81  1  0
 83 82  2  0
 84 83  1  0
 84 79  2  0
 85 86  1  0
 86 87  1  0
 87 88  2  0
 89 88  1  0
 89 93  1  0
 90 89  2  0
 91 86  2  0
 91 90  1  0
 92 91  1  0
 94 95  1  0
 95 98  1  0
 95 97  1  0
 96 94  2  0
 99100  1  0
 99 74  1  0
101 99  1  0
M  ISO  4  10 101  11 101  64 100  72 100
M  END
>  <TORSDO>  (15) 
F 32

>  <SCORE>  (15) 
-1.293

>  <name>  (15) 
14

>  <ligand_id>  (15) 
14

>  <original_smiles>  (15) 
[H]c1c([H])c([H])c2c(c1[H])C([H])([H])C([H])([H])C([H])([H])C2([H])N([H])C(=O)C1([H])N(C(=O)C([H])(N([H])C(=O)C([H])(N([H])C([H])([H])[H])C([H])([H])[H])C(C([H])([H])[H])(C([H])([H])[H])C([H])([H])[H])C([H])([H])c2c([H])c(OC([H])([H])C([H])([H])OC([H])([H])C([H])([H])OC([H])([H])C([H])([H])OC([H])([H])C([H])([H])OC([H])([H])C([H])([H])OC([H])([H])c3c([H])c([H])c(N([H])C(=O)N4C([H])([H])C([H])([H])C([H])([H])C([H])(n5nc(-c6c([H])c([H])c(Oc7c([H])c([H])c(F)c([H])c7F)c([H])c6[H])c(C(=O)N([H])[H])c5N([H])[H])C4([H])[H])c([H])c3[H])c([H])c([H])c2C1([H])[H]

>  <smiles>  (15) 
[H]c1c([H])c([H])c2c(c1[H])C([H])([H])C([H])([H])C([H])([H])C2([H])N([H])C(=O)C1([H])N(C(=O)C([H])(N([H])C(=O)C([H])(N([H])C([H])([H])[H])C([H])([H])[H])C(C([H])([H])[H])(C([H])([H])[H])C([H])([H])[H])C([H])([H])c2c([H])c(OC([H])([H])C([H])([H])OC([H])([H])C([H])([H])OC([H])([H])C([H])([H])OC([H])([H])C([H])([H])OC([H])([H])C([H])([H])OC([H])([H])c3c([H])c([H])c(N([H])C(=O)N4C([H])([H])C([H])([H])C([H])([H])C([H])(n5nc(-c6c([H])c([H])c(Oc7c([H])c([H])c(F)c([H])c7F)c([H])c6[H])c(C(=O)N([H])[H])c5N([H])[H])C4([H])[H])c([H])c3[H])c([H])c([H])c2C1([H])[H]

$$$$
15:0:0
     RDKit          3D

 86 93  0  0  1  0  0  0  0  0999 V2000
  -28.1520  -24.0360   19.9640 C   0  0  0  0  0  2  0  0  0  0  0  0
  -28.3920  -25.3500   20.7900 C   0  0  0  0  0  2  0  0  0  0  0  0
  -28.3770  -26.6310   20.0960 O   0  0  0  0  0  0  0  0  0  0  0  0
  -24.5990  -31.8740   23.2160 C   0  0  0  0  0  0  0  0  0  0  0  0
  -27.2150  -27.3850   20.1400 C   0  0  0  0  0  0  0  0  0  0  0  0
  -23.3840  -30.4740   21.5800 C   0  0  0  0  0  3  0  0  0  0  0  0
  -24.8290  -28.9240   20.1520 C   0  0  0  0  0  0  0  0  0  0  0  0
  -25.9130  -30.8190   21.3710 C   0  0  0  0  0  2  0  0  0  0  0  0
  -25.9940  -29.4420   20.7330 C   0  0  0  0  0  0  0  0  0  0  0  0
  -27.1920  -28.6830   20.7140 C   0  0  0  0  0  3  0  0  0  0  0  0
  -26.0330  -26.8880   19.5570 C   0  0  0  0  0  3  0  0  0  0  0  0
  -24.8460  -27.6490   19.5580 C   0  0  0  0  0  3  0  0  0  0  0  0
  -23.5880  -29.7890   20.2000 C   0  0  0  0  0  2  0  0  0  0  0  0
  -24.6500  -31.0720   22.1130 N   0  0  0  0  0  0  0  0  0  0  0  0
  -23.5200  -32.1480   23.7600 O   0  0  0  0  0  0  0  0  0  0  0  0
  -22.7330  -29.4560   22.5450 C   0  0  0  0  0  0  0  0  0  0  0  0
  -21.4080  -29.2750   22.4230 N   0  0  0  0  0  0  0  0  0  0  0  0
  -23.4180  -28.8320   23.3590 O   0  0  0  0  0  0  0  0  0  0  0  0
  -20.9160  -29.8300   21.7370 H   0  0  0  0  0  0  0  0  0  0  0  0
  -18.0370  -28.0680   22.9220 C   0  0  0  0  0  0  0  0  0  0  0  0
  -20.5930  -28.3370   23.1960 C   0  0  0  0  0  3  0  0  0  0  0  0
  -20.7010  -26.9040   22.6240 C   0  0  0  0  0  2  0  0  0  0  0  0
  -19.6020  -26.5740   21.6090 C   0  0  0  0  0  2  0  0  0  0  0  0
  -18.2190  -26.7170   22.2510 C   0  0  0  0  0  2  0  0  0  0  0  0
  -19.1520  -28.8360   23.3510 C   0  0  0  0  0  0  0  0  0  0  0  0
  -18.9290  -30.1010   23.9370 C   0  0  0  0  0  3  0  0  0  0  0  0
  -17.6230  -30.5990   24.0990 C   0  0  0  0  0  3  0  0  0  0  0  0
  -16.5210  -29.8280   23.6870 C   0  0  0  0  0  3  0  0  0  0  0  0
  -16.7290  -28.5660   23.1040 C   0  0  0  0  0  3  0  0  0  0  0  0
  -25.8870  -32.5040   23.8300 C   0  0  0  0  0  3  0  0  0  0  0  0
  -26.4150  -31.7260   25.0990 C   0  0  1  0  0  0  0  0  0  0  0  0
  -25.3310  -31.4830   26.1750 C   0  0  0  0  0  1  0  0  0  0  0  0
  -26.9930  -30.3500   24.6930 C   0  0  0  0  0  1  0  0  0  0  0  0
  -27.5720  -32.5160   25.7540 C   0  0  0  0  0  1  0  0  0  0  0  0
  -25.5800  -33.9010   24.1710 N   0  0  0  0  0  0  0  0  0  0  0  0
  -25.9080  -34.9570   23.4150 C   0  0  0  0  0  0  0  0  0  0  0  0
  -26.5710  -34.8590   22.3790 O   0  0  0  0  0  0  0  0  0  0  0  0
  -24.9910  -34.0510   24.9760 H   0  0  0  0  0  0  0  0  0  0  0  0
  -24.1760  -36.7500   23.0790 C   0  0  0  0  0  1  0  0  0  0  0  0
  -25.4220  -36.3430   23.8810 C   0  0  0  0  0  3  0  0  0  0  0  0
  -27.5630  -37.2230   24.6990 C   0  0  0  0  0  1  0  0  0  0  0  0
  -26.4530  -37.3970   23.7660 N   0  0  0  0  0  0  0  0  0  0  0  0
  -26.0480  -38.3160   23.9220 H   0  0  0  0  0  0  0  0  0  0  0  0
  -28.9100  -22.8780   20.4230 O   0  0  0  0  0  0  0  0  0  0  0  0
  -28.3720  -21.5820   20.0450 C   0  0  0  0  0  2  0  0  0  0  0  0
  -29.4000  -20.4060   19.8200 C   0  0  0  0  0  2  0  0  0  0  0  0
  -29.3490  -19.2780   20.7360 O   0  0  0  0  0  0  0  0  0  0  0  0
  -29.7840  -18.0010   20.1830 C   0  0  0  0  0  2  0  0  0  0  0  0
  -30.1970  -16.9170   21.2400 C   0  0  0  0  0  2  0  0  0  0  0  0
  -29.7780  -15.5490   20.9980 O   0  0  0  0  0  0  0  0  0  0  0  0
  -30.6130  -14.5690   20.4860 C   0  0  0  0  0  0  0  0  0  0  0  0
  -30.3590  -12.3550   19.3530 C   0  0  0  0  0  2  0  0  0  0  0  0
  -29.4220  -12.5490   18.1410 C   0  0  0  0  0  2  0  0  0  0  0  0
  -27.9430  -12.4080   18.5590 C   0  0  0  0  0  2  0  0  0  0  0  0
  -27.5900  -13.2510   19.8140 C   0  0  0  0  0  3  0  0  0  0  0  0
  -28.6310  -13.0410   20.9330 C   0  0  0  0  0  2  0  0  0  0  0  0
  -29.9560  -13.3290   20.3760 N   0  0  0  0  0  0  0  0  0  0  0  0
  -31.7500  -14.7950   20.0640 O   0  0  0  0  0  0  0  0  0  0  0  0
  -25.1880  -13.8620   20.5000 C   0  0  0  0  0  0  0  0  0  0  0  0
  -24.1170  -13.0940   20.8650 C   0  0  0  0  0  0  0  0  0  0  0  0
  -24.5770  -11.7420   20.8520 C   0  0  0  0  0  0  0  0  0  0  0  0
  -26.2340  -12.9790   20.2830 N   0  0  0  0  0  0  0  0  0  0  0  0
  -25.8710  -11.6980   20.5550 N   0  0  0  0  0  0  0  0  0  0  0  0
  -23.8490  -10.4810   21.0480 C   0  0  0  0  0  0  0  0  0  0  0  0
  -24.2860   -9.5120   21.9780 C   0  0  0  0  0  3  0  0  0  0  0  0
  -23.5580   -8.3160   22.1610 C   0  0  0  0  0  3  0  0  0  0  0  0
  -22.3790   -8.0820   21.4130 C   0  0  0  0  0  0  0  0  0  0  0  0
  -21.9620   -9.0400   20.4730 C   0  0  0  0  0  3  0  0  0  0  0  0
  -22.6910  -10.2270   20.2880 C   0  0  0  0  0  3  0  0  0  0  0  0
  -21.6230   -6.9390   21.5050 O   0  0  0  0  0  0  0  0  0  0  0  0
  -21.5930   -6.1860   22.6520 C   0  0  0  0  0  0  0  0  0  0  0  0
  -21.2090   -6.7350   23.8940 C   0  0  0  0  0  3  0  0  0  0  0  0
  -21.1250   -5.9090   25.0330 C   0  0  0  0  0  3  0  0  0  0  0  0
  -21.4160   -4.5360   24.9310 C   0  0  0  0  0  0  0  0  0  0  0  0
  -21.7920   -3.9860   23.6930 C   0  0  0  0  0  3  0  0  0  0  0  0
  -21.8780   -4.8080   22.5560 C   0  0  0  0  0  0  0  0  0  0  0  0
  -22.2210   -4.2700   21.3610 F   0  0  0  0  0  0  0  0  0  0  0  0
  -21.3270   -3.7400   26.0220 F   0  0  0  0  0  0  0  0  0  0  0  0
  -22.7180  -13.5740   21.1220 C   0  0  0  0  0  0  0  0  0  0  0  0
  -21.9840  -12.8850   21.9900 N   0  0  0  0  0  0  0  0  0  0  0  0
  -22.2830  -14.5940   20.5890 O   0  0  0  0  0  0  0  0  0  0  0  0
  -22.3470  -12.0600   22.4420 H   0  0  0  0  0  0  0  0  0  0  0  0
  -21.0440  -13.1890   22.2050 H   0  0  0  0  0  0  0  0  0  0  0  0
  -25.3570  -15.2310   20.3150 N   0  0  0  0  0  0  0  0  0  0  0  0
  -24.5960  -15.8930   20.4210 H   0  0  0  0  0  0  0  0  0  0  0  0
  -26.2240  -15.6670   20.0240 H   0  0  0  0  0  0  0  0  0  0  0  0
  1 44  1  0
  1  2  1  0
  3  5  1  0
  3  2  1  0
  4 15  2  0
  5 10  1  0
  6 14  1  0
  6 16  1  0
  7 13  1  0
  7  9  1  0
  8 14  1  0
  9  8  1  0
 10  9  2  0
 11 12  1  0
 11  5  2  0
 12  7  2  0
 13  6  1  0
 14  4  1  0
 16 18  2  0
 17 16  1  0
 19 17  1  0
 20 29  2  0
 20 25  1  0
 21 17  1  0
 21 25  1  0
 22 21  1  0
 23 24  1  0
 23 22  1  0
 24 20  1  0
 25 26  2  0
 26 27  1  0
 28 27  2  0
 29 28  1  0
 30  4  1  0
 30 35  1  0
 30 31  1  0
 31 34  1  1
 31 32  1  0
 33 31  1  0
 35 38  1  0
 36 40  1  0
 36 35  1  0
 37 36  2  0
 40 39  1  0
 42 40  1  0
 42 43  1  0
 42 41  1  0
 45 44  1  0
 46 45  1  0
 46 47  1  0
 48 47  1  0
 48 49  1  0
 50 49  1  0
 51 50  1  0
 52 57  1  0
 53 54  1  0
 53 52  1  0
 55 54  1  0
 55 62  1  0
 55 56  1  0
 57 51  1  0
 57 56  1  0
 58 51  2  0
 59 60  2  0
 60 79  1  0
 61 60  1  0
 61 64  1  0
 62 59  1  0
 62 63  1  0
 63 61  2  0
 64 65  1  0
 65 66  2  0
 67 70  1  0
 67 66  1  0
 68 67  2  0
 69 68  1  0
 69 64  2  0
 70 71  1  0
 71 72  1  0
 72 73  2  0
 74 73  1  0
 74 78  1  0
 75 74  2  0
 76 71  2  0
 76 75  1  0
 77 76  1  0
 79 80  1  0
 80 83  1  0
 80 82  1  0
 81 79  2  0
 84 85  1  0
 84 59  1  0
 86 84  1  0
M  ISO  4   2 101   3 101  50 100  51 100
M  END
>  <TORSDO>  (16) 
F 24

>  <SCORE>  (16) 
-12.330

>  <name>  (16) 
15

>  <ligand_id>  (16) 
15

>  <original_smiles>  (16) 
[H]c1c([H])c([H])c2c(c1[H])C([H])([H])C([H])([H])C([H])([H])C2([H])N([H])C(=O)C1([H])N(C(=O)C([H])(N([H])C(=O)C([H])(N([H])C([H])([H])[H])C([H])([H])[H])C(C([H])([H])[H])(C([H])([H])[H])C([H])([H])[H])C([H])([H])c2c([H])c(OC([H])([H])C([H])([H])OC([H])([H])C([H])([H])OC([H])([H])C([H])([H])OC(=O)N3C([H])([H])C([H])([H])C([H])([H])C([H])(n4nc(-c5c([H])c([H])c(Oc6c([H])c([H])c(F)c([H])c6F)c([H])c5[H])c(C(=O)N([H])[H])c4N([H])[H])C3([H])[H])c([H])c([H])c2C1([H])[H]

>  <smiles>  (16) 
[H]c1c([H])c([H])c2c(c1[H])C([H])([H])C([H])([H])C([H])([H])C2([H])N([H])C(=O)C1([H])N(C(=O)C([H])(N([H])C(=O)C([H])(N([H])C([H])([H])[H])C([H])([H])[H])C(C([H])([H])[H])(C([H])([H])[H])C([H])([H])[H])C([H])([H])c2c([H])c(OC([H])([H])C([H])([H])OC([H])([H])C([H])([H])OC([H])([H])C([H])([H])OC(=O)N3C([H])([H])C([H])([H])C([H])([H])C([H])(n4nc(-c5c([H])c([H])c(Oc6c([H])c([H])c(F)c([H])c6F)c([H])c5[H])c(C(=O)N([H])[H])c4N([H])[H])C3([H])[H])c([H])c([H])c2C1([H])[H]

$$$$
16:0:0
     RDKit          3D

 87 94  0  0  1  0  0  0  0  0999 V2000
  -29.1130  -22.7980   20.1480 O   0  0  0  0  0  0  0  0  0  0  0  0
  -29.2650  -24.1800   20.5710 C   0  0  0  0  0  2  0  0  0  0  0  0
  -28.1950  -25.1410   19.9510 C   0  0  0  0  0  2  0  0  0  0  0  0
  -28.3440  -26.5690   20.2300 O   0  0  0  0  0  0  0  0  0  0  0  0
  -24.6030  -31.8820   23.2540 C   0  0  0  0  0  0  0  0  0  0  0  0
  -27.2030  -27.3700   20.1730 C   0  0  0  0  0  0  0  0  0  0  0  0
  -23.3880  -30.4910   21.6140 C   0  0  0  0  0  3  0  0  0  0  0  0
  -24.8290  -28.9470   20.1790 C   0  0  0  0  0  0  0  0  0  0  0  0
  -25.9230  -30.8160   21.4190 C   0  0  0  0  0  2  0  0  0  0  0  0
  -25.9960  -29.4430   20.7740 C   0  0  0  0  0  0  0  0  0  0  0  0
  -27.1840  -28.6630   20.7670 C   0  0  0  0  0  3  0  0  0  0  0  0
  -26.0140  -26.9200   19.5460 C   0  0  0  0  0  3  0  0  0  0  0  0
  -24.8370  -27.6890   19.5590 C   0  0  0  0  0  3  0  0  0  0  0  0
  -23.5920  -29.8180   20.2320 C   0  0  0  0  0  2  0  0  0  0  0  0
  -24.6560  -31.0790   22.1530 N   0  0  0  0  0  0  0  0  0  0  0  0
  -23.5240  -32.1610   23.7950 O   0  0  0  0  0  0  0  0  0  0  0  0
  -22.7290  -29.4710   22.5730 C   0  0  0  0  0  0  0  0  0  0  0  0
  -21.4040  -29.2960   22.4460 N   0  0  0  0  0  0  0  0  0  0  0  0
  -23.4090  -28.8420   23.3890 O   0  0  0  0  0  0  0  0  0  0  0  0
  -20.9160  -29.8550   21.7610 H   0  0  0  0  0  0  0  0  0  0  0  0
  -18.0240  -28.1080   22.9390 C   0  0  0  0  0  0  0  0  0  0  0  0
  -20.5820  -28.3620   23.2170 C   0  0  0  0  0  3  0  0  0  0  0  0
  -20.6820  -26.9290   22.6440 C   0  0  0  0  0  2  0  0  0  0  0  0
  -19.5830  -26.6070   21.6270 C   0  0  0  0  0  2  0  0  0  0  0  0
  -18.2000  -26.7570   22.2670 C   0  0  0  0  0  2  0  0  0  0  0  0
  -19.1430  -28.8680   23.3700 C   0  0  0  0  0  0  0  0  0  0  0  0
  -18.9250  -30.1340   23.9590 C   0  0  0  0  0  3  0  0  0  0  0  0
  -17.6220  -30.6390   24.1180 C   0  0  0  0  0  3  0  0  0  0  0  0
  -16.5170  -29.8760   23.7040 C   0  0  0  0  0  3  0  0  0  0  0  0
  -16.7190  -28.6120   23.1200 C   0  0  0  0  0  3  0  0  0  0  0  0
  -25.8930  -32.5060   23.8720 C   0  0  0  0  0  3  0  0  0  0  0  0
  -26.4080  -31.7310   25.1470 C   0  0  1  0  0  0  0  0  0  0  0  0
  -25.3180  -31.5010   26.2190 C   0  0  0  0  0  1  0  0  0  0  0  0
  -26.9820  -30.3500   24.7520 C   0  0  0  0  0  1  0  0  0  0  0  0
  -27.5640  -32.5190   25.8080 C   0  0  0  0  0  1  0  0  0  0  0  0
  -25.5920  -33.9060   24.2030 N   0  0  0  0  0  0  0  0  0  0  0  0
  -25.9250  -34.9570   23.4410 C   0  0  0  0  0  0  0  0  0  0  0  0
  -26.5890  -34.8480   22.4060 O   0  0  0  0  0  0  0  0  0  0  0  0
  -25.0030  -34.0650   25.0080 H   0  0  0  0  0  0  0  0  0  0  0  0
  -24.2020  -36.7560   23.0930 C   0  0  0  0  0  1  0  0  0  0  0  0
  -25.4460  -36.3470   23.8980 C   0  0  0  0  0  3  0  0  0  0  0  0
  -27.5900  -37.2240   24.7140 C   0  0  0  0  0  1  0  0  0  0  0  0
  -26.4820  -37.3950   23.7780 N   0  0  0  0  0  0  0  0  0  0  0  0
  -26.0800  -38.3170   23.9270 H   0  0  0  0  0  0  0  0  0  0  0  0
  -29.8660  -21.8260   20.9130 C   0  0  0  0  0  2  0  0  0  0  0  0
  -29.9940  -20.3890   20.2800 C   0  0  0  0  0  2  0  0  0  0  0  0
  -29.6060  -19.3250   21.1790 O   0  0  0  0  0  0  0  0  0  0  0  0
  -30.3560  -18.0820   21.1900 C   0  0  0  0  0  2  0  0  0  0  0  0
  -29.9920  -17.0260   20.1000 C   0  0  0  0  0  2  0  0  0  0  0  0
  -30.6580  -14.5630   20.1340 C   0  0  0  0  0  0  0  0  0  0  0  0
  -30.3320  -12.3860   19.0110 C   0  0  0  0  0  2  0  0  0  0  0  0
  -29.3420  -12.5990   17.8440 C   0  0  0  0  0  2  0  0  0  0  0  0
  -27.8850  -12.4670   18.3310 C   0  0  0  0  0  2  0  0  0  0  0  0
  -27.6040  -13.2910   19.6150 C   0  0  0  0  0  3  0  0  0  0  0  0
  -28.7030  -13.0590   20.6790 C   0  0  0  0  0  2  0  0  0  0  0  0
  -30.0040  -13.3660   20.0610 N   0  0  0  0  0  0  0  0  0  0  0  0
  -31.7760  -14.7380   19.6440 O   0  0  0  0  0  0  0  0  0  0  0  0
  -29.9110  -15.6090   20.5580 N   0  0  0  0  0  0  0  0  0  0  0  0
  -29.0360  -15.3490   20.9880 H   0  0  0  0  0  0  0  0  0  0  0  0
  -25.2410  -13.9170   20.4180 C   0  0  0  0  0  0  0  0  0  0  0  0
  -24.1800  -13.1550   20.8240 C   0  0  0  0  0  0  0  0  0  0  0  0
  -24.6260  -11.7980   20.7700 C   0  0  0  0  0  0  0  0  0  0  0  0
  -26.2680  -13.0270   20.1440 N   0  0  0  0  0  0  0  0  0  0  0  0
  -25.9040  -11.7470   20.4140 N   0  0  0  0  0  0  0  0  0  0  0  0
  -23.8950  -10.5420   20.9820 C   0  0  0  0  0  0  0  0  0  0  0  0
  -24.3570   -9.5630   21.8880 C   0  0  0  0  0  3  0  0  0  0  0  0
  -23.6260   -8.3710   22.0880 C   0  0  0  0  0  3  0  0  0  0  0  0
  -22.4190   -8.1520   21.3830 C   0  0  0  0  0  0  0  0  0  0  0  0
  -21.9750   -9.1210   20.4660 C   0  0  0  0  0  3  0  0  0  0  0  0
  -22.7060  -10.3040   20.2640 C   0  0  0  0  0  3  0  0  0  0  0  0
  -21.6570   -7.0150   21.4950 O   0  0  0  0  0  0  0  0  0  0  0  0
  -21.6560   -6.2580   22.6390 C   0  0  0  0  0  0  0  0  0  0  0  0
  -21.3040   -6.8040   23.8930 C   0  0  0  0  0  3  0  0  0  0  0  0
  -21.2500   -5.9740   25.0310 C   0  0  0  0  0  3  0  0  0  0  0  0
  -21.5350   -4.6010   24.9170 C   0  0  0  0  0  0  0  0  0  0  0  0
  -21.8800   -4.0550   23.6680 C   0  0  0  0  0  3  0  0  0  0  0  0
  -21.9370   -4.8820   22.5310 C   0  0  0  0  0  0  0  0  0  0  0  0
  -22.2490   -4.3460   21.3260 F   0  0  0  0  0  0  0  0  0  0  0  0
  -21.4760   -3.8020   26.0080 F   0  0  0  0  0  0  0  0  0  0  0  0
  -22.7990  -13.6450   21.1510 C   0  0  0  0  0  0  0  0  0  0  0  0
  -22.0980  -12.9520   22.0420 N   0  0  0  0  0  0  0  0  0  0  0  0
  -22.3520  -14.6760   20.6520 O   0  0  0  0  0  0  0  0  0  0  0  0
  -22.4730  -12.1180   22.4680 H   0  0  0  0  0  0  0  0  0  0  0  0
  -21.1730  -13.2630   22.3040 H   0  0  0  0  0  0  0  0  0  0  0  0
  -25.4140  -15.2870   20.2390 N   0  0  0  0  0  0  0  0  0  0  0  0
  -24.6560  -15.9470   20.3780 H   0  0  0  0  0  0  0  0  0  0  0  0
  -26.2510  -15.7180   19.8670 H   0  0  0  0  0  0  0  0  0  0  0  0
  1  2  1  0
  1 45  1  0
  3  4  1  0
  3  2  1  0
  5 16  2  0
  6  4  1  0
  6 11  1  0
  7 15  1  0
  7 17  1  0
  8 14  1  0
  8 10  1  0
  9 15  1  0
 10  9  1  0
 11 10  2  0
 12 13  1  0
 12  6  2  0
 13  8  2  0
 14  7  1  0
 15  5  1  0
 17 19  2  0
 18 17  1  0
 20 18  1  0
 21 30  2  0
 21 26  1  0
 22 18  1  0
 22 26  1  0
 23 22  1  0
 24 25  1  0
 24 23  1  0
 25 21  1  0
 26 27  2  0
 27 28  1  0
 29 28  2  0
 30 29  1  0
 31  5  1  0
 31 36  1  0
 31 32  1  0
 32 35  1  1
 32 33  1  0
 34 32  1  0
 36 39  1  0
 37 41  1  0
 37 36  1  0
 38 37  2  0
 41 40  1  0
 43 41  1  0
 43 44  1  0
 43 42  1  0
 46 45  1  0
 46 47  1  0
 47 48  1  0
 49 58  1  0
 49 48  1  0
 50 58  1  0
 51 56  1  0
 52 53  1  0
 52 51  1  0
 54 53  1  0
 54 63  1  0
 54 55  1  0
 56 50  1  0
 56 55  1  0
 57 50  2  0
 58 59  1  0
 60 61  2  0
 61 80  1  0
 62 61  1  0
 62 65  1  0
 63 64  1  0
 63 60  1  0
 64 62  2  0
 65 66  1  0
 66 67  2  0
 68 71  1  0
 68 67  1  0
 69 68  2  0
 70 69  1  0
 70 65  2  0
 71 72  1  0
 72 73  1  0
 73 74  2  0
 75 74  1  0
 75 79  1  0
 76 75  2  0
 77 72  2  0
 77 76  1  0
 78 77  1  0
 80 81  1  0
 81 84  1  0
 81 83  1  0
 82 80  2  0
 85 86  1  0
 85 60  1  0
 87 85  1  0
M  ISO  4   3 101   4 101  50 100  58 100
M  END
>  <TORSDO>  (17) 
F 23

>  <SCORE>  (17) 
-12.462

>  <name>  (17) 
16

>  <ligand_id>  (17) 
16

>  <original_smiles>  (17) 
[H]c1c([H])c([H])c2c(c1[H])C([H])([H])C([H])([H])C([H])([H])C2([H])N([H])C(=O)C1([H])N(C(=O)C([H])(N([H])C(=O)C([H])(N([H])C([H])([H])[H])C([H])([H])[H])C(C([H])([H])[H])(C([H])([H])[H])C([H])([H])[H])C([H])([H])c2c([H])c(OC([H])([H])C([H])([H])OC([H])([H])C([H])([H])OC([H])([H])C([H])([H])N([H])C(=O)N3C([H])([H])C([H])([H])C([H])([H])C([H])(n4nc(-c5c([H])c([H])c(Oc6c([H])c([H])c(F)c([H])c6F)c([H])c5[H])c(C(=O)N([H])[H])c4N([H])[H])C3([H])[H])c([H])c([H])c2C1([H])[H]

>  <smiles>  (17) 
[H]c1c([H])c([H])c2c(c1[H])C([H])([H])C([H])([H])C([H])([H])C2([H])N([H])C(=O)C1([H])N(C(=O)C([H])(N([H])C(=O)C([H])(N([H])C([H])([H])[H])C([H])([H])[H])C(C([H])([H])[H])(C([H])([H])[H])C([H])([H])[H])C([H])([H])c2c([H])c(OC([H])([H])C([H])([H])OC([H])([H])C([H])([H])OC([H])([H])C([H])([H])N([H])C(=O)N3C([H])([H])C([H])([H])C([H])([H])C([H])(n4nc(-c5c([H])c([H])c(Oc6c([H])c([H])c(F)c([H])c6F)c([H])c5[H])c(C(=O)N([H])[H])c4N([H])[H])C3([H])[H])c([H])c([H])c2C1([H])[H]

$$$$
17:0:0
     RDKit          3D

103104  0  0  1  0  0  0  0  0999 V2000
  -28.8930  -30.7650   24.3990 C   0  0  0  0  0  3  0  0  0  0  0  0
  -27.6900  -29.5350   24.1360 C   0  0  0  0  0  3  0  0  0  0  0  0
  -28.1260  -28.5090   26.8530 C   0  0  0  0  0  3  0  0  0  0  0  0
  -29.7600  -30.7620   25.8870 C   0  0  0  0  0  0  0  0  0  0  0  0
  -27.4060  -28.2740   25.3720 C   0  0  0  0  0  0  0  0  0  0  0  0
  -29.2850  -29.6990   27.1150 C   0  0  0  0  0  0  0  0  0  0  0  0
  -29.9940  -29.6090   28.2590 F   0  0  0  0  0  0  0  0  0  0  0  0
  -31.1710  -31.0050   25.8180 N   0  0  0  0  0  0  0  0  0  0  0  0
  -31.4600  -31.9430   25.5780 H   0  0  0  0  0  0  0  0  0  0  0  0
  -32.2440  -29.9430   25.6480 C   0  0  0  0  0  2  0  0  0  0  0  0
  -32.2910  -28.7510   24.5490 C   0  0  0  0  0  2  0  0  0  0  0  0
  -32.2450  -29.0020   23.0870 O   0  0  0  0  0  0  0  0  0  0  0  0
  -31.7320  -27.9660   22.1660 C   0  0  0  0  0  2  0  0  0  0  0  0
  -32.2630  -27.8610   20.6580 C   0  0  0  0  0  2  0  0  0  0  0  0
  -31.5320  -28.4930   19.5370 O   0  0  0  0  0  0  0  0  0  0  0  0
  -31.8160  -27.9410   18.1960 C   0  0  0  0  0  2  0  0  0  0  0  0
  -31.1480  -28.4970   16.7950 C   0  0  0  0  0  2  0  0  0  0  0  0
  -29.7330  -28.9050   16.3770 O   0  0  0  0  0  0  0  0  0  0  0  0
  -25.0580  -31.9200   21.6480 C   0  0  0  0  0  0  0  0  0  0  0  0
  -28.6260  -28.0890   16.4230 C   0  0  0  0  0  3  0  0  0  0  0  0
  -23.7620  -30.5340   20.0060 C   0  0  0  0  0  3  0  0  0  0  0  0
  -25.3020  -28.7280   18.1590 C   0  0  0  0  0  3  0  0  0  0  0  0
  -26.0630  -29.8710   19.9490 C   0  0  0  0  0  1  0  0  0  0  0  0
  -26.4370  -28.1150   19.1070 C   0  0  0  0  0  1  0  0  0  0  0  0
  -28.8400  -27.6710   17.9370 C   0  0  0  0  0  1  0  0  0  0  0  0
  -27.0970  -28.5080   15.9080 C   0  0  0  0  0  3  0  0  0  0  0  0
  -25.6990  -28.7460   16.6790 C   0  0  0  0  0  3  0  0  0  0  0  0
  -23.9970  -29.7400   18.5900 C   0  0  0  0  0  2  0  0  0  0  0  0
  -25.0380  -30.9600   20.5330 N   0  0  0  0  0  0  0  0  0  0  0  0
  -24.0000  -32.2030   22.2590 O   0  0  0  0  0  0  0  0  0  0  0  0
  -23.2200  -29.6020   21.1000 C   0  0  0  0  0  0  0  0  0  0  0  0
  -21.9200  -29.3600   21.1800 N   0  0  0  0  0  0  0  0  0  0  0  0
  -23.9980  -29.0410   21.8810 O   0  0  0  0  0  0  0  0  0  0  0  0
  -21.2710  -29.8010   20.5430 H   0  0  0  0  0  0  0  0  0  0  0  0
  -18.9950  -27.6360   22.2010 C   0  0  0  0  0  0  0  0  0  0  0  0
  -21.4620  -28.2180   21.9540 C   0  0  0  0  0  3  0  0  0  0  0  0
  -21.5980  -26.9390   21.0970 C   0  0  0  0  0  2  0  0  0  0  0  0
  -20.3440  -26.6740   20.2700 C   0  0  0  0  0  2  0  0  0  0  0  0
  -19.1430  -26.4930   21.2050 C   0  0  0  0  0  2  0  0  0  0  0  0
  -20.0900  -28.4640   22.5360 C   0  0  0  0  0  0  0  0  0  0  0  0
  -19.9160  -29.5360   23.4370 C   0  0  0  0  0  3  0  0  0  0  0  0
  -18.6570  -29.7840   24.0090 C   0  0  0  0  0  3  0  0  0  0  0  0
  -17.5710  -28.9510   23.6890 C   0  0  0  0  0  3  0  0  0  0  0  0
  -17.7400  -27.8800   22.7910 C   0  0  0  0  0  3  0  0  0  0  0  0
  -26.2970  -32.7320   22.3180 C   0  0  0  0  0  3  0  0  0  0  0  0
  -25.6660  -34.0100   23.0140 N   0  0  0  0  0  0  0  0  0  0  0  0
  -25.6890  -35.3630   22.7630 C   0  0  0  0  0  0  0  0  0  0  0  0
  -26.2100  -35.8150   21.7460 O   0  0  0  0  0  0  0  0  0  0  0  0
  -25.1070  -33.7540   23.8140 H   0  0  0  0  0  0  0  0  0  0  0  0
  -23.6150  -36.8100   23.3140 C   0  0  0  0  0  1  0  0  0  0  0  0
  -25.0400  -36.4130   23.7550 C   0  0  0  0  0  3  0  0  0  0  0  0
  -27.0640  -37.5650   24.6200 C   0  0  0  0  0  1  0  0  0  0  0  0
  -25.7930  -37.6900   23.9160 N   0  0  0  0  0  0  0  0  0  0  0  0
  -25.2300  -38.3830   24.4020 H   0  0  0  0  0  0  0  0  0  0  0  0
  -27.4000  -31.7740   23.3520 C   0  0  0  0  0  3  0  0  0  0  0  0
  -26.2810  -31.2560   24.3930 C   0  0  0  0  0  1  0  0  0  0  0  0
  -29.8790  -30.0030   22.3470 C   0  0  0  0  0 15  0  0  0  0  0  0
  -27.7340  -33.0980   24.3040 C   0  0  0  0  0  1  0  0  0  0  0  0
  -27.6060  -26.7340   25.0970 O   0  0  0  0  0  0  0  0  0  0  0  0
  -28.3780  -27.5570   21.5940 C   0  0  0  0  0  1  0  0  0  0  0  0
  -27.1410  -24.9500   21.1300 C   0  0  0  0  0 15  0  0  0  0  0  0
  -28.8790  -27.2940   23.2410 C   0  0  0  0  0  2  0  0  0  0  0  0
  -27.9740  -24.1200   23.3650 C   0  0  0  0  0  2  0  0  0  0  0  0
  -27.9270  -23.0890   21.7920 C   0  0  0  0  0  1  0  0  0  0  0  0
  -28.3290  -25.8790   24.0460 C   0  0  0  0  0  3  0  0  0  0  0  0
  -29.3130  -18.2980   20.7550 C   0  0  0  0  0  1  0  0  0  0  0  0
  -30.0960  -15.1590   19.4750 C   0  0  0  0  0  2  0  0  0  0  0  0
  -29.6580  -13.9160   18.3940 C   0  0  0  0  0  2  0  0  0  0  0  0
  -28.5970  -12.9200   18.8580 C   0  0  0  0  0  2  0  0  0  0  0  0
  -27.7860  -13.8190   19.7840 C   0  0  0  0  0  3  0  0  0  0  0  0
  -28.5430  -14.9360   20.8120 C   0  0  0  0  0  2  0  0  0  0  0  0
  -29.1450  -16.4390   20.3000 N   0  0  0  0  0  2  0  0  0  0  0  0
  -30.5570  -17.8100   20.5680 O   0  0  0  0  0  1  0  0  0  0  0  0
  -28.5520  -20.4620   21.1950 N   0  0  0  0  0  1  0  0  0  0  0  0
  -29.5070  -20.5850   21.5130 H   0  0  0  0  0  0  0  0  0  0  0  0
  -25.4200  -13.8960   20.4680 C   0  0  0  0  0  0  0  0  0  0  0  0
  -24.4360  -13.0350   20.8200 C   0  0  0  0  0  0  0  0  0  0  0  0
  -24.9950  -11.7210   20.7630 C   0  0  0  0  0  0  0  0  0  0  0  0
  -26.5570  -13.1650   20.2810 N   0  0  0  0  0  0  0  0  0  0  0  0
  -26.3110  -11.8110   20.4570 N   0  0  0  0  0  0  0  0  0  0  0  0
  -24.2860  -10.4230   20.9410 C   0  0  0  0  0  0  0  0  0  0  0  0
  -24.6730   -9.4680   21.9120 C   0  0  0  0  0  3  0  0  0  0  0  0
  -23.9330   -8.2770   22.0990 C   0  0  0  0  0  3  0  0  0  0  0  0
  -22.7790   -8.0190   21.3230 C   0  0  0  0  0  0  0  0  0  0  0  0
  -22.4010   -8.9550   20.3470 C   0  0  0  0  0  3  0  0  0  0  0  0
  -23.1430  -10.1370   20.1570 C   0  0  0  0  0  3  0  0  0  0  0  0
  -22.0200   -6.8750   21.4130 O   0  0  0  0  0  0  0  0  0  0  0  0
  -21.8950   -6.1740   22.5870 C   0  0  0  0  0  0  0  0  0  0  0  0
  -21.3990   -6.7790   23.7630 C   0  0  0  0  0  3  0  0  0  0  0  0
  -21.2220   -6.0120   24.9320 C   0  0  0  0  0  3  0  0  0  0  0  0
  -21.5310   -4.6380   24.9280 C   0  0  0  0  0  0  0  0  0  0  0  0
  -22.0160   -4.0300   23.7560 C   0  0  0  0  0  3  0  0  0  0  0  0
  -22.1940   -4.7960   22.5890 C   0  0  0  0  0  0  0  0  0  0  0  0
  -22.6430   -4.1990   21.4590 F   0  0  0  0  0  0  0  0  0  0  0  0
  -21.3560   -3.8980   26.0480 F   0  0  0  0  0  0  0  0  0  0  0  0
  -23.0250  -13.4530   21.0860 C   0  0  0  0  0  0  0  0  0  0  0  0
  -22.3390  -12.7610   21.9840 N   0  0  0  0  0  0  0  0  0  0  0  0
  -22.5510  -14.4570   20.5480 O   0  0  0  0  0  0  0  0  0  0  0  0
  -22.7420  -11.9570   22.4410 H   0  0  0  0  0  0  0  0  0  0  0  0
  -21.3950  -13.0350   22.2180 H   0  0  0  0  0  0  0  0  0  0  0  0
  -25.4450  -15.2710   20.2600 N   0  0  0  0  0  0  0  0  0  0  0  0
  -24.6130  -15.8520   20.3300 H   0  0  0  0  0  0  0  0  0  0  0  0
  -26.2720  -15.7770   19.9640 H   0  0  0  0  0  0  0  0  0  0  0  0
  1  4  1  0
  2  1  2  0
  2  5  1  0
  3  6  1  0
  4  6  2  0
  5  3  2  0
  6  7  1  0
  8  4  1  0
  9  8  1  0
 10  8  1  0
 11 10  1  0
 12 11  1  0
 13 12  1  0
 14 13  1  0
 15 14  1  0
 16 15  1  0
 17 16  1  0
 18 20  1  0
 18 17  1  0
 19 30  2  0
 20 25  1  0
 21 28  1  0
 21 29  1  0
 21 31  1  0
 22 28  1  0
 22 24  1  0
 23 29  1  0
 26 20  1  0
 26 27  2  0
 27 22  1  0
 29 19  1  0
 31 32  1  0
 31 33  2  0
 34 32  1  0
 35 40  2  0
 35 44  1  0
 36 32  1  0
 36 40  1  0
 37 36  1  0
 38 37  1  0
 38 39  1  0
 39 35  1  0
 40 41  1  0
 41 42  2  0
 43 42  1  0
 44 43  2  0
 45 19  1  0
 45 46  1  0
 45 55  1  0
 46 49  1  0
 47 46  1  0
 47 51  1  0
 48 47  2  0
 51 50  1  0
 51 53  1  0
 53 54  1  0
 53 52  1  0
 55 58  1  0
 55 56  1  0
 59  5  1  0
 60 62  1  0
 62 65  1  0
 63 65  1  0
 64 63  1  0
 65 59  1  0
 67 72  1  0
 68 69  1  0
 68 67  1  0
 70 69  1  0
 70 79  1  0
 70 71  1  0
 72 71  1  0
 73 66  1  0
 74 75  1  0
 76 77  2  0
 77 96  1  0
 78 77  1  0
 78 81  1  0
 79 80  1  0
 79 76  1  0
 80 78  2  0
 81 82  1  0
 82 83  2  0
 84 87  1  0
 84 83  1  0
 85 84  2  0
 86 85  1  0
 86 81  2  0
 87 88  1  0
 88 93  2  0
 88 89  1  0
 89 90  2  0
 91 90  1  0
 91 95  1  0
 92 91  2  0
 93 92  1  0
 94 93  1  0
 96 97  1  0
 97100  1  0
 97 99  1  0
 98 96  2  0
101102  1  0
101 76  1  0
103101  1  0
M  ISO  4  17 101  18 101  66 100  74 100
M  END
>  <TORSDO>  (18) 
F 27

>  <SCORE>  (18) 
-6.891

>  <name>  (18) 
17

>  <ligand_id>  (18) 
17

>  <original_smiles>  (18) 
[H]c1c([H])c(Oc2c([H])c([H])c(N([H])C([H])([H])C([H])([H])OC([H])([H])C([H])([H])OC([H])([H])C([H])([H])Oc3c([H])c([H])c4c(c3[H])C([H])([H])N(C(=O)C([H])(N([H])C(=O)C([H])(N([H])C([H])([H])[H])C([H])([H])[H])C(C([H])([H])[H])(C([H])([H])[H])C([H])([H])[H])C([H])(C(=O)N([H])C3([H])c5c([H])c([H])c([H])c([H])c5C([H])([H])C([H])([H])C3([H])[H])C4([H])[H])c(F)c2[H])c([H])c(N([H])C(=O)N2C([H])([H])C([H])([H])C([H])([H])C([H])(n3nc(-c4c([H])c([H])c(Oc5c([H])c([H])c(F)c([H])c5F)c([H])c4[H])c(C(=O)N([H])[H])c3N([H])[H])C2([H])[H])c1[H]

>  <smiles>  (18) 
[H]c1c([H])c(Oc2c([H])c([H])c(N([H])C([H])([H])C([H])([H])OC([H])([H])C([H])([H])OC([H])([H])C([H])([H])Oc3c([H])c([H])c4c(c3[H])C([H])([H])N(C(=O)C([H])(N([H])C(=O)C([H])(N([H])C([H])([H])[H])C([H])([H])[H])C(C([H])([H])[H])(C([H])([H])[H])C([H])([H])[H])C([H])(C(=O)N([H])C3([H])c5c([H])c([H])c([H])c([H])c5C([H])([H])C([H])([H])C3([H])[H])C4([H])[H])c(F)c2[H])c([H])c(N([H])C(=O)N2C([H])([H])C([H])([H])C([H])([H])C([H])(n3nc(-c4c([H])c([H])c(Oc5c([H])c([H])c(F)c([H])c5F)c([H])c4[H])c(C(=O)N([H])[H])c3N([H])[H])C2([H])[H])c1[H]

$$$$
18:0:0
     RDKit          3D

 87 95  0  0  1  0  0  0  0  0999 V2000
  -30.4580  -19.8130   18.2240 C   0  0  0  0  0  3  0  0  0  0  0  0
  -29.8900  -20.9970   18.7730 C   0  0  0  0  0  3  0  0  0  0  0  0
  -30.3900  -18.5160   18.8090 C   0  0  0  0  0  3  0  0  0  0  0  0
  -29.1180  -19.5680   20.5640 C   0  0  0  0  0  3  0  0  0  0  0  0
  -29.1810  -21.0210   19.9950 C   0  0  0  0  0  0  0  0  0  0  0  0
  -29.7100  -18.2340   20.0170 C   0  0  0  0  0  0  0  0  0  0  0  0
  -30.3720  -15.3630   20.2720 C   0  0  0  0  0  0  0  0  0  0  0  0
  -30.3680  -12.8800   19.4710 C   0  0  0  0  0  2  0  0  0  0  0  0
  -29.4610  -12.6320   18.2390 C   0  0  0  0  0  2  0  0  0  0  0  0
  -28.0180  -12.3430   18.6920 C   0  0  0  0  0  2  0  0  0  0  0  0
  -27.5460  -13.3410   19.7760 C   0  0  0  0  0  3  0  0  0  0  0  0
  -28.5830  -13.5420   20.9040 C   0  0  0  0  0  2  0  0  0  0  0  0
  -29.8160  -14.0410   20.2730 N   0  0  0  0  0  0  0  0  0  0  0  0
  -31.5870  -15.3410   20.0160 O   0  0  0  0  0  0  0  0  0  0  0  0
  -29.6210  -16.6500   20.4450 N   0  0  0  0  0  0  0  0  0  0  0  0
  -28.7180  -16.4350   20.8390 H   0  0  0  0  0  0  0  0  0  0  0  0
  -25.1710  -13.9020   20.5180 C   0  0  0  0  0  0  0  0  0  0  0  0
  -24.1090  -13.1250   20.8870 C   0  0  0  0  0  0  0  0  0  0  0  0
  -24.5740  -11.7740   20.8620 C   0  0  0  0  0  0  0  0  0  0  0  0
  -26.2150  -13.0240   20.2810 N   0  0  0  0  0  0  0  0  0  0  0  0
  -25.8670  -11.7390   20.5570 N   0  0  0  0  0  0  0  0  0  0  0  0
  -23.8440  -10.5130   21.0510 C   0  0  0  0  0  0  0  0  0  0  0  0
  -24.2690   -9.5450   21.9870 C   0  0  0  0  0  3  0  0  0  0  0  0
  -23.5380   -8.3500   22.1640 C   0  0  0  0  0  3  0  0  0  0  0  0
  -22.3650   -8.1160   21.4080 C   0  0  0  0  0  0  0  0  0  0  0  0
  -21.9580   -9.0710   20.4620 C   0  0  0  0  0  3  0  0  0  0  0  0
  -22.6880  -10.2580   20.2820 C   0  0  0  0  0  3  0  0  0  0  0  0
  -21.6010   -6.9750   21.4970 O   0  0  0  0  0  0  0  0  0  0  0  0
  -21.5520   -6.2310   22.6490 C   0  0  0  0  0  0  0  0  0  0  0  0
  -21.1320   -6.7850   23.8780 C   0  0  0  0  0  3  0  0  0  0  0  0
  -21.0250   -5.9650   25.0190 C   0  0  0  0  0  3  0  0  0  0  0  0
  -21.3320   -4.5940   24.9350 C   0  0  0  0  0  0  0  0  0  0  0  0
  -21.7510   -4.0420   23.7120 C   0  0  0  0  0  3  0  0  0  0  0  0
  -21.8570   -4.8570   22.5710 C   0  0  0  0  0  0  0  0  0  0  0  0
  -22.2370   -4.3130   21.3900 F   0  0  0  0  0  0  0  0  0  0  0  0
  -21.2270   -3.8060   26.0300 F   0  0  0  0  0  0  0  0  0  0  0  0
  -22.7080  -13.6000   21.1400 C   0  0  0  0  0  0  0  0  0  0  0  0
  -21.9730  -12.9060   22.0030 N   0  0  0  0  0  0  0  0  0  0  0  0
  -22.2760  -14.6210   20.6080 O   0  0  0  0  0  0  0  0  0  0  0  0
  -22.3400  -12.0770   22.4460 H   0  0  0  0  0  0  0  0  0  0  0  0
  -21.0340  -13.2070   22.2200 H   0  0  0  0  0  0  0  0  0  0  0  0
  -25.3310  -15.2710   20.3300 N   0  0  0  0  0  0  0  0  0  0  0  0
  -24.5620  -15.9210   20.4430 H   0  0  0  0  0  0  0  0  0  0  0  0
  -26.1440  -15.6990   19.9050 H   0  0  0  0  0  0  0  0  0  0  0  0
  -28.7000  -22.6210   20.5810 C   0  0  0  0  0  2  0  0  0  0  0  0
  -28.2610  -24.2330   19.8390 C   0  0  0  0  0  2  0  0  0  0  0  0
  -28.2380  -25.8380   20.3040 O   0  0  0  0  0  0  0  0  0  0  0  0
  -24.6600  -31.8470   23.2030 C   0  0  0  0  0  0  0  0  0  0  0  0
  -27.2180  -26.9340   20.1930 C   0  0  0  0  0  0  0  0  0  0  0  0
  -23.4630  -30.4410   21.5710 C   0  0  0  0  0  3  0  0  0  0  0  0
  -24.9110  -28.8260   20.1520 C   0  0  0  0  0  0  0  0  0  0  0  0
  -26.0310  -30.6470   21.4240 C   0  0  0  0  0  2  0  0  0  0  0  0
  -26.1000  -29.2310   20.7700 C   0  0  0  0  0  0  0  0  0  0  0  0
  -27.2390  -28.3030   20.7700 C   0  0  0  0  0  3  0  0  0  0  0  0
  -25.9960  -26.6880   19.5250 C   0  0  0  0  0  3  0  0  0  0  0  0
  -24.8840  -27.5760   19.5110 C   0  0  0  0  0  3  0  0  0  0  0  0
  -23.6930  -29.7510   20.2000 C   0  0  0  0  0  2  0  0  0  0  0  0
  -24.7400  -31.0070   22.1200 N   0  0  0  0  0  0  0  0  0  0  0  0
  -23.5700  -32.1410   23.7220 O   0  0  0  0  0  0  0  0  0  0  0  0
  -22.7690  -29.4530   22.5440 C   0  0  0  0  0  0  0  0  0  0  0  0
  -21.4360  -29.2990   22.4290 N   0  0  0  0  0  0  0  0  0  0  0  0
  -23.4340  -28.8290   23.3730 O   0  0  0  0  0  0  0  0  0  0  0  0
  -20.9440  -29.8630   21.7480 H   0  0  0  0  0  0  0  0  0  0  0  0
  -18.0540  -28.1030   22.9450 C   0  0  0  0  0  0  0  0  0  0  0  0
  -20.6130  -28.3670   23.2070 C   0  0  0  0  0  3  0  0  0  0  0  0
  -20.7160  -26.9340   22.6350 C   0  0  0  0  0  2  0  0  0  0  0  0
  -19.6140  -26.6090   21.6250 C   0  0  0  0  0  2  0  0  0  0  0  0
  -18.2300  -26.7550   22.2680 C   0  0  0  0  0  2  0  0  0  0  0  0
  -19.1710  -28.8660   23.3690 C   0  0  0  0  0  0  0  0  0  0  0  0
  -18.9460  -30.1240   23.9690 C   0  0  0  0  0  3  0  0  0  0  0  0
  -17.6400  -30.6210   24.1450 C   0  0  0  0  0  3  0  0  0  0  0  0
  -16.5410  -29.8530   23.7280 C   0  0  0  0  0  3  0  0  0  0  0  0
  -16.7460  -28.5960   23.1370 C   0  0  0  0  0  3  0  0  0  0  0  0
  -25.9290  -32.4940   23.8320 C   0  0  0  0  0  3  0  0  0  0  0  0
  -25.6120  -33.8940   24.1620 N   0  0  0  0  0  0  0  0  0  0  0  0
  -25.9500  -34.9570   23.4160 C   0  0  0  0  0  0  0  0  0  0  0  0
  -26.6250  -34.8560   22.3890 O   0  0  0  0  0  0  0  0  0  0  0  0
  -25.0100  -34.0430   24.9570 H   0  0  0  0  0  0  0  0  0  0  0  0
  -24.2290  -36.7630   23.0760 C   0  0  0  0  0  1  0  0  0  0  0  0
  -25.4690  -36.3470   23.8840 C   0  0  0  0  0  3  0  0  0  0  0  0
  -27.6050  -37.2210   24.7220 C   0  0  0  0  0  1  0  0  0  0  0  0
  -26.5060  -37.3970   23.7760 N   0  0  0  0  0  0  0  0  0  0  0  0
  -26.1050  -38.3180   23.9310 H   0  0  0  0  0  0  0  0  0  0  0  0
  -26.4330  -31.7370   25.1240 C   0  0  1  0  0  0  0  0  0  0  0  0
  -25.3300  -31.5180   26.1870 C   0  0  0  0  0  1  0  0  0  0  0  0
  -27.0130  -30.3510   24.7620 C   0  0  0  0  0  1  0  0  0  0  0  0
  -27.5820  -32.5350   25.7850 C   0  0  0  0  0  1  0  0  0  0  0  0
  1  2  2  0
  1  3  1  0
  2  5  1  0
  3  6  2  0
  5  4  2  0
  5 45  1  0
  6 15  1  0
  6  4  1  0
  7 13  1  0
  7 15  1  0
  8 13  1  0
  9 10  1  0
  9  8  1  0
 11 10  1  0
 11 20  1  0
 11 12  1  0
 13 12  1  0
 14  7  2  0
 15 16  1  0
 17 18  2  0
 18 37  1  0
 19 18  1  0
 19 22  1  0
 20 17  1  0
 20 21  1  0
 21 19  2  0
 22 23  1  0
 23 24  2  0
 25 28  1  0
 25 24  1  0
 26 25  2  0
 27 26  1  0
 27 22  2  0
 28 29  1  0
 29 30  1  0
 30 31  2  0
 32 31  1  0
 32 36  1  0
 33 32  2  0
 34 29  2  0
 34 33  1  0
 35 34  1  0
 37 38  1  0
 38 41  1  0
 38 40  1  0
 39 37  2  0
 42 43  1  0
 42 17  1  0
 44 42  1  0
 46 47  1  0
 46 45  1  0
 48 59  2  0
 49 47  1  0
 49 54  1  0
 50 58  1  0
 50 60  1  0
 51 57  1  0
 51 53  1  0
 52 58  1  0
 53 52  1  0
 54 53  2  0
 55 49  2  0
 56 55  1  0
 56 51  2  0
 57 50  1  0
 58 48  1  0
 60 62  2  0
 61 60  1  0
 63 61  1  0
 64 73  2  0
 64 69  1  0
 65 61  1  0
 65 69  1  0
 66 65  1  0
 67 68  1  0
 67 66  1  0
 68 64  1  0
 69 70  2  0
 70 71  1  0
 72 71  2  0
 73 72  1  0
 74 48  1  0
 74 75  1  0
 74 84  1  0
 75 78  1  0
 76 80  1  0
 76 75  1  0
 77 76  2  0
 80 79  1  0
 82 80  1  0
 82 83  1  0
 82 81  1  0
 84 87  1  1
 84 85  1  0
 86 84  1  0
M  ISO  4   7 100  15 100  46 101  47 101
M  END
>  <TORSDO>  (19) 
F 18

>  <SCORE>  (19) 
-15.935

>  <name>  (19) 
18

>  <ligand_id>  (19) 
18

>  <original_smiles>  (19) 
[H]c1c([H])c(N([H])C(=O)N2C([H])([H])C([H])([H])C([H])([H])C([H])(n3nc(-c4c([H])c([H])c(Oc5c([H])c([H])c(F)c([H])c5F)c([H])c4[H])c(C(=O)N([H])[H])c3N([H])[H])C2([H])[H])c([H])c(C([H])([H])C([H])([H])Oc2c([H])c([H])c3c(c2[H])C([H])([H])N(C(=O)C([H])(N([H])C(=O)C([H])(N([H])C([H])([H])[H])C([H])([H])[H])C(C([H])([H])[H])(C([H])([H])[H])C([H])([H])[H])C([H])(C(=O)N([H])C2([H])c4c([H])c([H])c([H])c([H])c4C([H])([H])C([H])([H])C2([H])[H])C3([H])[H])c1[H]

>  <smiles>  (19) 
[H]c1c([H])c(N([H])C(=O)N2C([H])([H])C([H])([H])C([H])([H])C([H])(n3nc(-c4c([H])c([H])c(Oc5c([H])c([H])c(F)c([H])c5F)c([H])c4[H])c(C(=O)N([H])[H])c3N([H])[H])C2([H])[H])c([H])c(C([H])([H])C([H])([H])Oc2c([H])c([H])c3c(c2[H])C([H])([H])N(C(=O)C([H])(N([H])C(=O)C([H])(N([H])C([H])([H])[H])C([H])([H])[H])C(C([H])([H])[H])(C([H])([H])[H])C([H])([H])[H])C([H])(C(=O)N([H])C2([H])c4c([H])c([H])c([H])c([H])c4C([H])([H])C([H])([H])C2([H])[H])C3([H])[H])c1[H]

$$$$
19:0:0
     RDKit          3D

 81 85  0  0  1  0  0  0  0  0999 V2000
  -28.1090  -24.6470   20.3000 O   0  0  0  0  0  1  0  0  0  0  0  0
  -24.7100  -31.7810   23.1610 C   0  0  0  0  0  0  0  0  0  0  0  0
  -27.2070  -26.1440   20.2640 C   0  0  0  0  0  0  0  0  0  0  0  0
  -23.5560  -30.3680   21.5220 C   0  0  0  0  0  3  0  0  0  0  0  0
  -25.0090  -28.5810   20.1690 C   0  0  0  0  0  0  0  0  0  0  0  0
  -26.1560  -30.3130   21.5020 C   0  0  0  0  0  2  0  0  0  0  0  0
  -26.2110  -28.8120   20.8490 C   0  0  0  0  0  0  0  0  0  0  0  0
  -27.2590  -27.6460   20.8460 C   0  0  0  0  0  3  0  0  0  0  0  0
  -25.9680  -26.2870   19.5230 C   0  0  0  0  0  3  0  0  0  0  0  0
  -24.9660  -27.3480   19.4800 C   0  0  0  0  0  3  0  0  0  0  0  0
  -23.8360  -29.6140   20.1780 C   0  0  0  0  0  2  0  0  0  0  0  0
  -24.8390  -30.8700   22.1140 N   0  0  0  0  0  0  0  0  0  0  0  0
  -23.6010  -32.1150   23.6230 O   0  0  0  0  0  0  0  0  0  0  0  0
  -22.7620  -29.4580   22.5040 C   0  0  0  0  0  0  0  0  0  0  0  0
  -21.4220  -29.3560   22.3730 N   0  0  0  0  0  0  0  0  0  0  0  0
  -23.3780  -28.8290   23.3670 O   0  0  0  0  0  0  0  0  0  0  0  0
  -20.9670  -29.9120   21.6630 H   0  0  0  0  0  0  0  0  0  0  0  0
  -17.9970  -28.2130   22.9010 C   0  0  0  0  0  0  0  0  0  0  0  0
  -20.5670  -28.4380   23.1430 C   0  0  0  0  0  3  0  0  0  0  0  0
  -20.6330  -27.0060   22.5600 C   0  0  0  0  0  2  0  0  0  0  0  0
  -19.5210  -26.7160   21.5460 C   0  0  0  0  0  2  0  0  0  0  0  0
  -18.1460  -26.8740   22.1990 C   0  0  0  0  0  2  0  0  0  0  0  0
  -19.1320  -28.9550   23.3290 C   0  0  0  0  0  0  0  0  0  0  0  0
  -18.9320  -30.2040   23.9560 C   0  0  0  0  0  3  0  0  0  0  0  0
  -17.6350  -30.7130   24.1530 C   0  0  0  0  0  3  0  0  0  0  0  0
  -16.5160  -29.9710   23.7350 C   0  0  0  0  0  3  0  0  0  0  0  0
  -16.6980  -28.7220   23.1160 C   0  0  0  0  0  3  0  0  0  0  0  0
  -25.9400  -32.4590   23.8420 C   0  0  0  0  0  3  0  0  0  0  0  0
  -25.5980  -33.8650   24.1720 N   0  0  0  0  0  0  0  0  0  0  0  0
  -25.9200  -34.9450   23.4450 C   0  0  0  0  0  0  0  0  0  0  0  0
  -26.5760  -34.8640   22.4040 O   0  0  0  0  0  0  0  0  0  0  0  0
  -25.0070  -33.9990   24.9800 H   0  0  0  0  0  0  0  0  0  0  0  0
  -24.1680  -36.7480   23.1980 C   0  0  0  0  0  1  0  0  0  0  0  0
  -25.4480  -36.3330   23.9420 C   0  0  0  0  0  3  0  0  0  0  0  0
  -27.6060  -37.2470   24.6880 C   0  0  0  0  0  1  0  0  0  0  0  0
  -26.4650  -37.3980   23.7880 N   0  0  0  0  0  0  0  0  0  0  0  0
  -26.0550  -38.3150   23.9480 H   0  0  0  0  0  0  0  0  0  0  0  0
  -26.3960  -31.7200   25.1620 C   0  0  1  0  0  0  0  0  0  0  0  0
  -25.2580  -31.5140   26.1910 C   0  0  0  0  0  1  0  0  0  0  0  0
  -26.9880  -30.3300   24.8490 C   0  0  0  0  0  1  0  0  0  0  0  0
  -27.5230  -32.5250   25.8520 C   0  0  0  0  0  1  0  0  0  0  0  0
  -28.1400  -22.5480   20.1630 C   0  0  0  0  0 15  0  0  0  0  0  0
  -29.1420  -20.4180   20.2160 C   0  0  0  0  0 15  0  0  0  0  0  0
  -29.9010  -16.6470   20.0860 C   0  0  0  0  0  0  0  0  0  0  0  0
  -30.2300  -13.8900   19.2940 C   0  0  0  0  0  2  0  0  0  0  0  0
  -29.4480  -13.0530   18.1990 C   0  0  0  0  0  2  0  0  0  0  0  0
  -28.1340  -12.4820   18.7300 C   0  0  0  0  0  2  0  0  0  0  0  0
  -27.5010  -13.5140   19.6750 C   0  0  0  0  0  3  0  0  0  0  0  0
  -28.4750  -14.2100   20.6950 C   0  0  0  0  0  2  0  0  0  0  0  0
  -29.4550  -15.1290   19.9600 N   0  0  0  0  0  0  0  0  0  0  0  0
  -31.1430  -16.3980   20.0040 O   0  0  0  0  0  0  0  0  0  0  0  0
  -29.2570  -18.3100   20.1340 N   0  0  0  0  0  2  0  0  0  0  0  0
  -30.2580  -18.4710   20.1320 H   0  0  0  0  0  0  0  0  0  0  0  0
  -25.1600  -13.9200   20.5080 C   0  0  0  0  0  0  0  0  0  0  0  0
  -24.1280  -13.1120   20.8810 C   0  0  0  0  0  0  0  0  0  0  0  0
  -24.6260  -11.7720   20.8220 C   0  0  0  0  0  0  0  0  0  0  0  0
  -26.2240  -13.0860   20.2420 N   0  0  0  0  0  0  0  0  0  0  0  0
  -25.9190  -11.7780   20.4820 N   0  0  0  0  0  0  0  0  0  0  0  0
  -23.9140  -10.4950   21.0120 C   0  0  0  0  0  0  0  0  0  0  0  0
  -24.3570   -9.5290   21.9420 C   0  0  0  0  0  3  0  0  0  0  0  0
  -23.6350   -8.3280   22.1300 C   0  0  0  0  0  3  0  0  0  0  0  0
  -22.4560   -8.0830   21.3870 C   0  0  0  0  0  0  0  0  0  0  0  0
  -22.0290   -9.0390   20.4470 C   0  0  0  0  0  3  0  0  0  0  0  0
  -22.7510  -10.2310   20.2590 C   0  0  0  0  0  3  0  0  0  0  0  0
  -21.7070   -6.9350   21.4820 O   0  0  0  0  0  0  0  0  0  0  0  0
  -21.6700   -6.1910   22.6350 C   0  0  0  0  0  0  0  0  0  0  0  0
  -21.2140   -6.7320   23.8560 C   0  0  0  0  0  3  0  0  0  0  0  0
  -21.1260   -5.9140   25.0000 C   0  0  0  0  0  3  0  0  0  0  0  0
  -21.4850   -4.5540   24.9250 C   0  0  0  0  0  0  0  0  0  0  0  0
  -21.9340   -4.0110   23.7070 C   0  0  0  0  0  3  0  0  0  0  0  0
  -22.0220   -4.8270   22.5660 C   0  0  0  0  0  0  0  0  0  0  0  0
  -22.4340   -4.2930   21.3900 F   0  0  0  0  0  0  0  0  0  0  0  0
  -21.3950   -3.7660   26.0220 F   0  0  0  0  0  0  0  0  0  0  0  0
  -22.7270  -13.5620   21.1730 C   0  0  0  0  0  0  0  0  0  0  0  0
  -22.0260  -12.8570   22.0520 N   0  0  0  0  0  0  0  0  0  0  0  0
  -22.2670  -14.5820   20.6590 O   0  0  0  0  0  0  0  0  0  0  0  0
  -22.4140  -12.0340   22.4890 H   0  0  0  0  0  0  0  0  0  0  0  0
  -21.0880  -13.1430   22.2910 H   0  0  0  0  0  0  0  0  0  0  0  0
  -25.2790  -15.2960   20.3350 N   0  0  0  0  0  0  0  0  0  0  0  0
  -24.4980  -15.9290   20.4650 H   0  0  0  0  0  0  0  0  0  0  0  0
  -26.1180  -15.7610   20.0090 H   0  0  0  0  0  0  0  0  0  0  0  0
  2 13  2  0
  3  1  1  0
  3  8  1  0
  4 12  1  0
  4 14  1  0
  5 11  1  0
  5  7  1  0
  6 12  1  0
  7  6  1  0
  8  7  2  0
  9  3  2  0
 10  9  1  0
 10  5  2  0
 11  4  1  0
 12  2  1  0
 14 16  2  0
 15 14  1  0
 17 15  1  0
 18 27  2  0
 18 23  1  0
 19 15  1  0
 19 23  1  0
 20 19  1  0
 21 22  1  0
 21 20  1  0
 22 18  1  0
 23 24  2  0
 24 25  1  0
 26 25  2  0
 27 26  1  0
 28  2  1  0
 28 29  1  0
 28 38  1  0
 29 32  1  0
 30 34  1  0
 30 29  1  0
 31 30  2  0
 34 33  1  0
 36 34  1  0
 36 37  1  0
 36 35  1  0
 38 41  1  1
 38 39  1  0
 40 38  1  0
 44 52  1  0
 45 50  1  0
 46 47  1  0
 46 45  1  0
 48 47  1  0
 48 57  1  0
 48 49  1  0
 50 44  1  0
 50 49  1  0
 51 44  2  0
 53 52  1  0
 54 55  2  0
 55 74  1  0
 56 55  1  0
 56 59  1  0
 57 58  1  0
 57 54  1  0
 58 56  2  0
 59 60  1  0
 60 61  2  0
 62 65  1  0
 62 61  1  0
 63 62  2  0
 64 63  1  0
 64 59  2  0
 65 66  1  0
 66 67  1  0
 67 68  2  0
 69 68  1  0
 69 73  1  0
 70 69  2  0
 71 66  2  0
 71 70  1  0
 72 71  1  0
 74 75  1  0
 75 78  1  0
 75 77  1  0
 76 74  2  0
 79 80  1  0
 79 54  1  0
 81 79  1  0
M  ISO  4   1 101  42 101  44 100  52 100
M  END
>  <TORSDO>  (20) 
F 17

>  <SCORE>  (20) 
-16.141

>  <name>  (20) 
19

>  <ligand_id>  (20) 
19

>  <original_smiles>  (20) 
[H]c1c([H])c([H])c2c(c1[H])C([H])([H])C([H])([H])C([H])([H])C2([H])N([H])C(=O)C1([H])N(C(=O)C([H])(N([H])C(=O)C([H])(N([H])C([H])([H])[H])C([H])([H])[H])C(C([H])([H])[H])(C([H])([H])[H])C([H])([H])[H])C([H])([H])c2c([H])c(OC([H])([H])C([H])([H])N([H])C(=O)N3C([H])([H])C([H])([H])C([H])([H])C([H])(n4nc(-c5c([H])c([H])c(Oc6c([H])c([H])c(F)c([H])c6F)c([H])c5[H])c(C(=O)N([H])[H])c4N([H])[H])C3([H])[H])c([H])c([H])c2C1([H])[H]

>  <smiles>  (20) 
[H]c1c([H])c([H])c2c(c1[H])C([H])([H])C([H])([H])C([H])([H])C2([H])N([H])C(=O)C1([H])N(C(=O)C([H])(N([H])C(=O)C([H])(N([H])C([H])([H])[H])C([H])([H])[H])C(C([H])([H])[H])(C([H])([H])[H])C([H])([H])[H])C([H])([H])c2c([H])c(OC([H])([H])C([H])([H])N([H])C(=O)N3C([H])([H])C([H])([H])C([H])([H])C([H])(n4nc(-c5c([H])c([H])c(Oc6c([H])c([H])c(F)c([H])c6F)c([H])c5[H])c(C(=O)N([H])[H])c4N([H])[H])C3([H])[H])c([H])c([H])c2C1([H])[H]

$$$$
20:0:0
     RDKit          3D

 88 96  0  0  1  0  0  0  0  0999 V2000
  -29.6150  -21.3940   18.1260 C   0  0  0  0  0  3  0  0  0  0  0  0
  -29.1670  -22.5890   18.7650 C   0  0  0  0  0  3  0  0  0  0  0  0
  -29.6940  -20.1050   18.7340 C   0  0  0  0  0  3  0  0  0  0  0  0
  -28.8440  -21.1930   20.7030 C   0  0  0  0  0  3  0  0  0  0  0  0
  -28.7100  -22.6250   20.1010 C   0  0  0  0  0  0  0  0  0  0  0  0
  -29.3470  -19.8560   20.0800 C   0  0  0  0  0  0  0  0  0  0  0  0
  -28.0250  -24.1200   20.6680 C   0  0  0  0  0  0  0  0  0  0  0  0
  -27.2310  -23.9620   21.5990 O   0  0  0  0  0  0  0  0  0  0  0  0
  -28.2020  -25.7500   20.1760 O   0  0  0  0  0  0  0  0  0  0  0  0
  -24.6400  -31.8190   23.1820 C   0  0  0  0  0  0  0  0  0  0  0  0
  -27.2120  -26.8830   20.2250 C   0  0  0  0  0  0  0  0  0  0  0  0
  -23.4580  -30.4110   21.5480 C   0  0  0  0  0  3  0  0  0  0  0  0
  -24.9180  -28.7910   20.1530 C   0  0  0  0  0  0  0  0  0  0  0  0
  -26.0290  -30.6100   21.4210 C   0  0  0  0  0  2  0  0  0  0  0  0
  -26.1050  -29.1890   20.7820 C   0  0  0  0  0  0  0  0  0  0  0  0
  -27.2480  -28.2590   20.7920 C   0  0  0  0  0  3  0  0  0  0  0  0
  -25.9930  -26.6520   19.5490 C   0  0  0  0  0  3  0  0  0  0  0  0
  -24.8880  -27.5410   19.5170 C   0  0  0  0  0  3  0  0  0  0  0  0
  -23.7000  -29.7170   20.1800 C   0  0  0  0  0  2  0  0  0  0  0  0
  -24.7310  -30.9750   22.1030 N   0  0  0  0  0  0  0  0  0  0  0  0
  -23.5450  -32.1130   23.6920 O   0  0  0  0  0  0  0  0  0  0  0  0
  -22.7560  -29.4210   22.5170 C   0  0  0  0  0  0  0  0  0  0  0  0
  -21.4240  -29.2700   22.3980 N   0  0  0  0  0  0  0  0  0  0  0  0
  -23.4190  -28.7910   23.3440 O   0  0  0  0  0  0  0  0  0  0  0  0
  -20.9410  -29.8290   21.7080 H   0  0  0  0  0  0  0  0  0  0  0  0
  -18.0310  -28.0940   22.9320 C   0  0  0  0  0  0  0  0  0  0  0  0
  -20.5960  -28.3390   23.1740 C   0  0  0  0  0  3  0  0  0  0  0  0
  -20.6790  -26.9070   22.5950 C   0  0  0  0  0  2  0  0  0  0  0  0
  -19.5660  -26.5960   21.5890 C   0  0  0  0  0  2  0  0  0  0  0  0
  -18.1910  -26.7480   22.2470 C   0  0  0  0  0  2  0  0  0  0  0  0
  -19.1600  -28.8480   23.3540 C   0  0  0  0  0  0  0  0  0  0  0  0
  -18.9530  -30.1070   23.9590 C   0  0  0  0  0  3  0  0  0  0  0  0
  -17.6530  -30.6120   24.1450 C   0  0  0  0  0  3  0  0  0  0  0  0
  -16.5390  -29.8560   23.7380 C   0  0  0  0  0  3  0  0  0  0  0  0
  -16.7300  -28.5990   23.1380 C   0  0  0  0  0  3  0  0  0  0  0  0
  -25.9040  -32.4700   23.8180 C   0  0  0  0  0  3  0  0  0  0  0  0
  -25.5780  -33.8700   24.1480 N   0  0  0  0  0  0  0  0  0  0  0  0
  -25.9100  -34.9330   23.4040 C   0  0  0  0  0  0  0  0  0  0  0  0
  -26.5840  -34.8390   22.3760 O   0  0  0  0  0  0  0  0  0  0  0  0
  -24.9770  -34.0140   24.9470 H   0  0  0  0  0  0  0  0  0  0  0  0
  -24.1780  -36.7310   23.0640 C   0  0  0  0  0  1  0  0  0  0  0  0
  -25.4190  -36.3190   23.8730 C   0  0  0  0  0  3  0  0  0  0  0  0
  -27.5500  -37.2060   24.7120 C   0  0  0  0  0  1  0  0  0  0  0  0
  -26.4500  -37.3760   23.7680 N   0  0  0  0  0  0  0  0  0  0  0  0
  -26.0400  -38.2940   23.9200 H   0  0  0  0  0  0  0  0  0  0  0  0
  -26.4050  -31.7130   25.1100 C   0  0  1  0  0  0  0  0  0  0  0  0
  -25.3000  -31.4860   26.1690 C   0  0  0  0  0  1  0  0  0  0  0  0
  -26.9940  -30.3300   24.7480 C   0  0  0  0  0  1  0  0  0  0  0  0
  -27.5480  -32.5140   25.7760 C   0  0  0  0  0  1  0  0  0  0  0  0
  -29.7500  -18.2540   20.7230 C   0  0  0  0  0  2  0  0  0  0  0  0
  -30.3710  -15.3350   20.2650 C   0  0  0  0  0  0  0  0  0  0  0  0
  -30.3700  -12.8770   19.3710 C   0  0  0  0  0  2  0  0  0  0  0  0
  -29.4470  -12.6150   18.1530 C   0  0  0  0  0  2  0  0  0  0  0  0
  -28.0040  -12.3300   18.6050 C   0  0  0  0  0  2  0  0  0  0  0  0
  -27.5440  -13.3050   19.7140 C   0  0  0  0  0  3  0  0  0  0  0  0
  -28.5950  -13.4930   20.8280 C   0  0  0  0  0  2  0  0  0  0  0  0
  -29.8030  -14.0250   20.1720 N   0  0  0  0  0  0  0  0  0  0  0  0
  -31.6040  -15.3130   20.1390 O   0  0  0  0  0  0  0  0  0  0  0  0
  -29.6020  -16.6230   20.2950 N   0  0  0  0  0  0  0  0  0  0  0  0
  -28.6230  -16.4030   20.1830 H   0  0  0  0  0  0  0  0  0  0  0  0
  -25.1760  -13.8590   20.4760 C   0  0  0  0  0  0  0  0  0  0  0  0
  -24.1170  -13.0810   20.8480 C   0  0  0  0  0  0  0  0  0  0  0  0
  -24.5880  -11.7320   20.8230 C   0  0  0  0  0  0  0  0  0  0  0  0
  -26.2200  -12.9860   20.2340 N   0  0  0  0  0  0  0  0  0  0  0  0
  -25.8800  -11.7000   20.5120 N   0  0  0  0  0  0  0  0  0  0  0  0
  -23.8630  -10.4690   21.0160 C   0  0  0  0  0  0  0  0  0  0  0  0
  -24.2930   -9.5050   21.9550 C   0  0  0  0  0  3  0  0  0  0  0  0
  -23.5640   -8.3090   22.1370 C   0  0  0  0  0  3  0  0  0  0  0  0
  -22.3930   -8.0680   21.3810 C   0  0  0  0  0  0  0  0  0  0  0  0
  -21.9820   -9.0210   20.4320 C   0  0  0  0  0  3  0  0  0  0  0  0
  -22.7110  -10.2080   20.2470 C   0  0  0  0  0  3  0  0  0  0  0  0
  -21.6360   -6.9250   21.4730 O   0  0  0  0  0  0  0  0  0  0  0  0
  -21.5850   -6.1870   22.6280 C   0  0  0  0  0  0  0  0  0  0  0  0
  -21.1550   -6.7460   23.8510 C   0  0  0  0  0  3  0  0  0  0  0  0
  -21.0510   -5.9350   24.9990 C   0  0  0  0  0  3  0  0  0  0  0  0
  -21.3660   -4.5660   24.9250 C   0  0  0  0  0  0  0  0  0  0  0  0
  -21.7890   -4.0050   23.7060 C   0  0  0  0  0  3  0  0  0  0  0  0
  -21.8950   -4.8140   22.5600 C   0  0  0  0  0  0  0  0  0  0  0  0
  -22.2820   -4.2640   21.3840 F   0  0  0  0  0  0  0  0  0  0  0  0
  -21.2590   -3.7840   26.0240 F   0  0  0  0  0  0  0  0  0  0  0  0
  -22.7180  -13.5560   21.1080 C   0  0  0  0  0  0  0  0  0  0  0  0
  -21.9850  -12.8620   21.9730 N   0  0  0  0  0  0  0  0  0  0  0  0
  -22.2820  -14.5790   20.5810 O   0  0  0  0  0  0  0  0  0  0  0  0
  -22.3520  -12.0350   22.4210 H   0  0  0  0  0  0  0  0  0  0  0  0
  -21.0460  -13.1620   22.1910 H   0  0  0  0  0  0  0  0  0  0  0  0
  -25.3310  -15.2300   20.2910 N   0  0  0  0  0  0  0  0  0  0  0  0
  -24.5570  -15.8760   20.3960 H   0  0  0  0  0  0  0  0  0  0  0  0
  -26.1660  -15.6700   19.9260 H   0  0  0  0  0  0  0  0  0  0  0  0
  1  3  2  0
  1  2  1  0
  2  5  2  0
  3  6  1  0
  5  7  1  0
  5  4  1  0
  6  4  2  0
  6 50  1  0
  7  8  2  0
  9 11  1  0
  9  7  1  0
 10 21  2  0
 11 16  1  0
 12 20  1  0
 12 22  1  0
 13 19  1  0
 13 15  1  0
 14 20  1  0
 15 16  2  0
 15 14  1  0
 17 11  2  0
 18 17  1  0
 18 13  2  0
 19 12  1  0
 20 10  1  0
 22 24  2  0
 23 22  1  0
 25 23  1  0
 26 35  2  0
 26 31  1  0
 27 23  1  0
 27 31  1  0
 28 27  1  0
 29 30  1  0
 29 28  1  0
 30 26  1  0
 31 32  2  0
 32 33  1  0
 34 33  2  0
 35 34  1  0
 36 10  1  0
 36 37  1  0
 36 46  1  0
 37 40  1  0
 38 42  1  0
 38 37  1  0
 39 38  2  0
 42 41  1  0
 44 42  1  0
 44 45  1  0
 44 43  1  0
 46 49  1  1
 46 47  1  0
 48 46  1  0
 51 59  1  0
 52 57  1  0
 53 54  1  0
 53 52  1  0
 55 54  1  0
 55 64  1  0
 55 56  1  0
 57 51  1  0
 57 56  1  0
 58 51  2  0
 59 50  1  0
 60 59  1  0
 61 62  2  0
 62 81  1  0
 63 62  1  0
 63 66  1  0
 64 61  1  0
 64 65  1  0
 65 63  2  0
 66 67  1  0
 67 68  2  0
 69 72  1  0
 69 68  1  0
 70 69  2  0
 71 70  1  0
 71 66  2  0
 72 73  1  0
 73 74  1  0
 74 75  2  0
 76 75  1  0
 76 80  1  0
 77 76  2  0
 78 73  2  0
 78 77  1  0
 79 78  1  0
 81 82  1  0
 82 85  1  0
 82 84  1  0
 83 81  2  0
 86 87  1  0
 86 61  1  0
 88 86  1  0
M  ISO  4   7 101   9 101  51 100  59 100
M  END
>  <TORSDO>  (21) 
F 18

>  <SCORE>  (21) 
-16.617

>  <name>  (21) 
20

>  <ligand_id>  (21) 
20

>  <original_smiles>  (21) 
[H]c1c([H])c(C(=O)Oc2c([H])c([H])c3c(c2[H])C([H])([H])N(C(=O)C([H])(N([H])C(=O)C([H])(N([H])C([H])([H])[H])C([H])([H])[H])C(C([H])([H])[H])(C([H])([H])[H])C([H])([H])[H])C([H])(C(=O)N([H])C2([H])c4c([H])c([H])c([H])c([H])c4C([H])([H])C([H])([H])C2([H])[H])C3([H])[H])c([H])c(C([H])([H])N([H])C(=O)N2C([H])([H])C([H])([H])C([H])([H])C([H])(n3nc(-c4c([H])c([H])c(Oc5c([H])c([H])c(F)c([H])c5F)c([H])c4[H])c(C(=O)N([H])[H])c3N([H])[H])C2([H])[H])c1[H]

>  <smiles>  (21) 
[H]c1c([H])c(C(=O)Oc2c([H])c([H])c3c(c2[H])C([H])([H])N(C(=O)C([H])(N([H])C(=O)C([H])(N([H])C([H])([H])[H])C([H])([H])[H])C(C([H])([H])[H])(C([H])([H])[H])C([H])([H])[H])C([H])(C(=O)N([H])C2([H])c4c([H])c([H])c([H])c([H])c4C([H])([H])C([H])([H])C2([H])[H])C3([H])[H])c([H])c(C([H])([H])N([H])C(=O)N2C([H])([H])C([H])([H])C([H])([H])C([H])(n3nc(-c4c([H])c([H])c(Oc5c([H])c([H])c(F)c([H])c5F)c([H])c4[H])c(C(=O)N([H])[H])c3N([H])[H])C2([H])[H])c1[H]

$$$$
21:0:0
     RDKit          3D

 90 97  0  0  1  0  0  0  0  0999 V2000
  -27.8060  -22.7890   22.0570 C   0  0  0  0  0  2  0  0  0  0  0  0
  -28.1210  -23.6690   20.9800 O   0  0  0  0  0  0  0  0  0  0  0  0
  -28.3570  -25.0040   21.4180 C   0  0  0  0  0  2  0  0  0  0  0  0
  -29.0330  -25.8100   20.2920 C   0  0  0  0  0  2  0  0  0  0  0  0
  -28.9770  -27.2200   20.5330 O   0  0  0  0  0  0  0  0  0  0  0  0
  -24.8130  -32.1180   23.5430 C   0  0  0  0  0  0  0  0  0  0  0  0
  -27.7520  -27.8490   20.4980 C   0  0  0  0  0  0  0  0  0  0  0  0
  -23.7220  -30.6820   21.8480 C   0  0  0  0  0  3  0  0  0  0  0  0
  -25.2850  -29.2330   20.4560 C   0  0  0  0  0  0  0  0  0  0  0  0
  -26.2290  -31.1650   21.7290 C   0  0  0  0  0  2  0  0  0  0  0  0
  -26.3990  -29.8060   21.0820 C   0  0  0  0  0  0  0  0  0  0  0  0
  -27.6340  -29.1210   21.0980 C   0  0  0  0  0  3  0  0  0  0  0  0
  -26.6140  -27.2830   19.8740 C   0  0  0  0  0  3  0  0  0  0  0  0
  -25.3870  -27.9680   19.8540 C   0  0  0  0  0  3  0  0  0  0  0  0
  -24.0040  -30.0320   20.4680 C   0  0  0  0  0  2  0  0  0  0  0  0
  -24.9370  -31.3350   22.4330 N   0  0  0  0  0  0  0  0  0  0  0  0
  -23.7050  -32.3340   24.0530 O   0  0  0  0  0  0  0  0  0  0  0  0
  -23.0900  -29.6210   22.7760 C   0  0  0  0  0  0  0  0  0  0  0  0
  -21.7860  -29.3620   22.5830 N   0  0  0  0  0  0  0  0  0  0  0  0
  -23.7700  -29.0330   23.6190 O   0  0  0  0  0  0  0  0  0  0  0  0
  -21.2950  -29.8870   21.8700 H   0  0  0  0  0  0  0  0  0  0  0  0
  -18.4720  -27.9650   22.9140 C   0  0  0  0  0  0  0  0  0  0  0  0
  -20.9920  -28.3730   23.3120 C   0  0  0  0  0  3  0  0  0  0  0  0
  -21.2090  -26.9500   22.7440 C   0  0  0  0  0  2  0  0  0  0  0  0
  -20.1790  -26.5620   21.6760 C   0  0  0  0  0  2  0  0  0  0  0  0
  -18.7620  -26.6280   22.2540 C   0  0  0  0  0  2  0  0  0  0  0  0
  -19.5210  -28.7900   23.3990 C   0  0  0  0  0  0  0  0  0  0  0  0
  -19.2030  -30.0400   23.9710 C   0  0  0  0  0  3  0  0  0  0  0  0
  -17.8650  -30.4650   24.0730 C   0  0  0  0  0  3  0  0  0  0  0  0
  -16.8290  -29.6370   23.6090 C   0  0  0  0  0  3  0  0  0  0  0  0
  -17.1330  -28.3910   23.0320 C   0  0  0  0  0  3  0  0  0  0  0  0
  -26.0510  -32.7960   24.2080 C   0  0  0  0  0  3  0  0  0  0  0  0
  -26.4950  -32.0970   25.5500 C   0  0  1  0  0  0  0  0  0  0  0  0
  -25.3360  -31.8630   26.5460 C   0  0  0  0  0  1  0  0  0  0  0  0
  -27.1490  -30.7280   25.2540 C   0  0  0  0  0  1  0  0  0  0  0  0
  -27.5660  -32.9570   26.2590 C   0  0  0  0  0  1  0  0  0  0  0  0
  -25.7090  -34.2050   24.4420 N   0  0  0  0  0  0  0  0  0  0  0  0
  -26.0740  -35.2180   23.6420 C   0  0  0  0  0  0  0  0  0  0  0  0
  -26.8020  -35.0650   22.6570 O   0  0  0  0  0  0  0  0  0  0  0  0
  -25.0670  -34.3930   25.1980 H   0  0  0  0  0  0  0  0  0  0  0  0
  -24.3440  -36.9560   23.0900 C   0  0  0  0  0  1  0  0  0  0  0  0
  -25.5440  -36.6220   23.9910 C   0  0  0  0  0  3  0  0  0  0  0  0
  -27.6240  -37.5810   24.8740 C   0  0  0  0  0  1  0  0  0  0  0  0
  -26.5690  -37.6810   23.8690 N   0  0  0  0  0  0  0  0  0  0  0  0
  -26.1450  -38.6010   23.9460 H   0  0  0  0  0  0  0  0  0  0  0  0
  -27.4930  -21.3830   21.5210 C   0  0  0  0  0  2  0  0  0  0  0  0
  -28.6650  -20.7680   20.9950 O   0  0  0  0  0  0  0  0  0  0  0  0
  -28.3670  -19.5800   20.2660 C   0  0  0  0  0  2  0  0  0  0  0  0
  -29.6620  -18.8370   19.8940 C   0  0  0  0  0  2  0  0  0  0  0  0
  -30.0630  -17.9670   20.9490 O   0  0  0  0  0  0  0  0  0  0  0  0
  -31.4690  -17.8850   21.1710 C   0  0  0  0  0  2  0  0  0  0  0  0
  -32.1640  -16.8510   20.2700 C   0  0  0  0  0  2  0  0  0  0  0  0
  -31.9300  -14.4640   19.7030 C   0  0  0  0  0  0  0  0  0  0  0  0
  -31.3700  -12.1870   18.9420 C   0  0  0  0  0  2  0  0  0  0  0  0
  -30.3890  -12.2580   17.7560 C   0  0  0  0  0  2  0  0  0  0  0  0
  -28.9350  -12.3150   18.2570 C   0  0  0  0  0  2  0  0  0  0  0  0
  -28.7260  -13.3820   19.3650 C   0  0  0  0  0  3  0  0  0  0  0  0
  -29.8210  -13.2870   20.4530 C   0  0  0  0  0  2  0  0  0  0  0  0
  -31.1380  -13.3620   19.7950 N   0  0  0  0  0  0  0  0  0  0  0  0
  -32.9520  -14.5110   19.0150 O   0  0  0  0  0  0  0  0  0  0  0  0
  -31.5220  -15.5410   20.3790 N   0  0  0  0  0  0  0  0  0  0  0  0
  -30.6870  -15.4770   20.9440 H   0  0  0  0  0  0  0  0  0  0  0  0
  -26.5230  -14.3100   20.3180 C   0  0  0  0  0  0  0  0  0  0  0  0
  -25.3730  -13.6950   20.7340 C   0  0  0  0  0  0  0  0  0  0  0  0
  -25.5970  -12.2930   20.5790 C   0  0  0  0  0  0  0  0  0  0  0  0
  -27.3840  -13.2930   19.9390 N   0  0  0  0  0  0  0  0  0  0  0  0
  -26.8320  -12.0680   20.1490 N   0  0  0  0  0  0  0  0  0  0  0  0
  -24.6860  -11.1530   20.7540 C   0  0  0  0  0  0  0  0  0  0  0  0
  -25.0150  -10.0650   21.5910 C   0  0  0  0  0  3  0  0  0  0  0  0
  -24.1140   -8.9910   21.7570 C   0  0  0  0  0  3  0  0  0  0  0  0
  -22.8680   -9.0000   21.0880 C   0  0  0  0  0  0  0  0  0  0  0  0
  -22.5550  -10.0750   20.2360 C   0  0  0  0  0  3  0  0  0  0  0  0
  -23.4560  -11.1380   20.0660 C   0  0  0  0  0  3  0  0  0  0  0  0
  -21.9430   -7.9870   21.1680 O   0  0  0  0  0  0  0  0  0  0  0  0
  -21.8340   -7.1990   22.2860 C   0  0  0  0  0  0  0  0  0  0  0  0
  -21.5870   -7.7470   23.5640 C   0  0  0  0  0  3  0  0  0  0  0  0
  -21.4110   -6.8960   24.6730 C   0  0  0  0  0  3  0  0  0  0  0  0
  -21.4730   -5.4990   24.5060 C   0  0  0  0  0  0  0  0  0  0  0  0
  -21.7140   -4.9520   23.2340 C   0  0  0  0  0  3  0  0  0  0  0  0
  -21.8900   -5.8000   22.1260 C   0  0  0  0  0  0  0  0  0  0  0  0
  -22.1010   -5.2670   20.8980 F   0  0  0  0  0  0  0  0  0  0  0  0
  -21.2960   -4.6800   25.5700 F   0  0  0  0  0  0  0  0  0  0  0  0
  -24.1040  -14.3690   21.1660 C   0  0  0  0  0  0  0  0  0  0  0  0
  -23.3490  -13.7420   22.0620 N   0  0  0  0  0  0  0  0  0  0  0  0
  -23.7960  -15.4850   20.7480 O   0  0  0  0  0  0  0  0  0  0  0  0
  -23.6150  -12.8390   22.4260 H   0  0  0  0  0  0  0  0  0  0  0  0
  -22.4980  -14.1770   22.3890 H   0  0  0  0  0  0  0  0  0  0  0  0
  -26.9010  -15.6450   20.2170 N   0  0  0  0  0  0  0  0  0  0  0  0
  -26.2750  -16.4070   20.4510 H   0  0  0  0  0  0  0  0  0  0  0  0
  -27.7960  -15.9620   19.8690 H   0  0  0  0  0  0  0  0  0  0  0  0
  2  3  1  0
  2  1  1  0
  4  5  1  0
  4  3  1  0
  6 17  2  0
  7  5  1  0
  7 12  1  0
  8 16  1  0
  8 18  1  0
  9 15  1  0
  9 11  1  0
 10 16  1  0
 11 12  2  0
 11 10  1  0
 13  7  2  0
 14 13  1  0
 14  9  2  0
 15  8  1  0
 16  6  1  0
 18 20  2  0
 19 18  1  0
 21 19  1  0
 22 31  2  0
 22 27  1  0
 23 19  1  0
 23 27  1  0
 24 23  1  0
 25 26  1  0
 25 24  1  0
 26 22  1  0
 27 28  2  0
 28 29  1  0
 30 29  2  0
 31 30  1  0
 32  6  1  0
 32 37  1  0
 32 33  1  0
 33 36  1  1
 33 34  1  0
 35 33  1  0
 37 40  1  0
 38 42  1  0
 38 37  1  0
 39 38  2  0
 42 41  1  0
 44 45  1  0
 44 42  1  0
 44 43  1  0
 46  1  1  0
 47 46  1  0
 48 47  1  0
 49 48  1  0
 49 50  1  0
 50 51  1  0
 52 61  1  0
 52 51  1  0
 53 59  1  0
 53 61  1  0
 54 59  1  0
 55 56  1  0
 55 54  1  0
 57 56  1  0
 57 66  1  0
 57 58  1  0
 59 58  1  0
 60 53  2  0
 61 62  1  0
 63 64  2  0
 64 83  1  0
 65 64  1  0
 65 68  1  0
 66 67  1  0
 66 63  1  0
 67 65  2  0
 68 69  1  0
 69 70  2  0
 71 74  1  0
 71 70  1  0
 72 71  2  0
 73 72  1  0
 73 68  2  0
 74 75  1  0
 75 76  1  0
 76 77  2  0
 78 77  1  0
 78 82  1  0
 79 78  2  0
 80 75  2  0
 80 79  1  0
 81 80  1  0
 83 84  1  0
 84 87  1  0
 84 86  1  0
 85 83  2  0
 88 63  1  0
 88 89  1  0
 90 88  1  0
M  ISO  4   4 101   5 101  53 100  61 100
M  END
>  <TORSDO>  (22) 
F 26

>  <SCORE>  (22) 
-9.736

>  <name>  (22) 
21

>  <ligand_id>  (22) 
21

>  <original_smiles>  (22) 
[H]c1c([H])c([H])c2c(c1[H])C([H])([H])C([H])([H])C([H])([H])C2([H])N([H])C(=O)C1([H])N(C(=O)C([H])(N([H])C(=O)C([H])(N([H])C([H])([H])[H])C([H])([H])[H])C(C([H])([H])[H])(C([H])([H])[H])C([H])([H])[H])C([H])([H])c2c([H])c(OC([H])([H])C([H])([H])OC([H])([H])C([H])([H])OC([H])([H])C([H])([H])OC([H])([H])C([H])([H])N([H])C(=O)N3C([H])([H])C([H])([H])C([H])([H])C([H])(n4nc(-c5c([H])c([H])c(Oc6c([H])c([H])c(F)c([H])c6F)c([H])c5[H])c(C(=O)N([H])[H])c4N([H])[H])C3([H])[H])c([H])c([H])c2C1([H])[H]

>  <smiles>  (22) 
[H]c1c([H])c([H])c2c(c1[H])C([H])([H])C([H])([H])C([H])([H])C2([H])N([H])C(=O)C1([H])N(C(=O)C([H])(N([H])C(=O)C([H])(N([H])C([H])([H])[H])C([H])([H])[H])C(C([H])([H])[H])(C([H])([H])[H])C([H])([H])[H])C([H])([H])c2c([H])c(OC([H])([H])C([H])([H])OC([H])([H])C([H])([H])OC([H])([H])C([H])([H])OC([H])([H])C([H])([H])N([H])C(=O)N3C([H])([H])C([H])([H])C([H])([H])C([H])(n4nc(-c5c([H])c([H])c(Oc6c([H])c([H])c(F)c([H])c6F)c([H])c5[H])c(C(=O)N([H])[H])c4N([H])[H])C3([H])[H])c([H])c([H])c2C1([H])[H]

$$$$
22:0:0
     RDKit          3D

 91 99  0  0  1  0  0  0  0  0999 V2000
  -28.7930  -21.0830   20.0620 C   0  0  0  0  0  0  0  0  0  0  0  0
  -29.0170  -22.3780   20.5100 N   0  0  0  0  0  0  0  0  0  0  0  0
  -27.9230  -20.8740   19.2140 O   0  0  0  0  0  0  0  0  0  0  0  0
  -29.6840  -22.4560   21.2650 H   0  0  0  0  0  0  0  0  0  0  0  0
  -31.7600  -19.0240   21.4770 C   0  0  0  0  0  3  0  0  0  0  0  0
  -30.9110  -20.0940   21.1230 C   0  0  0  0  0  3  0  0  0  0  0  0
  -31.3870  -17.6780   21.2760 C   0  0  0  0  0  3  0  0  0  0  0  0
  -29.2740  -18.4590   20.3660 C   0  0  0  0  0  3  0  0  0  0  0  0
  -29.6390  -19.8630   20.5550 C   0  0  0  0  0  0  0  0  0  0  0  0
  -30.1380  -17.3320   20.7120 C   0  0  0  0  0  0  0  0  0  0  0  0
  -30.5650  -14.7560   20.3870 C   0  0  0  0  0  0  0  0  0  0  0  0
  -30.3540  -12.4850   19.3540 C   0  0  0  0  0  2  0  0  0  0  0  0
  -29.4070  -12.5720   18.1370 C   0  0  0  0  0  2  0  0  0  0  0  0
  -27.9400  -12.4020   18.5770 C   0  0  0  0  0  2  0  0  0  0  0  0
  -27.5760  -13.2730   19.8100 C   0  0  0  0  0  3  0  0  0  0  0  0
  -28.6460  -13.1740   20.9190 C   0  0  0  0  0  2  0  0  0  0  0  0
  -29.9330  -13.5340   20.3110 N   0  0  0  0  0  0  0  0  0  0  0  0
  -31.7560  -14.8410   20.0730 O   0  0  0  0  0  0  0  0  0  0  0  0
  -29.7790  -15.8930   20.5680 N   0  0  0  0  0  0  0  0  0  0  0  0
  -28.7920  -15.6950   20.6010 H   0  0  0  0  0  0  0  0  0  0  0  0
  -25.1940  -13.8540   20.5620 C   0  0  0  0  0  0  0  0  0  0  0  0
  -24.1330  -13.0760   20.9380 C   0  0  0  0  0  0  0  0  0  0  0  0
  -24.6000  -11.7260   20.8980 C   0  0  0  0  0  0  0  0  0  0  0  0
  -26.2380  -12.9790   20.3130 N   0  0  0  0  0  0  0  0  0  0  0  0
  -25.8870  -11.6930   20.5780 N   0  0  0  0  0  0  0  0  0  0  0  0
  -23.8770  -10.4620   21.0890 C   0  0  0  0  0  0  0  0  0  0  0  0
  -24.3260   -9.4830   22.0020 C   0  0  0  0  0  3  0  0  0  0  0  0
  -23.6030   -8.2830   22.1810 C   0  0  0  0  0  3  0  0  0  0  0  0
  -22.4150   -8.0550   21.4460 C   0  0  0  0  0  0  0  0  0  0  0  0
  -21.9840   -9.0230   20.5210 C   0  0  0  0  0  3  0  0  0  0  0  0
  -22.7090  -10.2130   20.3400 C   0  0  0  0  0  3  0  0  0  0  0  0
  -21.6600   -6.9110   21.5350 O   0  0  0  0  0  0  0  0  0  0  0  0
  -21.6450   -6.1470   22.6740 C   0  0  0  0  0  0  0  0  0  0  0  0
  -21.2650   -6.6800   23.9250 C   0  0  0  0  0  3  0  0  0  0  0  0
  -21.1970   -5.8430   25.0570 C   0  0  0  0  0  3  0  0  0  0  0  0
  -21.4980   -4.4730   24.9390 C   0  0  0  0  0  0  0  0  0  0  0  0
  -21.8700   -3.9380   23.6930 C   0  0  0  0  0  3  0  0  0  0  0  0
  -21.9410   -4.7720   22.5630 C   0  0  0  0  0  0  0  0  0  0  0  0
  -22.2800   -4.2490   21.3610 F   0  0  0  0  0  0  0  0  0  0  0  0
  -21.4250   -3.6660   26.0230 F   0  0  0  0  0  0  0  0  0  0  0  0
  -22.7370  -13.5500   21.2210 C   0  0  0  0  0  0  0  0  0  0  0  0
  -22.0160  -12.8490   22.0880 N   0  0  0  0  0  0  0  0  0  0  0  0
  -22.2930  -14.5760   20.7070 O   0  0  0  0  0  0  0  0  0  0  0  0
  -22.3870  -12.0200   22.5280 H   0  0  0  0  0  0  0  0  0  0  0  0
  -21.0790  -13.1470   22.3180 H   0  0  0  0  0  0  0  0  0  0  0  0
  -25.3500  -15.2260   20.3840 N   0  0  0  0  0  0  0  0  0  0  0  0
  -24.5700  -15.8690   20.4770 H   0  0  0  0  0  0  0  0  0  0  0  0
  -26.1750  -15.6650   19.9980 H   0  0  0  0  0  0  0  0  0  0  0  0
  -28.6200  -23.7090   19.8510 C   0  0  0  0  0  2  0  0  0  0  0  0
  -28.2330  -25.0180   20.7310 C   0  0  0  0  0  2  0  0  0  0  0  0
  -28.3410  -26.4230   20.1970 O   0  0  0  0  0  0  0  0  0  0  0  0
  -24.6110  -31.8810   23.2350 C   0  0  0  0  0  0  0  0  0  0  0  0
  -27.2230  -27.2820   20.2030 C   0  0  0  0  0  0  0  0  0  0  0  0
  -23.4070  -30.4730   21.6010 C   0  0  0  0  0  3  0  0  0  0  0  0
  -24.8590  -28.9090   20.1820 C   0  0  0  0  0  0  0  0  0  0  0  0
  -25.9470  -30.7900   21.4110 C   0  0  0  0  0  2  0  0  0  0  0  0
  -26.0300  -29.4030   20.7730 C   0  0  0  0  0  0  0  0  0  0  0  0
  -27.2180  -28.6040   20.7650 C   0  0  0  0  0  3  0  0  0  0  0  0
  -26.0300  -26.8470   19.5930 C   0  0  0  0  0  3  0  0  0  0  0  0
  -24.8630  -27.6400   19.5810 C   0  0  0  0  0  3  0  0  0  0  0  0
  -23.6220  -29.7860   20.2260 C   0  0  0  0  0  2  0  0  0  0  0  0
  -24.6750  -31.0670   22.1390 N   0  0  0  0  0  0  0  0  0  0  0  0
  -23.5280  -32.1590   23.7710 O   0  0  0  0  0  0  0  0  0  0  0  0
  -22.7450  -29.4630   22.5690 C   0  0  0  0  0  0  0  0  0  0  0  0
  -21.4190  -29.2830   22.4440 N   0  0  0  0  0  0  0  0  0  0  0  0
  -23.4240  -28.8420   23.3900 O   0  0  0  0  0  0  0  0  0  0  0  0
  -20.9280  -29.8350   21.7540 H   0  0  0  0  0  0  0  0  0  0  0  0
  -18.0450  -28.0760   22.9460 C   0  0  0  0  0  0  0  0  0  0  0  0
  -20.6030  -28.3460   23.2190 C   0  0  0  0  0  3  0  0  0  0  0  0
  -20.7100  -26.9120   22.6500 C   0  0  0  0  0  2  0  0  0  0  0  0
  -19.6110  -26.5810   21.6360 C   0  0  0  0  0  2  0  0  0  0  0  0
  -18.2280  -26.7240   22.2770 C   0  0  0  0  0  2  0  0  0  0  0  0
  -19.1600  -28.8440   23.3750 C   0  0  0  0  0  0  0  0  0  0  0  0
  -18.9350  -30.1080   23.9600 C   0  0  0  0  0  3  0  0  0  0  0  0
  -17.6280  -30.6050   24.1240 C   0  0  0  0  0  3  0  0  0  0  0  0
  -16.5270  -29.8320   23.7140 C   0  0  0  0  0  3  0  0  0  0  0  0
  -16.7370  -28.5700   23.1310 C   0  0  0  0  0  3  0  0  0  0  0  0
  -25.8930  -32.5190   23.8540 C   0  0  0  0  0  3  0  0  0  0  0  0
  -26.4140  -31.7500   25.1310 C   0  0  1  0  0  0  0  0  0  0  0  0
  -25.3230  -31.5120   26.2020 C   0  0  0  0  0  1  0  0  0  0  0  0
  -26.9960  -30.3730   24.7390 C   0  0  0  0  0  1  0  0  0  0  0  0
  -27.5680  -32.5440   25.7880 C   0  0  0  0  0  1  0  0  0  0  0  0
  -25.5810  -33.9170   24.1860 N   0  0  0  0  0  0  0  0  0  0  0  0
  -25.9090  -34.9720   23.4270 C   0  0  0  0  0  0  0  0  0  0  0  0
  -26.5720  -34.8710   22.3920 O   0  0  0  0  0  0  0  0  0  0  0  0
  -24.9930  -34.0700   24.9920 H   0  0  0  0  0  0  0  0  0  0  0  0
  -24.1760  -36.7620   23.0840 C   0  0  0  0  0  1  0  0  0  0  0  0
  -25.4220  -36.3600   23.8880 C   0  0  0  0  0  3  0  0  0  0  0  0
  -27.5590  -37.2470   24.7080 C   0  0  0  0  0  1  0  0  0  0  0  0
  -26.4520  -37.4150   23.7700 N   0  0  0  0  0  0  0  0  0  0  0  0
  -26.0450  -38.3340   23.9210 H   0  0  0  0  0  0  0  0  0  0  0  0
  1  2  1  0
  1  9  1  0
  2  4  1  0
  3  1  2  0
  6  5  2  0
  7  5  1  0
  8  9  2  0
  8 10  1  0
  9  6  1  0
 10  7  2  0
 11 19  1  0
 12 17  1  0
 13 14  1  0
 13 12  1  0
 15 14  1  0
 15 24  1  0
 15 16  1  0
 17 11  1  0
 17 16  1  0
 18 11  2  0
 19 20  1  0
 19 10  1  0
 21 22  2  0
 22 41  1  0
 23 22  1  0
 23 26  1  0
 24 21  1  0
 24 25  1  0
 25 23  2  0
 26 27  1  0
 27 28  2  0
 29 32  1  0
 29 28  1  0
 30 29  2  0
 31 30  1  0
 31 26  2  0
 32 33  1  0
 33 34  1  0
 34 35  2  0
 36 35  1  0
 36 40  1  0
 37 36  2  0
 38 33  2  0
 38 37  1  0
 39 38  1  0
 41 42  1  0
 42 45  1  0
 42 44  1  0
 43 41  2  0
 46 47  1  0
 46 21  1  0
 48 46  1  0
 49  2  1  0
 49 50  1  0
 51 53  1  0
 51 50  1  0
 52 63  2  0
 53 58  1  0
 54 62  1  0
 54 64  1  0
 55 61  1  0
 55 57  1  0
 56 62  1  0
 57 56  1  0
 58 57  2  0
 59 53  2  0
 60 59  1  0
 60 55  2  0
 61 54  1  0
 62 52  1  0
 64 66  2  0
 65 64  1  0
 67 65  1  0
 68 77  2  0
 68 73  1  0
 69 65  1  0
 69 73  1  0
 70 69  1  0
 71 72  1  0
 71 70  1  0
 72 68  1  0
 73 74  2  0
 74 75  1  0
 76 75  2  0
 77 76  1  0
 78 52  1  0
 78 83  1  0
 78 79  1  0
 79 82  1  1
 79 80  1  0
 81 79  1  0
 83 86  1  0
 84 88  1  0
 84 83  1  0
 85 84  2  0
 88 87  1  0
 90 88  1  0
 90 91  1  0
 90 89  1  0
M  ISO  4  11 100  19 100  50 101  51 101
M  END
>  <TORSDO>  (23) 
F 19

>  <SCORE>  (23) 
-14.451

>  <name>  (23) 
22

>  <ligand_id>  (23) 
22

>  <original_smiles>  (23) 
[H]c1c([H])c(C(=O)N([H])C([H])([H])C([H])([H])Oc2c([H])c([H])c3c(c2[H])C([H])([H])N(C(=O)C([H])(N([H])C(=O)C([H])(N([H])C([H])([H])[H])C([H])([H])[H])C(C([H])([H])[H])(C([H])([H])[H])C([H])([H])[H])C([H])(C(=O)N([H])C2([H])c4c([H])c([H])c([H])c([H])c4C([H])([H])C([H])([H])C2([H])[H])C3([H])[H])c([H])c(N([H])C(=O)N2C([H])([H])C([H])([H])C([H])([H])C([H])(n3nc(-c4c([H])c([H])c(Oc5c([H])c([H])c(F)c([H])c5F)c([H])c4[H])c(C(=O)N([H])[H])c3N([H])[H])C2([H])[H])c1[H]

>  <smiles>  (23) 
[H]c1c([H])c(C(=O)N([H])C([H])([H])C([H])([H])Oc2c([H])c([H])c3c(c2[H])C([H])([H])N(C(=O)C([H])(N([H])C(=O)C([H])(N([H])C([H])([H])[H])C([H])([H])[H])C(C([H])([H])[H])(C([H])([H])[H])C([H])([H])[H])C([H])(C(=O)N([H])C2([H])c4c([H])c([H])c([H])c([H])c4C([H])([H])C([H])([H])C2([H])[H])C3([H])[H])c([H])c(N([H])C(=O)N2C([H])([H])C([H])([H])C([H])([H])C([H])(n3nc(-c4c([H])c([H])c(Oc5c([H])c([H])c(F)c([H])c5F)c([H])c4[H])c(C(=O)N([H])[H])c3N([H])[H])C2([H])[H])c1[H]

$$$$
23:0:0
     RDKit          3D

 94102  0  0  1  0  0  0  0  0999 V2000
  -24.9080  -20.0840   18.7060 C   0  0  0  0  0  2  0  0  0  0  0  0
  -25.7550  -18.9790   19.3530 C   0  0  0  0  0  2  0  0  0  0  0  0
  -26.8650  -18.6720   18.5180 O   0  0  0  0  0  0  0  0  0  0  0  0
  -29.1890  -16.9940   20.9240 C   0  0  0  0  0  3  0  0  0  0  0  0
  -29.9750  -16.7120   18.6360 C   0  0  0  0  0  3  0  0  0  0  0  0
  -28.0810  -17.7270   20.4540 C   0  0  0  0  0  3  0  0  0  0  0  0
  -28.8730  -17.4530   18.1700 C   0  0  0  0  0  3  0  0  0  0  0  0
  -30.1380  -16.4770   20.0210 C   0  0  0  0  0  0  0  0  0  0  0  0
  -27.9160  -17.9690   19.0660 C   0  0  0  0  0  0  0  0  0  0  0  0
  -31.8340  -14.7140   19.9930 C   0  0  0  0  0  0  0  0  0  0  0  0
  -31.6110  -12.3160   19.4470 C   0  0  0  0  0  2  0  0  0  0  0  0
  -30.7060  -12.0880   18.2240 C   0  0  0  0  0  2  0  0  0  0  0  0
  -29.2330  -11.9940   18.6610 C   0  0  0  0  0  2  0  0  0  0  0  0
  -28.8100  -13.1620   19.5900 C   0  0  0  0  0  3  0  0  0  0  0  0
  -29.8310  -13.3560   20.7320 C   0  0  0  0  0  2  0  0  0  0  0  0
  -31.1600  -13.5400   20.1240 N   0  0  0  0  0  0  0  0  0  0  0  0
  -32.9120  -14.8130   19.4040 O   0  0  0  0  0  0  0  0  0  0  0  0
  -31.2770  -15.8060   20.5360 N   0  0  0  0  0  0  0  0  0  0  0  0
  -31.9840  -16.4550   20.8480 H   0  0  0  0  0  0  0  0  0  0  0  0
  -26.4620  -13.9130   20.3260 C   0  0  0  0  0  0  0  0  0  0  0  0
  -25.3590  -13.2110   20.7220 C   0  0  0  0  0  0  0  0  0  0  0  0
  -25.7470  -11.8350   20.7170 C   0  0  0  0  0  0  0  0  0  0  0  0
  -27.4550  -12.9740   20.0990 N   0  0  0  0  0  0  0  0  0  0  0  0
  -27.0280  -11.7190   20.3910 N   0  0  0  0  0  0  0  0  0  0  0  0
  -24.9590  -10.6210   20.9510 C   0  0  0  0  0  0  0  0  0  0  0  0
  -25.1300   -9.8430   22.1180 C   0  0  0  0  0  3  0  0  0  0  0  0
  -24.3500   -8.6870   22.3280 C   0  0  0  0  0  3  0  0  0  0  0  0
  -23.3840   -8.2990   21.3690 C   0  0  0  0  0  0  0  0  0  0  0  0
  -23.2310   -9.0640   20.1990 C   0  0  0  0  0  3  0  0  0  0  0  0
  -24.0130  -10.2130   19.9890 C   0  0  0  0  0  3  0  0  0  0  0  0
  -22.5990   -7.1750   21.4760 O   0  0  0  0  0  0  0  0  0  0  0  0
  -21.9800   -6.8410   22.6530 C   0  0  0  0  0  0  0  0  0  0  0  0
  -21.0340   -7.6920   23.2660 C   0  0  0  0  0  3  0  0  0  0  0  0
  -20.3720   -7.2790   24.4380 C   0  0  0  0  0  3  0  0  0  0  0  0
  -20.6430   -6.0150   24.9940 C   0  0  0  0  0  0  0  0  0  0  0  0
  -21.5790   -5.1630   24.3810 C   0  0  0  0  0  3  0  0  0  0  0  0
  -22.2440   -5.5750   23.2140 C   0  0  0  0  0  0  0  0  0  0  0  0
  -23.1310   -4.7420   22.6170 F   0  0  0  0  0  0  0  0  0  0  0  0
  -20.0000   -5.6140   26.1160 F   0  0  0  0  0  0  0  0  0  0  0  0
  -23.9960  -13.7710   21.0050 C   0  0  0  0  0  0  0  0  0  0  0  0
  -23.2150  -13.0950   21.8380 N   0  0  0  0  0  0  0  0  0  0  0  0
  -23.6330  -14.8450   20.5260 O   0  0  0  0  0  0  0  0  0  0  0  0
  -23.5200  -12.2230   22.2460 H   0  0  0  0  0  0  0  0  0  0  0  0
  -22.3020  -13.4540   22.0740 H   0  0  0  0  0  0  0  0  0  0  0  0
  -26.6990  -15.2680   20.1250 N   0  0  0  0  0  0  0  0  0  0  0  0
  -26.0000  -15.9720   20.3230 H   0  0  0  0  0  0  0  0  0  0  0  0
  -27.6180  -15.6560   19.9520 H   0  0  0  0  0  0  0  0  0  0  0  0
  -25.5200  -21.3490   18.9390 O   0  0  0  0  0  0  0  0  0  0  0  0
  -26.1210  -21.9330   17.7910 C   0  0  0  0  0  2  0  0  0  0  0  0
  -26.8200  -23.2410   18.1980 C   0  0  0  0  0  2  0  0  0  0  0  0
  -28.2330  -23.0530   18.2600 O   0  0  0  0  0  0  0  0  0  0  0  0
  -28.9070  -23.9830   19.1090 C   0  0  0  0  0  2  0  0  0  0  0  0
  -29.5750  -25.1210   18.2950 C   0  0  0  0  0  2  0  0  0  0  0  0
  -29.5330  -26.3940   18.9560 O   0  0  0  0  0  0  0  0  0  0  0  0
  -25.2980  -29.7960   23.5290 C   0  0  0  0  0  0  0  0  0  0  0  0
  -28.3170  -27.0240   19.1270 C   0  0  0  0  0  0  0  0  0  0  0  0
  -24.2570  -29.1660   21.3740 C   0  0  0  0  0  3  0  0  0  0  0  0
  -25.8630  -28.3580   19.5670 C   0  0  0  0  0  0  0  0  0  0  0  0
  -26.7740  -29.6100   21.5310 C   0  0  0  0  0  2  0  0  0  0  0  0
  -26.9580  -28.6210   20.3990 C   0  0  0  0  0  0  0  0  0  0  0  0
  -28.1880  -27.9580   20.1800 C   0  0  0  0  0  3  0  0  0  0  0  0
  -27.2000  -26.7790   18.2940 C   0  0  0  0  0  3  0  0  0  0  0  0
  -25.9780  -27.4370   18.5140 C   0  0  0  0  0  3  0  0  0  0  0  0
  -24.5800  -29.1000   19.8570 C   0  0  0  0  0  2  0  0  0  0  0  0
  -25.4560  -29.5140   22.2040 N   0  0  0  0  0  0  0  0  0  0  0  0
  -24.1770  -29.8080   24.0550 O   0  0  0  0  0  0  0  0  0  0  0  0
  -23.5980  -27.8330   21.7930 C   0  0  0  0  0  0  0  0  0  0  0  0
  -22.3110  -27.6680   21.4500 N   0  0  0  0  0  0  0  0  0  0  0  0
  -24.2480  -26.9630   22.3800 O   0  0  0  0  0  0  0  0  0  0  0  0
  -21.8480  -28.4350   20.9830 H   0  0  0  0  0  0  0  0  0  0  0  0
  -19.0240  -26.2330   21.0030 C   0  0  0  0  0  0  0  0  0  0  0  0
  -21.5000  -26.4780   21.7010 C   0  0  0  0  0  3  0  0  0  0  0  0
  -21.7940  -25.3640   20.6690 C   0  0  0  0  0  2  0  0  0  0  0  0
  -20.8480  -25.3890   19.4630 C   0  0  0  0  0  2  0  0  0  0  0  0
  -19.3970  -25.2280   19.9260 C   0  0  0  0  0  2  0  0  0  0  0  0
  -20.0130  -26.8290   21.8300 C   0  0  0  0  0  0  0  0  0  0  0  0
  -19.6190  -27.7800   22.7960 C   0  0  0  0  0  3  0  0  0  0  0  0
  -18.2640  -28.1330   22.9440 C   0  0  0  0  0  3  0  0  0  0  0  0
  -17.2880  -27.5280   22.1350 C   0  0  0  0  0  3  0  0  0  0  0  0
  -17.6670  -26.5760   21.1720 C   0  0  0  0  0  3  0  0  0  0  0  0
  -26.5190  -30.1450   24.4370 C   0  0  0  0  0  3  0  0  0  0  0  0
  -26.6870  -29.1620   25.6570 C   0  0  1  0  0  0  0  0  0  0  0  0
  -25.4080  -29.0000   26.5110 C   0  0  0  0  0  1  0  0  0  0  0  0
  -27.1040  -27.7550   25.1710 C   0  0  0  0  0  1  0  0  0  0  0  0
  -27.8200  -29.6640   26.5820 C   0  0  0  0  0  1  0  0  0  0  0  0
  -26.3410  -31.5260   24.9020 N   0  0  0  0  0  0  0  0  0  0  0  0
  -27.0300  -32.5790   24.4420 C   0  0  0  0  0  0  0  0  0  0  0  0
  -27.9470  -32.4750   23.6220 O   0  0  0  0  0  0  0  0  0  0  0  0
  -25.5710  -31.6910   25.5340 H   0  0  0  0  0  0  0  0  0  0  0  0
  -25.8780  -34.7450   23.8980 C   0  0  0  0  0  1  0  0  0  0  0  0
  -26.6440  -33.9690   24.9810 C   0  0  0  0  0  3  0  0  0  0  0  0
  -28.4200  -34.2460   26.6520 C   0  0  0  0  0  1  0  0  0  0  0  0
  -27.8030  -34.7680   25.4350 N   0  0  0  0  0  0  0  0  0  0  0  0
  -27.5310  -35.7310   25.6070 H   0  0  0  0  0  0  0  0  0  0  0  0
  1 48  1  0
  1  2  1  0
  3  9  1  0
  3  2  1  0
  5  8  1  0
  6  4  1  0
  7  5  2  0
  7  9  1  0
  8 18  1  0
  8  4  2  0
  9  6  2  0
 10 16  1  0
 10 18  1  0
 11 16  1  0
 12 13  1  0
 12 11  1  0
 14 13  1  0
 14 23  1  0
 14 15  1  0
 16 15  1  0
 17 10  2  0
 18 19  1  0
 20 21  2  0
 21 40  1  0
 22 21  1  0
 22 25  1  0
 23 20  1  0
 23 24  1  0
 24 22  2  0
 25 26  1  0
 26 27  2  0
 28 31  1  0
 28 27  1  0
 29 28  2  0
 30 29  1  0
 30 25  2  0
 31 32  1  0
 32 37  2  0
 32 33  1  0
 33 34  2  0
 34 35  1  0
 35 39  1  0
 36 35  2  0
 37 36  1  0
 38 37  1  0
 40 41  1  0
 41 44  1  0
 41 43  1  0
 42 40  2  0
 45 46  1  0
 45 20  1  0
 47 45  1  0
 49 50  1  0
 49 48  1  0
 50 51  1  0
 51 52  1  0
 53 54  1  0
 53 52  1  0
 54 56  1  0
 55 66  2  0
 56 61  1  0
 57 67  1  0
 57 65  1  0
 58 64  1  0
 58 60  1  0
 59 65  1  0
 60 59  1  0
 61 60  2  0
 62 63  1  0
 62 56  2  0
 63 58  2  0
 64 57  1  0
 65 55  1  0
 67 69  2  0
 68 67  1  0
 70 68  1  0
 71 80  2  0
 71 76  1  0
 72 68  1  0
 72 76  1  0
 73 72  1  0
 74 75  1  0
 74 73  1  0
 75 71  1  0
 76 77  2  0
 77 78  1  0
 79 78  2  0
 80 79  1  0
 81 55  1  0
 81 86  1  0
 81 82  1  0
 82 83  1  1
 82 85  1  0
 84 82  1  0
 86 89  1  0
 87 86  1  0
 87 91  1  0
 88 87  2  0
 91 90  1  0
 91 93  1  0
 93 94  1  0
 93 92  1  0
M  ISO  4  10 100  18 100  53 101  54 101
M  END
>  <TORSDO>  (24) 
F 25

>  <SCORE>  (24) 
-6.620

>  <name>  (24) 
23

>  <ligand_id>  (24) 
23

>  <original_smiles>  (24) 
[H]c1c([H])c([H])c2c(c1[H])C([H])([H])C([H])([H])C([H])([H])C2([H])N([H])C(=O)C1([H])N(C(=O)C([H])(N([H])C(=O)C([H])(N([H])C([H])([H])[H])C([H])([H])[H])C(C([H])([H])[H])(C([H])([H])[H])C([H])([H])[H])C([H])([H])c2c([H])c(OC([H])([H])C([H])([H])OC([H])([H])C([H])([H])OC([H])([H])C([H])([H])Oc3c([H])c([H])c(N([H])C(=O)N4C([H])([H])C([H])([H])C([H])([H])C([H])(n5nc(-c6c([H])c([H])c(Oc7c([H])c([H])c(F)c([H])c7F)c([H])c6[H])c(C(=O)N([H])[H])c5N([H])[H])C4([H])[H])c([H])c3[H])c([H])c([H])c2C1([H])[H]

>  <smiles>  (24) 
[H]c1c([H])c([H])c2c(c1[H])C([H])([H])C([H])([H])C([H])([H])C2([H])N([H])C(=O)C1([H])N(C(=O)C([H])(N([H])C(=O)C([H])(N([H])C([H])([H])[H])C([H])([H])[H])C(C([H])([H])[H])(C([H])([H])[H])C([H])([H])[H])C([H])([H])c2c([H])c(OC([H])([H])C([H])([H])OC([H])([H])C([H])([H])OC([H])([H])C([H])([H])Oc3c([H])c([H])c(N([H])C(=O)N4C([H])([H])C([H])([H])C([H])([H])C([H])(n5nc(-c6c([H])c([H])c(Oc7c([H])c([H])c(F)c([H])c7F)c([H])c6[H])c(C(=O)N([H])[H])c5N([H])[H])C4([H])[H])c([H])c3[H])c([H])c([H])c2C1([H])[H]

$$$$
24:0:0
     RDKit          3D

106115  0  0  1  0  0  0  0  0999 V2000
  -34.2490  -18.6850   17.0580 C   0  0  0  0  0  3  0  0  0  0  0  0
  -33.5140  -18.0690   16.0290 C   0  0  0  0  0  3  0  0  0  0  0  0
  -34.8830  -20.4730   15.5310 C   0  0  0  0  0  3  0  0  0  0  0  0
  -34.9340  -19.8910   16.8110 C   0  0  0  0  0  0  0  0  0  0  0  0
  -33.4690  -18.6490   14.7370 C   0  0  0  0  0  0  0  0  0  0  0  0
  -34.1650  -19.8510   14.4860 C   0  0  0  0  0  0  0  0  0  0  0  0
  -31.5510  -18.4110   13.1330 C   0  0  0  0  0  0  0  0  0  0  0  0
  -32.7550  -18.1060   13.6370 N   0  0  0  0  0  0  0  0  0  0  0  0
  -30.7650  -19.2310   13.6140 O   0  0  0  0  0  0  0  0  0  0  0  0
  -33.2300  -17.3460   13.1700 H   0  0  0  0  0  0  0  0  0  0  0  0
  -30.4210  -16.0800    9.6610 C   0  0  0  0  0  3  0  0  0  0  0  0
  -29.9660  -17.4040    9.8050 C   0  0  0  0  0  3  0  0  0  0  0  0
  -31.2510  -15.5110   10.6440 C   0  0  0  0  0  3  0  0  0  0  0  0
  -30.3350  -18.1570   10.9370 C   0  0  0  0  0  3  0  0  0  0  0  0
  -31.6210  -16.2630   11.7760 C   0  0  0  0  0  3  0  0  0  0  0  0
  -31.1560  -17.5910   11.9370 C   0  0  0  0  0  0  0  0  0  0  0  0
  -34.0810  -20.4070   13.2270 O   0  0  0  0  0  0  0  0  0  0  0  0
  -33.5230  -21.7190   13.1410 C   0  0  0  0  0  2  0  0  0  0  0  0
  -32.5790  -21.8040   11.9350 C   0  0  0  0  0  2  0  0  0  0  0  0
  -32.6410  -23.1100   11.3750 O   0  0  0  0  0  0  0  0  0  0  0  0
  -31.4160  -23.5050   10.7750 C   0  0  0  0  0  2  0  0  0  0  0  0
  -30.6570  -24.4370   11.7280 C   0  0  0  0  0  2  0  0  0  0  0  0
  -30.5860  -25.7380   11.1590 O   0  0  0  0  0  0  0  0  0  0  0  0
  -29.2760  -26.0700   10.7210 C   0  0  0  0  0  2  0  0  0  0  0  0
  -28.6130  -26.9990   11.7510 C   0  0  0  0  0  2  0  0  0  0  0  0
  -27.3850  -27.4970   11.2270 O   0  0  0  0  0  0  0  0  0  0  0  0
  -20.3350  -26.5980   10.8860 C   0  0  0  0  0  0  0  0  0  0  0  0
  -26.3020  -26.6900   11.4580 C   0  0  0  0  0  0  0  0  0  0  0  0
  -21.5840  -24.9040   12.1910 C   0  0  0  0  0  3  0  0  0  0  0  0
  -24.1200  -24.9750   11.9520 C   0  0  0  0  0  0  0  0  0  0  0  0
  -22.6980  -26.1440   10.2570 C   0  0  0  0  0  2  0  0  0  0  0  0
  -24.0070  -25.9980   11.0000 C   0  0  0  0  0  0  0  0  0  0  0  0
  -25.0940  -26.8580   10.7500 C   0  0  0  0  0  3  0  0  0  0  0  0
  -26.4140  -25.6510   12.4030 C   0  0  0  0  0  3  0  0  0  0  0  0
  -25.3230  -24.7980   12.6610 C   0  0  0  0  0  3  0  0  0  0  0  0
  -22.9080  -24.0950   12.1520 C   0  0  0  0  0  2  0  0  0  0  0  0
  -21.5050  -25.9360   11.1070 N   0  0  0  0  0  0  0  0  0  0  0  0
  -19.3160  -26.3300   11.5390 O   0  0  0  0  0  0  0  0  0  0  0  0
  -21.4080  -25.4920   13.6090 C   0  0  0  0  0  0  0  0  0  0  0  0
  -20.7780  -24.7140   14.5040 N   0  0  0  0  0  0  0  0  0  0  0  0
  -21.8560  -26.6070   13.8910 O   0  0  0  0  0  0  0  0  0  0  0  0
  -20.4350  -23.8170   14.1910 H   0  0  0  0  0  0  0  0  0  0  0  0
  -18.5020  -24.1900   17.2570 C   0  0  0  0  0  0  0  0  0  0  0  0
  -20.5340  -25.0420   15.9080 C   0  0  0  0  0  3  0  0  0  0  0  0
  -21.3960  -24.1610   16.8410 C   0  0  0  0  0  2  0  0  0  0  0  0
  -20.6750  -22.8950   17.3100 C   0  0  0  0  0  2  0  0  0  0  0  0
  -19.3880  -23.2540   18.0600 C   0  0  0  0  0  2  0  0  0  0  0  0
  -19.0380  -25.0180   16.2360 C   0  0  0  0  0  0  0  0  0  0  0  0
  -18.1650  -25.8440   15.4960 C   0  0  0  0  0  3  0  0  0  0  0  0
  -16.7830  -25.8550   15.7650 C   0  0  0  0  0  3  0  0  0  0  0  0
  -16.2600  -25.0470   16.7880 C   0  0  0  0  0  3  0  0  0  0  0  0
  -17.1190  -24.2190   17.5330 C   0  0  0  0  0  3  0  0  0  0  0  0
  -20.2120  -27.7040    9.7910 C   0  0  0  0  0  3  0  0  0  0  0  0
  -19.1480  -27.2920    8.8660 N   0  0  0  0  0  0  0  0  0  0  0  0
  -19.3200  -26.4560    7.8340 C   0  0  0  0  0  0  0  0  0  0  0  0
  -20.4230  -26.0020    7.5160 O   0  0  0  0  0  0  0  0  0  0  0  0
  -18.2100  -27.5850    9.0950 H   0  0  0  0  0  0  0  0  0  0  0  0
  -17.7530  -24.5770    7.2610 C   0  0  0  0  0  1  0  0  0  0  0  0
  -18.0710  -26.0610    7.0240 C   0  0  0  0  0  3  0  0  0  0  0  0
  -17.8620  -27.6850    5.1950 C   0  0  0  0  0  1  0  0  0  0  0  0
  -18.2030  -26.3160    5.5740 N   0  0  0  0  0  0  0  0  0  0  0  0
  -17.6130  -25.6840    5.0410 H   0  0  0  0  0  0  0  0  0  0  0  0
  -19.9200  -29.1390   10.3840 C   0  0  1  0  0  0  0  0  0  0  0  0
  -19.2940  -29.1100   11.7980 C   0  0  0  0  0  1  0  0  0  0  0  0
  -21.2210  -29.9710   10.4590 C   0  0  0  0  0  1  0  0  0  0  0  0
  -18.9550  -29.9060    9.4490 C   0  0  0  0  0  1  0  0  0  0  0  0
  -35.7180  -20.5760   17.9140 C   0  0  0  0  0  2  0  0  0  0  0  0
  -34.9080  -21.6780   18.6200 C   0  0  0  0  0  2  0  0  0  0  0  0
  -36.6760  -23.3560   18.1690 C   0  0  0  0  0  0  0  0  0  0  0  0
  -37.7250  -25.4900   17.5360 C   0  0  0  0  0  2  0  0  0  0  0  0
  -39.2250  -25.5640   17.8580 C   0  0  0  0  0  2  0  0  0  0  0  0
  -39.4390  -26.0560   19.2990 C   0  0  0  0  0  2  0  0  0  0  0  0
  -38.6020  -25.2510   20.3260 C   0  0  0  0  0  3  0  0  0  0  0  0
  -37.1260  -25.1430   19.8820 C   0  0  0  0  0  2  0  0  0  0  0  0
  -37.0720  -24.6050   18.5100 N   0  0  0  0  0  0  0  0  0  0  0  0
  -37.0050  -22.7960   17.1170 O   0  0  0  0  0  0  0  0  0  0  0  0
  -35.7210  -22.8460   18.9530 N   0  0  0  0  0  0  0  0  0  0  0  0
  -35.4640  -23.3800   19.7710 H   0  0  0  0  0  0  0  0  0  0  0  0
  -38.7120  -25.1870   22.8990 C   0  0  0  0  0  0  0  0  0  0  0  0
  -38.9310  -26.1670   23.8300 C   0  0  0  0  0  0  0  0  0  0  0  0
  -39.0750  -27.3830   23.0950 C   0  0  0  0  0  0  0  0  0  0  0  0
  -38.7210  -25.8220   21.6660 N   0  0  0  0  0  0  0  0  0  0  0  0
  -38.8910  -27.1640   21.7990 N   0  0  0  0  0  0  0  0  0  0  0  0
  -39.4330  -28.7360   23.5450 C   0  0  0  0  0  0  0  0  0  0  0  0
  -38.4450  -29.6990   23.8490 C   0  0  0  0  0  3  0  0  0  0  0  0
  -38.8130  -30.9860   24.2970 C   0  0  0  0  0  3  0  0  0  0  0  0
  -40.1800  -31.3210   24.4460 C   0  0  0  0  0  0  0  0  0  0  0  0
  -41.1590  -30.3660   24.1210 C   0  0  0  0  0  3  0  0  0  0  0  0
  -40.7920  -29.0870   23.6710 C   0  0  0  0  0  3  0  0  0  0  0  0
  -40.6320  -32.5540   24.8500 O   0  0  0  0  0  0  0  0  0  0  0  0
  -40.2720  -33.0920   26.0600 C   0  0  0  0  0  0  0  0  0  0  0  0
  -40.7340  -32.5570   27.2810 C   0  0  0  0  0  3  0  0  0  0  0  0
  -40.3950  -33.1840   28.4970 C   0  0  0  0  0  3  0  0  0  0  0  0
  -39.6040  -34.3470   28.4940 C   0  0  0  0  0  0  0  0  0  0  0  0
  -39.1460  -34.8840   27.2790 C   0  0  0  0  0  3  0  0  0  0  0  0
  -39.4820  -34.2600   26.0640 C   0  0  0  0  0  0  0  0  0  0  0  0
  -39.0560  -34.7940   24.8940 F   0  0  0  0  0  0  0  0  0  0  0  0
  -39.2840  -34.9530   29.6620 F   0  0  0  0  0  0  0  0  0  0  0  0
  -39.0940  -25.9760   25.3100 C   0  0  0  0  0  0  0  0  0  0  0  0
  -39.1080  -27.0640   26.0720 N   0  0  0  0  0  0  0  0  0  0  0  0
  -39.1620  -24.8510   25.8070 O   0  0  0  0  0  0  0  0  0  0  0  0
  -39.0310  -27.9860   25.6680 H   0  0  0  0  0  0  0  0  0  0  0  0
  -39.1950  -26.9750   27.0740 H   0  0  0  0  0  0  0  0  0  0  0  0
  -38.5240  -23.8130   22.9940 N   0  0  0  0  0  0  0  0  0  0  0  0
  -38.5460  -23.3190   23.8790 H   0  0  0  0  0  0  0  0  0  0  0  0
  -38.3890  -23.1980   22.2010 H   0  0  0  0  0  0  0  0  0  0  0  0
  2  1  2  0
  3  4  2  0
  4  1  1  0
  4 67  1  0
  5  2  1  0
  6  5  2  0
  6  3  1  0
  7  9  2  0
  7  8  1  0
  8  5  1  0
 10  8  1  0
 11 12  2  0
 11 13  1  0
 12 14  1  0
 13 15  2  0
 14 16  2  0
 15 16  1  0
 16  7  1  0
 17  6  1  0
 18 17  1  0
 19 18  1  0
 20 19  1  0
 21 20  1  0
 21 22  1  0
 23 22  1  0
 24 23  1  0
 24 25  1  0
 26 28  1  0
 26 25  1  0
 27 37  1  0
 27 38  2  0
 28 34  1  0
 29 39  1  0
 30 36  1  0
 30 35  1  0
 31 32  1  0
 31 37  1  0
 32 30  2  0
 33 32  1  0
 33 28  2  0
 34 35  2  0
 36 29  1  0
 37 29  1  0
 39 41  2  0
 39 40  1  0
 42 40  1  0
 43 52  1  0
 43 47  1  0
 44 40  1  0
 44 48  1  0
 44 45  1  0
 45 46  1  0
 46 47  1  0
 48 43  2  0
 49 50  2  0
 49 48  1  0
 50 51  1  0
 51 52  2  0
 53 63  1  0
 53 27  1  0
 54 57  1  0
 54 53  1  0
 55 54  1  0
 56 55  2  0
 59 58  1  0
 59 55  1  0
 60 61  1  0
 61 59  1  0
 62 61  1  0
 63 65  1  1
 63 64  1  0
 66 63  1  0
 67 68  1  0
 68 77  1  0
 69 75  1  0
 69 77  1  0
 70 71  1  0
 70 75  1  0
 71 72  1  0
 73 72  1  0
 73 82  1  0
 74 73  1  0
 75 74  1  0
 76 69  2  0
 77 78  1  0
 79104  1  0
 79 80  2  0
 80 99  1  0
 81 84  1  0
 81 80  1  0
 82 83  1  0
 82 79  1  0
 83 81  2  0
 84 89  2  0
 84 85  1  0
 85 86  2  0
 86 87  1  0
 87 90  1  0
 88 87  2  0
 89 88  1  0
 90 91  1  0
 91 96  2  0
 91 92  1  0
 92 93  2  0
 94 93  1  0
 94 98  1  0
 95 94  2  0
 96 95  1  0
 97 96  1  0
 99101  2  0
 99100  1  0
100103  1  0
102100  1  0
104105  1  0
106104  1  0
M  ISO  4  25 101  26 101  69 100  77 100
M  END
>  <TORSDO>  (25) 
F 29

>  <SCORE>  (25) 
-5.052

>  <name>  (25) 
24

>  <ligand_id>  (25) 
24

>  <original_smiles>  (25) 
[H]c1c([H])c([H])c(C(=O)N([H])c2c([H])c([H])c(C([H])([H])C([H])([H])N([H])C(=O)N3C([H])([H])C([H])([H])C([H])([H])C([H])(n4nc(-c5c([H])c([H])c(Oc6c([H])c([H])c(F)c([H])c6F)c([H])c5[H])c(C(=O)N([H])[H])c4N([H])[H])C3([H])[H])c([H])c2OC([H])([H])C([H])([H])OC([H])([H])C([H])([H])OC([H])([H])C([H])([H])Oc2c([H])c([H])c3c(c2[H])C([H])([H])N(C(=O)C([H])(N([H])C(=O)C([H])(N([H])C([H])([H])[H])C([H])([H])[H])C(C([H])([H])[H])(C([H])([H])[H])C([H])([H])[H])C([H])(C(=O)N([H])C2([H])c4c([H])c([H])c([H])c([H])c4C([H])([H])C([H])([H])C2([H])[H])C3([H])[H])c([H])c1[H]

>  <smiles>  (25) 
[H]c1c([H])c([H])c(C(=O)N([H])c2c([H])c([H])c(C([H])([H])C([H])([H])N([H])C(=O)N3C([H])([H])C([H])([H])C([H])([H])C([H])(n4nc(-c5c([H])c([H])c(Oc6c([H])c([H])c(F)c([H])c6F)c([H])c5[H])c(C(=O)N([H])[H])c4N([H])[H])C3([H])[H])c([H])c2OC([H])([H])C([H])([H])OC([H])([H])C([H])([H])OC([H])([H])C([H])([H])Oc2c([H])c([H])c3c(c2[H])C([H])([H])N(C(=O)C([H])(N([H])C(=O)C([H])(N([H])C([H])([H])[H])C([H])([H])[H])C(C([H])([H])[H])(C([H])([H])[H])C([H])([H])[H])C([H])(C(=O)N([H])C2([H])c4c([H])c([H])c([H])c([H])c4C([H])([H])C([H])([H])C2([H])[H])C3([H])[H])c([H])c1[H]

$$$$
25:0:0
     RDKit          3D

 91 99  0  0  1  0  0  0  0  0999 V2000
  -30.9190  -21.8580   20.9780 C   0  0  0  0  0  2  0  0  0  0  0  0
  -30.6510  -23.1960   21.7050 C   0  0  0  0  0  2  0  0  0  0  0  0
  -29.9080  -24.1340   20.9180 O   0  0  0  0  0  0  0  0  0  0  0  0
  -29.3500  -25.2100   21.6870 C   0  0  0  0  0  2  0  0  0  0  0  0
  -29.5220  -26.5910   21.0130 C   0  0  0  0  0  2  0  0  0  0  0  0
  -28.6770  -26.7250   19.8690 O   0  0  0  0  0  0  0  0  0  0  0  0
  -24.6310  -31.6820   23.1210 C   0  0  0  0  0  0  0  0  0  0  0  0
  -27.5050  -27.4440   19.9740 C   0  0  0  0  0  0  0  0  0  0  0  0
  -23.5040  -30.2760   21.4250 C   0  0  0  0  0  3  0  0  0  0  0  0
  -25.0410  -28.8340   19.9870 C   0  0  0  0  0  0  0  0  0  0  0  0
  -26.0120  -30.7460   21.2720 C   0  0  0  0  0  2  0  0  0  0  0  0
  -26.1640  -29.3940   20.6080 C   0  0  0  0  0  0  0  0  0  0  0  0
  -27.4000  -28.7070   20.6050 C   0  0  0  0  0  3  0  0  0  0  0  0
  -26.3670  -26.9010   19.3440 C   0  0  0  0  0  3  0  0  0  0  0  0
  -25.1360  -27.5830   19.3540 C   0  0  0  0  0  3  0  0  0  0  0  0
  -23.7600  -29.6390   20.0330 C   0  0  0  0  0  2  0  0  0  0  0  0
  -24.7330  -30.9160   21.9980 N   0  0  0  0  0  0  0  0  0  0  0  0
  -23.5340  -31.8980   23.6540 O   0  0  0  0  0  0  0  0  0  0  0  0
  -22.8830  -29.2050   22.3490 C   0  0  0  0  0  0  0  0  0  0  0  0
  -21.5660  -28.9820   22.2060 N   0  0  0  0  0  0  0  0  0  0  0  0
  -23.5820  -28.5790   23.1500 O   0  0  0  0  0  0  0  0  0  0  0  0
  -21.0620  -29.5440   21.5350 H   0  0  0  0  0  0  0  0  0  0  0  0
  -18.2260  -27.6860   22.6630 C   0  0  0  0  0  0  0  0  0  0  0  0
  -20.7770  -27.9950   22.9410 C   0  0  0  0  0  3  0  0  0  0  0  0
  -20.9130  -26.5910   22.3100 C   0  0  0  0  0  2  0  0  0  0  0  0
  -19.8170  -26.2810   21.2850 C   0  0  0  0  0  2  0  0  0  0  0  0
  -18.4330  -26.3670   21.9360 C   0  0  0  0  0  2  0  0  0  0  0  0
  -19.3260  -28.4570   23.1210 C   0  0  0  0  0  0  0  0  0  0  0  0
  -19.0790  -29.6920   23.7590 C   0  0  0  0  0  3  0  0  0  0  0  0
  -17.7630  -30.1570   23.9430 C   0  0  0  0  0  3  0  0  0  0  0  0
  -16.6760  -29.3810   23.5030 C   0  0  0  0  0  3  0  0  0  0  0  0
  -16.9080  -28.1470   22.8680 C   0  0  0  0  0  3  0  0  0  0  0  0
  -25.8850  -32.3460   23.7740 C   0  0  0  0  0  3  0  0  0  0  0  0
  -25.5240  -33.7250   24.1250 N   0  0  0  0  0  0  0  0  0  0  0  0
  -25.8400  -34.8020   23.3950 C   0  0  0  0  0  0  0  0  0  0  0  0
  -26.5390  -34.7420   22.3800 O   0  0  0  0  0  0  0  0  0  0  0  0
  -24.9040  -33.8430   24.9130 H   0  0  0  0  0  0  0  0  0  0  0  0
  -24.0670  -36.5460   23.0230 C   0  0  0  0  0  1  0  0  0  0  0  0
  -25.2950  -36.1630   23.8660 C   0  0  0  0  0  3  0  0  0  0  0  0
  -27.3690  -37.0970   24.7900 C   0  0  0  0  0  1  0  0  0  0  0  0
  -26.2970  -37.2500   23.8100 N   0  0  0  0  0  0  0  0  0  0  0  0
  -25.8580  -38.1530   23.9600 H   0  0  0  0  0  0  0  0  0  0  0  0
  -26.4140  -31.5660   25.0400 C   0  0  1  0  0  0  0  0  0  0  0  0
  -25.3150  -31.2590   26.0840 C   0  0  0  0  0  1  0  0  0  0  0  0
  -27.0590  -30.2230   24.6240 C   0  0  0  0  0  1  0  0  0  0  0  0
  -27.5200  -32.3900   25.7400 C   0  0  0  0  0  1  0  0  0  0  0  0
  -29.8230  -20.9710   21.2050 O   0  0  0  0  0  0  0  0  0  0  0  0
  -29.4160  -17.3650   21.8340 C   0  0  0  0  0  3  0  0  0  0  0  0
  -31.0980  -17.6220   20.0990 C   0  0  0  0  0  3  0  0  0  0  0  0
  -29.2690  -18.7640   21.8970 C   0  0  0  0  0  3  0  0  0  0  0  0
  -30.9580  -19.0280   20.1750 C   0  0  0  0  0  3  0  0  0  0  0  0
  -30.3250  -16.7730   20.9300 C   0  0  0  0  0  0  0  0  0  0  0  0
  -30.0380  -19.6130   21.0770 C   0  0  0  0  0  0  0  0  0  0  0  0
  -30.9160  -14.5050   20.0100 C   0  0  0  0  0  0  0  0  0  0  0  0
  -30.5420  -12.4090   18.7560 C   0  0  0  0  0  2  0  0  0  0  0  0
  -29.5080  -12.6610   17.6380 C   0  0  0  0  0  2  0  0  0  0  0  0
  -28.0680  -12.5060   18.1670 C   0  0  0  0  0  2  0  0  0  0  0  0
  -27.8290  -13.2900   19.4840 C   0  0  0  0  0  3  0  0  0  0  0  0
  -28.9560  -12.9940   20.4990 C   0  0  0  0  0  2  0  0  0  0  0  0
  -30.2470  -13.3280   19.8650 N   0  0  0  0  0  0  0  0  0  0  0  0
  -31.9410  -14.7760   19.3750 O   0  0  0  0  0  0  0  0  0  0  0  0
  -30.3610  -15.3460   20.9010 N   0  0  0  0  0  0  0  0  0  0  0  0
  -29.6640  -14.8960   21.4760 H   0  0  0  0  0  0  0  0  0  0  0  0
  -25.4800  -13.8870   20.3600 C   0  0  0  0  0  0  0  0  0  0  0  0
  -24.4390  -13.1070   20.7890 C   0  0  0  0  0  0  0  0  0  0  0  0
  -24.8990  -11.7560   20.7060 C   0  0  0  0  0  0  0  0  0  0  0  0
  -26.5080  -13.0110   20.0450 N   0  0  0  0  0  0  0  0  0  0  0  0
  -26.1640  -11.7240   20.3070 N   0  0  0  0  0  0  0  0  0  0  0  0
  -24.1890  -10.4900   20.9270 C   0  0  0  0  0  0  0  0  0  0  0  0
  -24.6230   -9.5630   21.9000 C   0  0  0  0  0  3  0  0  0  0  0  0
  -23.9140   -8.3590   22.1070 C   0  0  0  0  0  3  0  0  0  0  0  0
  -22.7590   -8.0740   21.3410 C   0  0  0  0  0  0  0  0  0  0  0  0
  -22.3450   -8.9920   20.3580 C   0  0  0  0  0  3  0  0  0  0  0  0
  -23.0540  -10.1860   20.1500 C   0  0  0  0  0  3  0  0  0  0  0  0
  -22.0250   -6.9190   21.4550 O   0  0  0  0  0  0  0  0  0  0  0  0
  -21.8800   -6.2730   22.6560 C   0  0  0  0  0  0  0  0  0  0  0  0
  -21.3150   -6.9110   23.7820 C   0  0  0  0  0  3  0  0  0  0  0  0
  -21.1200   -6.1870   24.9760 C   0  0  0  0  0  3  0  0  0  0  0  0
  -21.4800   -4.8290   25.0440 C   0  0  0  0  0  0  0  0  0  0  0  0
  -22.0400   -4.1910   23.9220 C   0  0  0  0  0  3  0  0  0  0  0  0
  -22.2340   -4.9110   22.7310 C   0  0  0  0  0  0  0  0  0  0  0  0
  -22.7530   -4.2850   21.6470 F   0  0  0  0  0  0  0  0  0  0  0  0
  -21.2870   -4.1320   26.1880 F   0  0  0  0  0  0  0  0  0  0  0  0
  -23.0640  -13.5760   21.1680 C   0  0  0  0  0  0  0  0  0  0  0  0
  -22.4120  -12.8850   22.0970 N   0  0  0  0  0  0  0  0  0  0  0  0
  -22.5760  -14.5910   20.6720 O   0  0  0  0  0  0  0  0  0  0  0  0
  -22.8210  -12.0640   22.5200 H   0  0  0  0  0  0  0  0  0  0  0  0
  -21.4930  -13.1830   22.3910 H   0  0  0  0  0  0  0  0  0  0  0  0
  -25.6320  -15.2620   20.1970 N   0  0  0  0  0  0  0  0  0  0  0  0
  -24.8820  -15.9170   20.3820 H   0  0  0  0  0  0  0  0  0  0  0  0
  -26.4690  -15.7070   19.8400 H   0  0  0  0  0  0  0  0  0  0  0  0
  1 47  1  0
  1  2  1  0
  3  4  1  0
  3  2  1  0
  5  4  1  0
  6  8  1  0
  6  5  1  0
  7 18  2  0
  8 13  1  0
  9 17  1  0
  9 19  1  0
 10 16  1  0
 10 12  1  0
 11 17  1  0
 12 11  1  0
 13 12  2  0
 14 15  1  0
 14  8  2  0
 15 10  2  0
 16  9  1  0
 17  7  1  0
 19 21  2  0
 20 19  1  0
 22 20  1  0
 23 32  2  0
 23 28  1  0
 24 20  1  0
 24 28  1  0
 25 24  1  0
 26 27  1  0
 26 25  1  0
 27 23  1  0
 28 29  2  0
 29 30  1  0
 31 30  2  0
 32 31  1  0
 33  7  1  0
 33 34  1  0
 33 43  1  0
 34 37  1  0
 35 39  1  0
 35 34  1  0
 36 35  2  0
 39 38  1  0
 41 39  1  0
 41 42  1  0
 41 40  1  0
 43 46  1  1
 43 44  1  0
 45 43  1  0
 48 50  1  0
 49 51  2  0
 49 52  1  0
 51 53  1  0
 52 48  2  0
 53 47  1  0
 53 50  2  0
 54 62  1  0
 55 60  1  0
 56 57  1  0
 56 55  1  0
 58 57  1  0
 58 67  1  0
 58 59  1  0
 60 54  1  0
 60 59  1  0
 61 54  2  0
 62 52  1  0
 62 63  1  0
 64 65  2  0
 65 84  1  0
 66 65  1  0
 66 69  1  0
 67 68  1  0
 67 64  1  0
 68 66  2  0
 69 70  1  0
 70 71  2  0
 72 75  1  0
 72 71  1  0
 73 72  2  0
 74 73  1  0
 74 69  2  0
 75 76  1  0
 76 81  2  0
 76 77  1  0
 77 78  2  0
 78 79  1  0
 79 83  1  0
 80 79  2  0
 81 80  1  0
 82 81  1  0
 84 85  1  0
 85 88  1  0
 85 87  1  0
 86 84  2  0
 89 64  1  0
 89 90  1  0
 91 89  1  0
M  ISO  4   5 101   6 101  54 100  62 100
M  END
>  <TORSDO>  (26) 
F 22

>  <SCORE>  (26) 
-10.972

>  <name>  (26) 
25

>  <ligand_id>  (26) 
25

>  <original_smiles>  (26) 
[H]c1c([H])c([H])c2c(c1[H])C([H])([H])C([H])([H])C([H])([H])C2([H])N([H])C(=O)C1([H])N(C(=O)C([H])(N([H])C(=O)C([H])(N([H])C([H])([H])[H])C([H])([H])[H])C(C([H])([H])[H])(C([H])([H])[H])C([H])([H])[H])C([H])([H])c2c([H])c(OC([H])([H])C([H])([H])OC([H])([H])C([H])([H])Oc3c([H])c([H])c(N([H])C(=O)N4C([H])([H])C([H])([H])C([H])([H])C([H])(n5nc(-c6c([H])c([H])c(Oc7c([H])c([H])c(F)c([H])c7F)c([H])c6[H])c(C(=O)N([H])[H])c5N([H])[H])C4([H])[H])c([H])c3[H])c([H])c([H])c2C1([H])[H]

>  <smiles>  (26) 
[H]c1c([H])c([H])c2c(c1[H])C([H])([H])C([H])([H])C([H])([H])C2([H])N([H])C(=O)C1([H])N(C(=O)C([H])(N([H])C(=O)C([H])(N([H])C([H])([H])[H])C([H])([H])[H])C(C([H])([H])[H])(C([H])([H])[H])C([H])([H])[H])C([H])([H])c2c([H])c(OC([H])([H])C([H])([H])OC([H])([H])C([H])([H])Oc3c([H])c([H])c(N([H])C(=O)N4C([H])([H])C([H])([H])C([H])([H])C([H])(n5nc(-c6c([H])c([H])c(Oc7c([H])c([H])c(F)c([H])c7F)c([H])c6[H])c(C(=O)N([H])[H])c5N([H])[H])C4([H])[H])c([H])c3[H])c([H])c([H])c2C1([H])[H]

$$$$
26:0:0
     RDKit          3D

 86 93  0  0  1  0  0  0  0  0999 V2000
  -28.1520  -24.0360   19.9640 C   0  0  0  0  0  2  0  0  0  0  0  0
  -28.3920  -25.3500   20.7900 C   0  0  0  0  0  2  0  0  0  0  0  0
  -28.3770  -26.6310   20.0960 O   0  0  0  0  0  0  0  0  0  0  0  0
  -24.5990  -31.8740   23.2160 C   0  0  0  0  0  0  0  0  0  0  0  0
  -27.2150  -27.3850   20.1400 C   0  0  0  0  0  0  0  0  0  0  0  0
  -23.3840  -30.4740   21.5800 C   0  0  0  0  0  3  0  0  0  0  0  0
  -24.8290  -28.9240   20.1520 C   0  0  0  0  0  0  0  0  0  0  0  0
  -25.9130  -30.8190   21.3710 C   0  0  0  0  0  2  0  0  0  0  0  0
  -25.9940  -29.4420   20.7330 C   0  0  0  0  0  0  0  0  0  0  0  0
  -27.1920  -28.6830   20.7140 C   0  0  0  0  0  3  0  0  0  0  0  0
  -26.0330  -26.8880   19.5570 C   0  0  0  0  0  3  0  0  0  0  0  0
  -24.8460  -27.6490   19.5580 C   0  0  0  0  0  3  0  0  0  0  0  0
  -23.5880  -29.7890   20.2000 C   0  0  0  0  0  2  0  0  0  0  0  0
  -24.6500  -31.0720   22.1130 N   0  0  0  0  0  0  0  0  0  0  0  0
  -23.5200  -32.1480   23.7600 O   0  0  0  0  0  0  0  0  0  0  0  0
  -22.7330  -29.4560   22.5450 C   0  0  0  0  0  0  0  0  0  0  0  0
  -21.4080  -29.2750   22.4230 N   0  0  0  0  0  0  0  0  0  0  0  0
  -23.4180  -28.8320   23.3590 O   0  0  0  0  0  0  0  0  0  0  0  0
  -20.9160  -29.8300   21.7370 H   0  0  0  0  0  0  0  0  0  0  0  0
  -18.0370  -28.0680   22.9220 C   0  0  0  0  0  0  0  0  0  0  0  0
  -20.5930  -28.3370   23.1960 C   0  0  0  0  0  3  0  0  0  0  0  0
  -20.7010  -26.9040   22.6240 C   0  0  0  0  0  2  0  0  0  0  0  0
  -19.6020  -26.5740   21.6090 C   0  0  0  0  0  2  0  0  0  0  0  0
  -18.2190  -26.7170   22.2510 C   0  0  0  0  0  2  0  0  0  0  0  0
  -19.1520  -28.8360   23.3510 C   0  0  0  0  0  0  0  0  0  0  0  0
  -18.9290  -30.1010   23.9370 C   0  0  0  0  0  3  0  0  0  0  0  0
  -17.6230  -30.5990   24.0990 C   0  0  0  0  0  3  0  0  0  0  0  0
  -16.5210  -29.8280   23.6870 C   0  0  0  0  0  3  0  0  0  0  0  0
  -16.7290  -28.5660   23.1040 C   0  0  0  0  0  3  0  0  0  0  0  0
  -25.8870  -32.5040   23.8300 C   0  0  0  0  0  3  0  0  0  0  0  0
  -26.4150  -31.7260   25.0990 C   0  0  1  0  0  0  0  0  0  0  0  0
  -25.3310  -31.4830   26.1750 C   0  0  0  0  0  1  0  0  0  0  0  0
  -26.9930  -30.3500   24.6930 C   0  0  0  0  0  1  0  0  0  0  0  0
  -27.5720  -32.5160   25.7540 C   0  0  0  0  0  1  0  0  0  0  0  0
  -25.5800  -33.9010   24.1710 N   0  0  0  0  0  0  0  0  0  0  0  0
  -25.9080  -34.9570   23.4150 C   0  0  0  0  0  0  0  0  0  0  0  0
  -26.5710  -34.8590   22.3790 O   0  0  0  0  0  0  0  0  0  0  0  0
  -24.9910  -34.0510   24.9760 H   0  0  0  0  0  0  0  0  0  0  0  0
  -24.1760  -36.7500   23.0790 C   0  0  0  0  0  1  0  0  0  0  0  0
  -25.4220  -36.3430   23.8810 C   0  0  0  0  0  3  0  0  0  0  0  0
  -27.5630  -37.2230   24.6990 C   0  0  0  0  0  1  0  0  0  0  0  0
  -26.4530  -37.3970   23.7660 N   0  0  0  0  0  0  0  0  0  0  0  0
  -26.0480  -38.3160   23.9220 H   0  0  0  0  0  0  0  0  0  0  0  0
  -28.9100  -22.8780   20.4230 O   0  0  0  0  0  0  0  0  0  0  0  0
  -28.3720  -21.5820   20.0450 C   0  0  0  0  0  2  0  0  0  0  0  0
  -29.4000  -20.4060   19.8200 C   0  0  0  0  0  2  0  0  0  0  0  0
  -29.3490  -19.2780   20.7360 O   0  0  0  0  0  0  0  0  0  0  0  0
  -29.7840  -18.0010   20.1830 C   0  0  0  0  0  2  0  0  0  0  0  0
  -30.1970  -16.9170   21.2400 C   0  0  0  0  0  2  0  0  0  0  0  0
  -29.7780  -15.5490   20.9980 O   0  0  0  0  0  0  0  0  0  0  0  0
  -30.6130  -14.5690   20.4860 C   0  0  0  0  0  0  0  0  0  0  0  0
  -30.3590  -12.3550   19.3530 C   0  0  0  0  0  2  0  0  0  0  0  0
  -29.4220  -12.5490   18.1410 C   0  0  0  0  0  2  0  0  0  0  0  0
  -27.9430  -12.4080   18.5590 C   0  0  0  0  0  2  0  0  0  0  0  0
  -27.5900  -13.2510   19.8140 C   0  0  0  0  0  3  0  0  0  0  0  0
  -28.6310  -13.0410   20.9330 C   0  0  0  0  0  2  0  0  0  0  0  0
  -29.9560  -13.3290   20.3760 N   0  0  0  0  0  0  0  0  0  0  0  0
  -31.7500  -14.7950   20.0640 O   0  0  0  0  0  0  0  0  0  0  0  0
  -25.1880  -13.8620   20.5000 C   0  0  0  0  0  0  0  0  0  0  0  0
  -24.1170  -13.0940   20.8650 C   0  0  0  0  0  0  0  0  0  0  0  0
  -24.5770  -11.7420   20.8520 C   0  0  0  0  0  0  0  0  0  0  0  0
  -26.2340  -12.9790   20.2830 N   0  0  0  0  0  0  0  0  0  0  0  0
  -25.8710  -11.6980   20.5550 N   0  0  0  0  0  0  0  0  0  0  0  0
  -23.8490  -10.4810   21.0480 C   0  0  0  0  0  0  0  0  0  0  0  0
  -24.2860   -9.5120   21.9780 C   0  0  0  0  0  3  0  0  0  0  0  0
  -23.5580   -8.3160   22.1610 C   0  0  0  0  0  3  0  0  0  0  0  0
  -22.3790   -8.0820   21.4130 C   0  0  0  0  0  0  0  0  0  0  0  0
  -21.9620   -9.0400   20.4730 C   0  0  0  0  0  3  0  0  0  0  0  0
  -22.6910  -10.2270   20.2880 C   0  0  0  0  0  3  0  0  0  0  0  0
  -21.6230   -6.9390   21.5050 O   0  0  0  0  0  0  0  0  0  0  0  0
  -21.5930   -6.1860   22.6520 C   0  0  0  0  0  0  0  0  0  0  0  0
  -21.2090   -6.7350   23.8940 C   0  0  0  0  0  3  0  0  0  0  0  0
  -21.1250   -5.9090   25.0330 C   0  0  0  0  0  3  0  0  0  0  0  0
  -21.4160   -4.5360   24.9310 C   0  0  0  0  0  0  0  0  0  0  0  0
  -21.7920   -3.9860   23.6930 C   0  0  0  0  0  3  0  0  0  0  0  0
  -21.8780   -4.8080   22.5560 C   0  0  0  0  0  0  0  0  0  0  0  0
  -22.2210   -4.2700   21.3610 F   0  0  0  0  0  0  0  0  0  0  0  0
  -21.3270   -3.7400   26.0220 F   0  0  0  0  0  0  0  0  0  0  0  0
  -22.7180  -13.5740   21.1220 C   0  0  0  0  0  0  0  0  0  0  0  0
  -21.9840  -12.8850   21.9900 N   0  0  0  0  0  0  0  0  0  0  0  0
  -22.2830  -14.5940   20.5890 O   0  0  0  0  0  0  0  0  0  0  0  0
  -22.3470  -12.0600   22.4420 H   0  0  0  0  0  0  0  0  0  0  0  0
  -21.0440  -13.1890   22.2050 H   0  0  0  0  0  0  0  0  0  0  0  0
  -25.3570  -15.2310   20.3150 N   0  0  0  0  0  0  0  0  0  0  0  0
  -24.5960  -15.8930   20.4210 H   0  0  0  0  0  0  0  0  0  0  0  0
  -26.2240  -15.6670   20.0240 H   0  0  0  0  0  0  0  0  0  0  0  0
  1 44  1  0
  1  2  1  0
  3  5  1  0
  3  2  1  0
  4 15  2  0
  5 10  1  0
  6 14  1  0
  6 16  1  0
  7 13  1  0
  7  9  1  0
  8 14  1  0
  9  8  1  0
 10  9  2  0
 11 12  1  0
 11  5  2  0
 12  7  2  0
 13  6  1  0
 14  4  1  0
 16 18  2  0
 17 16  1  0
 19 17  1  0
 20 29  2  0
 20 25  1  0
 21 17  1  0
 21 25  1  0
 22 21  1  0
 23 24  1  0
 23 22  1  0
 24 20  1  0
 25 26  2  0
 26 27  1  0
 28 27  2  0
 29 28  1  0
 30  4  1  0
 30 35  1  0
 30 31  1  0
 31 34  1  1
 31 32  1  0
 33 31  1  0
 35 38  1  0
 36 40  1  0
 36 35  1  0
 37 36  2  0
 40 39  1  0
 42 40  1  0
 42 43  1  0
 42 41  1  0
 45 44  1  0
 46 45  1  0
 46 47  1  0
 48 47  1  0
 48 49  1  0
 50 49  1  0
 51 50  1  0
 52 57  1  0
 53 54  1  0
 53 52  1  0
 55 54  1  0
 55 62  1  0
 55 56  1  0
 57 51  1  0
 57 56  1  0
 58 51  2  0
 59 60  2  0
 60 79  1  0
 61 60  1  0
 61 64  1  0
 62 59  1  0
 62 63  1  0
 63 61  2  0
 64 65  1  0
 65 66  2  0
 67 70  1  0
 67 66  1  0
 68 67  2  0
 69 68  1  0
 69 64  2  0
 70 71  1  0
 71 72  1  0
 72 73  2  0
 74 73  1  0
 74 78  1  0
 75 74  2  0
 76 71  2  0
 76 75  1  0
 77 76  1  0
 79 80  1  0
 80 83  1  0
 80 82  1  0
 81 79  2  0
 84 85  1  0
 84 59  1  0
 86 84  1  0
M  ISO  4   2 101   3 101  50 100  51 100
M  END
>  <TORSDO>  (27) 
F 24

>  <SCORE>  (27) 
-12.330

>  <name>  (27) 
26

>  <ligand_id>  (27) 
26

>  <original_smiles>  (27) 
[H]c1c([H])c([H])c2c(c1[H])C([H])([H])C([H])([H])C([H])([H])C2([H])N([H])C(=O)C1([H])N(C(=O)C([H])(N([H])C(=O)C([H])(N([H])C([H])([H])[H])C([H])([H])[H])C(C([H])([H])[H])(C([H])([H])[H])C([H])([H])[H])C([H])([H])c2c([H])c(OC([H])([H])C([H])([H])OC([H])([H])C([H])([H])OC([H])([H])C([H])([H])OC(=O)N3C([H])([H])C([H])([H])C([H])([H])C([H])(n4nc(-c5c([H])c([H])c(Oc6c([H])c([H])c(F)c([H])c6F)c([H])c5[H])c(C(=O)N([H])[H])c4N([H])[H])C3([H])[H])c([H])c([H])c2C1([H])[H]

>  <smiles>  (27) 
[H]c1c([H])c([H])c2c(c1[H])C([H])([H])C([H])([H])C([H])([H])C2([H])N([H])C(=O)C1([H])N(C(=O)C([H])(N([H])C(=O)C([H])(N([H])C([H])([H])[H])C([H])([H])[H])C(C([H])([H])[H])(C([H])([H])[H])C([H])([H])[H])C([H])([H])c2c([H])c(OC([H])([H])C([H])([H])OC([H])([H])C([H])([H])OC([H])([H])C([H])([H])OC(=O)N3C([H])([H])C([H])([H])C([H])([H])C([H])(n4nc(-c5c([H])c([H])c(Oc6c([H])c([H])c(F)c([H])c6F)c([H])c5[H])c(C(=O)N([H])[H])c4N([H])[H])C3([H])[H])c([H])c([H])c2C1([H])[H]

$$$$
27:0:0
     RDKit          3D

101110  0  0  1  0  0  0  0  0999 V2000
  -27.4260  -22.4570   21.3690 C   0  0  0  0  0  2  0  0  0  0  0  0
  -28.1780  -22.5690   19.0050 C   0  0  0  0  0  2  0  0  0  0  0  0
  -27.4480  -23.9920   21.2010 C   0  0  0  0  0  2  0  0  0  0  0  0
  -29.2860  -23.4980   19.5430 C   0  0  0  0  0  3  0  0  0  0  0  0
  -27.6200  -21.7430   20.0930 N   0  0  0  0  0  0  0  0  0  0  0  0
  -28.6860  -24.4650   20.5090 N   0  0  2  0  0  4  0  0  0  0  0  0
  -28.3720  -25.2320   19.9280 H   0  0  0  0  0  0  0  0  0  0  0  0
  -28.8480  -18.4580   18.8420 C   0  0  0  0  0  3  0  0  0  0  0  0
  -29.4640  -18.6470   21.1900 C   0  0  0  0  0  3  0  0  0  0  0  0
  -28.0840  -19.6300   18.9500 C   0  0  0  0  0  3  0  0  0  0  0  0
  -28.7320  -19.8490   21.2800 C   0  0  0  0  0  3  0  0  0  0  0  0
  -29.5880  -18.0030   19.9450 C   0  0  0  0  0  0  0  0  0  0  0  0
  -28.1170  -20.4140   20.1290 C   0  0  0  0  0  0  0  0  0  0  0  0
  -31.0910  -14.5360   19.8790 C   0  0  0  0  0  0  0  0  0  0  0  0
  -30.6650  -12.3800   18.8200 C   0  0  0  0  0  2  0  0  0  0  0  0
  -29.6590  -12.6140   17.6720 C   0  0  0  0  0  2  0  0  0  0  0  0
  -28.2120  -12.5150   18.1950 C   0  0  0  0  0  2  0  0  0  0  0  0
  -27.9730  -13.3710   19.4690 C   0  0  0  0  0  3  0  0  0  0  0  0
  -29.0940  -13.1520   20.5140 C   0  0  0  0  0  2  0  0  0  0  0  0
  -30.3880  -13.3800   19.8570 N   0  0  0  0  0  0  0  0  0  0  0  0
  -32.2230  -14.6650   19.3940 O   0  0  0  0  0  0  0  0  0  0  0  0
  -30.5620  -16.9470   19.7330 C   0  0  0  0  0  0  0  0  0  0  0  0
  -30.3160  -15.6980   20.1780 N   0  0  0  0  0  0  0  0  0  0  0  0
  -31.6330  -17.2840   19.0070 N   0  0  0  0  0  4  0  0  0  0  0  0
  -29.4150  -15.6260   20.6150 H   0  0  0  0  0  0  0  0  0  0  0  0
  -31.7720  -18.2350   18.7000 H   0  0  0  0  0  0  0  0  0  0  0  0
  -32.3250  -16.5710   18.8040 H   0  0  0  0  0  0  0  0  0  0  0  0
  -25.6570  -14.0210   20.3860 C   0  0  0  0  0  0  0  0  0  0  0  0
  -24.5960  -13.2650   20.8080 C   0  0  0  0  0  0  0  0  0  0  0  0
  -25.0110  -11.9040   20.6890 C   0  0  0  0  0  0  0  0  0  0  0  0
  -26.6520  -13.1200   20.0400 N   0  0  0  0  0  0  0  0  0  0  0  0
  -26.2710  -11.8390   20.2800 N   0  0  0  0  0  0  0  0  0  0  0  0
  -24.2630  -10.6560   20.8840 C   0  0  0  0  0  0  0  0  0  0  0  0
  -24.6550   -9.7050   21.8520 C   0  0  0  0  0  3  0  0  0  0  0  0
  -23.9110   -8.5200   22.0330 C   0  0  0  0  0  3  0  0  0  0  0  0
  -22.7600   -8.2790   21.2470 C   0  0  0  0  0  0  0  0  0  0  0  0
  -22.3870   -9.2190   20.2690 C   0  0  0  0  0  3  0  0  0  0  0  0
  -23.1320  -10.3950   20.0860 C   0  0  0  0  0  3  0  0  0  0  0  0
  -21.9890   -7.1460   21.3340 O   0  0  0  0  0  0  0  0  0  0  0  0
  -21.7790   -6.5100   22.5320 C   0  0  0  0  0  0  0  0  0  0  0  0
  -21.1780   -7.1630   23.6300 C   0  0  0  0  0  3  0  0  0  0  0  0
  -20.9220   -6.4530   24.8190 C   0  0  0  0  0  3  0  0  0  0  0  0
  -21.2530   -5.0860   24.9070 C   0  0  0  0  0  0  0  0  0  0  0  0
  -21.8430   -4.4310   23.8130 C   0  0  0  0  0  3  0  0  0  0  0  0
  -22.1010   -5.1420   22.6270 C   0  0  0  0  0  0  0  0  0  0  0  0
  -22.6540   -4.5000   21.5680 F   0  0  0  0  0  0  0  0  0  0  0  0
  -20.9990   -4.4000   26.0470 F   0  0  0  0  0  0  0  0  0  0  0  0
  -23.2380  -13.7690   21.2050 C   0  0  0  0  0  0  0  0  0  0  0  0
  -22.5690  -13.0750   22.1180 N   0  0  0  0  0  0  0  0  0  0  0  0
  -22.7840  -14.8150   20.7410 O   0  0  0  0  0  0  0  0  0  0  0  0
  -22.9480  -12.2270   22.5100 H   0  0  0  0  0  0  0  0  0  0  0  0
  -21.6610  -13.3950   22.4260 H   0  0  0  0  0  0  0  0  0  0  0  0
  -25.8500  -15.3930   20.2490 N   0  0  0  0  0  0  0  0  0  0  0  0
  -25.1010  -16.0510   20.4340 H   0  0  0  0  0  0  0  0  0  0  0  0
  -26.6430  -15.8240   19.7930 H   0  0  0  0  0  0  0  0  0  0  0  0
  -31.0800  -23.2060   17.7280 C   0  0  0  0  0  1  0  0  0  0  0  0
  -29.2770  -24.9410   17.3670 C   0  0  0  0  0  1  0  0  0  0  0  0
  -30.1170  -24.1910   18.4170 C   0  0  0  0  0  3  0  0  0  0  0  0
  -29.6600  -25.1490   21.4010 C   0  0  0  0  0  2  0  0  0  0  0  0
  -29.3040  -26.6370   21.4660 C   0  0  0  0  0  2  0  0  0  0  0  0
  -28.8090  -26.9730   20.1670 O   0  0  0  0  0  0  0  0  0  0  0  0
  -24.6340  -31.7920   23.2740 C   0  0  0  0  0  0  0  0  0  0  0  0
  -27.6080  -27.6300   20.1720 C   0  0  0  0  0  0  0  0  0  0  0  0
  -23.5490  -30.3690   21.5620 C   0  0  0  0  0  3  0  0  0  0  0  0
  -25.1240  -28.9500   20.1490 C   0  0  0  0  0  0  0  0  0  0  0  0
  -26.0460  -30.8840   21.4420 C   0  0  0  0  0  2  0  0  0  0  0  0
  -26.2260  -29.5360   20.7830 C   0  0  0  0  0  0  0  0  0  0  0  0
  -27.4700  -28.8830   20.8020 C   0  0  0  0  0  3  0  0  0  0  0  0
  -26.4980  -27.0450   19.5270 C   0  0  0  0  0  3  0  0  0  0  0  0
  -25.2520  -27.6980   19.5220 C   0  0  0  0  0  3  0  0  0  0  0  0
  -23.8320  -29.7320   20.1750 C   0  0  0  0  0  2  0  0  0  0  0  0
  -24.7590  -31.0270   22.1540 N   0  0  0  0  0  0  0  0  0  0  0  0
  -23.5270  -31.9930   23.7910 O   0  0  0  0  0  0  0  0  0  0  0  0
  -22.9290  -29.2900   22.4780 C   0  0  0  0  0  0  0  0  0  0  0  0
  -21.6180  -29.0530   22.3160 N   0  0  0  0  0  0  0  0  0  0  0  0
  -23.6260  -28.6690   23.2860 O   0  0  0  0  0  0  0  0  0  0  0  0
  -21.1160  -29.6110   21.6390 H   0  0  0  0  0  0  0  0  0  0  0  0
  -18.2830  -27.7320   22.7240 C   0  0  0  0  0  0  0  0  0  0  0  0
  -20.8270  -28.0590   23.0380 C   0  0  0  0  0  3  0  0  0  0  0  0
  -20.9830  -26.6570   22.4060 C   0  0  0  0  0  2  0  0  0  0  0  0
  -19.9030  -26.3400   21.3660 C   0  0  0  0  0  2  0  0  0  0  0  0
  -18.5110  -26.4160   21.9990 C   0  0  0  0  0  2  0  0  0  0  0  0
  -19.3710  -28.5110   23.1980 C   0  0  0  0  0  0  0  0  0  0  0  0
  -19.1070  -29.7440   23.8330 C   0  0  0  0  0  3  0  0  0  0  0  0
  -17.7860  -30.1980   24.0000 C   0  0  0  0  0  3  0  0  0  0  0  0
  -16.7110  -29.4160   23.5440 C   0  0  0  0  0  3  0  0  0  0  0  0
  -16.9600  -28.1850   22.9110 C   0  0  0  0  0  3  0  0  0  0  0  0
  -25.8700  -32.4680   23.9450 C   0  0  0  0  0  3  0  0  0  0  0  0
  -26.3550  -31.7240   25.2490 C   0  0  1  0  0  0  0  0  0  0  0  0
  -25.2230  -31.4540   26.2660 C   0  0  0  0  0  1  0  0  0  0  0  0
  -27.0060  -30.3670   24.8910 C   0  0  0  0  0  1  0  0  0  0  0  0
  -27.4430  -32.5640   25.9590 C   0  0  0  0  0  1  0  0  0  0  0  0
  -25.5040  -33.8590   24.2430 N   0  0  0  0  0  0  0  0  0  0  0  0
  -25.8320  -34.9090   23.4780 C   0  0  0  0  0  0  0  0  0  0  0  0
  -26.5450  -34.8140   22.4760 O   0  0  0  0  0  0  0  0  0  0  0  0
  -24.8710  -34.0050   25.0150 H   0  0  0  0  0  0  0  0  0  0  0  0
  -24.0580  -36.6330   23.0240 C   0  0  0  0  0  1  0  0  0  0  0  0
  -25.2770  -36.2850   23.8920 C   0  0  0  0  0  3  0  0  0  0  0  0
  -27.3420  -37.2580   24.7980 C   0  0  0  0  0  1  0  0  0  0  0  0
  -26.2770  -37.3720   23.8060 N   0  0  0  0  0  0  0  0  0  0  0  0
  -25.8340  -38.2800   23.9200 H   0  0  0  0  0  0  0  0  0  0  0  0
  2  4  1  0
  2  5  1  0
  3  1  1  0
  4 58  1  0
  4  6  1  0
  5 13  1  0
  5  1  1  0
  6  3  1  0
  6 59  1  0
  6  7  1  6
  8 10  2  0
  8 12  1  0
  9 11  1  0
 10 13  1  0
 12  9  2  0
 13 11  2  0
 14 23  1  0
 15 20  1  0
 16 17  1  0
 16 15  1  0
 18 17  1  0
 18 31  1  0
 18 19  1  0
 20 14  1  0
 20 19  1  0
 21 14  2  0
 22 12  1  0
 22 23  1  0
 23 25  1  0
 24 22  2  0
 26 24  1  0
 27 24  1  0
 28 29  2  0
 29 48  1  0
 30 29  1  0
 30 33  1  0
 31 32  1  0
 31 28  1  0
 32 30  2  0
 33 34  1  0
 34 35  2  0
 36 39  1  0
 36 35  1  0
 37 36  2  0
 38 37  1  0
 38 33  2  0
 39 40  1  0
 40 45  2  0
 40 41  1  0
 41 42  2  0
 42 43  1  0
 43 47  1  0
 44 43  2  0
 45 44  1  0
 46 45  1  0
 48 49  1  0
 49 52  1  0
 49 51  1  0
 50 48  2  0
 53 28  1  0
 53 54  1  0
 55 53  1  0
 56 58  1  0
 57 58  1  0
 59 60  1  0
 61 63  1  0
 61 60  1  0
 62 73  2  0
 63 68  1  0
 64 72  1  0
 64 74  1  0
 65 71  1  0
 65 67  1  0
 66 72  1  0
 67 68  2  0
 67 66  1  0
 69 63  2  0
 70 69  1  0
 70 65  2  0
 71 64  1  0
 72 62  1  0
 74 76  2  0
 75 74  1  0
 77 75  1  0
 78 87  2  0
 78 83  1  0
 79 75  1  0
 79 83  1  0
 80 79  1  0
 81 82  1  0
 81 80  1  0
 82 78  1  0
 83 84  2  0
 84 85  1  0
 86 85  2  0
 87 86  1  0
 88 62  1  0
 88 93  1  0
 88 89  1  0
 89 92  1  1
 89 90  1  0
 91 89  1  0
 93 96  1  0
 94 98  1  0
 94 93  1  0
 95 94  2  0
 98 97  1  0
100 98  1  0
100101  1  0
100 99  1  0
M  ISO  4  14 100  23 100  60 101  61 101
M  END
>  <TORSDO>  (28) 
F 20

>  <SCORE>  (28) 
-12.858

>  <name>  (28) 
27

>  <ligand_id>  (28) 
27

>  <original_smiles>  (28) 
[H]c1c([H])c([H])c2c(c1[H])C([H])([H])C([H])([H])C([H])([H])C2([H])N([H])C(=O)C1([H])N(C(=O)C([H])(N([H])C(=O)C([H])(N([H])C([H])([H])[H])C([H])([H])[H])C(C([H])([H])[H])(C([H])([H])[H])C([H])([H])[H])C([H])([H])c2c([H])c(OC([H])([H])C([H])([H])[N+]3([H])C([H])([H])C([H])([H])N(c4c([H])c([H])c(C(N([H])C(=O)N5C([H])([H])C([H])([H])C([H])([H])C([H])(n6nc(-c7c([H])c([H])c(Oc8c([H])c([H])c(F)c([H])c8F)c([H])c7[H])c(C(=O)N([H])[H])c6N([H])[H])C5([H])[H])=[N+]([H])[H])c([H])c4[H])C([H])([H])C3([H])C([H])(C([H])([H])[H])C([H])([H])[H])c([H])c([H])c2C1([H])[H]

>  <smiles>  (28) 
[H]c1c([H])c([H])c2c(c1[H])C([H])([H])C([H])([H])C([H])([H])C2([H])N([H])C(=O)C1([H])N(C(=O)C([H])(N([H])C(=O)C([H])(N([H])C([H])([H])[H])C([H])([H])[H])C(C([H])([H])[H])(C([H])([H])[H])C([H])([H])[H])C([H])([H])c2c([H])c(OC([H])([H])C([H])([H])[N+]3([H])C([H])([H])C([H])([H])N(c4c([H])c([H])c(C(N([H])C(=O)N5C([H])([H])C([H])([H])C([H])([H])C([H])(n6nc(-c7c([H])c([H])c(Oc8c([H])c([H])c(F)c([H])c8F)c([H])c7[H])c(C(=O)N([H])[H])c6N([H])[H])C5([H])[H])=[N+]([H])[H])c([H])c4[H])C([H])([H])C3([H])C([H])(C([H])([H])[H])C([H])([H])[H])c([H])c([H])c2C1([H])[H]

$$$$
28:0:0
     RDKit          3D

 96 99  0  0  1  0  0  0  0  0999 V2000
  -23.7880  -16.2500   20.6300 C   0  0  0  0  0  3  0  0  0  0  0  0
  -25.8830  -15.5610   20.4090 C   0  0  0  0  0  3  0  0  0  0  0  0
  -24.1690  -17.5790   20.0000 C   0  0  0  0  0  3  0  0  0  0  0  0
  -26.2730  -16.9020   19.7720 C   0  0  0  0  0  3  0  0  0  0  0  0
  -24.5720  -15.0100   20.8820 C   0  0  0  0  0  0  0  0  0  0  0  0
  -25.4490  -18.0990   19.4590 C   0  0  0  0  0  0  0  0  0  0  0  0
  -24.1930  -13.4960   21.4270 O   0  0  0  0  0  1  0  0  0  0  0  0
  -23.5710  -11.7890   21.0210 C   0  0  0  0  0 15  0  0  0  0  0  0
  -24.0520  -10.4760   19.5700 C   0  0  0  0  0  2  0  0  0  0  0  0
  -25.3250   -9.6040   19.3330 N   0  0  0  0  0  0  0  0  0  0  0  0
  -23.2160  -10.4020   18.6640 O   0  0  0  0  0  1  0  0  0  0  0  0
  -25.2590   -9.3140   18.3670 H   0  0  0  0  0  0  0  0  0  0  0  0
  -26.6200   -8.6380   20.0290 C   0  0  0  0  0  2  0  0  0  0  0  0
  -28.4030   -8.6090   20.6440 C   0  0  0  0  0  2  0  0  0  0  0  0
  -30.8150   -9.1750   22.9090 C   0  0  2  0  0  0  0  0  0  0  0  0
  -31.6550   -7.9480   22.4240 C   0  0  0  0  0  1  0  0  0  0  0  0
  -31.5370   -8.8090   20.7240 C   0  0  0  0  0  1  0  0  0  0  0  0
  -30.5050  -10.3180   20.6810 C   0  0  0  0  0  2  0  0  0  0  0  0
  -29.5560  -10.9420   22.1540 C   0  0  0  0  0  2  0  0  0  0  0  0
  -29.8090  -10.0380   23.7700 C   0  0  0  0  0  1  0  0  0  0  0  0
  -30.8080   -8.6440   23.7730 N   0  0  0  0  0  1  0  0  0  0  0  0
  -31.9060  -10.0980   22.9310 O   0  0  0  0  0  1  0  0  0  0  0  0
  -29.4180   -8.4950   22.0890 N   0  0  0  0  0  2  0  0  0  0  0  0
  -29.0270   -7.7990   22.7050 H   0  0  0  0  0  0  0  0  0  0  0  0
  -27.6960  -11.9850   21.2940 C   0  0  0  0  0  3  0  0  0  0  0  0
  -26.4350  -11.7530   21.1010 C   0  0  0  0  0  3  0  0  0  0  0  0
  -25.9480  -10.5740   22.0760 C   0  0  0  0  0  0  0  0  0  0  0  0
  -28.1220  -11.0040   22.0270 N   0  0  0  0  0  0  0  0  0  0  0  0
  -27.1210  -10.2200   22.6130 N   0  0  0  0  0  2  0  0  0  0  0  0
  -24.6940   -9.4300   22.3210 C   0  0  0  0  0  0  0  0  0  0  0  0
  -24.6500   -8.3210   23.2250 C   0  0  0  0  0  2  0  0  0  0  0  0
  -23.5740   -7.3350   23.2480 C   0  0  0  0  0  3  0  0  0  0  0  0
  -22.6250   -7.2520   22.1790 C   0  0  0  0  0  0  0  0  0  0  0  0
  -22.7560   -8.1550   21.1760 C   0  0  0  0  0  2  0  0  0  0  0  0
  -23.4000   -9.2750   21.6680 C   0  0  0  0  0  2  0  0  0  0  0  0
  -21.5300   -6.4430   22.0360 O   0  0  0  0  0  0  0  0  0  0  0  0
  -20.6920   -6.2290   23.0890 C   0  0  0  0  0  0  0  0  0  0  0  0
  -20.1310   -7.2620   23.8750 C   0  0  0  0  0  3  0  0  0  0  0  0
  -19.3100   -6.9280   24.9720 C   0  0  0  0  0  3  0  0  0  0  0  0
  -19.0510   -5.5750   25.2720 C   0  0  0  0  0  0  0  0  0  0  0  0
  -19.5780   -4.5570   24.4590 C   0  0  0  0  0  3  0  0  0  0  0  0
  -20.3860   -4.8890   23.3620 C   0  0  0  0  0  0  0  0  0  0  0  0
  -20.8900   -3.9190   22.5630 F   0  0  0  0  0  0  0  0  0  0  0  0
  -18.2940   -5.2460   26.3430 F   0  0  0  0  0  0  0  0  0  0  0  0
  -26.0440  -12.6460   19.7700 C   0  0  0  0  0  0  0  0  0  0  0  0
  -24.8780  -13.2130   19.3750 N   0  0  0  0  0  0  0  0  0  0  0  0
  -26.6990  -12.6990   18.8040 O   0  0  0  0  0  0  0  0  0  0  0  0
  -24.1760  -13.4050   20.0770 H   0  0  0  0  0  0  0  0  0  0  0  0
  -24.8140  -13.6220   18.4560 H   0  0  0  0  0  0  0  0  0  0  0  0
  -28.5510  -12.9490   20.7720 N   0  0  0  0  0  0  0  0  0  0  0  0
  -28.2470  -13.6760   20.1360 H   0  0  0  0  0  0  0  0  0  0  0  0
  -29.5500  -12.9610   20.9250 H   0  0  0  0  0  0  0  0  0  0  0  0
  -25.6330  -19.5470   18.7950 O   0  0  0  0  0  0  0  0  0  0  0  0
  -26.7360  -20.7010   18.1350 C   0  0  0  0  0  3  0  0  0  0  0  0
  -26.7950  -22.5970   17.8550 C   0  0  0  0  0  3  0  0  0  0  0  0
  -27.8270  -23.9540   17.4710 O   0  0  0  0  0  0  0  0  0  0  0  0
  -26.6560  -28.7450   22.9820 C   0  0  0  0  0  0  0  0  0  0  0  0
  -27.5670  -25.3770   17.8620 C   0  0  0  0  0  0  0  0  0  0  0  0
  -25.0820  -28.4620   21.1220 C   0  0  0  0  0  3  0  0  0  0  0  0
  -26.0370  -27.6230   18.8860 C   0  0  0  0  0  0  0  0  0  0  0  0
  -27.6120  -28.3340   20.6580 C   0  0  0  0  0  2  0  0  0  0  0  0
  -27.3000  -27.4030   19.4470 C   0  0  0  0  0  0  0  0  0  0  0  0
  -28.0930  -26.2870   18.9190 C   0  0  0  0  0  3  0  0  0  0  0  0
  -26.4660  -25.9100   17.1930 C   0  0  0  0  0  3  0  0  0  0  0  0
  -25.6780  -26.9430   17.7200 C   0  0  0  0  0  3  0  0  0  0  0  0
  -25.0590  -28.5620   19.5730 C   0  0  0  0  0  2  0  0  0  0  0  0
  -26.4850  -28.5190   21.6420 N   0  0  0  0  0  0  0  0  0  0  0  0
  -25.6890  -28.8770   23.7510 O   0  0  0  0  0  0  0  0  0  0  0  0
  -24.3230  -27.1930   21.5970 C   0  0  0  0  0  0  0  0  0  0  0  0
  -23.0060  -27.1190   21.3320 N   0  0  0  0  0  0  0  0  0  0  0  0
  -24.9250  -26.2930   22.1890 O   0  0  0  0  0  0  0  0  0  0  0  0
  -22.5740  -27.9000   20.8570 H   0  0  0  0  0  0  0  0  0  0  0  0
  -19.7280  -25.6850   20.7480 C   0  0  0  0  0  0  0  0  0  0  0  0
  -22.1270  -25.9940   21.6670 C   0  0  0  0  0  3  0  0  0  0  0  0
  -22.4910  -24.7380   20.8410 C   0  0  0  0  0  2  0  0  0  0  0  0
  -21.6800  -24.6110   19.5470 C   0  0  0  0  0  2  0  0  0  0  0  0
  -20.1810  -24.5410   19.8570 C   0  0  0  0  0  2  0  0  0  0  0  0
  -20.6430  -26.3770   21.5870 C   0  0  0  0  0  0  0  0  0  0  0  0
  -20.1730  -27.4500   22.3720 C   0  0  0  0  0  3  0  0  0  0  0  0
  -18.8200  -27.8360   22.3280 C   0  0  0  0  0  3  0  0  0  0  0  0
  -17.9160  -27.1410   21.5070 C   0  0  0  0  0  3  0  0  0  0  0  0
  -18.3690  -26.0650   20.7230 C   0  0  0  0  0  3  0  0  0  0  0  0
  -28.0750  -28.8670   23.6130 C   0  0  0  0  0  3  0  0  0  0  0  0
  -27.9860  -29.8210   24.7340 N   0  0  0  0  0  0  0  0  0  0  0  0
  -28.4660  -31.0710   24.7230 C   0  0  0  0  0  0  0  0  0  0  0  0
  -29.0950  -31.5330   23.7670 O   0  0  0  0  0  0  0  0  0  0  0  0
  -27.4340  -29.5300   25.5280 H   0  0  0  0  0  0  0  0  0  0  0  0
  -27.1140  -32.9820   25.6560 C   0  0  0  0  0  1  0  0  0  0  0  0
  -28.2100  -31.9490   25.9660 C   0  0  0  0  0  3  0  0  0  0  0  0
  -30.4090  -31.7460   27.0420 C   0  0  0  0  0  1  0  0  0  0  0  0
  -29.4210  -32.6460   26.4550 N   0  0  0  0  0  0  0  0  0  0  0  0
  -29.1770  -33.3460   27.1500 H   0  0  0  0  0  0  0  0  0  0  0  0
  -28.6450  -27.4860   24.1240 C   0  0  1  0  0  0  0  0  0  0  0  0
  -27.6710  -26.7080   25.0380 C   0  0  0  0  0  1  0  0  0  0  0  0
  -29.0100  -26.5590   22.9420 C   0  0  0  0  0  1  0  0  0  0  0  0
  -29.9550  -27.7220   24.9120 C   0  0  0  0  0  1  0  0  0  0  0  0
  1  5  1  0
  2  5  2  0
  3  1  2  0
  4  2  1  0
  5  7  1  0
  6  4  2  0
  6  3  1  0
 10  9  1  0
 10 13  1  0
 11  9  1  0
 12 10  1  0
 13 14  1  0
 14 23  1  0
 15 22  1  0
 15 20  1  6
 15 21  1  0
 16 15  1  0
 18 17  1  0
 18 19  1  0
 23 24  1  0
 25 50  1  0
 25 28  1  0
 26 45  1  0
 26 25  1  0
 26 27  1  0
 27 30  2  0
 27 29  1  0
 28 19  1  0
 28 29  1  0
 30 31  1  0
 31 32  1  0
 33 32  2  0
 34 35  1  0
 34 33  1  0
 35 30  1  0
 36 33  1  0
 36 37  1  0
 37 42  2  0
 37 38  1  0
 38 39  2  0
 39 40  1  0
 40 44  1  0
 41 40  2  0
 42 41  1  0
 43 42  1  0
 46 45  1  0
 46 48  1  0
 47 45  2  0
 49 46  1  0
 50 52  1  0
 51 50  1  0
 53  6  1  0
 54 53  1  0
 55 54  2  0
 56 55  1  0
 56 58  1  0
 57 68  2  0
 58 63  1  0
 59 69  1  0
 59 67  1  0
 60 62  1  0
 60 66  1  0
 61 67  1  0
 62 61  1  0
 63 62  2  0
 64 65  1  0
 64 58  2  0
 65 60  2  0
 66 59  1  0
 67 57  1  0
 69 71  2  0
 70 69  1  0
 72 70  1  0
 73 78  1  0
 74 70  1  0
 75 74  1  0
 76 77  1  0
 76 75  1  0
 77 73  1  0
 78 74  1  0
 78 79  2  0
 80 79  1  0
 81 80  2  0
 82 73  2  0
 82 81  1  0
 83 57  1  0
 83 93  1  0
 83 84  1  0
 84 87  1  0
 85 84  1  0
 85 89  1  0
 86 85  2  0
 89 88  1  0
 89 91  1  0
 91 90  1  0
 91 92  1  0
 93 96  1  1
 93 94  1  0
 95 93  1  0
M  ISO  4  15 100  23 100  55 101  56 101
M  END
>  <TORSDO>  (29) 
F 24

>  <SCORE>  (29) 
-0.955

>  <name>  (29) 
28

>  <ligand_id>  (29) 
28

>  <original_smiles>  (29) 
[H]c1c([H])c([H])c2c(c1[H])C([H])([H])C([H])([H])C([H])([H])C2([H])N([H])C(=O)C1([H])N(C(=O)C([H])(N([H])C(=O)C([H])(N([H])C([H])([H])[H])C([H])([H])[H])C(C([H])([H])[H])(C([H])([H])[H])C([H])([H])[H])C([H])([H])c2c([H])c(OC([H])([H])C([H])([H])Oc3c([H])c([H])c(OC([H])([H])C(=O)N([H])C([H])([H])C([H])([H])N([H])C(=O)N4C([H])([H])C([H])([H])C([H])([H])C([H])(n5nc(-c6c([H])c([H])c(Oc7c([H])c([H])c(F)c([H])c7F)c([H])c6[H])c(C(=O)N([H])[H])c5N([H])[H])C4([H])[H])c([H])c3[H])c([H])c([H])c2C1([H])[H]

>  <smiles>  (29) 
[H]c1c([H])c([H])c2c(c1[H])C([H])([H])C([H])([H])C([H])([H])C2([H])N([H])C(=O)C1([H])N(C(=O)C([H])(N([H])C(=O)C([H])(N([H])C([H])([H])[H])C([H])([H])[H])C(C([H])([H])[H])(C([H])([H])[H])C([H])([H])[H])C([H])([H])c2c([H])c(OC([H])([H])C([H])([H])Oc3c([H])c([H])c(OC([H])([H])C(=O)N([H])C([H])([H])C([H])([H])N([H])C(=O)N4C([H])([H])C([H])([H])C([H])([H])C([H])(n5nc(-c6c([H])c([H])c(Oc7c([H])c([H])c(F)c([H])c7F)c([H])c6[H])c(C(=O)N([H])[H])c5N([H])[H])C4([H])[H])c([H])c3[H])c([H])c([H])c2C1([H])[H]

$$$$
29:0:0
     RDKit          3D

 85 92  0  0  1  0  0  0  0  0999 V2000
  -28.0660  -24.1790   19.9010 C   0  0  0  0  0  0  0  0  0  0  0  0
  -27.2950  -23.8730   18.9890 O   0  0  0  0  0  0  0  0  0  0  0  0
  -28.1750  -25.8240   20.3180 O   0  0  0  0  0  0  0  0  0  0  0  0
  -24.6240  -31.8440   23.1780 C   0  0  0  0  0  0  0  0  0  0  0  0
  -27.1940  -26.9490   20.1740 C   0  0  0  0  0  0  0  0  0  0  0  0
  -23.4370  -30.4420   21.5410 C   0  0  0  0  0  3  0  0  0  0  0  0
  -24.8920  -28.8390   20.1220 C   0  0  0  0  0  0  0  0  0  0  0  0
  -26.0040  -30.6490   21.4060 C   0  0  0  0  0  2  0  0  0  0  0  0
  -26.0770  -29.2380   20.7520 C   0  0  0  0  0  0  0  0  0  0  0  0
  -27.2160  -28.3120   20.7630 C   0  0  0  0  0  3  0  0  0  0  0  0
  -25.9790  -26.7170   19.4850 C   0  0  0  0  0  3  0  0  0  0  0  0
  -24.8690  -27.5980   19.4700 C   0  0  0  0  0  3  0  0  0  0  0  0
  -23.6710  -29.7570   20.1670 C   0  0  0  0  0  2  0  0  0  0  0  0
  -24.7100  -31.0050   22.0950 N   0  0  0  0  0  0  0  0  0  0  0  0
  -23.5330  -32.1360   23.6940 O   0  0  0  0  0  0  0  0  0  0  0  0
  -22.7400  -29.4490   22.5080 C   0  0  0  0  0  0  0  0  0  0  0  0
  -21.4080  -29.2890   22.3870 N   0  0  0  0  0  0  0  0  0  0  0  0
  -23.4040  -28.8230   23.3370 O   0  0  0  0  0  0  0  0  0  0  0  0
  -20.9240  -29.8440   21.6950 H   0  0  0  0  0  0  0  0  0  0  0  0
  -18.0250  -28.0820   22.8970 C   0  0  0  0  0  0  0  0  0  0  0  0
  -20.5850  -28.3550   23.1620 C   0  0  0  0  0  3  0  0  0  0  0  0
  -20.6900  -26.9200   22.5950 C   0  0  0  0  0  2  0  0  0  0  0  0
  -19.5880  -26.5890   21.5810 C   0  0  0  0  0  2  0  0  0  0  0  0
  -18.2060  -26.7310   22.2240 C   0  0  0  0  0  2  0  0  0  0  0  0
  -19.1420  -28.8510   23.3220 C   0  0  0  0  0  0  0  0  0  0  0  0
  -18.9150  -30.1120   23.9160 C   0  0  0  0  0  3  0  0  0  0  0  0
  -17.6090  -30.6060   24.0850 C   0  0  0  0  0  3  0  0  0  0  0  0
  -16.5080  -29.8350   23.6730 C   0  0  0  0  0  3  0  0  0  0  0  0
  -16.7170  -28.5760   23.0840 C   0  0  0  0  0  3  0  0  0  0  0  0
  -25.8930  -32.4920   23.8110 C   0  0  0  0  0  3  0  0  0  0  0  0
  -26.4020  -31.7260   25.0960 C   0  0  1  0  0  0  0  0  0  0  0  0
  -25.3040  -31.4940   26.1600 C   0  0  0  0  0  1  0  0  0  0  0  0
  -26.9890  -30.3460   24.7220 C   0  0  0  0  0  1  0  0  0  0  0  0
  -27.5490  -32.5250   25.7600 C   0  0  0  0  0  1  0  0  0  0  0  0
  -25.5690  -33.8880   24.1500 N   0  0  0  0  0  0  0  0  0  0  0  0
  -25.8950  -34.9550   23.4090 C   0  0  0  0  0  0  0  0  0  0  0  0
  -26.5640  -34.8670   22.3750 O   0  0  0  0  0  0  0  0  0  0  0  0
  -24.9730  -34.0290   24.9530 H   0  0  0  0  0  0  0  0  0  0  0  0
  -24.1560  -36.7500   23.0910 C   0  0  0  0  0  1  0  0  0  0  0  0
  -25.4060  -36.3390   23.8860 C   0  0  0  0  0  3  0  0  0  0  0  0
  -27.5440  -37.2270   24.7070 C   0  0  0  0  0  1  0  0  0  0  0  0
  -26.4330  -37.3980   23.7750 N   0  0  0  0  0  0  0  0  0  0  0  0
  -26.0230  -38.3150   23.9360 H   0  0  0  0  0  0  0  0  0  0  0  0
  -28.8560  -22.7790   20.6040 C   0  0  0  0  0  2  0  0  0  0  0  0
  -28.9700  -21.2570   19.9730 O   0  0  0  0  0  0  0  0  0  0  0  0
  -29.2310  -19.7590   20.6170 C   0  0  0  0  0  2  0  0  0  0  0  0
  -29.8650  -18.1870   19.9780 C   0  0  0  0  0  2  0  0  0  0  0  0
  -30.4380  -15.2960   20.2430 C   0  0  0  0  0  0  0  0  0  0  0  0
  -30.3910  -12.8510   19.3750 C   0  0  0  0  0  2  0  0  0  0  0  0
  -29.4740  -12.6620   18.1400 C   0  0  0  0  0  2  0  0  0  0  0  0
  -28.0220  -12.4000   18.5760 C   0  0  0  0  0  2  0  0  0  0  0  0
  -27.5780  -13.3580   19.7090 C   0  0  0  0  0  3  0  0  0  0  0  0
  -28.6250  -13.4980   20.8360 C   0  0  0  0  0  2  0  0  0  0  0  0
  -29.8630  -13.9930   20.2130 N   0  0  0  0  0  0  0  0  0  0  0  0
  -31.6420  -15.2960   19.9520 O   0  0  0  0  0  0  0  0  0  0  0  0
  -29.6940  -16.5720   20.3960 N   0  0  0  0  0  0  0  0  0  0  0  0
  -28.7480  -16.3770   20.6900 H   0  0  0  0  0  0  0  0  0  0  0  0
  -25.2050  -13.9200   20.4470 C   0  0  0  0  0  0  0  0  0  0  0  0
  -24.1430  -13.1460   20.8200 C   0  0  0  0  0  0  0  0  0  0  0  0
  -24.6110  -11.7960   20.8040 C   0  0  0  0  0  0  0  0  0  0  0  0
  -26.2490  -13.0440   20.2150 N   0  0  0  0  0  0  0  0  0  0  0  0
  -25.9050  -11.7600   20.4990 N   0  0  0  0  0  0  0  0  0  0  0  0
  -23.8840  -10.5350   21.0040 C   0  0  0  0  0  0  0  0  0  0  0  0
  -24.3180   -9.5700   21.9400 C   0  0  0  0  0  3  0  0  0  0  0  0
  -23.5880   -8.3770   22.1280 C   0  0  0  0  0  3  0  0  0  0  0  0
  -22.4110   -8.1390   21.3820 C   0  0  0  0  0  0  0  0  0  0  0  0
  -21.9960   -9.0910   20.4340 C   0  0  0  0  0  3  0  0  0  0  0  0
  -22.7260  -10.2770   20.2430 C   0  0  0  0  0  3  0  0  0  0  0  0
  -21.6520   -6.9960   21.4790 O   0  0  0  0  0  0  0  0  0  0  0  0
  -21.6160   -6.2530   22.6310 C   0  0  0  0  0  0  0  0  0  0  0  0
  -21.2240   -6.8110   23.8660 C   0  0  0  0  0  3  0  0  0  0  0  0
  -21.1340   -5.9940   25.0110 C   0  0  0  0  0  3  0  0  0  0  0  0
  -21.4260   -4.6210   24.9210 C   0  0  0  0  0  0  0  0  0  0  0  0
  -21.8120   -4.0610   23.6900 C   0  0  0  0  0  3  0  0  0  0  0  0
  -21.9030   -4.8750   22.5480 C   0  0  0  0  0  0  0  0  0  0  0  0
  -22.2550   -4.3270   21.3600 F   0  0  0  0  0  0  0  0  0  0  0  0
  -21.3320   -3.8340   26.0200 F   0  0  0  0  0  0  0  0  0  0  0  0
  -22.7430  -13.6240   21.0760 C   0  0  0  0  0  0  0  0  0  0  0  0
  -22.0130  -12.9410   21.9480 N   0  0  0  0  0  0  0  0  0  0  0  0
  -22.3100  -14.6420   20.5360 O   0  0  0  0  0  0  0  0  0  0  0  0
  -22.3780  -12.1190   22.4050 H   0  0  0  0  0  0  0  0  0  0  0  0
  -21.0740  -13.2450   22.1630 H   0  0  0  0  0  0  0  0  0  0  0  0
  -25.3660  -15.2900   20.2550 N   0  0  0  0  0  0  0  0  0  0  0  0
  -24.5950  -15.9420   20.3550 H   0  0  0  0  0  0  0  0  0  0  0  0
  -26.2050  -15.7230   19.8920 H   0  0  0  0  0  0  0  0  0  0  0  0
  1  3  1  0
  1 44  1  0
  2  1  2  0
  4 15  2  0
  5  3  1  0
  5 10  1  0
  6 14  1  0
  6 16  1  0
  7 13  1  0
  7  9  1  0
  8 14  1  0
  9 10  2  0
  9  8  1  0
 11  5  2  0
 12 11  1  0
 12  7  2  0
 13  6  1  0
 14  4  1  0
 16 18  2  0
 17 16  1  0
 19 17  1  0
 20 29  2  0
 20 25  1  0
 21 17  1  0
 21 25  1  0
 22 21  1  0
 23 24  1  0
 23 22  1  0
 24 20  1  0
 25 26  2  0
 26 27  1  0
 28 27  2  0
 29 28  1  0
 30  4  1  0
 30 35  1  0
 30 31  1  0
 31 34  1  1
 31 32  1  0
 33 31  1  0
 35 38  1  0
 36 40  1  0
 36 35  1  0
 37 36  2  0
 40 39  1  0
 42 40  1  0
 42 43  1  0
 42 41  1  0
 45 44  1  0
 45 46  1  0
 47 56  1  0
 47 46  1  0
 48 56  1  0
 49 54  1  0
 50 51  1  0
 50 49  1  0
 52 51  1  0
 52 61  1  0
 52 53  1  0
 54 48  1  0
 54 53  1  0
 55 48  2  0
 56 57  1  0
 58 59  2  0
 59 78  1  0
 60 59  1  0
 60 63  1  0
 61 58  1  0
 61 62  1  0
 62 60  2  0
 63 64  1  0
 64 65  2  0
 66 69  1  0
 66 65  1  0
 67 66  2  0
 68 67  1  0
 68 63  2  0
 69 70  1  0
 70 71  1  0
 71 72  2  0
 73 72  1  0
 73 77  1  0
 74 73  2  0
 75 70  2  0
 75 74  1  0
 76 75  1  0
 78 79  1  0
 79 82  1  0
 79 81  1  0
 80 78  2  0
 83 84  1  0
 83 58  1  0
 85 83  1  0
M  ISO  4   1 101   3 101  48 100  56 100
M  END
>  <TORSDO>  (30) 
F 20

>  <SCORE>  (30) 
-16.362

>  <name>  (30) 
29

>  <ligand_id>  (30) 
29

>  <original_smiles>  (30) 
[H]c1c([H])c([H])c2c(c1[H])C([H])([H])C([H])([H])C([H])([H])C2([H])N([H])C(=O)C1([H])N(C(=O)C([H])(N([H])C(=O)C([H])(N([H])C([H])([H])[H])C([H])([H])[H])C(C([H])([H])[H])(C([H])([H])[H])C([H])([H])[H])C([H])([H])c2c([H])c(OC(=O)C([H])([H])OC([H])([H])C([H])([H])N([H])C(=O)N3C([H])([H])C([H])([H])C([H])([H])C([H])(n4nc(-c5c([H])c([H])c(Oc6c([H])c([H])c(F)c([H])c6F)c([H])c5[H])c(C(=O)N([H])[H])c4N([H])[H])C3([H])[H])c([H])c([H])c2C1([H])[H]

>  <smiles>  (30) 
[H]c1c([H])c([H])c2c(c1[H])C([H])([H])C([H])([H])C([H])([H])C2([H])N([H])C(=O)C1([H])N(C(=O)C([H])(N([H])C(=O)C([H])(N([H])C([H])([H])[H])C([H])([H])[H])C(C([H])([H])[H])(C([H])([H])[H])C([H])([H])[H])C([H])([H])c2c([H])c(OC(=O)C([H])([H])OC([H])([H])C([H])([H])N([H])C(=O)N3C([H])([H])C([H])([H])C([H])([H])C([H])(n4nc(-c5c([H])c([H])c(Oc6c([H])c([H])c(F)c([H])c6F)c([H])c5[H])c(C(=O)N([H])[H])c4N([H])[H])C3([H])[H])c([H])c([H])c2C1([H])[H]

$$$$
30:0:0
     RDKit          3D

 97105  0  0  1  0  0  0  0  0999 V2000
  -27.4110  -19.0650   20.2740 C   0  0  0  0  0  0  0  0  0  0  0  0
  -27.8520  -20.2080   19.7560 N   0  0  0  0  0  0  0  0  0  0  0  0
  -26.2470  -18.8920   20.6480 O   0  0  0  0  0  0  0  0  0  0  0  0
  -28.8290  -20.2150   19.4920 H   0  0  0  0  0  0  0  0  0  0  0  0
  -28.0960  -16.7260   20.9020 C   0  0  0  0  0  3  0  0  0  0  0  0
  -29.0590  -15.7140   21.0270 C   0  0  0  0  0  3  0  0  0  0  0  0
  -29.7860  -18.1960   19.9610 C   0  0  0  0  0  3  0  0  0  0  0  0
  -28.4430  -17.9780   20.3600 C   0  0  0  0  0  0  0  0  0  0  0  0
  -30.7650  -17.2000   20.1170 C   0  0  0  0  0  0  0  0  0  0  0  0
  -30.3910  -15.9190   20.6020 C   0  0  0  0  0  0  0  0  0  0  0  0
  -32.2130  -17.5740   19.8430 C   0  0  0  0  0  1  0  0  0  0  0  0
  -31.6330  -13.9400   19.8980 C   0  0  0  0  0  0  0  0  0  0  0  0
  -31.1510  -11.6770   19.0300 C   0  0  0  0  0  2  0  0  0  0  0  0
  -30.1780  -11.7060   17.8380 C   0  0  0  0  0  2  0  0  0  0  0  0
  -28.7180  -11.7060   18.3330 C   0  0  0  0  0  2  0  0  0  0  0  0
  -28.4570  -12.7620   19.4440 C   0  0  0  0  0  3  0  0  0  0  0  0
  -29.5420  -12.6540   20.5390 C   0  0  0  0  0  2  0  0  0  0  0  0
  -30.8540  -12.8270   19.8970 N   0  0  0  0  0  0  0  0  0  0  0  0
  -32.6410  -14.0460   19.1980 O   0  0  0  0  0  0  0  0  0  0  0  0
  -31.3540  -14.8980   20.8050 N   0  0  0  0  0  0  0  0  0  0  0  0
  -32.2220  -15.3040   21.1250 H   0  0  0  0  0  0  0  0  0  0  0  0
  -26.1550  -13.6020   20.2410 C   0  0  0  0  0  0  0  0  0  0  0  0
  -25.0460  -12.9460   20.6890 C   0  0  0  0  0  0  0  0  0  0  0  0
  -25.3800  -11.5570   20.6780 C   0  0  0  0  0  0  0  0  0  0  0  0
  -27.1100  -12.6280   19.9950 N   0  0  0  0  0  0  0  0  0  0  0  0
  -26.6430  -11.3920   20.3080 N   0  0  0  0  0  0  0  0  0  0  0  0
  -24.5520  -10.3760   20.9430 C   0  0  0  0  0  0  0  0  0  0  0  0
  -24.8920   -9.4490   21.9540 C   0  0  0  0  0  3  0  0  0  0  0  0
  -24.0740   -8.3250   22.2020 C   0  0  0  0  0  3  0  0  0  0  0  0
  -22.8980   -8.1200   21.4420 C   0  0  0  0  0  0  0  0  0  0  0  0
  -22.5760   -9.0330   20.4220 C   0  0  0  0  0  3  0  0  0  0  0  0
  -23.3920  -10.1490   20.1740 C   0  0  0  0  0  3  0  0  0  0  0  0
  -22.0590   -7.0430   21.5940 O   0  0  0  0  0  0  0  0  0  0  0  0
  -21.8880   -6.4320   22.8100 C   0  0  0  0  0  0  0  0  0  0  0  0
  -21.4230   -7.1370   23.9420 C   0  0  0  0  0  3  0  0  0  0  0  0
  -21.1970   -6.4550   25.1530 C   0  0  0  0  0  3  0  0  0  0  0  0
  -21.4260   -5.0680   25.2340 C   0  0  0  0  0  0  0  0  0  0  0  0
  -21.8820   -4.3620   24.1070 C   0  0  0  0  0  3  0  0  0  0  0  0
  -22.1110   -5.0430   22.8980 C   0  0  0  0  0  0  0  0  0  0  0  0
  -22.5320   -4.3550   21.8080 F   0  0  0  0  0  0  0  0  0  0  0  0
  -21.2010   -4.4080   26.3950 F   0  0  0  0  0  0  0  0  0  0  0  0
  -23.7140  -13.5550   21.0220 C   0  0  0  0  0  0  0  0  0  0  0  0
  -22.9910  -12.9710   21.9680 N   0  0  0  0  0  0  0  0  0  0  0  0
  -23.3340  -14.5970   20.4830 O   0  0  0  0  0  0  0  0  0  0  0  0
  -23.3150  -12.1360   22.4350 H   0  0  0  0  0  0  0  0  0  0  0  0
  -22.1030  -13.3680   22.2380 H   0  0  0  0  0  0  0  0  0  0  0  0
  -26.4330  -14.9440   20.0030 N   0  0  0  0  0  0  0  0  0  0  0  0
  -25.7530  -15.6750   20.1800 H   0  0  0  0  0  0  0  0  0  0  0  0
  -27.3460  -15.2950   19.7430 H   0  0  0  0  0  0  0  0  0  0  0  0
  -27.0720  -21.4000   19.4630 C   0  0  0  0  0  2  0  0  0  0  0  0
  -26.8010  -21.5090   17.9540 C   0  0  0  0  0  2  0  0  0  0  0  0
  -28.0790  -21.4830   17.0950 C   0  0  0  0  0  2  0  0  0  0  0  0
  -28.8860  -22.5900   17.4980 O   0  0  0  0  0  0  0  0  0  0  0  0
  -30.2720  -22.4750   17.2040 C   0  0  0  0  0  2  0  0  0  0  0  0
  -31.0190  -23.6890   17.8040 C   0  0  0  0  0  2  0  0  0  0  0  0
  -30.7590  -23.9200   19.3040 C   0  0  0  0  0  2  0  0  0  0  0  0
  -30.7440  -25.3150   19.6030 O   0  0  0  0  0  0  0  0  0  0  0  0
  -26.5150  -29.3120   23.6550 C   0  0  0  0  0  0  0  0  0  0  0  0
  -29.5250  -25.9590   19.6740 C   0  0  0  0  0  0  0  0  0  0  0  0
  -25.4790  -28.4020   21.5920 C   0  0  0  0  0  3  0  0  0  0  0  0
  -27.0800  -27.3620   19.9130 C   0  0  0  0  0  0  0  0  0  0  0  0
  -27.9950  -28.8360   21.7170 C   0  0  0  0  0  2  0  0  0  0  0  0
  -28.1680  -27.7090   20.7210 C   0  0  0  0  0  0  0  0  0  0  0  0
  -29.3890  -27.0140   20.6000 C   0  0  0  0  0  3  0  0  0  0  0  0
  -28.4150  -25.6210   18.8630 C   0  0  0  0  0  3  0  0  0  0  0  0
  -27.1980  -26.3220   18.9770 C   0  0  0  0  0  3  0  0  0  0  0  0
  -25.8100  -28.1600   20.0960 C   0  0  0  0  0  2  0  0  0  0  0  0
  -26.6730  -28.8550   22.3800 N   0  0  0  0  0  0  0  0  0  0  0  0
  -25.3880  -29.4130   24.1630 O   0  0  0  0  0  0  0  0  0  0  0  0
  -24.8090  -27.1400   22.1840 C   0  0  0  0  0  0  0  0  0  0  0  0
  -23.5710  -26.8550   21.7420 N   0  0  0  0  0  0  0  0  0  0  0  0
  -25.3940  -26.4370   23.0080 O   0  0  0  0  0  0  0  0  0  0  0  0
  -23.1710  -27.4710   21.0530 H   0  0  0  0  0  0  0  0  0  0  0  0
  -20.4250  -25.2200   21.1150 C   0  0  0  0  0  0  0  0  0  0  0  0
  -22.7330  -25.7280   22.1530 C   0  0  0  0  0  3  0  0  0  0  0  0
  -23.1770  -24.4290   21.4530 C   0  0  0  0  0  2  0  0  0  0  0  0
  -22.4990  -24.2740   20.0930 C   0  0  0  0  0  2  0  0  0  0  0  0
  -21.0040  -24.0600   20.3250 C   0  0  0  0  0  2  0  0  0  0  0  0
  -21.2440  -26.0280   21.9520 C   0  0  0  0  0  0  0  0  0  0  0  0
  -20.6690  -27.1350   22.6110 C   0  0  0  0  0  3  0  0  0  0  0  0
  -19.3050  -27.4330   22.4530 C   0  0  0  0  0  3  0  0  0  0  0  0
  -18.4940  -26.6150   21.6490 C   0  0  0  0  0  3  0  0  0  0  0  0
  -19.0540  -25.5090   20.9850 C   0  0  0  0  0  3  0  0  0  0  0  0
  -27.7370  -29.7600   24.5200 C   0  0  0  0  0  3  0  0  0  0  0  0
  -27.4350  -31.0970   25.0440 N   0  0  0  0  0  0  0  0  0  0  0  0
  -27.8940  -32.2430   24.5210 C   0  0  0  0  0  0  0  0  0  0  0  0
  -28.6930  -32.2780   23.5800 O   0  0  0  0  0  0  0  0  0  0  0  0
  -26.7450  -31.1450   25.7820 H   0  0  0  0  0  0  0  0  0  0  0  0
  -26.2850  -34.1570   24.2790 C   0  0  0  0  0  1  0  0  0  0  0  0
  -27.4000  -33.5590   25.1510 C   0  0  0  0  0  3  0  0  0  0  0  0
  -29.4400  -34.1770   26.3720 C   0  0  0  0  0  1  0  0  0  0  0  0
  -28.4730  -34.5610   25.3450 N   0  0  0  0  0  0  0  0  0  0  0  0
  -28.0800  -35.4630   25.6010 H   0  0  0  0  0  0  0  0  0  0  0  0
  -28.0660  -28.7610   25.6940 C   0  0  1  0  0  0  0  0  0  0  0  0
  -26.8350  -28.3880   26.5540 C   0  0  0  0  0  1  0  0  0  0  0  0
  -28.6700  -27.4480   25.1480 C   0  0  0  0  0  1  0  0  0  0  0  0
  -29.1370  -29.3800   26.6210 C   0  0  0  0  0  1  0  0  0  0  0  0
  1  8  1  0
  1  3  2  0
  2  1  1  0
  4  2  1  0
  5  6  1  0
  7  9  2  0
  7  8  1  0
  8  5  2  0
  9 10  1  0
 10 20  1  0
 10  6  2  0
 11  9  1  0
 12 20  1  0
 13 18  1  0
 14 15  1  0
 14 13  1  0
 16 15  1  0
 16 25  1  0
 16 17  1  0
 18 12  1  0
 18 17  1  0
 19 12  2  0
 20 21  1  0
 22 23  2  0
 23 42  1  0
 24 23  1  0
 24 27  1  0
 25 22  1  0
 25 26  1  0
 26 24  2  0
 27 28  1  0
 28 29  2  0
 30 33  1  0
 30 29  1  0
 31 30  2  0
 32 31  1  0
 32 27  2  0
 33 34  1  0
 34 39  2  0
 34 35  1  0
 35 36  2  0
 36 37  1  0
 37 41  1  0
 38 37  2  0
 39 38  1  0
 40 39  1  0
 42 43  1  0
 43 46  1  0
 43 45  1  0
 44 42  2  0
 47 48  1  0
 47 22  1  0
 49 47  1  0
 50  2  1  0
 51 50  1  0
 52 53  1  0
 52 51  1  0
 54 53  1  0
 54 55  1  0
 55 56  1  0
 56 57  1  0
 57 59  1  0
 58 69  2  0
 59 64  1  0
 60 70  1  0
 60 68  1  0
 61 67  1  0
 61 63  1  0
 62 68  1  0
 63 62  1  0
 64 63  2  0
 65 66  1  0
 65 59  2  0
 66 61  2  0
 67 60  1  0
 68 58  1  0
 70 72  2  0
 71 70  1  0
 73 71  1  0
 74 79  1  0
 75 71  1  0
 76 75  1  0
 77 78  1  0
 77 76  1  0
 78 74  1  0
 79 75  1  0
 79 80  2  0
 81 80  1  0
 82 81  2  0
 83 74  2  0
 83 82  1  0
 84 58  1  0
 84 85  1  0
 84 94  1  0
 85 88  1  0
 86 85  1  0
 86 90  1  0
 87 86  2  0
 90 89  1  0
 90 92  1  0
 92 93  1  0
 92 91  1  0
 94 95  1  1
 94 97  1  0
 96 94  1  0
M  ISO  4  12 100  20 100  56 101  57 101
M  END
>  <TORSDO>  (31) 
F 24

>  <SCORE>  (31) 
-7.662

>  <name>  (31) 
30

>  <ligand_id>  (31) 
30

>  <original_smiles>  (31) 
[H]c1c([H])c([H])c2c(c1[H])C([H])([H])C([H])([H])C([H])([H])C2([H])N([H])C(=O)C1([H])N(C(=O)C([H])(N([H])C(=O)C([H])(N([H])C([H])([H])[H])C([H])([H])[H])C(C([H])([H])[H])(C([H])([H])[H])C([H])([H])[H])C([H])([H])c2c([H])c(OC([H])([H])C([H])([H])C([H])([H])OC([H])([H])C([H])([H])C([H])([H])N([H])C(=O)c3c([H])c([H])c(N([H])C(=O)N4C([H])([H])C([H])([H])C([H])([H])C([H])(n5nc(-c6c([H])c([H])c(Oc7c([H])c([H])c(F)c([H])c7F)c([H])c6[H])c(C(=O)N([H])[H])c5N([H])[H])C4([H])[H])c(C([H])([H])[H])c3[H])c([H])c([H])c2C1([H])[H]

>  <smiles>  (31) 
[H]c1c([H])c([H])c2c(c1[H])C([H])([H])C([H])([H])C([H])([H])C2([H])N([H])C(=O)C1([H])N(C(=O)C([H])(N([H])C(=O)C([H])(N([H])C([H])([H])[H])C([H])([H])[H])C(C([H])([H])[H])(C([H])([H])[H])C([H])([H])[H])C([H])([H])c2c([H])c(OC([H])([H])C([H])([H])C([H])([H])OC([H])([H])C([H])([H])C([H])([H])N([H])C(=O)c3c([H])c([H])c(N([H])C(=O)N4C([H])([H])C([H])([H])C([H])([H])C([H])(n5nc(-c6c([H])c([H])c(Oc7c([H])c([H])c(F)c([H])c7F)c([H])c6[H])c(C(=O)N([H])[H])c5N([H])[H])C4([H])[H])c(C([H])([H])[H])c3[H])c([H])c([H])c2C1([H])[H]

$$$$
31:0:0
     RDKit          3D

 96101  0  0  1  0  0  0  0  0999 V2000
  -26.0630  -23.4420   20.1490 C   0  0  0  0  0  3  0  0  0  0  0  0
  -26.5560  -24.7080   20.5080 C   0  0  0  0  0  3  0  0  0  0  0  0
  -26.7040  -22.6490   19.1800 C   0  0  0  0  0  3  0  0  0  0  0  0
  -28.3590  -24.4110   18.9050 C   0  0  0  0  0  3  0  0  0  0  0  0
  -27.7170  -25.2540   19.9150 C   0  0  0  0  0  0  0  0  0  0  0  0
  -27.8800  -23.0810   18.5200 C   0  0  0  0  0  0  0  0  0  0  0  0
  -27.3430  -27.5020   21.1910 C   0  0  0  0  0  0  0  0  0  0  0  0
  -28.1050  -26.6340   20.3340 N   0  0  0  0  0  0  0  0  0  0  0  0
  -26.5170  -27.0540   21.9900 O   0  0  0  0  0  0  0  0  0  0  0  0
  -28.8860  -27.0730   19.8640 H   0  0  0  0  0  0  0  0  0  0  0  0
  -27.5380  -28.9580   21.0540 O   0  0  0  0  0  0  0  0  0  0  0  0
  -27.2600  -31.4060   27.8070 C   0  0  0  0  0  0  0  0  0  0  0  0
  -26.8470  -29.7350   22.0010 C   0  0  0  0  0  0  0  0  0  0  0  0
  -25.1220  -30.9170   26.6770 C   0  0  0  0  0  3  0  0  0  0  0  0
  -25.2200  -30.7220   24.1260 C   0  0  0  0  0  0  0  0  0  0  0  0
  -27.1390  -31.7570   25.3290 C   0  0  0  0  0  2  0  0  0  0  0  0
  -26.5970  -30.9930   24.1270 C   0  0  0  0  0  0  0  0  0  0  0  0
  -27.4200  -30.5150   23.0580 C   0  0  0  0  0  3  0  0  0  0  0  0
  -25.4440  -29.5970   21.9840 C   0  0  0  0  0  3  0  0  0  0  0  0
  -24.6390  -30.0490   23.0410 C   0  0  0  0  0  3  0  0  0  0  0  0
  -24.4040  -31.1670   25.3230 C   0  0  0  0  0  2  0  0  0  0  0  0
  -26.5560  -31.3480   26.6390 N   0  0  0  0  0  0  0  0  0  0  0  0
  -26.7280  -31.1350   28.8940 O   0  0  0  0  0  0  0  0  0  0  0  0
  -24.9390  -29.4350   27.0880 C   0  0  0  0  0  0  0  0  0  0  0  0
  -24.6210  -29.1970   28.3720 N   0  0  0  0  0  0  0  0  0  0  0  0
  -25.0650  -28.5330   26.2570 O   0  0  0  0  0  0  0  0  0  0  0  0
  -24.5450  -29.9880   28.9960 H   0  0  0  0  0  0  0  0  0  0  0  0
  -25.1690  -27.1680   31.3190 C   0  0  0  0  0  0  0  0  0  0  0  0
  -24.3680  -27.8810   28.9650 C   0  0  0  0  0  3  0  0  0  0  0  0
  -22.9350  -27.7960   29.5410 C   0  0  0  0  0  2  0  0  0  0  0  0
  -22.8580  -28.1600   31.0260 C   0  0  0  0  0  2  0  0  0  0  0  0
  -23.7480  -27.2270   31.8540 C   0  0  0  0  0  2  0  0  0  0  0  0
  -25.4610  -27.4890   29.9660 C   0  0  0  0  0  0  0  0  0  0  0  0
  -26.8030  -27.4500   29.5290 C   0  0  0  0  0  3  0  0  0  0  0  0
  -27.8390  -27.0960   30.4140 C   0  0  0  0  0  3  0  0  0  0  0  0
  -27.5420  -26.7650   31.7470 C   0  0  0  0  0  3  0  0  0  0  0  0
  -26.2090  -26.7970   32.1960 C   0  0  0  0  0  3  0  0  0  0  0  0
  -28.7580  -31.8360   27.8340 C   0  0  0  0  0  3  0  0  0  0  0  0
  -28.9450  -32.7170   28.9970 N   0  0  0  0  0  0  0  0  0  0  0  0
  -28.9080  -34.0550   28.9520 C   0  0  0  0  0  0  0  0  0  0  0  0
  -28.7780  -34.6860   27.9010 O   0  0  0  0  0  0  0  0  0  0  0  0
  -28.9980  -32.2680   29.9000 H   0  0  0  0  0  0  0  0  0  0  0  0
  -27.6670  -35.3910   30.6860 C   0  0  0  0  0  1  0  0  0  0  0  0
  -29.0350  -34.8160   30.2870 C   0  0  0  0  0  3  0  0  0  0  0  0
  -31.4160  -35.4130   30.2270 C   0  0  0  0  0  1  0  0  0  0  0  0
  -30.0400  -35.9010   30.2530 N   0  0  0  0  0  0  0  0  0  0  0  0
  -29.9360  -36.5140   31.0550 H   0  0  0  0  0  0  0  0  0  0  0  0
  -29.7540  -30.6140   27.8990 C   0  0  1  0  0  0  0  0  0  0  0  0
  -29.3440  -29.5300   28.9230 C   0  0  0  0  0  1  0  0  0  0  0  0
  -29.8760  -29.9320   26.5160 C   0  0  0  0  0  1  0  0  0  0  0  0
  -31.1710  -31.1120   28.2700 C   0  0  0  0  0  1  0  0  0  0  0  0
  -28.5110  -22.2210   17.5600 O   0  0  0  0  0  0  0  0  0  0  0  0
  -28.8810  -22.7250   16.1930 C   0  0  0  0  0  2  0  0  0  0  0  0
  -30.2500  -22.2310   15.5110 C   0  0  0  0  0  0  0  0  0  0  0  0
  -31.4900  -22.5820   16.0350 N   0  0  0  0  0  0  0  0  0  0  0  0
  -30.1880  -21.5270   14.5000 O   0  0  0  0  0  0  0  0  0  0  0  0
  -31.3910  -23.1250   16.8920 H   0  0  0  0  0  0  0  0  0  0  0  0
  -32.9790  -22.2870   15.6570 C   0  0  0  0  0  2  0  0  0  0  0  0
  -33.7920  -20.8390   15.3410 C   0  0  0  0  0  2  0  0  0  0  0  0
  -33.2820  -19.5040   14.7380 O   0  0  0  0  0  1  0  0  0  0  0  0
  -32.5950  -19.4070   12.8580 C   0  0  1  0  0  0  0  0  0  0  0  0
  -34.1630  -19.9320   12.7490 C   0  0  0  0  0  1  0  0  0  0  0  0
  -34.6830  -18.2120   12.9110 C   0  0  0  0  0  1  0  0  0  0  0  0
  -33.7330  -17.1110   13.7430 C   0  0  0  0  0  2  0  0  0  0  0  0
  -32.1880  -17.4650   14.3280 C   0  0  0  0  0  2  0  0  0  0  0  0
  -31.4380  -19.0980   13.7290 C   0  0  0  0  0  1  0  0  0  0  0  0
  -32.5300  -20.3220   13.1390 N   0  0  0  0  0  1  0  0  0  0  0  0
  -32.3890  -18.9600   11.6280 O   0  0  0  0  0  1  0  0  0  0  0  0
  -31.3790  -17.6430   16.7790 C   0  0  0  0  0  0  0  0  0  0  0  0
  -31.5810  -16.9850   17.9610 C   0  0  0  0  0  0  0  0  0  0  0  0
  -32.5520  -15.9710   17.7020 C   0  0  0  0  0  0  0  0  0  0  0  0
  -32.2030  -17.0970   15.8180 N   0  0  0  0  0  0  0  0  0  0  0  0
  -32.9520  -16.0830   16.4160 N   0  0  0  0  0  0  0  0  0  0  0  0
  -33.0410  -14.8940   18.6150 C   0  0  0  0  0  0  0  0  0  0  0  0
  -34.4110  -14.7160   18.9240 C   0  0  0  0  0  3  0  0  0  0  0  0
  -34.8330  -13.7130   19.8340 C   0  0  0  0  0  3  0  0  0  0  0  0
  -33.8860  -12.8670   20.4600 C   0  0  0  0  0  0  0  0  0  0  0  0
  -32.5240  -13.0360   20.1480 C   0  0  0  0  0  3  0  0  0  0  0  0
  -32.1100  -14.0310   19.2400 C   0  0  0  0  0  3  0  0  0  0  0  0
  -34.2050  -11.8410   21.3250 O   0  0  0  0  0  0  0  0  0  0  0  0
  -35.4310  -11.7590   21.9400 C   0  0  0  0  0  0  0  0  0  0  0  0
  -35.9430  -12.8160   22.7240 C   0  0  0  0  0  3  0  0  0  0  0  0
  -37.1730  -12.6680   23.3950 C   0  0  0  0  0  3  0  0  0  0  0  0
  -37.8920  -11.4610   23.2910 C   0  0  0  0  0  0  0  0  0  0  0  0
  -37.3820  -10.4030   22.5190 C   0  0  0  0  0  3  0  0  0  0  0  0
  -36.1530  -10.5500   21.8500 C   0  0  0  0  0  0  0  0  0  0  0  0
  -35.6590   -9.5160   21.1270 F   0  0  0  0  0  0  0  0  0  0  0  0
  -39.0730  -11.3170   23.9370 F   0  0  0  0  0  0  0  0  0  0  0  0
  -30.8140  -17.2270   19.2310 C   0  0  0  0  0  0  0  0  0  0  0  0
  -31.4820  -17.1990   20.3780 N   0  0  0  0  0  0  0  0  0  0  0  0
  -29.6150  -17.5030   19.2000 O   0  0  0  0  0  0  0  0  0  0  0  0
  -32.4700  -16.9960   20.4040 H   0  0  0  0  0  0  0  0  0  0  0  0
  -30.9970  -17.3820   21.2450 H   0  0  0  0  0  0  0  0  0  0  0  0
  -30.5390  -18.6860   16.4220 N   0  0  0  0  0  0  0  0  0  0  0  0
  -29.7870  -18.9150   17.0650 H   0  0  0  0  0  0  0  0  0  0  0  0
  -30.2620  -18.8140   15.4570 H   0  0  0  0  0  0  0  0  0  0  0  0
  1  2  1  0
  3  1  2  0
  4  5  1  0
  5  8  1  0
  5  2  2  0
  6  4  2  0
  6  3  1  0
  7  9  2  0
  8  7  1  0
 10  8  1  0
 11  7  1  0
 11 13  1  0
 12 23  2  0
 13 18  1  0
 14 24  1  0
 15 17  1  0
 15 21  1  0
 16 22  1  0
 17 16  1  0
 18 17  2  0
 19 13  2  0
 19 20  1  0
 20 15  2  0
 21 14  1  0
 22 14  1  0
 22 12  1  0
 24 25  1  0
 25 27  1  0
 26 24  2  0
 28 32  1  0
 28 37  1  0
 29 25  1  0
 29 30  1  0
 29 33  1  0
 30 31  1  0
 31 32  1  0
 33 28  2  0
 34 33  1  0
 34 35  2  0
 35 36  1  0
 36 37  2  0
 38 12  1  0
 38 48  1  0
 38 39  1  0
 39 42  1  0
 40 39  1  0
 40 44  1  0
 41 40  2  0
 44 43  1  0
 45 46  1  0
 46 44  1  0
 46 47  1  0
 48 51  1  1
 48 49  1  0
 50 48  1  0
 52  6  1  0
 53 52  1  0
 54 55  1  0
 54 53  1  0
 55 57  1  0
 56 54  2  0
 58 55  1  0
 59 58  1  0
 60 59  1  0
 61 67  1  0
 61 66  1  1
 62 61  1  0
 63 64  1  0
 64 65  1  0
 65 72  1  0
 68 61  1  0
 69 70  2  0
 70 89  1  0
 71 70  1  0
 71 74  1  0
 72 73  1  0
 72 69  1  0
 73 71  2  0
 74 75  2  0
 74 79  1  0
 75 76  1  0
 76 77  2  0
 77 80  1  0
 78 77  1  0
 79 78  2  0
 80 81  1  0
 81 82  1  0
 82 83  2  0
 84 83  1  0
 84 88  1  0
 85 84  2  0
 86 81  2  0
 86 85  1  0
 87 86  1  0
 89 90  1  0
 90 92  1  0
 90 93  1  0
 91 89  2  0
 94 69  1  0
 94 95  1  0
 96 94  1  0
M  ISO  4   7 101  11 101  60 100  61 100
M  END
>  <TORSDO>  (32) 
F 23

>  <SCORE>  (32) 
-5.029

>  <name>  (32) 
31

>  <ligand_id>  (32) 
31

>  <original_smiles>  (32) 
[H]c1c([H])c(OC([H])([H])C(=O)N([H])C([H])([H])C([H])([H])OC(=O)N2C([H])([H])C([H])([H])C([H])([H])C([H])(n3nc(-c4c([H])c([H])c(Oc5c([H])c([H])c(F)c([H])c5F)c([H])c4[H])c(C(=O)N([H])[H])c3N([H])[H])C2([H])[H])c([H])c(N([H])C(=O)Oc2c([H])c([H])c3c(c2[H])C([H])([H])N(C(=O)C([H])(N([H])C(=O)C([H])(N([H])C([H])([H])[H])C([H])([H])[H])C(C([H])([H])[H])(C([H])([H])[H])C([H])([H])[H])C([H])(C(=O)N([H])C2([H])c4c([H])c([H])c([H])c([H])c4C([H])([H])C([H])([H])C2([H])[H])C3([H])[H])c1[H]

>  <smiles>  (32) 
[H]c1c([H])c(OC([H])([H])C(=O)N([H])C([H])([H])C([H])([H])OC(=O)N2C([H])([H])C([H])([H])C([H])([H])C([H])(n3nc(-c4c([H])c([H])c(Oc5c([H])c([H])c(F)c([H])c5F)c([H])c4[H])c(C(=O)N([H])[H])c3N([H])[H])C2([H])[H])c([H])c(N([H])C(=O)Oc2c([H])c([H])c3c(c2[H])C([H])([H])N(C(=O)C([H])(N([H])C(=O)C([H])(N([H])C([H])([H])[H])C([H])([H])[H])C(C([H])([H])[H])(C([H])([H])[H])C([H])([H])[H])C([H])(C(=O)N([H])C2([H])c4c([H])c([H])c([H])c([H])c4C([H])([H])C([H])([H])C2([H])[H])C3([H])[H])c1[H]

$$$$
32:0:0
     RDKit          3D

 94102  0  0  1  0  0  0  0  0999 V2000
  -27.6730  -21.4250   20.8590 C   0  0  0  0  0  3  0  0  0  0  0  0
  -29.6230  -21.2150   19.4110 C   0  0  0  0  0  3  0  0  0  0  0  0
  -27.8990  -22.8070   20.9600 C   0  0  0  0  0  3  0  0  0  0  0  0
  -29.8560  -22.5960   19.5170 C   0  0  0  0  0  3  0  0  0  0  0  0
  -28.5420  -20.6190   20.1000 C   0  0  0  0  0  0  0  0  0  0  0  0
  -29.0010  -23.3990   20.2950 C   0  0  0  0  0  0  0  0  0  0  0  0
  -28.3180  -19.1430   20.0360 C   0  0  0  0  0  0  0  0  0  0  0  0
  -29.4420  -18.4290   20.0130 N   0  0  0  0  0  0  0  0  0  0  0  0
  -27.1880  -18.6540   20.0900 O   0  0  0  0  0  0  0  0  0  0  0  0
  -30.3080  -18.9500   20.0070 H   0  0  0  0  0  0  0  0  0  0  0  0
  -29.5250  -16.9870   20.1070 C   0  0  0  0  0  2  0  0  0  0  0  0
  -30.3300  -16.5830   21.3510 C   0  0  0  0  0  2  0  0  0  0  0  0
  -30.2020  -15.1850   21.5160 O   0  0  0  0  0  0  0  0  0  0  0  0
  -30.8600  -14.3680   20.6890 C   0  0  0  0  0  0  0  0  0  0  0  0
  -30.5000  -12.2880   19.3900 C   0  0  0  0  0  2  0  0  0  0  0  0
  -29.5860  -12.5840   18.1850 C   0  0  0  0  0  2  0  0  0  0  0  0
  -28.1010  -12.4600   18.5810 C   0  0  0  0  0  2  0  0  0  0  0  0
  -27.7550  -13.2610   19.8640 C   0  0  0  0  0  3  0  0  0  0  0  0
  -28.7690  -12.9560   20.9890 C   0  0  0  0  0  2  0  0  0  0  0  0
  -30.1250  -13.2020   20.4690 N   0  0  0  0  0  0  0  0  0  0  0  0
  -31.9130  -14.6770   20.1260 O   0  0  0  0  0  0  0  0  0  0  0  0
  -25.3300  -13.8920   20.4740 C   0  0  0  0  0  0  0  0  0  0  0  0
  -24.2480  -13.1290   20.8230 C   0  0  0  0  0  0  0  0  0  0  0  0
  -24.7080  -11.7760   20.8320 C   0  0  0  0  0  0  0  0  0  0  0  0
  -26.3820  -13.0060   20.2970 N   0  0  0  0  0  0  0  0  0  0  0  0
  -26.0060  -11.7290   20.5640 N   0  0  0  0  0  0  0  0  0  0  0  0
  -23.9750  -10.5190   21.0260 C   0  0  0  0  0  0  0  0  0  0  0  0
  -24.3910   -9.5590   21.9750 C   0  0  0  0  0  3  0  0  0  0  0  0
  -23.6600   -8.3650   22.1540 C   0  0  0  0  0  3  0  0  0  0  0  0
  -22.4980   -8.1230   21.3830 C   0  0  0  0  0  0  0  0  0  0  0  0
  -22.1000   -9.0710   20.4240 C   0  0  0  0  0  3  0  0  0  0  0  0
  -22.8320  -10.2560   20.2440 C   0  0  0  0  0  3  0  0  0  0  0  0
  -21.7400   -6.9800   21.4700 O   0  0  0  0  0  0  0  0  0  0  0  0
  -21.6810   -6.2410   22.6240 C   0  0  0  0  0  0  0  0  0  0  0  0
  -21.2660   -6.8070   23.8500 C   0  0  0  0  0  3  0  0  0  0  0  0
  -21.1540   -5.9970   24.9980 C   0  0  0  0  0  3  0  0  0  0  0  0
  -21.4470   -4.6210   24.9210 C   0  0  0  0  0  0  0  0  0  0  0  0
  -21.8560   -4.0560   23.7000 C   0  0  0  0  0  3  0  0  0  0  0  0
  -21.9690   -4.8630   22.5550 C   0  0  0  0  0  0  0  0  0  0  0  0
  -22.3450   -4.3080   21.3770 F   0  0  0  0  0  0  0  0  0  0  0  0
  -21.3290   -3.8410   26.0210 F   0  0  0  0  0  0  0  0  0  0  0  0
  -22.8440  -13.6130   21.0440 C   0  0  0  0  0  0  0  0  0  0  0  0
  -22.0890  -12.9370   21.9020 N   0  0  0  0  0  0  0  0  0  0  0  0
  -22.4240  -14.6290   20.4900 O   0  0  0  0  0  0  0  0  0  0  0  0
  -22.4390  -12.1160   22.3740 H   0  0  0  0  0  0  0  0  0  0  0  0
  -21.1460  -13.2480   22.0940 H   0  0  0  0  0  0  0  0  0  0  0  0
  -25.5030  -15.2590   20.2790 N   0  0  0  0  0  0  0  0  0  0  0  0
  -24.7400  -15.9210   20.3730 H   0  0  0  0  0  0  0  0  0  0  0  0
  -26.3720  -15.7000   20.0040 H   0  0  0  0  0  0  0  0  0  0  0  0
  -28.5020  -25.7440   20.9430 C   0  0  0  0  0  0  0  0  0  0  0  0
  -29.2650  -24.7890   20.3100 N   0  0  0  0  0  0  0  0  0  0  0  0
  -27.9610  -25.6530   22.0500 O   0  0  0  0  0  0  0  0  0  0  0  0
  -29.7950  -25.1500   19.5280 H   0  0  0  0  0  0  0  0  0  0  0  0
  -28.3990  -26.7900   20.1200 O   0  0  0  0  0  0  0  0  0  0  0  0
  -24.5540  -31.8840   23.2300 C   0  0  0  0  0  0  0  0  0  0  0  0
  -27.2320  -27.5040   20.1540 C   0  0  0  0  0  0  0  0  0  0  0  0
  -23.3550  -30.4760   21.5830 C   0  0  0  0  0  3  0  0  0  0  0  0
  -24.8210  -28.9500   20.1630 C   0  0  0  0  0  0  0  0  0  0  0  0
  -25.8720  -30.8650   21.3830 C   0  0  0  0  0  2  0  0  0  0  0  0
  -25.9700  -29.4960   20.7500 C   0  0  0  0  0  0  0  0  0  0  0  0
  -27.1840  -28.7820   20.7430 C   0  0  0  0  0  3  0  0  0  0  0  0
  -26.0730  -26.9610   19.5580 C   0  0  0  0  0  3  0  0  0  0  0  0
  -24.8620  -27.6770   19.5670 C   0  0  0  0  0  3  0  0  0  0  0  0
  -23.5700  -29.7940   20.2040 C   0  0  0  0  0  2  0  0  0  0  0  0
  -24.6120  -31.0880   22.1250 N   0  0  0  0  0  0  0  0  0  0  0  0
  -23.4710  -32.1500   23.7690 O   0  0  0  0  0  0  0  0  0  0  0  0
  -22.7120  -29.4490   22.5420 C   0  0  0  0  0  0  0  0  0  0  0  0
  -21.3850  -29.2710   22.4220 N   0  0  0  0  0  0  0  0  0  0  0  0
  -23.4000  -28.8170   23.3480 O   0  0  0  0  0  0  0  0  0  0  0  0
  -20.8920  -29.8350   21.7440 H   0  0  0  0  0  0  0  0  0  0  0  0
  -18.0100  -28.0990   22.9370 C   0  0  0  0  0  0  0  0  0  0  0  0
  -20.5710  -28.3310   23.1910 C   0  0  0  0  0  3  0  0  0  0  0  0
  -20.6580  -26.9050   22.6000 C   0  0  0  0  0  2  0  0  0  0  0  0
  -19.5450  -26.6000   21.5940 C   0  0  0  0  0  2  0  0  0  0  0  0
  -18.1700  -26.7520   22.2510 C   0  0  0  0  0  2  0  0  0  0  0  0
  -19.1380  -28.8470   23.3650 C   0  0  0  0  0  0  0  0  0  0  0  0
  -18.9360  -30.1070   23.9660 C   0  0  0  0  0  3  0  0  0  0  0  0
  -17.6370  -30.6200   24.1430 C   0  0  0  0  0  3  0  0  0  0  0  0
  -16.5230  -29.8680   23.7340 C   0  0  0  0  0  3  0  0  0  0  0  0
  -16.7100  -28.6080   23.1360 C   0  0  0  0  0  3  0  0  0  0  0  0
  -25.8380  -32.5180   23.8500 C   0  0  0  0  0  3  0  0  0  0  0  0
  -25.5270  -33.9160   24.1730 N   0  0  0  0  0  0  0  0  0  0  0  0
  -25.8690  -34.9650   23.4140 C   0  0  0  0  0  0  0  0  0  0  0  0
  -26.5510  -34.8590   22.3910 O   0  0  0  0  0  0  0  0  0  0  0  0
  -24.9270  -34.0740   24.9690 H   0  0  0  0  0  0  0  0  0  0  0  0
  -24.1520  -36.7580   23.0230 C   0  0  0  0  0  1  0  0  0  0  0  0
  -25.3750  -36.3540   23.8610 C   0  0  0  0  0  3  0  0  0  0  0  0
  -27.4950  -37.2330   24.7320 C   0  0  0  0  0  1  0  0  0  0  0  0
  -26.4120  -37.4050   23.7680 N   0  0  0  0  0  0  0  0  0  0  0  0
  -26.0060  -38.3260   23.9080 H   0  0  0  0  0  0  0  0  0  0  0  0
  -26.3590  -31.7490   25.1250 C   0  0  1  0  0  0  0  0  0  0  0  0
  -25.2690  -31.5070   26.1930 C   0  0  0  0  0  1  0  0  0  0  0  0
  -26.9460  -30.3740   24.7270 C   0  0  0  0  0  1  0  0  0  0  0  0
  -27.5070  -32.5460   25.7870 C   0  0  0  0  0  1  0  0  0  0  0  0
  1  3  1  0
  2  4  2  0
  2  5  1  0
  4  6  1  0
  5  1  2  0
  6 51  1  0
  6  3  2  0
  7  9  2  0
  7  5  1  0
  8  7  1  0
  8 11  1  0
 10  8  1  0
 11 12  1  0
 12 13  1  0
 14 13  1  0
 15 20  1  0
 16 17  1  0
 16 15  1  0
 18 17  1  0
 18 25  1  0
 18 19  1  0
 20 14  1  0
 20 19  1  0
 21 14  2  0
 22 23  2  0
 23 24  1  0
 23 42  1  0
 24 27  1  0
 25 22  1  0
 25 26  1  0
 26 24  2  0
 27 28  1  0
 28 29  2  0
 30 33  1  0
 30 29  1  0
 31 30  2  0
 32 31  1  0
 32 27  2  0
 33 34  1  0
 34 35  1  0
 35 36  2  0
 37 36  1  0
 37 41  1  0
 38 37  2  0
 39 34  2  0
 39 38  1  0
 40 39  1  0
 42 43  1  0
 43 46  1  0
 43 45  1  0
 44 42  2  0
 47 48  1  0
 47 22  1  0
 49 47  1  0
 50 52  2  0
 51 50  1  0
 53 51  1  0
 54 56  1  0
 54 50  1  0
 55 66  2  0
 56 61  1  0
 57 65  1  0
 57 67  1  0
 58 64  1  0
 58 60  1  0
 59 65  1  0
 60 59  1  0
 61 60  2  0
 62 63  1  0
 62 56  2  0
 63 58  2  0
 64 57  1  0
 65 55  1  0
 67 69  2  0
 68 67  1  0
 70 68  1  0
 71 80  2  0
 71 76  1  0
 72 68  1  0
 72 76  1  0
 73 72  1  0
 74 75  1  0
 74 73  1  0
 75 71  1  0
 76 77  2  0
 77 78  1  0
 79 78  2  0
 80 79  1  0
 81 55  1  0
 81 82  1  0
 81 91  1  0
 82 85  1  0
 83 87  1  0
 83 82  1  0
 84 83  2  0
 87 86  1  0
 89 87  1  0
 89 90  1  0
 89 88  1  0
 91 94  1  1
 91 92  1  0
 93 91  1  0
M  ISO  4  13 100  14 100  50 101  54 101
M  END
>  <TORSDO>  (33) 
F 21

>  <SCORE>  (33) 
-13.709

>  <name>  (33) 
32

>  <ligand_id>  (33) 
32

>  <original_smiles>  (33) 
[H]c1c([H])c([H])c2c(c1[H])C([H])([H])C([H])([H])C([H])([H])C2([H])N([H])C(=O)C1([H])N(C(=O)C([H])(N([H])C(=O)C([H])(N([H])C([H])([H])[H])C([H])([H])[H])C(C([H])([H])[H])(C([H])([H])[H])C([H])([H])[H])C([H])([H])c2c([H])c(OC(=O)N([H])c3c([H])c([H])c(C(=O)N([H])C([H])([H])C([H])([H])OC(=O)N4C([H])([H])C([H])([H])C([H])([H])C([H])(n5nc(-c6c([H])c([H])c(Oc7c([H])c([H])c(F)c([H])c7F)c([H])c6[H])c(C(=O)N([H])[H])c5N([H])[H])C4([H])[H])c([H])c3[H])c([H])c([H])c2C1([H])[H]

>  <smiles>  (33) 
[H]c1c([H])c([H])c2c(c1[H])C([H])([H])C([H])([H])C([H])([H])C2([H])N([H])C(=O)C1([H])N(C(=O)C([H])(N([H])C(=O)C([H])(N([H])C([H])([H])[H])C([H])([H])[H])C(C([H])([H])[H])(C([H])([H])[H])C([H])([H])[H])C([H])([H])c2c([H])c(OC(=O)N([H])c3c([H])c([H])c(C(=O)N([H])C([H])([H])C([H])([H])OC(=O)N4C([H])([H])C([H])([H])C([H])([H])C([H])(n5nc(-c6c([H])c([H])c(Oc7c([H])c([H])c(F)c([H])c7F)c([H])c6[H])c(C(=O)N([H])[H])c5N([H])[H])C4([H])[H])c([H])c3[H])c([H])c([H])c2C1([H])[H]

$$$$
33:0:0
     RDKit          3D

 92 99  0  0  1  0  0  0  0  0999 V2000
  -28.1490  -22.4850   20.6000 C   0  0  0  0  0  0  0  0  0  0  0  0
  -29.3000  -21.9650   21.0430 N   0  0  0  0  0  0  0  0  0  0  0  0
  -27.0750  -21.8810   20.6370 O   0  0  0  0  0  0  0  0  0  0  0  0
  -30.0910  -22.5900   20.9100 H   0  0  0  0  0  0  0  0  0  0  0  0
  -28.2280  -23.9300   20.0940 C   0  0  0  0  0  2  0  0  0  0  0  0
  -29.4430  -24.5140   20.5760 O   0  0  0  0  0  0  0  0  0  0  0  0
  -29.9140  -25.6370   19.8420 C   0  0  0  0  0  2  0  0  0  0  0  0
  -29.1290  -26.9230   20.1540 C   0  0  0  0  0  2  0  0  0  0  0  0
  -28.1540  -27.0450   19.1340 O   0  0  0  0  0  0  0  0  0  0  0  0
  -24.5390  -31.7370   23.1880 C   0  0  0  0  0  0  0  0  0  0  0  0
  -27.0230  -27.7620   19.4210 C   0  0  0  0  0  0  0  0  0  0  0  0
  -23.2450  -30.5100   21.4720 C   0  0  0  0  0  3  0  0  0  0  0  0
  -24.6180  -29.1790   19.7930 C   0  0  0  0  0  0  0  0  0  0  0  0
  -25.7480  -30.9400   21.1620 C   0  0  0  0  0  2  0  0  0  0  0  0
  -25.8060  -29.6540   20.3670 C   0  0  0  0  0  0  0  0  0  0  0  0
  -27.0170  -28.9470   20.1910 C   0  0  0  0  0  3  0  0  0  0  0  0
  -25.8270  -27.3020   18.8420 C   0  0  0  0  0  3  0  0  0  0  0  0
  -24.6200  -27.9940   19.0370 C   0  0  0  0  0  3  0  0  0  0  0  0
  -23.3730  -30.0040   20.0130 C   0  0  0  0  0  2  0  0  0  0  0  0
  -24.5310  -31.0700   21.9980 N   0  0  0  0  0  0  0  0  0  0  0  0
  -23.4930  -31.9250   23.8230 O   0  0  0  0  0  0  0  0  0  0  0  0
  -22.6740  -29.3690   22.3430 C   0  0  0  0  0  0  0  0  0  0  0  0
  -21.3570  -29.1260   22.2240 N   0  0  0  0  0  0  0  0  0  0  0  0
  -23.4060  -28.7140   23.0880 O   0  0  0  0  0  0  0  0  0  0  0  0
  -20.8190  -29.7170   21.6050 H   0  0  0  0  0  0  0  0  0  0  0  0
  -18.0890  -27.6220   22.5670 C   0  0  0  0  0  0  0  0  0  0  0  0
  -20.6090  -28.0770   22.9190 C   0  0  0  0  0  3  0  0  0  0  0  0
  -20.8450  -26.6940   22.2670 C   0  0  0  0  0  2  0  0  0  0  0  0
  -19.7960  -26.3400   21.2090 C   0  0  0  0  0  2  0  0  0  0  0  0
  -18.3950  -26.3310   21.8250 C   0  0  0  0  0  2  0  0  0  0  0  0
  -19.1300  -28.4490   23.0680 C   0  0  0  0  0  0  0  0  0  0  0  0
  -18.7930  -29.6550   23.7210 C   0  0  0  0  0  3  0  0  0  0  0  0
  -17.4470  -30.0350   23.8810 C   0  0  0  0  0  3  0  0  0  0  0  0
  -16.4210  -29.2060   23.3980 C   0  0  0  0  0  3  0  0  0  0  0  0
  -16.7430  -28.0010   22.7480 C   0  0  0  0  0  3  0  0  0  0  0  0
  -25.8570  -32.3190   23.7890 C   0  0  0  0  0  3  0  0  0  0  0  0
  -26.4500  -31.4380   24.9540 C   0  0  1  0  0  0  0  0  0  0  0  0
  -25.4250  -31.0940   26.0600 C   0  0  0  0  0  1  0  0  0  0  0  0
  -27.0110  -30.1070   24.4010 C   0  0  0  0  0  1  0  0  0  0  0  0
  -27.6400  -32.1760   25.6130 C   0  0  0  0  0  1  0  0  0  0  0  0
  -25.5680  -33.6810   24.2600 N   0  0  0  0  0  0  0  0  0  0  0  0
  -25.8770  -34.7990   23.5870 C   0  0  0  0  0  0  0  0  0  0  0  0
  -26.5110  -34.7910   22.5280 O   0  0  0  0  0  0  0  0  0  0  0  0
  -25.0080  -33.7640   25.0950 H   0  0  0  0  0  0  0  0  0  0  0  0
  -24.1450  -36.6160   23.4530 C   0  0  0  0  0  1  0  0  0  0  0  0
  -25.4100  -36.1400   24.1860 C   0  0  0  0  0  3  0  0  0  0  0  0
  -27.5740  -36.9370   25.0270 C   0  0  0  0  0  1  0  0  0  0  0  0
  -26.4430  -37.1970   24.1390 N   0  0  0  0  0  0  0  0  0  0  0  0
  -26.0470  -38.0990   24.3880 H   0  0  0  0  0  0  0  0  0  0  0  0
  -29.4600  -20.8560   21.9790 C   0  0  0  0  0  2  0  0  0  0  0  0
  -29.2090  -19.4660   21.3780 C   0  0  0  0  0  2  0  0  0  0  0  0
  -30.4170  -18.7840   20.7100 C   0  0  0  0  0  2  0  0  0  0  0  0
  -30.2460  -17.2580   20.7520 C   0  0  0  0  0  2  0  0  0  0  0  0
  -31.5030  -16.4530   20.3780 C   0  0  0  0  0  2  0  0  0  0  0  0
  -31.6200  -14.0390   19.7120 C   0  0  0  0  0  0  0  0  0  0  0  0
  -31.2060  -11.7010   19.0290 C   0  0  0  0  0  2  0  0  0  0  0  0
  -30.2320  -11.6590   17.8370 C   0  0  0  0  0  2  0  0  0  0  0  0
  -28.7680  -11.6660   18.3280 C   0  0  0  0  0  2  0  0  0  0  0  0
  -28.4950  -12.7960   19.3550 C   0  0  0  0  0  3  0  0  0  0  0  0
  -29.5700  -12.7850   20.4610 C   0  0  0  0  0  2  0  0  0  0  0  0
  -30.9040  -12.8940   19.8320 N   0  0  0  0  0  0  0  0  0  0  0  0
  -32.5950  -14.1680   18.9640 O   0  0  0  0  0  0  0  0  0  0  0  0
  -31.1860  -15.0350   20.4890 N   0  0  0  0  0  0  0  0  0  0  0  0
  -30.4440  -14.7840   21.1260 H   0  0  0  0  0  0  0  0  0  0  0  0
  -26.2470  -13.7150   20.2290 C   0  0  0  0  0  0  0  0  0  0  0  0
  -25.1080  -13.0820   20.6550 C   0  0  0  0  0  0  0  0  0  0  0  0
  -25.3760  -11.6840   20.5660 C   0  0  0  0  0  0  0  0  0  0  0  0
  -27.1460  -12.7050   19.9140 N   0  0  0  0  0  0  0  0  0  0  0  0
  -26.6250  -11.4760   20.1720 N   0  0  0  0  0  0  0  0  0  0  0  0
  -24.4960  -10.5280   20.7880 C   0  0  0  0  0  0  0  0  0  0  0  0
  -24.8260   -9.5260   21.7250 C   0  0  0  0  0  3  0  0  0  0  0  0
  -23.9610   -8.4290   21.9350 C   0  0  0  0  0  3  0  0  0  0  0  0
  -22.7460   -8.3330   21.2130 C   0  0  0  0  0  0  0  0  0  0  0  0
  -22.4360   -9.3240   20.2660 C   0  0  0  0  0  3  0  0  0  0  0  0
  -23.2990  -10.4100   20.0540 C   0  0  0  0  0  3  0  0  0  0  0  0
  -21.8550   -7.2960   21.3320 O   0  0  0  0  0  0  0  0  0  0  0  0
  -21.7060   -6.6070   22.5100 C   0  0  0  0  0  0  0  0  0  0  0  0
  -21.3450   -7.2550   23.7120 C   0  0  0  0  0  3  0  0  0  0  0  0
  -21.1340   -6.4990   24.8810 C   0  0  0  0  0  3  0  0  0  0  0  0
  -21.2740   -5.0990   24.8510 C   0  0  0  0  0  0  0  0  0  0  0  0
  -21.6280   -4.4530   23.6520 C   0  0  0  0  0  3  0  0  0  0  0  0
  -21.8400   -5.2060   22.4850 C   0  0  0  0  0  0  0  0  0  0  0  0
  -22.1590   -4.5770   21.3290 F   0  0  0  0  0  0  0  0  0  0  0  0
  -21.0590   -4.3730   25.9720 F   0  0  0  0  0  0  0  0  0  0  0  0
  -23.8110  -13.7360   21.0300 C   0  0  0  0  0  0  0  0  0  0  0  0
  -23.0680  -13.1380   21.9580 N   0  0  0  0  0  0  0  0  0  0  0  0
  -23.4720  -14.8100   20.5390 O   0  0  0  0  0  0  0  0  0  0  0  0
  -23.3640  -12.2720   22.3860 H   0  0  0  0  0  0  0  0  0  0  0  0
  -22.1960  -13.5600   22.2460 H   0  0  0  0  0  0  0  0  0  0  0  0
  -26.5760  -15.0570   20.0660 N   0  0  0  0  0  0  0  0  0  0  0  0
  -25.9030  -15.7980   20.2420 H   0  0  0  0  0  0  0  0  0  0  0  0
  -27.4710  -15.4000   19.7300 H   0  0  0  0  0  0  0  0  0  0  0  0
  1  3  2  0
  1  2  1  0
  2 50  1  0
  4  2  1  0
  5  6  1  0
  5  1  1  0
  7  8  1  0
  7  6  1  0
  9 11  1  0
  9  8  1  0
 10 21  2  0
 11 16  1  0
 12 20  1  0
 12 22  1  0
 13 19  1  0
 13 15  1  0
 14 20  1  0
 15 14  1  0
 16 15  2  0
 17 18  1  0
 17 11  2  0
 18 13  2  0
 19 12  1  0
 20 10  1  0
 22 24  2  0
 23 22  1  0
 25 23  1  0
 26 35  2  0
 26 31  1  0
 27 23  1  0
 27 31  1  0
 28 27  1  0
 29 30  1  0
 29 28  1  0
 30 26  1  0
 31 32  2  0
 32 33  1  0
 34 33  2  0
 35 34  1  0
 36 10  1  0
 36 41  1  0
 36 37  1  0
 37 40  1  1
 37 38  1  0
 39 37  1  0
 41 44  1  0
 42 46  1  0
 42 41  1  0
 43 42  2  0
 46 45  1  0
 48 46  1  0
 48 49  1  0
 48 47  1  0
 51 50  1  0
 52 53  1  0
 52 51  1  0
 54 63  1  0
 54 53  1  0
 55 61  1  0
 55 63  1  0
 56 61  1  0
 57 58  1  0
 57 56  1  0
 59 58  1  0
 59 68  1  0
 59 60  1  0
 61 60  1  0
 62 55  2  0
 63 64  1  0
 65 66  2  0
 66 85  1  0
 67 66  1  0
 67 70  1  0
 68 69  1  0
 68 65  1  0
 69 67  2  0
 70 71  1  0
 71 72  2  0
 73 76  1  0
 73 72  1  0
 74 73  2  0
 75 74  1  0
 75 70  2  0
 76 77  1  0
 77 78  1  0
 78 79  2  0
 80 79  1  0
 80 84  1  0
 81 80  2  0
 82 77  2  0
 82 81  1  0
 83 82  1  0
 85 86  1  0
 86 89  1  0
 86 88  1  0
 87 85  2  0
 90 65  1  0
 90 91  1  0
 92 90  1  0
M  ISO  4   8 101   9 101  55 100  63 100
M  END
>  <TORSDO>  (34) 
F 25

>  <SCORE>  (34) 
-10.246

>  <name>  (34) 
33

>  <ligand_id>  (34) 
33

>  <original_smiles>  (34) 
[H]c1c([H])c([H])c2c(c1[H])C([H])([H])C([H])([H])C([H])([H])C2([H])N([H])C(=O)C1([H])N(C(=O)C([H])(N([H])C(=O)C([H])(N([H])C([H])([H])[H])C([H])([H])[H])C(C([H])([H])[H])(C([H])([H])[H])C([H])([H])[H])C([H])([H])c2c([H])c(OC([H])([H])C([H])([H])OC([H])([H])C(=O)N([H])C([H])([H])C([H])([H])C([H])([H])C([H])([H])C([H])([H])N([H])C(=O)N3C([H])([H])C([H])([H])C([H])([H])C([H])(n4nc(-c5c([H])c([H])c(Oc6c([H])c([H])c(F)c([H])c6F)c([H])c5[H])c(C(=O)N([H])[H])c4N([H])[H])C3([H])[H])c([H])c([H])c2C1([H])[H]

>  <smiles>  (34) 
[H]c1c([H])c([H])c2c(c1[H])C([H])([H])C([H])([H])C([H])([H])C2([H])N([H])C(=O)C1([H])N(C(=O)C([H])(N([H])C(=O)C([H])(N([H])C([H])([H])[H])C([H])([H])[H])C(C([H])([H])[H])(C([H])([H])[H])C([H])([H])[H])C([H])([H])c2c([H])c(OC([H])([H])C([H])([H])OC([H])([H])C(=O)N([H])C([H])([H])C([H])([H])C([H])([H])C([H])([H])C([H])([H])N([H])C(=O)N3C([H])([H])C([H])([H])C([H])([H])C([H])(n4nc(-c5c([H])c([H])c(Oc6c([H])c([H])c(F)c([H])c6F)c([H])c5[H])c(C(=O)N([H])[H])c4N([H])[H])C3([H])[H])c([H])c([H])c2C1([H])[H]

$$$$
34:0:0
     RDKit          3D

 85 92  0  0  1  0  0  0  0  0999 V2000
  -28.9650  -23.3830   20.3610 C   0  0  0  0  0  3  0  0  0  0  0  0
  -27.9430  -24.7050   20.1010 C   0  0  0  0  0  3  0  0  0  0  0  0
  -28.2270  -26.2300   20.2780 O   0  0  0  0  0  0  0  0  0  0  0  0
  -24.6030  -31.9250   23.2450 C   0  0  0  0  0  0  0  0  0  0  0  0
  -27.1750  -27.2150   20.2080 C   0  0  0  0  0  0  0  0  0  0  0  0
  -23.4040  -30.5400   21.5970 C   0  0  0  0  0  3  0  0  0  0  0  0
  -24.8520  -28.9660   20.1720 C   0  0  0  0  0  0  0  0  0  0  0  0
  -25.9590  -30.7980   21.4430 C   0  0  0  0  0  2  0  0  0  0  0  0
  -26.0310  -29.4070   20.7860 C   0  0  0  0  0  0  0  0  0  0  0  0
  -27.1930  -28.5480   20.7860 C   0  0  0  0  0  3  0  0  0  0  0  0
  -25.9670  -26.8750   19.5570 C   0  0  0  0  0  3  0  0  0  0  0  0
  -24.8330  -27.7140   19.5420 C   0  0  0  0  0  3  0  0  0  0  0  0
  -23.6270  -29.8680   20.2160 C   0  0  0  0  0  2  0  0  0  0  0  0
  -24.6760  -31.1090   22.1500 N   0  0  0  0  0  0  0  0  0  0  0  0
  -23.5160  -32.2120   23.7690 O   0  0  0  0  0  0  0  0  0  0  0  0
  -22.7180  -29.5320   22.5530 C   0  0  0  0  0  0  0  0  0  0  0  0
  -21.3900  -29.3670   22.4200 N   0  0  0  0  0  0  0  0  0  0  0  0
  -23.3830  -28.9000   23.3780 O   0  0  0  0  0  0  0  0  0  0  0  0
  -20.9090  -29.9270   21.7290 H   0  0  0  0  0  0  0  0  0  0  0  0
  -17.9980  -28.1960   22.9200 C   0  0  0  0  0  0  0  0  0  0  0  0
  -20.5600  -28.4310   23.1840 C   0  0  0  0  0  3  0  0  0  0  0  0
  -20.6460  -27.0020   22.5980 C   0  0  0  0  0  2  0  0  0  0  0  0
  -19.5390  -26.6990   21.5830 C   0  0  0  0  0  2  0  0  0  0  0  0
  -18.1610  -26.8510   22.2310 C   0  0  0  0  0  2  0  0  0  0  0  0
  -19.1240  -28.9450   23.3530 C   0  0  0  0  0  0  0  0  0  0  0  0
  -18.9180  -30.2030   23.9580 C   0  0  0  0  0  3  0  0  0  0  0  0
  -17.6170  -30.7130   24.1340 C   0  0  0  0  0  3  0  0  0  0  0  0
  -16.5060  -29.9610   23.7160 C   0  0  0  0  0  3  0  0  0  0  0  0
  -16.6970  -28.7040   23.1150 C   0  0  0  0  0  3  0  0  0  0  0  0
  -25.8810  -32.5530   23.8790 C   0  0  0  0  0  3  0  0  0  0  0  0
  -25.5770  -33.9560   24.2040 N   0  0  0  0  0  0  0  0  0  0  0  0
  -25.8850  -35.0050   23.4290 C   0  0  0  0  0  0  0  0  0  0  0  0
  -26.5240  -34.8940   22.3800 O   0  0  0  0  0  0  0  0  0  0  0  0
  -25.0050  -34.1160   25.0210 H   0  0  0  0  0  0  0  0  0  0  0  0
  -24.1320  -36.7880   23.1360 C   0  0  0  0  0  1  0  0  0  0  0  0
  -25.4130  -36.3980   23.8920 C   0  0  0  0  0  3  0  0  0  0  0  0
  -27.5760  -37.3120   24.6140 C   0  0  0  0  0  1  0  0  0  0  0  0
  -26.4340  -37.4540   23.7140 N   0  0  0  0  0  0  0  0  0  0  0  0
  -26.0270  -38.3750   23.8600 H   0  0  0  0  0  0  0  0  0  0  0  0
  -26.3750  -31.7860   25.1680 C   0  0  1  0  0  0  0  0  0  0  0  0
  -25.2660  -31.5630   26.2230 C   0  0  0  0  0  1  0  0  0  0  0  0
  -26.9540  -30.4020   24.7960 C   0  0  0  0  0  1  0  0  0  0  0  0
  -27.5210  -32.5780   25.8400 C   0  0  0  0  0  1  0  0  0  0  0  0
  -28.5550  -21.8910   20.2640 O   0  0  0  0  0  0  0  0  0  0  0  0
  -29.5070  -20.6800   20.4130 C   0  0  0  0  0  3  0  0  0  0  0  0
  -29.0720  -19.0440   20.4020 C   0  0  0  0  0  3  0  0  0  0  0  0
  -30.1350  -17.7310   20.4670 C   0  0  0  0  0  2  0  0  0  0  0  0
  -30.4990  -15.0100   20.3410 C   0  0  0  0  0  0  0  0  0  0  0  0
  -30.3560  -12.6770   19.3680 C   0  0  0  0  0  2  0  0  0  0  0  0
  -29.4070  -12.6560   18.1480 C   0  0  0  0  0  2  0  0  0  0  0  0
  -27.9500  -12.4400   18.5970 C   0  0  0  0  0  2  0  0  0  0  0  0
  -27.5590  -13.3470   19.7940 C   0  0  0  0  0  3  0  0  0  0  0  0
  -28.6300  -13.3430   20.9060 C   0  0  0  0  0  2  0  0  0  0  0  0
  -29.8930  -13.7580   20.2830 N   0  0  0  0  0  0  0  0  0  0  0  0
  -31.6980  -15.0740   20.0500 O   0  0  0  0  0  0  0  0  0  0  0  0
  -29.7370  -16.1990   20.5160 N   0  0  0  0  0  0  0  0  0  0  0  0
  -28.7600  -16.0250   20.6980 H   0  0  0  0  0  0  0  0  0  0  0  0
  -25.1860  -13.9060   20.5730 C   0  0  0  0  0  0  0  0  0  0  0  0
  -24.1300  -13.1220   20.9460 C   0  0  0  0  0  0  0  0  0  0  0  0
  -24.5980  -11.7740   20.8900 C   0  0  0  0  0  0  0  0  0  0  0  0
  -26.2300  -13.0360   20.3070 N   0  0  0  0  0  0  0  0  0  0  0  0
  -25.8860  -11.7470   20.5630 N   0  0  0  0  0  0  0  0  0  0  0  0
  -23.8780  -10.5050   21.0690 C   0  0  0  0  0  0  0  0  0  0  0  0
  -24.3050   -9.5390   22.0060 C   0  0  0  0  0  3  0  0  0  0  0  0
  -23.5820   -8.3370   22.1740 C   0  0  0  0  0  3  0  0  0  0  0  0
  -22.4190   -8.0950   21.4050 C   0  0  0  0  0  0  0  0  0  0  0  0
  -22.0120   -9.0510   20.4580 C   0  0  0  0  0  3  0  0  0  0  0  0
  -22.7350  -10.2420   20.2880 C   0  0  0  0  0  3  0  0  0  0  0  0
  -21.6690   -6.9460   21.4830 O   0  0  0  0  0  0  0  0  0  0  0  0
  -21.5900   -6.2160   22.6420 C   0  0  0  0  0  0  0  0  0  0  0  0
  -21.0880   -6.7700   23.8390 C   0  0  0  0  0  3  0  0  0  0  0  0
  -20.9580   -5.9640   24.9890 C   0  0  0  0  0  3  0  0  0  0  0  0
  -21.3200   -4.6050   24.9400 C   0  0  0  0  0  0  0  0  0  0  0  0
  -21.8150   -4.0500   23.7470 C   0  0  0  0  0  3  0  0  0  0  0  0
  -21.9460   -4.8530   22.6000 C   0  0  0  0  0  0  0  0  0  0  0  0
  -22.4030   -4.3070   21.4470 F   0  0  0  0  0  0  0  0  0  0  0  0
  -21.1890   -3.8280   26.0410 F   0  0  0  0  0  0  0  0  0  0  0  0
  -22.7340  -13.5900   21.2370 C   0  0  0  0  0  0  0  0  0  0  0  0
  -22.0190  -12.8840   22.1050 N   0  0  0  0  0  0  0  0  0  0  0  0
  -22.2870  -14.6190   20.7330 O   0  0  0  0  0  0  0  0  0  0  0  0
  -22.3940  -12.0510   22.5360 H   0  0  0  0  0  0  0  0  0  0  0  0
  -21.0830  -13.1790   22.3440 H   0  0  0  0  0  0  0  0  0  0  0  0
  -25.3410  -15.2800   20.4120 N   0  0  0  0  0  0  0  0  0  0  0  0
  -24.5670  -15.9250   20.5350 H   0  0  0  0  0  0  0  0  0  0  0  0
  -26.1700  -15.7260   20.0430 H   0  0  0  0  0  0  0  0  0  0  0  0
  2  3  1  0
  2  1  2  0
  4 15  2  0
  5  3  1  0
  5 10  1  0
  6 14  1  0
  6 16  1  0
  7 13  1  0
  7  9  1  0
  8 14  1  0
  9  8  1  0
 10  9  2  0
 11  5  2  0
 12 11  1  0
 12  7  2  0
 13  6  1  0
 14  4  1  0
 16 18  2  0
 17 16  1  0
 19 17  1  0
 20 29  2  0
 20 25  1  0
 21 17  1  0
 21 25  1  0
 22 21  1  0
 23 24  1  0
 23 22  1  0
 24 20  1  0
 25 26  2  0
 26 27  1  0
 28 27  2  0
 29 28  1  0
 30  4  1  0
 30 31  1  0
 30 40  1  0
 31 34  1  0
 32 36  1  0
 32 31  1  0
 33 32  2  0
 36 35  1  0
 38 39  1  0
 38 36  1  0
 38 37  1  0
 40 43  1  1
 40 41  1  0
 42 40  1  0
 44  1  1  0
 44 45  1  0
 46 45  2  0
 46 47  1  0
 47 56  1  0
 48 56  1  0
 49 54  1  0
 50 51  1  0
 50 49  1  0
 52 51  1  0
 52 61  1  0
 52 53  1  0
 54 48  1  0
 54 53  1  0
 55 48  2  0
 56 57  1  0
 58 59  2  0
 59 78  1  0
 60 59  1  0
 60 63  1  0
 61 62  1  0
 61 58  1  0
 62 60  2  0
 63 64  1  0
 64 65  2  0
 66 69  1  0
 66 65  1  0
 67 66  2  0
 68 67  1  0
 68 63  2  0
 69 70  1  0
 70 71  1  0
 71 72  2  0
 73 72  1  0
 73 77  1  0
 74 73  2  0
 75 70  2  0
 75 74  1  0
 76 75  1  0
 78 79  1  0
 79 82  1  0
 79 81  1  0
 80 78  2  0
 83 84  1  0
 83 58  1  0
 85 83  1  0
M  ISO  4   2 101   3 101  48 100  56 100
M  END
>  <TORSDO>  (35) 
F 21

>  <SCORE>  (35) 
-13.169

>  <name>  (35) 
34

>  <ligand_id>  (35) 
34

>  <original_smiles>  (35) 
[H]c1c([H])c([H])c2c(c1[H])C([H])([H])C([H])([H])C([H])([H])C2([H])N([H])C(=O)C1([H])N(C(=O)C([H])(N([H])C(=O)C([H])(N([H])C([H])([H])[H])C([H])([H])[H])C(C([H])([H])[H])(C([H])([H])[H])C([H])([H])[H])C([H])([H])c2c([H])c(OC([H])([H])C([H])([H])OC([H])([H])C([H])([H])C([H])([H])N([H])C(=O)N3C([H])([H])C([H])([H])C([H])([H])C([H])(n4nc(-c5c([H])c([H])c(Oc6c([H])c([H])c(F)c([H])c6F)c([H])c5[H])c(C(=O)N([H])[H])c4N([H])[H])C3([H])[H])c([H])c([H])c2C1([H])[H]

>  <smiles>  (35) 
[H]c1c([H])c([H])c2c(c1[H])C([H])([H])C([H])([H])C([H])([H])C2([H])N([H])C(=O)C1([H])N(C(=O)C([H])(N([H])C(=O)C([H])(N([H])C([H])([H])[H])C([H])([H])[H])C(C([H])([H])[H])(C([H])([H])[H])C([H])([H])[H])C([H])([H])c2c([H])c(OC([H])([H])C([H])([H])OC([H])([H])C([H])([H])C([H])([H])N([H])C(=O)N3C([H])([H])C([H])([H])C([H])([H])C([H])(n4nc(-c5c([H])c([H])c(Oc6c([H])c([H])c(F)c([H])c6F)c([H])c5[H])c(C(=O)N([H])[H])c4N([H])[H])C3([H])[H])c([H])c([H])c2C1([H])[H]

$$$$
35:0:0
     RDKit          3D

 97105  0  0  1  0  0  0  0  0999 V2000
  -32.5820  -23.7330   18.7970 C   0  0  0  0  0  2  0  0  0  0  0  0
  -31.7570  -21.4110   19.1880 C   0  0  0  0  0  0  0  0  0  0  0  0
  -31.6430  -22.7370   19.3100 N   0  0  0  0  0  0  0  0  0  0  0  0
  -32.7660  -20.8650   18.7330 O   0  0  0  0  0  0  0  0  0  0  0  0
  -30.7910  -23.0900   19.7230 H   0  0  0  0  0  0  0  0  0  0  0  0
  -30.5320  -20.5750   19.5850 C   0  0  0  0  0  2  0  0  0  0  0  0
  -30.9090  -19.4980   20.4540 O   0  0  0  0  0  0  0  0  0  0  0  0
  -30.7230  -14.3530   20.1930 C   0  0  0  0  0  0  0  0  0  0  0  0
  -30.3100  -12.2360   19.0100 C   0  0  0  0  0  2  0  0  0  0  0  0
  -29.3300  -12.4990   17.8490 C   0  0  0  0  0  2  0  0  0  0  0  0
  -27.8720  -12.3750   18.3370 C   0  0  0  0  0  2  0  0  0  0  0  0
  -27.5990  -13.1880   19.6320 C   0  0  0  0  0  3  0  0  0  0  0  0
  -28.6980  -12.9380   20.6920 C   0  0  0  0  0  2  0  0  0  0  0  0
  -30.0040  -13.2090   20.0690 N   0  0  0  0  0  0  0  0  0  0  0  0
  -31.8690  -14.4800   19.7440 O   0  0  0  0  0  0  0  0  0  0  0  0
  -30.0650  -17.5630   19.3050 C   0  0  0  0  0  2  0  0  0  0  0  0
  -29.9980  -17.6780   21.8460 C   0  0  0  0  0  2  0  0  0  0  0  0
  -29.3700  -16.2180   19.5460 C   0  0  0  0  0  2  0  0  0  0  0  0
  -30.6240  -16.2660   21.6980 C   0  0  0  0  0  2  0  0  0  0  0  0
  -29.9090  -18.4820   20.5280 C   0  0  0  0  0  3  0  0  0  0  0  0
  -30.0400  -15.4430   20.6120 N   0  0  0  0  0  0  0  0  0  0  0  0
  -25.2410  -13.8250   20.4370 C   0  0  0  0  0  0  0  0  0  0  0  0
  -24.1750  -13.0660   20.8350 C   0  0  0  0  0  0  0  0  0  0  0  0
  -24.6160  -11.7080   20.7740 C   0  0  0  0  0  0  0  0  0  0  0  0
  -26.2640  -12.9310   20.1600 N   0  0  0  0  0  0  0  0  0  0  0  0
  -25.8940  -11.6530   20.4200 N   0  0  0  0  0  0  0  0  0  0  0  0
  -23.8830  -10.4530   20.9770 C   0  0  0  0  0  0  0  0  0  0  0  0
  -24.3310   -9.4780   21.8960 C   0  0  0  0  0  3  0  0  0  0  0  0
  -23.5970   -8.2870   22.0870 C   0  0  0  0  0  3  0  0  0  0  0  0
  -22.4060   -8.0630   21.3570 C   0  0  0  0  0  0  0  0  0  0  0  0
  -21.9780   -9.0270   20.4270 C   0  0  0  0  0  3  0  0  0  0  0  0
  -22.7110  -10.2100   20.2350 C   0  0  0  0  0  3  0  0  0  0  0  0
  -21.6420   -6.9260   21.4590 O   0  0  0  0  0  0  0  0  0  0  0  0
  -21.6040   -6.1840   22.6110 C   0  0  0  0  0  0  0  0  0  0  0  0
  -21.2050   -6.7450   23.8440 C   0  0  0  0  0  3  0  0  0  0  0  0
  -21.1090   -5.9310   24.9900 C   0  0  0  0  0  3  0  0  0  0  0  0
  -21.4060   -4.5560   24.9060 C   0  0  0  0  0  0  0  0  0  0  0  0
  -21.7960   -3.9940   23.6770 C   0  0  0  0  0  3  0  0  0  0  0  0
  -21.8920   -4.8070   22.5330 C   0  0  0  0  0  0  0  0  0  0  0  0
  -22.2500   -4.2560   21.3480 F   0  0  0  0  0  0  0  0  0  0  0  0
  -21.3060   -3.7740   26.0050 F   0  0  0  0  0  0  0  0  0  0  0  0
  -22.7950  -13.5600   21.1600 C   0  0  0  0  0  0  0  0  0  0  0  0
  -22.0840  -12.8710   22.0450 N   0  0  0  0  0  0  0  0  0  0  0  0
  -22.3550  -14.5960   20.6660 O   0  0  0  0  0  0  0  0  0  0  0  0
  -22.4440  -12.0340   22.4770 H   0  0  0  0  0  0  0  0  0  0  0  0
  -21.1610  -13.1950   22.3010 H   0  0  0  0  0  0  0  0  0  0  0  0
  -25.4190  -15.1960   20.2720 N   0  0  0  0  0  0  0  0  0  0  0  0
  -24.6710  -15.8640   20.4250 H   0  0  0  0  0  0  0  0  0  0  0  0
  -26.2720  -15.6260   19.9400 H   0  0  0  0  0  0  0  0  0  0  0  0
  -32.1870  -24.2040   17.3890 C   0  0  0  0  0  2  0  0  0  0  0  0
  -32.9710  -25.3510   17.0820 O   0  0  0  0  0  0  0  0  0  0  0  0
  -32.3560  -26.2840   16.1990 C   0  0  0  0  0  2  0  0  0  0  0  0
  -31.3580  -27.1820   16.9570 C   0  0  0  0  0  2  0  0  0  0  0  0
  -30.0360  -26.6580   16.8630 O   0  0  0  0  0  0  0  0  0  0  0  0
  -29.1290  -27.2120   17.8120 C   0  0  0  0  0  2  0  0  0  0  0  0
  -28.8620  -26.1790   18.9250 C   0  0  0  0  0  2  0  0  0  0  0  0
  -28.4450  -26.8030   20.1350 O   0  0  0  0  0  0  0  0  0  0  0  0
  -24.5820  -31.8760   23.2310 C   0  0  0  0  0  0  0  0  0  0  0  0
  -27.2450  -27.4710   20.1320 C   0  0  0  0  0  0  0  0  0  0  0  0
  -23.3710  -30.4650   21.5970 C   0  0  0  0  0  3  0  0  0  0  0  0
  -24.8260  -28.9280   20.1710 C   0  0  0  0  0  0  0  0  0  0  0  0
  -25.8890  -30.8390   21.3870 C   0  0  0  0  0  2  0  0  0  0  0  0
  -25.9780  -29.4660   20.7570 C   0  0  0  0  0  0  0  0  0  0  0  0
  -27.1830  -28.7340   20.7500 C   0  0  0  0  0  3  0  0  0  0  0  0
  -26.0750  -26.9320   19.5470 C   0  0  0  0  0  3  0  0  0  0  0  0
  -24.8650  -27.6560   19.5700 C   0  0  0  0  0  3  0  0  0  0  0  0
  -23.5740  -29.7730   20.2230 C   0  0  0  0  0  2  0  0  0  0  0  0
  -24.6320  -31.0760   22.1300 N   0  0  0  0  0  0  0  0  0  0  0  0
  -23.5020  -32.1480   23.7770 O   0  0  0  0  0  0  0  0  0  0  0  0
  -22.7270  -29.4470   22.5650 C   0  0  0  0  0  0  0  0  0  0  0  0
  -21.4040  -29.2620   22.4420 N   0  0  0  0  0  0  0  0  0  0  0  0
  -23.4160  -28.8230   23.3780 O   0  0  0  0  0  0  0  0  0  0  0  0
  -20.9110  -29.8120   21.7520 H   0  0  0  0  0  0  0  0  0  0  0  0
  -18.0300  -28.0790   22.9510 C   0  0  0  0  0  0  0  0  0  0  0  0
  -20.5880  -28.3270   23.2140 C   0  0  0  0  0  3  0  0  0  0  0  0
  -20.6860  -26.8970   22.6340 C   0  0  0  0  0  2  0  0  0  0  0  0
  -19.5790  -26.5790   21.6260 C   0  0  0  0  0  2  0  0  0  0  0  0
  -18.1990  -26.7300   22.2740 C   0  0  0  0  0  2  0  0  0  0  0  0
  -19.1530  -28.8380   23.3760 C   0  0  0  0  0  0  0  0  0  0  0  0
  -18.9400  -30.1040   23.9650 C   0  0  0  0  0  3  0  0  0  0  0  0
  -17.6380  -30.6090   24.1350 C   0  0  0  0  0  3  0  0  0  0  0  0
  -16.5290  -29.8470   23.7270 C   0  0  0  0  0  3  0  0  0  0  0  0
  -16.7270  -28.5840   23.1400 C   0  0  0  0  0  3  0  0  0  0  0  0
  -25.8700  -32.5110   23.8430 C   0  0  0  0  0  3  0  0  0  0  0  0
  -26.3990  -31.7400   25.1130 C   0  0  1  0  0  0  0  0  0  0  0  0
  -25.3150  -31.4950   26.1880 C   0  0  0  0  0  1  0  0  0  0  0  0
  -26.9820  -30.3660   24.7100 C   0  0  0  0  0  1  0  0  0  0  0  0
  -27.5500  -32.5360   25.7690 C   0  0  0  0  0  1  0  0  0  0  0  0
  -25.5620  -33.9080   24.1770 N   0  0  0  0  0  0  0  0  0  0  0  0
  -25.8970  -34.9610   23.4180 C   0  0  0  0  0  0  0  0  0  0  0  0
  -26.5700  -34.8580   22.3880 O   0  0  0  0  0  0  0  0  0  0  0  0
  -24.9700  -34.0600   24.9800 H   0  0  0  0  0  0  0  0  0  0  0  0
  -24.1750  -36.7540   23.0500 C   0  0  0  0  0  1  0  0  0  0  0  0
  -25.4070  -36.3470   23.8740 C   0  0  0  0  0  3  0  0  0  0  0  0
  -27.5350  -37.2230   24.7300 C   0  0  0  0  0  1  0  0  0  0  0  0
  -26.4430  -37.3990   23.7770 N   0  0  0  0  0  0  0  0  0  0  0  0
  -26.0360  -38.3190   23.9260 H   0  0  0  0  0  0  0  0  0  0  0  0
  1  3  1  0
  2  3  1  0
  2  6  1  0
  3  5  1  0
  4  2  2  0
  6  7  1  0
  8 21  1  0
  9 14  1  0
 10 11  1  0
 10  9  1  0
 12 11  1  0
 12 25  1  0
 12 13  1  0
 14  8  1  0
 14 13  1  0
 15  8  2  0
 16 18  1  0
 16 20  1  0
 18 21  1  0
 19 17  1  0
 20  7  1  0
 20 17  1  0
 21 19  1  0
 22 23  2  0
 23 42  1  0
 24 23  1  0
 24 27  1  0
 25 26  1  0
 25 22  1  0
 26 24  2  0
 27 28  1  0
 28 29  2  0
 30 33  1  0
 30 29  1  0
 31 30  2  0
 32 31  1  0
 32 27  2  0
 33 34  1  0
 34 35  1  0
 35 36  2  0
 37 36  1  0
 37 41  1  0
 38 37  2  0
 39 34  2  0
 39 38  1  0
 40 39  1  0
 42 43  1  0
 43 46  1  0
 43 45  1  0
 44 42  2  0
 47 48  1  0
 47 22  1  0
 49 47  1  0
 50  1  1  0
 51 50  1  0
 52 53  1  0
 52 51  1  0
 54 53  1  0
 54 55  1  0
 55 56  1  0
 56 57  1  0
 58 69  2  0
 59 57  1  0
 59 64  1  0
 60 68  1  0
 60 70  1  0
 61 67  1  0
 61 63  1  0
 62 68  1  0
 63 62  1  0
 64 63  2  0
 65 66  1  0
 65 59  2  0
 66 61  2  0
 67 60  1  0
 68 58  1  0
 70 72  2  0
 71 70  1  0
 73 71  1  0
 74 83  2  0
 74 79  1  0
 75 71  1  0
 75 79  1  0
 76 75  1  0
 77 78  1  0
 77 76  1  0
 78 74  1  0
 79 80  2  0
 80 81  1  0
 82 81  2  0
 83 82  1  0
 84 58  1  0
 84 89  1  0
 84 85  1  0
 85 88  1  1
 85 86  1  0
 87 85  1  0
 89 92  1  0
 90 94  1  0
 90 89  1  0
 91 90  2  0
 94 93  1  0
 96 94  1  0
 96 97  1  0
 96 95  1  0
M  ISO  4   8 100  21 100  56 101  57 101
M  END
>  <TORSDO>  (36) 
F 26

>  <SCORE>  (36) 
-11.848

>  <name>  (36) 
35

>  <ligand_id>  (36) 
35

>  <original_smiles>  (36) 
[H]c1c([H])c([H])c2c(c1[H])C([H])([H])C([H])([H])C([H])([H])C2([H])N([H])C(=O)C1([H])N(C(=O)C([H])(N([H])C(=O)C([H])(N([H])C([H])([H])[H])C([H])([H])[H])C(C([H])([H])[H])(C([H])([H])[H])C([H])([H])[H])C([H])([H])c2c([H])c(OC([H])([H])C([H])([H])OC([H])([H])C([H])([H])OC([H])([H])C([H])([H])N([H])C(=O)C([H])([H])OC3([H])C([H])([H])C([H])([H])N(C(=O)N4C([H])([H])C([H])([H])C([H])([H])C([H])(n5nc(-c6c([H])c([H])c(Oc7c([H])c([H])c(F)c([H])c7F)c([H])c6[H])c(C(=O)N([H])[H])c5N([H])[H])C4([H])[H])C([H])([H])C3([H])[H])c([H])c([H])c2C1([H])[H]

>  <smiles>  (36) 
[H]c1c([H])c([H])c2c(c1[H])C([H])([H])C([H])([H])C([H])([H])C2([H])N([H])C(=O)C1([H])N(C(=O)C([H])(N([H])C(=O)C([H])(N([H])C([H])([H])[H])C([H])([H])[H])C(C([H])([H])[H])(C([H])([H])[H])C([H])([H])[H])C([H])([H])c2c([H])c(OC([H])([H])C([H])([H])OC([H])([H])C([H])([H])OC([H])([H])C([H])([H])N([H])C(=O)C([H])([H])OC3([H])C([H])([H])C([H])([H])N(C(=O)N4C([H])([H])C([H])([H])C([H])([H])C([H])(n5nc(-c6c([H])c([H])c(Oc7c([H])c([H])c(F)c([H])c7F)c([H])c6[H])c(C(=O)N([H])[H])c5N([H])[H])C4([H])[H])C([H])([H])C3([H])[H])c([H])c([H])c2C1([H])[H]

$$$$
36:0:0
     RDKit          3D

104113  0  0  1  0  0  0  0  0999 V2000
  -34.0810  -19.1160   20.7380 C   0  0  0  0  0  3  0  0  0  0  0  0
  -33.2030  -19.9850   21.4190 C   0  0  0  0  0  3  0  0  0  0  0  0
  -34.7550  -20.9540   19.2980 C   0  0  0  0  0  3  0  0  0  0  0  0
  -34.8150  -19.5810   19.6270 C   0  0  0  0  0  0  0  0  0  0  0  0
  -33.0620  -21.3360   21.0320 C   0  0  0  0  0  0  0  0  0  0  0  0
  -33.9000  -21.8290   19.9960 C   0  0  0  0  0  0  0  0  0  0  0  0
  -33.8820  -23.1350   19.6350 F   0  0  0  0  0  0  0  0  0  0  0  0
  -35.5380  -18.6070   18.7430 C   0  0  0  0  0  0  0  0  0  0  0  0
  -35.4330  -18.9080   17.4440 N   0  0  0  0  0  0  0  0  0  0  0  0
  -35.9820  -17.5390   19.1640 O   0  0  0  0  0  0  0  0  0  0  0  0
  -35.1930  -19.8650   17.2400 H   0  0  0  0  0  0  0  0  0  0  0  0
  -35.1460  -17.9620   16.3710 C   0  0  0  0  0  2  0  0  0  0  0  0
  -33.6710  -18.0980   15.9140 C   0  0  0  0  0  2  0  0  0  0  0  0
  -32.1730  -16.1860   16.6390 C   0  0  0  0  0  3  0  0  0  0  0  0
  -32.3080  -18.1400   18.0730 C   0  0  0  0  0  3  0  0  0  0  0  0
  -31.4050  -15.5290   17.6180 C   0  0  0  0  0  3  0  0  0  0  0  0
  -31.5660  -17.4730   19.0700 C   0  0  0  0  0  3  0  0  0  0  0  0
  -32.6860  -17.4740   16.8900 C   0  0  0  0  0  0  0  0  0  0  0  0
  -31.1540  -16.1410   18.8680 C   0  0  0  0  0  0  0  0  0  0  0  0
  -31.2560  -14.4270   20.5500 C   0  0  0  0  0  0  0  0  0  0  0  0
  -31.0120  -12.0660   20.0440 C   0  0  0  0  0  2  0  0  0  0  0  0
  -30.2010  -11.9790   18.7330 C   0  0  0  0  0  2  0  0  0  0  0  0
  -28.6850  -11.9830   19.0070 C   0  0  0  0  0  2  0  0  0  0  0  0
  -28.2410  -13.0800   20.0070 C   0  0  0  0  0  3  0  0  0  0  0  0
  -29.1850  -13.1540   21.2300 C   0  0  0  0  0  2  0  0  0  0  0  0
  -30.5610  -13.2780   20.7320 N   0  0  0  0  0  0  0  0  0  0  0  0
  -32.4830  -14.4900   20.5720 O   0  0  0  0  0  0  0  0  0  0  0  0
  -30.5610  -15.3970   19.9290 N   0  0  0  0  0  0  0  0  0  0  0  0
  -29.5630  -15.2530   19.8820 H   0  0  0  0  0  0  0  0  0  0  0  0
  -25.8360  -13.8340   20.5300 C   0  0  0  0  0  0  0  0  0  0  0  0
  -24.7070  -13.1290   20.8410 C   0  0  0  0  0  0  0  0  0  0  0  0
  -25.0980  -11.7540   20.8950 C   0  0  0  0  0  0  0  0  0  0  0  0
  -26.8490  -12.8940   20.4080 N   0  0  0  0  0  0  0  0  0  0  0  0
  -26.4020  -11.6430   20.6870 N   0  0  0  0  0  0  0  0  0  0  0  0
  -24.2980  -10.5330   21.0730 C   0  0  0  0  0  0  0  0  0  0  0  0
  -24.6290   -9.5620   22.0460 C   0  0  0  0  0  3  0  0  0  0  0  0
  -23.8300   -8.4100   22.2060 C   0  0  0  0  0  3  0  0  0  0  0  0
  -22.6920   -8.2160   21.3890 C   0  0  0  0  0  0  0  0  0  0  0  0
  -22.3850   -9.1710   20.4030 C   0  0  0  0  0  3  0  0  0  0  0  0
  -23.1820  -10.3140   20.2400 C   0  0  0  0  0  3  0  0  0  0  0  0
  -21.8760   -7.1150   21.4560 O   0  0  0  0  0  0  0  0  0  0  0  0
  -21.7290   -6.3980   22.6160 C   0  0  0  0  0  0  0  0  0  0  0  0
  -21.2640   -6.9950   23.8090 C   0  0  0  0  0  3  0  0  0  0  0  0
  -21.0510   -6.2030   24.9540 C   0  0  0  0  0  3  0  0  0  0  0  0
  -21.3090   -4.8190   24.9120 C   0  0  0  0  0  0  0  0  0  0  0  0
  -21.7750   -4.2240   23.7270 C   0  0  0  0  0  3  0  0  0  0  0  0
  -21.9820   -5.0110   22.5800 C   0  0  0  0  0  0  0  0  0  0  0  0
  -22.4100   -4.4280   21.4340 F   0  0  0  0  0  0  0  0  0  0  0  0
  -21.1020   -4.0570   26.0130 F   0  0  0  0  0  0  0  0  0  0  0  0
  -23.3190  -13.6830   20.9930 C   0  0  0  0  0  0  0  0  0  0  0  0
  -22.4980  -13.0590   21.8300 N   0  0  0  0  0  0  0  0  0  0  0  0
  -22.9690  -14.7060   20.4030 O   0  0  0  0  0  0  0  0  0  0  0  0
  -22.7960  -12.2370   22.3340 H   0  0  0  0  0  0  0  0  0  0  0  0
  -21.5590  -13.4070   21.9690 H   0  0  0  0  0  0  0  0  0  0  0  0
  -26.0860  -15.1860   20.3150 N   0  0  0  0  0  0  0  0  0  0  0  0
  -25.3540  -15.8860   20.3310 H   0  0  0  0  0  0  0  0  0  0  0  0
  -26.9880  -15.5710   20.0610 H   0  0  0  0  0  0  0  0  0  0  0  0
  -32.0900  -22.0620   21.6970 O   0  0  0  0  0  0  0  0  0  0  0  0
  -31.5660  -23.2770   21.1400 C   0  0  0  0  0  2  0  0  0  0  0  0
  -30.5700  -23.0740   19.9730 C   0  0  0  0  0  2  0  0  0  0  0  0
  -29.3880  -23.8660   20.1040 O   0  0  0  0  0  0  0  0  0  0  0  0
  -28.6080  -23.8330   18.9060 C   0  0  0  0  0  2  0  0  0  0  0  0
  -27.2650  -24.5700   19.0390 C   0  0  0  0  0  2  0  0  0  0  0  0
  -27.4540  -25.9850   19.0820 O   0  0  0  0  0  0  0  0  0  0  0  0
  -24.5150  -31.2050   22.8910 C   0  0  0  0  0  0  0  0  0  0  0  0
  -26.3460  -26.7940   19.2410 C   0  0  0  0  0  0  0  0  0  0  0  0
  -23.0240  -30.1240   21.2400 C   0  0  0  0  0  3  0  0  0  0  0  0
  -24.1590  -28.5600   19.5820 C   0  0  0  0  0  0  0  0  0  0  0  0
  -25.5500  -30.1970   20.8600 C   0  0  0  0  0  2  0  0  0  0  0  0
  -25.4140  -28.8910   20.1060 C   0  0  0  0  0  0  0  0  0  0  0  0
  -26.5100  -28.0190   19.9250 C   0  0  0  0  0  3  0  0  0  0  0  0
  -25.0660  -26.4730   18.7240 C   0  0  0  0  0  3  0  0  0  0  0  0
  -23.9800  -27.3520   18.8900 C   0  0  0  0  0  3  0  0  0  0  0  0
  -23.0400  -29.5500   19.7980 C   0  0  0  0  0  2  0  0  0  0  0  0
  -24.3870  -30.5140   21.7220 N   0  0  0  0  0  0  0  0  0  0  0  0
  -23.5200  -31.5530   23.5410 O   0  0  0  0  0  0  0  0  0  0  0  0
  -22.3150  -29.1050   22.1620 C   0  0  0  0  0  0  0  0  0  0  0  0
  -20.9720  -29.0980   22.1250 N   0  0  0  0  0  0  0  0  0  0  0  0
  -22.9660  -28.3270   22.8640 O   0  0  0  0  0  0  0  0  0  0  0  0
  -20.5120  -29.7750   21.5320 H   0  0  0  0  0  0  0  0  0  0  0  0
  -17.5140  -28.2670   22.7630 C   0  0  0  0  0  0  0  0  0  0  0  0
  -20.0950  -28.1980   22.8740 C   0  0  0  0  0  3  0  0  0  0  0  0
  -19.9860  -26.8200   22.1820 C   0  0  0  0  0  2  0  0  0  0  0  0
  -18.7940  -26.7170   21.2260 C   0  0  0  0  0  2  0  0  0  0  0  0
  -17.4830  -26.9670   21.9760 C   0  0  0  0  0  2  0  0  0  0  0  0
  -18.7420  -28.8530   23.1710 C   0  0  0  0  0  0  0  0  0  0  0  0
  -18.7160  -30.0790   23.8700 C   0  0  0  0  0  3  0  0  0  0  0  0
  -17.4960  -30.7150   24.1630 C   0  0  0  0  0  3  0  0  0  0  0  0
  -16.2820  -30.1240   23.7710 C   0  0  0  0  0  3  0  0  0  0  0  0
  -16.2940  -28.9000   23.0770 C   0  0  0  0  0  3  0  0  0  0  0  0
  -25.9120  -31.6090   23.4570 C   0  0  0  0  0  3  0  0  0  0  0  0
  -26.4510  -30.6150   24.5580 C   0  0  1  0  0  0  0  0  0  0  0  0
  -25.4430  -30.3420   25.6980 C   0  0  0  0  0  1  0  0  0  0  0  0
  -26.8280  -29.2560   23.9220 C   0  0  0  0  0  1  0  0  0  0  0  0
  -27.7440  -31.1840   25.1910 C   0  0  0  0  0  1  0  0  0  0  0  0
  -25.7930  -32.9700   23.9970 N   0  0  0  0  0  0  0  0  0  0  0  0
  -26.2040  -34.0780   23.3640 C   0  0  0  0  0  0  0  0  0  0  0  0
  -26.7940  -34.0490   22.2800 O   0  0  0  0  0  0  0  0  0  0  0  0
  -25.2690  -33.0730   24.8530 H   0  0  0  0  0  0  0  0  0  0  0  0
  -24.6800  -36.0780   23.3920 C   0  0  0  0  0  1  0  0  0  0  0  0
  -25.9140  -35.4310   24.0400 C   0  0  0  0  0  3  0  0  0  0  0  0
  -28.1870  -35.9540   24.8080 C   0  0  0  0  0  1  0  0  0  0  0  0
  -27.0550  -36.3710   23.9850 N   0  0  0  0  0  0  0  0  0  0  0  0
  -26.7720  -37.3010   24.2810 H   0  0  0  0  0  0  0  0  0  0  0  0
  1  2  1  0
  3  4  1  0
  3  6  2  0
  4  1  2  0
  5  2  2  0
  5 58  1  0
  6  5  1  0
  7  6  1  0
  8 10  2  0
  8  4  1  0
  9  8  1  0
 11  9  1  0
 12  9  1  0
 13 12  1  0
 13 18  1  0
 14 18  2  0
 14 16  1  0
 15 17  2  0
 16 19  2  0
 18 15  1  0
 19 17  1  0
 19 28  1  0
 20 27  2  0
 20 26  1  0
 21 26  1  0
 22 23  1  0
 22 21  1  0
 24 23  1  0
 24 33  1  0
 24 25  1  0
 26 25  1  0
 28 20  1  0
 29 28  1  0
 30 31  2  0
 31 32  1  0
 31 50  1  0
 32 35  1  0
 33 30  1  0
 33 34  1  0
 34 32  2  0
 35 36  1  0
 36 37  2  0
 38 41  1  0
 38 37  1  0
 39 38  2  0
 40 39  1  0
 40 35  2  0
 41 42  1  0
 42 43  1  0
 43 44  2  0
 45 44  1  0
 45 49  1  0
 46 45  2  0
 47 42  2  0
 47 46  1  0
 48 47  1  0
 50 51  1  0
 51 54  1  0
 51 53  1  0
 52 50  2  0
 55 56  1  0
 55 30  1  0
 57 55  1  0
 59 58  1  0
 60 61  1  0
 60 59  1  0
 62 63  1  0
 62 61  1  0
 63 64  1  0
 64 66  1  0
 65 76  2  0
 66 71  1  0
 67 75  1  0
 67 77  1  0
 68 74  1  0
 68 70  1  0
 69 75  1  0
 70 69  1  0
 71 70  2  0
 72 73  1  0
 72 66  2  0
 73 68  2  0
 74 67  1  0
 75 65  1  0
 77 79  2  0
 78 77  1  0
 80 78  1  0
 81 90  2  0
 81 86  1  0
 82 78  1  0
 82 86  1  0
 83 82  1  0
 84 85  1  0
 84 83  1  0
 85 81  1  0
 86 87  2  0
 87 88  1  0
 89 88  2  0
 90 89  1  0
 91 65  1  0
 91 96  1  0
 91 92  1  0
 92 95  1  1
 92 93  1  0
 94 92  1  0
 96 99  1  0
 97 96  1  0
 97101  1  0
 98 97  2  0
101100  1  0
103101  1  0
103104  1  0
103102  1  0
M  ISO  4  20 100  28 100  63 101  64 101
M  END
>  <TORSDO>  (37) 
F 26

>  <SCORE>  (37) 
-9.861

>  <name>  (37) 
36

>  <ligand_id>  (37) 
36

>  <original_smiles>  (37) 
[H]c1c([H])c([H])c2c(c1[H])C([H])([H])C([H])([H])C([H])([H])C2([H])N([H])C(=O)C1([H])N(C(=O)C([H])(N([H])C(=O)C([H])(N([H])C([H])([H])[H])C([H])([H])[H])C(C([H])([H])[H])(C([H])([H])[H])C([H])([H])[H])C([H])([H])c2c([H])c(OC([H])([H])C([H])([H])OC([H])([H])C([H])([H])Oc3c([H])c([H])c(C(=O)N([H])C([H])([H])C([H])([H])c4c([H])c([H])c(N([H])C(=O)N5C([H])([H])C([H])([H])C([H])([H])C([H])(n6nc(-c7c([H])c([H])c(Oc8c([H])c([H])c(F)c([H])c8F)c([H])c7[H])c(C(=O)N([H])[H])c6N([H])[H])C5([H])[H])c([H])c4[H])c([H])c3F)c([H])c([H])c2C1([H])[H]

>  <smiles>  (37) 
[H]c1c([H])c([H])c2c(c1[H])C([H])([H])C([H])([H])C([H])([H])C2([H])N([H])C(=O)C1([H])N(C(=O)C([H])(N([H])C(=O)C([H])(N([H])C([H])([H])[H])C([H])([H])[H])C(C([H])([H])[H])(C([H])([H])[H])C([H])([H])[H])C([H])([H])c2c([H])c(OC([H])([H])C([H])([H])OC([H])([H])C([H])([H])Oc3c([H])c([H])c(C(=O)N([H])C([H])([H])C([H])([H])c4c([H])c([H])c(N([H])C(=O)N5C([H])([H])C([H])([H])C([H])([H])C([H])(n6nc(-c7c([H])c([H])c(Oc8c([H])c([H])c(F)c([H])c8F)c([H])c7[H])c(C(=O)N([H])[H])c6N([H])[H])C5([H])[H])c([H])c4[H])c([H])c3F)c([H])c([H])c2C1([H])[H]

$$$$
37:0:0
     RDKit          3D

 97105  0  0  1  0  0  0  0  0999 V2000
  -29.5020  -21.1740   16.9360 C   0  0  0  0  0  2  0  0  0  0  0  0
  -30.5600  -21.3870   17.9300 N   0  0  0  0  0  0  0  0  0  0  0  0
  -30.5200  -22.3340   18.2990 H   0  0  0  0  0  0  0  0  0  0  0  0
  -30.7540  -19.7860   21.2880 C   0  0  0  0  0  3  0  0  0  0  0  0
  -30.7630  -18.4140   20.9440 C   0  0  0  0  0  3  0  0  0  0  0  0
  -30.7250  -20.7760   20.2860 C   0  0  0  0  0  3  0  0  0  0  0  0
  -30.6660  -19.0360   18.5910 C   0  0  0  0  0  3  0  0  0  0  0  0
  -30.7280  -18.0310   19.5840 C   0  0  0  0  0  0  0  0  0  0  0  0
  -30.6570  -20.4060   18.9280 C   0  0  0  0  0  0  0  0  0  0  0  0
  -31.0710  -14.3970   20.0020 C   0  0  0  0  0  0  0  0  0  0  0  0
  -30.5520  -12.2670   18.9660 C   0  0  0  0  0  2  0  0  0  0  0  0
  -29.6030  -12.5510   17.7870 C   0  0  0  0  0  2  0  0  0  0  0  0
  -28.1400  -12.4930   18.2580 C   0  0  0  0  0  2  0  0  0  0  0  0
  -27.8810  -13.3130   19.5510 C   0  0  0  0  0  3  0  0  0  0  0  0
  -28.9730  -13.1020   20.6210 C   0  0  0  0  0  2  0  0  0  0  0  0
  -30.2810  -13.2920   19.9840 N   0  0  0  0  0  0  0  0  0  0  0  0
  -32.2800  -14.3200   19.7860 O   0  0  0  0  0  0  0  0  0  0  0  0
  -30.9350  -16.6020   19.1570 C   0  0  0  0  0  0  0  0  0  0  0  0
  -30.4540  -15.5960   19.9270 N   0  0  0  0  0  0  0  0  0  0  0  0
  -31.5350  -16.4110   18.0890 O   0  0  0  0  0  0  0  0  0  0  0  0
  -29.6180  -15.7540   20.4620 H   0  0  0  0  0  0  0  0  0  0  0  0
  -25.5220  -13.9690   20.3280 C   0  0  0  0  0  0  0  0  0  0  0  0
  -24.4450  -13.2220   20.7290 C   0  0  0  0  0  0  0  0  0  0  0  0
  -24.8750  -11.8590   20.6930 C   0  0  0  0  0  0  0  0  0  0  0  0
  -26.5410  -13.0630   20.0800 N   0  0  0  0  0  0  0  0  0  0  0  0
  -26.1570  -11.7900   20.3550 N   0  0  0  0  0  0  0  0  0  0  0  0
  -24.1240  -10.6170   20.9080 C   0  0  0  0  0  0  0  0  0  0  0  0
  -24.5460   -9.6550   21.8530 C   0  0  0  0  0  3  0  0  0  0  0  0
  -23.7990   -8.4730   22.0550 C   0  0  0  0  0  3  0  0  0  0  0  0
  -22.6160   -8.2470   21.3130 C   0  0  0  0  0  0  0  0  0  0  0  0
  -22.2160   -9.1950   20.3560 C   0  0  0  0  0  3  0  0  0  0  0  0
  -22.9610  -10.3680   20.1530 C   0  0  0  0  0  3  0  0  0  0  0  0
  -21.8410   -7.1160   21.4230 O   0  0  0  0  0  0  0  0  0  0  0  0
  -21.7720   -6.4020   22.5940 C   0  0  0  0  0  0  0  0  0  0  0  0
  -21.3310   -6.9890   23.7990 C   0  0  0  0  0  3  0  0  0  0  0  0
  -21.2060   -6.2020   24.9600 C   0  0  0  0  0  3  0  0  0  0  0  0
  -21.5120   -4.8300   24.9180 C   0  0  0  0  0  0  0  0  0  0  0  0
  -21.9460   -4.2420   23.7170 C   0  0  0  0  0  3  0  0  0  0  0  0
  -22.0730   -5.0260   22.5580 C   0  0  0  0  0  0  0  0  0  0  0  0
  -22.4710   -4.4510   21.3980 F   0  0  0  0  0  0  0  0  0  0  0  0
  -21.3870   -4.0710   26.0320 F   0  0  0  0  0  0  0  0  0  0  0  0
  -23.0680  -13.7330   21.0300 C   0  0  0  0  0  0  0  0  0  0  0  0
  -22.3440  -13.0590   21.9170 N   0  0  0  0  0  0  0  0  0  0  0  0
  -22.6450  -14.7670   20.5140 O   0  0  0  0  0  0  0  0  0  0  0  0
  -22.6980  -12.2200   22.3540 H   0  0  0  0  0  0  0  0  0  0  0  0
  -21.4190  -13.3860   22.1550 H   0  0  0  0  0  0  0  0  0  0  0  0
  -25.7190  -15.3300   20.1290 N   0  0  0  0  0  0  0  0  0  0  0  0
  -24.9770  -16.0130   20.2310 H   0  0  0  0  0  0  0  0  0  0  0  0
  -26.5690  -15.7300   19.7540 H   0  0  0  0  0  0  0  0  0  0  0  0
  -28.3720  -22.2150   17.0670 C   0  0  0  0  0  2  0  0  0  0  0  0
  -28.1280  -22.5690   18.4150 O   0  0  0  0  0  0  0  0  0  0  0  0
  -27.3740  -21.6630   19.2040 C   0  0  0  0  0  2  0  0  0  0  0  0
  -27.2040  -22.2460   20.6280 C   0  0  0  0  0  2  0  0  0  0  0  0
  -28.1270  -23.2980   20.9480 O   0  0  0  0  0  0  0  0  0  0  0  0
  -27.7030  -24.5890   20.5020 C   0  0  0  0  0  2  0  0  0  0  0  0
  -28.5360  -25.7350   21.1130 C   0  0  0  0  0  2  0  0  0  0  0  0
  -28.6440  -26.8950   20.2690 O   0  0  0  0  0  0  0  0  0  0  0  0
  -24.6350  -31.9370   23.2520 C   0  0  0  0  0  0  0  0  0  0  0  0
  -27.4920  -27.6350   20.1960 C   0  0  0  0  0  0  0  0  0  0  0  0
  -23.5290  -30.5320   21.5440 C   0  0  0  0  0  3  0  0  0  0  0  0
  -25.0710  -29.0770   20.1390 C   0  0  0  0  0  0  0  0  0  0  0  0
  -26.0470  -30.9710   21.4440 C   0  0  0  0  0  2  0  0  0  0  0  0
  -26.1920  -29.6160   20.7860 C   0  0  0  0  0  0  0  0  0  0  0  0
  -27.4080  -28.8970   20.8220 C   0  0  0  0  0  3  0  0  0  0  0  0
  -26.3700  -27.1350   19.5010 C   0  0  0  0  0  3  0  0  0  0  0  0
  -25.1550  -27.8330   19.4950 C   0  0  0  0  0  3  0  0  0  0  0  0
  -23.8030  -29.8930   20.1580 C   0  0  0  0  0  2  0  0  0  0  0  0
  -24.7520  -31.1600   22.1390 N   0  0  0  0  0  0  0  0  0  0  0  0
  -23.5280  -32.1640   23.7590 O   0  0  0  0  0  0  0  0  0  0  0  0
  -22.8770  -29.4680   22.4580 C   0  0  0  0  0  0  0  0  0  0  0  0
  -21.5600  -29.2580   22.2910 N   0  0  0  0  0  0  0  0  0  0  0  0
  -23.5540  -28.8370   23.2730 O   0  0  0  0  0  0  0  0  0  0  0  0
  -21.0740  -29.8190   21.6050 H   0  0  0  0  0  0  0  0  0  0  0  0
  -18.1990  -27.9880   22.6900 C   0  0  0  0  0  0  0  0  0  0  0  0
  -20.7480  -28.2840   23.0200 C   0  0  0  0  0  3  0  0  0  0  0  0
  -20.8870  -26.8690   22.4110 C   0  0  0  0  0  2  0  0  0  0  0  0
  -19.8120  -26.5540   21.3670 C   0  0  0  0  0  2  0  0  0  0  0  0
  -18.4150  -26.6600   21.9840 C   0  0  0  0  0  2  0  0  0  0  0  0
  -19.2970  -28.7580   23.1630 C   0  0  0  0  0  0  0  0  0  0  0  0
  -19.0420  -30.0020   23.7820 C   0  0  0  0  0  3  0  0  0  0  0  0
  -17.7260  -30.4770   23.9290 C   0  0  0  0  0  3  0  0  0  0  0  0
  -16.6430  -29.7050   23.4740 C   0  0  0  0  0  3  0  0  0  0  0  0
  -16.8820  -28.4620   22.8600 C   0  0  0  0  0  3  0  0  0  0  0  0
  -25.8790  -32.5960   23.9210 C   0  0  0  0  0  3  0  0  0  0  0  0
  -26.3550  -31.8420   25.2210 C   0  0  1  0  0  0  0  0  0  0  0  0
  -25.2220  -31.5850   26.2430 C   0  0  0  0  0  1  0  0  0  0  0  0
  -26.9830  -30.4770   24.8580 C   0  0  0  0  0  1  0  0  0  0  0  0
  -27.4610  -32.6630   25.9270 C   0  0  0  0  0  1  0  0  0  0  0  0
  -25.5310  -33.9890   24.2260 N   0  0  0  0  0  0  0  0  0  0  0  0
  -25.8710  -35.0400   23.4680 C   0  0  0  0  0  0  0  0  0  0  0  0
  -26.5820  -34.9400   22.4640 O   0  0  0  0  0  0  0  0  0  0  0  0
  -24.9080  -34.1390   25.0060 H   0  0  0  0  0  0  0  0  0  0  0  0
  -24.1290  -36.7950   23.0160 C   0  0  0  0  0  1  0  0  0  0  0  0
  -25.3380  -36.4230   23.8900 C   0  0  0  0  0  3  0  0  0  0  0  0
  -27.4130  -37.3530   24.8140 C   0  0  0  0  0  1  0  0  0  0  0  0
  -26.3540  -37.4940   23.8170 N   0  0  0  0  0  0  0  0  0  0  0  0
  -25.9250  -38.4060   23.9450 H   0  0  0  0  0  0  0  0  0  0  0  0
  1 50  1  0
  1  2  1  0
  2  3  1  0
  2  9  1  0
  5  4  1  0
  6  4  2  0
  7  9  2  0
  7  8  1  0
  8  5  2  0
  9  6  1  0
 11 16  1  0
 12 13  1  0
 12 11  1  0
 14 13  1  0
 14 25  1  0
 14 15  1  0
 16 10  1  0
 16 15  1  0
 17 10  2  0
 18  8  1  0
 18 19  1  0
 19 10  1  0
 19 21  1  0
 20 18  2  0
 22 23  2  0
 23 42  1  0
 24 23  1  0
 24 27  1  0
 25 22  1  0
 25 26  1  0
 26 24  2  0
 27 28  1  0
 28 29  2  0
 30 33  1  0
 30 29  1  0
 31 30  2  0
 32 31  1  0
 32 27  2  0
 33 34  1  0
 34 35  1  0
 35 36  2  0
 37 36  1  0
 37 41  1  0
 38 37  2  0
 39 34  2  0
 39 38  1  0
 40 39  1  0
 42 43  1  0
 43 46  1  0
 43 45  1  0
 44 42  2  0
 47 48  1  0
 47 22  1  0
 49 47  1  0
 50 51  1  0
 51 52  1  0
 52 53  1  0
 53 54  1  0
 55 54  1  0
 55 56  1  0
 57 56  1  0
 58 69  2  0
 59 57  1  0
 59 64  1  0
 60 68  1  0
 60 70  1  0
 61 67  1  0
 61 63  1  0
 62 68  1  0
 63 64  2  0
 63 62  1  0
 65 59  2  0
 66 65  1  0
 66 61  2  0
 67 60  1  0
 68 58  1  0
 70 72  2  0
 71 70  1  0
 73 71  1  0
 74 83  2  0
 74 79  1  0
 75 71  1  0
 75 79  1  0
 76 75  1  0
 77 78  1  0
 77 76  1  0
 78 74  1  0
 79 80  2  0
 80 81  1  0
 82 81  2  0
 83 82  1  0
 84 58  1  0
 84 89  1  0
 84 85  1  0
 85 88  1  1
 85 86  1  0
 87 85  1  0
 89 92  1  0
 90 94  1  0
 90 89  1  0
 91 90  2  0
 94 93  1  0
 96 94  1  0
 96 97  1  0
 96 95  1  0
M  ISO  4  10 100  19 100  56 101  57 101
M  END
>  <TORSDO>  (38) 
F 25

>  <SCORE>  (38) 
-11.983

>  <name>  (38) 
37

>  <ligand_id>  (38) 
37

>  <original_smiles>  (38) 
[H]c1c([H])c(C(=O)N([H])C(=O)N2C([H])([H])C([H])([H])C([H])([H])C([H])(n3nc(-c4c([H])c([H])c(Oc5c([H])c([H])c(F)c([H])c5F)c([H])c4[H])c(C(=O)N([H])[H])c3N([H])[H])C2([H])[H])c([H])c(N([H])C([H])([H])C([H])([H])OC([H])([H])C([H])([H])OC([H])([H])C([H])([H])Oc2c([H])c([H])c3c(c2[H])C([H])([H])N(C(=O)C([H])(N([H])C(=O)C([H])(N([H])C([H])([H])[H])C([H])([H])[H])C(C([H])([H])[H])(C([H])([H])[H])C([H])([H])[H])C([H])(C(=O)N([H])C2([H])c4c([H])c([H])c([H])c([H])c4C([H])([H])C([H])([H])C2([H])[H])C3([H])[H])c1[H]

>  <smiles>  (38) 
[H]c1c([H])c(C(=O)N([H])C(=O)N2C([H])([H])C([H])([H])C([H])([H])C([H])(n3nc(-c4c([H])c([H])c(Oc5c([H])c([H])c(F)c([H])c5F)c([H])c4[H])c(C(=O)N([H])[H])c3N([H])[H])C2([H])[H])c([H])c(N([H])C([H])([H])C([H])([H])OC([H])([H])C([H])([H])OC([H])([H])C([H])([H])Oc2c([H])c([H])c3c(c2[H])C([H])([H])N(C(=O)C([H])(N([H])C(=O)C([H])(N([H])C([H])([H])[H])C([H])([H])[H])C(C([H])([H])[H])(C([H])([H])[H])C([H])([H])[H])C([H])(C(=O)N([H])C2([H])c4c([H])c([H])c([H])c([H])c4C([H])([H])C([H])([H])C2([H])[H])C3([H])[H])c1[H]

$$$$
38:0:0
     RDKit          3D

 92 99  0  0  1  0  0  0  0  0999 V2000
  -31.1070  -23.1800   19.1760 C   0  0  0  0  0  2  0  0  0  0  0  0
  -31.8810  -24.4010   19.6970 C   0  0  0  0  0  2  0  0  0  0  0  0
  -30.9920  -25.3560   20.2720 O   0  0  0  0  0  0  0  0  0  0  0  0
  -30.5880  -26.3860   19.3720 C   0  0  0  0  0  2  0  0  0  0  0  0
  -29.6180  -27.3350   20.0820 C   0  0  0  0  0  2  0  0  0  0  0  0
  -28.3640  -26.6780   20.0800 O   0  0  0  0  0  0  0  0  0  0  0  0
  -24.6090  -31.8800   23.2380 C   0  0  0  0  0  0  0  0  0  0  0  0
  -27.2360  -27.4520   20.1550 C   0  0  0  0  0  0  0  0  0  0  0  0
  -23.3920  -30.4680   21.6080 C   0  0  0  0  0  3  0  0  0  0  0  0
  -24.8360  -28.9270   20.1860 C   0  0  0  0  0  0  0  0  0  0  0  0
  -25.9090  -30.8380   21.3890 C   0  0  0  0  0  2  0  0  0  0  0  0
  -25.9920  -29.4640   20.7620 C   0  0  0  0  0  0  0  0  0  0  0  0
  -27.1960  -28.7320   20.7550 C   0  0  0  0  0  3  0  0  0  0  0  0
  -26.0610  -26.9160   19.5930 C   0  0  0  0  0  3  0  0  0  0  0  0
  -24.8580  -27.6460   19.6040 C   0  0  0  0  0  3  0  0  0  0  0  0
  -23.5930  -29.7850   20.2270 C   0  0  0  0  0  2  0  0  0  0  0  0
  -24.6560  -31.0760   22.1380 N   0  0  0  0  0  0  0  0  0  0  0  0
  -23.5330  -32.1540   23.7840 O   0  0  0  0  0  0  0  0  0  0  0  0
  -22.7520  -29.4480   22.5750 C   0  0  0  0  0  0  0  0  0  0  0  0
  -21.4280  -29.2640   22.4550 N   0  0  0  0  0  0  0  0  0  0  0  0
  -23.4400  -28.8250   23.3850 O   0  0  0  0  0  0  0  0  0  0  0  0
  -20.9360  -29.8250   21.7730 H   0  0  0  0  0  0  0  0  0  0  0  0
  -18.0550  -28.0770   22.9610 C   0  0  0  0  0  0  0  0  0  0  0  0
  -20.6120  -28.3300   23.2300 C   0  0  0  0  0  3  0  0  0  0  0  0
  -20.7130  -26.8980   22.6580 C   0  0  0  0  0  2  0  0  0  0  0  0
  -19.6090  -26.5700   21.6480 C   0  0  0  0  0  2  0  0  0  0  0  0
  -18.2290  -26.7230   22.2920 C   0  0  0  0  0  2  0  0  0  0  0  0
  -19.1750  -28.8390   23.3850 C   0  0  0  0  0  0  0  0  0  0  0  0
  -18.9630  -30.1070   23.9680 C   0  0  0  0  0  3  0  0  0  0  0  0
  -17.6610  -30.6140   24.1320 C   0  0  0  0  0  3  0  0  0  0  0  0
  -16.5540  -29.8490   23.7270 C   0  0  0  0  0  3  0  0  0  0  0  0
  -16.7510  -28.5840   23.1470 C   0  0  0  0  0  3  0  0  0  0  0  0
  -25.9010  -32.5120   23.8450 C   0  0  0  0  0  3  0  0  0  0  0  0
  -26.4340  -31.7360   25.1120 C   0  0  1  0  0  0  0  0  0  0  0  0
  -25.3540  -31.4930   26.1910 C   0  0  0  0  0  1  0  0  0  0  0  0
  -27.0130  -30.3620   24.7030 C   0  0  0  0  0  1  0  0  0  0  0  0
  -27.5910  -32.5270   25.7680 C   0  0  0  0  0  1  0  0  0  0  0  0
  -25.5960  -33.9080   24.1810 N   0  0  0  0  0  0  0  0  0  0  0  0
  -25.9220  -34.9620   23.4190 C   0  0  0  0  0  0  0  0  0  0  0  0
  -26.5870  -34.8600   22.3840 O   0  0  0  0  0  0  0  0  0  0  0  0
  -25.0090  -34.0620   24.9870 H   0  0  0  0  0  0  0  0  0  0  0  0
  -24.1850  -36.7460   23.0720 C   0  0  0  0  0  1  0  0  0  0  0  0
  -25.4290  -36.3470   23.8800 C   0  0  0  0  0  3  0  0  0  0  0  0
  -27.5680  -37.2270   24.7000 C   0  0  0  0  0  1  0  0  0  0  0  0
  -26.4560  -37.4060   23.7710 N   0  0  0  0  0  0  0  0  0  0  0  0
  -26.0490  -38.3210   23.9410 H   0  0  0  0  0  0  0  0  0  0  0  0
  -31.9970  -22.1850   18.4100 C   0  0  0  0  0  2  0  0  0  0  0  0
  -31.2220  -21.0250   18.1420 O   0  0  0  0  0  0  0  0  0  0  0  0
  -31.8020  -20.1210   17.2070 C   0  0  0  0  0  2  0  0  0  0  0  0
  -30.9400  -18.8470   17.1940 C   0  0  0  0  0  2  0  0  0  0  0  0
  -31.2600  -17.8920   18.3590 C   0  0  0  0  0  2  0  0  0  0  0  0
  -30.8670  -18.4760   19.5980 O   0  0  0  0  0  0  0  0  0  0  0  0
  -31.0060  -17.6090   20.7140 C   0  0  0  0  0  2  0  0  0  0  0  0
  -29.7440  -16.7360   20.8530 C   0  0  0  0  0  2  0  0  0  0  0  0
  -30.6450  -14.4340   20.5090 C   0  0  0  0  0  0  0  0  0  0  0  0
  -30.3560  -12.3360   19.2660 C   0  0  0  0  0  2  0  0  0  0  0  0
  -29.4040  -12.6400   18.0920 C   0  0  0  0  0  2  0  0  0  0  0  0
  -27.9310  -12.4850   18.5160 C   0  0  0  0  0  2  0  0  0  0  0  0
  -27.6190  -13.2370   19.8380 C   0  0  0  0  0  3  0  0  0  0  0  0
  -28.6780  -12.9350   20.9270 C   0  0  0  0  0  2  0  0  0  0  0  0
  -30.0090  -13.2450   20.3700 N   0  0  0  0  0  0  0  0  0  0  0  0
  -31.6940  -14.7090   19.9200 O   0  0  0  0  0  0  0  0  0  0  0  0
  -29.9650  -15.3390   21.2310 N   0  0  0  0  0  0  0  0  0  0  0  0
  -29.2150  -14.9490   21.7830 H   0  0  0  0  0  0  0  0  0  0  0  0
  -25.2110  -13.8410   20.5070 C   0  0  0  0  0  0  0  0  0  0  0  0
  -24.1440  -13.0720   20.8790 C   0  0  0  0  0  0  0  0  0  0  0  0
  -24.6060  -11.7200   20.8610 C   0  0  0  0  0  0  0  0  0  0  0  0
  -26.2610  -12.9610   20.2960 N   0  0  0  0  0  0  0  0  0  0  0  0
  -25.8960  -11.6800   20.5520 N   0  0  0  0  0  0  0  0  0  0  0  0
  -23.8800  -10.4600   21.0610 C   0  0  0  0  0  0  0  0  0  0  0  0
  -24.3360   -9.4850   21.9760 C   0  0  0  0  0  3  0  0  0  0  0  0
  -23.6140   -8.2870   22.1630 C   0  0  0  0  0  3  0  0  0  0  0  0
  -22.4210   -8.0550   21.4350 C   0  0  0  0  0  0  0  0  0  0  0  0
  -21.9860   -9.0180   20.5060 C   0  0  0  0  0  3  0  0  0  0  0  0
  -22.7080  -10.2080   20.3180 C   0  0  0  0  0  3  0  0  0  0  0  0
  -21.6660   -6.9100   21.5310 O   0  0  0  0  0  0  0  0  0  0  0  0
  -21.6690   -6.1410   22.6650 C   0  0  0  0  0  0  0  0  0  0  0  0
  -21.3230   -6.6730   23.9270 C   0  0  0  0  0  3  0  0  0  0  0  0
  -21.2710   -5.8320   25.0550 C   0  0  0  0  0  3  0  0  0  0  0  0
  -21.5550   -4.4600   24.9250 C   0  0  0  0  0  0  0  0  0  0  0  0
  -21.8980   -3.9260   23.6710 C   0  0  0  0  0  3  0  0  0  0  0  0
  -21.9510   -4.7650   22.5430 C   0  0  0  0  0  0  0  0  0  0  0  0
  -22.2610   -4.2450   21.3310 F   0  0  0  0  0  0  0  0  0  0  0  0
  -21.4960   -3.6510   26.0120 F   0  0  0  0  0  0  0  0  0  0  0  0
  -22.7480  -13.5460   21.1560 C   0  0  0  0  0  0  0  0  0  0  0  0
  -22.0250  -12.8590   22.0310 N   0  0  0  0  0  0  0  0  0  0  0  0
  -22.3030  -14.5670   20.6280 O   0  0  0  0  0  0  0  0  0  0  0  0
  -22.3840  -12.0240   22.4710 H   0  0  0  0  0  0  0  0  0  0  0  0
  -21.0870  -13.1680   22.2480 H   0  0  0  0  0  0  0  0  0  0  0  0
  -25.3770  -15.2140   20.3290 N   0  0  0  0  0  0  0  0  0  0  0  0
  -24.5980  -15.8560   20.4350 H   0  0  0  0  0  0  0  0  0  0  0  0
  -26.2280  -15.6690   20.0260 H   0  0  0  0  0  0  0  0  0  0  0  0
  1  2  1  0
  2  3  1  0
  4  5  1  0
  4  3  1  0
  6  5  1  0
  6  8  1  0
  7 18  2  0
  8 13  1  0
  9 17  1  0
  9 19  1  0
 10 16  1  0
 10 12  1  0
 11 17  1  0
 12 11  1  0
 13 12  2  0
 14 15  1  0
 14  8  2  0
 15 10  2  0
 16  9  1  0
 17  7  1  0
 19 21  2  0
 20 19  1  0
 22 20  1  0
 23 32  2  0
 23 28  1  0
 24 20  1  0
 24 28  1  0
 25 24  1  0
 26 27  1  0
 26 25  1  0
 27 23  1  0
 28 29  2  0
 29 30  1  0
 31 30  2  0
 32 31  1  0
 33  7  1  0
 33 38  1  0
 33 34  1  0
 34 37  1  1
 34 35  1  0
 36 34  1  0
 38 41  1  0
 39 43  1  0
 39 38  1  0
 40 39  2  0
 43 42  1  0
 45 43  1  0
 45 46  1  0
 45 44  1  0
 47  1  1  0
 48 47  1  0
 49 48  1  0
 50 49  1  0
 50 51  1  0
 51 52  1  0
 52 53  1  0
 53 54  1  0
 54 63  1  0
 55 63  1  0
 56 61  1  0
 57 58  1  0
 57 56  1  0
 59 58  1  0
 59 68  1  0
 59 60  1  0
 61 55  1  0
 61 60  1  0
 62 55  2  0
 63 64  1  0
 65 66  2  0
 66 85  1  0
 67 66  1  0
 67 70  1  0
 68 65  1  0
 68 69  1  0
 69 67  2  0
 70 71  1  0
 71 72  2  0
 73 76  1  0
 73 72  1  0
 74 73  2  0
 75 74  1  0
 75 70  2  0
 76 77  1  0
 77 78  1  0
 78 79  2  0
 80 79  1  0
 80 84  1  0
 81 80  2  0
 82 77  2  0
 82 81  1  0
 83 82  1  0
 85 86  1  0
 86 89  1  0
 86 88  1  0
 87 85  2  0
 90 91  1  0
 90 65  1  0
 92 90  1  0
M  ISO  4   5 101   6 101  55 100  63 100
M  END
>  <TORSDO>  (39) 
F 28

>  <SCORE>  (39) 
-11.274

>  <name>  (39) 
38

>  <ligand_id>  (39) 
38

>  <original_smiles>  (39) 
[H]c1c([H])c([H])c2c(c1[H])C([H])([H])C([H])([H])C([H])([H])C2([H])N([H])C(=O)C1([H])N(C(=O)C([H])(N([H])C(=O)C([H])(N([H])C([H])([H])[H])C([H])([H])[H])C(C([H])([H])[H])(C([H])([H])[H])C([H])([H])[H])C([H])([H])c2c([H])c(OC([H])([H])C([H])([H])OC([H])([H])C([H])([H])C([H])([H])OC([H])([H])C([H])([H])C([H])([H])OC([H])([H])C([H])([H])N([H])C(=O)N3C([H])([H])C([H])([H])C([H])([H])C([H])(n4nc(-c5c([H])c([H])c(Oc6c([H])c([H])c(F)c([H])c6F)c([H])c5[H])c(C(=O)N([H])[H])c4N([H])[H])C3([H])[H])c([H])c([H])c2C1([H])[H]

>  <smiles>  (39) 
[H]c1c([H])c([H])c2c(c1[H])C([H])([H])C([H])([H])C([H])([H])C2([H])N([H])C(=O)C1([H])N(C(=O)C([H])(N([H])C(=O)C([H])(N([H])C([H])([H])[H])C([H])([H])[H])C(C([H])([H])[H])(C([H])([H])[H])C([H])([H])[H])C([H])([H])c2c([H])c(OC([H])([H])C([H])([H])OC([H])([H])C([H])([H])C([H])([H])OC([H])([H])C([H])([H])C([H])([H])OC([H])([H])C([H])([H])N([H])C(=O)N3C([H])([H])C([H])([H])C([H])([H])C([H])(n4nc(-c5c([H])c([H])c(Oc6c([H])c([H])c(F)c([H])c6F)c([H])c5[H])c(C(=O)N([H])[H])c4N([H])[H])C3([H])[H])c([H])c([H])c2C1([H])[H]

$$$$
39:0:0
     RDKit          3D

 87 94  0  0  1  0  0  0  0  0999 V2000
  -29.1130  -22.7980   20.1480 O   0  0  0  0  0  0  0  0  0  0  0  0
  -29.2650  -24.1800   20.5710 C   0  0  0  0  0  2  0  0  0  0  0  0
  -28.1950  -25.1410   19.9510 C   0  0  0  0  0  2  0  0  0  0  0  0
  -28.3440  -26.5690   20.2300 O   0  0  0  0  0  0  0  0  0  0  0  0
  -24.6030  -31.8820   23.2540 C   0  0  0  0  0  0  0  0  0  0  0  0
  -27.2030  -27.3700   20.1730 C   0  0  0  0  0  0  0  0  0  0  0  0
  -23.3880  -30.4910   21.6140 C   0  0  0  0  0  3  0  0  0  0  0  0
  -24.8290  -28.9470   20.1790 C   0  0  0  0  0  0  0  0  0  0  0  0
  -25.9230  -30.8160   21.4190 C   0  0  0  0  0  2  0  0  0  0  0  0
  -25.9960  -29.4430   20.7740 C   0  0  0  0  0  0  0  0  0  0  0  0
  -27.1840  -28.6630   20.7670 C   0  0  0  0  0  3  0  0  0  0  0  0
  -26.0140  -26.9200   19.5460 C   0  0  0  0  0  3  0  0  0  0  0  0
  -24.8370  -27.6890   19.5590 C   0  0  0  0  0  3  0  0  0  0  0  0
  -23.5920  -29.8180   20.2320 C   0  0  0  0  0  2  0  0  0  0  0  0
  -24.6560  -31.0790   22.1530 N   0  0  0  0  0  0  0  0  0  0  0  0
  -23.5240  -32.1610   23.7950 O   0  0  0  0  0  0  0  0  0  0  0  0
  -22.7290  -29.4710   22.5730 C   0  0  0  0  0  0  0  0  0  0  0  0
  -21.4040  -29.2960   22.4460 N   0  0  0  0  0  0  0  0  0  0  0  0
  -23.4090  -28.8420   23.3890 O   0  0  0  0  0  0  0  0  0  0  0  0
  -20.9160  -29.8550   21.7610 H   0  0  0  0  0  0  0  0  0  0  0  0
  -18.0240  -28.1080   22.9390 C   0  0  0  0  0  0  0  0  0  0  0  0
  -20.5820  -28.3620   23.2170 C   0  0  0  0  0  3  0  0  0  0  0  0
  -20.6820  -26.9290   22.6440 C   0  0  0  0  0  2  0  0  0  0  0  0
  -19.5830  -26.6070   21.6270 C   0  0  0  0  0  2  0  0  0  0  0  0
  -18.2000  -26.7570   22.2670 C   0  0  0  0  0  2  0  0  0  0  0  0
  -19.1430  -28.8680   23.3700 C   0  0  0  0  0  0  0  0  0  0  0  0
  -18.9250  -30.1340   23.9590 C   0  0  0  0  0  3  0  0  0  0  0  0
  -17.6220  -30.6390   24.1180 C   0  0  0  0  0  3  0  0  0  0  0  0
  -16.5170  -29.8760   23.7040 C   0  0  0  0  0  3  0  0  0  0  0  0
  -16.7190  -28.6120   23.1200 C   0  0  0  0  0  3  0  0  0  0  0  0
  -25.8930  -32.5060   23.8720 C   0  0  0  0  0  3  0  0  0  0  0  0
  -26.4080  -31.7310   25.1470 C   0  0  1  0  0  0  0  0  0  0  0  0
  -25.3180  -31.5010   26.2190 C   0  0  0  0  0  1  0  0  0  0  0  0
  -26.9820  -30.3500   24.7520 C   0  0  0  0  0  1  0  0  0  0  0  0
  -27.5640  -32.5190   25.8080 C   0  0  0  0  0  1  0  0  0  0  0  0
  -25.5920  -33.9060   24.2030 N   0  0  0  0  0  0  0  0  0  0  0  0
  -25.9250  -34.9570   23.4410 C   0  0  0  0  0  0  0  0  0  0  0  0
  -26.5890  -34.8480   22.4060 O   0  0  0  0  0  0  0  0  0  0  0  0
  -25.0030  -34.0650   25.0080 H   0  0  0  0  0  0  0  0  0  0  0  0
  -24.2020  -36.7560   23.0930 C   0  0  0  0  0  1  0  0  0  0  0  0
  -25.4460  -36.3470   23.8980 C   0  0  0  0  0  3  0  0  0  0  0  0
  -27.5900  -37.2240   24.7140 C   0  0  0  0  0  1  0  0  0  0  0  0
  -26.4820  -37.3950   23.7780 N   0  0  0  0  0  0  0  0  0  0  0  0
  -26.0800  -38.3170   23.9270 H   0  0  0  0  0  0  0  0  0  0  0  0
  -29.8660  -21.8260   20.9130 C   0  0  0  0  0  2  0  0  0  0  0  0
  -29.9940  -20.3890   20.2800 C   0  0  0  0  0  2  0  0  0  0  0  0
  -29.6060  -19.3250   21.1790 O   0  0  0  0  0  0  0  0  0  0  0  0
  -30.3560  -18.0820   21.1900 C   0  0  0  0  0  2  0  0  0  0  0  0
  -29.9920  -17.0260   20.1000 C   0  0  0  0  0  2  0  0  0  0  0  0
  -30.6580  -14.5630   20.1340 C   0  0  0  0  0  0  0  0  0  0  0  0
  -30.3320  -12.3860   19.0110 C   0  0  0  0  0  2  0  0  0  0  0  0
  -29.3420  -12.5990   17.8440 C   0  0  0  0  0  2  0  0  0  0  0  0
  -27.8850  -12.4670   18.3310 C   0  0  0  0  0  2  0  0  0  0  0  0
  -27.6040  -13.2910   19.6150 C   0  0  0  0  0  3  0  0  0  0  0  0
  -28.7030  -13.0590   20.6790 C   0  0  0  0  0  2  0  0  0  0  0  0
  -30.0040  -13.3660   20.0610 N   0  0  0  0  0  0  0  0  0  0  0  0
  -31.7760  -14.7380   19.6440 O   0  0  0  0  0  0  0  0  0  0  0  0
  -29.9110  -15.6090   20.5580 N   0  0  0  0  0  0  0  0  0  0  0  0
  -29.0360  -15.3490   20.9880 H   0  0  0  0  0  0  0  0  0  0  0  0
  -25.2410  -13.9170   20.4180 C   0  0  0  0  0  0  0  0  0  0  0  0
  -24.1800  -13.1550   20.8240 C   0  0  0  0  0  0  0  0  0  0  0  0
  -24.6260  -11.7980   20.7700 C   0  0  0  0  0  0  0  0  0  0  0  0
  -26.2680  -13.0270   20.1440 N   0  0  0  0  0  0  0  0  0  0  0  0
  -25.9040  -11.7470   20.4140 N   0  0  0  0  0  0  0  0  0  0  0  0
  -23.8950  -10.5420   20.9820 C   0  0  0  0  0  0  0  0  0  0  0  0
  -24.3570   -9.5630   21.8880 C   0  0  0  0  0  3  0  0  0  0  0  0
  -23.6260   -8.3710   22.0880 C   0  0  0  0  0  3  0  0  0  0  0  0
  -22.4190   -8.1520   21.3830 C   0  0  0  0  0  0  0  0  0  0  0  0
  -21.9750   -9.1210   20.4660 C   0  0  0  0  0  3  0  0  0  0  0  0
  -22.7060  -10.3040   20.2640 C   0  0  0  0  0  3  0  0  0  0  0  0
  -21.6570   -7.0150   21.4950 O   0  0  0  0  0  0  0  0  0  0  0  0
  -21.6560   -6.2580   22.6390 C   0  0  0  0  0  0  0  0  0  0  0  0
  -21.3040   -6.8040   23.8930 C   0  0  0  0  0  3  0  0  0  0  0  0
  -21.2500   -5.9740   25.0310 C   0  0  0  0  0  3  0  0  0  0  0  0
  -21.5350   -4.6010   24.9170 C   0  0  0  0  0  0  0  0  0  0  0  0
  -21.8800   -4.0550   23.6680 C   0  0  0  0  0  3  0  0  0  0  0  0
  -21.9370   -4.8820   22.5310 C   0  0  0  0  0  0  0  0  0  0  0  0
  -22.2490   -4.3460   21.3260 F   0  0  0  0  0  0  0  0  0  0  0  0
  -21.4760   -3.8020   26.0080 F   0  0  0  0  0  0  0  0  0  0  0  0
  -22.7990  -13.6450   21.1510 C   0  0  0  0  0  0  0  0  0  0  0  0
  -22.0980  -12.9520   22.0420 N   0  0  0  0  0  0  0  0  0  0  0  0
  -22.3520  -14.6760   20.6520 O   0  0  0  0  0  0  0  0  0  0  0  0
  -22.4730  -12.1180   22.4680 H   0  0  0  0  0  0  0  0  0  0  0  0
  -21.1730  -13.2630   22.3040 H   0  0  0  0  0  0  0  0  0  0  0  0
  -25.4140  -15.2870   20.2390 N   0  0  0  0  0  0  0  0  0  0  0  0
  -24.6560  -15.9470   20.3780 H   0  0  0  0  0  0  0  0  0  0  0  0
  -26.2510  -15.7180   19.8670 H   0  0  0  0  0  0  0  0  0  0  0  0
  1  2  1  0
  1 45  1  0
  3  4  1  0
  3  2  1  0
  5 16  2  0
  6  4  1  0
  6 11  1  0
  7 15  1  0
  7 17  1  0
  8 14  1  0
  8 10  1  0
  9 15  1  0
 10  9  1  0
 11 10  2  0
 12 13  1  0
 12  6  2  0
 13  8  2  0
 14  7  1  0
 15  5  1  0
 17 19  2  0
 18 17  1  0
 20 18  1  0
 21 30  2  0
 21 26  1  0
 22 18  1  0
 22 26  1  0
 23 22  1  0
 24 25  1  0
 24 23  1  0
 25 21  1  0
 26 27  2  0
 27 28  1  0
 29 28  2  0
 30 29  1  0
 31  5  1  0
 31 36  1  0
 31 32  1  0
 32 35  1  1
 32 33  1  0
 34 32  1  0
 36 39  1  0
 37 41  1  0
 37 36  1  0
 38 37  2  0
 41 40  1  0
 43 41  1  0
 43 44  1  0
 43 42  1  0
 46 45  1  0
 46 47  1  0
 47 48  1  0
 49 58  1  0
 49 48  1  0
 50 58  1  0
 51 56  1  0
 52 53  1  0
 52 51  1  0
 54 53  1  0
 54 63  1  0
 54 55  1  0
 56 50  1  0
 56 55  1  0
 57 50  2  0
 58 59  1  0
 60 61  2  0
 61 80  1  0
 62 61  1  0
 62 65  1  0
 63 64  1  0
 63 60  1  0
 64 62  2  0
 65 66  1  0
 66 67  2  0
 68 71  1  0
 68 67  1  0
 69 68  2  0
 70 69  1  0
 70 65  2  0
 71 72  1  0
 72 73  1  0
 73 74  2  0
 75 74  1  0
 75 79  1  0
 76 75  2  0
 77 72  2  0
 77 76  1  0
 78 77  1  0
 80 81  1  0
 81 84  1  0
 81 83  1  0
 82 80  2  0
 85 86  1  0
 85 60  1  0
 87 85  1  0
M  ISO  4   3 101   4 101  50 100  58 100
M  END
>  <TORSDO>  (40) 
F 23

>  <SCORE>  (40) 
-12.462

>  <name>  (40) 
39

>  <ligand_id>  (40) 
39

>  <original_smiles>  (40) 
[H]c1c([H])c([H])c2c(c1[H])C([H])([H])C([H])([H])C([H])([H])C2([H])N([H])C(=O)C1([H])N(C(=O)C([H])(N([H])C(=O)C([H])(N([H])C([H])([H])[H])C([H])([H])[H])C(C([H])([H])[H])(C([H])([H])[H])C([H])([H])[H])C([H])([H])c2c([H])c(OC([H])([H])C([H])([H])OC([H])([H])C([H])([H])OC([H])([H])C([H])([H])N([H])C(=O)N3C([H])([H])C([H])([H])C([H])([H])C([H])(n4nc(-c5c([H])c([H])c(Oc6c([H])c([H])c(F)c([H])c6F)c([H])c5[H])c(C(=O)N([H])[H])c4N([H])[H])C3([H])[H])c([H])c([H])c2C1([H])[H]

>  <smiles>  (40) 
[H]c1c([H])c([H])c2c(c1[H])C([H])([H])C([H])([H])C([H])([H])C2([H])N([H])C(=O)C1([H])N(C(=O)C([H])(N([H])C(=O)C([H])(N([H])C([H])([H])[H])C([H])([H])[H])C(C([H])([H])[H])(C([H])([H])[H])C([H])([H])[H])C([H])([H])c2c([H])c(OC([H])([H])C([H])([H])OC([H])([H])C([H])([H])OC([H])([H])C([H])([H])N([H])C(=O)N3C([H])([H])C([H])([H])C([H])([H])C([H])(n4nc(-c5c([H])c([H])c(Oc6c([H])c([H])c(F)c([H])c6F)c([H])c5[H])c(C(=O)N([H])[H])c4N([H])[H])C3([H])[H])c([H])c([H])c2C1([H])[H]

$$$$
40:0:0
     RDKit          3D

 83 90  0  0  1  0  0  0  0  0999 V2000
  -28.0300  -24.3070   20.5190 C   0  0  0  0  0  2  0  0  0  0  0  0
  -28.2280  -25.9100   20.2180 O   0  0  0  0  0  0  0  0  0  0  0  0
  -24.6140  -31.8440   23.1820 C   0  0  0  0  0  0  0  0  0  0  0  0
  -27.1910  -26.9740   20.2120 C   0  0  0  0  0  0  0  0  0  0  0  0
  -23.4250  -30.4300   21.5550 C   0  0  0  0  0  3  0  0  0  0  0  0
  -24.8790  -28.8230   20.1490 C   0  0  0  0  0  0  0  0  0  0  0  0
  -25.9880  -30.6620   21.4010 C   0  0  0  0  0  2  0  0  0  0  0  0
  -26.0650  -29.2470   20.7600 C   0  0  0  0  0  0  0  0  0  0  0  0
  -27.2200  -28.3450   20.7610 C   0  0  0  0  0  3  0  0  0  0  0  0
  -25.9710  -26.6900   19.5590 C   0  0  0  0  0  3  0  0  0  0  0  0
  -24.8550  -27.5640   19.5270 C   0  0  0  0  0  3  0  0  0  0  0  0
  -23.6550  -29.7360   20.1850 C   0  0  0  0  0  2  0  0  0  0  0  0
  -24.6970  -31.0060   22.1000 N   0  0  0  0  0  0  0  0  0  0  0  0
  -23.5230  -32.1320   23.7030 O   0  0  0  0  0  0  0  0  0  0  0  0
  -22.7370  -29.4380   22.5290 C   0  0  0  0  0  0  0  0  0  0  0  0
  -21.4060  -29.2760   22.4160 N   0  0  0  0  0  0  0  0  0  0  0  0
  -23.4090  -28.8110   23.3530 O   0  0  0  0  0  0  0  0  0  0  0  0
  -20.9170  -29.8320   21.7280 H   0  0  0  0  0  0  0  0  0  0  0  0
  -18.0240  -28.0800   22.9560 C   0  0  0  0  0  0  0  0  0  0  0  0
  -20.5860  -28.3430   23.1970 C   0  0  0  0  0  3  0  0  0  0  0  0
  -20.6800  -26.9090   22.6240 C   0  0  0  0  0  2  0  0  0  0  0  0
  -19.5690  -26.5860   21.6210 C   0  0  0  0  0  2  0  0  0  0  0  0
  -18.1930  -26.7320   22.2770 C   0  0  0  0  0  2  0  0  0  0  0  0
  -19.1470  -28.8440   23.3730 C   0  0  0  0  0  0  0  0  0  0  0  0
  -18.9320  -30.1050   23.9720 C   0  0  0  0  0  3  0  0  0  0  0  0
  -17.6290  -30.6030   24.1540 C   0  0  0  0  0  3  0  0  0  0  0  0
  -16.5210  -29.8380   23.7510 C   0  0  0  0  0  3  0  0  0  0  0  0
  -16.7190  -28.5770   23.1590 C   0  0  0  0  0  3  0  0  0  0  0  0
  -25.8830  -32.4970   23.8100 C   0  0  0  0  0  3  0  0  0  0  0  0
  -25.5520  -33.8910   24.1530 N   0  0  0  0  0  0  0  0  0  0  0  0
  -25.8650  -34.9600   23.4080 C   0  0  0  0  0  0  0  0  0  0  0  0
  -26.5240  -34.8770   22.3690 O   0  0  0  0  0  0  0  0  0  0  0  0
  -24.9630  -34.0270   24.9610 H   0  0  0  0  0  0  0  0  0  0  0  0
  -24.1090  -36.7410   23.1090 C   0  0  0  0  0  1  0  0  0  0  0  0
  -25.3700  -36.3390   23.8910 C   0  0  0  0  0  3  0  0  0  0  0  0
  -27.5100  -37.2440   24.6880 C   0  0  0  0  0  1  0  0  0  0  0  0
  -26.3870  -37.4070   23.7690 N   0  0  0  0  0  0  0  0  0  0  0  0
  -25.9730  -38.3200   23.9340 H   0  0  0  0  0  0  0  0  0  0  0  0
  -26.4040  -31.7320   25.0890 C   0  0  1  0  0  0  0  0  0  0  0  0
  -25.3130  -31.4890   26.1590 C   0  0  0  0  0  1  0  0  0  0  0  0
  -26.9960  -30.3570   24.7070 C   0  0  0  0  0  1  0  0  0  0  0  0
  -27.5500  -32.5350   25.7480 C   0  0  0  0  0  1  0  0  0  0  0  0
  -28.7230  -22.7500   19.9380 C   0  0  0  0  0  2  0  0  0  0  0  0
  -28.9620  -21.2710   20.6010 O   0  0  0  0  0  0  0  0  0  0  0  0
  -29.0780  -19.7570   19.9850 C   0  0  0  0  0  2  0  0  0  0  0  0
  -29.8350  -18.2130   20.5160 C   0  0  0  0  0  2  0  0  0  0  0  0
  -29.5080  -16.6200   20.3480 O   0  0  0  0  0  0  0  0  0  0  0  0
  -30.4360  -15.2510   20.2340 C   0  0  0  0  0  0  0  0  0  0  0  0
  -30.3670  -12.7840   19.3840 C   0  0  0  0  0  2  0  0  0  0  0  0
  -29.4550  -12.6150   18.1420 C   0  0  0  0  0  2  0  0  0  0  0  0
  -27.9960  -12.3650   18.5680 C   0  0  0  0  0  2  0  0  0  0  0  0
  -27.5420  -13.3360   19.6880 C   0  0  0  0  0  3  0  0  0  0  0  0
  -28.5700  -13.4800   20.8230 C   0  0  0  0  0  2  0  0  0  0  0  0
  -29.8300  -13.9130   20.2140 N   0  0  0  0  0  0  0  0  0  0  0  0
  -31.6520  -15.2880   20.0120 O   0  0  0  0  0  0  0  0  0  0  0  0
  -25.1710  -13.8970   20.4330 C   0  0  0  0  0  0  0  0  0  0  0  0
  -24.1090  -13.1220   20.8060 C   0  0  0  0  0  0  0  0  0  0  0  0
  -24.5800  -11.7720   20.7920 C   0  0  0  0  0  0  0  0  0  0  0  0
  -26.2140  -13.0210   20.1960 N   0  0  0  0  0  0  0  0  0  0  0  0
  -25.8720  -11.7380   20.4850 N   0  0  0  0  0  0  0  0  0  0  0  0
  -23.8540  -10.5100   20.9930 C   0  0  0  0  0  0  0  0  0  0  0  0
  -24.2880   -9.5480   21.9310 C   0  0  0  0  0  3  0  0  0  0  0  0
  -23.5590   -8.3530   22.1200 C   0  0  0  0  0  3  0  0  0  0  0  0
  -22.3830   -8.1130   21.3710 C   0  0  0  0  0  0  0  0  0  0  0  0
  -21.9690   -9.0640   20.4220 C   0  0  0  0  0  3  0  0  0  0  0  0
  -22.6980  -10.2490   20.2310 C   0  0  0  0  0  3  0  0  0  0  0  0
  -21.6260   -6.9690   21.4680 O   0  0  0  0  0  0  0  0  0  0  0  0
  -21.5870   -6.2280   22.6210 C   0  0  0  0  0  0  0  0  0  0  0  0
  -21.1880   -6.7880   23.8540 C   0  0  0  0  0  3  0  0  0  0  0  0
  -21.0940   -5.9740   25.0000 C   0  0  0  0  0  3  0  0  0  0  0  0
  -21.3910   -4.6010   24.9140 C   0  0  0  0  0  0  0  0  0  0  0  0
  -21.7840   -4.0400   23.6870 C   0  0  0  0  0  3  0  0  0  0  0  0
  -21.8780   -4.8520   22.5430 C   0  0  0  0  0  0  0  0  0  0  0  0
  -22.2370   -4.3020   21.3570 F   0  0  0  0  0  0  0  0  0  0  0  0
  -21.2950   -3.8160   26.0140 F   0  0  0  0  0  0  0  0  0  0  0  0
  -22.7100  -13.5990   21.0610 C   0  0  0  0  0  0  0  0  0  0  0  0
  -21.9780  -12.9140   21.9310 N   0  0  0  0  0  0  0  0  0  0  0  0
  -22.2760  -14.6170   20.5230 O   0  0  0  0  0  0  0  0  0  0  0  0
  -22.3430  -12.0910   22.3870 H   0  0  0  0  0  0  0  0  0  0  0  0
  -21.0390  -13.2170   22.1460 H   0  0  0  0  0  0  0  0  0  0  0  0
  -25.3350  -15.2670   20.2470 N   0  0  0  0  0  0  0  0  0  0  0  0
  -24.5750  -15.9280   20.3650 H   0  0  0  0  0  0  0  0  0  0  0  0
  -26.1990  -15.7040   19.9490 H   0  0  0  0  0  0  0  0  0  0  0  0
  2  1  1  0
  3 14  2  0
  4  2  1  0
  4  9  1  0
  5 13  1  0
  5 15  1  0
  6 12  1  0
  6  8  1  0
  7 13  1  0
  8  9  2  0
  8  7  1  0
 10  4  2  0
 11 10  1  0
 11  6  2  0
 12  5  1  0
 13  3  1  0
 15 17  2  0
 16 15  1  0
 18 16  1  0
 19 28  2  0
 19 24  1  0
 20 16  1  0
 20 24  1  0
 21 20  1  0
 22 23  1  0
 22 21  1  0
 23 19  1  0
 24 25  2  0
 25 26  1  0
 27 26  2  0
 28 27  1  0
 29  3  1  0
 29 30  1  0
 29 39  1  0
 30 33  1  0
 31 35  1  0
 31 30  1  0
 32 31  2  0
 35 34  1  0
 37 35  1  0
 37 38  1  0
 37 36  1  0
 39 42  1  1
 39 40  1  0
 41 39  1  0
 43  1  1  0
 43 44  1  0
 45 46  1  0
 45 44  1  0
 47 46  1  0
 48 47  1  0
 49 54  1  0
 50 51  1  0
 50 49  1  0
 52 51  1  0
 52 59  1  0
 52 53  1  0
 54 48  1  0
 54 53  1  0
 55 48  2  0
 56 57  2  0
 57 76  1  0
 58 57  1  0
 58 61  1  0
 59 56  1  0
 59 60  1  0
 60 58  2  0
 61 62  1  0
 62 63  2  0
 64 67  1  0
 64 63  1  0
 65 64  2  0
 66 65  1  0
 66 61  2  0
 67 68  1  0
 68 69  1  0
 69 70  2  0
 71 70  1  0
 71 75  1  0
 72 71  2  0
 73 68  2  0
 73 72  1  0
 74 73  1  0
 76 77  1  0
 77 80  1  0
 77 79  1  0
 78 76  2  0
 81 82  1  0
 81 56  1  0
 83 81  1  0
M  ISO  4   1 101   2 101  47 100  48 100
M  END
>  <TORSDO>  (41) 
F 21

>  <SCORE>  (41) 
-15.264

>  <name>  (41) 
40

>  <ligand_id>  (41) 
40

>  <original_smiles>  (41) 
[H]c1c([H])c([H])c2c(c1[H])C([H])([H])C([H])([H])C([H])([H])C2([H])N([H])C(=O)C1([H])N(C(=O)C([H])(N([H])C(=O)C([H])(N([H])C([H])([H])[H])C([H])([H])[H])C(C([H])([H])[H])(C([H])([H])[H])C([H])([H])[H])C([H])([H])c2c([H])c(OC([H])([H])C([H])([H])OC([H])([H])C([H])([H])OC(=O)N3C([H])([H])C([H])([H])C([H])([H])C([H])(n4nc(-c5c([H])c([H])c(Oc6c([H])c([H])c(F)c([H])c6F)c([H])c5[H])c(C(=O)N([H])[H])c4N([H])[H])C3([H])[H])c([H])c([H])c2C1([H])[H]

>  <smiles>  (41) 
[H]c1c([H])c([H])c2c(c1[H])C([H])([H])C([H])([H])C([H])([H])C2([H])N([H])C(=O)C1([H])N(C(=O)C([H])(N([H])C(=O)C([H])(N([H])C([H])([H])[H])C([H])([H])[H])C(C([H])([H])[H])(C([H])([H])[H])C([H])([H])[H])C([H])([H])c2c([H])c(OC([H])([H])C([H])([H])OC([H])([H])C([H])([H])OC(=O)N3C([H])([H])C([H])([H])C([H])([H])C([H])(n4nc(-c5c([H])c([H])c(Oc6c([H])c([H])c(F)c([H])c6F)c([H])c5[H])c(C(=O)N([H])[H])c4N([H])[H])C3([H])[H])c([H])c([H])c2C1([H])[H]

$$$$
41:0:0
     RDKit          3D

 88 96  0  0  1  0  0  0  0  0999 V2000
  -28.2700  -18.1960   20.5690 C   0  0  0  0  0  3  0  0  0  0  0  0
  -30.5440  -18.6580   20.1620 C   0  0  0  0  0  3  0  0  0  0  0  0
  -27.9690  -19.6050   20.5110 C   0  0  0  0  0  3  0  0  0  0  0  0
  -30.2360  -20.0970   20.1140 C   0  0  0  0  0  3  0  0  0  0  0  0
  -29.5660  -17.6210   20.3920 C   0  0  0  0  0  0  0  0  0  0  0  0
  -28.9130  -20.6520   20.2830 C   0  0  0  0  0  0  0  0  0  0  0  0
  -30.5640  -15.0240   20.2100 C   0  0  0  0  0  0  0  0  0  0  0  0
  -30.4770  -12.6790   19.2500 C   0  0  0  0  0  2  0  0  0  0  0  0
  -29.4990  -12.6500   18.0480 C   0  0  0  0  0  2  0  0  0  0  0  0
  -28.0470  -12.4370   18.5210 C   0  0  0  0  0  2  0  0  0  0  0  0
  -27.6750  -13.3480   19.7200 C   0  0  0  0  0  3  0  0  0  0  0  0
  -28.7640  -13.3150   20.8150 C   0  0  0  0  0  2  0  0  0  0  0  0
  -30.0230  -13.7410   20.1870 N   0  0  0  0  0  0  0  0  0  0  0  0
  -31.7370  -15.1720   19.8490 O   0  0  0  0  0  0  0  0  0  0  0  0
  -29.6830  -16.0950   20.4860 N   0  0  0  0  0  0  0  0  0  0  0  0
  -28.8050  -15.6890   20.7700 H   0  0  0  0  0  0  0  0  0  0  0  0
  -25.3170  -13.9250   20.5440 C   0  0  0  0  0  0  0  0  0  0  0  0
  -24.2620  -13.1460   20.9340 C   0  0  0  0  0  0  0  0  0  0  0  0
  -24.7190  -11.7940   20.8530 C   0  0  0  0  0  0  0  0  0  0  0  0
  -26.3480  -13.0470   20.2490 N   0  0  0  0  0  0  0  0  0  0  0  0
  -25.9980  -11.7600   20.4990 N   0  0  0  0  0  0  0  0  0  0  0  0
  -23.9930  -10.5300   21.0340 C   0  0  0  0  0  0  0  0  0  0  0  0
  -24.4280   -9.5560   21.9590 C   0  0  0  0  0  3  0  0  0  0  0  0
  -23.7020   -8.3560   22.1280 C   0  0  0  0  0  3  0  0  0  0  0  0
  -22.5270   -8.1240   21.3750 C   0  0  0  0  0  0  0  0  0  0  0  0
  -22.1100   -9.0890   20.4410 C   0  0  0  0  0  3  0  0  0  0  0  0
  -22.8370  -10.2790   20.2680 C   0  0  0  0  0  3  0  0  0  0  0  0
  -21.7730   -6.9790   21.4560 O   0  0  0  0  0  0  0  0  0  0  0  0
  -21.6880   -6.2530   22.6170 C   0  0  0  0  0  0  0  0  0  0  0  0
  -21.1540   -6.8030   23.8030 C   0  0  0  0  0  3  0  0  0  0  0  0
  -21.0220   -6.0010   24.9530 C   0  0  0  0  0  3  0  0  0  0  0  0
  -21.4140   -4.6490   24.9190 C   0  0  0  0  0  0  0  0  0  0  0  0
  -21.9400   -4.0980   23.7370 C   0  0  0  0  0  3  0  0  0  0  0  0
  -22.0740   -4.8980   22.5890 C   0  0  0  0  0  0  0  0  0  0  0  0
  -22.5620   -4.3560   21.4470 F   0  0  0  0  0  0  0  0  0  0  0  0
  -21.2790   -3.8750   26.0220 F   0  0  0  0  0  0  0  0  0  0  0  0
  -22.8760  -13.6220   21.2610 C   0  0  0  0  0  0  0  0  0  0  0  0
  -22.1760  -12.9110   22.1370 N   0  0  0  0  0  0  0  0  0  0  0  0
  -22.4260  -14.6590   20.7750 O   0  0  0  0  0  0  0  0  0  0  0  0
  -22.5530  -12.0730   22.5520 H   0  0  0  0  0  0  0  0  0  0  0  0
  -21.2460  -13.2120   22.3990 H   0  0  0  0  0  0  0  0  0  0  0  0
  -25.4790  -15.2980   20.3870 N   0  0  0  0  0  0  0  0  0  0  0  0
  -24.6990  -15.9360   20.5080 H   0  0  0  0  0  0  0  0  0  0  0  0
  -26.2670  -15.7220   19.9170 H   0  0  0  0  0  0  0  0  0  0  0  0
  -28.3850  -22.0170   20.2260 O   0  0  0  0  0  0  0  0  0  0  0  0
  -29.0060  -23.4170   20.2140 C   0  0  0  0  0  3  0  0  0  0  0  0
  -28.0130  -24.7620   20.0050 C   0  0  0  0  0  3  0  0  0  0  0  0
  -28.2930  -26.2800   20.1940 O   0  0  0  0  0  0  0  0  0  0  0  0
  -24.6160  -31.8830   23.2510 C   0  0  0  0  0  0  0  0  0  0  0  0
  -27.2250  -27.2480   20.1450 C   0  0  0  0  0  0  0  0  0  0  0  0
  -23.4230  -30.5100   21.5880 C   0  0  0  0  0  3  0  0  0  0  0  0
  -24.8820  -28.9690   20.1390 C   0  0  0  0  0  0  0  0  0  0  0  0
  -25.9760  -30.7940   21.4300 C   0  0  0  0  0  2  0  0  0  0  0  0
  -26.0590  -29.4160   20.7540 C   0  0  0  0  0  0  0  0  0  0  0  0
  -27.2310  -28.5720   20.7390 C   0  0  0  0  0  3  0  0  0  0  0  0
  -26.0180  -26.9000   19.4960 C   0  0  0  0  0  3  0  0  0  0  0  0
  -24.8750  -27.7250   19.4950 C   0  0  0  0  0  3  0  0  0  0  0  0
  -23.6490  -29.8570   20.1990 C   0  0  0  0  0  2  0  0  0  0  0  0
  -24.6910  -31.0830   22.1440 N   0  0  0  0  0  0  0  0  0  0  0  0
  -23.5270  -32.1530   23.7830 O   0  0  0  0  0  0  0  0  0  0  0  0
  -22.7510  -29.4810   22.5320 C   0  0  0  0  0  0  0  0  0  0  0  0
  -21.4240  -29.3020   22.3970 N   0  0  0  0  0  0  0  0  0  0  0  0
  -23.4240  -28.8480   23.3490 O   0  0  0  0  0  0  0  0  0  0  0  0
  -20.9370  -29.8650   21.7140 H   0  0  0  0  0  0  0  0  0  0  0  0
  -18.0440  -28.1000   22.8940 C   0  0  0  0  0  0  0  0  0  0  0  0
  -20.6060  -28.3490   23.1520 C   0  0  0  0  0  3  0  0  0  0  0  0
  -20.6990  -26.9300   22.5440 C   0  0  0  0  0  2  0  0  0  0  0  0
  -19.5900  -26.6350   21.5290 C   0  0  0  0  0  2  0  0  0  0  0  0
  -18.2130  -26.7680   22.1850 C   0  0  0  0  0  2  0  0  0  0  0  0
  -19.1680  -28.8500   23.3340 C   0  0  0  0  0  0  0  0  0  0  0  0
  -18.9540  -30.0990   23.9590 C   0  0  0  0  0  3  0  0  0  0  0  0
  -17.6520  -30.5970   24.1490 C   0  0  0  0  0  3  0  0  0  0  0  0
  -16.5430  -29.8440   23.7240 C   0  0  0  0  0  3  0  0  0  0  0  0
  -16.7410  -28.5970   23.1030 C   0  0  0  0  0  3  0  0  0  0  0  0
  -25.8900  -32.5140   23.8890 C   0  0  0  0  0  3  0  0  0  0  0  0
  -26.3890  -31.7410   25.1720 C   0  0  1  0  0  0  0  0  0  0  0  0
  -25.2800  -31.5020   26.2240 C   0  0  0  0  0  1  0  0  0  0  0  0
  -26.9790  -30.3650   24.7900 C   0  0  0  0  0  1  0  0  0  0  0  0
  -27.5300  -32.5350   25.8510 C   0  0  0  0  0  1  0  0  0  0  0  0
  -25.5790  -33.9130   24.2220 N   0  0  0  0  0  0  0  0  0  0  0  0
  -25.8850  -34.9680   23.4560 C   0  0  0  0  0  0  0  0  0  0  0  0
  -26.5270  -34.8660   22.4060 O   0  0  0  0  0  0  0  0  0  0  0  0
  -25.0080  -34.0650   25.0400 H   0  0  0  0  0  0  0  0  0  0  0  0
  -24.1320  -36.7490   23.1580 C   0  0  0  0  0  1  0  0  0  0  0  0
  -25.4060  -36.3550   23.9250 C   0  0  0  0  0  3  0  0  0  0  0  0
  -27.5520  -37.2720   24.6870 C   0  0  0  0  0  1  0  0  0  0  0  0
  -26.4250  -37.4160   23.7700 N   0  0  0  0  0  0  0  0  0  0  0  0
  -26.0150  -38.3350   23.9150 H   0  0  0  0  0  0  0  0  0  0  0  0
  2  5  1  0
  3  1  1  0
  4  2  2  0
  4  6  1  0
  5 15  1  0
  5  1  2  0
  6  3  2  0
  7 15  1  0
  8 13  1  0
  9 10  1  0
  9  8  1  0
 11 10  1  0
 11 20  1  0
 11 12  1  0
 13  7  1  0
 13 12  1  0
 14  7  2  0
 15 16  1  0
 17 18  2  0
 18 37  1  0
 19 18  1  0
 19 22  1  0
 20 21  1  0
 20 17  1  0
 21 19  2  0
 22 23  1  0
 23 24  2  0
 25 28  1  0
 25 24  1  0
 26 25  2  0
 27 26  1  0
 27 22  2  0
 28 29  1  0
 29 30  1  0
 30 31  2  0
 32 31  1  0
 32 36  1  0
 33 32  2  0
 34 29  2  0
 34 33  1  0
 35 34  1  0
 37 38  1  0
 38 41  1  0
 38 40  1  0
 39 37  2  0
 42 43  1  0
 42 17  1  0
 44 42  1  0
 45  6  1  0
 46 45  1  0
 47 48  1  0
 47 46  2  0
 49 60  2  0
 50 48  1  0
 50 55  1  0
 51 59  1  0
 51 61  1  0
 52 58  1  0
 52 54  1  0
 53 59  1  0
 54 53  1  0
 55 54  2  0
 56 50  2  0
 57 56  1  0
 57 52  2  0
 58 51  1  0
 59 49  1  0
 61 63  2  0
 62 61  1  0
 64 62  1  0
 65 74  2  0
 65 70  1  0
 66 62  1  0
 66 70  1  0
 67 66  1  0
 68 69  1  0
 68 67  1  0
 69 65  1  0
 70 71  2  0
 71 72  1  0
 73 72  2  0
 74 73  1  0
 75 49  1  0
 75 80  1  0
 75 76  1  0
 76 79  1  1
 76 77  1  0
 78 76  1  0
 80 83  1  0
 81 85  1  0
 81 80  1  0
 82 81  2  0
 85 84  1  0
 87 88  1  0
 87 85  1  0
 87 86  1  0
M  ISO  4   7 100  15 100  47 101  48 101
M  END
>  <TORSDO>  (42) 
F 19

>  <SCORE>  (42) 
-14.020

>  <name>  (42) 
41

>  <ligand_id>  (42) 
41

>  <original_smiles>  (42) 
[H]c1c([H])c([H])c2c(c1[H])C([H])([H])C([H])([H])C([H])([H])C2([H])N([H])C(=O)C1([H])N(C(=O)C([H])(N([H])C(=O)C([H])(N([H])C([H])([H])[H])C([H])([H])[H])C(C([H])([H])[H])(C([H])([H])[H])C([H])([H])[H])C([H])([H])c2c([H])c(OC([H])([H])C([H])([H])Oc3c([H])c([H])c(N([H])C(=O)N4C([H])([H])C([H])([H])C([H])([H])C([H])(n5nc(-c6c([H])c([H])c(Oc7c([H])c([H])c(F)c([H])c7F)c([H])c6[H])c(C(=O)N([H])[H])c5N([H])[H])C4([H])[H])c([H])c3[H])c([H])c([H])c2C1([H])[H]

>  <smiles>  (42) 
[H]c1c([H])c([H])c2c(c1[H])C([H])([H])C([H])([H])C([H])([H])C2([H])N([H])C(=O)C1([H])N(C(=O)C([H])(N([H])C(=O)C([H])(N([H])C([H])([H])[H])C([H])([H])[H])C(C([H])([H])[H])(C([H])([H])[H])C([H])([H])[H])C([H])([H])c2c([H])c(OC([H])([H])C([H])([H])Oc3c([H])c([H])c(N([H])C(=O)N4C([H])([H])C([H])([H])C([H])([H])C([H])(n5nc(-c6c([H])c([H])c(Oc7c([H])c([H])c(F)c([H])c7F)c([H])c6[H])c(C(=O)N([H])[H])c5N([H])[H])C4([H])[H])c([H])c3[H])c([H])c([H])c2C1([H])[H]

$$$$
42:0:0
     RDKit          3D

102105  0  0  1  0  0  0  0  0999 V2000
  -27.0750  -27.6930   19.7010 C   0  0  0  0  0  1  0  0  0  0  0  0
  -25.0250  -26.4110   20.4720 C   0  0  0  0  0  3  0  0  0  0  0  0
  -27.4510  -29.0740   20.0720 C   0  0  0  0  0  2  0  0  0  0  0  0
  -24.7140  -28.3520   22.1130 C   0  0  0  0  0  3  0  0  0  0  0  0
  -24.1860  -26.9320   21.6190 C   0  0  1  0  0  0  0  0  0  0  0  0
  -26.7920  -29.3170   21.3300 C   0  0  0  0  0  1  0  0  0  0  0  0
  -23.8900  -25.7400   22.5380 C   0  0  0  0  0  0  0  0  0  0  0  0
  -23.6610  -25.8510   23.7430 O   0  0  0  0  0  0  0  0  0  0  0  0
  -23.9500  -24.4630   21.9220 O   0  0  0  0  0  0  0  0  0  0  0  0
  -25.1850  -23.6840   21.7180 C   0  0  0  0  0  2  0  0  0  0  0  0
  -25.7600  -23.3910   20.2270 C   0  0  0  0  0  2  0  0  0  0  0  0
  -26.9330  -24.1130   19.6080 O   0  0  0  0  0  0  0  0  0  0  0  0
  -24.5790  -31.3620   23.5060 C   0  0  0  0  0  0  0  0  0  0  0  0
  -26.4930  -25.2910   19.3350 C   0  0  0  0  0  3  0  0  0  0  0  0
  -23.4120  -30.4590   21.6330 C   0  0  0  0  0  3  0  0  0  0  0  0
  -24.5110  -28.4030   19.5020 C   0  0  0  0  0  3  0  0  0  0  0  0
  -25.9410  -28.6830   23.0270 C   0  0  0  0  0  1  0  0  0  0  0  0
  -26.0010  -27.1710   21.4110 C   0  0  2  0  0  0  0  0  0  0  0  0
  -26.6870  -25.8740   20.8490 C   0  0  0  0  0  3  0  0  0  0  0  0
  -25.5140  -25.9240   17.9910 C   0  0  0  0  0  3  0  0  0  0  0  0
  -24.5400  -27.4330   18.0440 C   0  0  0  0  0  3  0  0  0  0  0  0
  -23.6130  -29.8360   19.9340 C   0  0  0  0  0  3  0  0  0  0  0  0
  -24.7970  -30.2690   22.7170 N   0  0  0  0  0  2  0  0  0  0  0  0
  -23.4520  -31.8650   23.7430 O   0  0  0  0  0  0  0  0  0  0  0  0
  -22.1680  -29.6830   22.4890 C   0  0  0  0  0  0  0  0  0  0  0  0
  -20.9700  -29.2560   22.0280 N   0  0  0  0  0  0  0  0  0  0  0  0
  -22.4850  -29.1920   23.5870 O   0  0  0  0  0  0  0  0  0  0  0  0
  -20.6760  -29.5500   21.1060 H   0  0  0  0  0  0  0  0  0  0  0  0
  -17.5350  -28.1100   22.6600 C   0  0  0  0  0  0  0  0  0  0  0  0
  -20.1090  -28.2590   22.7600 C   0  0  0  0  0  3  0  0  0  0  0  0
  -20.0990  -26.8740   22.0760 C   0  0  0  0  0  2  0  0  0  0  0  0
  -18.9100  -26.6230   21.1560 C   0  0  0  0  0  2  0  0  0  0  0  0
  -17.5920  -26.7940   21.9010 C   0  0  0  0  0  2  0  0  0  0  0  0
  -18.7140  -28.7800   23.0780 C   0  0  0  0  0  0  0  0  0  0  0  0
  -18.6030  -29.9780   23.8100 C   0  0  0  0  0  3  0  0  0  0  0  0
  -17.3410  -30.5360   24.0860 C   0  0  0  0  0  3  0  0  0  0  0  0
  -16.1770  -29.8840   23.6470 C   0  0  0  0  0  3  0  0  0  0  0  0
  -16.2710  -28.6710   22.9410 C   0  0  0  0  0  3  0  0  0  0  0  0
  -25.7440  -32.0700   24.1470 C   0  0  0  0  0  3  0  0  0  0  0  0
  -25.9870  -31.4890   25.5750 C   0  0  1  0  0  0  0  0  0  0  0  0
  -24.6860  -31.2750   26.3880 C   0  0  0  0  0  1  0  0  0  0  0  0
  -26.7300  -30.1630   25.6420 C   0  0  0  0  0  1  0  0  0  0  0  0
  -26.9260  -32.4560   26.3120 C   0  0  0  0  0  1  0  0  0  0  0  0
  -25.4020  -33.5120   24.2440 N   0  0  0  0  0  0  0  0  0  0  0  0
  -25.8180  -34.4930   23.4370 C   0  0  0  0  0  0  0  0  0  0  0  0
  -26.5810  -34.2980   22.4890 O   0  0  0  0  0  0  0  0  0  0  0  0
  -24.7490  -33.7680   24.9700 H   0  0  0  0  0  0  0  0  0  0  0  0
  -24.2580  -36.3690   22.7780 C   0  0  0  0  0  1  0  0  0  0  0  0
  -25.3460  -35.9290   23.7690 C   0  0  0  0  0  3  0  0  0  0  0  0
  -27.3950  -36.7200   24.8800 C   0  0  0  0  0  1  0  0  0  0  0  0
  -26.4420  -36.9260   23.7900 N   0  0  0  0  0  0  0  0  0  0  0  0
  -26.0700  -37.8710   23.8480 H   0  0  0  0  0  0  0  0  0  0  0  0
  -28.7920  -27.9200   21.7570 C   0  0  0  0  0  1  0  0  0  0  0  0
  -30.5520  -29.6220   22.1230 C   0  0  0  0  0  0  0  0  0  0  0  0
  -30.6070  -31.0790   22.5830 C   0  0  0  0  0  1  0  0  0  0  0  0
  -29.5690  -28.8450   22.6080 N   0  0  0  0  0  0  0  0  0  0  0  0
  -31.3630  -29.2260   21.2800 O   0  0  0  0  0  0  0  0  0  0  0  0
  -29.1140  -29.1710   23.4490 H   0  0  0  0  0  0  0  0  0  0  0  0
  -29.6860  -25.8060   21.8730 C   0  0  0  0  0  2  0  0  0  0  0  0
  -29.7290  -24.0530   21.5310 N   0  0  0  0  0  2  0  0  0  0  0  0
  -30.7460  -26.0040   22.4620 O   0  0  0  0  0  1  0  0  0  0  0  0
  -30.6490  -23.9090   21.9310 H   0  0  0  0  0  0  0  0  0  0  0  0
  -29.3700  -22.0740   20.9940 C   0  0  0  0  0 15  0  0  0  0  0  0
  -30.0490  -19.8950   20.5450 C   0  0  0  0  0 15  0  0  0  0  0  0
  -30.2430  -16.1720   20.0970 C   0  0  0  0  0  0  0  0  0  0  0  0
  -30.2400  -13.4430   19.1390 C   0  0  0  0  0  2  0  0  0  0  0  0
  -29.3160  -12.7660   18.0400 C   0  0  0  0  0  2  0  0  0  0  0  0
  -28.0080  -12.2150   18.6110 C   0  0  0  0  0  2  0  0  0  0  0  0
  -27.4950  -13.2080   19.6630 C   0  0  0  0  0  3  0  0  0  0  0  0
  -28.5880  -13.8270   20.6500 C   0  0  0  0  0  2  0  0  0  0  0  0
  -29.6460  -14.7050   19.9400 N   0  0  0  0  0  0  0  0  0  0  0  0
  -31.4230  -15.8940   19.7530 O   0  0  0  0  0  0  0  0  0  0  0  0
  -29.7540  -17.8390   20.4230 N   0  0  0  0  0  2  0  0  0  0  0  0
  -28.7770  -17.7130   20.6700 H   0  0  0  0  0  0  0  0  0  0  0  0
  -25.1980  -13.5830   20.6760 C   0  0  0  0  0  0  0  0  0  0  0  0
  -24.1800  -12.7680   21.0870 C   0  0  0  0  0  0  0  0  0  0  0  0
  -24.6440  -11.4270   20.9040 C   0  0  0  0  0  0  0  0  0  0  0  0
  -26.2350  -12.7610   20.2860 N   0  0  0  0  0  0  0  0  0  0  0  0
  -25.9090  -11.4420   20.4610 N   0  0  0  0  0  0  0  0  0  0  0  0
  -23.9210  -10.1520   21.0830 C   0  0  0  0  0  0  0  0  0  0  0  0
  -24.3800   -9.1520   21.9700 C   0  0  0  0  0  3  0  0  0  0  0  0
  -23.6490   -7.9560   22.1520 C   0  0  0  0  0  3  0  0  0  0  0  0
  -22.4400   -7.7450   21.4470 C   0  0  0  0  0  0  0  0  0  0  0  0
  -21.9920   -8.7340   20.5540 C   0  0  0  0  0  3  0  0  0  0  0  0
  -22.7230   -9.9220   20.3720 C   0  0  0  0  0  3  0  0  0  0  0  0
  -21.6790   -6.6040   21.5410 O   0  0  0  0  0  0  0  0  0  0  0  0
  -21.6560   -5.8420   22.6820 C   0  0  0  0  0  0  0  0  0  0  0  0
  -21.2170   -6.3630   23.9190 C   0  0  0  0  0  3  0  0  0  0  0  0
  -21.1410   -5.5240   25.0490 C   0  0  0  0  0  3  0  0  0  0  0  0
  -21.4980   -4.1670   24.9460 C   0  0  0  0  0  0  0  0  0  0  0  0
  -21.9290   -3.6440   23.7130 C   0  0  0  0  0  3  0  0  0  0  0  0
  -22.0040   -4.4780   22.5840 C   0  0  0  0  0  0  0  0  0  0  0  0
  -22.3990   -3.9630   21.3950 F   0  0  0  0  0  0  0  0  0  0  0  0
  -21.4190   -3.3600   26.0300 F   0  0  0  0  0  0  0  0  0  0  0  0
  -22.8180  -13.2180   21.5270 C   0  0  0  0  0  0  0  0  0  0  0  0
  -22.1840  -12.4710   22.4230 N   0  0  0  0  0  0  0  0  0  0  0  0
  -22.3330  -14.2730   21.1180 O   0  0  0  0  0  0  0  0  0  0  0  0
  -22.5890  -11.6140   22.7720 H   0  0  0  0  0  0  0  0  0  0  0  0
  -21.2780  -12.7560   22.7630 H   0  0  0  0  0  0  0  0  0  0  0  0
  -25.3280  -14.9640   20.5730 N   0  0  0  0  0  0  0  0  0  0  0  0
  -24.5660  -15.5960   20.7900 H   0  0  0  0  0  0  0  0  0  0  0  0
  -26.1440  -15.4390   20.2130 H   0  0  0  0  0  0  0  0  0  0  0  0
  1  3  1  0
  2 19  1  0
  2 18  1  0
  2  5  1  0
  3  6  1  0
  4 17  1  0
  5  4  1  1
  5  7  1  0
  7  8  2  0
  9  7  1  0
 10  9  1  0
 11 10  1  0
 12 11  1  0
 13 24  2  0
 13 39  1  0
 14 12  1  0
 14 19  1  0
 15 25  1  0
 15 23  1  0
 16 22  2  0
 18  5  1  0
 18  4  1  6
 19 18  1  0
 20 21  2  0
 20 14  1  0
 21 16  1  0
 22 15  1  0
 23 13  1  0
 25 27  2  0
 26 25  1  0
 26 30  1  0
 28 26  1  0
 29 38  2  0
 29 34  1  0
 30 34  1  0
 31 30  1  0
 32 33  1  0
 32 31  1  0
 33 29  1  0
 34 35  2  0
 35 36  1  0
 37 36  2  0
 38 37  1  0
 39 44  1  0
 39 40  1  0
 40 42  1  6
 40 43  1  0
 40 41  1  0
 44 47  1  0
 45 49  1  0
 45 44  1  0
 46 45  2  0
 48 49  1  0
 49 51  1  0
 51 52  1  0
 51 50  1  0
 53 56  1  0
 54 55  1  0
 54 56  1  0
 56 58  1  0
 57 54  2  0
 59 61  1  0
 60 59  1  0
 60 62  1  0
 65 73  1  0
 66 71  1  0
 67 68  1  0
 67 66  1  0
 68 69  1  0
 69 78  1  0
 69 70  1  0
 71 65  1  0
 71 70  1  0
 72 65  2  0
 73 74  1  0
 75 76  2  0
 76 95  1  0
 77 80  1  0
 77 76  1  0
 78 79  1  0
 78 75  1  0
 79 77  2  0
 80 81  1  0
 81 82  2  0
 83 86  1  0
 83 82  1  0
 84 83  2  0
 85 84  1  0
 85 80  2  0
 86 87  1  0
 87 88  1  0
 88 89  2  0
 90 89  1  0
 90 94  1  0
 91 90  2  0
 92 87  2  0
 92 91  1  0
 93 92  1  0
 95 96  1  0
 96 99  1  0
 96 98  1  0
 97 95  2  0
100 75  1  0
100101  1  0
102100  1  0
M  ISO  4  11 101  12 101  65 100  73 100
M  END
>  <TORSDO>  (43) 
F 25

>  <SCORE>  (43) 
-12.809

>  <name>  (43) 
42

>  <ligand_id>  (43) 
42

>  <original_smiles>  (43) 
[H]c1c([H])c(C(=O)OC([H])([H])C([H])([H])Oc2c([H])c([H])c3c(c2[H])C([H])([H])N(C(=O)C([H])(N([H])C(=O)C([H])(N([H])C([H])([H])[H])C([H])([H])[H])C(C([H])([H])[H])(C([H])([H])[H])C([H])([H])[H])C([H])(C(=O)N([H])C2([H])c4c([H])c([H])c([H])c([H])c4C([H])([H])C([H])([H])C2([H])[H])C3([H])[H])c([H])c(C([H])(C(=O)N([H])C([H])([H])C([H])([H])N([H])C(=O)N2C([H])([H])C([H])([H])C([H])([H])C([H])(n3nc(-c4c([H])c([H])c(Oc5c([H])c([H])c(F)c([H])c5F)c([H])c4[H])c(C(=O)N([H])[H])c3N([H])[H])C2([H])[H])N([H])C(=O)C([H])([H])[H])c1[H]

>  <smiles>  (43) 
[H]c1c([H])c(C(=O)OC([H])([H])C([H])([H])Oc2c([H])c([H])c3c(c2[H])C([H])([H])N(C(=O)C([H])(N([H])C(=O)C([H])(N([H])C([H])([H])[H])C([H])([H])[H])C(C([H])([H])[H])(C([H])([H])[H])C([H])([H])[H])C([H])(C(=O)N([H])C2([H])c4c([H])c([H])c([H])c([H])c4C([H])([H])C([H])([H])C2([H])[H])C3([H])[H])c([H])c(C([H])(C(=O)N([H])C([H])([H])C([H])([H])N([H])C(=O)N2C([H])([H])C([H])([H])C([H])([H])C([H])(n3nc(-c4c([H])c([H])c(Oc5c([H])c([H])c(F)c([H])c5F)c([H])c4[H])c(C(=O)N([H])[H])c3N([H])[H])C2([H])[H])N([H])C(=O)C([H])([H])[H])c1[H]

$$$$
43:0:0
     RDKit          3D

 95104  0  0  1  0  0  0  0  0999 V2000
  -30.0490  -21.5240   22.6050 C   0  0  0  0  0  2  0  0  0  0  0  0
  -29.9960  -21.2070   20.1400 C   0  0  0  0  0  2  0  0  0  0  0  0
  -30.2500  -23.0350   22.3880 C   0  0  0  0  0  2  0  0  0  0  0  0
  -30.1860  -22.7200   19.9510 C   0  0  0  0  0  2  0  0  0  0  0  0
  -30.5100  -20.7720   21.4370 N   0  0  0  0  0  0  0  0  0  0  0  0
  -29.6250  -23.4620   21.1100 N   0  0  2  0  0  4  0  0  0  0  0  0
  -28.6620  -23.1710   21.1900 H   0  0  0  0  0  0  0  0  0  0  0  0
  -29.2490  -18.7120   21.8120 C   0  0  0  0  0  3  0  0  0  0  0  0
  -29.2060  -17.3070   21.8500 C   0  0  0  0  0  3  0  0  0  0  0  0
  -31.6140  -17.2280   21.4600 C   0  0  0  0  0  3  0  0  0  0  0  0
  -31.6600  -18.6360   21.4190 C   0  0  0  0  0  0  0  0  0  0  0  0
  -30.4700  -19.3800   21.5760 C   0  0  0  0  0  0  0  0  0  0  0  0
  -30.3810  -16.5600   21.6400 C   0  0  0  0  0  0  0  0  0  0  0  0
  -32.9880  -19.3370   21.1830 C   0  0  0  0  0  1  0  0  0  0  0  0
  -30.7640  -14.3510   20.6630 C   0  0  0  0  0  0  0  0  0  0  0  0
  -30.4170  -12.2670   19.3970 C   0  0  0  0  0  2  0  0  0  0  0  0
  -29.4860  -12.5150   18.1950 C   0  0  0  0  0  2  0  0  0  0  0  0
  -28.0090  -12.3790   18.6100 C   0  0  0  0  0  2  0  0  0  0  0  0
  -27.6710  -13.1990   19.8830 C   0  0  0  0  0  3  0  0  0  0  0  0
  -28.7070  -12.9280   20.9970 C   0  0  0  0  0  2  0  0  0  0  0  0
  -30.0550  -13.2110   20.4640 N   0  0  0  0  0  0  0  0  0  0  0  0
  -31.7960  -14.6220   20.0390 O   0  0  0  0  0  0  0  0  0  0  0  0
  -30.2710  -15.1510   21.6170 N   0  0  0  0  0  0  0  0  0  0  0  0
  -29.4670  -14.7630   22.0870 H   0  0  0  0  0  0  0  0  0  0  0  0
  -25.2630  -13.8150   20.5690 C   0  0  0  0  0  0  0  0  0  0  0  0
  -24.1870  -13.0440   20.9160 C   0  0  0  0  0  0  0  0  0  0  0  0
  -24.6400  -11.6900   20.8720 C   0  0  0  0  0  0  0  0  0  0  0  0
  -26.3070  -12.9310   20.3400 N   0  0  0  0  0  0  0  0  0  0  0  0
  -25.9330  -11.6470   20.5760 N   0  0  0  0  0  0  0  0  0  0  0  0
  -23.9050  -10.4290   21.0400 C   0  0  0  0  0  0  0  0  0  0  0  0
  -24.3610   -9.4210   21.9180 C   0  0  0  0  0  3  0  0  0  0  0  0
  -23.6290   -8.2250   22.0750 C   0  0  0  0  0  3  0  0  0  0  0  0
  -22.4270   -8.0280   21.3540 C   0  0  0  0  0  0  0  0  0  0  0  0
  -21.9910   -9.0250   20.4640 C   0  0  0  0  0  3  0  0  0  0  0  0
  -22.7230  -10.2130   20.3050 C   0  0  0  0  0  3  0  0  0  0  0  0
  -21.6640   -6.8880   21.4240 O   0  0  0  0  0  0  0  0  0  0  0  0
  -21.6850   -6.0740   22.5280 C   0  0  0  0  0  0  0  0  0  0  0  0
  -21.4010   -6.5640   23.8210 C   0  0  0  0  0  3  0  0  0  0  0  0
  -21.3660   -5.6790   24.9180 C   0  0  0  0  0  3  0  0  0  0  0  0
  -21.6040   -4.3060   24.7220 C   0  0  0  0  0  0  0  0  0  0  0  0
  -21.8820   -3.8150   23.4350 C   0  0  0  0  0  3  0  0  0  0  0  0
  -21.9200   -4.6960   22.3400 C   0  0  0  0  0  0  0  0  0  0  0  0
  -22.1660   -4.2150   21.0980 F   0  0  0  0  0  0  0  0  0  0  0  0
  -21.5630   -3.4540   25.7740 F   0  0  0  0  0  0  0  0  0  0  0  0
  -22.7890  -13.5240   21.1830 C   0  0  0  0  0  0  0  0  0  0  0  0
  -22.0530  -12.8230   22.0390 N   0  0  0  0  0  0  0  0  0  0  0  0
  -22.3580  -14.5560   20.6700 O   0  0  0  0  0  0  0  0  0  0  0  0
  -22.4140  -11.9880   22.4750 H   0  0  0  0  0  0  0  0  0  0  0  0
  -21.1150  -13.1260   22.2600 H   0  0  0  0  0  0  0  0  0  0  0  0
  -25.4380  -15.1870   20.4120 N   0  0  0  0  0  0  0  0  0  0  0  0
  -24.6750  -15.8460   20.5250 H   0  0  0  0  0  0  0  0  0  0  0  0
  -26.2960  -15.6230   20.0970 H   0  0  0  0  0  0  0  0  0  0  0  0
  -29.6180  -24.9320   20.9160 C   0  0  0  0  0  2  0  0  0  0  0  0
  -28.4050  -25.3930   20.0970 C   0  0  0  0  0  2  0  0  0  0  0  0
  -28.4380  -26.8120   20.0770 O   0  0  0  0  0  0  0  0  0  0  0  0
  -24.6100  -31.8710   23.2120 C   0  0  0  0  0  0  0  0  0  0  0  0
  -27.2380  -27.4800   20.0820 C   0  0  0  0  0  0  0  0  0  0  0  0
  -23.3950  -30.4950   21.5510 C   0  0  0  0  0  3  0  0  0  0  0  0
  -24.8400  -28.9640   20.1160 C   0  0  0  0  0  0  0  0  0  0  0  0
  -25.9190  -30.8510   21.3560 C   0  0  0  0  0  2  0  0  0  0  0  0
  -25.9970  -29.4880   20.7050 C   0  0  0  0  0  0  0  0  0  0  0  0
  -27.1980  -28.7530   20.6820 C   0  0  0  0  0  3  0  0  0  0  0  0
  -26.0630  -26.9570   19.4920 C   0  0  0  0  0  3  0  0  0  0  0  0
  -24.8650  -27.6960   19.5100 C   0  0  0  0  0  3  0  0  0  0  0  0
  -23.6000  -29.8260   20.1660 C   0  0  0  0  0  2  0  0  0  0  0  0
  -24.6600  -31.0860   22.0990 N   0  0  0  0  0  0  0  0  0  0  0  0
  -23.5310  -32.1420   23.7560 O   0  0  0  0  0  0  0  0  0  0  0  0
  -22.7390  -29.4670   22.5000 C   0  0  0  0  0  0  0  0  0  0  0  0
  -21.4120  -29.3030   22.3730 N   0  0  0  0  0  0  0  0  0  0  0  0
  -23.4200  -28.8210   23.3000 O   0  0  0  0  0  0  0  0  0  0  0  0
  -20.9250  -29.8760   21.6970 H   0  0  0  0  0  0  0  0  0  0  0  0
  -18.0270  -28.1380   22.8490 C   0  0  0  0  0  0  0  0  0  0  0  0
  -20.5850  -28.3650   23.1320 C   0  0  0  0  0  3  0  0  0  0  0  0
  -20.6760  -26.9390   22.5410 C   0  0  0  0  0  2  0  0  0  0  0  0
  -19.5750  -26.6390   21.5200 C   0  0  0  0  0  2  0  0  0  0  0  0
  -18.1920  -26.7930   22.1610 C   0  0  0  0  0  2  0  0  0  0  0  0
  -19.1520  -28.8830   23.2910 C   0  0  0  0  0  0  0  0  0  0  0  0
  -18.9450  -30.1430   23.8920 C   0  0  0  0  0  3  0  0  0  0  0  0
  -17.6460  -30.6580   24.0570 C   0  0  0  0  0  3  0  0  0  0  0  0
  -16.5350  -29.9090   23.6330 C   0  0  0  0  0  3  0  0  0  0  0  0
  -16.7260  -28.6510   23.0340 C   0  0  0  0  0  3  0  0  0  0  0  0
  -25.9010  -32.4840   23.8400 C   0  0  0  0  0  3  0  0  0  0  0  0
  -26.4460  -31.6600   25.0710 C   0  0  1  0  0  0  0  0  0  0  0  0
  -25.3750  -31.3680   26.1460 C   0  0  0  0  0  1  0  0  0  0  0  0
  -27.0290  -30.3050   24.6020 C   0  0  0  0  0  1  0  0  0  0  0  0
  -27.6050  -32.4300   25.7460 C   0  0  0  0  0  1  0  0  0  0  0  0
  -25.5880  -33.8630   24.2350 N   0  0  0  0  0  0  0  0  0  0  0  0
  -25.9020  -34.9490   23.5150 C   0  0  0  0  0  0  0  0  0  0  0  0
  -26.5590  -34.8930   22.4710 O   0  0  0  0  0  0  0  0  0  0  0  0
  -25.0060  -33.9800   25.0510 H   0  0  0  0  0  0  0  0  0  0  0  0
  -24.1480  -36.7310   23.2630 C   0  0  0  0  0  1  0  0  0  0  0  0
  -25.4100  -36.3120   24.0350 C   0  0  0  0  0  3  0  0  0  0  0  0
  -27.5600  -37.1780   24.8460 C   0  0  0  0  0  1  0  0  0  0  0  0
  -26.4280  -37.3810   23.9450 N   0  0  0  0  0  0  0  0  0  0  0  0
  -26.0170  -38.2870   24.1520 H   0  0  0  0  0  0  0  0  0  0  0  0
  2  5  1  0
  3  1  1  0
  4  2  1  0
  4  6  1  0
  5 12  1  0
  5  1  1  0
  6  7  1  1
  6  3  1  0
  8  9  1  0
 10 13  1  0
 11 10  2  0
 11 12  1  0
 12  8  2  0
 13  9  2  0
 14 11  1  0
 15 23  1  0
 16 21  1  0
 17 18  1  0
 17 16  1  0
 19 18  1  0
 19 28  1  0
 19 20  1  0
 21 15  1  0
 21 20  1  0
 22 15  2  0
 23 13  1  0
 23 24  1  0
 25 26  2  0
 26 45  1  0
 27 26  1  0
 27 30  1  0
 28 25  1  0
 28 29  1  0
 29 27  2  0
 30 31  1  0
 31 32  2  0
 33 36  1  0
 33 32  1  0
 34 33  2  0
 35 34  1  0
 35 30  2  0
 36 37  1  0
 37 38  1  0
 38 39  2  0
 40 39  1  0
 40 44  1  0
 41 40  2  0
 42 37  2  0
 42 41  1  0
 43 42  1  0
 45 46  1  0
 46 49  1  0
 46 48  1  0
 47 45  2  0
 50 51  1  0
 50 25  1  0
 52 50  1  0
 53  6  1  0
 54 53  1  0
 55 57  1  0
 55 54  1  0
 56 67  2  0
 57 62  1  0
 58 66  1  0
 58 68  1  0
 59 65  1  0
 59 61  1  0
 60 66  1  0
 61 60  1  0
 62 61  2  0
 63 64  1  0
 63 57  2  0
 64 59  2  0
 65 58  1  0
 66 56  1  0
 68 70  2  0
 69 68  1  0
 71 69  1  0
 72 81  2  0
 72 77  1  0
 73 69  1  0
 73 77  1  0
 74 73  1  0
 75 76  1  0
 75 74  1  0
 76 72  1  0
 77 78  2  0
 78 79  1  0
 80 79  2  0
 81 80  1  0
 82 56  1  0
 82 87  1  0
 82 83  1  0
 83 86  1  1
 83 84  1  0
 85 83  1  0
 87 90  1  0
 88 92  1  0
 88 87  1  0
 89 88  2  0
 92 91  1  0
 94 92  1  0
 94 95  1  0
 94 93  1  0
M  ISO  4  15 100  23 100  54 101  55 101
M  END
>  <TORSDO>  (44) 
F 19

>  <SCORE>  (44) 
-12.524

>  <name>  (44) 
43

>  <ligand_id>  (44) 
43

>  <original_smiles>  (44) 
[H]c1c([H])c([H])c2c(c1[H])C([H])([H])C([H])([H])C([H])([H])C2([H])N([H])C(=O)C1([H])N(C(=O)C([H])(N([H])C(=O)C([H])(N([H])C([H])([H])[H])C([H])([H])[H])C(C([H])([H])[H])(C([H])([H])[H])C([H])([H])[H])C([H])([H])c2c([H])c(OC([H])([H])C([H])([H])[N+]3([H])C([H])([H])C([H])([H])N(c4c([H])c([H])c(N([H])C(=O)N5C([H])([H])C([H])([H])C([H])([H])C([H])(n6nc(-c7c([H])c([H])c(Oc8c([H])c([H])c(F)c([H])c8F)c([H])c7[H])c(C(=O)N([H])[H])c6N([H])[H])C5([H])[H])c([H])c4C([H])([H])[H])C([H])([H])C3([H])[H])c([H])c([H])c2C1([H])[H]

>  <smiles>  (44) 
[H]c1c([H])c([H])c2c(c1[H])C([H])([H])C([H])([H])C([H])([H])C2([H])N([H])C(=O)C1([H])N(C(=O)C([H])(N([H])C(=O)C([H])(N([H])C([H])([H])[H])C([H])([H])[H])C(C([H])([H])[H])(C([H])([H])[H])C([H])([H])[H])C([H])([H])c2c([H])c(OC([H])([H])C([H])([H])[N+]3([H])C([H])([H])C([H])([H])N(c4c([H])c([H])c(N([H])C(=O)N5C([H])([H])C([H])([H])C([H])([H])C([H])(n6nc(-c7c([H])c([H])c(Oc8c([H])c([H])c(F)c([H])c8F)c([H])c7[H])c(C(=O)N([H])[H])c6N([H])[H])C5([H])[H])c([H])c4C([H])([H])[H])C([H])([H])C3([H])[H])c([H])c([H])c2C1([H])[H]

$$$$
44:0:0
     RDKit          3D

 89 97  0  0  1  0  0  0  0  0999 V2000
  -29.9080  -21.3800   20.3680 C   0  0  0  0  0  3  0  0  0  0  0  0
  -30.2700  -19.8780   20.3850 C   0  0  0  0  0  3  0  0  0  0  0  0
  -27.7870  -20.8370   20.0440 C   0  0  0  0  0  3  0  0  0  0  0  0
  -28.5940  -22.0790   20.1950 C   0  0  0  0  0  0  0  0  0  0  0  0
  -29.4120  -18.6560   20.2400 C   0  0  0  0  0  0  0  0  0  0  0  0
  -28.1200  -19.3470   20.0530 C   0  0  0  0  0  0  0  0  0  0  0  0
  -30.3920  -15.6460   20.1630 C   0  0  0  0  0  0  0  0  0  0  0  0
  -30.4940  -13.1170   19.3250 C   0  0  0  0  0  2  0  0  0  0  0  0
  -29.5790  -12.7530   18.1210 C   0  0  0  0  0  2  0  0  0  0  0  0
  -28.1530  -12.4060   18.5810 C   0  0  0  0  0  2  0  0  0  0  0  0
  -27.6670  -13.3760   19.6830 C   0  0  0  0  0  3  0  0  0  0  0  0
  -28.7210  -13.6540   20.7820 C   0  0  0  0  0  2  0  0  0  0  0  0
  -29.8900  -14.2770   20.1170 N   0  0  0  0  0  0  0  0  0  0  0  0
  -31.6170  -15.6300   19.9380 O   0  0  0  0  0  0  0  0  0  0  0  0
  -29.5610  -16.9450   20.2750 N   0  0  0  0  0  0  0  0  0  0  0  0
  -28.6260  -16.5920   20.4110 H   0  0  0  0  0  0  0  0  0  0  0  0
  -25.3160  -13.8760   20.5090 C   0  0  0  0  0  0  0  0  0  0  0  0
  -24.2680  -13.0820   20.8770 C   0  0  0  0  0  0  0  0  0  0  0  0
  -24.7450  -11.7380   20.8060 C   0  0  0  0  0  0  0  0  0  0  0  0
  -26.3600  -13.0190   20.2210 N   0  0  0  0  0  0  0  0  0  0  0  0
  -26.0320  -11.7220   20.4640 N   0  0  0  0  0  0  0  0  0  0  0  0
  -24.0280  -10.4680   20.9820 C   0  0  0  0  0  0  0  0  0  0  0  0
  -24.4550   -9.4980   21.9160 C   0  0  0  0  0  3  0  0  0  0  0  0
  -23.7340   -8.2970   22.0840 C   0  0  0  0  0  3  0  0  0  0  0  0
  -22.5690   -8.0550   21.3170 C   0  0  0  0  0  0  0  0  0  0  0  0
  -22.1590   -9.0140   20.3730 C   0  0  0  0  0  3  0  0  0  0  0  0
  -22.8810  -10.2060   20.2040 C   0  0  0  0  0  3  0  0  0  0  0  0
  -21.8190   -6.9060   21.3920 O   0  0  0  0  0  0  0  0  0  0  0  0
  -21.7220   -6.1830   22.5550 C   0  0  0  0  0  0  0  0  0  0  0  0
  -21.2050   -6.7480   23.7400 C   0  0  0  0  0  3  0  0  0  0  0  0
  -21.0590   -5.9500   24.8940 C   0  0  0  0  0  3  0  0  0  0  0  0
  -21.4190   -4.5900   24.8610 C   0  0  0  0  0  0  0  0  0  0  0  0
  -21.9280   -4.0240   23.6780 C   0  0  0  0  0  3  0  0  0  0  0  0
  -22.0760   -4.8190   22.5270 C   0  0  0  0  0  0  0  0  0  0  0  0
  -22.5480   -4.2630   21.3850 F   0  0  0  0  0  0  0  0  0  0  0  0
  -21.2710   -3.8230   25.9660 F   0  0  0  0  0  0  0  0  0  0  0  0
  -22.8750  -13.5470   21.1820 C   0  0  0  0  0  0  0  0  0  0  0  0
  -22.1690  -12.8390   22.0560 N   0  0  0  0  0  0  0  0  0  0  0  0
  -22.4220  -14.5750   20.6800 O   0  0  0  0  0  0  0  0  0  0  0  0
  -22.5520  -12.0110   22.4870 H   0  0  0  0  0  0  0  0  0  0  0  0
  -21.2350  -13.1340   22.2990 H   0  0  0  0  0  0  0  0  0  0  0  0
  -25.4600  -15.2540   20.3680 N   0  0  0  0  0  0  0  0  0  0  0  0
  -24.6850  -15.8870   20.5310 H   0  0  0  0  0  0  0  0  0  0  0  0
  -26.2970  -15.7240   20.0540 H   0  0  0  0  0  0  0  0  0  0  0  0
  -27.8290  -23.7510   20.1290 C   0  0  0  0  0  0  0  0  0  0  0  0
  -26.6160  -23.5950   19.9750 O   0  0  0  0  0  0  0  0  0  0  0  0
  -28.1910  -25.5420   20.2160 O   0  0  0  0  0  0  0  0  0  0  0  0
  -24.6800  -31.8080   23.1920 C   0  0  0  0  0  0  0  0  0  0  0  0
  -27.2490  -26.7770   20.1680 C   0  0  0  0  0  0  0  0  0  0  0  0
  -23.5120  -30.4250   21.5310 C   0  0  0  0  0  3  0  0  0  0  0  0
  -24.9790  -28.8020   20.1130 C   0  0  0  0  0  0  0  0  0  0  0  0
  -26.0910  -30.5750   21.4410 C   0  0  0  0  0  2  0  0  0  0  0  0
  -26.1650  -29.1510   20.7710 C   0  0  0  0  0  0  0  0  0  0  0  0
  -27.2820  -28.1620   20.7780 C   0  0  0  0  0  3  0  0  0  0  0  0
  -26.0320  -26.6510   19.4470 C   0  0  0  0  0  3  0  0  0  0  0  0
  -24.9510  -27.5790   19.4270 C   0  0  0  0  0  3  0  0  0  0  0  0
  -23.7680  -29.7460   20.1550 C   0  0  0  0  0  2  0  0  0  0  0  0
  -24.7850  -30.9680   22.1080 N   0  0  0  0  0  0  0  0  0  0  0  0
  -23.5820  -32.1020   23.6950 O   0  0  0  0  0  0  0  0  0  0  0  0
  -22.7880  -29.4350   22.4840 C   0  0  0  0  0  0  0  0  0  0  0  0
  -21.4550  -29.2910   22.3520 N   0  0  0  0  0  0  0  0  0  0  0  0
  -23.4380  -28.7960   23.3140 O   0  0  0  0  0  0  0  0  0  0  0  0
  -20.9810  -29.8550   21.6620 H   0  0  0  0  0  0  0  0  0  0  0  0
  -18.0510  -28.1290   22.8700 C   0  0  0  0  0  0  0  0  0  0  0  0
  -20.6190  -28.3510   23.1120 C   0  0  0  0  0  3  0  0  0  0  0  0
  -20.6900  -26.9310   22.5040 C   0  0  0  0  0  2  0  0  0  0  0  0
  -19.5730  -26.6510   21.4920 C   0  0  0  0  0  2  0  0  0  0  0  0
  -18.2000  -26.7980   22.1530 C   0  0  0  0  0  2  0  0  0  0  0  0
  -19.1860  -28.8660   23.3060 C   0  0  0  0  0  0  0  0  0  0  0  0
  -18.9880  -30.1100   23.9440 C   0  0  0  0  0  3  0  0  0  0  0  0
  -17.6900  -30.6180   24.1460 C   0  0  0  0  0  3  0  0  0  0  0  0
  -16.5710  -29.8790   23.7230 C   0  0  0  0  0  3  0  0  0  0  0  0
  -16.7530  -28.6350   23.0910 C   0  0  0  0  0  3  0  0  0  0  0  0
  -25.9370  -32.4520   23.8520 C   0  0  0  0  0  3  0  0  0  0  0  0
  -25.6150  -33.8530   24.1840 N   0  0  0  0  0  0  0  0  0  0  0  0
  -25.9380  -34.9180   23.4380 C   0  0  0  0  0  0  0  0  0  0  0  0
  -26.5940  -34.8250   22.3980 O   0  0  0  0  0  0  0  0  0  0  0  0
  -25.0270  -34.0000   24.9910 H   0  0  0  0  0  0  0  0  0  0  0  0
  -24.1940  -36.7140   23.1470 C   0  0  0  0  0  1  0  0  0  0  0  0
  -25.4600  -36.3050   23.9170 C   0  0  0  0  0  3  0  0  0  0  0  0
  -27.6090  -37.2080   24.6930 C   0  0  0  0  0  1  0  0  0  0  0  0
  -26.4840  -37.3650   23.7780 N   0  0  0  0  0  0  0  0  0  0  0  0
  -26.0750  -38.2830   23.9320 H   0  0  0  0  0  0  0  0  0  0  0  0
  -26.4120  -31.6880   25.1510 C   0  0  1  0  0  0  0  0  0  0  0  0
  -25.2880  -31.4750   26.1930 C   0  0  0  0  0  1  0  0  0  0  0  0
  -26.9920  -30.2990   24.8030 C   0  0  0  0  0  1  0  0  0  0  0  0
  -27.5520  -32.4790   25.8360 C   0  0  0  0  0  1  0  0  0  0  0  0
  -26.0450  -18.8000   18.9940 C   0  0  0  0  0  1  0  0  0  0  0  0
  -27.1090  -18.4310   19.8610 O   0  0  0  0  0  0  0  0  0  0  0  0
  1  2  1  0
  3  6  2  0
  3  4  1  0
  4  1  2  0
  5 15  1  0
  5  2  2  0
  6  5  1  0
  7 15  1  0
  8 13  1  0
  9 10  1  0
  9  8  1  0
 11 10  1  0
 11 20  1  0
 11 12  1  0
 13  7  1  0
 13 12  1  0
 14  7  2  0
 15 16  1  0
 17 18  2  0
 18 37  1  0
 19 18  1  0
 19 22  1  0
 20 21  1  0
 20 17  1  0
 21 19  2  0
 22 23  1  0
 23 24  2  0
 25 28  1  0
 25 24  1  0
 26 25  2  0
 27 26  1  0
 27 22  2  0
 28 29  1  0
 29 30  1  0
 30 31  2  0
 32 31  1  0
 32 36  1  0
 33 32  2  0
 34 29  2  0
 34 33  1  0
 35 34  1  0
 37 38  1  0
 38 41  1  0
 38 40  1  0
 39 37  2  0
 42 17  1  0
 42 43  1  0
 44 42  1  0
 45  4  1  0
 45 47  1  0
 46 45  2  0
 48 59  2  0
 49 47  1  0
 49 54  1  0
 50 58  1  0
 50 60  1  0
 51 57  1  0
 51 53  1  0
 52 58  1  0
 53 54  2  0
 53 52  1  0
 55 49  2  0
 56 55  1  0
 56 51  2  0
 57 50  1  0
 58 48  1  0
 60 62  2  0
 61 60  1  0
 63 61  1  0
 64 73  2  0
 64 69  1  0
 65 61  1  0
 65 69  1  0
 66 65  1  0
 67 68  1  0
 67 66  1  0
 68 64  1  0
 69 70  2  0
 70 71  1  0
 72 71  2  0
 73 72  1  0
 74 48  1  0
 74 75  1  0
 74 84  1  0
 75 78  1  0
 76 80  1  0
 76 75  1  0
 77 76  2  0
 80 79  1  0
 82 80  1  0
 82 83  1  0
 82 81  1  0
 84 87  1  1
 84 85  1  0
 86 84  1  0
 88 89  1  0
 89  6  1  0
M  ISO  4   7 100  15 100  45 101  47 101
M  END
>  <TORSDO>  (45) 
F 18

>  <SCORE>  (45) 
-15.552

>  <name>  (45) 
44

>  <ligand_id>  (45) 
44

>  <original_smiles>  (45) 
[H]c1c([H])c([H])c2c(c1[H])C([H])([H])C([H])([H])C([H])([H])C2([H])N([H])C(=O)C1([H])N(C(=O)C([H])(N([H])C(=O)C([H])(N([H])C([H])([H])[H])C([H])([H])[H])C(C([H])([H])[H])(C([H])([H])[H])C([H])([H])[H])C([H])([H])c2c([H])c(OC(=O)c3c([H])c([H])c(N([H])C(=O)N4C([H])([H])C([H])([H])C([H])([H])C([H])(n5nc(-c6c([H])c([H])c(Oc7c([H])c([H])c(F)c([H])c7F)c([H])c6[H])c(C(=O)N([H])[H])c5N([H])[H])C4([H])[H])c(OC([H])([H])[H])c3[H])c([H])c([H])c2C1([H])[H]

>  <smiles>  (45) 
[H]c1c([H])c([H])c2c(c1[H])C([H])([H])C([H])([H])C([H])([H])C2([H])N([H])C(=O)C1([H])N(C(=O)C([H])(N([H])C(=O)C([H])(N([H])C([H])([H])[H])C([H])([H])[H])C(C([H])([H])[H])(C([H])([H])[H])C([H])([H])[H])C([H])([H])c2c([H])c(OC(=O)c3c([H])c([H])c(N([H])C(=O)N4C([H])([H])C([H])([H])C([H])([H])C([H])(n5nc(-c6c([H])c([H])c(Oc7c([H])c([H])c(F)c([H])c7F)c([H])c6[H])c(C(=O)N([H])[H])c5N([H])[H])C4([H])[H])c(OC([H])([H])[H])c3[H])c([H])c([H])c2C1([H])[H]

$$$$
45:0:0
     RDKit          3D

 84 91  0  0  1  0  0  0  0  0999 V2000
  -28.0360  -24.2690   20.5090 C   0  0  0  0  0  2  0  0  0  0  0  0
  -28.2220  -25.8810   20.2090 O   0  0  0  0  0  0  0  0  0  0  0  0
  -24.6160  -31.8370   23.1800 C   0  0  0  0  0  0  0  0  0  0  0  0
  -27.1870  -26.9520   20.2070 C   0  0  0  0  0  0  0  0  0  0  0  0
  -23.4240  -30.4230   21.5540 C   0  0  0  0  0  3  0  0  0  0  0  0
  -24.8760  -28.8110   20.1480 C   0  0  0  0  0  0  0  0  0  0  0  0
  -25.9900  -30.6480   21.3990 C   0  0  0  0  0  2  0  0  0  0  0  0
  -26.0650  -29.2330   20.7580 C   0  0  0  0  0  0  0  0  0  0  0  0
  -27.2180  -28.3250   20.7560 C   0  0  0  0  0  3  0  0  0  0  0  0
  -25.9650  -26.6750   19.5560 C   0  0  0  0  0  3  0  0  0  0  0  0
  -24.8500  -27.5530   19.5260 C   0  0  0  0  0  3  0  0  0  0  0  0
  -23.6540  -29.7270   20.1840 C   0  0  0  0  0  2  0  0  0  0  0  0
  -24.6980  -30.9970   22.0980 N   0  0  0  0  0  0  0  0  0  0  0  0
  -23.5260  -32.1260   23.7010 O   0  0  0  0  0  0  0  0  0  0  0  0
  -22.7360  -29.4330   22.5290 C   0  0  0  0  0  0  0  0  0  0  0  0
  -21.4040  -29.2710   22.4160 N   0  0  0  0  0  0  0  0  0  0  0  0
  -23.4070  -28.8080   23.3540 O   0  0  0  0  0  0  0  0  0  0  0  0
  -20.9170  -29.8260   21.7270 H   0  0  0  0  0  0  0  0  0  0  0  0
  -18.0230  -28.0690   22.9520 C   0  0  0  0  0  0  0  0  0  0  0  0
  -20.5850  -28.3390   23.1970 C   0  0  0  0  0  3  0  0  0  0  0  0
  -20.6840  -26.9040   22.6300 C   0  0  0  0  0  2  0  0  0  0  0  0
  -19.5750  -26.5740   21.6240 C   0  0  0  0  0  2  0  0  0  0  0  0
  -18.1970  -26.7180   22.2770 C   0  0  0  0  0  2  0  0  0  0  0  0
  -19.1440  -28.8370   23.3690 C   0  0  0  0  0  0  0  0  0  0  0  0
  -18.9240  -30.0980   23.9630 C   0  0  0  0  0  3  0  0  0  0  0  0
  -17.6200  -30.5940   24.1420 C   0  0  0  0  0  3  0  0  0  0  0  0
  -16.5140  -29.8250   23.7380 C   0  0  0  0  0  3  0  0  0  0  0  0
  -16.7170  -28.5640   23.1490 C   0  0  0  0  0  3  0  0  0  0  0  0
  -25.8860  -32.4890   23.8060 C   0  0  0  0  0  3  0  0  0  0  0  0
  -26.4090  -31.7230   25.0840 C   0  0  1  0  0  0  0  0  0  0  0  0
  -25.3200  -31.4800   26.1550 C   0  0  0  0  0  1  0  0  0  0  0  0
  -27.0000  -30.3470   24.6990 C   0  0  0  0  0  1  0  0  0  0  0  0
  -27.5570  -32.5240   25.7410 C   0  0  0  0  0  1  0  0  0  0  0  0
  -25.5550  -33.8830   24.1530 N   0  0  0  0  0  0  0  0  0  0  0  0
  -25.8660  -34.9530   23.4100 C   0  0  0  0  0  0  0  0  0  0  0  0
  -26.5250  -34.8730   22.3700 O   0  0  0  0  0  0  0  0  0  0  0  0
  -24.9660  -34.0180   24.9610 H   0  0  0  0  0  0  0  0  0  0  0  0
  -24.1090  -36.7340   23.1180 C   0  0  0  0  0  1  0  0  0  0  0  0
  -25.3720  -36.3320   23.8960 C   0  0  0  0  0  3  0  0  0  0  0  0
  -27.5150  -37.2360   24.6870 C   0  0  0  0  0  1  0  0  0  0  0  0
  -26.3890  -37.4000   23.7720 N   0  0  0  0  0  0  0  0  0  0  0  0
  -25.9750  -38.3130   23.9390 H   0  0  0  0  0  0  0  0  0  0  0  0
  -28.7190  -22.6990   19.9240 C   0  0  0  0  0  2  0  0  0  0  0  0
  -28.9900  -21.2170   20.5850 O   0  0  0  0  0  0  0  0  0  0  0  0
  -29.0780  -19.6810   19.9990 C   0  0  0  0  0  2  0  0  0  0  0  0
  -29.8810  -18.1670   20.5600 C   0  0  0  0  0  2  0  0  0  0  0  0
  -30.3820  -15.2640   20.2540 C   0  0  0  0  0  0  0  0  0  0  0  0
  -30.3490  -12.8260   19.3660 C   0  0  0  0  0  2  0  0  0  0  0  0
  -29.4210  -12.6110   18.1440 C   0  0  0  0  0  2  0  0  0  0  0  0
  -27.9740  -12.3490   18.5940 C   0  0  0  0  0  2  0  0  0  0  0  0
  -27.5290  -13.3180   19.7180 C   0  0  0  0  0  3  0  0  0  0  0  0
  -28.5830  -13.4670   20.8330 C   0  0  0  0  0  2  0  0  0  0  0  0
  -29.8060  -13.9670   20.1860 N   0  0  0  0  0  0  0  0  0  0  0  0
  -31.6080  -15.2630   20.0800 O   0  0  0  0  0  0  0  0  0  0  0  0
  -29.6180  -16.5330   20.3180 N   0  0  0  0  0  0  0  0  0  0  0  0
  -28.6290  -16.3280   20.3210 H   0  0  0  0  0  0  0  0  0  0  0  0
  -25.1610  -13.8840   20.4750 C   0  0  0  0  0  0  0  0  0  0  0  0
  -24.0990  -13.1090   20.8510 C   0  0  0  0  0  0  0  0  0  0  0  0
  -24.5680  -11.7590   20.8280 C   0  0  0  0  0  0  0  0  0  0  0  0
  -26.2030  -13.0060   20.2350 N   0  0  0  0  0  0  0  0  0  0  0  0
  -25.8590  -11.7220   20.5170 N   0  0  0  0  0  0  0  0  0  0  0  0
  -23.8400  -10.4970   21.0260 C   0  0  0  0  0  0  0  0  0  0  0  0
  -24.2820   -9.5240   21.9500 C   0  0  0  0  0  3  0  0  0  0  0  0
  -23.5520   -8.3310   22.1370 C   0  0  0  0  0  3  0  0  0  0  0  0
  -22.3660   -8.1010   21.4000 C   0  0  0  0  0  0  0  0  0  0  0  0
  -21.9430   -9.0620   20.4650 C   0  0  0  0  0  3  0  0  0  0  0  0
  -22.6730  -10.2470   20.2760 C   0  0  0  0  0  3  0  0  0  0  0  0
  -21.6060   -6.9600   21.4960 O   0  0  0  0  0  0  0  0  0  0  0  0
  -21.5890   -6.2020   22.6400 C   0  0  0  0  0  0  0  0  0  0  0  0
  -21.2240   -6.7480   23.8900 C   0  0  0  0  0  3  0  0  0  0  0  0
  -21.1520   -5.9180   25.0260 C   0  0  0  0  0  3  0  0  0  0  0  0
  -21.4340   -4.5440   24.9150 C   0  0  0  0  0  0  0  0  0  0  0  0
  -21.7920   -3.9970   23.6700 C   0  0  0  0  0  3  0  0  0  0  0  0
  -21.8660   -4.8250   22.5350 C   0  0  0  0  0  0  0  0  0  0  0  0
  -22.1910   -4.2890   21.3340 F   0  0  0  0  0  0  0  0  0  0  0  0
  -21.3580   -3.7440   26.0040 F   0  0  0  0  0  0  0  0  0  0  0  0
  -22.7020  -13.5880   21.1150 C   0  0  0  0  0  0  0  0  0  0  0  0
  -21.9740  -12.9020   21.9880 N   0  0  0  0  0  0  0  0  0  0  0  0
  -22.2660  -14.6070   20.5800 O   0  0  0  0  0  0  0  0  0  0  0  0
  -22.3410  -12.0790   22.4420 H   0  0  0  0  0  0  0  0  0  0  0  0
  -21.0360  -13.2060   22.2080 H   0  0  0  0  0  0  0  0  0  0  0  0
  -25.3200  -15.2530   20.2870 N   0  0  0  0  0  0  0  0  0  0  0  0
  -24.5470  -15.9020   20.3920 H   0  0  0  0  0  0  0  0  0  0  0  0
  -26.1550  -15.6900   19.9190 H   0  0  0  0  0  0  0  0  0  0  0  0
  2  1  1  0
  3 14  2  0
  4  2  1  0
  4  9  1  0
  5 13  1  0
  5 15  1  0
  6 12  1  0
  6  8  1  0
  7 13  1  0
  8  7  1  0
  9  8  2  0
 10  4  2  0
 11 10  1  0
 11  6  2  0
 12  5  1  0
 13  3  1  0
 15 17  2  0
 16 15  1  0
 18 16  1  0
 19 28  2  0
 19 24  1  0
 20 16  1  0
 20 24  1  0
 21 20  1  0
 22 23  1  0
 22 21  1  0
 23 19  1  0
 24 25  2  0
 25 26  1  0
 27 26  2  0
 28 27  1  0
 29  3  1  0
 29 34  1  0
 29 30  1  0
 30 33  1  1
 30 31  1  0
 32 30  1  0
 34 37  1  0
 35 39  1  0
 35 34  1  0
 36 35  2  0
 39 38  1  0
 41 39  1  0
 41 42  1  0
 41 40  1  0
 43  1  1  0
 43 44  1  0
 45 46  1  0
 45 44  1  0
 47 55  1  0
 48 53  1  0
 49 50  1  0
 49 48  1  0
 51 50  1  0
 51 60  1  0
 51 52  1  0
 53 47  1  0
 53 52  1  0
 54 47  2  0
 55 56  1  0
 55 46  1  0
 57 58  2  0
 58 77  1  0
 59 58  1  0
 59 62  1  0
 60 57  1  0
 60 61  1  0
 61 59  2  0
 62 63  1  0
 63 64  2  0
 65 68  1  0
 65 64  1  0
 66 65  2  0
 67 66  1  0
 67 62  2  0
 68 69  1  0
 69 70  1  0
 70 71  2  0
 72 71  1  0
 72 76  1  0
 73 72  2  0
 74 69  2  0
 74 73  1  0
 75 74  1  0
 77 78  1  0
 78 81  1  0
 78 80  1  0
 79 77  2  0
 82 83  1  0
 82 57  1  0
 84 82  1  0
M  ISO  4   1 101   2 101  47 100  55 100
M  END
>  <TORSDO>  (46) 
F 20

>  <SCORE>  (46) 
-15.761

>  <name>  (46) 
45

>  <ligand_id>  (46) 
45

>  <original_smiles>  (46) 
[H]c1c([H])c([H])c2c(c1[H])C([H])([H])C([H])([H])C([H])([H])C2([H])N([H])C(=O)C1([H])N(C(=O)C([H])(N([H])C(=O)C([H])(N([H])C([H])([H])[H])C([H])([H])[H])C(C([H])([H])[H])(C([H])([H])[H])C([H])([H])[H])C([H])([H])c2c([H])c(OC([H])([H])C([H])([H])OC([H])([H])C([H])([H])N([H])C(=O)N3C([H])([H])C([H])([H])C([H])([H])C([H])(n4nc(-c5c([H])c([H])c(Oc6c([H])c([H])c(F)c([H])c6F)c([H])c5[H])c(C(=O)N([H])[H])c4N([H])[H])C3([H])[H])c([H])c([H])c2C1([H])[H]

>  <smiles>  (46) 
[H]c1c([H])c([H])c2c(c1[H])C([H])([H])C([H])([H])C([H])([H])C2([H])N([H])C(=O)C1([H])N(C(=O)C([H])(N([H])C(=O)C([H])(N([H])C([H])([H])[H])C([H])([H])[H])C(C([H])([H])[H])(C([H])([H])[H])C([H])([H])[H])C([H])([H])c2c([H])c(OC([H])([H])C([H])([H])OC([H])([H])C([H])([H])N([H])C(=O)N3C([H])([H])C([H])([H])C([H])([H])C([H])(n4nc(-c5c([H])c([H])c(Oc6c([H])c([H])c(F)c([H])c6F)c([H])c5[H])c(C(=O)N([H])[H])c4N([H])[H])C3([H])[H])c([H])c([H])c2C1([H])[H]

$$$$
46:0:0
     RDKit          3D

103105  0  0  1  0  0  0  0  0999 V2000
  -28.1990  -17.3240   19.7100 C   0  0  0  0  0  2  0  0  0  0  0  0
  -29.4300  -16.7080   19.0140 C   0  0  0  0  0  2  0  0  0  0  0  0
  -28.4940  -14.3360   18.3740 C   0  0  0  0  0  0  0  0  0  0  0  0
  -29.2720  -15.4350   18.2850 N   0  0  0  0  0  0  0  0  0  0  0  0
  -28.6280  -13.4740   17.5100 O   0  0  0  0  0  0  0  0  0  0  0  0
  -29.9070  -15.3730   17.4990 H   0  0  0  0  0  0  0  0  0  0  0  0
  -29.3730  -13.8770   21.8840 C   0  0  0  0  0  0  0  0  0  0  0  0
  -30.9250  -12.0280   20.9270 C   0  0  0  0  0  2  0  0  0  0  0  0
  -30.4200  -11.6590   19.4700 C   0  0  0  0  0  2  0  0  0  0  0  0
  -28.9150  -11.1720   19.4170 C   0  0  0  0  0  2  0  0  0  0  0  0
  -28.1610  -11.8200   20.5750 C   0  0  0  0  0  3  0  0  0  0  0  0
  -28.8450  -11.6360   21.9360 C   0  0  0  0  0  2  0  0  0  0  0  0
  -29.8580  -12.6000   21.8330 N   0  0  0  0  0  0  0  0  0  0  0  0
  -30.3800  -14.6440   21.7260 O   0  0  0  0  0  0  0  0  0  0  0  0
  -23.5750   -8.8500   20.0010 C   0  0  0  0  0  1  0  0  0  0  0  0
  -23.3920   -9.1720   22.6100 C   0  0  0  0  0  1  0  0  0  0  0  0
  -23.7000  -10.2280   19.0780 C   0  0  0  0  0  2  0  0  0  0  0  0
  -23.5410  -10.6620   23.2380 C   0  0  0  0  0  2  0  0  0  0  0  0
  -23.7930  -11.7140   19.7980 C   0  0  0  0  0  1  0  0  0  0  0  0
  -23.8800  -11.9150   22.2940 C   0  0  0  0  0  1  0  0  0  0  0  0
  -25.4220  -12.8330   18.6480 C   0  0  0  0  0 15  0  0  0  0  0  0
  -26.0530  -12.9820   22.9720 C   0  0  0  0  0 15  0  0  0  0  0  0
  -27.3910  -14.1080   19.4440 C   0  0  0  0  0  1  0  0  0  0  0  0
  -27.8090  -13.9790   21.6940 N   0  0  0  0  0  1  0  0  0  0  0  0
  -25.6700  -13.7850   20.7910 C   0  0  0  0  0  3  0  0  0  0  0  0
  -24.8450  -13.3390   20.8860 C   0  0  0  0  0  3  0  0  0  0  0  0
  -25.6810  -11.5880   21.0500 C   0  0  1  0  0  0  0  0  0  0  0  0
  -26.6730  -12.2650   20.6560 N   0  0  2  0  0  4  0  0  0  0  0  0
  -26.4900  -11.0810   20.4460 N   0  0  0  0  0  2  0  0  0  0  0  0
  -24.8360  -10.1730   21.3320 C   0  0  0  0  0  3  0  0  0  0  0  0
  -25.3310   -8.5460   21.7690 C   0  0  0  0  0  3  0  0  0  0  0  0
  -24.1450   -7.2440   21.8910 C   0  0  0  0  0  2  0  0  0  0  0  0
  -22.4240   -7.4070   21.6030 C   0  0  0  0  0  0  0  0  0  0  0  0
  -21.5870   -8.8440   21.2070 C   0  0  0  0  0  3  0  0  0  0  0  0
  -22.4280  -10.3500   21.0690 C   0  0  0  0  0  1  0  0  0  0  0  0
  -21.6320   -6.3490   21.5400 O   0  0  0  0  0  0  0  0  0  0  0  0
  -21.4280   -5.7630   22.7250 C   0  0  0  0  0  0  0  0  0  0  0  0
  -20.8810   -6.4430   23.8350 C   0  0  0  0  0  3  0  0  0  0  0  0
  -20.6290   -5.7170   25.0090 C   0  0  0  0  0  3  0  0  0  0  0  0
  -20.9210   -4.3390   25.0530 C   0  0  0  0  0  0  0  0  0  0  0  0
  -21.4950   -3.6890   23.9450 C   0  0  0  0  0  3  0  0  0  0  0  0
  -21.7540   -4.4110   22.7770 C   0  0  0  0  0  0  0  0  0  0  0  0
  -22.2970   -3.8170   21.6860 F   0  0  0  0  0  0  0  0  0  0  0  0
  -20.6470   -3.6300   26.1670 F   0  0  0  0  0  0  0  0  0  0  0  0
  -23.2830  -14.0130   20.8180 C   0  0  0  0  0  0  0  0  0  0  0  0
  -22.1830  -13.5850   21.5000 N   0  0  0  0  0  0  0  0  0  0  0  0
  -22.9800  -14.7950   19.9450 O   0  0  0  0  0  0  0  0  0  0  0  0
  -22.3020  -12.8450   22.1800 H   0  0  0  0  0  0  0  0  0  0  0  0
  -21.2740  -13.9910   21.3310 H   0  0  0  0  0  0  0  0  0  0  0  0
  -25.6960  -15.2230   20.9110 N   0  0  0  0  0  0  0  0  0  0  0  0
  -24.8700  -15.8090   20.9580 H   0  0  0  0  0  0  0  0  0  0  0  0
  -26.5520  -15.7170   21.1270 H   0  0  0  0  0  0  0  0  0  0  0  0
  -28.5470  -18.3430   20.8140 C   0  0  0  0  0  2  0  0  0  0  0  0
  -28.4530  -20.7310   20.1390 C   0  0  0  0  0  0  0  0  0  0  0  0
  -29.1230  -19.5840   20.3050 N   0  0  0  0  0  0  0  0  0  0  0  0
  -27.2320  -20.8130   20.2990 O   0  0  0  0  0  0  0  0  0  0  0  0
  -30.1240  -19.6070   20.1570 H   0  0  0  0  0  0  0  0  0  0  0  0
  -29.2760  -21.9730   19.7720 C   0  0  0  0  0  2  0  0  0  0  0  0
  -28.7310  -23.1020   20.4440 O   0  0  0  0  0  0  0  0  0  0  0  0
  -29.3770  -24.3270   20.1150 C   0  0  0  0  0  2  0  0  0  0  0  0
  -28.6440  -25.4740   20.8170 C   0  0  0  0  0  0  0  0  0  0  0  0
  -28.1660  -25.3400   21.9500 O   0  0  0  0  0  0  0  0  0  0  0  0
  -28.4940  -26.5570   20.0300 O   0  0  0  0  0  0  0  0  0  0  0  0
  -24.6250  -31.6570   23.1850 C   0  0  0  0  0  0  0  0  0  0  0  0
  -27.3230  -27.2690   20.1040 C   0  0  0  0  0  0  0  0  0  0  0  0
  -23.4360  -30.2450   21.5370 C   0  0  0  0  0  3  0  0  0  0  0  0
  -24.9090  -28.7250   20.1190 C   0  0  0  0  0  0  0  0  0  0  0  0
  -25.9560  -30.6350   21.3460 C   0  0  0  0  0  2  0  0  0  0  0  0
  -26.0580  -29.2670   20.7090 C   0  0  0  0  0  0  0  0  0  0  0  0
  -27.2730  -28.5480   20.6990 C   0  0  0  0  0  3  0  0  0  0  0  0
  -26.1600  -26.7350   19.5090 C   0  0  0  0  0  3  0  0  0  0  0  0
  -24.9520  -27.4550   19.5190 C   0  0  0  0  0  3  0  0  0  0  0  0
  -23.6550  -29.5690   20.1570 C   0  0  0  0  0  2  0  0  0  0  0  0
  -24.6890  -30.8600   22.0810 N   0  0  0  0  0  0  0  0  0  0  0  0
  -23.5400  -31.9190   23.7230 O   0  0  0  0  0  0  0  0  0  0  0  0
  -22.7910  -29.2170   22.4920 C   0  0  0  0  0  0  0  0  0  0  0  0
  -21.4780  -28.9900   22.3290 N   0  0  0  0  0  0  0  0  0  0  0  0
  -23.4710  -28.6250   23.3350 O   0  0  0  0  0  0  0  0  0  0  0  0
  -20.9910  -29.5230   21.6220 H   0  0  0  0  0  0  0  0  0  0  0  0
  -18.1400  -27.6610   22.7050 C   0  0  0  0  0  0  0  0  0  0  0  0
  -20.6680  -28.0380   23.0880 C   0  0  0  0  0  3  0  0  0  0  0  0
  -20.8590  -26.5980   22.5590 C   0  0  0  0  0  2  0  0  0  0  0  0
  -19.8220  -26.2000   21.5050 C   0  0  0  0  0  2  0  0  0  0  0  0
  -18.4070  -26.3020   22.0810 C   0  0  0  0  0  2  0  0  0  0  0  0
  -19.2030  -28.4830   23.1650 C   0  0  0  0  0  0  0  0  0  0  0  0
  -18.9050  -29.7530   23.7050 C   0  0  0  0  0  3  0  0  0  0  0  0
  -17.5740  -30.2010   23.7940 C   0  0  0  0  0  3  0  0  0  0  0  0
  -16.5230  -29.3780   23.3540 C   0  0  0  0  0  3  0  0  0  0  0  0
  -16.8080  -28.1100   22.8150 C   0  0  0  0  0  3  0  0  0  0  0  0
  -25.9050  -32.2950   23.8100 C   0  0  0  0  0  3  0  0  0  0  0  0
  -25.5790  -33.6840   24.1580 N   0  0  0  0  0  0  0  0  0  0  0  0
  -25.8990  -34.7490   23.4110 C   0  0  0  0  0  0  0  0  0  0  0  0
  -26.5720  -34.6680   22.3790 O   0  0  0  0  0  0  0  0  0  0  0  0
  -24.9820  -33.8210   24.9590 H   0  0  0  0  0  0  0  0  0  0  0  0
  -24.1510  -36.5250   23.0710 C   0  0  0  0  0  1  0  0  0  0  0  0
  -25.3920  -36.1250   23.8840 C   0  0  0  0  0  3  0  0  0  0  0  0
  -27.5110  -37.0220   24.7390 C   0  0  0  0  0  1  0  0  0  0  0  0
  -26.4120  -37.1920   23.7920 N   0  0  0  0  0  0  0  0  0  0  0  0
  -25.9940  -38.1050   23.9520 H   0  0  0  0  0  0  0  0  0  0  0  0
  -26.4400  -31.5120   25.0700 C   0  0  1  0  0  0  0  0  0  0  0  0
  -25.3560  -31.2420   26.1400 C   0  0  0  0  0  1  0  0  0  0  0  0
  -27.0420  -30.1490   24.6520 C   0  0  0  0  0  1  0  0  0  0  0  0
  -27.5810  -32.3130   25.7400 C   0  0  0  0  0  1  0  0  0  0  0  0
  1 53  1  0
  2  1  1  0
  3 23  1  0
  4  3  1  0
  4  2  1  0
  5  3  2  0
  6  4  1  0
  8 13  1  0
  9  8  1  0
 10  9  1  0
 11 10  1  0
 28 11  1  1
 11 12  1  0
 13  7  1  0
 13 12  1  0
 14  7  2  0
 16 18  1  0
 17 19  1  0
 17 15  1  0
 20 18  1  0
 24  7  1  0
 25 26  1  0
 25 50  1  0
 26 45  1  0
 26 27  1  0
 27 30  1  6
 28 29  1  0
 28 25  1  0
 28 27  1  0
 29 27  1  0
 30 31  2  0
 31 32  1  0
 33 32  1  0
 34 33  2  0
 35 34  1  0
 36 33  1  0
 36 37  1  0
 37 42  2  0
 37 38  1  0
 38 39  2  0
 39 40  1  0
 40 44  1  0
 41 40  2  0
 42 41  1  0
 43 42  1  0
 45 46  1  0
 46 48  1  0
 47 45  2  0
 49 46  1  0
 50 51  1  0
 50 52  1  0
 54 56  2  0
 54 55  1  0
 55 53  1  0
 57 55  1  0
 58 54  1  0
 58 59  1  0
 60 59  1  0
 60 61  1  0
 61 62  2  0
 63 65  1  0
 63 61  1  0
 64 75  2  0
 65 70  1  0
 66 74  1  0
 66 76  1  0
 67 73  1  0
 67 69  1  0
 68 74  1  0
 69 68  1  0
 70 69  2  0
 71 72  1  0
 71 65  2  0
 72 67  2  0
 73 66  1  0
 74 64  1  0
 76 78  2  0
 77 76  1  0
 79 77  1  0
 80 89  2  0
 80 85  1  0
 81 77  1  0
 81 85  1  0
 82 81  1  0
 83 84  1  0
 83 82  1  0
 84 80  1  0
 85 86  2  0
 86 87  1  0
 88 87  2  0
 89 88  1  0
 90 64  1  0
 90 91  1  0
 90100  1  0
 91 94  1  0
 92 96  1  0
 92 91  1  0
 93 92  2  0
 96 95  1  0
 98 96  1  0
 98 99  1  0
 98 97  1  0
100103  1  1
100101  1  0
102100  1  0
M  ISO  4   7 100  24 100  61 101  63 101
M  END
>  <TORSDO>  (47) 
F 24

>  <SCORE>  (47) 
-1.453

>  <name>  (47) 
46

>  <ligand_id>  (47) 
46

>  <original_smiles>  (47) 
[H]c1c([H])c([H])c2c(c1[H])C([H])([H])N(C(=O)N1C([H])([H])C([H])([H])C([H])([H])C([H])(n3nc(-c4c([H])c([H])c(Oc5c([H])c([H])c(F)c([H])c5F)c([H])c4[H])c(C(=O)N([H])[H])c3N([H])[H])C1([H])[H])C([H])(C(=O)N([H])C([H])([H])C([H])([H])C([H])([H])N([H])C(=O)C([H])([H])OC([H])([H])C(=O)Oc1c([H])c([H])c3c(c1[H])C([H])([H])N(C(=O)C([H])(N([H])C(=O)C([H])(N([H])C([H])([H])[H])C([H])([H])[H])C(C([H])([H])[H])(C([H])([H])[H])C([H])([H])[H])C([H])(C(=O)N([H])C1([H])c4c([H])c([H])c([H])c([H])c4C([H])([H])C([H])([H])C1([H])[H])C3([H])[H])C2([H])[H]

>  <smiles>  (47) 
[H]c1c([H])c([H])c2c(c1[H])C([H])([H])N(C(=O)N1C([H])([H])C([H])([H])C([H])([H])C([H])(n3nc(-c4c([H])c([H])c(Oc5c([H])c([H])c(F)c([H])c5F)c([H])c4[H])c(C(=O)N([H])[H])c3N([H])[H])C1([H])[H])C([H])(C(=O)N([H])C([H])([H])C([H])([H])C([H])([H])N([H])C(=O)C([H])([H])OC([H])([H])C(=O)Oc1c([H])c([H])c3c(c1[H])C([H])([H])N(C(=O)C([H])(N([H])C(=O)C([H])(N([H])C([H])([H])[H])C([H])([H])[H])C(C([H])([H])[H])(C([H])([H])[H])C([H])([H])[H])C([H])(C(=O)N([H])C1([H])c4c([H])c([H])c([H])c([H])c4C([H])([H])C([H])([H])C1([H])[H])C3([H])[H])C2([H])[H]

$$$$
47:0:0
     RDKit          3D

107115  0  0  1  0  0  0  0  0999 V2000
  -28.9260  -20.4030   17.6490 C   0  0  0  0  0  3  0  0  0  0  0  0
  -31.6080  -17.7850   16.6940 C   0  0  0  0  0  3  0  0  0  0  0  0
  -32.7390  -18.2310   17.3900 C   0  0  0  0  0  3  0  0  0  0  0  0
  -30.4030  -18.5010   16.7890 C   0  0  0  0  0  3  0  0  0  0  0  0
  -32.6640  -19.3990   18.1660 C   0  0  0  0  0  3  0  0  0  0  0  0
  -30.2890  -19.6680   17.5860 C   0  0  0  0  0  0  0  0  0  0  0  0
  -31.4580  -20.1430   18.2600 C   0  0  0  0  0  0  0  0  0  0  0  0
  -31.3920  -21.3190   18.9780 O   0  0  0  0  0  0  0  0  0  0  0  0
  -32.5960  -21.9210   19.4410 C   0  0  0  0  0  2  0  0  0  0  0  0
  -32.0920  -24.4740   20.1260 C   0  0  0  0  0  3  0  0  0  0  0  0
  -32.3140  -23.3100   19.8330 C   0  0  0  0  0  0  0  0  0  0  0  0
  -28.3310  -22.1000   19.3970 C   0  0  0  0  0  0  0  0  0  0  0  0
  -28.5580  -20.8430   18.9980 N   0  0  0  0  0  0  0  0  0  0  0  0
  -28.4670  -23.0760   18.6530 O   0  0  0  0  0  0  0  0  0  0  0  0
  -28.4310  -20.1040   19.6750 H   0  0  0  0  0  0  0  0  0  0  0  0
  -27.8620  -22.2650   20.8560 C   0  0  0  0  0  2  0  0  0  0  0  0
  -27.7110  -23.6350   21.2320 O   0  0  0  0  0  0  0  0  0  0  0  0
  -28.9370  -24.3320   21.4560 C   0  0  0  0  0  2  0  0  0  0  0  0
  -28.6390  -25.8340   21.5520 C   0  0  0  0  0  2  0  0  0  0  0  0
  -27.9960  -26.1840   20.3370 O   0  0  0  0  0  0  0  0  0  0  0  0
  -24.5520  -31.6660   23.3990 C   0  0  0  0  0  0  0  0  0  0  0  0
  -26.9030  -27.0070   20.4220 C   0  0  0  0  0  0  0  0  0  0  0  0
  -23.2640  -30.3320   21.7600 C   0  0  0  0  0  3  0  0  0  0  0  0
  -24.6170  -28.6580   20.3950 C   0  0  0  0  0  0  0  0  0  0  0  0
  -25.8120  -30.4900   21.6030 C   0  0  0  0  0  2  0  0  0  0  0  0
  -25.8000  -29.1060   20.9970 C   0  0  0  0  0  0  0  0  0  0  0  0
  -26.9480  -28.2860   21.0160 C   0  0  0  0  0  3  0  0  0  0  0  0
  -25.7100  -26.5630   19.8210 C   0  0  0  0  0  3  0  0  0  0  0  0
  -24.5630  -27.3810   19.8090 C   0  0  0  0  0  3  0  0  0  0  0  0
  -23.4390  -29.6050   20.4010 C   0  0  0  0  0  2  0  0  0  0  0  0
  -24.5600  -30.8460   22.3110 N   0  0  0  0  0  0  0  0  0  0  0  0
  -23.4870  -32.0330   23.9180 O   0  0  0  0  0  0  0  0  0  0  0  0
  -22.5230  -29.3820   22.7280 C   0  0  0  0  0  0  0  0  0  0  0  0
  -21.1940  -29.2750   22.5570 N   0  0  0  0  0  0  0  0  0  0  0  0
  -23.1400  -28.7430   23.5840 O   0  0  0  0  0  0  0  0  0  0  0  0
  -20.7650  -29.8330   21.8330 H   0  0  0  0  0  0  0  0  0  0  0  0
  -17.7410  -28.2940   22.9500 C   0  0  0  0  0  0  0  0  0  0  0  0
  -20.2950  -28.4130   23.3250 C   0  0  0  0  0  3  0  0  0  0  0  0
  -20.3380  -26.9580   22.8010 C   0  0  0  0  0  2  0  0  0  0  0  0
  -19.2620  -26.6630   21.7520 C   0  0  0  0  0  2  0  0  0  0  0  0
  -17.8670  -26.9120   22.3310 C   0  0  0  0  0  2  0  0  0  0  0  0
  -18.8830  -29.0060   23.4010 C   0  0  0  0  0  0  0  0  0  0  0  0
  -18.7160  -30.3010   23.9370 C   0  0  0  0  0  3  0  0  0  0  0  0
  -17.4370  -30.8820   24.0290 C   0  0  0  0  0  3  0  0  0  0  0  0
  -16.3070  -30.1670   23.5950 C   0  0  0  0  0  3  0  0  0  0  0  0
  -16.4600  -28.8760   23.0610 C   0  0  0  0  0  3  0  0  0  0  0  0
  -25.8750  -32.2020   24.0290 C   0  0  0  0  0  3  0  0  0  0  0  0
  -26.3060  -31.4220   25.3330 C   0  0  1  0  0  0  0  0  0  0  0  0
  -25.1740  -31.2900   26.3790 C   0  0  0  0  0  1  0  0  0  0  0  0
  -26.7930  -29.9970   24.9810 C   0  0  0  0  0  1  0  0  0  0  0  0
  -27.4980  -32.1410   26.0070 C   0  0  0  0  0  1  0  0  0  0  0  0
  -25.6790  -33.6280   24.3200 N   0  0  0  0  0  0  0  0  0  0  0  0
  -26.1150  -34.6290   23.5440 C   0  0  0  0  0  0  0  0  0  0  0  0
  -26.7980  -34.4440   22.5330 O   0  0  0  0  0  0  0  0  0  0  0  0
  -25.0760  -33.8510   25.0980 H   0  0  0  0  0  0  0  0  0  0  0  0
  -24.5440  -36.5450   23.1070 C   0  0  0  0  0  1  0  0  0  0  0  0
  -25.7330  -36.0640   23.9540 C   0  0  0  0  0  3  0  0  0  0  0  0
  -27.9170  -36.7940   24.8060 C   0  0  0  0  0  1  0  0  0  0  0  0
  -26.8510  -37.0260   23.8350 N   0  0  0  0  0  0  0  0  0  0  0  0
  -26.5200  -37.9800   23.9500 H   0  0  0  0  0  0  0  0  0  0  0  0
  -27.7380  -19.5640   17.1120 C   0  0  0  0  0  2  0  0  0  0  0  0
  -26.5150  -20.2960   17.2100 O   0  0  0  0  0  0  0  0  0  0  0  0
  -25.3850  -19.5070   17.5700 C   0  0  0  0  0  2  0  0  0  0  0  0
  -25.4640  -19.1060   19.0540 C   0  0  0  0  0  2  0  0  0  0  0  0
  -26.5720  -18.2370   19.2410 O   0  0  0  0  0  0  0  0  0  0  0  0
  -26.9900  -18.1100   20.5900 C   0  0  0  0  0  2  0  0  0  0  0  0
  -28.1610  -17.1210   20.6330 C   0  0  0  0  0  2  0  0  0  0  0  0
  -29.2700  -17.6420   19.8950 O   0  0  0  0  0  0  0  0  0  0  0  0
  -30.5020  -16.9620   20.1490 C   0  0  0  0  0  2  0  0  0  0  0  0
  -30.4780  -15.5040   19.6500 C   0  0  0  0  0  2  0  0  0  0  0  0
  -31.0500  -14.6070   20.5950 O   0  0  0  0  0  0  0  0  0  0  0  0
  -31.7070  -13.5240   20.1480 C   0  0  0  0  0  0  0  0  0  0  0  0
  -31.2940  -11.1250   19.6390 C   0  0  0  0  0  2  0  0  0  0  0  0
  -30.3970  -11.0320   18.3900 C   0  0  0  0  0  2  0  0  0  0  0  0
  -28.9050  -11.1000   18.7780 C   0  0  0  0  0  2  0  0  0  0  0  0
  -28.5880  -12.2940   19.7170 C   0  0  0  0  0  3  0  0  0  0  0  0
  -29.5860  -12.3430   20.8970 C   0  0  0  0  0  2  0  0  0  0  0  0
  -30.9470  -12.3620   20.3390 N   0  0  0  0  0  0  0  0  0  0  0  0
  -32.7900  -13.5870   19.5620 O   0  0  0  0  0  0  0  0  0  0  0  0
  -26.3050  -13.2950   20.3630 C   0  0  0  0  0  0  0  0  0  0  0  0
  -25.1310  -12.7130   20.7520 C   0  0  0  0  0  0  0  0  0  0  0  0
  -25.3780  -11.3050   20.7760 C   0  0  0  0  0  0  0  0  0  0  0  0
  -27.2030  -12.2550   20.1800 N   0  0  0  0  0  0  0  0  0  0  0  0
  -26.6460  -11.0540   20.4800 N   0  0  0  0  0  0  0  0  0  0  0  0
  -24.4680  -10.1770   21.0070 C   0  0  0  0  0  0  0  0  0  0  0  0
  -24.7470   -9.1910   21.9760 C   0  0  0  0  0  3  0  0  0  0  0  0
  -23.8480   -8.1250   22.1920 C   0  0  0  0  0  3  0  0  0  0  0  0
  -22.6530   -8.0420   21.4390 C   0  0  0  0  0  0  0  0  0  0  0  0
  -22.3900   -9.0160   20.4610 C   0  0  0  0  0  3  0  0  0  0  0  0
  -23.2890  -10.0720   20.2430 C   0  0  0  0  0  3  0  0  0  0  0  0
  -21.7320   -7.0290   21.5630 O   0  0  0  0  0  0  0  0  0  0  0  0
  -21.5860   -6.3270   22.7320 C   0  0  0  0  0  0  0  0  0  0  0  0
  -21.2510   -6.9640   23.9470 C   0  0  0  0  0  3  0  0  0  0  0  0
  -21.0370   -6.1970   25.1100 C   0  0  0  0  0  3  0  0  0  0  0  0
  -21.1540   -4.7940   25.0600 C   0  0  0  0  0  0  0  0  0  0  0  0
  -21.4830   -4.1580   23.8500 C   0  0  0  0  0  3  0  0  0  0  0  0
  -21.6940   -4.9210   22.6890 C   0  0  0  0  0  0  0  0  0  0  0  0
  -21.9880   -4.3020   21.5210 F   0  0  0  0  0  0  0  0  0  0  0  0
  -20.9450   -4.0560   26.1750 F   0  0  0  0  0  0  0  0  0  0  0  0
  -23.8220  -13.4090   20.9960 C   0  0  0  0  0  0  0  0  0  0  0  0
  -23.0040  -12.8700   21.8900 N   0  0  0  0  0  0  0  0  0  0  0  0
  -23.5400  -14.4630   20.4270 O   0  0  0  0  0  0  0  0  0  0  0  0
  -23.2500  -12.0150   22.3660 H   0  0  0  0  0  0  0  0  0  0  0  0
  -22.1210  -13.3140   22.1000 H   0  0  0  0  0  0  0  0  0  0  0  0
  -26.6790  -14.6160   20.1280 N   0  0  0  0  0  0  0  0  0  0  0  0
  -26.0250  -15.3870   20.1980 H   0  0  0  0  0  0  0  0  0  0  0  0
  -27.5620  -14.8850   19.7160 H   0  0  0  0  0  0  0  0  0  0  0  0
  1 61  1  0
  1 13  1  0
  2  4  2  0
  2  3  1  0
  3  5  2  0
  4  6  1  0
  5  7  1  0
  6  1  1  0
  6  7  2  0
  7  8  1  0
  8  9  1  0
  9 11  1  0
 11 10  3  0
 12 16  1  0
 13 12  1  0
 13 15  1  0
 14 12  2  0
 16 17  1  0
 17 18  1  0
 18 19  1  0
 20 22  1  0
 20 19  1  0
 21 32  2  0
 22 27  1  0
 23 31  1  0
 23 33  1  0
 24 30  1  0
 24 26  1  0
 25 31  1  0
 26 27  2  0
 26 25  1  0
 28 22  2  0
 29 28  1  0
 29 24  2  0
 30 23  1  0
 31 21  1  0
 33 35  2  0
 34 33  1  0
 36 34  1  0
 37 46  2  0
 37 42  1  0
 38 34  1  0
 38 42  1  0
 39 38  1  0
 40 41  1  0
 40 39  1  0
 41 37  1  0
 42 43  2  0
 43 44  1  0
 45 44  2  0
 46 45  1  0
 47 21  1  0
 47 52  1  0
 47 48  1  0
 48 51  1  1
 48 49  1  0
 50 48  1  0
 52 55  1  0
 53 57  1  0
 53 52  1  0
 54 53  2  0
 57 56  1  0
 59 60  1  0
 59 57  1  0
 59 58  1  0
 61 62  1  0
 62 63  1  0
 63 64  1  0
 64 65  1  0
 65 66  1  0
 66 67  1  0
 68 69  1  0
 68 67  1  0
 70 69  1  0
 70 71  1  0
 72 78  1  0
 72 71  1  0
 73 78  1  0
 74 75  1  0
 74 73  1  0
 76 75  1  0
 76 83  1  0
 76 77  1  0
 78 77  1  0
 79 72  2  0
 80 81  2  0
 81 82  1  0
 81100  1  0
 82 85  1  0
 83 80  1  0
 83 84  1  0
 84 82  2  0
 85 86  1  0
 86 87  2  0
 88 91  1  0
 88 87  1  0
 89 88  2  0
 90 89  1  0
 90 85  2  0
 91 92  1  0
 92 93  1  0
 93 94  2  0
 95 94  1  0
 95 99  1  0
 96 95  2  0
 97 92  2  0
 97 96  1  0
 98 97  1  0
100101  1  0
101104  1  0
101103  1  0
102100  2  0
105106  1  0
105 80  1  0
107105  1  0
M  ISO  4  19 101  20 101  71 100  72 100
M  END
>  <TORSDO>  (48) 
F 36

>  <SCORE>  (48) 
-7.739

>  <name>  (48) 
47

>  <ligand_id>  (48) 
47

>  <original_smiles>  (48) 
[H]C#CC([H])([H])Oc1c([H])c([H])c([H])c([H])c1C([H])(N([H])C(=O)C([H])([H])OC([H])([H])C([H])([H])Oc1c([H])c([H])c2c(c1[H])C([H])([H])N(C(=O)C([H])(N([H])C(=O)C([H])(N([H])C([H])([H])[H])C([H])([H])[H])C(C([H])([H])[H])(C([H])([H])[H])C([H])([H])[H])C([H])(C(=O)N([H])C1([H])c3c([H])c([H])c([H])c([H])c3C([H])([H])C([H])([H])C1([H])[H])C2([H])[H])C([H])([H])OC([H])([H])C([H])([H])OC([H])([H])C([H])([H])OC([H])([H])C([H])([H])OC(=O)N1C([H])([H])C([H])([H])C([H])([H])C([H])(n2nc(-c3c([H])c([H])c(Oc4c([H])c([H])c(F)c([H])c4F)c([H])c3[H])c(C(=O)N([H])[H])c2N([H])[H])C1([H])[H]

>  <smiles>  (48) 
[H]C#CC([H])([H])Oc1c([H])c([H])c([H])c([H])c1C([H])(N([H])C(=O)C([H])([H])OC([H])([H])C([H])([H])Oc1c([H])c([H])c2c(c1[H])C([H])([H])N(C(=O)C([H])(N([H])C(=O)C([H])(N([H])C([H])([H])[H])C([H])([H])[H])C(C([H])([H])[H])(C([H])([H])[H])C([H])([H])[H])C([H])(C(=O)N([H])C1([H])c3c([H])c([H])c([H])c([H])c3C([H])([H])C([H])([H])C1([H])[H])C2([H])[H])C([H])([H])OC([H])([H])C([H])([H])OC([H])([H])C([H])([H])OC([H])([H])C([H])([H])OC(=O)N1C([H])([H])C([H])([H])C([H])([H])C([H])(n2nc(-c3c([H])c([H])c(Oc4c([H])c([H])c(F)c([H])c4F)c([H])c3[H])c(C(=O)N([H])[H])c2N([H])[H])C1([H])[H]

$$$$
48:0:0
     RDKit          3D

 95102  0  0  1  0  0  0  0  0999 V2000
  -29.2450  -23.5080   17.3690 C   0  0  0  0  0  2  0  0  0  0  0  0
  -30.1180  -23.4220   18.4850 O   0  0  0  0  0  0  0  0  0  0  0  0
  -30.6680  -24.6800   18.8460 C   0  0  0  0  0  2  0  0  0  0  0  0
  -31.3250  -24.5480   20.2280 C   0  0  0  0  0  2  0  0  0  0  0  0
  -30.3860  -24.2290   21.2550 O   0  0  0  0  0  0  0  0  0  0  0  0
  -29.5890  -25.3100   21.7400 C   0  0  0  0  0  2  0  0  0  0  0  0
  -28.2210  -25.4090   21.0410 C   0  0  0  0  0  2  0  0  0  0  0  0
  -28.2210  -26.5330   20.1620 O   0  0  0  0  0  0  0  0  0  0  0  0
  -24.4970  -31.7440   23.2300 C   0  0  0  0  0  0  0  0  0  0  0  0
  -27.0610  -27.2590   20.1760 C   0  0  0  0  0  0  0  0  0  0  0  0
  -23.2600  -30.3560   21.5950 C   0  0  0  0  0  3  0  0  0  0  0  0
  -24.6870  -28.7780   20.1840 C   0  0  0  0  0  0  0  0  0  0  0  0
  -25.7900  -30.6710   21.3920 C   0  0  0  0  0  2  0  0  0  0  0  0
  -25.8520  -29.2950   20.7640 C   0  0  0  0  0  0  0  0  0  0  0  0
  -27.0440  -28.5440   20.7580 C   0  0  0  0  0  3  0  0  0  0  0  0
  -25.8840  -26.7390   19.6000 C   0  0  0  0  0  3  0  0  0  0  0  0
  -24.6960  -27.4970   19.6020 C   0  0  0  0  0  3  0  0  0  0  0  0
  -23.4550  -29.6550   20.2220 C   0  0  0  0  0  2  0  0  0  0  0  0
  -24.5350  -30.9380   22.1310 N   0  0  0  0  0  0  0  0  0  0  0  0
  -23.4230  -32.0450   23.7660 O   0  0  0  0  0  0  0  0  0  0  0  0
  -22.5890  -29.3560   22.5610 C   0  0  0  0  0  0  0  0  0  0  0  0
  -21.2590  -29.2160   22.4410 N   0  0  0  0  0  0  0  0  0  0  0  0
  -23.2600  -28.7080   23.3690 O   0  0  0  0  0  0  0  0  0  0  0  0
  -20.7810  -29.7960   21.7660 H   0  0  0  0  0  0  0  0  0  0  0  0
  -17.8500  -28.1400   22.9440 C   0  0  0  0  0  0  0  0  0  0  0  0
  -20.4160  -28.3030   23.2110 C   0  0  0  0  0  3  0  0  0  0  0  0
  -20.4640  -26.8710   22.6290 C   0  0  0  0  0  2  0  0  0  0  0  0
  -19.3460  -26.5920   21.6180 C   0  0  0  0  0  2  0  0  0  0  0  0
  -17.9740  -26.7850   22.2680 C   0  0  0  0  0  2  0  0  0  0  0  0
  -18.9980  -28.8590   23.3730 C   0  0  0  0  0  0  0  0  0  0  0  0
  -18.8280  -30.1300   23.9640 C   0  0  0  0  0  3  0  0  0  0  0  0
  -17.5450  -30.6790   24.1340 C   0  0  0  0  0  3  0  0  0  0  0  0
  -16.4110  -29.9550   23.7270 C   0  0  0  0  0  3  0  0  0  0  0  0
  -16.5640  -28.6880   23.1370 C   0  0  0  0  0  3  0  0  0  0  0  0
  -25.8000  -32.3430   23.8530 C   0  0  0  0  0  3  0  0  0  0  0  0
  -25.5230  -33.7450   24.1890 N   0  0  0  0  0  0  0  0  0  0  0  0
  -25.8810  -34.7900   23.4340 C   0  0  0  0  0  0  0  0  0  0  0  0
  -26.5500  -34.6740   22.4020 O   0  0  0  0  0  0  0  0  0  0  0  0
  -24.9200  -33.9110   24.9830 H   0  0  0  0  0  0  0  0  0  0  0  0
  -24.1860  -36.6130   23.0940 C   0  0  0  0  0  1  0  0  0  0  0  0
  -25.4250  -36.1850   23.8960 C   0  0  0  0  0  3  0  0  0  0  0  0
  -27.5840  -37.0230   24.7090 C   0  0  0  0  0  1  0  0  0  0  0  0
  -26.4750  -37.2190   23.7780 N   0  0  0  0  0  0  0  0  0  0  0  0
  -26.0900  -38.1450   23.9380 H   0  0  0  0  0  0  0  0  0  0  0  0
  -26.3050  -31.5520   25.1220 C   0  0  1  0  0  0  0  0  0  0  0  0
  -25.2120  -31.3380   26.1940 C   0  0  0  0  0  1  0  0  0  0  0  0
  -26.8540  -30.1650   24.7120 C   0  0  0  0  0  1  0  0  0  0  0  0
  -27.4750  -32.3170   25.7820 C   0  0  0  0  0  1  0  0  0  0  0  0
  -28.8890  -22.0910   16.9010 C   0  0  0  0  0  2  0  0  0  0  0  0
  -28.1980  -21.4000   17.9350 O   0  0  0  0  0  0  0  0  0  0  0  0
  -27.8390  -20.0760   17.5550 C   0  0  0  0  0  2  0  0  0  0  0  0
  -27.3580  -19.2840   18.7810 C   0  0  0  0  0  2  0  0  0  0  0  0
  -28.4860  -18.9320   19.5700 O   0  0  0  0  0  0  0  0  0  0  0  0
  -28.1480  -18.1720   20.7240 C   0  0  0  0  0  2  0  0  0  0  0  0
  -29.4300  -17.8760   21.5120 C   0  0  0  0  0  2  0  0  0  0  0  0
  -30.1810  -16.8810   20.8230 O   0  0  0  0  0  0  0  0  0  0  0  0
  -31.3200  -16.4410   21.5530 C   0  0  0  0  0  2  0  0  0  0  0  0
  -32.0920  -15.4080   20.7240 C   0  0  0  0  0  2  0  0  0  0  0  0
  -31.3790  -14.1810   20.6920 O   0  0  0  0  0  0  0  0  0  0  0  0
  -31.8060  -13.1910   19.8920 C   0  0  0  0  0  0  0  0  0  0  0  0
  -31.0920  -10.9890   18.9770 C   0  0  0  0  0  2  0  0  0  0  0  0
  -30.1270  -11.1760   17.7930 C   0  0  0  0  0  2  0  0  0  0  0  0
  -28.6750  -11.3250   18.2860 C   0  0  0  0  0  2  0  0  0  0  0  0
  -28.5290  -12.3720   19.4240 C   0  0  0  0  0  3  0  0  0  0  0  0
  -29.5830  -12.1360   20.5260 C   0  0  0  0  0  2  0  0  0  0  0  0
  -30.9080  -12.1200   19.8900 N   0  0  0  0  0  0  0  0  0  0  0  0
  -32.8530  -13.2460   19.2370 O   0  0  0  0  0  0  0  0  0  0  0  0
  -26.3330  -13.4520   20.2320 C   0  0  0  0  0  0  0  0  0  0  0  0
  -25.1540  -12.9070   20.6690 C   0  0  0  0  0  0  0  0  0  0  0  0
  -25.3400  -11.4900   20.6410 C   0  0  0  0  0  0  0  0  0  0  0  0
  -27.1730  -12.3790   19.9700 N   0  0  0  0  0  0  0  0  0  0  0  0
  -26.5780  -11.1950   20.2700 N   0  0  0  0  0  0  0  0  0  0  0  0
  -24.3930  -10.3960   20.8910 C   0  0  0  0  0  0  0  0  0  0  0  0
  -24.6940   -9.3520   21.7930 C   0  0  0  0  0  3  0  0  0  0  0  0
  -23.7610   -8.3200   22.0310 C   0  0  0  0  0  3  0  0  0  0  0  0
  -22.5110   -8.3260   21.3690 C   0  0  0  0  0  0  0  0  0  0  0  0
  -22.2260   -9.3560   20.4540 C   0  0  0  0  0  3  0  0  0  0  0  0
  -23.1570  -10.3790   20.2140 C   0  0  0  0  0  3  0  0  0  0  0  0
  -21.5530   -7.3530   21.5170 O   0  0  0  0  0  0  0  0  0  0  0  0
  -21.4690   -6.5940   22.6560 C   0  0  0  0  0  0  0  0  0  0  0  0
  -21.3010   -7.1770   23.9310 C   0  0  0  0  0  3  0  0  0  0  0  0
  -21.1510   -6.3560   25.0670 C   0  0  0  0  0  3  0  0  0  0  0  0
  -21.1580   -4.9550   24.9290 C   0  0  0  0  0  0  0  0  0  0  0  0
  -21.3190   -4.3730   23.6600 C   0  0  0  0  0  3  0  0  0  0  0  0
  -21.4710   -5.1900   22.5270 C   0  0  0  0  0  0  0  0  0  0  0  0
  -21.6040   -4.6240   21.3030 F   0  0  0  0  0  0  0  0  0  0  0  0
  -21.0070   -4.1670   26.0190 F   0  0  0  0  0  0  0  0  0  0  0  0
  -23.8930  -13.6500   21.0030 C   0  0  0  0  0  0  0  0  0  0  0  0
  -23.1000  -13.1260   21.9320 N   0  0  0  0  0  0  0  0  0  0  0  0
  -23.6260  -14.7280   20.4740 O   0  0  0  0  0  0  0  0  0  0  0  0
  -23.3290  -12.2530   22.3830 H   0  0  0  0  0  0  0  0  0  0  0  0
  -22.2520  -13.6050   22.1980 H   0  0  0  0  0  0  0  0  0  0  0  0
  -26.7540  -14.7600   20.0210 N   0  0  0  0  0  0  0  0  0  0  0  0
  -26.1440  -15.5580   20.1580 H   0  0  0  0  0  0  0  0  0  0  0  0
  -27.6730  -15.0150   19.6810 H   0  0  0  0  0  0  0  0  0  0  0  0
  1  2  1  0
  2  3  1  0
  3  4  1  0
  4  5  1  0
  5  6  1  0
  7  6  1  0
  8 10  1  0
  8  7  1  0
  9 20  2  0
 10 15  1  0
 11 19  1  0
 11 21  1  0
 12 18  1  0
 12 14  1  0
 13 19  1  0
 14 13  1  0
 15 14  2  0
 16 17  1  0
 16 10  2  0
 17 12  2  0
 18 11  1  0
 19  9  1  0
 21 23  2  0
 22 21  1  0
 24 22  1  0
 25 34  2  0
 25 30  1  0
 26 22  1  0
 26 30  1  0
 27 26  1  0
 28 29  1  0
 28 27  1  0
 29 25  1  0
 30 31  2  0
 31 32  1  0
 33 32  2  0
 34 33  1  0
 35  9  1  0
 35 36  1  0
 35 45  1  0
 36 39  1  0
 37 41  1  0
 37 36  1  0
 38 37  2  0
 41 40  1  0
 43 41  1  0
 43 44  1  0
 43 42  1  0
 45 48  1  1
 45 46  1  0
 47 45  1  0
 49  1  1  0
 49 50  1  0
 51 50  1  0
 51 52  1  0
 52 53  1  0
 53 54  1  0
 54 55  1  0
 56 55  1  0
 56 57  1  0
 58 57  1  0
 59 58  1  0
 60 59  1  0
 61 66  1  0
 62 63  1  0
 62 61  1  0
 64 63  1  0
 64 71  1  0
 64 65  1  0
 66 60  1  0
 66 65  1  0
 67 60  2  0
 68 69  2  0
 69 88  1  0
 70 69  1  0
 70 73  1  0
 71 68  1  0
 71 72  1  0
 72 70  2  0
 73 74  1  0
 74 75  2  0
 76 79  1  0
 76 75  1  0
 77 76  2  0
 78 77  1  0
 78 73  2  0
 79 80  1  0
 80 81  1  0
 81 82  2  0
 83 82  1  0
 83 87  1  0
 84 83  2  0
 85 80  2  0
 85 84  1  0
 86 85  1  0
 88 89  1  0
 89 92  1  0
 89 91  1  0
 90 88  2  0
 93 94  1  0
 93 68  1  0
 95 93  1  0
M  ISO  4   7 101   8 101  59 100  60 100
M  END
>  <TORSDO>  (49) 
F 33

>  <SCORE>  (49) 
-8.921

>  <name>  (49) 
48

>  <ligand_id>  (49) 
48

>  <original_smiles>  (49) 
[H]c1c([H])c([H])c2c(c1[H])C([H])([H])C([H])([H])C([H])([H])C2([H])N([H])C(=O)C1([H])N(C(=O)C([H])(N([H])C(=O)C([H])(N([H])C([H])([H])[H])C([H])([H])[H])C(C([H])([H])[H])(C([H])([H])[H])C([H])([H])[H])C([H])([H])c2c([H])c(OC([H])([H])C([H])([H])OC([H])([H])C([H])([H])OC([H])([H])C([H])([H])OC([H])([H])C([H])([H])OC([H])([H])C([H])([H])OC([H])([H])C([H])([H])OC(=O)N3C([H])([H])C([H])([H])C([H])([H])C([H])(n4nc(-c5c([H])c([H])c(Oc6c([H])c([H])c(F)c([H])c6F)c([H])c5[H])c(C(=O)N([H])[H])c4N([H])[H])C3([H])[H])c([H])c([H])c2C1([H])[H]

>  <smiles>  (49) 
[H]c1c([H])c([H])c2c(c1[H])C([H])([H])C([H])([H])C([H])([H])C2([H])N([H])C(=O)C1([H])N(C(=O)C([H])(N([H])C(=O)C([H])(N([H])C([H])([H])[H])C([H])([H])[H])C(C([H])([H])[H])(C([H])([H])[H])C([H])([H])[H])C([H])([H])c2c([H])c(OC([H])([H])C([H])([H])OC([H])([H])C([H])([H])OC([H])([H])C([H])([H])OC([H])([H])C([H])([H])OC([H])([H])C([H])([H])OC([H])([H])C([H])([H])OC(=O)N3C([H])([H])C([H])([H])C([H])([H])C([H])(n4nc(-c5c([H])c([H])c(Oc6c([H])c([H])c(F)c([H])c6F)c([H])c5[H])c(C(=O)N([H])[H])c4N([H])[H])C3([H])[H])c([H])c([H])c2C1([H])[H]

$$$$
49:0:0
     RDKit          3D

 98105  0  0  1  0  0  0  0  0999 V2000
  -29.2030  -25.0680   15.3570 C   0  0  0  0  0  0  0  0  0  0  0  0
  -28.8910  -24.4320   16.4940 N   0  0  0  0  0  0  0  0  0  0  0  0
  -28.9540  -24.6090   14.2410 O   0  0  0  0  0  0  0  0  0  0  0  0
  -29.1920  -24.8900   17.3460 H   0  0  0  0  0  0  0  0  0  0  0  0
  -28.0670  -23.2320   16.6030 C   0  0  0  0  0  2  0  0  0  0  0  0
  -28.8840  -21.9780   16.9580 C   0  0  0  0  0  2  0  0  0  0  0  0
  -28.6610  -21.5960   18.3170 O   0  0  0  0  0  0  0  0  0  0  0  0
  -28.9880  -20.2280   18.5400 C   0  0  0  0  0  2  0  0  0  0  0  0
  -28.5570  -19.3570   19.7440 C   0  0  0  0  0  2  0  0  0  0  0  0
  -29.6990  -18.7490   20.3490 O   0  0  0  0  0  0  0  0  0  0  0  0
  -29.3890  -17.5440   21.0320 C   0  0  0  0  0  2  0  0  0  0  0  0
  -30.6870  -16.8350   21.4630 C   0  0  0  0  0  2  0  0  0  0  0  0
  -31.1080  -14.5010   20.7190 C   0  0  0  0  0  0  0  0  0  0  0  0
  -30.7240  -12.5390   19.2910 C   0  0  0  0  0  2  0  0  0  0  0  0
  -29.8130  -12.9520   18.1160 C   0  0  0  0  0  2  0  0  0  0  0  0
  -28.3230  -12.8580   18.5050 C   0  0  0  0  0  2  0  0  0  0  0  0
  -28.0110  -13.5400   19.8630 C   0  0  0  0  0  3  0  0  0  0  0  0
  -29.0270  -13.1010   20.9430 C   0  0  0  0  0  2  0  0  0  0  0  0
  -30.3860  -13.3850   20.4440 N   0  0  0  0  0  0  0  0  0  0  0  0
  -32.2000  -14.7560   20.2030 O   0  0  0  0  0  0  0  0  0  0  0  0
  -30.4730  -15.3870   21.4910 N   0  0  0  0  0  0  0  0  0  0  0  0
  -29.6110  -15.0650   21.9050 H   0  0  0  0  0  0  0  0  0  0  0  0
  -25.5940  -14.1890   20.4790 C   0  0  0  0  0  0  0  0  0  0  0  0
  -24.5030  -13.4340   20.8170 C   0  0  0  0  0  0  0  0  0  0  0  0
  -24.9440  -12.0760   20.8020 C   0  0  0  0  0  0  0  0  0  0  0  0
  -26.6340  -13.2920   20.2870 N   0  0  0  0  0  0  0  0  0  0  0  0
  -26.2430  -12.0150   20.5360 N   0  0  0  0  0  0  0  0  0  0  0  0
  -24.1930  -10.8240   20.9690 C   0  0  0  0  0  0  0  0  0  0  0  0
  -24.5700   -9.8560   21.9240 C   0  0  0  0  0  3  0  0  0  0  0  0
  -23.8220   -8.6690   22.0770 C   0  0  0  0  0  3  0  0  0  0  0  0
  -22.6780   -8.4440   21.2730 C   0  0  0  0  0  0  0  0  0  0  0  0
  -22.3190   -9.4010   20.3060 C   0  0  0  0  0  3  0  0  0  0  0  0
  -23.0700  -10.5790   20.1520 C   0  0  0  0  0  3  0  0  0  0  0  0
  -21.9070   -7.3080   21.3340 O   0  0  0  0  0  0  0  0  0  0  0  0
  -21.7810   -6.5830   22.4930 C   0  0  0  0  0  0  0  0  0  0  0  0
  -21.2760   -7.1570   23.6790 C   0  0  0  0  0  3  0  0  0  0  0  0
  -21.0960   -6.3590   24.8280 C   0  0  0  0  0  3  0  0  0  0  0  0
  -21.4130   -4.9890   24.7880 C   0  0  0  0  0  0  0  0  0  0  0  0
  -21.9130   -4.4140   23.6070 C   0  0  0  0  0  3  0  0  0  0  0  0
  -22.0920   -5.2080   22.4620 C   0  0  0  0  0  0  0  0  0  0  0  0
  -22.5530   -4.6440   21.3190 F   0  0  0  0  0  0  0  0  0  0  0  0
  -21.2340   -4.2200   25.8880 F   0  0  0  0  0  0  0  0  0  0  0  0
  -23.1040  -13.9320   21.0420 C   0  0  0  0  0  0  0  0  0  0  0  0
  -22.3380  -13.2510   21.8870 N   0  0  0  0  0  0  0  0  0  0  0  0
  -22.6970  -14.9610   20.5050 O   0  0  0  0  0  0  0  0  0  0  0  0
  -22.6750  -12.4190   22.3480 H   0  0  0  0  0  0  0  0  0  0  0  0
  -21.3980  -13.5720   22.0800 H   0  0  0  0  0  0  0  0  0  0  0  0
  -25.7840  -15.5570   20.3060 N   0  0  0  0  0  0  0  0  0  0  0  0
  -25.0200  -16.2220   20.3840 H   0  0  0  0  0  0  0  0  0  0  0  0
  -26.6390  -15.9790   19.9680 H   0  0  0  0  0  0  0  0  0  0  0  0
  -29.8410  -26.4550   15.5010 C   0  0  0  0  0  2  0  0  0  0  0  0
  -30.2490  -26.6890   16.8480 O   0  0  0  0  0  0  0  0  0  0  0  0
  -31.5800  -26.2720   17.1250 C   0  0  0  0  0  2  0  0  0  0  0  0
  -31.7560  -26.2390   18.6450 C   0  0  0  0  0  2  0  0  0  0  0  0
  -31.1490  -25.0490   19.1330 O   0  0  0  0  0  0  0  0  0  0  0  0
  -30.4350  -25.2030   20.3530 C   0  0  0  0  0  2  0  0  0  0  0  0
  -29.0230  -25.7500   20.0870 C   0  0  0  0  0  2  0  0  0  0  0  0
  -29.0110  -27.1750   20.1520 O   0  0  0  0  0  0  0  0  0  0  0  0
  -24.7830  -31.8950   23.3360 C   0  0  0  0  0  0  0  0  0  0  0  0
  -27.7790  -27.7900   20.1330 C   0  0  0  0  0  0  0  0  0  0  0  0
  -23.7040  -30.4980   21.6040 C   0  0  0  0  0  3  0  0  0  0  0  0
  -25.2830  -29.1180   20.1550 C   0  0  0  0  0  0  0  0  0  0  0  0
  -26.2020  -31.0290   21.4800 C   0  0  0  0  0  2  0  0  0  0  0  0
  -26.3900  -29.6970   20.7870 C   0  0  0  0  0  0  0  0  0  0  0  0
  -27.6400  -29.0430   20.7680 C   0  0  0  0  0  3  0  0  0  0  0  0
  -26.6510  -27.2180   19.4980 C   0  0  0  0  0  3  0  0  0  0  0  0
  -25.4080  -27.8760   19.5080 C   0  0  0  0  0  3  0  0  0  0  0  0
  -23.9850  -29.8920   20.2040 C   0  0  0  0  0  2  0  0  0  0  0  0
  -24.9120  -31.1530   22.2000 N   0  0  0  0  0  0  0  0  0  0  0  0
  -23.6750  -32.0750   23.8610 O   0  0  0  0  0  0  0  0  0  0  0  0
  -23.0980  -29.3960   22.5030 C   0  0  0  0  0  0  0  0  0  0  0  0
  -21.7960  -29.1250   22.3170 N   0  0  0  0  0  0  0  0  0  0  0  0
  -23.7960  -28.7900   23.3180 O   0  0  0  0  0  0  0  0  0  0  0  0
  -21.2910  -29.6710   21.6330 H   0  0  0  0  0  0  0  0  0  0  0  0
  -18.5090  -27.6590   22.6210 C   0  0  0  0  0  0  0  0  0  0  0  0
  -21.0230  -28.1010   23.0200 C   0  0  0  0  0  3  0  0  0  0  0  0
  -21.2640  -26.7040   22.4020 C   0  0  0  0  0  2  0  0  0  0  0  0
  -20.2350  -26.3320   21.3290 C   0  0  0  0  0  2  0  0  0  0  0  0
  -18.8200  -26.3500   21.9150 C   0  0  0  0  0  2  0  0  0  0  0  0
  -19.5440  -28.4880   23.1280 C   0  0  0  0  0  0  0  0  0  0  0  0
  -19.2030  -29.7110   23.7440 C   0  0  0  0  0  3  0  0  0  0  0  0
  -17.8580  -30.1070   23.8610 C   0  0  0  0  0  3  0  0  0  0  0  0
  -16.8350  -29.2730   23.3740 C   0  0  0  0  0  3  0  0  0  0  0  0
  -17.1620  -28.0510   22.7600 C   0  0  0  0  0  3  0  0  0  0  0  0
  -26.0130  -32.5720   24.0160 C   0  0  0  0  0  3  0  0  0  0  0  0
  -26.5200  -31.8000   25.2950 C   0  0  1  0  0  0  0  0  0  0  0  0
  -25.4020  -31.4870   26.3170 C   0  0  0  0  0  1  0  0  0  0  0  0
  -27.1830  -30.4620   24.8950 C   0  0  0  0  0  1  0  0  0  0  0  0
  -27.6070  -32.6340   26.0140 C   0  0  0  0  0  1  0  0  0  0  0  0
  -25.6260  -33.9470   24.3590 N   0  0  0  0  0  0  0  0  0  0  0  0
  -25.9470  -35.0280   23.6360 C   0  0  0  0  0  0  0  0  0  0  0  0
  -26.6740  -34.9770   22.6400 O   0  0  0  0  0  0  0  0  0  0  0  0
  -24.9850  -34.0590   25.1290 H   0  0  0  0  0  0  0  0  0  0  0  0
  -24.1700  -36.7540   23.2130 C   0  0  0  0  0  1  0  0  0  0  0  0
  -25.3740  -36.3830   24.0930 C   0  0  0  0  0  3  0  0  0  0  0  0
  -27.4130  -37.3360   25.0770 C   0  0  0  0  0  1  0  0  0  0  0  0
  -26.3670  -37.4800   24.0680 N   0  0  0  0  0  0  0  0  0  0  0  0
  -25.9130  -38.3810   24.2050 H   0  0  0  0  0  0  0  0  0  0  0  0
  1 51  1  0
  1  2  1  0
  2  5  1  0
  2  4  1  0
  3  1  2  0
  5  6  1  0
  6  7  1  0
  7  8  1  0
  8  9  1  0
  9 10  1  0
 10 11  1  0
 11 12  1  0
 12 21  1  0
 13 21  1  0
 14 19  1  0
 15 16  1  0
 15 14  1  0
 17 16  1  0
 17 26  1  0
 17 18  1  0
 19 13  1  0
 19 18  1  0
 20 13  2  0
 21 22  1  0
 23 24  2  0
 24 43  1  0
 25 24  1  0
 25 28  1  0
 26 23  1  0
 26 27  1  0
 27 25  2  0
 28 29  1  0
 29 30  2  0
 31 34  1  0
 31 30  1  0
 32 31  2  0
 33 32  1  0
 33 28  2  0
 34 35  1  0
 35 36  1  0
 36 37  2  0
 38 37  1  0
 38 42  1  0
 39 38  2  0
 40 35  2  0
 40 39  1  0
 41 40  1  0
 43 44  1  0
 44 47  1  0
 44 46  1  0
 45 43  2  0
 48 49  1  0
 48 23  1  0
 50 48  1  0
 51 52  1  0
 52 53  1  0
 53 54  1  0
 54 55  1  0
 55 56  1  0
 57 58  1  0
 57 56  1  0
 59 70  2  0
 60 58  1  0
 60 65  1  0
 61 69  1  0
 61 71  1  0
 62 68  1  0
 62 64  1  0
 63 69  1  0
 64 63  1  0
 65 64  2  0
 66 67  1  0
 66 60  2  0
 67 62  2  0
 68 61  1  0
 69 59  1  0
 71 73  2  0
 72 71  1  0
 74 72  1  0
 75 84  2  0
 75 80  1  0
 76 72  1  0
 76 80  1  0
 77 76  1  0
 78 79  1  0
 78 77  1  0
 79 75  1  0
 80 81  2  0
 81 82  1  0
 83 82  2  0
 84 83  1  0
 85 59  1  0
 85 90  1  0
 85 86  1  0
 86 89  1  1
 86 87  1  0
 88 86  1  0
 90 93  1  0
 91 95  1  0
 91 90  1  0
 92 91  2  0
 95 94  1  0
 97 95  1  0
 97 98  1  0
 97 96  1  0
M  ISO  4  13 100  21 100  57 101  58 101
M  END
>  <TORSDO>  (50) 
F 31

>  <SCORE>  (50) 
-9.657

>  <name>  (50) 
49

>  <ligand_id>  (50) 
49

>  <original_smiles>  (50) 
[H]c1c([H])c([H])c2c(c1[H])C([H])([H])C([H])([H])C([H])([H])C2([H])N([H])C(=O)C1([H])N(C(=O)C([H])(N([H])C(=O)C([H])(N([H])C([H])([H])[H])C([H])([H])[H])C(C([H])([H])[H])(C([H])([H])[H])C([H])([H])[H])C([H])([H])c2c([H])c(OC([H])([H])C([H])([H])OC([H])([H])C([H])([H])OC([H])([H])C(=O)N([H])C([H])([H])C([H])([H])OC([H])([H])C([H])([H])OC([H])([H])C([H])([H])N([H])C(=O)N3C([H])([H])C([H])([H])C([H])([H])C([H])(n4nc(-c5c([H])c([H])c(Oc6c([H])c([H])c(F)c([H])c6F)c([H])c5[H])c(C(=O)N([H])[H])c4N([H])[H])C3([H])[H])c([H])c([H])c2C1([H])[H]

>  <smiles>  (50) 
[H]c1c([H])c([H])c2c(c1[H])C([H])([H])C([H])([H])C([H])([H])C2([H])N([H])C(=O)C1([H])N(C(=O)C([H])(N([H])C(=O)C([H])(N([H])C([H])([H])[H])C([H])([H])[H])C(C([H])([H])[H])(C([H])([H])[H])C([H])([H])[H])C([H])([H])c2c([H])c(OC([H])([H])C([H])([H])OC([H])([H])C([H])([H])OC([H])([H])C(=O)N([H])C([H])([H])C([H])([H])OC([H])([H])C([H])([H])OC([H])([H])C([H])([H])N([H])C(=O)N3C([H])([H])C([H])([H])C([H])([H])C([H])(n4nc(-c5c([H])c([H])c(Oc6c([H])c([H])c(F)c([H])c6F)c([H])c5[H])c(C(=O)N([H])[H])c4N([H])[H])C3([H])[H])c([H])c([H])c2C1([H])[H]

$$$$
50:0:0
     RDKit          3D

 86 94  0  0  1  0  0  0  0  0999 V2000
  -31.1700  -20.9320   20.4430 C   0  0  0  0  0  3  0  0  0  0  0  0
  -30.2760  -22.0570   20.4060 C   0  0  0  0  0  3  0  0  0  0  0  0
  -30.8430  -19.5330   20.3890 C   0  0  0  0  0  3  0  0  0  0  0  0
  -28.5970  -20.3530   20.2540 C   0  0  0  0  0  3  0  0  0  0  0  0
  -28.8660  -21.9710   20.3050 C   0  0  0  0  0  0  0  0  0  0  0  0
  -29.5320  -19.0050   20.2890 C   0  0  0  0  0  0  0  0  0  0  0  0
  -30.1920  -15.8550   20.2000 C   0  0  0  0  0  0  0  0  0  0  0  0
  -30.3410  -13.2850   19.3630 C   0  0  0  0  0  2  0  0  0  0  0  0
  -29.4560  -12.8160   18.1690 C   0  0  0  0  0  2  0  0  0  0  0  0
  -28.0490  -12.4220   18.6400 C   0  0  0  0  0  2  0  0  0  0  0  0
  -27.5220  -13.4180   19.6950 C   0  0  0  0  0  3  0  0  0  0  0  0
  -28.5540  -13.7840   20.7920 C   0  0  0  0  0  2  0  0  0  0  0  0
  -29.6910  -14.4650   20.1150 N   0  0  0  0  0  0  0  0  0  0  0  0
  -31.4300  -15.7760   20.0400 O   0  0  0  0  0  0  0  0  0  0  0  0
  -29.4130  -17.2430   20.2600 N   0  0  0  0  0  0  0  0  0  0  0  0
  -28.4360  -16.9880   20.2920 H   0  0  0  0  0  0  0  0  0  0  0  0
  -25.1650  -13.9080   20.4880 C   0  0  0  0  0  0  0  0  0  0  0  0
  -24.1200  -13.1120   20.8580 C   0  0  0  0  0  0  0  0  0  0  0  0
  -24.6060  -11.7690   20.8140 C   0  0  0  0  0  0  0  0  0  0  0  0
  -26.2190  -13.0530   20.2290 N   0  0  0  0  0  0  0  0  0  0  0  0
  -25.8990  -11.7570   20.4910 N   0  0  0  0  0  0  0  0  0  0  0  0
  -23.8950  -10.4960   20.9990 C   0  0  0  0  0  0  0  0  0  0  0  0
  -24.3210   -9.5410   21.9480 C   0  0  0  0  0  3  0  0  0  0  0  0
  -23.6030   -8.3370   22.1240 C   0  0  0  0  0  3  0  0  0  0  0  0
  -22.4450   -8.0810   21.3530 C   0  0  0  0  0  0  0  0  0  0  0  0
  -22.0370   -9.0260   20.3930 C   0  0  0  0  0  3  0  0  0  0  0  0
  -22.7560  -10.2200   20.2160 C   0  0  0  0  0  3  0  0  0  0  0  0
  -21.7000   -6.9290   21.4370 O   0  0  0  0  0  0  0  0  0  0  0  0
  -21.6170   -6.2090   22.6020 C   0  0  0  0  0  0  0  0  0  0  0  0
  -21.1080   -6.7740   23.7910 C   0  0  0  0  0  3  0  0  0  0  0  0
  -20.9740   -5.9790   24.9470 C   0  0  0  0  0  3  0  0  0  0  0  0
  -21.3410   -4.6210   24.9140 C   0  0  0  0  0  0  0  0  0  0  0  0
  -21.8440   -4.0550   23.7290 C   0  0  0  0  0  3  0  0  0  0  0  0
  -21.9780   -4.8470   22.5760 C   0  0  0  0  0  0  0  0  0  0  0  0
  -22.4430   -4.2910   21.4310 F   0  0  0  0  0  0  0  0  0  0  0  0
  -21.2070   -3.8540   26.0220 F   0  0  0  0  0  0  0  0  0  0  0  0
  -22.7170  -13.5690   21.1330 C   0  0  0  0  0  0  0  0  0  0  0  0
  -22.0030  -12.8670   22.0040 N   0  0  0  0  0  0  0  0  0  0  0  0
  -22.2660  -14.5890   20.6110 O   0  0  0  0  0  0  0  0  0  0  0  0
  -22.3830  -12.0440   22.4480 H   0  0  0  0  0  0  0  0  0  0  0  0
  -21.0620  -13.1570   22.2300 H   0  0  0  0  0  0  0  0  0  0  0  0
  -25.3030  -15.2820   20.3150 N   0  0  0  0  0  0  0  0  0  0  0  0
  -24.5210  -15.9180   20.4310 H   0  0  0  0  0  0  0  0  0  0  0  0
  -26.1290  -15.7320   19.9470 H   0  0  0  0  0  0  0  0  0  0  0  0
  -27.9040  -23.6280   20.2440 C   0  0  0  0  0  2  0  0  0  0  0  0
  -28.1320  -25.4200   20.3730 O   0  0  0  0  0  0  0  0  0  0  0  0
  -24.6750  -31.8720   23.2620 C   0  0  0  0  0  0  0  0  0  0  0  0
  -27.1850  -26.6880   20.3150 C   0  0  0  0  0  0  0  0  0  0  0  0
  -23.4950  -30.4780   21.6190 C   0  0  0  0  0  3  0  0  0  0  0  0
  -24.9430  -28.7980   20.2290 C   0  0  0  0  0  0  0  0  0  0  0  0
  -26.0790  -30.5740   21.5310 C   0  0  0  0  0  2  0  0  0  0  0  0
  -26.1380  -29.1300   20.8780 C   0  0  0  0  0  0  0  0  0  0  0  0
  -27.2390  -28.1060   20.8840 C   0  0  0  0  0  3  0  0  0  0  0  0
  -25.9550  -26.5930   19.6070 C   0  0  0  0  0  3  0  0  0  0  0  0
  -24.8960  -27.5580   19.5690 C   0  0  0  0  0  3  0  0  0  0  0  0
  -23.7460  -29.7690   20.2550 C   0  0  0  0  0  2  0  0  0  0  0  0
  -24.7750  -31.0100   22.1900 N   0  0  0  0  0  0  0  0  0  0  0  0
  -23.5770  -32.1850   23.7580 O   0  0  0  0  0  0  0  0  0  0  0  0
  -22.7530  -29.5170   22.5880 C   0  0  0  0  0  0  0  0  0  0  0  0
  -21.4200  -29.3750   22.4510 N   0  0  0  0  0  0  0  0  0  0  0  0
  -23.3920  -28.8940   23.4400 O   0  0  0  0  0  0  0  0  0  0  0  0
  -20.9530  -29.9280   21.7440 H   0  0  0  0  0  0  0  0  0  0  0  0
  -18.0190  -28.1820   22.9320 C   0  0  0  0  0  0  0  0  0  0  0  0
  -20.5780  -28.4480   23.2190 C   0  0  0  0  0  3  0  0  0  0  0  0
  -20.6800  -27.0100   22.6570 C   0  0  0  0  0  2  0  0  0  0  0  0
  -19.5890  -26.6850   21.6310 C   0  0  0  0  0  2  0  0  0  0  0  0
  -18.2010  -26.8320   22.2590 C   0  0  0  0  0  2  0  0  0  0  0  0
  -19.1330  -28.9480   23.3680 C   0  0  0  0  0  0  0  0  0  0  0  0
  -18.9060  -30.2070   23.9630 C   0  0  0  0  0  3  0  0  0  0  0  0
  -17.5980  -30.7030   24.1240 C   0  0  0  0  0  3  0  0  0  0  0  0
  -16.4980  -29.9370   23.7000 C   0  0  0  0  0  3  0  0  0  0  0  0
  -16.7090  -28.6770   23.1110 C   0  0  0  0  0  3  0  0  0  0  0  0
  -25.9330  -32.5200   23.9170 C   0  0  0  0  0  3  0  0  0  0  0  0
  -25.6150  -33.9250   24.2440 N   0  0  0  0  0  0  0  0  0  0  0  0
  -25.9320  -34.9870   23.4900 C   0  0  0  0  0  0  0  0  0  0  0  0
  -26.5750  -34.8860   22.4430 O   0  0  0  0  0  0  0  0  0  0  0  0
  -25.0360  -34.0750   25.0570 H   0  0  0  0  0  0  0  0  0  0  0  0
  -24.1820  -36.7830   23.2210 C   0  0  0  0  0  1  0  0  0  0  0  0
  -25.4640  -36.3790   23.9670 C   0  0  0  0  0  3  0  0  0  0  0  0
  -27.6290  -37.2890   24.6910 C   0  0  0  0  0  1  0  0  0  0  0  0
  -26.4850  -37.4380   23.7970 N   0  0  0  0  0  0  0  0  0  0  0  0
  -26.0790  -38.3570   23.9500 H   0  0  0  0  0  0  0  0  0  0  0  0
  -26.4050  -31.7660   25.2230 C   0  0  1  0  0  0  0  0  0  0  0  0
  -25.2830  -31.5600   26.2680 C   0  0  0  0  0  1  0  0  0  0  0  0
  -26.9830  -30.3740   24.8840 C   0  0  0  0  0  1  0  0  0  0  0  0
  -27.5480  -32.5590   25.9010 C   0  0  0  0  0  1  0  0  0  0  0  0
  2  1  1  0
  3  1  2  0
  4  6  2  0
  4  5  1  0
  5  2  2  0
  6  3  1  0
  7 15  1  0
  8 13  1  0
  9 10  1  0
  9  8  1  0
 11 10  1  0
 11 20  1  0
 11 12  1  0
 13  7  1  0
 13 12  1  0
 14  7  2  0
 15  6  1  0
 15 16  1  0
 17 18  2  0
 18 37  1  0
 19 18  1  0
 19 22  1  0
 20 17  1  0
 20 21  1  0
 21 19  2  0
 22 23  1  0
 23 24  2  0
 25 28  1  0
 25 24  1  0
 26 25  2  0
 27 26  1  0
 27 22  2  0
 28 29  1  0
 29 30  1  0
 30 31  2  0
 32 31  1  0
 32 36  1  0
 33 32  2  0
 34 29  2  0
 34 33  1  0
 35 34  1  0
 37 38  1  0
 38 41  1  0
 38 40  1  0
 39 37  2  0
 42 43  1  0
 42 17  1  0
 44 42  1  0
 45  5  1  0
 45 46  1  0
 47 58  2  0
 48 46  1  0
 48 53  1  0
 49 57  1  0
 49 59  1  0
 50 56  1  0
 50 52  1  0
 51 57  1  0
 52 53  2  0
 52 51  1  0
 54 48  2  0
 55 54  1  0
 55 50  2  0
 56 49  1  0
 57 47  1  0
 59 61  2  0
 60 59  1  0
 62 60  1  0
 63 72  2  0
 63 68  1  0
 64 60  1  0
 64 68  1  0
 65 64  1  0
 66 67  1  0
 66 65  1  0
 67 63  1  0
 68 69  2  0
 69 70  1  0
 71 70  2  0
 72 71  1  0
 73 47  1  0
 73 74  1  0
 73 83  1  0
 74 77  1  0
 75 79  1  0
 75 74  1  0
 76 75  2  0
 79 78  1  0
 81 82  1  0
 81 79  1  0
 81 80  1  0
 83 86  1  1
 83 84  1  0
 85 83  1  0
M  ISO  4   7 100  15 100  45 101  46 101
M  END
>  <TORSDO>  (51) 
F 17

>  <SCORE>  (51) 
-16.516

>  <name>  (51) 
50

>  <ligand_id>  (51) 
50

>  <original_smiles>  (51) 
[H]c1c([H])c(N([H])C(=O)N2C([H])([H])C([H])([H])C([H])([H])C([H])(n3nc(-c4c([H])c([H])c(Oc5c([H])c([H])c(F)c([H])c5F)c([H])c4[H])c(C(=O)N([H])[H])c3N([H])[H])C2([H])[H])c([H])c(C([H])([H])Oc2c([H])c([H])c3c(c2[H])C([H])([H])N(C(=O)C([H])(N([H])C(=O)C([H])(N([H])C([H])([H])[H])C([H])([H])[H])C(C([H])([H])[H])(C([H])([H])[H])C([H])([H])[H])C([H])(C(=O)N([H])C2([H])c4c([H])c([H])c([H])c([H])c4C([H])([H])C([H])([H])C2([H])[H])C3([H])[H])c1[H]

>  <smiles>  (51) 
[H]c1c([H])c(N([H])C(=O)N2C([H])([H])C([H])([H])C([H])([H])C([H])(n3nc(-c4c([H])c([H])c(Oc5c([H])c([H])c(F)c([H])c5F)c([H])c4[H])c(C(=O)N([H])[H])c3N([H])[H])C2([H])[H])c([H])c(C([H])([H])Oc2c([H])c([H])c3c(c2[H])C([H])([H])N(C(=O)C([H])(N([H])C(=O)C([H])(N([H])C([H])([H])[H])C([H])([H])[H])C(C([H])([H])[H])(C([H])([H])[H])C([H])([H])[H])C([H])(C(=O)N([H])C2([H])c4c([H])c([H])c([H])c([H])c4C([H])([H])C([H])([H])C2([H])[H])C3([H])[H])c1[H]

$$$$
51:0:0
     RDKit          3D

 80 83  0  0  1  0  0  0  0  0999 V2000
  -24.7310  -31.7630   23.0940 C   0  0  0  0  0  0  0  0  0  0  0  0
  -27.2120  -26.2370   20.1170 C   0  0  0  0  0  0  0  0  0  0  0  0
  -23.5510  -30.3570   21.4670 C   0  0  0  0  0  3  0  0  0  0  0  0
  -24.9920  -28.6060   20.0730 C   0  0  0  0  0  0  0  0  0  0  0  0
  -26.1490  -30.3450   21.3880 C   0  0  0  0  0  2  0  0  0  0  0  0
  -26.2020  -28.8580   20.7260 C   0  0  0  0  0  0  0  0  0  0  0  0
  -27.2670  -27.7230   20.7010 C   0  0  0  0  0  3  0  0  0  0  0  0
  -25.9610  -26.3360   19.4020 C   0  0  0  0  0  3  0  0  0  0  0  0
  -24.9430  -27.3750   19.3820 C   0  0  0  0  0  3  0  0  0  0  0  0
  -23.8090  -29.6210   20.1110 C   0  0  0  0  0  2  0  0  0  0  0  0
  -24.8420  -30.8680   22.0340 N   0  0  0  0  0  0  0  0  0  0  0  0
  -23.6300  -32.0840   23.5830 O   0  0  0  0  0  0  0  0  0  0  0  0
  -22.7920  -29.4250   22.4550 C   0  0  0  0  0  0  0  0  0  0  0  0
  -21.4510  -29.3110   22.3500 N   0  0  0  0  0  0  0  0  0  0  0  0
  -23.4310  -28.7940   23.2980 O   0  0  0  0  0  0  0  0  0  0  0  0
  -20.9760  -29.8700   21.6530 H   0  0  0  0  0  0  0  0  0  0  0  0
  -18.0490  -28.1250   22.9140 C   0  0  0  0  0  0  0  0  0  0  0  0
  -20.6170  -28.3820   23.1290 C   0  0  0  0  0  3  0  0  0  0  0  0
  -20.6960  -26.9500   22.5460 C   0  0  0  0  0  2  0  0  0  0  0  0
  -19.5770  -26.6440   21.5450 C   0  0  0  0  0  2  0  0  0  0  0  0
  -18.2080  -26.7870   22.2130 C   0  0  0  0  0  2  0  0  0  0  0  0
  -19.1790  -28.8820   23.3280 C   0  0  0  0  0  0  0  0  0  0  0  0
  -18.9700  -30.1300   23.9550 C   0  0  0  0  0  3  0  0  0  0  0  0
  -17.6680  -30.6230   24.1640 C   0  0  0  0  0  3  0  0  0  0  0  0
  -16.5550  -29.8660   23.7580 C   0  0  0  0  0  3  0  0  0  0  0  0
  -16.7470  -28.6170   23.1410 C   0  0  0  0  0  3  0  0  0  0  0  0
  -25.9740  -32.4410   23.7510 C   0  0  0  0  0  3  0  0  0  0  0  0
  -25.6360  -33.8440   24.0870 N   0  0  0  0  0  0  0  0  0  0  0  0
  -25.9720  -34.9250   23.3680 C   0  0  0  0  0  0  0  0  0  0  0  0
  -26.6420  -34.8470   22.3360 O   0  0  0  0  0  0  0  0  0  0  0  0
  -25.0350  -33.9780   24.8870 H   0  0  0  0  0  0  0  0  0  0  0  0
  -24.2390  -36.7420   23.0930 C   0  0  0  0  0  1  0  0  0  0  0  0
  -25.4980  -36.3120   23.8640 C   0  0  0  0  0  3  0  0  0  0  0  0
  -27.6510  -37.1970   24.6590 C   0  0  0  0  0  1  0  0  0  0  0  0
  -26.5260  -37.3710   23.7430 N   0  0  0  0  0  0  0  0  0  0  0  0
  -26.1210  -38.2880   23.9120 H   0  0  0  0  0  0  0  0  0  0  0  0
  -26.4550  -31.7000   25.0620 C   0  0  1  0  0  0  0  0  0  0  0  0
  -25.3370  -31.4980   26.1140 C   0  0  0  0  0  1  0  0  0  0  0  0
  -27.0360  -30.3080   24.7370 C   0  0  0  0  0  1  0  0  0  0  0  0
  -27.5980  -32.5020   25.7280 C   0  0  0  0  0  1  0  0  0  0  0  0
  -28.1330  -24.7870   20.1310 O   0  0  0  0  0  1  0  0  0  0  0  0
  -28.1340  -22.7360   20.0320 C   0  0  0  0  0 15  0  0  0  0  0  0
  -29.0900  -20.6470   20.0500 C   0  0  0  0  0 15  0  0  0  0  0  0
  -29.0620  -18.5970   20.0550 O   0  0  0  0  0 15  0  0  0  0  0  0
  -30.0510  -16.5410   19.9720 C   0  0  0  0  0  2  0  0  0  0  0  0
  -30.3270  -13.7530   19.2670 C   0  0  0  0  0  2  0  0  0  0  0  0
  -29.5280  -12.9810   18.1470 C   0  0  0  0  0  2  0  0  0  0  0  0
  -28.1890  -12.4510   18.6640 C   0  0  0  0  0  2  0  0  0  0  0  0
  -27.5570  -13.4950   19.6000 C   0  0  0  0  0  3  0  0  0  0  0  0
  -28.5150  -14.1660   20.6400 C   0  0  0  0  0  2  0  0  0  0  0  0
  -29.5650  -14.9820   19.9220 N   0  0  0  0  0  0  0  0  0  0  0  0
  -31.2920  -16.3610   19.8280 O   0  0  0  0  0  1  0  0  0  0  0  0
  -25.2260  -13.9170   20.4480 C   0  0  0  0  0  0  0  0  0  0  0  0
  -24.1960  -13.1110   20.8330 C   0  0  0  0  0  0  0  0  0  0  0  0
  -24.6930  -11.7710   20.7770 C   0  0  0  0  0  0  0  0  0  0  0  0
  -26.2840  -13.0780   20.1710 N   0  0  0  0  0  0  0  0  0  0  0  0
  -25.9810  -11.7720   20.4270 N   0  0  0  0  0  0  0  0  0  0  0  0
  -23.9850  -10.4960   20.9760 C   0  0  0  0  0  0  0  0  0  0  0  0
  -24.4320   -9.5330   21.9070 C   0  0  0  0  0  3  0  0  0  0  0  0
  -23.7140   -8.3330   22.1020 C   0  0  0  0  0  3  0  0  0  0  0  0
  -22.5310   -8.0850   21.3640 C   0  0  0  0  0  0  0  0  0  0  0  0
  -22.1000   -9.0370   20.4240 C   0  0  0  0  0  3  0  0  0  0  0  0
  -22.8200  -10.2290   20.2280 C   0  0  0  0  0  3  0  0  0  0  0  0
  -21.7830   -6.9360   21.4670 O   0  0  0  0  0  0  0  0  0  0  0  0
  -21.7470   -6.2000   22.6240 C   0  0  0  0  0  0  0  0  0  0  0  0
  -21.3430   -6.7630   23.8530 C   0  0  0  0  0  3  0  0  0  0  0  0
  -21.2520   -5.9550   25.0030 C   0  0  0  0  0  3  0  0  0  0  0  0
  -21.5570   -4.5820   24.9260 C   0  0  0  0  0  0  0  0  0  0  0  0
  -21.9550   -4.0180   23.7020 C   0  0  0  0  0  3  0  0  0  0  0  0
  -22.0460   -4.8240   22.5530 C   0  0  0  0  0  0  0  0  0  0  0  0
  -22.4080   -4.2690   21.3710 F   0  0  0  0  0  0  0  0  0  0  0  0
  -21.4640   -3.8030   26.0290 F   0  0  0  0  0  0  0  0  0  0  0  0
  -22.7990  -13.5650   21.1320 C   0  0  0  0  0  0  0  0  0  0  0  0
  -22.1020  -12.8630   22.0170 N   0  0  0  0  0  0  0  0  0  0  0  0
  -22.3380  -14.5840   20.6180 O   0  0  0  0  0  0  0  0  0  0  0  0
  -22.4920  -12.0410   22.4540 H   0  0  0  0  0  0  0  0  0  0  0  0
  -21.1650  -13.1510   22.2610 H   0  0  0  0  0  0  0  0  0  0  0  0
  -25.3500  -15.2920   20.2710 N   0  0  0  0  0  0  0  0  0  0  0  0
  -24.5720  -15.9290   20.4080 H   0  0  0  0  0  0  0  0  0  0  0  0
  -26.1860  -15.7530   19.9340 H   0  0  0  0  0  0  0  0  0  0  0  0
  1 12  2  0
  2 41  1  0
  2  7  1  0
  3 11  1  0
  3 13  1  0
  4 10  1  0
  4  6  1  0
  5 11  1  0
  6  5  1  0
  7  6  2  0
  8  2  2  0
  9  8  1  0
  9  4  2  0
 10  3  1  0
 11  1  1  0
 13 15  2  0
 14 13  1  0
 16 14  1  0
 17 26  2  0
 17 22  1  0
 18 14  1  0
 18 22  1  0
 19 18  1  0
 20 21  1  0
 20 19  1  0
 21 17  1  0
 22 23  2  0
 23 24  1  0
 25 24  2  0
 26 25  1  0
 27  1  1  0
 27 28  1  0
 27 37  1  0
 28 31  1  0
 29 33  1  0
 29 28  1  0
 30 29  2  0
 33 32  1  0
 35 33  1  0
 35 36  1  0
 35 34  1  0
 37 40  1  1
 37 38  1  0
 39 37  1  0
 46 51  1  0
 47 48  1  0
 47 46  1  0
 49 48  1  0
 49 56  1  0
 49 50  1  0
 51 45  1  0
 51 50  1  0
 52 45  1  0
 53 54  2  0
 54 73  1  0
 55 54  1  0
 55 58  1  0
 56 57  1  0
 56 53  1  0
 57 55  2  0
 58 59  1  0
 59 60  2  0
 61 64  1  0
 61 60  1  0
 62 61  2  0
 63 62  1  0
 63 58  2  0
 64 65  1  0
 65 66  1  0
 66 67  2  0
 68 67  1  0
 68 72  1  0
 69 68  2  0
 70 65  2  0
 70 69  1  0
 71 70  1  0
 73 74  1  0
 74 77  1  0
 74 76  1  0
 75 73  2  0
 78 79  1  0
 78 53  1  0
 80 78  1  0
M  ISO  4  41 101  42 101  44 100  45 100
M  END
>  <TORSDO>  (52) 
F 18

>  <SCORE>  (52) 
-16.084

>  <name>  (52) 
51

>  <ligand_id>  (52) 
51

>  <original_smiles>  (52) 
[H]c1c([H])c([H])c2c(c1[H])C([H])([H])C([H])([H])C([H])([H])C2([H])N([H])C(=O)C1([H])N(C(=O)C([H])(N([H])C(=O)C([H])(N([H])C([H])([H])[H])C([H])([H])[H])C(C([H])([H])[H])(C([H])([H])[H])C([H])([H])[H])C([H])([H])c2c([H])c(OC([H])([H])C([H])([H])OC(=O)N3C([H])([H])C([H])([H])C([H])([H])C([H])(n4nc(-c5c([H])c([H])c(Oc6c([H])c([H])c(F)c([H])c6F)c([H])c5[H])c(C(=O)N([H])[H])c4N([H])[H])C3([H])[H])c([H])c([H])c2C1([H])[H]

>  <smiles>  (52) 
[H]c1c([H])c([H])c2c(c1[H])C([H])([H])C([H])([H])C([H])([H])C2([H])N([H])C(=O)C1([H])N(C(=O)C([H])(N([H])C(=O)C([H])(N([H])C([H])([H])[H])C([H])([H])[H])C(C([H])([H])[H])(C([H])([H])[H])C([H])([H])[H])C([H])([H])c2c([H])c(OC([H])([H])C([H])([H])OC(=O)N3C([H])([H])C([H])([H])C([H])([H])C([H])(n4nc(-c5c([H])c([H])c(Oc6c([H])c([H])c(F)c([H])c6F)c([H])c5[H])c(C(=O)N([H])[H])c4N([H])[H])C3([H])[H])c([H])c([H])c2C1([H])[H]

$$$$
52:0:0
     RDKit          3D

 92100  0  0  1  0  0  0  0  0999 V2000
  -30.2450  -22.7860   20.0430 C   0  0  0  0  0  2  0  0  0  0  0  0
  -29.3000  -23.9830   20.1950 C   0  0  0  0  0  2  0  0  0  0  0  0
  -29.9060  -25.1240   21.0300 C   0  0  0  0  0  2  0  0  0  0  0  0
  -28.8810  -26.2250   21.2850 C   0  0  0  0  0  0  0  0  0  0  0  0
  -28.5400  -26.5220   22.4330 O   0  0  0  0  0  0  0  0  0  0  0  0
  -28.3850  -26.7460   20.1380 O   0  0  0  0  0  0  0  0  0  0  0  0
  -24.5700  -31.8970   23.2210 C   0  0  0  0  0  0  0  0  0  0  0  0
  -27.2300  -27.4840   20.1680 C   0  0  0  0  0  0  0  0  0  0  0  0
  -23.3620  -30.4840   21.5840 C   0  0  0  0  0  3  0  0  0  0  0  0
  -24.8200  -28.9460   20.1670 C   0  0  0  0  0  0  0  0  0  0  0  0
  -25.8800  -30.8640   21.3750 C   0  0  0  0  0  2  0  0  0  0  0  0
  -25.9720  -29.4930   20.7460 C   0  0  0  0  0  0  0  0  0  0  0  0
  -27.1820  -28.7720   20.7430 C   0  0  0  0  0  3  0  0  0  0  0  0
  -26.0680  -26.9440   19.5780 C   0  0  0  0  0  3  0  0  0  0  0  0
  -24.8610  -27.6690   19.5790 C   0  0  0  0  0  3  0  0  0  0  0  0
  -23.5710  -29.7960   20.2080 C   0  0  0  0  0  2  0  0  0  0  0  0
  -24.6220  -31.0950   22.1200 N   0  0  0  0  0  0  0  0  0  0  0  0
  -23.4910  -32.1700   23.7630 O   0  0  0  0  0  0  0  0  0  0  0  0
  -22.7170  -29.4680   22.5500 C   0  0  0  0  0  0  0  0  0  0  0  0
  -21.3920  -29.2880   22.4290 N   0  0  0  0  0  0  0  0  0  0  0  0
  -23.4040  -28.8420   23.3620 O   0  0  0  0  0  0  0  0  0  0  0  0
  -20.9000  -29.8470   21.7460 H   0  0  0  0  0  0  0  0  0  0  0  0
  -18.0160  -28.1100   22.9410 C   0  0  0  0  0  0  0  0  0  0  0  0
  -20.5760  -28.3540   23.2030 C   0  0  0  0  0  3  0  0  0  0  0  0
  -20.6680  -26.9220   22.6270 C   0  0  0  0  0  2  0  0  0  0  0  0
  -19.5600  -26.6050   21.6180 C   0  0  0  0  0  2  0  0  0  0  0  0
  -18.1820  -26.7580   22.2670 C   0  0  0  0  0  2  0  0  0  0  0  0
  -19.1400  -28.8660   23.3670 C   0  0  0  0  0  0  0  0  0  0  0  0
  -18.9310  -30.1330   23.9540 C   0  0  0  0  0  3  0  0  0  0  0  0
  -17.6310  -30.6420   24.1230 C   0  0  0  0  0  3  0  0  0  0  0  0
  -16.5200  -29.8820   23.7150 C   0  0  0  0  0  3  0  0  0  0  0  0
  -16.7140  -28.6180   23.1290 C   0  0  0  0  0  3  0  0  0  0  0  0
  -25.8600  -32.5290   23.8360 C   0  0  0  0  0  3  0  0  0  0  0  0
  -25.5490  -33.9250   24.1700 N   0  0  0  0  0  0  0  0  0  0  0  0
  -25.8800  -34.9790   23.4120 C   0  0  0  0  0  0  0  0  0  0  0  0
  -26.5510  -34.8790   22.3810 O   0  0  0  0  0  0  0  0  0  0  0  0
  -24.9520  -34.0770   24.9700 H   0  0  0  0  0  0  0  0  0  0  0  0
  -24.1540  -36.7710   23.0500 C   0  0  0  0  0  1  0  0  0  0  0  0
  -25.3880  -36.3650   23.8710 C   0  0  0  0  0  3  0  0  0  0  0  0
  -27.5190  -37.2430   24.7190 C   0  0  0  0  0  1  0  0  0  0  0  0
  -26.4210  -37.4190   23.7710 N   0  0  0  0  0  0  0  0  0  0  0  0
  -26.0140  -38.3370   23.9260 H   0  0  0  0  0  0  0  0  0  0  0  0
  -26.3900  -31.7530   25.1030 C   0  0  1  0  0  0  0  0  0  0  0  0
  -25.3070  -31.5060   26.1790 C   0  0  0  0  0  1  0  0  0  0  0  0
  -26.9760  -30.3800   24.6980 C   0  0  0  0  0  1  0  0  0  0  0  0
  -27.5440  -32.5490   25.7600 C   0  0  0  0  0  1  0  0  0  0  0  0
  -29.6560  -21.7030   19.1310 C   0  0  0  0  0  2  0  0  0  0  0  0
  -30.6310  -20.6760   18.9940 O   0  0  0  0  0  0  0  0  0  0  0  0
  -29.0280  -17.5550   20.2880 C   0  0  0  0  0  3  0  0  0  0  0  0
  -31.4490  -17.4350   20.5070 C   0  0  0  0  0  3  0  0  0  0  0  0
  -29.1420  -18.8560   19.7610 C   0  0  0  0  0  3  0  0  0  0  0  0
  -31.5600  -18.7320   19.9740 C   0  0  0  0  0  3  0  0  0  0  0  0
  -30.1810  -16.8170   20.6240 C   0  0  0  0  0  0  0  0  0  0  0  0
  -30.4160  -19.4510   19.5850 C   0  0  0  0  0  0  0  0  0  0  0  0
  -30.7030  -14.4350   20.4940 C   0  0  0  0  0  0  0  0  0  0  0  0
  -30.3450  -12.3010   19.3390 C   0  0  0  0  0  2  0  0  0  0  0  0
  -29.4110  -12.5580   18.1390 C   0  0  0  0  0  2  0  0  0  0  0  0
  -27.9360  -12.4390   18.5670 C   0  0  0  0  0  2  0  0  0  0  0  0
  -27.6150  -13.2620   19.8450 C   0  0  0  0  0  3  0  0  0  0  0  0
  -28.6690  -13.0110   20.9480 C   0  0  0  0  0  2  0  0  0  0  0  0
  -30.0010  -13.2780   20.3810 N   0  0  0  0  0  0  0  0  0  0  0  0
  -31.8330  -14.5760   20.0190 O   0  0  0  0  0  0  0  0  0  0  0  0
  -30.0250  -15.4630   21.0290 N   0  0  0  0  0  0  0  0  0  0  0  0
  -29.1140  -15.2090   21.3790 H   0  0  0  0  0  0  0  0  0  0  0  0
  -25.2210  -13.8840   20.5620 C   0  0  0  0  0  0  0  0  0  0  0  0
  -24.1480  -13.1180   20.9320 C   0  0  0  0  0  0  0  0  0  0  0  0
  -24.5990  -11.7630   20.8900 C   0  0  0  0  0  0  0  0  0  0  0  0
  -26.2600  -12.9970   20.3240 N   0  0  0  0  0  0  0  0  0  0  0  0
  -25.8880  -11.7160   20.5760 N   0  0  0  0  0  0  0  0  0  0  0  0
  -23.8630  -10.5060   21.0740 C   0  0  0  0  0  0  0  0  0  0  0  0
  -24.2970   -9.5230   21.9920 C   0  0  0  0  0  3  0  0  0  0  0  0
  -23.5630   -8.3300   22.1640 C   0  0  0  0  0  3  0  0  0  0  0  0
  -22.3800   -8.1100   21.4190 C   0  0  0  0  0  0  0  0  0  0  0  0
  -21.9660   -9.0800   20.4890 C   0  0  0  0  0  3  0  0  0  0  0  0
  -22.7000  -10.2650   20.3140 C   0  0  0  0  0  3  0  0  0  0  0  0
  -21.6160   -6.9710   21.5020 O   0  0  0  0  0  0  0  0  0  0  0  0
  -21.5800   -6.2110   22.6440 C   0  0  0  0  0  0  0  0  0  0  0  0
  -21.1830   -6.7510   23.8870 C   0  0  0  0  0  3  0  0  0  0  0  0
  -21.0930   -5.9180   25.0200 C   0  0  0  0  0  3  0  0  0  0  0  0
  -21.3890   -4.5470   24.9100 C   0  0  0  0  0  0  0  0  0  0  0  0
  -21.7790   -4.0060   23.6730 C   0  0  0  0  0  3  0  0  0  0  0  0
  -21.8710   -4.8360   22.5420 C   0  0  0  0  0  0  0  0  0  0  0  0
  -22.2260   -4.3060   21.3470 F   0  0  0  0  0  0  0  0  0  0  0  0
  -21.2940   -3.7440   25.9960 F   0  0  0  0  0  0  0  0  0  0  0  0
  -22.7560  -13.6040   21.2130 C   0  0  0  0  0  0  0  0  0  0  0  0
  -22.0250  -12.9060   22.0740 N   0  0  0  0  0  0  0  0  0  0  0  0
  -22.3260  -14.6390   20.7050 O   0  0  0  0  0  0  0  0  0  0  0  0
  -22.3850  -12.0670   22.5070 H   0  0  0  0  0  0  0  0  0  0  0  0
  -21.0910  -13.2130   22.3050 H   0  0  0  0  0  0  0  0  0  0  0  0
  -25.3940  -15.2540   20.3890 N   0  0  0  0  0  0  0  0  0  0  0  0
  -24.6240  -15.9060   20.4870 H   0  0  0  0  0  0  0  0  0  0  0  0
  -26.2350  -15.6830   20.0270 H   0  0  0  0  0  0  0  0  0  0  0  0
  1  2  1  0
  2  3  1  0
  3  4  1  0
  4  5  2  0
  6  8  1  0
  6  4  1  0
  7 18  2  0
  8 13  1  0
  9 17  1  0
  9 19  1  0
 10 16  1  0
 10 12  1  0
 11 17  1  0
 12 11  1  0
 13 12  2  0
 14 15  1  0
 14  8  2  0
 15 10  2  0
 16  9  1  0
 17  7  1  0
 19 21  2  0
 20 19  1  0
 22 20  1  0
 23 32  2  0
 23 28  1  0
 24 20  1  0
 24 28  1  0
 25 24  1  0
 26 27  1  0
 26 25  1  0
 27 23  1  0
 28 29  2  0
 29 30  1  0
 31 30  2  0
 32 31  1  0
 33  7  1  0
 33 34  1  0
 33 43  1  0
 34 37  1  0
 35 39  1  0
 35 34  1  0
 36 35  2  0
 39 38  1  0
 41 39  1  0
 41 42  1  0
 41 40  1  0
 43 46  1  1
 43 44  1  0
 45 43  1  0
 47  1  1  0
 48 47  1  0
 48 54  1  0
 49 53  1  0
 50 53  2  0
 51 49  2  0
 52 50  1  0
 53 63  1  0
 54 51  1  0
 54 52  2  0
 55 63  1  0
 56 61  1  0
 57 58  1  0
 57 56  1  0
 59 58  1  0
 59 68  1  0
 59 60  1  0
 61 55  1  0
 61 60  1  0
 62 55  2  0
 63 64  1  0
 65 66  2  0
 66 85  1  0
 67 66  1  0
 67 70  1  0
 68 65  1  0
 68 69  1  0
 69 67  2  0
 70 71  1  0
 71 72  2  0
 73 76  1  0
 73 72  1  0
 74 73  2  0
 75 74  1  0
 75 70  2  0
 76 77  1  0
 77 78  1  0
 78 79  2  0
 80 79  1  0
 80 84  1  0
 81 80  2  0
 82 77  2  0
 82 81  1  0
 83 82  1  0
 85 86  1  0
 86 89  1  0
 86 88  1  0
 87 85  2  0
 90 91  1  0
 90 65  1  0
 92 90  1  0
M  ISO  4   4 101   6 101  55 100  63 100
M  END
>  <TORSDO>  (53) 
F 22

>  <SCORE>  (53) 
-13.307

>  <name>  (53) 
52

>  <ligand_id>  (53) 
52

>  <original_smiles>  (53) 
[H]c1c([H])c([H])c2c(c1[H])C([H])([H])C([H])([H])C([H])([H])C2([H])N([H])C(=O)C1([H])N(C(=O)C([H])(N([H])C(=O)C([H])(N([H])C([H])([H])[H])C([H])([H])[H])C(C([H])([H])[H])(C([H])([H])[H])C([H])([H])[H])C([H])([H])c2c([H])c(OC(=O)C([H])([H])C([H])([H])C([H])([H])C([H])([H])Oc3c([H])c([H])c(N([H])C(=O)N4C([H])([H])C([H])([H])C([H])([H])C([H])(n5nc(-c6c([H])c([H])c(Oc7c([H])c([H])c(F)c([H])c7F)c([H])c6[H])c(C(=O)N([H])[H])c5N([H])[H])C4([H])[H])c([H])c3[H])c([H])c([H])c2C1([H])[H]

>  <smiles>  (53) 
[H]c1c([H])c([H])c2c(c1[H])C([H])([H])C([H])([H])C([H])([H])C2([H])N([H])C(=O)C1([H])N(C(=O)C([H])(N([H])C(=O)C([H])(N([H])C([H])([H])[H])C([H])([H])[H])C(C([H])([H])[H])(C([H])([H])[H])C([H])([H])[H])C([H])([H])c2c([H])c(OC(=O)C([H])([H])C([H])([H])C([H])([H])C([H])([H])Oc3c([H])c([H])c(N([H])C(=O)N4C([H])([H])C([H])([H])C([H])([H])C([H])(n5nc(-c6c([H])c([H])c(Oc7c([H])c([H])c(F)c([H])c7F)c([H])c6[H])c(C(=O)N([H])[H])c5N([H])[H])C4([H])[H])c([H])c3[H])c([H])c([H])c2C1([H])[H]

$$$$
53:0:0
     RDKit          3D

 90 97  0  0  1  0  0  0  0  0999 V2000
  -27.8060  -22.7890   22.0570 C   0  0  0  0  0  2  0  0  0  0  0  0
  -28.1210  -23.6690   20.9800 O   0  0  0  0  0  0  0  0  0  0  0  0
  -28.3570  -25.0040   21.4180 C   0  0  0  0  0  2  0  0  0  0  0  0
  -29.0330  -25.8100   20.2920 C   0  0  0  0  0  2  0  0  0  0  0  0
  -28.9770  -27.2200   20.5330 O   0  0  0  0  0  0  0  0  0  0  0  0
  -24.8130  -32.1180   23.5430 C   0  0  0  0  0  0  0  0  0  0  0  0
  -27.7520  -27.8490   20.4980 C   0  0  0  0  0  0  0  0  0  0  0  0
  -23.7220  -30.6820   21.8480 C   0  0  0  0  0  3  0  0  0  0  0  0
  -25.2850  -29.2330   20.4560 C   0  0  0  0  0  0  0  0  0  0  0  0
  -26.2290  -31.1650   21.7290 C   0  0  0  0  0  2  0  0  0  0  0  0
  -26.3990  -29.8060   21.0820 C   0  0  0  0  0  0  0  0  0  0  0  0
  -27.6340  -29.1210   21.0980 C   0  0  0  0  0  3  0  0  0  0  0  0
  -26.6140  -27.2830   19.8740 C   0  0  0  0  0  3  0  0  0  0  0  0
  -25.3870  -27.9680   19.8540 C   0  0  0  0  0  3  0  0  0  0  0  0
  -24.0040  -30.0320   20.4680 C   0  0  0  0  0  2  0  0  0  0  0  0
  -24.9370  -31.3350   22.4330 N   0  0  0  0  0  0  0  0  0  0  0  0
  -23.7050  -32.3340   24.0530 O   0  0  0  0  0  0  0  0  0  0  0  0
  -23.0900  -29.6210   22.7760 C   0  0  0  0  0  0  0  0  0  0  0  0
  -21.7860  -29.3620   22.5830 N   0  0  0  0  0  0  0  0  0  0  0  0
  -23.7700  -29.0330   23.6190 O   0  0  0  0  0  0  0  0  0  0  0  0
  -21.2950  -29.8870   21.8700 H   0  0  0  0  0  0  0  0  0  0  0  0
  -18.4720  -27.9650   22.9140 C   0  0  0  0  0  0  0  0  0  0  0  0
  -20.9920  -28.3730   23.3120 C   0  0  0  0  0  3  0  0  0  0  0  0
  -21.2090  -26.9500   22.7440 C   0  0  0  0  0  2  0  0  0  0  0  0
  -20.1790  -26.5620   21.6760 C   0  0  0  0  0  2  0  0  0  0  0  0
  -18.7620  -26.6280   22.2540 C   0  0  0  0  0  2  0  0  0  0  0  0
  -19.5210  -28.7900   23.3990 C   0  0  0  0  0  0  0  0  0  0  0  0
  -19.2030  -30.0400   23.9710 C   0  0  0  0  0  3  0  0  0  0  0  0
  -17.8650  -30.4650   24.0730 C   0  0  0  0  0  3  0  0  0  0  0  0
  -16.8290  -29.6370   23.6090 C   0  0  0  0  0  3  0  0  0  0  0  0
  -17.1330  -28.3910   23.0320 C   0  0  0  0  0  3  0  0  0  0  0  0
  -26.0510  -32.7960   24.2080 C   0  0  0  0  0  3  0  0  0  0  0  0
  -26.4950  -32.0970   25.5500 C   0  0  1  0  0  0  0  0  0  0  0  0
  -25.3360  -31.8630   26.5460 C   0  0  0  0  0  1  0  0  0  0  0  0
  -27.1490  -30.7280   25.2540 C   0  0  0  0  0  1  0  0  0  0  0  0
  -27.5660  -32.9570   26.2590 C   0  0  0  0  0  1  0  0  0  0  0  0
  -25.7090  -34.2050   24.4420 N   0  0  0  0  0  0  0  0  0  0  0  0
  -26.0740  -35.2180   23.6420 C   0  0  0  0  0  0  0  0  0  0  0  0
  -26.8020  -35.0650   22.6570 O   0  0  0  0  0  0  0  0  0  0  0  0
  -25.0670  -34.3930   25.1980 H   0  0  0  0  0  0  0  0  0  0  0  0
  -24.3440  -36.9560   23.0900 C   0  0  0  0  0  1  0  0  0  0  0  0
  -25.5440  -36.6220   23.9910 C   0  0  0  0  0  3  0  0  0  0  0  0
  -27.6240  -37.5810   24.8740 C   0  0  0  0  0  1  0  0  0  0  0  0
  -26.5690  -37.6810   23.8690 N   0  0  0  0  0  0  0  0  0  0  0  0
  -26.1450  -38.6010   23.9460 H   0  0  0  0  0  0  0  0  0  0  0  0
  -27.4930  -21.3830   21.5210 C   0  0  0  0  0  2  0  0  0  0  0  0
  -28.6650  -20.7680   20.9950 O   0  0  0  0  0  0  0  0  0  0  0  0
  -28.3670  -19.5800   20.2660 C   0  0  0  0  0  2  0  0  0  0  0  0
  -29.6620  -18.8370   19.8940 C   0  0  0  0  0  2  0  0  0  0  0  0
  -30.0630  -17.9670   20.9490 O   0  0  0  0  0  0  0  0  0  0  0  0
  -31.4690  -17.8850   21.1710 C   0  0  0  0  0  2  0  0  0  0  0  0
  -32.1640  -16.8510   20.2700 C   0  0  0  0  0  2  0  0  0  0  0  0
  -31.9300  -14.4640   19.7030 C   0  0  0  0  0  0  0  0  0  0  0  0
  -31.3700  -12.1870   18.9420 C   0  0  0  0  0  2  0  0  0  0  0  0
  -30.3890  -12.2580   17.7560 C   0  0  0  0  0  2  0  0  0  0  0  0
  -28.9350  -12.3150   18.2570 C   0  0  0  0  0  2  0  0  0  0  0  0
  -28.7260  -13.3820   19.3650 C   0  0  0  0  0  3  0  0  0  0  0  0
  -29.8210  -13.2870   20.4530 C   0  0  0  0  0  2  0  0  0  0  0  0
  -31.1380  -13.3620   19.7950 N   0  0  0  0  0  0  0  0  0  0  0  0
  -32.9520  -14.5110   19.0150 O   0  0  0  0  0  0  0  0  0  0  0  0
  -31.5220  -15.5410   20.3790 N   0  0  0  0  0  0  0  0  0  0  0  0
  -30.6870  -15.4770   20.9440 H   0  0  0  0  0  0  0  0  0  0  0  0
  -26.5230  -14.3100   20.3180 C   0  0  0  0  0  0  0  0  0  0  0  0
  -25.3730  -13.6950   20.7340 C   0  0  0  0  0  0  0  0  0  0  0  0
  -25.5970  -12.2930   20.5790 C   0  0  0  0  0  0  0  0  0  0  0  0
  -27.3840  -13.2930   19.9390 N   0  0  0  0  0  0  0  0  0  0  0  0
  -26.8320  -12.0680   20.1490 N   0  0  0  0  0  0  0  0  0  0  0  0
  -24.6860  -11.1530   20.7540 C   0  0  0  0  0  0  0  0  0  0  0  0
  -25.0150  -10.0650   21.5910 C   0  0  0  0  0  3  0  0  0  0  0  0
  -24.1140   -8.9910   21.7570 C   0  0  0  0  0  3  0  0  0  0  0  0
  -22.8680   -9.0000   21.0880 C   0  0  0  0  0  0  0  0  0  0  0  0
  -22.5550  -10.0750   20.2360 C   0  0  0  0  0  3  0  0  0  0  0  0
  -23.4560  -11.1380   20.0660 C   0  0  0  0  0  3  0  0  0  0  0  0
  -21.9430   -7.9870   21.1680 O   0  0  0  0  0  0  0  0  0  0  0  0
  -21.8340   -7.1990   22.2860 C   0  0  0  0  0  0  0  0  0  0  0  0
  -21.5870   -7.7470   23.5640 C   0  0  0  0  0  3  0  0  0  0  0  0
  -21.4110   -6.8960   24.6730 C   0  0  0  0  0  3  0  0  0  0  0  0
  -21.4730   -5.4990   24.5060 C   0  0  0  0  0  0  0  0  0  0  0  0
  -21.7140   -4.9520   23.2340 C   0  0  0  0  0  3  0  0  0  0  0  0
  -21.8900   -5.8000   22.1260 C   0  0  0  0  0  0  0  0  0  0  0  0
  -22.1010   -5.2670   20.8980 F   0  0  0  0  0  0  0  0  0  0  0  0
  -21.2960   -4.6800   25.5700 F   0  0  0  0  0  0  0  0  0  0  0  0
  -24.1040  -14.3690   21.1660 C   0  0  0  0  0  0  0  0  0  0  0  0
  -23.3490  -13.7420   22.0620 N   0  0  0  0  0  0  0  0  0  0  0  0
  -23.7960  -15.4850   20.7480 O   0  0  0  0  0  0  0  0  0  0  0  0
  -23.6150  -12.8390   22.4260 H   0  0  0  0  0  0  0  0  0  0  0  0
  -22.4980  -14.1770   22.3890 H   0  0  0  0  0  0  0  0  0  0  0  0
  -26.9010  -15.6450   20.2170 N   0  0  0  0  0  0  0  0  0  0  0  0
  -26.2750  -16.4070   20.4510 H   0  0  0  0  0  0  0  0  0  0  0  0
  -27.7960  -15.9620   19.8690 H   0  0  0  0  0  0  0  0  0  0  0  0
  2  3  1  0
  2  1  1  0
  4  5  1  0
  4  3  1  0
  6 17  2  0
  7  5  1  0
  7 12  1  0
  8 16  1  0
  8 18  1  0
  9 15  1  0
  9 11  1  0
 10 16  1  0
 11 12  2  0
 11 10  1  0
 13  7  2  0
 14 13  1  0
 14  9  2  0
 15  8  1  0
 16  6  1  0
 18 20  2  0
 19 18  1  0
 21 19  1  0
 22 31  2  0
 22 27  1  0
 23 19  1  0
 23 27  1  0
 24 23  1  0
 25 26  1  0
 25 24  1  0
 26 22  1  0
 27 28  2  0
 28 29  1  0
 30 29  2  0
 31 30  1  0
 32  6  1  0
 32 37  1  0
 32 33  1  0
 33 36  1  1
 33 34  1  0
 35 33  1  0
 37 40  1  0
 38 42  1  0
 38 37  1  0
 39 38  2  0
 42 41  1  0
 44 45  1  0
 44 42  1  0
 44 43  1  0
 46  1  1  0
 47 46  1  0
 48 47  1  0
 49 48  1  0
 49 50  1  0
 50 51  1  0
 52 61  1  0
 52 51  1  0
 53 59  1  0
 53 61  1  0
 54 59  1  0
 55 56  1  0
 55 54  1  0
 57 56  1  0
 57 66  1  0
 57 58  1  0
 59 58  1  0
 60 53  2  0
 61 62  1  0
 63 64  2  0
 64 83  1  0
 65 64  1  0
 65 68  1  0
 66 67  1  0
 66 63  1  0
 67 65  2  0
 68 69  1  0
 69 70  2  0
 71 74  1  0
 71 70  1  0
 72 71  2  0
 73 72  1  0
 73 68  2  0
 74 75  1  0
 75 76  1  0
 76 77  2  0
 78 77  1  0
 78 82  1  0
 79 78  2  0
 80 75  2  0
 80 79  1  0
 81 80  1  0
 83 84  1  0
 84 87  1  0
 84 86  1  0
 85 83  2  0
 88 63  1  0
 88 89  1  0
 90 88  1  0
M  ISO  4   4 101   5 101  53 100  61 100
M  END
>  <TORSDO>  (54) 
F 26

>  <SCORE>  (54) 
-9.736

>  <name>  (54) 
53

>  <ligand_id>  (54) 
53

>  <original_smiles>  (54) 
[H]c1c([H])c([H])c2c(c1[H])C([H])([H])C([H])([H])C([H])([H])C2([H])N([H])C(=O)C1([H])N(C(=O)C([H])(N([H])C(=O)C([H])(N([H])C([H])([H])[H])C([H])([H])[H])C(C([H])([H])[H])(C([H])([H])[H])C([H])([H])[H])C([H])([H])c2c([H])c(OC([H])([H])C([H])([H])OC([H])([H])C([H])([H])OC([H])([H])C([H])([H])OC([H])([H])C([H])([H])N([H])C(=O)N3C([H])([H])C([H])([H])C([H])([H])C([H])(n4nc(-c5c([H])c([H])c(Oc6c([H])c([H])c(F)c([H])c6F)c([H])c5[H])c(C(=O)N([H])[H])c4N([H])[H])C3([H])[H])c([H])c([H])c2C1([H])[H]

>  <smiles>  (54) 
[H]c1c([H])c([H])c2c(c1[H])C([H])([H])C([H])([H])C([H])([H])C2([H])N([H])C(=O)C1([H])N(C(=O)C([H])(N([H])C(=O)C([H])(N([H])C([H])([H])[H])C([H])([H])[H])C(C([H])([H])[H])(C([H])([H])[H])C([H])([H])[H])C([H])([H])c2c([H])c(OC([H])([H])C([H])([H])OC([H])([H])C([H])([H])OC([H])([H])C([H])([H])OC([H])([H])C([H])([H])N([H])C(=O)N3C([H])([H])C([H])([H])C([H])([H])C([H])(n4nc(-c5c([H])c([H])c(Oc6c([H])c([H])c(F)c([H])c6F)c([H])c5[H])c(C(=O)N([H])[H])c4N([H])[H])C3([H])[H])c([H])c([H])c2C1([H])[H]

$$$$
54:0:0
     RDKit          3D

 90 98  0  0  1  0  0  0  0  0999 V2000
  -28.7690  -22.6080   22.5980 C   0  0  0  0  0  3  0  0  0  0  0  0
  -28.6060  -23.7940   21.8420 C   0  0  0  0  0  3  0  0  0  0  0  0
  -29.0180  -21.3570   21.9840 C   0  0  0  0  0  3  0  0  0  0  0  0
  -28.9680  -22.4810   19.8370 C   0  0  0  0  0  3  0  0  0  0  0  0
  -28.6850  -23.7850   20.4340 C   0  0  0  0  0  0  0  0  0  0  0  0
  -29.1520  -21.2390   20.5810 C   0  0  0  0  0  0  0  0  0  0  0  0
  -28.4210  -25.1000   19.6220 C   0  0  0  0  0  0  0  0  0  0  0  0
  -28.2810  -25.0350   18.3970 O   0  0  0  0  0  0  0  0  0  0  0  0
  -28.3260  -26.4030   20.3050 O   0  0  0  0  0  0  0  0  0  0  0  0
  -24.6450  -31.9160   23.2350 C   0  0  0  0  0  0  0  0  0  0  0  0
  -27.2520  -27.3220   20.1670 C   0  0  0  0  0  0  0  0  0  0  0  0
  -23.4420  -30.5190   21.5980 C   0  0  0  0  0  3  0  0  0  0  0  0
  -24.8920  -28.9750   20.1620 C   0  0  0  0  0  0  0  0  0  0  0  0
  -25.9870  -30.8360   21.4090 C   0  0  0  0  0  2  0  0  0  0  0  0
  -26.0720  -29.4590   20.7460 C   0  0  0  0  0  0  0  0  0  0  0  0
  -27.2510  -28.6430   20.7390 C   0  0  0  0  0  3  0  0  0  0  0  0
  -26.0460  -26.9140   19.5530 C   0  0  0  0  0  3  0  0  0  0  0  0
  -24.8850  -27.7090   19.5640 C   0  0  0  0  0  3  0  0  0  0  0  0
  -23.6540  -29.8510   20.2160 C   0  0  0  0  0  2  0  0  0  0  0  0
  -24.7110  -31.1070   22.1350 N   0  0  0  0  0  0  0  0  0  0  0  0
  -23.5610  -32.1870   23.7720 O   0  0  0  0  0  0  0  0  0  0  0  0
  -22.7860  -29.4970   22.5570 C   0  0  0  0  0  0  0  0  0  0  0  0
  -21.4600  -29.3070   22.4310 N   0  0  0  0  0  0  0  0  0  0  0  0
  -23.4700  -28.8730   23.3730 O   0  0  0  0  0  0  0  0  0  0  0  0
  -20.9630  -29.8600   21.7470 H   0  0  0  0  0  0  0  0  0  0  0  0
  -18.0950  -28.0780   22.9450 C   0  0  0  0  0  0  0  0  0  0  0  0
  -20.6510  -28.3650   23.2070 C   0  0  0  0  0  3  0  0  0  0  0  0
  -20.7650  -26.9310   22.6380 C   0  0  0  0  0  2  0  0  0  0  0  0
  -19.6660  -26.5940   21.6270 C   0  0  0  0  0  2  0  0  0  0  0  0
  -18.2830  -26.7290   22.2710 C   0  0  0  0  0  2  0  0  0  0  0  0
  -19.2070  -28.8520   23.3710 C   0  0  0  0  0  0  0  0  0  0  0  0
  -18.9780  -30.1130   23.9620 C   0  0  0  0  0  3  0  0  0  0  0  0
  -17.6680  -30.6010   24.1290 C   0  0  0  0  0  3  0  0  0  0  0  0
  -16.5710  -29.8250   23.7180 C   0  0  0  0  0  3  0  0  0  0  0  0
  -16.7850  -28.5640   23.1340 C   0  0  0  0  0  3  0  0  0  0  0  0
  -25.9250  -32.5540   23.8530 C   0  0  0  0  0  3  0  0  0  0  0  0
  -26.4480  -31.7870   25.1300 C   0  0  1  0  0  0  0  0  0  0  0  0
  -25.3590  -31.5490   26.2010 C   0  0  0  0  0  1  0  0  0  0  0  0
  -27.0390  -30.4110   24.7450 C   0  0  0  0  0  1  0  0  0  0  0  0
  -27.5960  -32.5920   25.7860 C   0  0  0  0  0  1  0  0  0  0  0  0
  -25.6060  -33.9510   24.1860 N   0  0  0  0  0  0  0  0  0  0  0  0
  -25.9280  -35.0080   23.4300 C   0  0  0  0  0  0  0  0  0  0  0  0
  -26.5930  -34.9120   22.3960 O   0  0  0  0  0  0  0  0  0  0  0  0
  -25.0100  -34.0990   24.9890 H   0  0  0  0  0  0  0  0  0  0  0  0
  -24.1830  -36.7880   23.0980 C   0  0  0  0  0  1  0  0  0  0  0  0
  -25.4360  -36.3920   23.8960 C   0  0  0  0  0  3  0  0  0  0  0  0
  -27.5720  -37.2890   24.7060 C   0  0  0  0  0  1  0  0  0  0  0  0
  -26.4580  -37.4530   23.7740 N   0  0  0  0  0  0  0  0  0  0  0  0
  -26.0490  -38.3700   23.9310 H   0  0  0  0  0  0  0  0  0  0  0  0
  -29.4870  -19.9930   19.9590 O   0  0  0  0  0  0  0  0  0  0  0  0
  -29.3570  -18.6400   20.6060 C   0  0  0  0  0  3  0  0  0  0  0  0
  -30.2440  -17.3980   20.0600 C   0  0  0  0  0  3  0  0  0  0  0  0
  -30.6610  -14.8140   20.2090 C   0  0  0  0  0  0  0  0  0  0  0  0
  -30.4290  -12.5450   19.1890 C   0  0  0  0  0  2  0  0  0  0  0  0
  -29.4690  -12.6170   17.9820 C   0  0  0  0  0  2  0  0  0  0  0  0
  -28.0000  -12.4800   18.4360 C   0  0  0  0  0  2  0  0  0  0  0  0
  -27.6580  -13.3670   19.6630 C   0  0  0  0  0  3  0  0  0  0  0  0
  -28.7370  -13.2640   20.7650 C   0  0  0  0  0  2  0  0  0  0  0  0
  -30.0250  -13.5980   20.1530 N   0  0  0  0  0  0  0  0  0  0  0  0
  -31.8390  -14.9110   19.8590 O   0  0  0  0  0  0  0  0  0  0  0  0
  -29.8960  -15.9520   20.4260 N   0  0  0  0  0  0  0  0  0  0  0  0
  -28.9440  -15.7870   20.7170 H   0  0  0  0  0  0  0  0  0  0  0  0
  -25.2700  -13.9520   20.4120 C   0  0  0  0  0  0  0  0  0  0  0  0
  -24.2060  -13.1780   20.7930 C   0  0  0  0  0  0  0  0  0  0  0  0
  -24.6750  -11.8280   20.7730 C   0  0  0  0  0  0  0  0  0  0  0  0
  -26.3180  -13.0800   20.1750 N   0  0  0  0  0  0  0  0  0  0  0  0
  -25.9650  -11.7990   20.4570 N   0  0  0  0  0  0  0  0  0  0  0  0
  -23.9560  -10.5650   20.9750 C   0  0  0  0  0  0  0  0  0  0  0  0
  -24.4010   -9.5990   21.9050 C   0  0  0  0  0  3  0  0  0  0  0  0
  -23.6780   -8.3990   22.0940 C   0  0  0  0  0  3  0  0  0  0  0  0
  -22.4970   -8.1570   21.3570 C   0  0  0  0  0  0  0  0  0  0  0  0
  -22.0690   -9.1090   20.4160 C   0  0  0  0  0  3  0  0  0  0  0  0
  -22.7920  -10.3010   20.2240 C   0  0  0  0  0  3  0  0  0  0  0  0
  -21.7390   -7.0150   21.4650 O   0  0  0  0  0  0  0  0  0  0  0  0
  -21.7140   -6.2730   22.6200 C   0  0  0  0  0  0  0  0  0  0  0  0
  -21.3170   -6.8300   23.8570 C   0  0  0  0  0  3  0  0  0  0  0  0
  -21.2450   -6.0160   25.0060 C   0  0  0  0  0  3  0  0  0  0  0  0
  -21.5500   -4.6460   24.9190 C   0  0  0  0  0  0  0  0  0  0  0  0
  -21.9360   -4.0860   23.6870 C   0  0  0  0  0  3  0  0  0  0  0  0
  -22.0140   -4.8980   22.5400 C   0  0  0  0  0  0  0  0  0  0  0  0
  -22.3660   -4.3520   21.3520 F   0  0  0  0  0  0  0  0  0  0  0  0
  -21.4700   -3.8580   26.0170 F   0  0  0  0  0  0  0  0  0  0  0  0
  -22.8110  -13.6530   21.0720 C   0  0  0  0  0  0  0  0  0  0  0  0
  -22.0880  -12.9600   21.9490 N   0  0  0  0  0  0  0  0  0  0  0  0
  -22.3670  -14.6730   20.5450 O   0  0  0  0  0  0  0  0  0  0  0  0
  -22.4490  -12.1290   22.3990 H   0  0  0  0  0  0  0  0  0  0  0  0
  -21.1520  -13.2620   22.1760 H   0  0  0  0  0  0  0  0  0  0  0  0
  -25.4270  -15.3220   20.2270 N   0  0  0  0  0  0  0  0  0  0  0  0
  -26.3020  -15.7770   20.0080 H   0  0  0  0  0  0  0  0  0  0  0  0
  -24.6630  -15.9800   20.3570 H   0  0  0  0  0  0  0  0  0  0  0  0
  2  1  2  0
  3  1  1  0
  4  5  2  0
  4  6  1  0
  5  2  1  0
  6  3  2  0
  7  9  1  0
  7  5  1  0
  8  7  2  0
 10 21  2  0
 11  9  1  0
 11 16  1  0
 12 20  1  0
 12 22  1  0
 13 19  1  0
 13 15  1  0
 14 20  1  0
 15 14  1  0
 16 15  2  0
 17 18  1  0
 17 11  2  0
 18 13  2  0
 19 12  1  0
 20 10  1  0
 22 24  2  0
 23 22  1  0
 25 23  1  0
 26 35  2  0
 26 31  1  0
 27 23  1  0
 27 31  1  0
 28 27  1  0
 29 30  1  0
 29 28  1  0
 30 26  1  0
 31 32  2  0
 32 33  1  0
 34 33  2  0
 35 34  1  0
 36 10  1  0
 36 41  1  0
 36 37  1  0
 37 40  1  1
 37 38  1  0
 39 37  1  0
 41 44  1  0
 42 46  1  0
 42 41  1  0
 43 42  2  0
 46 45  1  0
 48 46  1  0
 48 49  1  0
 48 47  1  0
 50  6  1  0
 50 51  1  0
 52 61  1  0
 52 51  2  0
 53 61  1  0
 54 59  1  0
 55 56  1  0
 55 54  1  0
 57 56  1  0
 57 66  1  0
 57 58  1  0
 59 53  1  0
 59 58  1  0
 60 53  2  0
 61 62  1  0
 63 64  2  0
 64 83  1  0
 65 64  1  0
 65 68  1  0
 66 63  1  0
 66 67  1  0
 67 65  2  0
 68 69  1  0
 69 70  2  0
 71 74  1  0
 71 70  1  0
 72 71  2  0
 73 72  1  0
 73 68  2  0
 74 75  1  0
 75 76  1  0
 76 77  2  0
 78 77  1  0
 78 82  1  0
 79 78  2  0
 80 75  2  0
 80 79  1  0
 81 80  1  0
 83 84  1  0
 84 87  1  0
 84 86  1  0
 85 83  2  0
 88 90  1  0
 88 63  1  0
 89 88  1  0
M  ISO  4   7 101   9 101  53 100  61 100
M  END
>  <TORSDO>  (55) 
F 20

>  <SCORE>  (55) 
-13.571

>  <name>  (55) 
54

>  <ligand_id>  (55) 
54

>  <original_smiles>  (55) 
[H]c1c([H])c(OC([H])([H])C([H])([H])N([H])C(=O)N2C([H])([H])C([H])([H])C([H])([H])C([H])(n3nc(-c4c([H])c([H])c(Oc5c([H])c([H])c(F)c([H])c5F)c([H])c4[H])c(C(=O)N([H])[H])c3N([H])[H])C2([H])[H])c([H])c(C(=O)Oc2c([H])c([H])c3c(c2[H])C([H])([H])N(C(=O)C([H])(N([H])C(=O)C([H])(N([H])C([H])([H])[H])C([H])([H])[H])C(C([H])([H])[H])(C([H])([H])[H])C([H])([H])[H])C([H])(C(=O)N([H])C2([H])c4c([H])c([H])c([H])c([H])c4C([H])([H])C([H])([H])C2([H])[H])C3([H])[H])c1[H]

>  <smiles>  (55) 
[H]c1c([H])c(OC([H])([H])C([H])([H])N([H])C(=O)N2C([H])([H])C([H])([H])C([H])([H])C([H])(n3nc(-c4c([H])c([H])c(Oc5c([H])c([H])c(F)c([H])c5F)c([H])c4[H])c(C(=O)N([H])[H])c3N([H])[H])C2([H])[H])c([H])c(C(=O)Oc2c([H])c([H])c3c(c2[H])C([H])([H])N(C(=O)C([H])(N([H])C(=O)C([H])(N([H])C([H])([H])[H])C([H])([H])[H])C(C([H])([H])[H])(C([H])([H])[H])C([H])([H])[H])C([H])(C(=O)N([H])C2([H])c4c([H])c([H])c([H])c([H])c4C([H])([H])C([H])([H])C2([H])[H])C3([H])[H])c1[H]

$$$$
55:0:0
     RDKit          3D

108117  0  0  1  0  0  0  0  0999 V2000
  -26.7250  -24.4820   22.3750 C   0  0  0  0  0  2  0  0  0  0  0  0
  -28.6210  -23.1260   21.4890 C   0  0  0  0  0  0  0  0  0  0  0  0
  -27.3140  -23.3990   21.5900 N   0  0  0  0  0  0  0  0  0  0  0  0
  -29.4940  -23.7160   22.1280 O   0  0  0  0  0  0  0  0  0  0  0  0
  -26.6880  -22.8390   21.0300 H   0  0  0  0  0  0  0  0  0  0  0  0
  -29.5800  -21.3850   18.2450 C   0  0  0  0  0  3  0  0  0  0  0  0
  -30.0930  -19.0870   17.6800 C   0  0  0  0  0  3  0  0  0  0  0  0
  -29.2250  -22.3610   19.1880 C   0  0  0  0  0  3  0  0  0  0  0  0
  -30.2350  -17.7380   18.0410 C   0  0  0  0  0  3  0  0  0  0  0  0
  -29.6350  -18.2960   20.3320 C   0  0  0  0  0  3  0  0  0  0  0  0
  -29.7160  -20.0450   18.6400 C   0  0  0  0  0  0  0  0  0  0  0  0
  -29.4720  -19.6620   19.9830 C   0  0  0  0  0  0  0  0  0  0  0  0
  -28.9640  -22.0130   20.5310 C   0  0  0  0  0  0  0  0  0  0  0  0
  -29.0660  -20.6450   20.9350 C   0  0  0  0  0  0  0  0  0  0  0  0
  -30.0110  -17.3270   19.3770 C   0  0  0  0  0  0  0  0  0  0  0  0
  -28.7180  -20.2030   22.3570 C   0  0  0  0  0  1  0  0  0  0  0  0
  -30.7940  -14.9520   19.2850 C   0  0  0  0  0  0  0  0  0  0  0  0
  -30.6150  -12.5890   18.6230 C   0  0  0  0  0  2  0  0  0  0  0  0
  -29.5610  -12.4720   17.5040 C   0  0  0  0  0  2  0  0  0  0  0  0
  -28.1460  -12.3180   18.0970 C   0  0  0  0  0  2  0  0  0  0  0  0
  -27.8360  -13.3640   19.2010 C   0  0  0  0  0  3  0  0  0  0  0  0
  -28.9970  -13.4460   20.2170 C   0  0  0  0  0  2  0  0  0  0  0  0
  -30.2400  -13.7260   19.4750 N   0  0  0  0  0  0  0  0  0  0  0  0
  -31.8270  -15.1210   18.6310 O   0  0  0  0  0  0  0  0  0  0  0  0
  -30.0910  -15.9690   19.8110 N   0  0  0  0  0  0  0  0  0  0  0  0
  -29.3740  -15.6780   20.4570 H   0  0  0  0  0  0  0  0  0  0  0  0
  -25.5960  -13.9770   20.3160 C   0  0  0  0  0  0  0  0  0  0  0  0
  -24.5690  -13.2040   20.7890 C   0  0  0  0  0  0  0  0  0  0  0  0
  -24.9700  -11.8470   20.5850 C   0  0  0  0  0  0  0  0  0  0  0  0
  -26.5600  -13.0900   19.8590 N   0  0  0  0  0  0  0  0  0  0  0  0
  -26.1940  -11.8010   20.0750 N   0  0  0  0  0  0  0  0  0  0  0  0
  -24.2360  -10.5920   20.7930 C   0  0  0  0  0  0  0  0  0  0  0  0
  -24.6700   -9.6310   21.7330 C   0  0  0  0  0  3  0  0  0  0  0  0
  -23.9390   -8.4390   21.9280 C   0  0  0  0  0  3  0  0  0  0  0  0
  -22.7580   -8.2010   21.1840 C   0  0  0  0  0  0  0  0  0  0  0  0
  -22.3420   -9.1520   20.2360 C   0  0  0  0  0  3  0  0  0  0  0  0
  -23.0750  -10.3350   20.0390 C   0  0  0  0  0  3  0  0  0  0  0  0
  -22.0000   -7.0600   21.2870 O   0  0  0  0  0  0  0  0  0  0  0  0
  -21.8060   -6.4310   22.4910 C   0  0  0  0  0  0  0  0  0  0  0  0
  -21.2400   -7.1000   23.5990 C   0  0  0  0  0  3  0  0  0  0  0  0
  -20.9920   -6.3970   24.7940 C   0  0  0  0  0  3  0  0  0  0  0  0
  -21.3000   -5.0260   24.8840 C   0  0  0  0  0  0  0  0  0  0  0  0
  -21.8590   -4.3570   23.7810 C   0  0  0  0  0  3  0  0  0  0  0  0
  -22.1080   -5.0580   22.5880 C   0  0  0  0  0  0  0  0  0  0  0  0
  -22.6260   -4.4030   21.5200 F   0  0  0  0  0  0  0  0  0  0  0  0
  -21.0560   -4.3480   26.0300 F   0  0  0  0  0  0  0  0  0  0  0  0
  -23.2490  -13.6920   21.3120 C   0  0  0  0  0  0  0  0  0  0  0  0
  -22.6600  -12.9730   22.2620 N   0  0  0  0  0  0  0  0  0  0  0  0
  -22.7520  -14.7460   20.9170 O   0  0  0  0  0  0  0  0  0  0  0  0
  -23.0760  -12.1190   22.6050 H   0  0  0  0  0  0  0  0  0  0  0  0
  -21.7820  -13.2820   22.6530 H   0  0  0  0  0  0  0  0  0  0  0  0
  -25.7840  -15.3540   20.2180 N   0  0  0  0  0  0  0  0  0  0  0  0
  -25.0690  -16.0190   20.4930 H   0  0  0  0  0  0  0  0  0  0  0  0
  -26.5940  -15.7920   19.7990 H   0  0  0  0  0  0  0  0  0  0  0  0
  -26.9130  -25.8320   21.6690 C   0  0  0  0  0  2  0  0  0  0  0  0
  -28.2960  -26.0340   21.4250 O   0  0  0  0  0  0  0  0  0  0  0  0
  -28.5620  -27.1840   20.6330 C   0  0  0  0  0  2  0  0  0  0  0  0
  -30.0420  -27.1550   20.2330 C   0  0  0  0  0  2  0  0  0  0  0  0
  -30.1890  -26.1370   19.2560 O   0  0  0  0  0  0  0  0  0  0  0  0
  -31.5250  -25.9380   18.8190 C   0  0  0  0  0  2  0  0  0  0  0  0
  -31.4650  -24.9890   17.6190 C   0  0  0  0  0  2  0  0  0  0  0  0
  -30.8650  -25.6990   16.5440 O   0  0  0  0  0  0  0  0  0  0  0  0
  -30.5750  -24.8890   15.4160 C   0  0  0  0  0  2  0  0  0  0  0  0
  -29.4030  -25.5290   14.6620 C   0  0  0  0  0  2  0  0  0  0  0  0
  -28.2740  -25.5960   15.5310 O   0  0  0  0  0  0  0  0  0  0  0  0
  -27.2930  -26.5150   15.0710 C   0  0  0  0  0  2  0  0  0  0  0  0
  -26.1530  -26.6670   16.0900 C   0  0  0  0  0  2  0  0  0  0  0  0
  -26.6640  -27.1940   17.3160 O   0  0  0  0  0  0  0  0  0  0  0  0
  -25.7850  -30.4690   23.5690 C   0  0  0  0  0  0  0  0  0  0  0  0
  -25.8200  -27.9510   18.1030 C   0  0  0  0  0  0  0  0  0  0  0  0
  -23.7880  -30.3980   22.1100 C   0  0  0  0  0  3  0  0  0  0  0  0
  -24.1900  -29.6000   19.7230 C   0  0  0  0  0  0  0  0  0  0  0  0
  -26.1390  -30.3330   21.1080 C   0  0  0  0  0  2  0  0  0  0  0  0
  -25.5650  -29.5140   19.9700 C   0  0  0  0  0  0  0  0  0  0  0  0
  -26.3800  -28.6870   19.1690 C   0  0  0  0  0  3  0  0  0  0  0  0
  -24.4230  -28.0260   17.8840 C   0  0  0  0  0  3  0  0  0  0  0  0
  -23.6100  -28.8480   18.6860 C   0  0  0  0  0  3  0  0  0  0  0  0
  -23.3890  -30.5200   20.6150 C   0  0  0  0  0  2  0  0  0  0  0  0
  -25.2730  -30.3780   22.3080 N   0  0  0  0  0  0  0  0  0  0  0  0
  -25.0450  -30.6120   24.5520 O   0  0  0  0  0  0  0  0  0  0  0  0
  -23.0740  -29.1650   22.7080 C   0  0  0  0  0  0  0  0  0  0  0  0
  -21.7340  -29.1560   22.6320 N   0  0  0  0  0  0  0  0  0  0  0  0
  -23.7210  -28.2360   23.1990 O   0  0  0  0  0  0  0  0  0  0  0  0
  -21.2780  -29.9600   22.2220 H   0  0  0  0  0  0  0  0  0  0  0  0
  -18.3530  -27.8960   22.4680 C   0  0  0  0  0  0  0  0  0  0  0  0
  -20.8530  -28.0850   23.0940 C   0  0  0  0  0  3  0  0  0  0  0  0
  -21.0540  -26.8000   22.2580 C   0  0  0  0  0  2  0  0  0  0  0  0
  -20.0890  -26.6920   21.0740 C   0  0  0  0  0  2  0  0  0  0  0  0
  -18.6370  -26.7110   21.5620 C   0  0  0  0  0  2  0  0  0  0  0  0
  -19.3960  -28.5520   23.1750 C   0  0  0  0  0  0  0  0  0  0  0  0
  -19.0820  -29.6710   23.9760 C   0  0  0  0  0  3  0  0  0  0  0  0
  -17.7570  -30.1350   24.0780 C   0  0  0  0  0  3  0  0  0  0  0  0
  -16.7270  -29.4720   23.3890 C   0  0  0  0  0  3  0  0  0  0  0  0
  -17.0240  -28.3540   22.5910 C   0  0  0  0  0  3  0  0  0  0  0  0
  -27.3230  -30.4250   23.8320 C   0  0  0  0  0  3  0  0  0  0  0  0
  -27.6660  -31.5980   24.6470 N   0  0  0  0  0  0  0  0  0  0  0  0
  -28.2480  -32.7070   24.1740 C   0  0  0  0  0  0  0  0  0  0  0  0
  -28.6210  -32.8210   23.0030 O   0  0  0  0  0  0  0  0  0  0  0  0
  -27.3390  -31.5960   25.6020 H   0  0  0  0  0  0  0  0  0  0  0  0
  -27.3580  -34.9380   24.9180 C   0  0  0  0  0  1  0  0  0  0  0  0
  -28.4450  -33.8780   25.1540 C   0  0  0  0  0  3  0  0  0  0  0  0
  -30.8600  -33.6420   25.5290 C   0  0  0  0  0  1  0  0  0  0  0  0
  -29.7810  -34.5070   25.0590 N   0  0  0  0  0  0  0  0  0  0  0  0
  -29.8120  -35.3700   25.5950 H   0  0  0  0  0  0  0  0  0  0  0  0
  -27.7940  -29.0940   24.5390 C   0  0  1  0  0  0  0  0  0  0  0  0
  -27.0210  -28.7750   25.8390 C   0  0  0  0  0  1  0  0  0  0  0  0
  -27.6400  -27.8850   23.5880 C   0  0  0  0  0  1  0  0  0  0  0  0
  -29.2980  -29.1920   24.8900 C   0  0  0  0  0  1  0  0  0  0  0  0
  2  3  1  0
  2  4  2  0
  3  1  1  0
  5  3  1  0
  6 11  2  0
  6  8  1  0
  7  9  2  0
  7 11  1  0
  8 13  2  0
  9 15  1  0
 11 12  1  0
 12 10  1  0
 12 14  2  0
 13 14  1  0
 13  2  1  0
 14 16  1  0
 15 25  1  0
 15 10  2  0
 17 23  1  0
 17 25  1  0
 18 23  1  0
 19 20  1  0
 19 18  1  0
 21 20  1  0
 21 30  1  0
 21 22  1  0
 23 22  1  0
 24 17  2  0
 25 26  1  0
 27 28  2  0
 28 47  1  0
 29 28  1  0
 29 32  1  0
 30 31  1  0
 30 27  1  0
 31 29  2  0
 32 33  1  0
 33 34  2  0
 35 38  1  0
 35 34  1  0
 36 35  2  0
 37 36  1  0
 37 32  2  0
 38 39  1  0
 39 44  2  0
 39 40  1  0
 40 41  2  0
 41 42  1  0
 42 46  1  0
 43 42  2  0
 44 43  1  0
 45 44  1  0
 47 48  1  0
 48 50  1  0
 48 51  1  0
 49 47  2  0
 52 27  1  0
 52 53  1  0
 54 52  1  0
 55  1  1  0
 56 55  1  0
 57 56  1  0
 58 57  1  0
 59 58  1  0
 60 59  1  0
 61 60  1  0
 62 61  1  0
 63 62  1  0
 64 63  1  0
 64 65  1  0
 66 65  1  0
 66 67  1  0
 67 68  1  0
 68 70  1  0
 69 80  2  0
 70 75  1  0
 71 79  1  0
 71 81  1  0
 72 74  1  0
 72 78  1  0
 73 79  1  0
 74 73  1  0
 75 74  2  0
 76 70  2  0
 76 77  1  0
 77 72  2  0
 78 71  1  0
 79 69  1  0
 81 83  2  0
 82 81  1  0
 84 82  1  0
 85 94  2  0
 85 90  1  0
 86 82  1  0
 86 90  1  0
 87 86  1  0
 88 89  1  0
 88 87  1  0
 89 85  1  0
 90 91  2  0
 91 92  1  0
 93 92  2  0
 94 93  1  0
 95 69  1  0
 95105  1  0
 95 96  1  0
 96 99  1  0
 97 96  1  0
 97101  1  0
 98 97  2  0
101100  1  0
103101  1  0
103102  1  0
103104  1  0
105108  1  1
105106  1  0
107105  1  0
M  ISO  4  17 100  25 100  67 101  68 101
M  END
>  <TORSDO>  (56) 
F 31

>  <SCORE>  (56) 
-7.480

>  <name>  (56) 
55

>  <ligand_id>  (56) 
55

>  <original_smiles>  (56) 
[H]c1c([H])c([H])c2c(c1[H])C([H])([H])C([H])([H])C([H])([H])C2([H])N([H])C(=O)C1([H])N(C(=O)C([H])(N([H])C(=O)C([H])(N([H])C([H])([H])[H])C([H])([H])[H])C(C([H])([H])[H])(C([H])([H])[H])C([H])([H])[H])C([H])([H])c2c([H])c(OC([H])([H])C([H])([H])OC([H])([H])C([H])([H])OC([H])([H])C([H])([H])OC([H])([H])C([H])([H])OC([H])([H])C([H])([H])N([H])C(=O)c3c([H])c([H])c4c([H])c([H])c(N([H])C(=O)N5C([H])([H])C([H])([H])C([H])([H])C([H])(n6nc(-c7c([H])c([H])c(Oc8c([H])c([H])c(F)c([H])c8F)c([H])c7[H])c(C(=O)N([H])[H])c6N([H])[H])C5([H])[H])c([H])c4c3C([H])([H])[H])c([H])c([H])c2C1([H])[H]

>  <smiles>  (56) 
[H]c1c([H])c([H])c2c(c1[H])C([H])([H])C([H])([H])C([H])([H])C2([H])N([H])C(=O)C1([H])N(C(=O)C([H])(N([H])C(=O)C([H])(N([H])C([H])([H])[H])C([H])([H])[H])C(C([H])([H])[H])(C([H])([H])[H])C([H])([H])[H])C([H])([H])c2c([H])c(OC([H])([H])C([H])([H])OC([H])([H])C([H])([H])OC([H])([H])C([H])([H])OC([H])([H])C([H])([H])OC([H])([H])C([H])([H])N([H])C(=O)c3c([H])c([H])c4c([H])c([H])c(N([H])C(=O)N5C([H])([H])C([H])([H])C([H])([H])C([H])(n6nc(-c7c([H])c([H])c(Oc8c([H])c([H])c(F)c([H])c8F)c([H])c7[H])c(C(=O)N([H])[H])c6N([H])[H])C5([H])[H])c([H])c4c3C([H])([H])[H])c([H])c([H])c2C1([H])[H]

$$$$
56:0:0
     RDKit          3D

104111  0  0  1  0  0  0  0  0999 V2000
  -26.7940  -19.9620   19.4180 C   0  0  0  0  0  0  0  0  0  0  0  0
  -27.7200  -20.5740   18.6670 N   0  0  0  0  0  0  0  0  0  0  0  0
  -26.9720  -19.6730   20.6020 O   0  0  0  0  0  0  0  0  0  0  0  0
  -27.4920  -20.7210   17.6920 H   0  0  0  0  0  0  0  0  0  0  0  0
  -28.9250  -21.2420   19.1560 C   0  0  0  0  0  2  0  0  0  0  0  0
  -30.1110  -20.2990   19.3920 C   0  0  0  0  0  2  0  0  0  0  0  0
  -31.4520  -21.0460   19.4790 C   0  0  0  0  0  2  0  0  0  0  0  0
  -32.6930  -20.1420   19.6320 C   0  0  0  0  0  2  0  0  0  0  0  0
  -33.1680  -19.8380   21.0830 C   0  0  0  0  0  2  0  0  0  0  0  0
  -32.4780  -18.6730   21.8070 C   0  0  0  0  0  0  0  0  0  0  0  0
  -32.1250  -17.6270   21.0570 N   0  0  0  0  0  0  0  0  0  0  0  0
  -32.2990  -18.7160   23.0250 O   0  0  0  0  0  0  0  0  0  0  0  0
  -32.2870  -17.7280   20.0640 H   0  0  0  0  0  0  0  0  0  0  0  0
  -31.5080  -16.3770   21.4790 C   0  0  0  0  0  2  0  0  0  0  0  0
  -32.3100  -15.2270   20.8610 C   0  0  0  0  0  2  0  0  0  0  0  0
  -31.5800  -14.0100   20.8810 O   0  0  0  0  0  0  0  0  0  0  0  0
  -31.9420  -13.0210   20.0410 C   0  0  0  0  0  0  0  0  0  0  0  0
  -31.2310  -10.7730   19.2600 C   0  0  0  0  0  2  0  0  0  0  0  0
  -30.2230  -10.8770   18.1050 C   0  0  0  0  0  2  0  0  0  0  0  0
  -28.7890  -11.0050   18.6500 C   0  0  0  0  0  2  0  0  0  0  0  0
  -28.6560  -12.1220   19.7240 C   0  0  0  0  0  3  0  0  0  0  0  0
  -29.7520  -11.9720   20.8020 C   0  0  0  0  0  2  0  0  0  0  0  0
  -31.0520  -11.9460   20.1170 N   0  0  0  0  0  0  0  0  0  0  0  0
  -32.9410  -13.0690   19.3170 O   0  0  0  0  0  0  0  0  0  0  0  0
  -26.5680  -13.2030   20.7760 C   0  0  0  0  0  0  0  0  0  0  0  0
  -25.3730  -12.6780   21.1770 C   0  0  0  0  0  0  0  0  0  0  0  0
  -25.4570  -11.2720   20.9340 C   0  0  0  0  0  0  0  0  0  0  0  0
  -27.3230  -12.1340   20.3210 N   0  0  0  0  0  0  0  0  0  0  0  0
  -26.6580  -10.9590   20.4670 N   0  0  0  0  0  0  0  0  0  0  0  0
  -24.4460  -10.2160   21.0560 C   0  0  0  0  0  0  0  0  0  0  0  0
  -24.6590   -9.0830   21.8730 C   0  0  0  0  0  3  0  0  0  0  0  0
  -23.6630   -8.0910   21.9950 C   0  0  0  0  0  3  0  0  0  0  0  0
  -22.4370   -8.2280   21.3010 C   0  0  0  0  0  0  0  0  0  0  0  0
  -22.2410   -9.3470   20.4720 C   0  0  0  0  0  3  0  0  0  0  0  0
  -23.2350  -10.3290   20.3460 C   0  0  0  0  0  3  0  0  0  0  0  0
  -21.4220   -7.3040   21.3390 O   0  0  0  0  0  0  0  0  0  0  0  0
  -21.2110   -6.5080   22.4390 C   0  0  0  0  0  0  0  0  0  0  0  0
  -20.9120   -7.0530   23.7060 C   0  0  0  0  0  3  0  0  0  0  0  0
  -20.6340   -6.1990   24.7910 C   0  0  0  0  0  3  0  0  0  0  0  0
  -20.6460   -4.8040   24.6120 C   0  0  0  0  0  0  0  0  0  0  0  0
  -20.9450   -4.2580   23.3490 C   0  0  0  0  0  3  0  0  0  0  0  0
  -21.2240   -5.1090   22.2650 C   0  0  0  0  0  0  0  0  0  0  0  0
  -21.4870   -4.5790   21.0460 F   0  0  0  0  0  0  0  0  0  0  0  0
  -20.3740   -3.9830   25.6520 F   0  0  0  0  0  0  0  0  0  0  0  0
  -24.1780  -13.4440   21.6710 C   0  0  0  0  0  0  0  0  0  0  0  0
  -23.3840  -12.8460   22.5490 N   0  0  0  0  0  0  0  0  0  0  0  0
  -23.9720  -14.6040   21.3130 O   0  0  0  0  0  0  0  0  0  0  0  0
  -23.5620  -11.9020   22.8620 H   0  0  0  0  0  0  0  0  0  0  0  0
  -22.5800  -13.3350   22.9150 H   0  0  0  0  0  0  0  0  0  0  0  0
  -27.0690  -14.5020   20.7370 N   0  0  0  0  0  0  0  0  0  0  0  0
  -26.4930  -15.2980   20.9840 H   0  0  0  0  0  0  0  0  0  0  0  0
  -27.9780  -14.7580   20.3760 H   0  0  0  0  0  0  0  0  0  0  0  0
  -25.4480  -19.6850   18.7410 C   0  0  0  0  0  2  0  0  0  0  0  0
  -24.2370  -20.2880   19.4850 C   0  0  0  0  0  2  0  0  0  0  0  0
  -24.4690  -21.6320   19.9020 O   0  0  0  0  0  0  0  0  0  0  0  0
  -24.3490  -22.6050   18.8750 C   0  0  0  0  0  2  0  0  0  0  0  0
  -24.4070  -24.0040   19.5140 C   0  0  0  0  0  2  0  0  0  0  0  0
  -25.7100  -24.5700   19.4400 O   0  0  0  0  0  0  0  0  0  0  0  0
  -26.7080  -24.0210   20.3010 C   0  0  0  0  0  2  0  0  0  0  0  0
  -28.0060  -24.7050   19.8530 C   0  0  0  0  0  2  0  0  0  0  0  0
  -29.1960  -24.4130   20.6070 O   0  0  0  0  0  0  0  0  0  0  0  0
  -30.0750  -25.5300   20.4680 C   0  0  0  0  0  2  0  0  0  0  0  0
  -31.3920  -25.6370   21.2950 C   0  0  0  0  0  2  0  0  0  0  0  0
  -31.7700  -27.0140   21.5810 O   0  0  0  0  0  0  0  0  0  0  0  0
  -26.2480  -27.9870   25.8770 C   0  0  0  0  0  0  0  0  0  0  0  0
  -30.6710  -27.7960   21.8280 C   0  0  0  0  0  0  0  0  0  0  0  0
  -25.9910  -28.8120   23.5630 C   0  0  0  0  0  3  0  0  0  0  0  0
  -28.1450  -28.9820   22.1980 C   0  0  0  0  0  0  0  0  0  0  0  0
  -28.2880  -28.7490   24.6790 C   0  0  0  0  0  2  0  0  0  0  0  0
  -28.8860  -28.5480   23.3060 C   0  0  0  0  0  0  0  0  0  0  0  0
  -30.1440  -27.9360   23.1290 C   0  0  0  0  0  3  0  0  0  0  0  0
  -29.9660  -28.3390   20.7300 C   0  0  0  0  0  3  0  0  0  0  0  0
  -28.6830  -28.8830   20.9030 C   0  0  0  0  0  3  0  0  0  0  0  0
  -26.7840  -29.5800   22.4720 C   0  0  0  0  0  2  0  0  0  0  0  0
  -26.8370  -28.4680   24.7480 N   0  0  0  0  0  0  0  0  0  0  0  0
  -25.0190  -27.8580   25.9550 O   0  0  0  0  0  0  0  0  0  0  0  0
  -25.3180  -27.5810   22.9150 C   0  0  0  0  0  0  0  0  0  0  0  0
  -24.1910  -27.8100   22.2240 N   0  0  0  0  0  0  0  0  0  0  0  0
  -25.8180  -26.4580   23.0200 O   0  0  0  0  0  0  0  0  0  0  0  0
  -23.8370  -28.7560   22.1960 H   0  0  0  0  0  0  0  0  0  0  0  0
  -21.1700  -27.3200   20.3080 C   0  0  0  0  0  0  0  0  0  0  0  0
  -23.4040  -26.8080   21.5050 C   0  0  0  0  0  3  0  0  0  0  0  0
  -23.9850  -26.5550   20.0950 C   0  0  0  0  0  2  0  0  0  0  0  0
  -23.3410  -27.4290   19.0140 C   0  0  0  0  0  2  0  0  0  0  0  0
  -21.8330  -27.1800   18.9480 C   0  0  0  0  0  2  0  0  0  0  0  0
  -21.9110  -27.1620   21.5090 C   0  0  0  0  0  0  0  0  0  0  0  0
  -21.2570  -27.3450   22.7470 C   0  0  0  0  0  3  0  0  0  0  0  0
  -19.8880  -27.6690   22.7970 C   0  0  0  0  0  3  0  0  0  0  0  0
  -19.1550  -27.8080   21.6050 C   0  0  0  0  0  3  0  0  0  0  0  0
  -19.7940  -27.6310   20.3650 C   0  0  0  0  0  3  0  0  0  0  0  0
  -27.0880  -27.5930   27.1330 C   0  0  0  0  0  3  0  0  0  0  0  0
  -26.7960  -26.1270   27.6400 C   0  0  1  0  0  0  0  0  0  0  0  0
  -25.2930  -25.8390   27.8560 C   0  0  0  0  0  1  0  0  0  0  0  0
  -27.3400  -25.0850   26.6370 C   0  0  0  0  0  1  0  0  0  0  0  0
  -27.5350  -25.8790   28.9760 C   0  0  0  0  0  1  0  0  0  0  0  0
  -26.8040  -28.5760   28.1850 N   0  0  0  0  0  0  0  0  0  0  0  0
  -27.6380  -29.5610   28.5490 C   0  0  0  0  0  0  0  0  0  0  0  0
  -28.7710  -29.6870   28.0770 O   0  0  0  0  0  0  0  0  0  0  0  0
  -25.8720  -28.5670   28.5760 H   0  0  0  0  0  0  0  0  0  0  0  0
  -26.7350  -31.8780   28.9100 C   0  0  0  0  0  1  0  0  0  0  0  0
  -27.1330  -30.5640   29.6000 C   0  0  0  0  0  3  0  0  0  0  0  0
  -28.3580  -29.6920   31.5420 C   0  0  0  0  0  1  0  0  0  0  0  0
  -28.1180  -30.8390   30.6700 N   0  0  0  0  0  0  0  0  0  0  0  0
  -27.8150  -31.6170   31.2490 H   0  0  0  0  0  0  0  0  0  0  0  0
  1  3  2  0
  2  5  1  0
  2  1  1  0
  4  2  1  0
  5  6  1  0
  6  7  1  0
  7  8  1  0
  8  9  1  0
  9 10  1  0
 10 12  2  0
 11 14  1  0
 11 10  1  0
 13 11  1  0
 15 16  1  0
 15 14  1  0
 17 23  1  0
 17 16  1  0
 18 23  1  0
 19 20  1  0
 19 18  1  0
 21 20  1  0
 21 28  1  0
 21 22  1  0
 23 22  1  0
 24 17  2  0
 25 26  2  0
 26 45  1  0
 27 30  1  0
 27 26  1  0
 28 29  1  0
 28 25  1  0
 29 27  2  0
 30 31  1  0
 31 32  2  0
 33 36  1  0
 33 32  1  0
 34 33  2  0
 35 34  1  0
 35 30  2  0
 36 37  1  0
 37 38  1  0
 38 39  2  0
 40 39  1  0
 40 44  1  0
 41 40  2  0
 42 37  2  0
 42 41  1  0
 43 42  1  0
 45 46  1  0
 46 48  1  0
 46 49  1  0
 47 45  2  0
 50 25  1  0
 50 51  1  0
 52 50  1  0
 53  1  1  0
 53 54  1  0
 54 55  1  0
 56 57  1  0
 56 55  1  0
 58 57  1  0
 58 59  1  0
 60 59  1  0
 60 61  1  0
 62 61  1  0
 62 63  1  0
 63 64  1  0
 64 66  1  0
 65 76  2  0
 66 71  1  0
 67 77  1  0
 67 75  1  0
 68 74  1  0
 68 70  1  0
 69 75  1  0
 70 69  1  0
 71 70  2  0
 72 73  1  0
 72 66  2  0
 73 68  2  0
 74 67  1  0
 75 65  1  0
 77 79  2  0
 78 77  1  0
 80 78  1  0
 81 90  2  0
 81 86  1  0
 82 86  1  0
 82 78  1  0
 83 82  1  0
 84 83  1  0
 85 84  1  0
 85 81  1  0
 86 87  2  0
 87 88  1  0
 89 88  2  0
 90 89  1  0
 91 65  1  0
 91 92  1  0
 91 96  1  0
 92 93  1  1
 92 95  1  0
 94 92  1  0
 96 97  1  0
 96 99  1  0
 97101  1  0
 98 97  2  0
101100  1  0
101103  1  0
103104  1  0
103102  1  0
M  ISO  4  16 100  17 100  63 101  64 101
M  END
>  <TORSDO>  (57) 
F 36

>  <SCORE>  (57) 
-1.037

>  <name>  (57) 
56

>  <ligand_id>  (57) 
56

>  <original_smiles>  (57) 
[H]c1c([H])c([H])c2c(c1[H])C([H])([H])C([H])([H])C([H])([H])C2([H])N([H])C(=O)C1([H])N(C(=O)C([H])(N([H])C(=O)C([H])(N([H])C([H])([H])[H])C([H])([H])[H])C(C([H])([H])[H])(C([H])([H])[H])C([H])([H])[H])C([H])([H])c2c([H])c(OC([H])([H])C([H])([H])OC([H])([H])C([H])([H])OC([H])([H])C([H])([H])OC([H])([H])C([H])([H])C(=O)N([H])C([H])([H])C([H])([H])C([H])([H])C([H])([H])C([H])([H])C(=O)N([H])C([H])([H])C([H])([H])OC(=O)N3C([H])([H])C([H])([H])C([H])([H])C([H])(n4nc(-c5c([H])c([H])c(Oc6c([H])c([H])c(F)c([H])c6F)c([H])c5[H])c(C(=O)N([H])[H])c4N([H])[H])C3([H])[H])c([H])c([H])c2C1([H])[H]

>  <smiles>  (57) 
[H]c1c([H])c([H])c2c(c1[H])C([H])([H])C([H])([H])C([H])([H])C2([H])N([H])C(=O)C1([H])N(C(=O)C([H])(N([H])C(=O)C([H])(N([H])C([H])([H])[H])C([H])([H])[H])C(C([H])([H])[H])(C([H])([H])[H])C([H])([H])[H])C([H])([H])c2c([H])c(OC([H])([H])C([H])([H])OC([H])([H])C([H])([H])OC([H])([H])C([H])([H])OC([H])([H])C([H])([H])C(=O)N([H])C([H])([H])C([H])([H])C([H])([H])C([H])([H])C([H])([H])C(=O)N([H])C([H])([H])C([H])([H])OC(=O)N3C([H])([H])C([H])([H])C([H])([H])C([H])(n4nc(-c5c([H])c([H])c(Oc6c([H])c([H])c(F)c([H])c6F)c([H])c5[H])c(C(=O)N([H])[H])c4N([H])[H])C3([H])[H])c([H])c([H])c2C1([H])[H]

$$$$
57:0:0
     RDKit          3D

 93100  0  0  1  0  0  0  0  0999 V2000
  -25.1720  -23.3380   22.0120 O   0  0  0  0  0  0  0  0  0  0  0  0
  -26.2330  -22.5500   22.5490 C   0  0  0  0  0  2  0  0  0  0  0  0
  -27.1620  -22.1360   21.4030 C   0  0  0  0  0  2  0  0  0  0  0  0
  -27.8580  -23.2870   20.9350 O   0  0  0  0  0  0  0  0  0  0  0  0
  -28.6680  -23.0240   19.7970 C   0  0  0  0  0  2  0  0  0  0  0  0
  -29.5750  -24.2400   19.5130 C   0  0  0  0  0  2  0  0  0  0  0  0
  -30.8040  -24.2090   20.2400 O   0  0  0  0  0  0  0  0  0  0  0  0
  -31.4300  -22.9330   20.2120 C   0  0  0  0  0  2  0  0  0  0  0  0
  -32.7020  -22.9100   21.0740 C   0  0  0  0  0  2  0  0  0  0  0  0
  -33.9700  -20.7620   21.0540 C   0  0  0  0  0  0  0  0  0  0  0  0
  -34.6360  -18.4370   20.5590 C   0  0  0  0  0  2  0  0  0  0  0  0
  -34.2500  -18.0470   19.1180 C   0  0  0  0  0  2  0  0  0  0  0  0
  -32.7880  -17.5610   19.0440 C   0  0  0  0  0  2  0  0  0  0  0  0
  -31.8040  -18.5330   19.7430 C   0  0  0  0  0  3  0  0  0  0  0  0
  -32.3180  -18.8710   21.1600 C   0  0  0  0  0  2  0  0  0  0  0  0
  -33.6770  -19.4380   21.0480 N   0  0  0  0  0  0  0  0  0  0  0  0
  -35.0520  -21.2340   20.6970 O   0  0  0  0  0  0  0  0  0  0  0  0
  -32.9600  -21.5300   21.4660 N   0  0  0  0  0  0  0  0  0  0  0  0
  -32.1740  -21.0280   21.8550 H   0  0  0  0  0  0  0  0  0  0  0  0
  -29.2290  -18.6350   19.6990 C   0  0  0  0  0  0  0  0  0  0  0  0
  -28.2770  -17.6520   19.7250 C   0  0  0  0  0  0  0  0  0  0  0  0
  -28.9880  -16.4160   19.8140 C   0  0  0  0  0  0  0  0  0  0  0  0
  -30.4510  -17.9850   19.7830 N   0  0  0  0  0  0  0  0  0  0  0  0
  -30.2910  -16.6430   19.9070 N   0  0  0  0  0  0  0  0  0  0  0  0
  -28.5070  -15.0300   19.7650 C   0  0  0  0  0  0  0  0  0  0  0  0
  -28.7270  -14.1350   20.8330 C   0  0  0  0  0  3  0  0  0  0  0  0
  -28.2440  -12.8100   20.7690 C   0  0  0  0  0  3  0  0  0  0  0  0
  -27.5260  -12.3710   19.6300 C   0  0  0  0  0  0  0  0  0  0  0  0
  -27.3310  -13.2600   18.5580 C   0  0  0  0  0  3  0  0  0  0  0  0
  -27.8180  -14.5750   18.6210 C   0  0  0  0  0  3  0  0  0  0  0  0
  -27.0370  -11.0970   19.4710 O   0  0  0  0  0  0  0  0  0  0  0  0
  -26.5820  -10.3630   20.5370 C   0  0  0  0  0  0  0  0  0  0  0  0
  -25.5340  -10.8190   21.3660 C   0  0  0  0  0  3  0  0  0  0  0  0
  -25.0500   -9.9980   22.4040 C   0  0  0  0  0  3  0  0  0  0  0  0
  -25.6010   -8.7200   22.6100 C   0  0  0  0  0  0  0  0  0  0  0  0
  -26.6430   -8.2630   21.7820 C   0  0  0  0  0  3  0  0  0  0  0  0
  -27.1270   -9.0800   20.7470 C   0  0  0  0  0  0  0  0  0  0  0  0
  -28.1140   -8.6240   19.9380 F   0  0  0  0  0  0  0  0  0  0  0  0
  -25.1330   -7.9280   23.6030 F   0  0  0  0  0  0  0  0  0  0  0  0
  -26.7940  -17.8330   19.5780 C   0  0  0  0  0  0  0  0  0  0  0  0
  -26.0020  -16.9500   20.1780 N   0  0  0  0  0  0  0  0  0  0  0  0
  -26.3260  -18.7950   18.9700 O   0  0  0  0  0  0  0  0  0  0  0  0
  -26.3800  -16.1720   20.6990 H   0  0  0  0  0  0  0  0  0  0  0  0
  -24.9990  -17.0520   20.1100 H   0  0  0  0  0  0  0  0  0  0  0  0
  -29.1610  -20.0220   19.5910 N   0  0  0  0  0  0  0  0  0  0  0  0
  -28.2780  -20.4970   19.4340 H   0  0  0  0  0  0  0  0  0  0  0  0
  -29.9640  -20.6210   19.4610 H   0  0  0  0  0  0  0  0  0  0  0  0
  -24.9040  -24.5320   22.7430 C   0  0  0  0  0  2  0  0  0  0  0  0
  -26.0460  -25.5490   22.5820 C   0  0  0  0  0  2  0  0  0  0  0  0
  -26.3250  -25.7290   21.1990 O   0  0  0  0  0  0  0  0  0  0  0  0
  -27.7110  -25.8930   20.9330 C   0  0  0  0  0  2  0  0  0  0  0  0
  -27.9270  -26.4910   19.5320 C   0  0  0  0  0  2  0  0  0  0  0  0
  -27.9490  -27.9210   19.5800 O   0  0  0  0  0  0  0  0  0  0  0  0
  -24.5820  -32.4860   23.8510 C   0  0  0  0  0  0  0  0  0  0  0  0
  -26.7770  -28.6050   19.8200 C   0  0  0  0  0  0  0  0  0  0  0  0
  -23.1840  -31.4170   22.1130 C   0  0  0  0  0  3  0  0  0  0  0  0
  -24.4440  -30.1210   20.3180 C   0  0  0  0  0  0  0  0  0  0  0  0
  -25.6910  -31.7550   21.7440 C   0  0  0  0  0  2  0  0  0  0  0  0
  -25.6680  -30.5160   20.8720 C   0  0  0  0  0  0  0  0  0  0  0  0
  -26.8360  -29.7680   20.6170 C   0  0  0  0  0  3  0  0  0  0  0  0
  -25.5330  -28.2160   19.2720 C   0  0  0  0  0  3  0  0  0  0  0  0
  -24.3700  -28.9690   19.5180 C   0  0  0  0  0  3  0  0  0  0  0  0
  -23.2430  -30.9840   20.6240 C   0  0  0  0  0  2  0  0  0  0  0  0
  -24.5100  -31.8890   22.6270 N   0  0  0  0  0  0  0  0  0  0  0  0
  -23.5650  -32.6820   24.5290 O   0  0  0  0  0  0  0  0  0  0  0  0
  -22.5850  -30.2560   22.9400 C   0  0  0  0  0  0  0  0  0  0  0  0
  -21.2770  -30.0070   22.7620 N   0  0  0  0  0  0  0  0  0  0  0  0
  -23.2940  -29.5870   23.6960 O   0  0  0  0  0  0  0  0  0  0  0  0
  -20.7650  -30.6070   22.1320 H   0  0  0  0  0  0  0  0  0  0  0  0
  -18.0310  -28.4260   22.8830 C   0  0  0  0  0  0  0  0  0  0  0  0
  -20.5100  -28.9410   23.4050 C   0  0  0  0  0  3  0  0  0  0  0  0
  -20.8240  -27.5670   22.7700 C   0  0  0  0  0  2  0  0  0  0  0  0
  -19.8570  -27.1890   21.6430 C   0  0  0  0  0  2  0  0  0  0  0  0
  -18.4170  -27.1460   22.1610 C   0  0  0  0  0  2  0  0  0  0  0  0
  -19.0150  -29.2770   23.4520 C   0  0  0  0  0  0  0  0  0  0  0  0
  -18.6040  -30.4740   24.0810 C   0  0  0  0  0  3  0  0  0  0  0  0
  -17.2410  -30.8200   24.1480 C   0  0  0  0  0  3  0  0  0  0  0  0
  -16.2710  -29.9670   23.5960 C   0  0  0  0  0  3  0  0  0  0  0  0
  -16.6660  -28.7710   22.9690 C   0  0  0  0  0  3  0  0  0  0  0  0
  -25.9420  -32.9700   24.4450 C   0  0  0  0  0  3  0  0  0  0  0  0
  -26.4700  -32.0580   25.6190 C   0  0  1  0  0  0  0  0  0  0  0  0
  -25.4150  -31.7830   26.7150 C   0  0  0  0  0  1  0  0  0  0  0  0
  -26.9540  -30.6940   25.0750 C   0  0  0  0  0  1  0  0  0  0  0  0
  -27.6960  -32.7260   26.2880 C   0  0  0  0  0  1  0  0  0  0  0  0
  -25.7540  -34.3520   24.9040 N   0  0  0  0  0  0  0  0  0  0  0  0
  -26.1440  -35.4400   24.2250 C   0  0  0  0  0  0  0  0  0  0  0  0
  -26.7700  -35.3760   23.1640 O   0  0  0  0  0  0  0  0  0  0  0  0
  -25.2020  -34.4810   25.7390 H   0  0  0  0  0  0  0  0  0  0  0  0
  -24.5540  -37.3820   24.0820 C   0  0  0  0  0  1  0  0  0  0  0  0
  -25.7800  -36.8150   24.8160 C   0  0  0  0  0  3  0  0  0  0  0  0
  -27.9990  -37.4550   25.6470 C   0  0  0  0  0  1  0  0  0  0  0  0
  -26.8890  -37.7920   24.7600 N   0  0  0  0  0  0  0  0  0  0  0  0
  -26.5620  -38.7240   25.0000 H   0  0  0  0  0  0  0  0  0  0  0  0
  1  2  1  0
  1 48  1  0
  3  2  1  0
  4  3  1  0
  5  4  1  0
  6  5  1  0
  6  7  1  0
  8  7  1  0
  8  9  1  0
  9 18  1  0
 10 18  1  0
 11 16  1  0
 12 11  1  0
 13 12  1  0
 14 13  1  0
 14 23  1  0
 14 15  1  0
 16 10  1  0
 16 15  1  0
 17 10  2  0
 18 19  1  0
 20 21  2  0
 20 23  1  0
 21 22  1  0
 22 24  2  0
 23 24  1  0
 25 22  1  0
 25 26  1  0
 27 26  2  0
 28 27  1  0
 29 30  1  0
 29 28  2  0
 30 25  2  0
 31 28  1  0
 31 32  1  0
 32 37  2  0
 32 33  1  0
 33 34  2  0
 34 35  1  0
 35 39  1  0
 36 35  2  0
 37 36  1  0
 38 37  1  0
 40 21  1  0
 40 41  1  0
 41 43  1  0
 42 40  2  0
 44 41  1  0
 45 20  1  0
 46 45  1  0
 47 45  1  0
 49 48  1  0
 50 49  1  0
 51 50  1  0
 52 53  1  0
 52 51  1  0
 53 55  1  0
 54 65  2  0
 55 60  1  0
 56 64  1  0
 56 66  1  0
 57 63  1  0
 57 59  1  0
 58 64  1  0
 59 58  1  0
 60 59  2  0
 61 62  1  0
 61 55  2  0
 62 57  2  0
 63 56  1  0
 64 54  1  0
 66 68  2  0
 67 66  1  0
 69 67  1  0
 70 79  2  0
 70 75  1  0
 71 67  1  0
 71 75  1  0
 72 71  1  0
 73 74  1  0
 73 72  1  0
 74 70  1  0
 75 76  2  0
 76 77  1  0
 78 77  2  0
 79 78  1  0
 80 54  1  0
 80 85  1  0
 80 81  1  0
 81 84  1  1
 81 82  1  0
 83 81  1  0
 85 88  1  0
 86 90  1  0
 86 85  1  0
 87 86  2  0
 90 89  1  0
 92 90  1  0
 92 93  1  0
 92 91  1  0
M  ISO  4  10 100  18 100  52 101  53 101
M  END
>  <TORSDO>  (58) 
F 29

>  <SCORE>  (58) 
-2.990

>  <name>  (58) 
57

>  <ligand_id>  (58) 
57

>  <original_smiles>  (58) 
[H]c1c([H])c([H])c2c(c1[H])C([H])([H])C([H])([H])C([H])([H])C2([H])N([H])C(=O)C1([H])N(C(=O)C([H])(N([H])C(=O)C([H])(N([H])C([H])([H])[H])C([H])([H])[H])C(C([H])([H])[H])(C([H])([H])[H])C([H])([H])[H])C([H])([H])c2c([H])c(OC([H])([H])C([H])([H])OC([H])([H])C([H])([H])OC([H])([H])C([H])([H])OC([H])([H])C([H])([H])OC([H])([H])C([H])([H])N([H])C(=O)N3C([H])([H])C([H])([H])C([H])([H])C([H])(n4nc(-c5c([H])c([H])c(Oc6c([H])c([H])c(F)c([H])c6F)c([H])c5[H])c(C(=O)N([H])[H])c4N([H])[H])C3([H])[H])c([H])c([H])c2C1([H])[H]

>  <smiles>  (58) 
[H]c1c([H])c([H])c2c(c1[H])C([H])([H])C([H])([H])C([H])([H])C2([H])N([H])C(=O)C1([H])N(C(=O)C([H])(N([H])C(=O)C([H])(N([H])C([H])([H])[H])C([H])([H])[H])C(C([H])([H])[H])(C([H])([H])[H])C([H])([H])[H])C([H])([H])c2c([H])c(OC([H])([H])C([H])([H])OC([H])([H])C([H])([H])OC([H])([H])C([H])([H])OC([H])([H])C([H])([H])OC([H])([H])C([H])([H])N([H])C(=O)N3C([H])([H])C([H])([H])C([H])([H])C([H])(n4nc(-c5c([H])c([H])c(Oc6c([H])c([H])c(F)c([H])c6F)c([H])c5[H])c(C(=O)N([H])[H])c4N([H])[H])C3([H])[H])c([H])c([H])c2C1([H])[H]

$$$$
58:0:0
     RDKit          3D

 88 96  0  0  1  0  0  0  0  0999 V2000
  -31.7310  -19.5950   20.5760 C   0  0  0  0  0  3  0  0  0  0  0  0
  -31.3480  -18.2320   20.5430 C   0  0  0  0  0  3  0  0  0  0  0  0
  -30.8110  -20.6690   20.5080 C   0  0  0  0  0  3  0  0  0  0  0  0
  -29.0630  -18.9980   20.3710 C   0  0  0  0  0  3  0  0  0  0  0  0
  -29.9990  -17.8200   20.4400 C   0  0  0  0  0  0  0  0  0  0  0  0
  -29.4210  -20.4630   20.3980 C   0  0  0  0  0  0  0  0  0  0  0  0
  -30.4830  -15.0790   20.3150 C   0  0  0  0  0  0  0  0  0  0  0  0
  -30.3790  -12.7120   19.3690 C   0  0  0  0  0  2  0  0  0  0  0  0
  -29.4310  -12.6330   18.1500 C   0  0  0  0  0  2  0  0  0  0  0  0
  -27.9790  -12.3950   18.6060 C   0  0  0  0  0  2  0  0  0  0  0  0
  -27.5740  -13.3170   19.7860 C   0  0  0  0  0  3  0  0  0  0  0  0
  -28.6460  -13.3620   20.8950 C   0  0  0  0  0  2  0  0  0  0  0  0
  -29.8920  -13.8100   20.2600 N   0  0  0  0  0  0  0  0  0  0  0  0
  -31.6900  -15.1140   20.0460 O   0  0  0  0  0  0  0  0  0  0  0  0
  -29.7010  -16.2870   20.4420 N   0  0  0  0  0  0  0  0  0  0  0  0
  -28.7200  -16.0730   20.5450 H   0  0  0  0  0  0  0  0  0  0  0  0
  -25.2040  -13.8620   20.5740 C   0  0  0  0  0  0  0  0  0  0  0  0
  -24.1530  -13.0750   20.9510 C   0  0  0  0  0  0  0  0  0  0  0  0
  -24.6270  -11.7280   20.8970 C   0  0  0  0  0  0  0  0  0  0  0  0
  -26.2500  -12.9970   20.3060 N   0  0  0  0  0  0  0  0  0  0  0  0
  -25.9150  -11.7060   20.5680 N   0  0  0  0  0  0  0  0  0  0  0  0
  -23.9130  -10.4580   21.0810 C   0  0  0  0  0  0  0  0  0  0  0  0
  -24.3630   -9.4820   21.9980 C   0  0  0  0  0  3  0  0  0  0  0  0
  -23.6460   -8.2780   22.1710 C   0  0  0  0  0  3  0  0  0  0  0  0
  -22.4640   -8.0420   21.4290 C   0  0  0  0  0  0  0  0  0  0  0  0
  -22.0330   -9.0080   20.5020 C   0  0  0  0  0  3  0  0  0  0  0  0
  -22.7510  -10.2020   20.3260 C   0  0  0  0  0  3  0  0  0  0  0  0
  -21.7170   -6.8920   21.5140 O   0  0  0  0  0  0  0  0  0  0  0  0
  -21.6850   -6.1380   22.6590 C   0  0  0  0  0  0  0  0  0  0  0  0
  -21.2500   -6.6720   23.8910 C   0  0  0  0  0  3  0  0  0  0  0  0
  -21.1660   -5.8430   25.0270 C   0  0  0  0  0  3  0  0  0  0  0  0
  -21.5060   -4.4810   24.9320 C   0  0  0  0  0  0  0  0  0  0  0  0
  -21.9340   -3.9460   23.7060 C   0  0  0  0  0  3  0  0  0  0  0  0
  -22.0200   -4.7710   22.5710 C   0  0  0  0  0  0  0  0  0  0  0  0
  -22.4120   -4.2460   21.3850 F   0  0  0  0  0  0  0  0  0  0  0  0
  -21.4190   -3.6820   26.0230 F   0  0  0  0  0  0  0  0  0  0  0  0
  -22.7560  -13.5380   21.2440 C   0  0  0  0  0  0  0  0  0  0  0  0
  -22.0460  -12.8310   22.1160 N   0  0  0  0  0  0  0  0  0  0  0  0
  -22.3030  -14.5620   20.7350 O   0  0  0  0  0  0  0  0  0  0  0  0
  -22.4260  -12.0010   22.5480 H   0  0  0  0  0  0  0  0  0  0  0  0
  -21.1080  -13.1230   22.3550 H   0  0  0  0  0  0  0  0  0  0  0  0
  -25.3510  -15.2360   20.4080 N   0  0  0  0  0  0  0  0  0  0  0  0
  -24.5730  -15.8760   20.5280 H   0  0  0  0  0  0  0  0  0  0  0  0
  -26.1720  -15.6840   20.0220 H   0  0  0  0  0  0  0  0  0  0  0  0
  -28.5370  -21.6530   20.3190 O   0  0  0  0  0  0  0  0  0  0  0  0
  -28.9340  -23.1800   20.3950 C   0  0  0  0  0  3  0  0  0  0  0  0
  -27.9180  -24.5570   20.1850 C   0  0  0  0  0  3  0  0  0  0  0  0
  -28.2060  -26.1090   20.3330 O   0  0  0  0  0  0  0  0  0  0  0  0
  -24.6190  -31.9130   23.2590 C   0  0  0  0  0  0  0  0  0  0  0  0
  -27.1690  -27.1290   20.2600 C   0  0  0  0  0  0  0  0  0  0  0  0
  -23.4180  -30.5200   21.6220 C   0  0  0  0  0  3  0  0  0  0  0  0
  -24.8600  -28.9240   20.2080 C   0  0  0  0  0  0  0  0  0  0  0  0
  -25.9770  -30.7550   21.4690 C   0  0  0  0  0  2  0  0  0  0  0  0
  -26.0440  -29.3560   20.8210 C   0  0  0  0  0  0  0  0  0  0  0  0
  -27.1980  -28.4770   20.8260 C   0  0  0  0  0  3  0  0  0  0  0  0
  -25.9570  -26.8130   19.6070 C   0  0  0  0  0  3  0  0  0  0  0  0
  -24.8330  -27.6690   19.5840 C   0  0  0  0  0  3  0  0  0  0  0  0
  -23.6420  -29.8350   20.2470 C   0  0  0  0  0  2  0  0  0  0  0  0
  -24.6920  -31.0860   22.1710 N   0  0  0  0  0  0  0  0  0  0  0  0
  -23.5320  -32.2090   23.7810 O   0  0  0  0  0  0  0  0  0  0  0  0
  -22.7250  -29.5230   22.5860 C   0  0  0  0  0  0  0  0  0  0  0  0
  -21.3960  -29.3620   22.4560 N   0  0  0  0  0  0  0  0  0  0  0  0
  -23.3870  -28.8960   23.4160 O   0  0  0  0  0  0  0  0  0  0  0  0
  -20.9160  -29.9190   21.7610 H   0  0  0  0  0  0  0  0  0  0  0  0
  -18.0030  -28.1890   22.9570 C   0  0  0  0  0  0  0  0  0  0  0  0
  -20.5650  -28.4340   23.2280 C   0  0  0  0  0  3  0  0  0  0  0  0
  -20.6550  -26.9990   22.6580 C   0  0  0  0  0  2  0  0  0  0  0  0
  -19.5520  -26.6820   21.6420 C   0  0  0  0  0  2  0  0  0  0  0  0
  -18.1710  -26.8370   22.2830 C   0  0  0  0  0  2  0  0  0  0  0  0
  -19.1270  -28.9450   23.3870 C   0  0  0  0  0  0  0  0  0  0  0  0
  -18.9140  -30.2090   23.9790 C   0  0  0  0  0  3  0  0  0  0  0  0
  -17.6120  -30.7170   24.1450 C   0  0  0  0  0  3  0  0  0  0  0  0
  -16.5040  -29.9590   23.7300 C   0  0  0  0  0  3  0  0  0  0  0  0
  -16.7000  -28.6960   23.1430 C   0  0  0  0  0  3  0  0  0  0  0  0
  -25.8970  -32.5450   23.8900 C   0  0  0  0  0  3  0  0  0  0  0  0
  -26.3980  -31.7760   25.1750 C   0  0  1  0  0  0  0  0  0  0  0  0
  -25.2950  -31.5510   26.2360 C   0  0  0  0  0  1  0  0  0  0  0  0
  -26.9760  -30.3940   24.7990 C   0  0  0  0  0  1  0  0  0  0  0  0
  -27.5480  -32.5680   25.8420 C   0  0  0  0  0  1  0  0  0  0  0  0
  -25.5880  -33.9460   24.2210 N   0  0  0  0  0  0  0  0  0  0  0  0
  -25.9010  -35.0010   23.4570 C   0  0  0  0  0  0  0  0  0  0  0  0
  -26.5440  -34.8970   22.4100 O   0  0  0  0  0  0  0  0  0  0  0  0
  -25.0130  -34.1010   25.0360 H   0  0  0  0  0  0  0  0  0  0  0  0
  -24.1500  -36.7860   23.1660 C   0  0  0  0  0  1  0  0  0  0  0  0
  -25.4270  -36.3910   23.9270 C   0  0  0  0  0  3  0  0  0  0  0  0
  -27.5860  -37.2980   24.6650 C   0  0  0  0  0  1  0  0  0  0  0  0
  -26.4470  -37.4490   23.7630 N   0  0  0  0  0  0  0  0  0  0  0  0
  -26.0420  -38.3690   23.9170 H   0  0  0  0  0  0  0  0  0  0  0  0
  2  1  1  0
  3  1  2  0
  4  6  2  0
  4  5  1  0
  5 15  1  0
  5  2  2  0
  6  3  1  0
  7 15  1  0
  8 13  1  0
  9 10  1  0
  9  8  1  0
 11 10  1  0
 11 20  1  0
 11 12  1  0
 13  7  1  0
 13 12  1  0
 14  7  2  0
 15 16  1  0
 17 18  2  0
 18 37  1  0
 19 18  1  0
 19 22  1  0
 20 21  1  0
 20 17  1  0
 21 19  2  0
 22 23  1  0
 23 24  2  0
 25 28  1  0
 25 24  1  0
 26 25  2  0
 27 26  1  0
 27 22  2  0
 28 29  1  0
 29 30  1  0
 30 31  2  0
 32 31  1  0
 32 36  1  0
 33 32  2  0
 34 29  2  0
 34 33  1  0
 35 34  1  0
 37 38  1  0
 38 41  1  0
 38 40  1  0
 39 37  2  0
 42 43  1  0
 42 17  1  0
 44 42  1  0
 45 46  1  0
 45  6  1  0
 47 48  1  0
 47 46  2  0
 49 60  2  0
 50 48  1  0
 50 55  1  0
 51 59  1  0
 51 61  1  0
 52 58  1  0
 52 54  1  0
 53 59  1  0
 54 55  2  0
 54 53  1  0
 56 50  2  0
 57 56  1  0
 57 52  2  0
 58 51  1  0
 59 49  1  0
 61 63  2  0
 62 61  1  0
 64 62  1  0
 65 74  2  0
 65 70  1  0
 66 62  1  0
 66 70  1  0
 67 66  1  0
 68 69  1  0
 68 67  1  0
 69 65  1  0
 70 71  2  0
 71 72  1  0
 73 72  2  0
 74 73  1  0
 75 49  1  0
 75 80  1  0
 75 76  1  0
 76 79  1  1
 76 77  1  0
 78 76  1  0
 80 83  1  0
 81 85  1  0
 81 80  1  0
 82 81  2  0
 85 84  1  0
 87 88  1  0
 87 85  1  0
 87 86  1  0
M  ISO  4   7 100  15 100  47 101  48 101
M  END
>  <TORSDO>  (59) 
F 19

>  <SCORE>  (59) 
-15.046

>  <name>  (59) 
58

>  <ligand_id>  (59) 
58

>  <original_smiles>  (59) 
[H]c1c([H])c(OC([H])([H])C([H])([H])Oc2c([H])c([H])c3c(c2[H])C([H])([H])N(C(=O)C([H])(N([H])C(=O)C([H])(N([H])C([H])([H])[H])C([H])([H])[H])C(C([H])([H])[H])(C([H])([H])[H])C([H])([H])[H])C([H])(C(=O)N([H])C2([H])c4c([H])c([H])c([H])c([H])c4C([H])([H])C([H])([H])C2([H])[H])C3([H])[H])c([H])c(N([H])C(=O)N2C([H])([H])C([H])([H])C([H])([H])C([H])(n3nc(-c4c([H])c([H])c(Oc5c([H])c([H])c(F)c([H])c5F)c([H])c4[H])c(C(=O)N([H])[H])c3N([H])[H])C2([H])[H])c1[H]

>  <smiles>  (59) 
[H]c1c([H])c(OC([H])([H])C([H])([H])Oc2c([H])c([H])c3c(c2[H])C([H])([H])N(C(=O)C([H])(N([H])C(=O)C([H])(N([H])C([H])([H])[H])C([H])([H])[H])C(C([H])([H])[H])(C([H])([H])[H])C([H])([H])[H])C([H])(C(=O)N([H])C2([H])c4c([H])c([H])c([H])c([H])c4C([H])([H])C([H])([H])C2([H])[H])C3([H])[H])c([H])c(N([H])C(=O)N2C([H])([H])C([H])([H])C([H])([H])C([H])(n3nc(-c4c([H])c([H])c(Oc5c([H])c([H])c(F)c([H])c5F)c([H])c4[H])c(C(=O)N([H])[H])c3N([H])[H])C2([H])[H])c1[H]

$$$$
59:0:0
     RDKit          3D

 94102  0  0  1  0  0  0  0  0999 V2000
  -29.9030  -20.8790   19.6930 C   0  0  0  0  0  0  0  0  0  0  0  0
  -31.0810  -21.4990   19.5550 N   0  0  0  0  0  0  0  0  0  0  0  0
  -28.8250  -21.4470   19.4940 O   0  0  0  0  0  0  0  0  0  0  0  0
  -31.9220  -20.9530   19.6810 H   0  0  0  0  0  0  0  0  0  0  0  0
  -28.8060  -18.6220   19.8970 C   0  0  0  0  0  3  0  0  0  0  0  0
  -31.0890  -18.8680   20.7130 C   0  0  0  0  0  3  0  0  0  0  0  0
  -28.8150  -17.2680   20.2790 C   0  0  0  0  0  3  0  0  0  0  0  0
  -31.1040  -17.5080   21.0830 C   0  0  0  0  0  3  0  0  0  0  0  0
  -29.9470  -19.4310   20.0920 C   0  0  0  0  0  0  0  0  0  0  0  0
  -29.9730  -16.7000   20.8420 C   0  0  0  0  0  0  0  0  0  0  0  0
  -30.6450  -14.3990   20.4790 C   0  0  0  0  0  0  0  0  0  0  0  0
  -30.3220  -12.2930   19.2490 C   0  0  0  0  0  2  0  0  0  0  0  0
  -29.3610  -12.5570   18.0710 C   0  0  0  0  0  2  0  0  0  0  0  0
  -27.8890  -12.4300   18.5160 C   0  0  0  0  0  2  0  0  0  0  0  0
  -27.5850  -13.2300   19.8110 C   0  0  0  0  0  3  0  0  0  0  0  0
  -28.6470  -12.9230   20.8920 C   0  0  0  0  0  2  0  0  0  0  0  0
  -29.9760  -13.2270   20.3280 N   0  0  0  0  0  0  0  0  0  0  0  0
  -31.7370  -14.6350   19.9520 O   0  0  0  0  0  0  0  0  0  0  0  0
  -29.9680  -15.3270   21.1720 N   0  0  0  0  0  0  0  0  0  0  0  0
  -29.1010  -14.9750   21.5510 H   0  0  0  0  0  0  0  0  0  0  0  0
  -25.1950  -13.8570   20.5380 C   0  0  0  0  0  0  0  0  0  0  0  0
  -24.1270  -13.0930   20.9240 C   0  0  0  0  0  0  0  0  0  0  0  0
  -24.5780  -11.7370   20.8820 C   0  0  0  0  0  0  0  0  0  0  0  0
  -26.2320  -12.9690   20.2980 N   0  0  0  0  0  0  0  0  0  0  0  0
  -25.8620  -11.6880   20.5560 N   0  0  0  0  0  0  0  0  0  0  0  0
  -23.8470  -10.4790   21.0770 C   0  0  0  0  0  0  0  0  0  0  0  0
  -24.2970   -9.4970   21.9850 C   0  0  0  0  0  3  0  0  0  0  0  0
  -23.5660   -8.3030   22.1680 C   0  0  0  0  0  3  0  0  0  0  0  0
  -22.3710   -8.0840   21.4430 C   0  0  0  0  0  0  0  0  0  0  0  0
  -21.9400   -9.0560   20.5230 C   0  0  0  0  0  3  0  0  0  0  0  0
  -22.6710  -10.2410   20.3380 C   0  0  0  0  0  3  0  0  0  0  0  0
  -21.6110   -6.9430   21.5350 O   0  0  0  0  0  0  0  0  0  0  0  0
  -21.6040   -6.1750   22.6720 C   0  0  0  0  0  0  0  0  0  0  0  0
  -21.2460   -6.7090   23.9310 C   0  0  0  0  0  3  0  0  0  0  0  0
  -21.1840   -5.8680   25.0600 C   0  0  0  0  0  3  0  0  0  0  0  0
  -21.4700   -4.4950   24.9320 C   0  0  0  0  0  0  0  0  0  0  0  0
  -21.8210   -3.9620   23.6800 C   0  0  0  0  0  3  0  0  0  0  0  0
  -21.8850   -4.8010   22.5530 C   0  0  0  0  0  0  0  0  0  0  0  0
  -22.2020   -4.2780   21.3440 F   0  0  0  0  0  0  0  0  0  0  0  0
  -21.4030   -3.6850   26.0150 F   0  0  0  0  0  0  0  0  0  0  0  0
  -22.7360  -13.5770   21.2150 C   0  0  0  0  0  0  0  0  0  0  0  0
  -22.0160  -12.8840   22.0910 N   0  0  0  0  0  0  0  0  0  0  0  0
  -22.2960  -14.6060   20.7030 O   0  0  0  0  0  0  0  0  0  0  0  0
  -22.3820  -12.0490   22.5260 H   0  0  0  0  0  0  0  0  0  0  0  0
  -21.0850  -13.1930   22.3300 H   0  0  0  0  0  0  0  0  0  0  0  0
  -25.3600  -15.2260   20.3500 N   0  0  0  0  0  0  0  0  0  0  0  0
  -24.5830  -15.8710   20.4410 H   0  0  0  0  0  0  0  0  0  0  0  0
  -26.1740  -15.6440   19.9210 H   0  0  0  0  0  0  0  0  0  0  0  0
  -31.2320  -22.9350   19.3530 C   0  0  0  0  0  2  0  0  0  0  0  0
  -30.8910  -23.7000   20.6410 C   0  0  0  0  0  2  0  0  0  0  0  0
  -30.6680  -25.0660   20.3350 O   0  0  0  0  0  0  0  0  0  0  0  0
  -30.1960  -25.7870   21.4640 C   0  0  0  0  0  2  0  0  0  0  0  0
  -29.5020  -27.0640   20.9960 C   0  0  0  0  0  2  0  0  0  0  0  0
  -28.3850  -26.6850   20.1870 O   0  0  0  0  0  0  0  0  0  0  0  0
  -24.5700  -31.8780   23.2420 C   0  0  0  0  0  0  0  0  0  0  0  0
  -27.2450  -27.4570   20.2140 C   0  0  0  0  0  0  0  0  0  0  0  0
  -23.3620  -30.4610   21.6070 C   0  0  0  0  0  3  0  0  0  0  0  0
  -24.8210  -28.9130   20.2000 C   0  0  0  0  0  0  0  0  0  0  0  0
  -25.8770  -30.8410   21.3980 C   0  0  0  0  0  2  0  0  0  0  0  0
  -25.9690  -29.4660   20.7770 C   0  0  0  0  0  0  0  0  0  0  0  0
  -27.1810  -28.7540   20.7750 C   0  0  0  0  0  3  0  0  0  0  0  0
  -26.0810  -26.9120   19.6330 C   0  0  0  0  0  3  0  0  0  0  0  0
  -24.8690  -27.6320   19.6230 C   0  0  0  0  0  3  0  0  0  0  0  0
  -23.5700  -29.7620   20.2350 C   0  0  0  0  0  2  0  0  0  0  0  0
  -24.6210  -31.0730   22.1420 N   0  0  0  0  0  0  0  0  0  0  0  0
  -23.4900  -32.1550   23.7800 O   0  0  0  0  0  0  0  0  0  0  0  0
  -22.7100  -29.4500   22.5770 C   0  0  0  0  0  0  0  0  0  0  0  0
  -21.3870  -29.2690   22.4450 N   0  0  0  0  0  0  0  0  0  0  0  0
  -23.3930  -28.8320   23.3990 O   0  0  0  0  0  0  0  0  0  0  0  0
  -20.9010  -29.8210   21.7530 H   0  0  0  0  0  0  0  0  0  0  0  0
  -18.0100  -28.0880   22.9330 C   0  0  0  0  0  0  0  0  0  0  0  0
  -20.5650  -28.3390   23.2190 C   0  0  0  0  0  3  0  0  0  0  0  0
  -20.6670  -26.9030   22.6550 C   0  0  0  0  0  2  0  0  0  0  0  0
  -19.5710  -26.5750   21.6380 C   0  0  0  0  0  2  0  0  0  0  0  0
  -18.1860  -26.7310   22.2730 C   0  0  0  0  0  2  0  0  0  0  0  0
  -19.1270  -28.8500   23.3630 C   0  0  0  0  0  0  0  0  0  0  0  0
  -18.9090  -30.1210   23.9380 C   0  0  0  0  0  3  0  0  0  0  0  0
  -17.6060  -30.6290   24.0880 C   0  0  0  0  0  3  0  0  0  0  0  0
  -16.5010  -29.8640   23.6760 C   0  0  0  0  0  3  0  0  0  0  0  0
  -16.7040  -28.5950   23.1040 C   0  0  0  0  0  3  0  0  0  0  0  0
  -25.8590  -32.5080   23.8580 C   0  0  0  0  0  3  0  0  0  0  0  0
  -25.5530  -33.9050   24.1890 N   0  0  0  0  0  0  0  0  0  0  0  0
  -25.8900  -34.9560   23.4290 C   0  0  0  0  0  0  0  0  0  0  0  0
  -26.5610  -34.8510   22.3990 O   0  0  0  0  0  0  0  0  0  0  0  0
  -24.9580  -34.0610   24.9900 H   0  0  0  0  0  0  0  0  0  0  0  0
  -24.1640  -36.7470   23.0660 C   0  0  0  0  0  1  0  0  0  0  0  0
  -25.4020  -36.3440   23.8830 C   0  0  0  0  0  3  0  0  0  0  0  0
  -27.5370  -37.2230   24.7170 C   0  0  0  0  0  1  0  0  0  0  0  0
  -26.4360  -37.3960   23.7730 N   0  0  0  0  0  0  0  0  0  0  0  0
  -26.0320  -38.3170   23.9240 H   0  0  0  0  0  0  0  0  0  0  0  0
  -26.3860  -31.7320   25.1280 C   0  0  1  0  0  0  0  0  0  0  0  0
  -25.2990  -31.4840   26.1990 C   0  0  0  0  0  1  0  0  0  0  0  0
  -26.9720  -30.3600   24.7220 C   0  0  0  0  0  1  0  0  0  0  0  0
  -27.5370  -32.5280   25.7880 C   0  0  0  0  0  1  0  0  0  0  0  0
  1  9  1  0
  2  4  1  0
  2  1  1  0
  3  1  2  0
  5  9  2  0
  5  7  1  0
  6  8  2  0
  7 10  2  0
  9  6  1  0
 10  8  1  0
 10 19  1  0
 11 19  1  0
 12 17  1  0
 13 14  1  0
 13 12  1  0
 15 14  1  0
 15 24  1  0
 15 16  1  0
 17 11  1  0
 17 16  1  0
 18 11  2  0
 19 20  1  0
 21 22  2  0
 22 41  1  0
 23 22  1  0
 23 26  1  0
 24 21  1  0
 24 25  1  0
 25 23  2  0
 26 27  1  0
 27 28  2  0
 29 32  1  0
 29 28  1  0
 30 29  2  0
 31 30  1  0
 31 26  2  0
 32 33  1  0
 33 34  1  0
 34 35  2  0
 36 35  1  0
 36 40  1  0
 37 36  2  0
 38 33  2  0
 38 37  1  0
 39 38  1  0
 41 42  1  0
 42 45  1  0
 42 44  1  0
 43 41  2  0
 46 47  1  0
 46 21  1  0
 48 46  1  0
 49  2  1  0
 49 50  1  0
 51 50  1  0
 51 52  1  0
 53 52  1  0
 54 56  1  0
 54 53  1  0
 55 66  2  0
 56 61  1  0
 57 65  1  0
 57 67  1  0
 58 64  1  0
 58 60  1  0
 59 65  1  0
 60 59  1  0
 61 60  2  0
 62 56  2  0
 63 62  1  0
 63 58  2  0
 64 57  1  0
 65 55  1  0
 67 69  2  0
 68 67  1  0
 70 68  1  0
 71 80  2  0
 71 76  1  0
 72 68  1  0
 72 76  1  0
 73 72  1  0
 74 75  1  0
 74 73  1  0
 75 71  1  0
 76 77  2  0
 77 78  1  0
 79 78  2  0
 80 79  1  0
 81 55  1  0
 81 82  1  0
 81 91  1  0
 82 85  1  0
 83 87  1  0
 83 82  1  0
 84 83  2  0
 87 86  1  0
 89 87  1  0
 89 90  1  0
 89 88  1  0
 91 94  1  1
 91 92  1  0
 93 91  1  0
M  ISO  4  11 100  19 100  53 101  54 101
M  END
>  <TORSDO>  (60) 
F 22

>  <SCORE>  (60) 
-13.463

>  <name>  (60) 
59

>  <ligand_id>  (60) 
59

>  <original_smiles>  (60) 
[H]c1c([H])c([H])c2c(c1[H])C([H])([H])C([H])([H])C([H])([H])C2([H])N([H])C(=O)C1([H])N(C(=O)C([H])(N([H])C(=O)C([H])(N([H])C([H])([H])[H])C([H])([H])[H])C(C([H])([H])[H])(C([H])([H])[H])C([H])([H])[H])C([H])([H])c2c([H])c(OC([H])([H])C([H])([H])OC([H])([H])C([H])([H])N([H])C(=O)c3c([H])c([H])c(N([H])C(=O)N4C([H])([H])C([H])([H])C([H])([H])C([H])(n5nc(-c6c([H])c([H])c(Oc7c([H])c([H])c(F)c([H])c7F)c([H])c6[H])c(C(=O)N([H])[H])c5N([H])[H])C4([H])[H])c([H])c3[H])c([H])c([H])c2C1([H])[H]

>  <smiles>  (60) 
[H]c1c([H])c([H])c2c(c1[H])C([H])([H])C([H])([H])C([H])([H])C2([H])N([H])C(=O)C1([H])N(C(=O)C([H])(N([H])C(=O)C([H])(N([H])C([H])([H])[H])C([H])([H])[H])C(C([H])([H])[H])(C([H])([H])[H])C([H])([H])[H])C([H])([H])c2c([H])c(OC([H])([H])C([H])([H])OC([H])([H])C([H])([H])N([H])C(=O)c3c([H])c([H])c(N([H])C(=O)N4C([H])([H])C([H])([H])C([H])([H])C([H])(n5nc(-c6c([H])c([H])c(Oc7c([H])c([H])c(F)c([H])c7F)c([H])c6[H])c(C(=O)N([H])[H])c5N([H])[H])C4([H])[H])c([H])c3[H])c([H])c([H])c2C1([H])[H]

$$$$
60:0:0
     RDKit          3D

 95104  0  0  1  0  0  0  0  0999 V2000
  -31.7090  -19.4160   20.6130 C   0  0  0  0  0  3  0  0  0  0  0  0
  -31.2900  -18.0720   20.6150 C   0  0  0  0  0  3  0  0  0  0  0  0
  -29.0600  -18.9010   20.1920 C   0  0  0  0  0  3  0  0  0  0  0  0
  -30.8490  -20.5290   20.4350 C   0  0  0  0  0  0  0  0  0  0  0  0
  -29.9440  -17.6990   20.4340 C   0  0  0  0  0  0  0  0  0  0  0  0
  -29.4510  -20.3630   20.1550 C   0  0  0  0  0  0  0  0  0  0  0  0
  -30.4140  -14.9700   20.6520 C   0  0  0  0  0  0  0  0  0  0  0  0
  -30.4100  -12.5010   20.0130 C   0  0  0  0  0  2  0  0  0  0  0  0
  -29.5860  -12.2580   18.7290 C   0  0  0  0  0  2  0  0  0  0  0  0
  -28.1030  -12.0460   19.0790 C   0  0  0  0  0  2  0  0  0  0  0  0
  -27.5790  -13.1160   20.0730 C   0  0  0  0  0  3  0  0  0  0  0  0
  -28.5330  -13.3190   21.2670 C   0  0  0  0  0  2  0  0  0  0  0  0
  -29.8360  -13.6970   20.7040 N   0  0  0  0  0  0  0  0  0  0  0  0
  -31.6430  -14.9830   20.4990 O   0  0  0  0  0  0  0  0  0  0  0  0
  -29.6240  -16.1740   20.5440 N   0  0  0  0  0  0  0  0  0  0  0  0
  -28.6360  -15.9730   20.5540 H   0  0  0  0  0  0  0  0  0  0  0  0
  -25.1840  -13.7570   20.6910 C   0  0  0  0  0  0  0  0  0  0  0  0
  -24.0800  -13.0130   20.9970 C   0  0  0  0  0  0  0  0  0  0  0  0
  -24.5080  -11.6480   20.9830 C   0  0  0  0  0  0  0  0  0  0  0  0
  -26.2120  -12.8510   20.4990 N   0  0  0  0  0  0  0  0  0  0  0  0
  -25.8130  -11.5760   20.7440 N   0  0  0  0  0  0  0  0  0  0  0  0
  -23.7360  -10.4070   21.1220 C   0  0  0  0  0  0  0  0  0  0  0  0
  -24.1130   -9.3990   22.0370 C   0  0  0  0  0  3  0  0  0  0  0  0
  -23.3430   -8.2230   22.1660 C   0  0  0  0  0  3  0  0  0  0  0  0
  -22.1780   -8.0480   21.3800 C   0  0  0  0  0  0  0  0  0  0  0  0
  -21.8190   -9.0440   20.4550 C   0  0  0  0  0  3  0  0  0  0  0  0
  -22.5920  -10.2110   20.3230 C   0  0  0  0  0  3  0  0  0  0  0  0
  -21.3820   -6.9290   21.4220 O   0  0  0  0  0  0  0  0  0  0  0  0
  -21.3250   -6.1270   22.5330 C   0  0  0  0  0  0  0  0  0  0  0  0
  -20.9300   -6.6280   23.7930 C   0  0  0  0  0  3  0  0  0  0  0  0
  -20.8160   -5.7550   24.8940 C   0  0  0  0  0  3  0  0  0  0  0  0
  -21.0880   -4.3820   24.7360 C   0  0  0  0  0  0  0  0  0  0  0  0
  -21.4740   -3.8800   23.4810 C   0  0  0  0  0  3  0  0  0  0  0  0
  -21.5900   -4.7510   22.3820 C   0  0  0  0  0  0  0  0  0  0  0  0
  -21.9430   -4.2590   21.1700 F   0  0  0  0  0  0  0  0  0  0  0  0
  -20.9730   -3.5410   25.7900 F   0  0  0  0  0  0  0  0  0  0  0  0
  -22.6830  -13.5280   21.1890 C   0  0  0  0  0  0  0  0  0  0  0  0
  -21.8910  -12.8600   22.0190 N   0  0  0  0  0  0  0  0  0  0  0  0
  -22.3040  -14.5600   20.6360 O   0  0  0  0  0  0  0  0  0  0  0  0
  -22.2080  -12.0250   22.4860 H   0  0  0  0  0  0  0  0  0  0  0  0
  -20.9510  -13.1900   22.1880 H   0  0  0  0  0  0  0  0  0  0  0  0
  -25.3930  -15.1240   20.5300 N   0  0  0  0  0  0  0  0  0  0  0  0
  -24.6320  -15.7930   20.6000 H   0  0  0  0  0  0  0  0  0  0  0  0
  -26.2570  -15.5420   20.2160 H   0  0  0  0  0  0  0  0  0  0  0  0
  -31.5630  -21.7970   20.6020 C   0  0  0  0  0  3  0  0  0  0  0  0
  -33.1620  -23.4740   20.2790 C   0  0  0  0  0  3  0  0  0  0  0  0
  -32.3710  -23.7770   21.5520 C   0  0  0  0  0  3  0  0  0  0  0  0
  -32.5410  -22.2320   19.8080 N   0  0  0  0  0  0  0  0  0  0  0  0
  -31.4070  -22.6700   21.6020 N   0  0  0  0  0  0  0  0  0  0  0  0
  -32.8130  -21.7640   18.9500 H   0  0  0  0  0  0  0  0  0  0  0  0
  -30.7840  -22.5190   22.3880 H   0  0  0  0  0  0  0  0  0  0  0  0
  -28.5540  -21.5200   19.8440 O   0  0  0  0  0  0  0  0  0  0  0  0
  -28.8190  -23.0830   19.8880 C   0  0  0  0  0  3  0  0  0  0  0  0
  -27.8100  -24.3990   19.4500 C   0  0  0  0  0  3  0  0  0  0  0  0
  -28.0330  -25.9540   19.6360 O   0  0  0  0  0  0  0  0  0  0  0  0
  -24.4240  -31.5580   22.8940 C   0  0  0  0  0  0  0  0  0  0  0  0
  -26.9640  -26.9410   19.6290 C   0  0  0  0  0  0  0  0  0  0  0  0
  -23.1860  -30.1710   21.2760 C   0  0  0  0  0  3  0  0  0  0  0  0
  -24.6030  -28.6630   19.7420 C   0  0  0  0  0  0  0  0  0  0  0  0
  -25.7240  -30.4880   21.0080 C   0  0  0  0  0  2  0  0  0  0  0  0
  -25.7990  -29.1100   20.3170 C   0  0  0  0  0  0  0  0  0  0  0  0
  -26.9770  -28.2650   20.2450 C   0  0  0  0  0  3  0  0  0  0  0  0
  -25.7400  -26.6130   19.0070 C   0  0  0  0  0  3  0  0  0  0  0  0
  -24.5890  -27.4330   19.0670 C   0  0  0  0  0  3  0  0  0  0  0  0
  -23.3630  -29.5370   19.8690 C   0  0  0  0  0  2  0  0  0  0  0  0
  -24.4670  -30.7640   21.7800 N   0  0  0  0  0  0  0  0  0  0  0  0
  -23.3560  -31.8060   23.4740 O   0  0  0  0  0  0  0  0  0  0  0  0
  -22.5680  -29.1300   22.2430 C   0  0  0  0  0  0  0  0  0  0  0  0
  -21.2380  -28.9420   22.1790 N   0  0  0  0  0  0  0  0  0  0  0  0
  -23.2890  -28.4960   23.0170 O   0  0  0  0  0  0  0  0  0  0  0  0
  -20.7100  -29.5130   21.5330 H   0  0  0  0  0  0  0  0  0  0  0  0
  -17.9070  -27.6470   22.7960 C   0  0  0  0  0  0  0  0  0  0  0  0
  -20.4690  -27.9700   22.9620 C   0  0  0  0  0  3  0  0  0  0  0  0
  -20.5800  -26.5520   22.3560 C   0  0  0  0  0  2  0  0  0  0  0  0
  -19.4460  -26.2220   21.3800 C   0  0  0  0  0  2  0  0  0  0  0  0
  -18.0890  -26.3180   22.0830 C   0  0  0  0  0  2  0  0  0  0  0  0
  -19.0240  -28.4300   23.1950 C   0  0  0  0  0  0  0  0  0  0  0  0
  -18.8000  -29.6720   23.8250 C   0  0  0  0  0  3  0  0  0  0  0  0
  -17.4910  -30.1370   24.0550 C   0  0  0  0  0  3  0  0  0  0  0  0
  -16.3900  -29.3520   23.6710 C   0  0  0  0  0  3  0  0  0  0  0  0
  -16.5990  -28.1090   23.0480 C   0  0  0  0  0  3  0  0  0  0  0  0
  -25.7140  -32.2080   23.4800 C   0  0  0  0  0  3  0  0  0  0  0  0
  -26.3270  -31.3890   24.6830 C   0  0  1  0  0  0  0  0  0  0  0  0
  -25.3070  -31.0640   25.8020 C   0  0  0  0  0  1  0  0  0  0  0  0
  -26.9230  -30.0500   24.1930 C   0  0  0  0  0  1  0  0  0  0  0  0
  -27.4970  -32.1830   25.3120 C   0  0  0  0  0  1  0  0  0  0  0  0
  -25.3720  -33.5740   23.9110 N   0  0  0  0  0  0  0  0  0  0  0  0
  -25.6770  -34.6900   23.2330 C   0  0  0  0  0  0  0  0  0  0  0  0
  -26.3430  -34.6740   22.1940 O   0  0  0  0  0  0  0  0  0  0  0  0
  -24.7710  -33.6550   24.7180 H   0  0  0  0  0  0  0  0  0  0  0  0
  -23.9180  -36.4770   23.0160 C   0  0  0  0  0  1  0  0  0  0  0  0
  -25.1670  -36.0320   23.7940 C   0  0  0  0  0  3  0  0  0  0  0  0
  -27.2880  -36.8880   24.6880 C   0  0  0  0  0  1  0  0  0  0  0  0
  -26.1820  -37.1080   23.7600 N   0  0  0  0  0  0  0  0  0  0  0  0
  -25.7610  -38.0070   23.9770 H   0  0  0  0  0  0  0  0  0  0  0  0
  1  2  1  0
  3  5  1  0
  4  1  2  0
  5 15  1  0
  5  2  2  0
  6  3  2  0
  6  4  1  0
  7 13  1  0
  8 13  1  0
  9 10  1  0
  9  8  1  0
 11 10  1  0
 11 20  1  0
 11 12  1  0
 13 12  1  0
 14  7  2  0
 15 16  1  0
 15  7  1  0
 17 18  2  0
 18 37  1  0
 19 18  1  0
 19 22  1  0
 20 17  1  0
 20 21  1  0
 21 19  2  0
 22 23  1  0
 23 24  2  0
 25 28  1  0
 25 24  1  0
 26 25  2  0
 27 26  1  0
 27 22  2  0
 28 29  1  0
 29 30  1  0
 30 31  2  0
 32 31  1  0
 32 36  1  0
 33 32  2  0
 34 29  2  0
 34 33  1  0
 35 34  1  0
 37 38  1  0
 38 41  1  0
 38 40  1  0
 39 37  2  0
 42 43  1  0
 42 17  1  0
 44 42  1  0
 45  4  1  0
 45 49  1  0
 46 47  2  0
 47 49  1  0
 48 46  1  0
 48 45  1  0
 49 51  1  0
 50 48  1  0
 52 53  1  0
 52  6  1  0
 54 55  1  0
 54 53  2  0
 56 67  2  0
 57 55  1  0
 57 62  1  0
 58 66  1  0
 58 68  1  0
 59 65  1  0
 59 61  1  0
 60 66  1  0
 61 60  1  0
 62 61  2  0
 63 64  1  0
 63 57  2  0
 64 59  2  0
 65 58  1  0
 66 56  1  0
 68 70  2  0
 69 68  1  0
 71 69  1  0
 72 81  2  0
 72 77  1  0
 73 69  1  0
 73 77  1  0
 74 73  1  0
 75 76  1  0
 75 74  1  0
 76 72  1  0
 77 78  2  0
 78 79  1  0
 80 79  2  0
 81 80  1  0
 82 56  1  0
 82 87  1  0
 82 83  1  0
 83 86  1  1
 83 84  1  0
 85 83  1  0
 87 90  1  0
 88 92  1  0
 88 87  1  0
 89 88  2  0
 92 91  1  0
 94 92  1  0
 94 95  1  0
 94 93  1  0
M  ISO  4   7 100  15 100  54 101  55 101
M  END
>  <TORSDO>  (61) 
F 20

>  <SCORE>  (61) 
-11.791

>  <name>  (61) 
60

>  <ligand_id>  (61) 
60

>  <original_smiles>  (61) 
[H]c1c([H])c([H])c2c(c1[H])C([H])([H])C([H])([H])C([H])([H])C2([H])N([H])C(=O)C1([H])N(C(=O)C([H])(N([H])C(=O)C([H])(N([H])C([H])([H])[H])C([H])([H])[H])C(C([H])([H])[H])(C([H])([H])[H])C([H])([H])[H])C([H])([H])c2c([H])c(OC([H])([H])C([H])([H])Oc3c([H])c(N([H])C(=O)N4C([H])([H])C([H])([H])C([H])([H])C([H])(n5nc(-c6c([H])c([H])c(Oc7c([H])c([H])c(F)c([H])c7F)c([H])c6[H])c(C(=O)N([H])[H])c5N([H])[H])C4([H])[H])c([H])c([H])c3C3=[N+]([H])C([H])([H])C([H])([H])N3[H])c([H])c([H])c2C1([H])[H]

>  <smiles>  (61) 
[H]c1c([H])c([H])c2c(c1[H])C([H])([H])C([H])([H])C([H])([H])C2([H])N([H])C(=O)C1([H])N(C(=O)C([H])(N([H])C(=O)C([H])(N([H])C([H])([H])[H])C([H])([H])[H])C(C([H])([H])[H])(C([H])([H])[H])C([H])([H])[H])C([H])([H])c2c([H])c(OC([H])([H])C([H])([H])Oc3c([H])c(N([H])C(=O)N4C([H])([H])C([H])([H])C([H])([H])C([H])(n5nc(-c6c([H])c([H])c(Oc7c([H])c([H])c(F)c([H])c7F)c([H])c6[H])c(C(=O)N([H])[H])c5N([H])[H])C4([H])[H])c([H])c([H])c3C3=[N+]([H])C([H])([H])C([H])([H])N3[H])c([H])c([H])c2C1([H])[H]

$$$$
61:0:0
     RDKit          3D

 99107  0  0  1  0  0  0  0  0999 V2000
  -30.9260  -17.3970   21.9820 C   0  0  0  0  0  0  0  0  0  0  0  0
  -31.6050  -18.5430   21.8980 N   0  0  0  0  0  0  0  0  0  0  0  0
  -30.8060  -16.7610   23.0320 O   0  0  0  0  0  0  0  0  0  0  0  0
  -31.6510  -18.9950   20.9940 H   0  0  0  0  0  0  0  0  0  0  0  0
  -32.1190  -19.3130   23.0250 C   0  0  0  0  0  2  0  0  0  0  0  0
  -31.1730  -20.4900   23.3000 C   0  0  0  0  0  2  0  0  0  0  0  0
  -31.1180  -21.3020   22.1310 O   0  0  0  0  0  0  0  0  0  0  0  0
  -30.0970  -22.2910   22.1790 C   0  0  0  0  0  2  0  0  0  0  0  0
  -30.2110  -23.1900   20.9390 C   0  0  0  0  0  2  0  0  0  0  0  0
  -28.9750  -23.8450   20.6790 O   0  0  0  0  0  0  0  0  0  0  0  0
  -29.1150  -24.9300   19.7670 C   0  0  0  0  0  2  0  0  0  0  0  0
  -27.7410  -25.5250   19.4210 C   0  0  0  0  0  2  0  0  0  0  0  0
  -27.8520  -26.9420   19.2980 O   0  0  0  0  0  0  0  0  0  0  0  0
  -24.5030  -31.8310   23.1940 C   0  0  0  0  0  0  0  0  0  0  0  0
  -26.6940  -27.6630   19.4700 C   0  0  0  0  0  0  0  0  0  0  0  0
  -23.1000  -30.6380   21.5420 C   0  0  0  0  0  3  0  0  0  0  0  0
  -24.3590  -29.2110   19.8470 C   0  0  0  0  0  0  0  0  0  0  0  0
  -25.6070  -30.9500   21.1430 C   0  0  0  0  0  2  0  0  0  0  0  0
  -25.5830  -29.6480   20.3690 C   0  0  0  0  0  0  0  0  0  0  0  0
  -26.7530  -28.8840   20.1740 C   0  0  0  0  0  3  0  0  0  0  0  0
  -25.4520  -27.2290   18.9520 C   0  0  0  0  0  3  0  0  0  0  0  0
  -24.2880  -27.9980   19.1390 C   0  0  0  0  0  3  0  0  0  0  0  0
  -23.1570  -30.0950   20.0890 C   0  0  0  0  0  2  0  0  0  0  0  0
  -24.4270  -31.1480   22.0180 N   0  0  0  0  0  0  0  0  0  0  0  0
  -23.4850  -32.0770   23.8570 O   0  0  0  0  0  0  0  0  0  0  0  0
  -22.4990  -29.5450   22.4540 C   0  0  0  0  0  0  0  0  0  0  0  0
  -21.1730  -29.3500   22.3610 N   0  0  0  0  0  0  0  0  0  0  0  0
  -23.2220  -28.8760   23.1980 O   0  0  0  0  0  0  0  0  0  0  0  0
  -20.6510  -29.9480   21.7360 H   0  0  0  0  0  0  0  0  0  0  0  0
  -17.8510  -28.0050   22.8070 C   0  0  0  0  0  0  0  0  0  0  0  0
  -20.3960  -28.3500   23.0930 C   0  0  0  0  0  3  0  0  0  0  0  0
  -20.5560  -26.9480   22.4610 C   0  0  0  0  0  2  0  0  0  0  0  0
  -19.4670  -26.6220   21.4340 C   0  0  0  0  0  2  0  0  0  0  0  0
  -18.0800  -26.6900   22.0800 C   0  0  0  0  0  2  0  0  0  0  0  0
  -18.9390  -28.7910   23.2690 C   0  0  0  0  0  0  0  0  0  0  0  0
  -18.6720  -30.0230   23.9040 C   0  0  0  0  0  3  0  0  0  0  0  0
  -17.3490  -30.4680   24.0870 C   0  0  0  0  0  3  0  0  0  0  0  0
  -16.2750  -29.6770   23.6420 C   0  0  0  0  0  3  0  0  0  0  0  0
  -16.5270  -28.4480   23.0070 C   0  0  0  0  0  3  0  0  0  0  0  0
  -25.8610  -32.3570   23.7510 C   0  0  0  0  0  3  0  0  0  0  0  0
  -25.6580  -33.7480   24.1730 N   0  0  0  0  0  0  0  0  0  0  0  0
  -26.0060  -34.8210   23.4490 C   0  0  0  0  0  0  0  0  0  0  0  0
  -26.6060  -34.7370   22.3740 O   0  0  0  0  0  0  0  0  0  0  0  0
  -25.1200  -33.8910   25.0160 H   0  0  0  0  0  0  0  0  0  0  0  0
  -24.3700  -36.7230   23.2970 C   0  0  0  0  0  1  0  0  0  0  0  0
  -25.6310  -36.2060   24.0080 C   0  0  0  0  0  3  0  0  0  0  0  0
  -27.8550  -36.9260   24.7560 C   0  0  0  0  0  1  0  0  0  0  0  0
  -26.7160  -37.2030   23.8860 N   0  0  0  0  0  0  0  0  0  0  0  0
  -26.3730  -38.1370   24.1000 H   0  0  0  0  0  0  0  0  0  0  0  0
  -26.4220  -31.4890   24.9430 C   0  0  1  0  0  0  0  0  0  0  0  0
  -25.4000  -31.2660   26.0850 C   0  0  0  0  0  1  0  0  0  0  0  0
  -26.8800  -30.1020   24.4360 C   0  0  0  0  0  1  0  0  0  0  0  0
  -27.6700  -32.1730   25.5490 C   0  0  0  0  0  1  0  0  0  0  0  0
  -30.2290  -16.9280   20.6960 C   0  0  0  0  0  3  0  0  0  0  0  0
  -30.6660  -14.5320   20.1760 C   0  0  0  0  0  0  0  0  0  0  0  0
  -30.3710  -12.3410   19.1000 C   0  0  0  0  0  2  0  0  0  0  0  0
  -29.3810  -12.5050   17.9270 C   0  0  0  0  0  2  0  0  0  0  0  0
  -27.9210  -12.3790   18.4100 C   0  0  0  0  0  2  0  0  0  0  0  0
  -27.6240  -13.2570   19.6540 C   0  0  0  0  0  3  0  0  0  0  0  0
  -28.7130  -13.0470   20.7300 C   0  0  0  0  0  2  0  0  0  0  0  0
  -30.0230  -13.3400   20.1180 N   0  0  0  0  0  0  0  0  0  0  0  0
  -31.7390  -14.7660   19.6090 O   0  0  0  0  0  0  0  0  0  0  0  0
  -29.9560  -15.4970   20.7650 N   0  0  0  0  0  0  0  0  0  0  0  0
  -29.1180  -15.2120   21.2450 H   0  0  0  0  0  0  0  0  0  0  0  0
  -25.2720  -13.8980   20.4910 C   0  0  0  0  0  0  0  0  0  0  0  0
  -24.2050  -13.1370   20.8880 C   0  0  0  0  0  0  0  0  0  0  0  0
  -24.6330  -11.7770   20.7880 C   0  0  0  0  0  0  0  0  0  0  0  0
  -26.2850  -13.0020   20.1830 N   0  0  0  0  0  0  0  0  0  0  0  0
  -25.9040  -11.7210   20.4140 N   0  0  0  0  0  0  0  0  0  0  0  0
  -23.8890  -10.5250   20.9710 C   0  0  0  0  0  0  0  0  0  0  0  0
  -24.3470   -9.5140   21.8440 C   0  0  0  0  0  3  0  0  0  0  0  0
  -23.6060   -8.3270   22.0160 C   0  0  0  0  0  3  0  0  0  0  0  0
  -22.3900   -8.1410   21.3150 C   0  0  0  0  0  0  0  0  0  0  0  0
  -21.9490   -9.1400   20.4290 C   0  0  0  0  0  3  0  0  0  0  0  0
  -22.6930  -10.3200   20.2550 C   0  0  0  0  0  3  0  0  0  0  0  0
  -21.6150   -7.0100   21.4000 O   0  0  0  0  0  0  0  0  0  0  0  0
  -21.6110   -6.2240   22.5250 C   0  0  0  0  0  0  0  0  0  0  0  0
  -21.2260   -6.7300   23.7860 C   0  0  0  0  0  3  0  0  0  0  0  0
  -21.1680   -5.8700   24.9020 C   0  0  0  0  0  3  0  0  0  0  0  0
  -21.4870   -4.5070   24.7580 C   0  0  0  0  0  0  0  0  0  0  0  0
  -21.8640   -4.0000   23.5010 C   0  0  0  0  0  3  0  0  0  0  0  0
  -21.9240   -4.8570   22.3880 C   0  0  0  0  0  0  0  0  0  0  0  0
  -22.2680   -4.3590   21.1760 F   0  0  0  0  0  0  0  0  0  0  0  0
  -21.4240   -3.6780   25.8260 F   0  0  0  0  0  0  0  0  0  0  0  0
  -22.8340  -13.6340   21.2480 C   0  0  0  0  0  0  0  0  0  0  0  0
  -22.1390  -12.9280   22.1330 N   0  0  0  0  0  0  0  0  0  0  0  0
  -22.3890  -14.6810   20.7780 O   0  0  0  0  0  0  0  0  0  0  0  0
  -22.5130  -12.0810   22.5350 H   0  0  0  0  0  0  0  0  0  0  0  0
  -21.2210  -13.2410   22.4150 H   0  0  0  0  0  0  0  0  0  0  0  0
  -25.4590  -15.2690   20.3500 N   0  0  0  0  0  0  0  0  0  0  0  0
  -24.7070  -15.9320   20.5020 H   0  0  0  0  0  0  0  0  0  0  0  0
  -26.2910  -15.6930   19.9670 H   0  0  0  0  0  0  0  0  0  0  0  0
  -28.8780  -17.6840   20.5590 C   0  0  0  0  0  2  0  0  0  0  0  0
  -28.7480  -20.3730   17.1530 C   0  0  0  0  0  3  0  0  0  0  0  0
  -29.3180  -20.8000   18.3680 C   0  0  0  0  0  3  0  0  0  0  0  0
  -28.2120  -19.0740   17.0460 C   0  0  0  0  0  3  0  0  0  0  0  0
  -29.3540  -19.9270   19.4740 C   0  0  0  0  0  3  0  0  0  0  0  0
  -28.2500  -18.2020   18.1510 C   0  0  0  0  0  3  0  0  0  0  0  0
  -28.8230  -18.6250   19.3690 C   0  0  0  0  0  0  0  0  0  0  0  0
  1  3  2  0
  2  1  1  0
  2  5  1  0
  4  2  1  0
  5  6  1  0
  7  8  1  0
  7  6  1  0
  9  8  1  0
 10  9  1  0
 11 10  1  0
 12 11  1  0
 13 12  1  0
 13 15  1  0
 14 25  2  0
 15 20  1  0
 16 24  1  0
 16 26  1  0
 17 23  1  0
 17 19  1  0
 18 24  1  0
 19 18  1  0
 20 19  2  0
 21 22  1  0
 21 15  2  0
 22 17  2  0
 23 16  1  0
 24 14  1  0
 26 28  2  0
 27 26  1  0
 29 27  1  0
 30 39  2  0
 30 35  1  0
 31 27  1  0
 31 35  1  0
 32 31  1  0
 33 34  1  0
 33 32  1  0
 34 30  1  0
 35 36  2  0
 36 37  1  0
 38 37  2  0
 39 38  1  0
 40 14  1  0
 40 41  1  0
 40 50  1  0
 41 44  1  0
 42 46  1  0
 42 41  1  0
 43 42  2  0
 46 45  1  0
 48 46  1  0
 48 49  1  0
 48 47  1  0
 50 53  1  1
 50 51  1  0
 52 50  1  0
 54 93  1  0
 54 63  1  0
 54  1  1  0
 55 63  1  0
 56 61  1  0
 57 58  1  0
 57 56  1  0
 59 58  1  0
 59 68  1  0
 59 60  1  0
 61 55  1  0
 61 60  1  0
 62 55  2  0
 63 64  1  0
 65 66  2  0
 66 85  1  0
 67 66  1  0
 67 70  1  0
 68 69  1  0
 68 65  1  0
 69 67  2  0
 70 71  1  0
 71 72  2  0
 73 76  1  0
 73 72  1  0
 74 73  2  0
 75 74  1  0
 75 70  2  0
 76 77  1  0
 77 78  1  0
 78 79  2  0
 80 79  1  0
 80 84  1  0
 81 80  2  0
 82 77  2  0
 82 81  1  0
 83 82  1  0
 85 86  1  0
 86 89  1  0
 86 88  1  0
 87 85  2  0
 90 65  1  0
 90 91  1  0
 92 90  1  0
 94 95  1  0
 95 97  2  0
 96 94  2  0
 96 98  1  0
 98 99  2  0
 99 97  1  0
 99 93  1  0
M  ISO  4  12 101  13 101  55 100  63 100
M  END
>  <TORSDO>  (62) 
F 27

>  <SCORE>  (62) 
-11.796

>  <name>  (62) 
61

>  <ligand_id>  (62) 
61

>  <original_smiles>  (62) 
[H]c1c([H])c([H])c(C([H])([H])C([H])(C(=O)N([H])C([H])([H])C([H])([H])OC([H])([H])C([H])([H])OC([H])([H])C([H])([H])Oc2c([H])c([H])c3c(c2[H])C([H])([H])N(C(=O)C([H])(N([H])C(=O)C([H])(N([H])C([H])([H])[H])C([H])([H])[H])C(C([H])([H])[H])(C([H])([H])[H])C([H])([H])[H])C([H])(C(=O)N([H])C2([H])c4c([H])c([H])c([H])c([H])c4C([H])([H])C([H])([H])C2([H])[H])C3([H])[H])N([H])C(=O)N2C([H])([H])C([H])([H])C([H])([H])C([H])(n3nc(-c4c([H])c([H])c(Oc5c([H])c([H])c(F)c([H])c5F)c([H])c4[H])c(C(=O)N([H])[H])c3N([H])[H])C2([H])[H])c([H])c1[H]

>  <smiles>  (62) 
[H]c1c([H])c([H])c(C([H])([H])C([H])(C(=O)N([H])C([H])([H])C([H])([H])OC([H])([H])C([H])([H])OC([H])([H])C([H])([H])Oc2c([H])c([H])c3c(c2[H])C([H])([H])N(C(=O)C([H])(N([H])C(=O)C([H])(N([H])C([H])([H])[H])C([H])([H])[H])C(C([H])([H])[H])(C([H])([H])[H])C([H])([H])[H])C([H])(C(=O)N([H])C2([H])c4c([H])c([H])c([H])c([H])c4C([H])([H])C([H])([H])C2([H])[H])C3([H])[H])N([H])C(=O)N2C([H])([H])C([H])([H])C([H])([H])C([H])(n3nc(-c4c([H])c([H])c(Oc5c([H])c([H])c(F)c([H])c5F)c([H])c4[H])c(C(=O)N([H])[H])c3N([H])[H])C2([H])[H])c([H])c1[H]

$$$$
62:0:0
     RDKit          3D

 85 92  0  0  1  0  0  0  0  0999 V2000
  -30.2270  -16.0170   20.2530 C   0  0  0  0  0  0  0  0  0  0  0  0
  -30.4030  -13.3690   19.5400 C   0  0  0  0  0  2  0  0  0  0  0  0
  -29.5800  -12.7500   18.3650 C   0  0  0  0  0  2  0  0  0  0  0  0
  -28.1800  -12.3320   18.8280 C   0  0  0  0  0  2  0  0  0  0  0  0
  -27.5970  -13.3870   19.7890 C   0  0  0  0  0  3  0  0  0  0  0  0
  -28.5820  -13.8970   20.8790 C   0  0  0  0  0  2  0  0  0  0  0  0
  -29.7000  -14.6070   20.1820 N   0  0  0  0  0  0  0  0  0  0  0  0
  -31.4630  -15.8360   20.1240 O   0  0  0  0  0  0  0  0  0  0  0  0
  -27.9230  -23.1840   19.8070 C   0  0  0  0  0  2  0  0  0  0  0  0
  -28.6960  -18.5940   20.9970 C   0  0  0  0  0  2  0  0  0  0  0  0
  -30.1840  -18.9680   19.5930 C   0  0  0  0  0  2  0  0  0  0  0  0
  -28.1850  -20.3550   20.8230 C   0  0  0  0  0  2  0  0  0  0  0  0
  -29.3930  -20.5550   19.2050 C   0  0  0  0  0  2  0  0  0  0  0  0
  -29.6010  -17.5400   20.1340 N   0  0  0  0  0  0  0  0  0  0  0  0
  -28.7840  -21.7380   20.1550 N   0  0  0  0  0  0  0  0  0  0  0  0
  -26.8160  -22.9540   19.3130 O   0  0  0  0  0  1  0  0  0  0  0  0
  -25.2350  -13.8970   20.5320 C   0  0  0  0  0  0  0  0  0  0  0  0
  -24.1740  -13.1150   20.8880 C   0  0  0  0  0  0  0  0  0  0  0  0
  -24.6500  -11.7670   20.8710 C   0  0  0  0  0  0  0  0  0  0  0  0
  -26.2860  -13.0310   20.3070 N   0  0  0  0  0  0  0  0  0  0  0  0
  -25.9480  -11.7390   20.5750 N   0  0  0  0  0  0  0  0  0  0  0  0
  -23.9180  -10.5050   21.0580 C   0  0  0  0  0  0  0  0  0  0  0  0
  -24.3390   -9.5360   21.9940 C   0  0  0  0  0  3  0  0  0  0  0  0
  -23.6020   -8.3440   22.1740 C   0  0  0  0  0  3  0  0  0  0  0  0
  -22.4280   -8.1150   21.4180 C   0  0  0  0  0  0  0  0  0  0  0  0
  -22.0240   -9.0730   20.4710 C   0  0  0  0  0  3  0  0  0  0  0  0
  -22.7630  -10.2540   20.2910 C   0  0  0  0  0  3  0  0  0  0  0  0
  -21.6650   -6.9750   21.5070 O   0  0  0  0  0  0  0  0  0  0  0  0
  -21.6160   -6.2280   22.6560 C   0  0  0  0  0  0  0  0  0  0  0  0
  -21.2140   -6.7850   23.8890 C   0  0  0  0  0  3  0  0  0  0  0  0
  -21.1090   -5.9670   25.0320 C   0  0  0  0  0  3  0  0  0  0  0  0
  -21.3980   -4.5920   24.9420 C   0  0  0  0  0  0  0  0  0  0  0  0
  -21.7930   -4.0340   23.7130 C   0  0  0  0  0  3  0  0  0  0  0  0
  -21.8980   -4.8500   22.5730 C   0  0  0  0  0  0  0  0  0  0  0  0
  -22.2590   -4.3020   21.3880 F   0  0  0  0  0  0  0  0  0  0  0  0
  -21.2910   -3.8030   26.0370 F   0  0  0  0  0  0  0  0  0  0  0  0
  -22.7730  -13.5920   21.1290 C   0  0  0  0  0  0  0  0  0  0  0  0
  -22.0360  -12.9150   22.0000 N   0  0  0  0  0  0  0  0  0  0  0  0
  -22.3440  -14.6070   20.5800 O   0  0  0  0  0  0  0  0  0  0  0  0
  -22.3960  -12.0940   22.4640 H   0  0  0  0  0  0  0  0  0  0  0  0
  -21.0950  -13.2210   22.2060 H   0  0  0  0  0  0  0  0  0  0  0  0
  -25.3920  -15.2670   20.3470 N   0  0  0  0  0  0  0  0  0  0  0  0
  -24.6210  -15.9180   20.4510 H   0  0  0  0  0  0  0  0  0  0  0  0
  -26.2450  -15.7130   20.0310 H   0  0  0  0  0  0  0  0  0  0  0  0
  -28.1580  -25.1760   20.0130 O   0  0  0  0  0  1  0  0  0  0  0  0
  -24.7350  -31.7630   22.9760 C   0  0  0  0  0  0  0  0  0  0  0  0
  -27.2410  -26.5140   19.9540 C   0  0  0  0  0  0  0  0  0  0  0  0
  -23.5440  -30.3600   21.3520 C   0  0  0  0  0  3  0  0  0  0  0  0
  -24.9860  -28.6840   19.9260 C   0  0  0  0  0  0  0  0  0  0  0  0
  -26.1310  -30.4470   21.2300 C   0  0  0  0  0  2  0  0  0  0  0  0
  -26.1900  -28.9940   20.5680 C   0  0  0  0  0  0  0  0  0  0  0  0
  -27.2850  -27.9420   20.5520 C   0  0  0  0  0  3  0  0  0  0  0  0
  -25.9980  -26.4780   19.2500 C   0  0  0  0  0  3  0  0  0  0  0  0
  -24.9420  -27.4550   19.2420 C   0  0  0  0  0  3  0  0  0  0  0  0
  -23.7840  -29.6550   19.9810 C   0  0  0  0  0  2  0  0  0  0  0  0
  -24.8300  -30.8960   21.9030 N   0  0  0  0  0  0  0  0  0  0  0  0
  -23.6430  -32.0670   23.4880 O   0  0  0  0  0  0  0  0  0  0  0  0
  -22.8230  -29.3940   22.3330 C   0  0  0  0  0  0  0  0  0  0  0  0
  -21.4840  -29.2650   22.2430 N   0  0  0  0  0  0  0  0  0  0  0  0
  -23.4850  -28.7550   23.1540 O   0  0  0  0  0  0  0  0  0  0  0  0
  -20.9950  -29.8310   21.5620 H   0  0  0  0  0  0  0  0  0  0  0  0
  -18.0900  -28.0990   22.8540 C   0  0  0  0  0  0  0  0  0  0  0  0
  -20.6640  -28.3300   23.0270 C   0  0  0  0  0  3  0  0  0  0  0  0
  -20.7220  -26.9060   22.4260 C   0  0  0  0  0  2  0  0  0  0  0  0
  -19.5820  -26.6180   21.4440 C   0  0  0  0  0  2  0  0  0  0  0  0
  -18.2250  -26.7650   22.1390 C   0  0  0  0  0  2  0  0  0  0  0  0
  -19.2340  -28.8410   23.2560 C   0  0  0  0  0  0  0  0  0  0  0  0
  -19.0480  -30.0860   23.8940 C   0  0  0  0  0  3  0  0  0  0  0  0
  -17.7550  -30.5920   24.1270 C   0  0  0  0  0  3  0  0  0  0  0  0
  -16.6280  -29.8490   23.7360 C   0  0  0  0  0  3  0  0  0  0  0  0
  -16.7970  -28.6030   23.1060 C   0  0  0  0  0  3  0  0  0  0  0  0
  -25.9920  -32.4300   23.6130 C   0  0  0  0  0  3  0  0  0  0  0  0
  -25.6410  -33.8100   24.0110 N   0  0  0  0  0  0  0  0  0  0  0  0
  -25.9320  -34.9190   23.3140 C   0  0  0  0  0  0  0  0  0  0  0  0
  -26.5750  -34.8880   22.2630 O   0  0  0  0  0  0  0  0  0  0  0  0
  -25.0600  -33.9050   24.8310 H   0  0  0  0  0  0  0  0  0  0  0  0
  -24.1560  -36.7010   23.1320 C   0  0  0  0  0  1  0  0  0  0  0  0
  -25.4380  -36.2750   23.8660 C   0  0  0  0  0  3  0  0  0  0  0  0
  -27.5810  -37.1760   24.6620 C   0  0  0  0  0  1  0  0  0  0  0  0
  -26.4440  -37.3560   23.7640 N   0  0  0  0  0  0  0  0  0  0  0  0
  -26.0240  -38.2600   23.9580 H   0  0  0  0  0  0  0  0  0  0  0  0
  -26.5380  -31.6420   24.8700 C   0  0  1  0  0  0  0  0  0  0  0  0
  -25.4640  -31.3670   25.9490 C   0  0  0  0  0  1  0  0  0  0  0  0
  -27.1390  -30.2810   24.4580 C   0  0  0  0  0  1  0  0  0  0  0  0
  -27.6850  -32.4430   25.5320 C   0  0  0  0  0  1  0  0  0  0  0  0
  2  7  1  0
  3  4  1  0
  3  2  1  0
  5  4  1  0
  5 20  1  0
  5  6  1  0
  7  1  1  0
  7  6  1  0
  8  1  2  0
  9 15  1  0
 11 14  1  0
 12 10  1  0
 13 11  1  0
 13 15  1  0
 14  1  1  0
 14 10  1  0
 15 12  1  0
 16  9  1  0
 17 18  2  0
 18 37  1  0
 19 18  1  0
 19 22  1  0
 20 17  1  0
 20 21  1  0
 21 19  2  0
 22 23  1  0
 23 24  2  0
 25 28  1  0
 25 24  1  0
 26 25  2  0
 27 26  1  0
 27 22  2  0
 28 29  1  0
 29 30  1  0
 30 31  2  0
 32 31  1  0
 32 36  1  0
 33 32  2  0
 34 29  2  0
 34 33  1  0
 35 34  1  0
 37 38  1  0
 38 41  1  0
 38 40  1  0
 39 37  2  0
 42 43  1  0
 42 17  1  0
 44 42  1  0
 46 57  2  0
 47 45  1  0
 47 52  1  0
 48 56  1  0
 48 58  1  0
 49 55  1  0
 49 51  1  0
 50 56  1  0
 51 50  1  0
 52 51  2  0
 53 47  2  0
 54 53  1  0
 54 49  2  0
 55 48  1  0
 56 46  1  0
 58 60  2  0
 59 58  1  0
 61 59  1  0
 62 71  2  0
 62 67  1  0
 63 59  1  0
 63 67  1  0
 64 63  1  0
 65 66  1  0
 65 64  1  0
 66 62  1  0
 67 68  2  0
 68 69  1  0
 70 69  2  0
 71 70  1  0
 72 46  1  0
 72 73  1  0
 72 82  1  0
 73 76  1  0
 74 78  1  0
 74 73  1  0
 75 74  2  0
 78 77  1  0
 80 78  1  0
 80 81  1  0
 80 79  1  0
 82 85  1  1
 82 83  1  0
 84 82  1  0
M  ISO  4   1 100   9 101  14 100  45 101
M  END
>  <TORSDO>  (63) 
F 15

>  <SCORE>  (63) 
-15.661

>  <name>  (63) 
62

>  <ligand_id>  (63) 
62

>  <original_smiles>  (63) 
[H]c1c([H])c([H])c2c(c1[H])C([H])([H])C([H])([H])C([H])([H])C2([H])N([H])C(=O)C1([H])N(C(=O)C([H])(N([H])C(=O)C([H])(N([H])C([H])([H])[H])C([H])([H])[H])C(C([H])([H])[H])(C([H])([H])[H])C([H])([H])[H])C([H])([H])c2c([H])c(OC(=O)N3C([H])([H])C([H])([H])N(C(=O)N4C([H])([H])C([H])([H])C([H])([H])C([H])(n5nc(-c6c([H])c([H])c(Oc7c([H])c([H])c(F)c([H])c7F)c([H])c6[H])c(C(=O)N([H])[H])c5N([H])[H])C4([H])[H])C([H])([H])C3([H])[H])c([H])c([H])c2C1([H])[H]

>  <smiles>  (63) 
[H]c1c([H])c([H])c2c(c1[H])C([H])([H])C([H])([H])C([H])([H])C2([H])N([H])C(=O)C1([H])N(C(=O)C([H])(N([H])C(=O)C([H])(N([H])C([H])([H])[H])C([H])([H])[H])C(C([H])([H])[H])(C([H])([H])[H])C([H])([H])[H])C([H])([H])c2c([H])c(OC(=O)N3C([H])([H])C([H])([H])N(C(=O)N4C([H])([H])C([H])([H])C([H])([H])C([H])(n5nc(-c6c([H])c([H])c(Oc7c([H])c([H])c(F)c([H])c7F)c([H])c6[H])c(C(=O)N([H])[H])c5N([H])[H])C4([H])[H])C([H])([H])C3([H])[H])c([H])c([H])c2C1([H])[H]

$$$$
63:0:0
     RDKit          3D

 87 94  0  0  1  0  0  0  0  0999 V2000
  -29.1130  -22.7980   20.1480 O   0  0  0  0  0  0  0  0  0  0  0  0
  -29.2650  -24.1800   20.5710 C   0  0  0  0  0  2  0  0  0  0  0  0
  -28.1950  -25.1410   19.9510 C   0  0  0  0  0  2  0  0  0  0  0  0
  -28.3440  -26.5690   20.2300 O   0  0  0  0  0  0  0  0  0  0  0  0
  -24.6030  -31.8820   23.2540 C   0  0  0  0  0  0  0  0  0  0  0  0
  -27.2030  -27.3700   20.1730 C   0  0  0  0  0  0  0  0  0  0  0  0
  -23.3880  -30.4910   21.6140 C   0  0  0  0  0  3  0  0  0  0  0  0
  -24.8290  -28.9470   20.1790 C   0  0  0  0  0  0  0  0  0  0  0  0
  -25.9230  -30.8160   21.4190 C   0  0  0  0  0  2  0  0  0  0  0  0
  -25.9960  -29.4430   20.7740 C   0  0  0  0  0  0  0  0  0  0  0  0
  -27.1840  -28.6630   20.7670 C   0  0  0  0  0  3  0  0  0  0  0  0
  -26.0140  -26.9200   19.5460 C   0  0  0  0  0  3  0  0  0  0  0  0
  -24.8370  -27.6890   19.5590 C   0  0  0  0  0  3  0  0  0  0  0  0
  -23.5920  -29.8180   20.2320 C   0  0  0  0  0  2  0  0  0  0  0  0
  -24.6560  -31.0790   22.1530 N   0  0  0  0  0  0  0  0  0  0  0  0
  -23.5240  -32.1610   23.7950 O   0  0  0  0  0  0  0  0  0  0  0  0
  -22.7290  -29.4710   22.5730 C   0  0  0  0  0  0  0  0  0  0  0  0
  -21.4040  -29.2960   22.4460 N   0  0  0  0  0  0  0  0  0  0  0  0
  -23.4090  -28.8420   23.3890 O   0  0  0  0  0  0  0  0  0  0  0  0
  -20.9160  -29.8550   21.7610 H   0  0  0  0  0  0  0  0  0  0  0  0
  -18.0240  -28.1080   22.9390 C   0  0  0  0  0  0  0  0  0  0  0  0
  -20.5820  -28.3620   23.2170 C   0  0  0  0  0  3  0  0  0  0  0  0
  -20.6820  -26.9290   22.6440 C   0  0  0  0  0  2  0  0  0  0  0  0
  -19.5830  -26.6070   21.6270 C   0  0  0  0  0  2  0  0  0  0  0  0
  -18.2000  -26.7570   22.2670 C   0  0  0  0  0  2  0  0  0  0  0  0
  -19.1430  -28.8680   23.3700 C   0  0  0  0  0  0  0  0  0  0  0  0
  -18.9250  -30.1340   23.9590 C   0  0  0  0  0  3  0  0  0  0  0  0
  -17.6220  -30.6390   24.1180 C   0  0  0  0  0  3  0  0  0  0  0  0
  -16.5170  -29.8760   23.7040 C   0  0  0  0  0  3  0  0  0  0  0  0
  -16.7190  -28.6120   23.1200 C   0  0  0  0  0  3  0  0  0  0  0  0
  -25.8930  -32.5060   23.8720 C   0  0  0  0  0  3  0  0  0  0  0  0
  -26.4080  -31.7310   25.1470 C   0  0  1  0  0  0  0  0  0  0  0  0
  -25.3180  -31.5010   26.2190 C   0  0  0  0  0  1  0  0  0  0  0  0
  -26.9820  -30.3500   24.7520 C   0  0  0  0  0  1  0  0  0  0  0  0
  -27.5640  -32.5190   25.8080 C   0  0  0  0  0  1  0  0  0  0  0  0
  -25.5920  -33.9060   24.2030 N   0  0  0  0  0  0  0  0  0  0  0  0
  -25.9250  -34.9570   23.4410 C   0  0  0  0  0  0  0  0  0  0  0  0
  -26.5890  -34.8480   22.4060 O   0  0  0  0  0  0  0  0  0  0  0  0
  -25.0030  -34.0650   25.0080 H   0  0  0  0  0  0  0  0  0  0  0  0
  -24.2020  -36.7560   23.0930 C   0  0  0  0  0  1  0  0  0  0  0  0
  -25.4460  -36.3470   23.8980 C   0  0  0  0  0  3  0  0  0  0  0  0
  -27.5900  -37.2240   24.7140 C   0  0  0  0  0  1  0  0  0  0  0  0
  -26.4820  -37.3950   23.7780 N   0  0  0  0  0  0  0  0  0  0  0  0
  -26.0800  -38.3170   23.9270 H   0  0  0  0  0  0  0  0  0  0  0  0
  -29.8660  -21.8260   20.9130 C   0  0  0  0  0  2  0  0  0  0  0  0
  -29.9940  -20.3890   20.2800 C   0  0  0  0  0  2  0  0  0  0  0  0
  -29.6060  -19.3250   21.1790 O   0  0  0  0  0  0  0  0  0  0  0  0
  -30.3560  -18.0820   21.1900 C   0  0  0  0  0  2  0  0  0  0  0  0
  -29.9920  -17.0260   20.1000 C   0  0  0  0  0  2  0  0  0  0  0  0
  -30.6580  -14.5630   20.1340 C   0  0  0  0  0  0  0  0  0  0  0  0
  -30.3320  -12.3860   19.0110 C   0  0  0  0  0  2  0  0  0  0  0  0
  -29.3420  -12.5990   17.8440 C   0  0  0  0  0  2  0  0  0  0  0  0
  -27.8850  -12.4670   18.3310 C   0  0  0  0  0  2  0  0  0  0  0  0
  -27.6040  -13.2910   19.6150 C   0  0  0  0  0  3  0  0  0  0  0  0
  -28.7030  -13.0590   20.6790 C   0  0  0  0  0  2  0  0  0  0  0  0
  -30.0040  -13.3660   20.0610 N   0  0  0  0  0  0  0  0  0  0  0  0
  -31.7760  -14.7380   19.6440 O   0  0  0  0  0  0  0  0  0  0  0  0
  -29.9110  -15.6090   20.5580 N   0  0  0  0  0  0  0  0  0  0  0  0
  -29.0360  -15.3490   20.9880 H   0  0  0  0  0  0  0  0  0  0  0  0
  -25.2410  -13.9170   20.4180 C   0  0  0  0  0  0  0  0  0  0  0  0
  -24.1800  -13.1550   20.8240 C   0  0  0  0  0  0  0  0  0  0  0  0
  -24.6260  -11.7980   20.7700 C   0  0  0  0  0  0  0  0  0  0  0  0
  -26.2680  -13.0270   20.1440 N   0  0  0  0  0  0  0  0  0  0  0  0
  -25.9040  -11.7470   20.4140 N   0  0  0  0  0  0  0  0  0  0  0  0
  -23.8950  -10.5420   20.9820 C   0  0  0  0  0  0  0  0  0  0  0  0
  -24.3570   -9.5630   21.8880 C   0  0  0  0  0  3  0  0  0  0  0  0
  -23.6260   -8.3710   22.0880 C   0  0  0  0  0  3  0  0  0  0  0  0
  -22.4190   -8.1520   21.3830 C   0  0  0  0  0  0  0  0  0  0  0  0
  -21.9750   -9.1210   20.4660 C   0  0  0  0  0  3  0  0  0  0  0  0
  -22.7060  -10.3040   20.2640 C   0  0  0  0  0  3  0  0  0  0  0  0
  -21.6570   -7.0150   21.4950 O   0  0  0  0  0  0  0  0  0  0  0  0
  -21.6560   -6.2580   22.6390 C   0  0  0  0  0  0  0  0  0  0  0  0
  -21.3040   -6.8040   23.8930 C   0  0  0  0  0  3  0  0  0  0  0  0
  -21.2500   -5.9740   25.0310 C   0  0  0  0  0  3  0  0  0  0  0  0
  -21.5350   -4.6010   24.9170 C   0  0  0  0  0  0  0  0  0  0  0  0
  -21.8800   -4.0550   23.6680 C   0  0  0  0  0  3  0  0  0  0  0  0
  -21.9370   -4.8820   22.5310 C   0  0  0  0  0  0  0  0  0  0  0  0
  -22.2490   -4.3460   21.3260 F   0  0  0  0  0  0  0  0  0  0  0  0
  -21.4760   -3.8020   26.0080 F   0  0  0  0  0  0  0  0  0  0  0  0
  -22.7990  -13.6450   21.1510 C   0  0  0  0  0  0  0  0  0  0  0  0
  -22.0980  -12.9520   22.0420 N   0  0  0  0  0  0  0  0  0  0  0  0
  -22.3520  -14.6760   20.6520 O   0  0  0  0  0  0  0  0  0  0  0  0
  -22.4730  -12.1180   22.4680 H   0  0  0  0  0  0  0  0  0  0  0  0
  -21.1730  -13.2630   22.3040 H   0  0  0  0  0  0  0  0  0  0  0  0
  -25.4140  -15.2870   20.2390 N   0  0  0  0  0  0  0  0  0  0  0  0
  -24.6560  -15.9470   20.3780 H   0  0  0  0  0  0  0  0  0  0  0  0
  -26.2510  -15.7180   19.8670 H   0  0  0  0  0  0  0  0  0  0  0  0
  1  2  1  0
  1 45  1  0
  3  4  1  0
  3  2  1  0
  5 16  2  0
  6  4  1  0
  6 11  1  0
  7 15  1  0
  7 17  1  0
  8 14  1  0
  8 10  1  0
  9 15  1  0
 10  9  1  0
 11 10  2  0
 12 13  1  0
 12  6  2  0
 13  8  2  0
 14  7  1  0
 15  5  1  0
 17 19  2  0
 18 17  1  0
 20 18  1  0
 21 30  2  0
 21 26  1  0
 22 18  1  0
 22 26  1  0
 23 22  1  0
 24 25  1  0
 24 23  1  0
 25 21  1  0
 26 27  2  0
 27 28  1  0
 29 28  2  0
 30 29  1  0
 31  5  1  0
 31 36  1  0
 31 32  1  0
 32 35  1  1
 32 33  1  0
 34 32  1  0
 36 39  1  0
 37 41  1  0
 37 36  1  0
 38 37  2  0
 41 40  1  0
 43 41  1  0
 43 44  1  0
 43 42  1  0
 46 45  1  0
 46 47  1  0
 47 48  1  0
 49 58  1  0
 49 48  1  0
 50 58  1  0
 51 56  1  0
 52 53  1  0
 52 51  1  0
 54 53  1  0
 54 63  1  0
 54 55  1  0
 56 50  1  0
 56 55  1  0
 57 50  2  0
 58 59  1  0
 60 61  2  0
 61 80  1  0
 62 61  1  0
 62 65  1  0
 63 64  1  0
 63 60  1  0
 64 62  2  0
 65 66  1  0
 66 67  2  0
 68 71  1  0
 68 67  1  0
 69 68  2  0
 70 69  1  0
 70 65  2  0
 71 72  1  0
 72 73  1  0
 73 74  2  0
 75 74  1  0
 75 79  1  0
 76 75  2  0
 77 72  2  0
 77 76  1  0
 78 77  1  0
 80 81  1  0
 81 84  1  0
 81 83  1  0
 82 80  2  0
 85 86  1  0
 85 60  1  0
 87 85  1  0
M  ISO  4   3 101   4 101  50 100  58 100
M  END
>  <TORSDO>  (64) 
F 23

>  <SCORE>  (64) 
-12.462

>  <name>  (64) 
63

>  <ligand_id>  (64) 
63

>  <original_smiles>  (64) 
[H]c1c([H])c([H])c2c(c1[H])C([H])([H])C([H])([H])C([H])([H])C2([H])N([H])C(=O)C1([H])N(C(=O)C([H])(N([H])C(=O)C([H])(N([H])C([H])([H])[H])C([H])([H])[H])C(C([H])([H])[H])(C([H])([H])[H])C([H])([H])[H])C([H])([H])c2c([H])c(OC([H])([H])C([H])([H])OC([H])([H])C([H])([H])OC([H])([H])C([H])([H])N([H])C(=O)N3C([H])([H])C([H])([H])C([H])([H])C([H])(n4nc(-c5c([H])c([H])c(Oc6c([H])c([H])c(F)c([H])c6F)c([H])c5[H])c(C(=O)N([H])[H])c4N([H])[H])C3([H])[H])c([H])c([H])c2C1([H])[H]

>  <smiles>  (64) 
[H]c1c([H])c([H])c2c(c1[H])C([H])([H])C([H])([H])C([H])([H])C2([H])N([H])C(=O)C1([H])N(C(=O)C([H])(N([H])C(=O)C([H])(N([H])C([H])([H])[H])C([H])([H])[H])C(C([H])([H])[H])(C([H])([H])[H])C([H])([H])[H])C([H])([H])c2c([H])c(OC([H])([H])C([H])([H])OC([H])([H])C([H])([H])OC([H])([H])C([H])([H])N([H])C(=O)N3C([H])([H])C([H])([H])C([H])([H])C([H])(n4nc(-c5c([H])c([H])c(Oc6c([H])c([H])c(F)c([H])c6F)c([H])c5[H])c(C(=O)N([H])[H])c4N([H])[H])C3([H])[H])c([H])c([H])c2C1([H])[H]

$$$$
64:0:0
     RDKit          3D

 87 95  0  0  1  0  0  0  0  0999 V2000
  -28.3430  -20.3520   20.7730 C   0  0  0  0  0  3  0  0  0  0  0  0
  -30.2020  -20.9310   19.5460 C   0  0  0  0  0  3  0  0  0  0  0  0
  -27.9200  -21.7790   20.7390 C   0  0  0  0  0  3  0  0  0  0  0  0
  -29.7780  -22.3530   19.5100 C   0  0  0  0  0  3  0  0  0  0  0  0
  -29.5340  -19.7860   20.1610 C   0  0  0  0  0  0  0  0  0  0  0  0
  -28.5900  -22.9230   20.1160 C   0  0  0  0  0  0  0  0  0  0  0  0
  -30.2450  -18.2000   20.1870 C   0  0  0  0  0  2  0  0  0  0  0  0
  -30.5290  -15.3550   20.1680 C   0  0  0  0  0  0  0  0  0  0  0  0
  -30.4510  -12.9400   19.2640 C   0  0  0  0  0  2  0  0  0  0  0  0
  -29.5010  -12.7760   18.0520 C   0  0  0  0  0  2  0  0  0  0  0  0
  -28.0610  -12.5130   18.5250 C   0  0  0  0  0  2  0  0  0  0  0  0
  -27.6440  -13.4600   19.6780 C   0  0  0  0  0  3  0  0  0  0  0  0
  -28.7200  -13.5800   20.7780 C   0  0  0  0  0  2  0  0  0  0  0  0
  -29.9420  -14.0670   20.1200 N   0  0  0  0  0  0  0  0  0  0  0  0
  -31.7390  -15.3570   19.9040 O   0  0  0  0  0  0  0  0  0  0  0  0
  -29.7970  -16.6240   20.3000 N   0  0  0  0  0  0  0  0  0  0  0  0
  -28.8100  -16.4950   20.4660 H   0  0  0  0  0  0  0  0  0  0  0  0
  -25.2930  -14.0040   20.5030 C   0  0  0  0  0  0  0  0  0  0  0  0
  -24.2410  -13.2200   20.8860 C   0  0  0  0  0  0  0  0  0  0  0  0
  -24.7090  -11.8700   20.8170 C   0  0  0  0  0  0  0  0  0  0  0  0
  -26.3300  -13.1360   20.2160 N   0  0  0  0  0  0  0  0  0  0  0  0
  -25.9930  -11.8450   20.4720 N   0  0  0  0  0  0  0  0  0  0  0  0
  -23.9870  -10.6030   21.0000 C   0  0  0  0  0  0  0  0  0  0  0  0
  -24.4180   -9.6360   21.9340 C   0  0  0  0  0  3  0  0  0  0  0  0
  -23.6950   -8.4360   22.1060 C   0  0  0  0  0  3  0  0  0  0  0  0
  -22.5270   -8.1960   21.3440 C   0  0  0  0  0  0  0  0  0  0  0  0
  -22.1150   -9.1520   20.3990 C   0  0  0  0  0  3  0  0  0  0  0  0
  -22.8400  -10.3430   20.2250 C   0  0  0  0  0  3  0  0  0  0  0  0
  -21.7730   -7.0490   21.4270 O   0  0  0  0  0  0  0  0  0  0  0  0
  -21.6850   -6.3290   22.5910 C   0  0  0  0  0  0  0  0  0  0  0  0
  -21.1370   -6.8810   23.7690 C   0  0  0  0  0  3  0  0  0  0  0  0
  -21.0010   -6.0840   24.9240 C   0  0  0  0  0  3  0  0  0  0  0  0
  -21.4010   -4.7350   24.9000 C   0  0  0  0  0  0  0  0  0  0  0  0
  -21.9410   -4.1810   23.7260 C   0  0  0  0  0  3  0  0  0  0  0  0
  -22.0800   -4.9760   22.5730 C   0  0  0  0  0  0  0  0  0  0  0  0
  -22.5810   -4.4310   21.4390 F   0  0  0  0  0  0  0  0  0  0  0  0
  -21.2630   -3.9660   26.0050 F   0  0  0  0  0  0  0  0  0  0  0  0
  -22.8510  -13.6890   21.1970 C   0  0  0  0  0  0  0  0  0  0  0  0
  -22.1460  -12.9780   22.0690 N   0  0  0  0  0  0  0  0  0  0  0  0
  -22.4010  -14.7220   20.7020 O   0  0  0  0  0  0  0  0  0  0  0  0
  -22.5260  -12.1440   22.4900 H   0  0  0  0  0  0  0  0  0  0  0  0
  -21.2140  -13.2750   22.3220 H   0  0  0  0  0  0  0  0  0  0  0  0
  -25.4470  -15.3790   20.3460 N   0  0  0  0  0  0  0  0  0  0  0  0
  -24.6770  -16.0250   20.4830 H   0  0  0  0  0  0  0  0  0  0  0  0
  -26.2740  -15.8250   19.9720 H   0  0  0  0  0  0  0  0  0  0  0  0
  -27.8620  -24.4830   19.8860 C   0  0  0  0  0  2  0  0  0  0  0  0
  -28.2330  -26.0370   20.1780 O   0  0  0  0  0  0  0  0  0  0  0  0
  -24.6920  -31.9260   23.2300 C   0  0  0  0  0  0  0  0  0  0  0  0
  -27.2340  -27.1330   20.1210 C   0  0  0  0  0  0  0  0  0  0  0  0
  -23.4840  -30.5440   21.5900 C   0  0  0  0  0  3  0  0  0  0  0  0
  -24.9230  -28.9780   20.1270 C   0  0  0  0  0  0  0  0  0  0  0  0
  -26.0450  -30.7820   21.4120 C   0  0  0  0  0  2  0  0  0  0  0  0
  -26.1150  -29.3860   20.7380 C   0  0  0  0  0  0  0  0  0  0  0  0
  -27.2660  -28.4830   20.7160 C   0  0  0  0  0  3  0  0  0  0  0  0
  -26.0130  -26.8730   19.4600 C   0  0  0  0  0  3  0  0  0  0  0  0
  -24.8940  -27.7400   19.4670 C   0  0  0  0  0  3  0  0  0  0  0  0
  -23.6980  -29.8840   20.2010 C   0  0  0  0  0  2  0  0  0  0  0  0
  -24.7610  -31.1090   22.1310 N   0  0  0  0  0  0  0  0  0  0  0  0
  -23.6080  -32.2010   23.7700 O   0  0  0  0  0  0  0  0  0  0  0  0
  -22.8100  -29.5280   22.5500 C   0  0  0  0  0  0  0  0  0  0  0  0
  -21.4850  -29.3350   22.4190 N   0  0  0  0  0  0  0  0  0  0  0  0
  -23.4870  -28.9170   23.3810 O   0  0  0  0  0  0  0  0  0  0  0  0
  -20.9910  -29.8800   21.7270 H   0  0  0  0  0  0  0  0  0  0  0  0
  -18.1240  -28.0690   22.9290 C   0  0  0  0  0  0  0  0  0  0  0  0
  -20.6790  -28.3800   23.1880 C   0  0  0  0  0  3  0  0  0  0  0  0
  -20.8050  -26.9520   22.6080 C   0  0  0  0  0  2  0  0  0  0  0  0
  -19.7070  -26.6140   21.5940 C   0  0  0  0  0  2  0  0  0  0  0  0
  -18.3240  -26.7280   22.2430 C   0  0  0  0  0  2  0  0  0  0  0  0
  -19.2290  -28.8510   23.3590 C   0  0  0  0  0  0  0  0  0  0  0  0
  -18.9860  -30.1030   23.9630 C   0  0  0  0  0  3  0  0  0  0  0  0
  -17.6710  -30.5750   24.1380 C   0  0  0  0  0  3  0  0  0  0  0  0
  -16.5810  -29.7910   23.7240 C   0  0  0  0  0  3  0  0  0  0  0  0
  -16.8080  -28.5400   23.1250 C   0  0  0  0  0  3  0  0  0  0  0  0
  -25.9680  -32.5680   23.8520 C   0  0  0  0  0  3  0  0  0  0  0  0
  -25.6500  -33.9640   24.1980 N   0  0  0  0  0  0  0  0  0  0  0  0
  -25.9410  -35.0280   23.4380 C   0  0  0  0  0  0  0  0  0  0  0  0
  -26.5700  -34.9390   22.3810 O   0  0  0  0  0  0  0  0  0  0  0  0
  -25.0870  -34.1050   25.0250 H   0  0  0  0  0  0  0  0  0  0  0  0
  -24.1820  -36.8090   23.1780 C   0  0  0  0  0  1  0  0  0  0  0  0
  -25.4620  -36.4100   23.9280 C   0  0  0  0  0  3  0  0  0  0  0  0
  -27.6120  -37.3250   24.6820 C   0  0  0  0  0  1  0  0  0  0  0  0
  -26.4770  -37.4760   23.7750 N   0  0  0  0  0  0  0  0  0  0  0  0
  -26.0640  -38.3910   23.9330 H   0  0  0  0  0  0  0  0  0  0  0  0
  -26.4890  -31.7970   25.1280 C   0  0  1  0  0  0  0  0  0  0  0  0
  -25.3970  -31.5480   26.1950 C   0  0  0  0  0  1  0  0  0  0  0  0
  -27.0830  -30.4240   24.7400 C   0  0  0  0  0  1  0  0  0  0  0  0
  -27.6310  -32.5980   25.7940 C   0  0  0  0  0  1  0  0  0  0  0  0
  2  5  1  0
  3  1  1  0
  4  2  2  0
  4  6  1  0
  5  7  1  0
  5  1  2  0
  6  3  2  0
  7 16  1  0
  8 16  1  0
  9 14  1  0
 10 11  1  0
 10  9  1  0
 12 11  1  0
 12 21  1  0
 12 13  1  0
 14  8  1  0
 14 13  1  0
 15  8  2  0
 16 17  1  0
 18 19  2  0
 19 38  1  0
 20 19  1  0
 20 23  1  0
 21 22  1  0
 21 18  1  0
 22 20  2  0
 23 24  1  0
 24 25  2  0
 26 29  1  0
 26 25  1  0
 27 26  2  0
 28 27  1  0
 28 23  2  0
 29 30  1  0
 30 31  1  0
 31 32  2  0
 33 32  1  0
 33 37  1  0
 34 33  2  0
 35 30  2  0
 35 34  1  0
 36 35  1  0
 38 39  1  0
 39 42  1  0
 39 41  1  0
 40 38  2  0
 43 44  1  0
 43 18  1  0
 45 43  1  0
 46  6  1  0
 46 47  1  0
 48 59  2  0
 49 47  1  0
 49 54  1  0
 50 58  1  0
 50 60  1  0
 51 57  1  0
 51 53  1  0
 52 58  1  0
 53 52  1  0
 54 53  2  0
 55 56  1  0
 55 49  2  0
 56 51  2  0
 57 50  1  0
 58 48  1  0
 60 62  2  0
 61 60  1  0
 63 61  1  0
 64 73  2  0
 64 69  1  0
 65 61  1  0
 65 69  1  0
 66 65  1  0
 67 68  1  0
 67 66  1  0
 68 64  1  0
 69 70  2  0
 70 71  1  0
 72 71  2  0
 73 72  1  0
 74 48  1  0
 74 75  1  0
 74 84  1  0
 75 78  1  0
 76 80  1  0
 76 75  1  0
 77 76  2  0
 80 79  1  0
 82 80  1  0
 82 83  1  0
 82 81  1  0
 84 87  1  1
 84 85  1  0
 86 84  1  0
M  ISO  4   8 100  16 100  46 101  47 101
M  END
>  <TORSDO>  (65) 
F 18

>  <SCORE>  (65) 
-15.768

>  <name>  (65) 
64

>  <ligand_id>  (65) 
64

>  <original_smiles>  (65) 
[H]c1c([H])c([H])c2c(c1[H])C([H])([H])C([H])([H])C([H])([H])C2([H])N([H])C(=O)C1([H])N(C(=O)C([H])(N([H])C(=O)C([H])(N([H])C([H])([H])[H])C([H])([H])[H])C(C([H])([H])[H])(C([H])([H])[H])C([H])([H])[H])C([H])([H])c2c([H])c(OC([H])([H])c3c([H])c([H])c(C([H])([H])N([H])C(=O)N4C([H])([H])C([H])([H])C([H])([H])C([H])(n5nc(-c6c([H])c([H])c(Oc7c([H])c([H])c(F)c([H])c7F)c([H])c6[H])c(C(=O)N([H])[H])c5N([H])[H])C4([H])[H])c([H])c3[H])c([H])c([H])c2C1([H])[H]

>  <smiles>  (65) 
[H]c1c([H])c([H])c2c(c1[H])C([H])([H])C([H])([H])C([H])([H])C2([H])N([H])C(=O)C1([H])N(C(=O)C([H])(N([H])C(=O)C([H])(N([H])C([H])([H])[H])C([H])([H])[H])C(C([H])([H])[H])(C([H])([H])[H])C([H])([H])[H])C([H])([H])c2c([H])c(OC([H])([H])c3c([H])c([H])c(C([H])([H])N([H])C(=O)N4C([H])([H])C([H])([H])C([H])([H])C([H])(n5nc(-c6c([H])c([H])c(Oc7c([H])c([H])c(F)c([H])c7F)c([H])c6[H])c(C(=O)N([H])[H])c5N([H])[H])C4([H])[H])c([H])c3[H])c([H])c([H])c2C1([H])[H]

$$$$
65:0:0
     RDKit          3D

 92 99  0  0  1  0  0  0  0  0999 V2000
  -27.6220  -21.5440   20.7920 C   0  0  0  0  0  2  0  0  0  0  0  0
  -26.9060  -21.8390   19.5960 O   0  0  0  0  0  0  0  0  0  0  0  0
  -26.6410  -20.7110   18.7600 C   0  0  0  0  0  2  0  0  0  0  0  0
  -27.8450  -20.2860   17.9060 C   0  0  0  0  0  2  0  0  0  0  0  0
  -28.8180  -19.6610   18.7330 O   0  0  0  0  0  0  0  0  0  0  0  0
  -29.8210  -18.9790   17.9970 C   0  0  0  0  0  2  0  0  0  0  0  0
  -30.9400  -18.5600   18.9520 C   0  0  0  0  0  2  0  0  0  0  0  0
  -30.4180  -17.7720   20.0130 O   0  0  0  0  0  0  0  0  0  0  0  0
  -31.4120  -17.5130   20.9940 C   0  0  0  0  0  2  0  0  0  0  0  0
  -30.9280  -16.4330   21.9740 C   0  0  0  0  0  2  0  0  0  0  0  0
  -30.2850  -15.3180   21.3650 O   0  0  0  0  0  0  0  0  0  0  0  0
  -30.9110  -14.5250   20.4810 C   0  0  0  0  0  0  0  0  0  0  0  0
  -30.5980  -12.3810   19.2710 C   0  0  0  0  0  2  0  0  0  0  0  0
  -29.6790  -12.5840   18.0540 C   0  0  0  0  0  2  0  0  0  0  0  0
  -28.1920  -12.4580   18.4600 C   0  0  0  0  0  2  0  0  0  0  0  0
  -27.8280  -13.3130   19.7060 C   0  0  0  0  0  3  0  0  0  0  0  0
  -28.8520  -13.0710   20.8340 C   0  0  0  0  0  2  0  0  0  0  0  0
  -30.1900  -13.3440   20.2900 N   0  0  0  0  0  0  0  0  0  0  0  0
  -31.9720  -14.8060   19.9200 O   0  0  0  0  0  0  0  0  0  0  0  0
  -25.4090  -13.9410   20.3470 C   0  0  0  0  0  0  0  0  0  0  0  0
  -24.3350  -13.1770   20.7190 C   0  0  0  0  0  0  0  0  0  0  0  0
  -24.8010  -11.8270   20.7410 C   0  0  0  0  0  0  0  0  0  0  0  0
  -26.4600  -13.0570   20.1610 N   0  0  0  0  0  0  0  0  0  0  0  0
  -26.0960  -11.7810   20.4520 N   0  0  0  0  0  0  0  0  0  0  0  0
  -24.0750  -10.5720   20.9660 C   0  0  0  0  0  0  0  0  0  0  0  0
  -24.4930   -9.6410   21.9410 C   0  0  0  0  0  3  0  0  0  0  0  0
  -23.7690   -8.4470   22.1490 C   0  0  0  0  0  3  0  0  0  0  0  0
  -22.6130   -8.1760   21.3800 C   0  0  0  0  0  0  0  0  0  0  0  0
  -22.2160   -9.0940   20.3910 C   0  0  0  0  0  3  0  0  0  0  0  0
  -22.9420  -10.2770   20.1820 C   0  0  0  0  0  3  0  0  0  0  0  0
  -21.8630   -7.0310   21.4940 O   0  0  0  0  0  0  0  0  0  0  0  0
  -21.7840   -6.3360   22.6740 C   0  0  0  0  0  0  0  0  0  0  0  0
  -21.3210   -6.9360   23.8650 C   0  0  0  0  0  3  0  0  0  0  0  0
  -21.1920   -6.1650   25.0380 C   0  0  0  0  0  3  0  0  0  0  0  0
  -21.5170   -4.7950   25.0200 C   0  0  0  0  0  0  0  0  0  0  0  0
  -21.9730   -4.1940   23.8330 C   0  0  0  0  0  3  0  0  0  0  0  0
  -22.1050   -4.9630   22.6630 C   0  0  0  0  0  0  0  0  0  0  0  0
  -22.5250   -4.3760   21.5180 F   0  0  0  0  0  0  0  0  0  0  0  0
  -21.3850   -4.0530   26.1420 F   0  0  0  0  0  0  0  0  0  0  0  0
  -22.9320  -13.6570   20.9580 C   0  0  0  0  0  0  0  0  0  0  0  0
  -22.2020  -12.9890   21.8460 N   0  0  0  0  0  0  0  0  0  0  0  0
  -22.4950  -14.6580   20.3940 O   0  0  0  0  0  0  0  0  0  0  0  0
  -22.5760  -12.1830   22.3260 H   0  0  0  0  0  0  0  0  0  0  0  0
  -21.2540  -13.2820   22.0410 H   0  0  0  0  0  0  0  0  0  0  0  0
  -25.5690  -15.3060   20.1410 N   0  0  0  0  0  0  0  0  0  0  0  0
  -24.7980  -15.9570   20.2380 H   0  0  0  0  0  0  0  0  0  0  0  0
  -26.4360  -15.7530   19.8700 H   0  0  0  0  0  0  0  0  0  0  0  0
  -27.2880  -22.5990   21.8650 C   0  0  0  0  0  2  0  0  0  0  0  0
  -28.1750  -23.7170   21.8570 O   0  0  0  0  0  0  0  0  0  0  0  0
  -28.0200  -24.5890   20.7440 C   0  0  0  0  0  2  0  0  0  0  0  0
  -28.8020  -25.8950   21.0070 C   0  0  0  0  0  2  0  0  0  0  0  0
  -28.6490  -26.8800   19.9830 O   0  0  0  0  0  0  0  0  0  0  0  0
  -24.6740  -31.7930   23.2960 C   0  0  0  0  0  0  0  0  0  0  0  0
  -27.4760  -27.5870   20.0370 C   0  0  0  0  0  0  0  0  0  0  0  0
  -23.5370  -30.4690   21.5460 C   0  0  0  0  0  3  0  0  0  0  0  0
  -25.0530  -29.0320   20.0820 C   0  0  0  0  0  0  0  0  0  0  0  0
  -26.0600  -30.8720   21.4450 C   0  0  0  0  0  2  0  0  0  0  0  0
  -26.1860  -29.5440   20.7320 C   0  0  0  0  0  0  0  0  0  0  0  0
  -27.4010  -28.8240   20.7150 C   0  0  0  0  0  3  0  0  0  0  0  0
  -26.3340  -27.0890   19.3800 C   0  0  0  0  0  3  0  0  0  0  0  0
  -25.1200  -27.7990   19.4120 C   0  0  0  0  0  3  0  0  0  0  0  0
  -23.7940  -29.8680   20.1400 C   0  0  0  0  0  2  0  0  0  0  0  0
  -24.7720  -31.0590   22.1530 N   0  0  0  0  0  0  0  0  0  0  0  0
  -23.5740  -32.0180   23.8190 O   0  0  0  0  0  0  0  0  0  0  0  0
  -22.8810  -29.3850   22.4300 C   0  0  0  0  0  0  0  0  0  0  0  0
  -21.5610  -29.1930   22.2620 N   0  0  0  0  0  0  0  0  0  0  0  0
  -23.5560  -28.7210   23.2260 O   0  0  0  0  0  0  0  0  0  0  0  0
  -21.0830  -29.7800   21.5920 H   0  0  0  0  0  0  0  0  0  0  0  0
  -18.1940  -27.9390   22.6140 C   0  0  0  0  0  0  0  0  0  0  0  0
  -20.7430  -28.2020   22.9540 C   0  0  0  0  0  3  0  0  0  0  0  0
  -20.8730  -26.8120   22.2880 C   0  0  0  0  0  2  0  0  0  0  0  0
  -19.7930  -26.5440   21.2340 C   0  0  0  0  0  2  0  0  0  0  0  0
  -18.3970  -26.6380   21.8580 C   0  0  0  0  0  2  0  0  0  0  0  0
  -19.2960  -28.6810   23.1160 C   0  0  0  0  0  0  0  0  0  0  0  0
  -19.0550  -29.9020   23.7810 C   0  0  0  0  0  3  0  0  0  0  0  0
  -17.7420  -30.3820   23.9510 C   0  0  0  0  0  3  0  0  0  0  0  0
  -16.6530  -29.6340   23.4690 C   0  0  0  0  0  3  0  0  0  0  0  0
  -16.8800  -28.4150   22.8060 C   0  0  0  0  0  3  0  0  0  0  0  0
  -25.9350  -32.4030   23.9860 C   0  0  0  0  0  3  0  0  0  0  0  0
  -25.5980  -33.7800   24.3690 N   0  0  0  0  0  0  0  0  0  0  0  0
  -25.9480  -34.8680   23.6700 C   0  0  0  0  0  0  0  0  0  0  0  0
  -26.6540  -34.8170   22.6580 O   0  0  0  0  0  0  0  0  0  0  0  0
  -24.9720  -33.8950   25.1530 H   0  0  0  0  0  0  0  0  0  0  0  0
  -24.2140  -36.6560   23.3460 C   0  0  0  0  0  1  0  0  0  0  0  0
  -25.4340  -36.2290   24.1740 C   0  0  0  0  0  3  0  0  0  0  0  0
  -27.5330  -37.0960   25.1120 C   0  0  0  0  0  1  0  0  0  0  0  0
  -26.4620  -37.2950   24.1390 N   0  0  0  0  0  0  0  0  0  0  0  0
  -26.0420  -38.2060   24.3080 H   0  0  0  0  0  0  0  0  0  0  0  0
  -26.4210  -31.5750   25.2380 C   0  0  1  0  0  0  0  0  0  0  0  0
  -25.2930  -31.2740   26.2540 C   0  0  0  0  0  1  0  0  0  0  0  0
  -27.0350  -30.2260   24.7970 C   0  0  0  0  0  1  0  0  0  0  0  0
  -27.5430  -32.3510   25.9710 C   0  0  0  0  0  1  0  0  0  0  0  0
  1 48  1  0
  2  1  1  0
  3  2  1  0
  4  5  1  0
  4  3  1  0
  6  5  1  0
  6  7  1  0
  7  8  1  0
  8  9  1  0
  9 10  1  0
 11 10  1  0
 12 11  1  0
 13 18  1  0
 14 15  1  0
 14 13  1  0
 16 15  1  0
 16 23  1  0
 16 17  1  0
 18 12  1  0
 18 17  1  0
 19 12  2  0
 20 21  2  0
 21 22  1  0
 21 40  1  0
 22 25  1  0
 23 20  1  0
 23 24  1  0
 24 22  2  0
 25 26  1  0
 26 27  2  0
 28 31  1  0
 28 27  1  0
 29 28  2  0
 30 29  1  0
 30 25  2  0
 31 32  1  0
 32 33  1  0
 33 34  2  0
 35 34  1  0
 35 39  1  0
 36 35  2  0
 37 32  2  0
 37 36  1  0
 38 37  1  0
 40 41  1  0
 41 44  1  0
 41 43  1  0
 42 40  2  0
 45 46  1  0
 45 20  1  0
 47 45  1  0
 49 48  1  0
 50 51  1  0
 50 49  1  0
 52 54  1  0
 52 51  1  0
 53 64  2  0
 54 59  1  0
 55 63  1  0
 55 65  1  0
 56 62  1  0
 56 58  1  0
 57 63  1  0
 58 57  1  0
 59 58  2  0
 60 61  1  0
 60 54  2  0
 61 56  2  0
 62 55  1  0
 63 53  1  0
 65 67  2  0
 66 65  1  0
 68 66  1  0
 69 78  2  0
 69 74  1  0
 70 66  1  0
 70 74  1  0
 71 70  1  0
 72 73  1  0
 72 71  1  0
 73 69  1  0
 74 75  2  0
 75 76  1  0
 77 76  2  0
 78 77  1  0
 79 53  1  0
 79 80  1  0
 79 89  1  0
 80 83  1  0
 81 85  1  0
 81 80  1  0
 82 81  2  0
 85 84  1  0
 87 85  1  0
 87 88  1  0
 87 86  1  0
 89 92  1  1
 89 90  1  0
 91 89  1  0
M  ISO  4  11 100  12 100  51 101  52 101
M  END
>  <TORSDO>  (66) 
F 30

>  <SCORE>  (66) 
-10.474

>  <name>  (66) 
65

>  <ligand_id>  (66) 
65

>  <original_smiles>  (66) 
[H]c1c([H])c([H])c2c(c1[H])C([H])([H])C([H])([H])C([H])([H])C2([H])N([H])C(=O)C1([H])N(C(=O)C([H])(N([H])C(=O)C([H])(N([H])C([H])([H])[H])C([H])([H])[H])C(C([H])([H])[H])(C([H])([H])[H])C([H])([H])[H])C([H])([H])c2c([H])c(OC([H])([H])C([H])([H])OC([H])([H])C([H])([H])OC([H])([H])C([H])([H])OC([H])([H])C([H])([H])OC([H])([H])C([H])([H])OC(=O)N3C([H])([H])C([H])([H])C([H])([H])C([H])(n4nc(-c5c([H])c([H])c(Oc6c([H])c([H])c(F)c([H])c6F)c([H])c5[H])c(C(=O)N([H])[H])c4N([H])[H])C3([H])[H])c([H])c([H])c2C1([H])[H]

>  <smiles>  (66) 
[H]c1c([H])c([H])c2c(c1[H])C([H])([H])C([H])([H])C([H])([H])C2([H])N([H])C(=O)C1([H])N(C(=O)C([H])(N([H])C(=O)C([H])(N([H])C([H])([H])[H])C([H])([H])[H])C(C([H])([H])[H])(C([H])([H])[H])C([H])([H])[H])C([H])([H])c2c([H])c(OC([H])([H])C([H])([H])OC([H])([H])C([H])([H])OC([H])([H])C([H])([H])OC([H])([H])C([H])([H])OC([H])([H])C([H])([H])OC(=O)N3C([H])([H])C([H])([H])C([H])([H])C([H])(n4nc(-c5c([H])c([H])c(Oc6c([H])c([H])c(F)c([H])c6F)c([H])c5[H])c(C(=O)N([H])[H])c4N([H])[H])C3([H])[H])c([H])c([H])c2C1([H])[H]

$$$$
66:0:0
     RDKit          3D

110117  0  0  1  0  0  0  0  0999 V2000
  -30.0110  -19.3580   18.8410 C   0  0  0  0  0  0  0  0  0  0  0  0
  -30.5110  -19.2840   20.0330 N   0  0  0  0  0  0  0  0  0  0  0  0
  -30.6890  -18.8520   17.7540 N   0  0  0  0  0  0  0  0  0  0  0  0
  -28.8090  -19.9530   18.5140 N   0  0  0  0  0  0  0  0  0  0  0  0
  -30.3020  -18.9920   16.8290 H   0  0  0  0  0  0  0  0  0  0  0  0
  -28.3350  -20.5340   19.1940 H   0  0  0  0  0  0  0  0  0  0  0  0
  -31.9450  -18.3770   17.8210 C   0  0  0  0  0  0  0  0  0  0  0  0
  -33.0440  -18.0190   17.8570 N   0  0  0  0  0  0  0  0  0  0  0  0
  -27.8530  -19.3700   17.5870 C   0  0  0  0  0  2  0  0  0  0  0  0
  -26.7190  -20.3460   17.2670 C   0  0  0  0  0  2  0  0  0  0  0  0
  -25.5050  -19.7210   17.6570 O   0  0  0  0  0  0  0  0  0  0  0  0
  -24.3770  -20.5800   17.5700 C   0  0  0  0  0  2  0  0  0  0  0  0
  -23.1390  -19.7230   17.2830 C   0  0  0  0  0  2  0  0  0  0  0  0
  -22.4720  -20.0590   15.9420 C   0  0  0  0  0  2  0  0  0  0  0  0
  -23.3610  -20.8390   15.1540 O   0  0  0  0  0  0  0  0  0  0  0  0
  -23.6230  -22.1240   15.7060 C   0  0  0  0  0  2  0  0  0  0  0  0
  -22.5190  -22.5260   16.6920 C   0  0  0  0  0  2  0  0  0  0  0  0
  -23.0340  -23.3830   17.7050 O   0  0  0  0  0  0  0  0  0  0  0  0
  -22.5310  -24.7060   17.5690 C   0  0  0  0  0  2  0  0  0  0  0  0
  -23.6680  -25.7130   17.3620 C   0  0  0  0  0  2  0  0  0  0  0  0
  -24.6630  -25.2120   16.4720 O   0  0  0  0  0  0  0  0  0  0  0  0
  -24.8840  -26.1170   15.3990 C   0  0  0  0  0  2  0  0  0  0  0  0
  -26.3590  -26.1600   14.9640 C   0  0  0  0  0  2  0  0  0  0  0  0
  -26.9190  -26.9360   12.6250 C   0  0  0  0  0  0  0  0  0  0  0  0
  -27.0790  -27.4280   10.2100 C   0  0  0  0  0  2  0  0  0  0  0  0
  -25.8990  -28.2840    9.7070 C   0  0  0  0  0  2  0  0  0  0  0  0
  -24.6660  -27.4190    9.3810 C   0  0  0  0  0  2  0  0  0  0  0  0
  -24.3230  -26.4100   10.5090 C   0  0  0  0  0  3  0  0  0  0  0  0
  -25.5920  -25.6360   10.9220 C   0  0  0  0  0  2  0  0  0  0  0  0
  -26.6180  -26.6160   11.3430 N   0  0  0  0  0  0  0  0  0  0  0  0
  -27.6260  -27.8910   12.9580 O   0  0  0  0  0  0  0  0  0  0  0  0
  -26.3910  -26.0910   13.5100 N   0  0  0  0  0  0  0  0  0  0  0  0
  -25.8780  -25.3280   13.0950 H   0  0  0  0  0  0  0  0  0  0  0  0
  -22.0140  -25.2770   10.7050 C   0  0  0  0  0  0  0  0  0  0  0  0
  -21.3570  -24.3930    9.8900 C   0  0  0  0  0  0  0  0  0  0  0  0
  -22.2420  -24.1260    8.8020 C   0  0  0  0  0  0  0  0  0  0  0  0
  -23.2450  -25.5060   10.1060 N   0  0  0  0  0  0  0  0  0  0  0  0
  -23.3930  -24.7630    8.9780 N   0  0  0  0  0  0  0  0  0  0  0  0
  -22.0420  -23.3480    7.5720 C   0  0  0  0  0  0  0  0  0  0  0  0
  -22.9770  -22.3760    7.1540 C   0  0  0  0  0  3  0  0  0  0  0  0
  -22.7560  -21.6280    5.9770 C   0  0  0  0  0  3  0  0  0  0  0  0
  -21.5880  -21.8440    5.2090 C   0  0  0  0  0  0  0  0  0  0  0  0
  -20.6710  -22.8280    5.6170 C   0  0  0  0  0  3  0  0  0  0  0  0
  -20.8960  -23.5760    6.7860 C   0  0  0  0  0  3  0  0  0  0  0  0
  -21.3010  -21.1820    4.0380 O   0  0  0  0  0  0  0  0  0  0  0  0
  -21.8570  -19.9630    3.7470 C   0  0  0  0  0  0  0  0  0  0  0  0
  -21.7340  -18.8590    4.6180 C   0  0  0  0  0  3  0  0  0  0  0  0
  -22.2620  -17.6070    4.2470 C   0  0  0  0  0  3  0  0  0  0  0  0
  -22.9030  -17.4530    3.0030 C   0  0  0  0  0  0  0  0  0  0  0  0
  -23.0230  -18.5510    2.1320 C   0  0  0  0  0  3  0  0  0  0  0  0
  -22.4990  -19.8010    2.5020 C   0  0  0  0  0  0  0  0  0  0  0  0
  -22.5970  -20.8500    1.6500 F   0  0  0  0  0  0  0  0  0  0  0  0
  -23.4050  -16.2490    2.6410 F   0  0  0  0  0  0  0  0  0  0  0  0
  -19.9500  -23.8950   10.0560 C   0  0  0  0  0  0  0  0  0  0  0  0
  -19.6680  -22.6790    9.6010 N   0  0  0  0  0  0  0  0  0  0  0  0
  -19.0990  -24.5660   10.6390 O   0  0  0  0  0  0  0  0  0  0  0  0
  -20.3690  -22.1140    9.1450 H   0  0  0  0  0  0  0  0  0  0  0  0
  -18.7350  -22.3070    9.7130 H   0  0  0  0  0  0  0  0  0  0  0  0
  -21.6660  -25.9160   11.8900 N   0  0  0  0  0  0  0  0  0  0  0  0
  -20.7560  -25.8030   12.3240 H   0  0  0  0  0  0  0  0  0  0  0  0
  -22.2520  -26.5940   12.3580 H   0  0  0  0  0  0  0  0  0  0  0  0
  -29.8010  -19.8640   21.1680 C   0  0  0  0  0  2  0  0  0  0  0  0
  -30.3080  -21.2850   21.4870 C   0  0  0  0  0  2  0  0  0  0  0  0
  -29.9220  -22.1830   20.4530 O   0  0  0  0  0  0  0  0  0  0  0  0
  -29.4770  -23.4540   20.8990 C   0  0  0  0  0  2  0  0  0  0  0  0
  -28.0330  -23.3440   21.4220 C   0  0  0  0  0  2  0  0  0  0  0  0
  -27.4140  -24.6240   21.3550 O   0  0  0  0  0  0  0  0  0  0  0  0
  -26.0110  -24.5940   21.1080 C   0  0  0  0  0  2  0  0  0  0  0  0
  -25.1590  -24.2380   22.3420 C   0  0  0  0  0  2  0  0  0  0  0  0
  -23.9740  -23.5040   22.0250 O   0  0  0  0  0  0  0  0  0  0  0  0
  -16.9110  -24.0810   21.4780 C   0  0  0  0  0  0  0  0  0  0  0  0
  -22.9220  -24.2080   21.4840 C   0  0  0  0  0  0  0  0  0  0  0  0
  -18.2280  -25.4440   19.8850 C   0  0  0  0  0  3  0  0  0  0  0  0
  -20.7280  -25.5950   20.3620 C   0  0  0  0  0  0  0  0  0  0  0  0
  -19.1870  -24.8190   22.1720 C   0  0  0  0  0  2  0  0  0  0  0  0
  -20.5600  -24.8480   21.5350 C   0  0  0  0  0  0  0  0  0  0  0  0
  -21.6520  -24.1490   22.0950 C   0  0  0  0  0  3  0  0  0  0  0  0
  -23.0650  -24.9380   20.2840 C   0  0  0  0  0  3  0  0  0  0  0  0
  -21.9810  -25.6400   19.7280 C   0  0  0  0  0  3  0  0  0  0  0  0
  -19.5110  -26.3140   19.8240 C   0  0  0  0  0  2  0  0  0  0  0  0
  -18.0770  -24.7260   21.1940 N   0  0  0  0  0  0  0  0  0  0  0  0
  -15.9540  -24.1100   20.6900 O   0  0  0  0  0  0  0  0  0  0  0  0
  -18.2150  -24.5000   18.6620 C   0  0  0  0  0  0  0  0  0  0  0  0
  -17.8420  -25.0400   17.4900 N   0  0  0  0  0  0  0  0  0  0  0  0
  -18.5630  -23.3210   18.7710 O   0  0  0  0  0  0  0  0  0  0  0  0
  -17.5560  -26.0090   17.4830 H   0  0  0  0  0  0  0  0  0  0  0  0
  -17.0930  -25.4740   13.9850 C   0  0  0  0  0  0  0  0  0  0  0  0
  -17.7970  -24.3490   16.2020 C   0  0  0  0  0  3  0  0  0  0  0  0
  -19.2070  -24.2360   15.5790 C   0  0  0  0  0  2  0  0  0  0  0  0
  -19.5390  -25.3880   14.6250 C   0  0  0  0  0  2  0  0  0  0  0  0
  -18.5250  -25.4460   13.4790 C   0  0  0  0  0  2  0  0  0  0  0  0
  -16.7540  -24.9730   15.2690 C   0  0  0  0  0  0  0  0  0  0  0  0
  -15.4130  -25.0580   15.7050 C   0  0  0  0  0  3  0  0  0  0  0  0
  -14.4230  -25.6280   14.8820 C   0  0  0  0  0  3  0  0  0  0  0  0
  -14.7610  -26.1090   13.6060 C   0  0  0  0  0  3  0  0  0  0  0  0
  -16.0920  -26.0260   13.1580 C   0  0  0  0  0  3  0  0  0  0  0  0
  -16.7110  -23.2930   22.8100 C   0  0  0  0  0  3  0  0  0  0  0  0
  -16.8910  -21.7330   22.6440 C   0  0  1  0  0  0  0  0  0  0  0  0
  -16.0490  -21.1290   21.4960 C   0  0  0  0  0  1  0  0  0  0  0  0
  -18.3760  -21.3860   22.3810 C   0  0  0  0  0  1  0  0  0  0  0  0
  -16.4960  -21.0150   23.9560 C   0  0  0  0  0  1  0  0  0  0  0  0
  -15.3730  -23.6090   23.3210 N   0  0  0  0  0  0  0  0  0  0  0  0
  -15.1230  -24.4830   24.3030 C   0  0  0  0  0  0  0  0  0  0  0  0
  -16.0170  -25.0590   24.9320 O   0  0  0  0  0  0  0  0  0  0  0  0
  -14.5900  -23.2120   22.8230 H   0  0  0  0  0  0  0  0  0  0  0  0
  -13.2240  -26.1070   24.0130 C   0  0  0  0  0  1  0  0  0  0  0  0
  -13.6470  -24.7690   24.6410 C   0  0  0  0  0  3  0  0  0  0  0  0
  -13.5020  -23.4780   26.7230 C   0  0  0  0  0  1  0  0  0  0  0  0
  -13.3690  -24.7890   26.0930 N   0  0  0  0  0  0  0  0  0  0  0  0
  -12.4310  -25.1340   26.2790 H   0  0  0  0  0  0  0  0  0  0  0  0
  1  2  2  0
  2 62  1  0
  3  7  1  0
  3  1  1  0
  4  1  1  0
  4  6  1  0
  5  3  1  0
  7  8  3  0
  9  4  1  0
 10  9  1  0
 10 11  1  0
 12 11  1  0
 13 12  1  0
 14 13  1  0
 15 16  1  0
 15 14  1  0
 16 17  1  0
 17 18  1  0
 19 18  1  0
 20 19  1  0
 21 20  1  0
 22 21  1  0
 23 22  1  0
 24 31  2  0
 24 32  1  0
 25 30  1  0
 26 25  1  0
 27 26  1  0
 28 27  1  0
 28 29  1  0
 29 30  1  0
 30 24  1  0
 32 23  1  0
 33 32  1  0
 34 59  1  0
 35 54  1  0
 35 34  2  0
 36 38  2  0
 36 35  1  0
 37 28  1  0
 37 34  1  0
 38 37  1  0
 39 36  1  0
 40 39  1  0
 41 40  2  0
 42 43  2  0
 42 41  1  0
 43 44  1  0
 44 39  2  0
 45 42  1  0
 46 45  1  0
 46 47  1  0
 48 47  2  0
 49 48  1  0
 50 51  1  0
 50 49  2  0
 51 46  2  0
 52 51  1  0
 53 49  1  0
 54 56  2  0
 55 58  1  0
 55 54  1  0
 57 55  1  0
 59 60  1  0
 59 61  1  0
 62 63  1  0
 64 65  1  0
 64 63  1  0
 65 66  1  0
 67 66  1  0
 68 67  1  0
 68 69  1  0
 70 69  1  0
 72 70  1  0
 72 77  1  0
 73 83  1  0
 73 81  1  0
 74 76  1  0
 76 77  2  0
 76 75  1  0
 78 72  2  0
 79 78  1  0
 79 74  2  0
 80 73  1  0
 80 74  1  0
 81 71  1  0
 81 75  1  0
 82 71  2  0
 83 85  2  0
 84 83  1  0
 86 84  1  0
 87 92  1  0
 88 84  1  0
 89 88  1  0
 90 89  1  0
 91 87  1  0
 91 90  1  0
 92 93  2  0
 92 88  1  0
 94 93  1  0
 95 94  2  0
 96 95  1  0
 96 87  2  0
 97 71  1  0
 97102  1  0
 98 97  1  0
 98101  1  1
 99 98  1  0
100 98  1  0
102103  1  0
103107  1  0
103104  2  0
105102  1  0
107106  1  0
107109  1  0
109110  1  0
109108  1  0
M  ISO  4  24 100  32 100  69 101  70 101
M  END
>  <TORSDO>  (67) 
F 40

>  <SCORE>  (67) 
-0.042

>  <name>  (67) 
66

>  <ligand_id>  (67) 
66

>  <original_smiles>  (67) 
[H]c1c([H])c([H])c2c(c1[H])C([H])([H])C([H])([H])C([H])([H])C2([H])N([H])C(=O)C1([H])N(C(=O)C([H])(N([H])C(=O)C([H])(N([H])C([H])([H])[H])C([H])([H])[H])C(C([H])([H])[H])(C([H])([H])[H])C([H])([H])[H])C([H])([H])c2c([H])c(OC([H])([H])C([H])([H])OC([H])([H])C([H])([H])OC([H])([H])C([H])([H])N=C(N([H])C#N)N([H])C([H])([H])C([H])([H])OC([H])([H])C([H])([H])C([H])([H])OC([H])([H])C([H])([H])OC([H])([H])C([H])([H])OC([H])([H])C([H])([H])N([H])C(=O)N3C([H])([H])C([H])([H])C([H])([H])C([H])(n4nc(-c5c([H])c([H])c(Oc6c([H])c([H])c(F)c([H])c6F)c([H])c5[H])c(C(=O)N([H])[H])c4N([H])[H])C3([H])[H])c([H])c([H])c2C1([H])[H]

>  <smiles>  (67) 
[H]c1c([H])c([H])c2c(c1[H])C([H])([H])C([H])([H])C([H])([H])C2([H])N([H])C(=O)C1([H])N(C(=O)C([H])(N([H])C(=O)C([H])(N([H])C([H])([H])[H])C([H])([H])[H])C(C([H])([H])[H])(C([H])([H])[H])C([H])([H])[H])C([H])([H])c2c([H])c(OC([H])([H])C([H])([H])OC([H])([H])C([H])([H])OC([H])([H])C([H])([H])N=C(N([H])C#N)N([H])C([H])([H])C([H])([H])OC([H])([H])C([H])([H])C([H])([H])OC([H])([H])C([H])([H])OC([H])([H])C([H])([H])OC([H])([H])C([H])([H])N([H])C(=O)N3C([H])([H])C([H])([H])C([H])([H])C([H])(n4nc(-c5c([H])c([H])c(Oc6c([H])c([H])c(F)c([H])c6F)c([H])c5[H])c(C(=O)N([H])[H])c4N([H])[H])C3([H])[H])c([H])c([H])c2C1([H])[H]

$$$$
67:0:0
     RDKit          3D

 97105  0  0  1  0  0  0  0  0999 V2000
  -24.7450  -24.0870   21.0610 C   0  0  0  0  0  3  0  0  0  0  0  0
  -24.8370  -22.9110   20.2990 C   0  0  0  0  0  3  0  0  0  0  0  0
  -25.8970  -24.8500   21.3140 C   0  0  0  0  0  3  0  0  0  0  0  0
  -27.2420  -23.2570   20.0390 C   0  0  0  0  0  3  0  0  0  0  0  0
  -26.0840  -22.4740   19.7940 C   0  0  0  0  0  0  0  0  0  0  0  0
  -27.1400  -24.4590   20.7760 C   0  0  0  0  0  0  0  0  0  0  0  0
  -26.1410  -21.1690   19.0450 C   0  0  0  0  0  0  0  0  0  0  0  0
  -27.3190  -20.5380   18.9920 N   0  0  0  0  0  0  0  0  0  0  0  0
  -25.1340  -20.7250   18.4880 O   0  0  0  0  0  0  0  0  0  0  0  0
  -28.1120  -20.9610   19.4520 H   0  0  0  0  0  0  0  0  0  0  0  0
  -27.5060  -19.2620   18.3150 C   0  0  0  0  0  2  0  0  0  0  0  0
  -28.9830  -18.8440   18.2780 C   0  0  0  0  0  2  0  0  0  0  0  0
  -29.1480  -17.4080   18.7810 C   0  0  0  0  0  2  0  0  0  0  0  0
  -30.5860  -16.8710   18.7250 C   0  0  0  0  0  2  0  0  0  0  0  0
  -31.3950  -14.6930   19.6000 C   0  0  0  0  0  0  0  0  0  0  0  0
  -31.3510  -12.2630   19.9930 C   0  0  0  0  0  2  0  0  0  0  0  0
  -30.5440  -11.5760   18.8720 C   0  0  0  0  0  2  0  0  0  0  0  0
  -29.0370  -11.5640   19.1960 C   0  0  0  0  0  2  0  0  0  0  0  0
  -28.5120  -12.9590   19.6230 C   0  0  0  0  0  3  0  0  0  0  0  0
  -29.4320  -13.5680   20.7080 C   0  0  0  0  0  2  0  0  0  0  0  0
  -30.8140  -13.6140   20.1850 N   0  0  0  0  0  0  0  0  0  0  0  0
  -32.4510  -14.6510   18.9600 O   0  0  0  0  0  0  0  0  0  0  0  0
  -30.6840  -15.8150   19.7190 N   0  0  0  0  0  0  0  0  0  0  0  0
  -29.9240  -15.7640   20.3820 H   0  0  0  0  0  0  0  0  0  0  0  0
  -26.2010  -13.9160   20.2580 C   0  0  0  0  0  0  0  0  0  0  0  0
  -25.0270  -13.3070   20.6120 C   0  0  0  0  0  0  0  0  0  0  0  0
  -25.2930  -11.9030   20.6050 C   0  0  0  0  0  0  0  0  0  0  0  0
  -27.1190  -12.8920   20.0680 N   0  0  0  0  0  0  0  0  0  0  0  0
  -26.5690  -11.6780   20.3250 N   0  0  0  0  0  0  0  0  0  0  0  0
  -24.3920  -10.7580   20.7910 C   0  0  0  0  0  0  0  0  0  0  0  0
  -24.7420   -9.6720   21.6230 C   0  0  0  0  0  3  0  0  0  0  0  0
  -23.8510   -8.5920   21.8010 C   0  0  0  0  0  3  0  0  0  0  0  0
  -22.5960   -8.5900   21.1470 C   0  0  0  0  0  0  0  0  0  0  0  0
  -22.2610   -9.6650   20.3030 C   0  0  0  0  0  3  0  0  0  0  0  0
  -23.1520  -10.7370   20.1220 C   0  0  0  0  0  3  0  0  0  0  0  0
  -21.6780   -7.5730   21.2410 O   0  0  0  0  0  0  0  0  0  0  0  0
  -21.6080   -6.7660   22.3490 C   0  0  0  0  0  0  0  0  0  0  0  0
  -21.4490   -7.2960   23.6480 C   0  0  0  0  0  3  0  0  0  0  0  0
  -21.3120   -6.4300   24.7500 C   0  0  0  0  0  3  0  0  0  0  0  0
  -21.3260   -5.0360   24.5570 C   0  0  0  0  0  0  0  0  0  0  0  0
  -21.4760   -4.5050   23.2640 C   0  0  0  0  0  3  0  0  0  0  0  0
  -21.6150   -5.3690   22.1630 C   0  0  0  0  0  0  0  0  0  0  0  0
  -21.7410   -4.8510   20.9170 F   0  0  0  0  0  0  0  0  0  0  0  0
  -21.1850   -4.2020   25.6160 F   0  0  0  0  0  0  0  0  0  0  0  0
  -23.7050  -13.9790   20.8500 C   0  0  0  0  0  0  0  0  0  0  0  0
  -22.9010  -13.4440   21.7620 N   0  0  0  0  0  0  0  0  0  0  0  0
  -23.3990  -15.0150   20.2610 O   0  0  0  0  0  0  0  0  0  0  0  0
  -23.1560  -12.6030   22.2590 H   0  0  0  0  0  0  0  0  0  0  0  0
  -22.0110  -13.8800   21.9640 H   0  0  0  0  0  0  0  0  0  0  0  0
  -26.5580  -15.2470   20.0640 N   0  0  0  0  0  0  0  0  0  0  0  0
  -25.8740  -15.9950   20.1160 H   0  0  0  0  0  0  0  0  0  0  0  0
  -27.4620  -15.5550   19.7290 H   0  0  0  0  0  0  0  0  0  0  0  0
  -29.2570  -25.5220   20.0850 C   0  0  0  0  0  0  0  0  0  0  0  0
  -28.2420  -25.3110   21.0150 N   0  0  0  0  0  0  0  0  0  0  0  0
  -30.0290  -24.6620   19.6610 O   0  0  0  0  0  0  0  0  0  0  0  0
  -27.9710  -26.1840   21.4440 H   0  0  0  0  0  0  0  0  0  0  0  0
  -29.3610  -26.8500   19.7320 O   0  0  0  0  0  0  0  0  0  0  0  0
  -25.6220  -30.9410   24.1770 C   0  0  0  0  0  0  0  0  0  0  0  0
  -28.2820  -27.6970   19.8870 C   0  0  0  0  0  0  0  0  0  0  0  0
  -24.4970  -30.3350   22.0600 C   0  0  0  0  0  3  0  0  0  0  0  0
  -25.9890  -29.2920   20.2740 C   0  0  0  0  0  0  0  0  0  0  0  0
  -27.0450  -30.5150   22.1790 C   0  0  0  0  0  2  0  0  0  0  0  0
  -27.1120  -29.4650   21.0930 C   0  0  0  0  0  0  0  0  0  0  0  0
  -28.2640  -28.6720   20.9040 C   0  0  0  0  0  3  0  0  0  0  0  0
  -27.1560  -27.5520   19.0450 C   0  0  0  0  0  3  0  0  0  0  0  0
  -26.0040  -28.3320   19.2460 C   0  0  0  0  0  3  0  0  0  0  0  0
  -24.7960  -30.1780   20.5450 C   0  0  0  0  0  2  0  0  0  0  0  0
  -25.7350  -30.5860   22.8670 N   0  0  0  0  0  0  0  0  0  0  0  0
  -24.5110  -31.1020   24.7030 O   0  0  0  0  0  0  0  0  0  0  0  0
  -23.6950  -29.1020   22.5320 C   0  0  0  0  0  0  0  0  0  0  0  0
  -22.3840  -29.0930   22.2390 N   0  0  0  0  0  0  0  0  0  0  0  0
  -24.2530  -28.1720   23.1200 O   0  0  0  0  0  0  0  0  0  0  0  0
  -22.0000  -29.8960   21.7620 H   0  0  0  0  0  0  0  0  0  0  0  0
  -18.9230  -28.1030   21.9850 C   0  0  0  0  0  0  0  0  0  0  0  0
  -21.4430  -28.0180   22.5480 C   0  0  0  0  0  3  0  0  0  0  0  0
  -21.5400  -26.8810   21.5030 C   0  0  0  0  0  2  0  0  0  0  0  0
  -20.5320  -27.0160   20.3580 C   0  0  0  0  0  2  0  0  0  0  0  0
  -19.0970  -27.0640   20.8910 C   0  0  0  0  0  2  0  0  0  0  0  0
  -20.0230  -28.5600   22.7540 C   0  0  0  0  0  0  0  0  0  0  0  0
  -19.8070  -29.5480   23.7390 C   0  0  0  0  0  3  0  0  0  0  0  0
  -18.5220  -30.0800   23.9550 C   0  0  0  0  0  3  0  0  0  0  0  0
  -17.4340  -29.6150   23.1980 C   0  0  0  0  0  3  0  0  0  0  0  0
  -17.6330  -28.6210   22.2230 C   0  0  0  0  0  3  0  0  0  0  0  0
  -26.8800  -31.1860   25.0680 C   0  0  0  0  0  3  0  0  0  0  0  0
  -26.7920  -32.5550   25.5880 N   0  0  0  0  0  0  0  0  0  0  0  0
  -27.4460  -33.6060   25.0770 C   0  0  0  0  0  0  0  0  0  0  0  0
  -28.2560  -33.5040   24.1500 O   0  0  0  0  0  0  0  0  0  0  0  0
  -26.1050  -32.7210   26.3100 H   0  0  0  0  0  0  0  0  0  0  0  0
  -26.2000  -35.7690   24.7760 C   0  0  0  0  0  1  0  0  0  0  0  0
  -27.1580  -34.9900   25.6900 C   0  0  0  0  0  3  0  0  0  0  0  0
  -29.2370  -35.2340   26.9730 C   0  0  0  0  0  1  0  0  0  0  0  0
  -28.3770  -35.7900   25.9320 N   0  0  0  0  0  0  0  0  0  0  0  0
  -28.1380  -36.7410   26.1940 H   0  0  0  0  0  0  0  0  0  0  0  0
  -27.0170  -30.1460   26.2470 C   0  0  1  0  0  0  0  0  0  0  0  0
  -25.6870  -29.8600   26.9800 C   0  0  0  0  0  1  0  0  0  0  0  0
  -27.5680  -28.7990   25.7240 C   0  0  0  0  0  1  0  0  0  0  0  0
  -28.0360  -30.6650   27.2900 C   0  0  0  0  0  1  0  0  0  0  0  0
  1  3  1  0
  2  1  2  0
  4  6  1  0
  5  4  2  0
  5  2  1  0
  6 54  1  0
  6  3  2  0
  7  5  1  0
  8  7  1  0
  8 10  1  0
  9  7  2  0
 11  8  1  0
 12 11  1  0
 12 13  1  0
 14 13  1  0
 14 23  1  0
 15 23  1  0
 15 21  1  0
 16 21  1  0
 17 18  1  0
 17 16  1  0
 19 18  1  0
 19 28  1  0
 19 20  1  0
 21 20  1  0
 22 15  2  0
 23 24  1  0
 25 26  2  0
 26 45  1  0
 27 26  1  0
 27 30  1  0
 28 25  1  0
 28 29  1  0
 29 27  2  0
 30 31  1  0
 31 32  2  0
 33 36  1  0
 33 32  1  0
 34 33  2  0
 35 34  1  0
 35 30  2  0
 36 37  1  0
 37 38  1  0
 38 39  2  0
 40 39  1  0
 40 44  1  0
 41 40  2  0
 42 37  2  0
 42 41  1  0
 43 42  1  0
 45 46  1  0
 46 49  1  0
 46 48  1  0
 47 45  2  0
 50 51  1  0
 50 25  1  0
 52 50  1  0
 53 54  1  0
 54 56  1  0
 55 53  2  0
 57 59  1  0
 57 53  1  0
 58 69  2  0
 59 64  1  0
 60 70  1  0
 60 68  1  0
 61 67  1  0
 61 63  1  0
 62 68  1  0
 63 62  1  0
 64 63  2  0
 65 66  1  0
 65 59  2  0
 66 61  2  0
 67 60  1  0
 68 58  1  0
 70 72  2  0
 71 70  1  0
 73 71  1  0
 74 83  2  0
 74 79  1  0
 75 71  1  0
 75 79  1  0
 76 75  1  0
 77 78  1  0
 77 76  1  0
 78 74  1  0
 79 80  2  0
 80 81  1  0
 82 81  2  0
 83 82  1  0
 84 58  1  0
 84 85  1  0
 84 94  1  0
 85 88  1  0
 86 85  1  0
 86 90  1  0
 87 86  2  0
 90 89  1  0
 90 92  1  0
 92 93  1  0
 92 91  1  0
 94 95  1  1
 94 97  1  0
 96 94  1  0
M  ISO  4  15 100  23 100  53 101  57 101
M  END
>  <TORSDO>  (68) 
F 22

>  <SCORE>  (68) 
-9.989

>  <name>  (68) 
67

>  <ligand_id>  (68) 
67

>  <original_smiles>  (68) 
[H]c1c([H])c(C(=O)N([H])C([H])([H])C([H])([H])C([H])([H])C([H])([H])N([H])C(=O)N2C([H])([H])C([H])([H])C([H])([H])C([H])(n3nc(-c4c([H])c([H])c(Oc5c([H])c([H])c(F)c([H])c5F)c([H])c4[H])c(C(=O)N([H])[H])c3N([H])[H])C2([H])[H])c([H])c(N([H])C(=O)Oc2c([H])c([H])c3c(c2[H])C([H])([H])N(C(=O)C([H])(N([H])C(=O)C([H])(N([H])C([H])([H])[H])C([H])([H])[H])C(C([H])([H])[H])(C([H])([H])[H])C([H])([H])[H])C([H])(C(=O)N([H])C2([H])c4c([H])c([H])c([H])c([H])c4C([H])([H])C([H])([H])C2([H])[H])C3([H])[H])c1[H]

>  <smiles>  (68) 
[H]c1c([H])c(C(=O)N([H])C([H])([H])C([H])([H])C([H])([H])C([H])([H])N([H])C(=O)N2C([H])([H])C([H])([H])C([H])([H])C([H])(n3nc(-c4c([H])c([H])c(Oc5c([H])c([H])c(F)c([H])c5F)c([H])c4[H])c(C(=O)N([H])[H])c3N([H])[H])C2([H])[H])c([H])c(N([H])C(=O)Oc2c([H])c([H])c3c(c2[H])C([H])([H])N(C(=O)C([H])(N([H])C(=O)C([H])(N([H])C([H])([H])[H])C([H])([H])[H])C(C([H])([H])[H])(C([H])([H])[H])C([H])([H])[H])C([H])(C(=O)N([H])C2([H])c4c([H])c([H])c([H])c([H])c4C([H])([H])C([H])([H])C2([H])[H])C3([H])[H])c1[H]

$$$$
68:0:0
     RDKit          3D

 96104  0  0  1  0  0  0  0  0999 V2000
  -30.5830  -18.0320   24.0510 C   0  0  0  0  0  3  0  0  0  0  0  0
  -30.5880  -19.4220   23.8430 C   0  0  0  0  0  3  0  0  0  0  0  0
  -30.5720  -17.1550   22.9540 C   0  0  0  0  0  3  0  0  0  0  0  0
  -30.5540  -19.0590   21.4350 C   0  0  0  0  0  3  0  0  0  0  0  0
  -30.5610  -19.9490   22.5370 C   0  0  0  0  0  0  0  0  0  0  0  0
  -30.5730  -17.6430   21.6260 C   0  0  0  0  0  0  0  0  0  0  0  0
  -30.5900  -21.4450   22.3680 C   0  0  0  0  0  0  0  0  0  0  0  0
  -29.5000  -22.0160   21.8350 N   0  0  0  0  0  0  0  0  0  0  0  0
  -31.5310  -22.0950   22.8270 O   0  0  0  0  0  0  0  0  0  0  0  0
  -28.7870  -21.3870   21.4890 H   0  0  0  0  0  0  0  0  0  0  0  0
  -29.0990  -23.4050   22.1170 C   0  0  0  0  0  2  0  0  0  0  0  0
  -28.9400  -24.3090   20.8760 C   0  0  0  0  0  2  0  0  0  0  0  0
  -28.4220  -25.7060   21.2880 C   0  0  0  0  0  2  0  0  0  0  0  0
  -28.4000  -26.6340   20.1980 O   0  0  0  0  0  0  0  0  0  0  0  0
  -24.5950  -31.7280   23.3980 C   0  0  0  0  0  0  0  0  0  0  0  0
  -27.2710  -27.4160   20.1850 C   0  0  0  0  0  0  0  0  0  0  0  0
  -23.4280  -30.4460   21.6300 C   0  0  0  0  0  3  0  0  0  0  0  0
  -24.9080  -28.9560   20.1820 C   0  0  0  0  0  0  0  0  0  0  0  0
  -25.9650  -30.7620   21.5540 C   0  0  0  0  0  2  0  0  0  0  0  0
  -26.0490  -29.4280   20.8430 C   0  0  0  0  0  0  0  0  0  0  0  0
  -27.2370  -28.6620   20.8480 C   0  0  0  0  0  3  0  0  0  0  0  0
  -26.1210  -26.9520   19.5200 C   0  0  0  0  0  3  0  0  0  0  0  0
  -24.9370  -27.7150   19.5200 C   0  0  0  0  0  3  0  0  0  0  0  0
  -23.6790  -29.8350   20.2250 C   0  0  0  0  0  2  0  0  0  0  0  0
  -24.6780  -30.9910   22.2530 N   0  0  0  0  0  0  0  0  0  0  0  0
  -23.5000  -31.9950   23.9100 O   0  0  0  0  0  0  0  0  0  0  0  0
  -22.7160  -29.3910   22.5060 C   0  0  0  0  0  0  0  0  0  0  0  0
  -21.3890  -29.2740   22.3430 N   0  0  0  0  0  0  0  0  0  0  0  0
  -23.3580  -28.6810   23.2860 O   0  0  0  0  0  0  0  0  0  0  0  0
  -20.9350  -29.8990   21.6910 H   0  0  0  0  0  0  0  0  0  0  0  0
  -17.9620  -28.1790   22.6770 C   0  0  0  0  0  0  0  0  0  0  0  0
  -20.5190  -28.3210   23.0320 C   0  0  0  0  0  3  0  0  0  0  0  0
  -20.5870  -26.9250   22.3700 C   0  0  0  0  0  2  0  0  0  0  0  0
  -19.5020  -26.7080   21.3090 C   0  0  0  0  0  2  0  0  0  0  0  0
  -18.1090  -26.8670   21.9250 C   0  0  0  0  0  2  0  0  0  0  0  0
  -19.0960  -28.8690   23.1840 C   0  0  0  0  0  0  0  0  0  0  0  0
  -18.9070  -30.1010   23.8470 C   0  0  0  0  0  3  0  0  0  0  0  0
  -17.6170  -30.6410   24.0080 C   0  0  0  0  0  3  0  0  0  0  0  0
  -16.4980  -29.9460   23.5170 C   0  0  0  0  0  3  0  0  0  0  0  0
  -16.6720  -28.7170   22.8570 C   0  0  0  0  0  3  0  0  0  0  0  0
  -25.8690  -32.2920   24.1010 C   0  0  0  0  0  3  0  0  0  0  0  0
  -25.6380  -33.7200   24.3570 N   0  0  0  0  0  0  0  0  0  0  0  0
  -26.0810  -34.7130   23.5760 C   0  0  0  0  0  0  0  0  0  0  0  0
  -26.8020  -34.5210   22.5920 O   0  0  0  0  0  0  0  0  0  0  0  0
  -25.0090  -33.9480   25.1140 H   0  0  0  0  0  0  0  0  0  0  0  0
  -24.4660  -36.5760   23.0800 C   0  0  0  0  0  1  0  0  0  0  0  0
  -25.6620  -36.1480   23.9460 C   0  0  0  0  0  3  0  0  0  0  0  0
  -27.8250  -36.9530   24.7840 C   0  0  0  0  0  1  0  0  0  0  0  0
  -26.7550  -37.1360   23.8070 N   0  0  0  0  0  0  0  0  0  0  0  0
  -26.3980  -38.0830   23.9010 H   0  0  0  0  0  0  0  0  0  0  0  0
  -26.2280  -31.5360   25.4400 C   0  0  1  0  0  0  0  0  0  0  0  0
  -25.0360  -31.3950   26.4130 C   0  0  0  0  0  1  0  0  0  0  0  0
  -26.7620  -30.1160   25.1390 C   0  0  0  0  0  1  0  0  0  0  0  0
  -27.3600  -32.2870   26.1790 C   0  0  0  0  0  1  0  0  0  0  0  0
  -30.6540  -16.6040   20.4750 C   0  0  0  0  0  3  0  0  0  0  0  0
  -32.0250  -14.4270   20.3320 C   0  0  0  0  0  0  0  0  0  0  0  0
  -31.5400  -12.1800   19.4360 C   0  0  0  0  0  2  0  0  0  0  0  0
  -30.6310  -12.2740   18.1950 C   0  0  0  0  0  2  0  0  0  0  0  0
  -29.1490  -12.2980   18.6170 C   0  0  0  0  0  2  0  0  0  0  0  0
  -28.8460  -13.2840   19.7790 C   0  0  0  0  0  3  0  0  0  0  0  0
  -29.8920  -13.1760   20.9120 C   0  0  0  0  0  2  0  0  0  0  0  0
  -31.2250  -13.3220   20.3100 N   0  0  0  0  0  0  0  0  0  0  0  0
  -33.1600  -14.4300   19.8600 O   0  0  0  0  0  0  0  0  0  0  0  0
  -31.5950  -15.5510   20.9240 N   0  0  0  0  0  0  0  0  0  0  0  0
  -32.3930  -16.0130   21.3320 H   0  0  0  0  0  0  0  0  0  0  0  0
  -26.5290  -14.0820   20.5660 C   0  0  0  0  0  0  0  0  0  0  0  0
  -25.3980  -13.4020   20.9250 C   0  0  0  0  0  0  0  0  0  0  0  0
  -25.7260  -12.0150   20.8360 C   0  0  0  0  0  0  0  0  0  0  0  0
  -27.4820  -13.1180   20.2800 N   0  0  0  0  0  0  0  0  0  0  0  0
  -27.0030  -11.8660   20.5020 N   0  0  0  0  0  0  0  0  0  0  0  0
  -24.8810  -10.8220   20.9910 C   0  0  0  0  0  0  0  0  0  0  0  0
  -25.2430   -9.7710   21.8610 C   0  0  0  0  0  3  0  0  0  0  0  0
  -24.4070   -8.6440   22.0120 C   0  0  0  0  0  3  0  0  0  0  0  0
  -23.1930   -8.5600   21.2890 C   0  0  0  0  0  0  0  0  0  0  0  0
  -22.8470   -9.5990   20.4060 C   0  0  0  0  0  3  0  0  0  0  0  0
  -23.6830  -10.7170   20.2550 C   0  0  0  0  0  3  0  0  0  0  0  0
  -22.3310   -7.4930   21.3510 O   0  0  0  0  0  0  0  0  0  0  0  0
  -22.0800   -6.8370   22.5290 C   0  0  0  0  0  0  0  0  0  0  0  0
  -21.5740   -7.5110   23.6620 C   0  0  0  0  0  3  0  0  0  0  0  0
  -21.2700   -6.7900   24.8330 C   0  0  0  0  0  3  0  0  0  0  0  0
  -21.4550   -5.3930   24.8680 C   0  0  0  0  0  0  0  0  0  0  0  0
  -21.9480   -4.7190   23.7380 C   0  0  0  0  0  3  0  0  0  0  0  0
  -22.2580   -5.4390   22.5700 C   0  0  0  0  0  0  0  0  0  0  0  0
  -22.7170   -4.7840   21.4770 F   0  0  0  0  0  0  0  0  0  0  0  0
  -21.1530   -4.6970   25.9890 F   0  0  0  0  0  0  0  0  0  0  0  0
  -24.0570  -14.0000   21.2360 C   0  0  0  0  0  0  0  0  0  0  0  0
  -23.3190  -13.4060   22.1680 N   0  0  0  0  0  0  0  0  0  0  0  0
  -23.6740  -15.0330   20.6860 O   0  0  0  0  0  0  0  0  0  0  0  0
  -23.6400  -12.5760   22.6400 H   0  0  0  0  0  0  0  0  0  0  0  0
  -22.4200  -13.7950   22.4130 H   0  0  0  0  0  0  0  0  0  0  0  0
  -26.8180  -15.4360   20.4410 N   0  0  0  0  0  0  0  0  0  0  0  0
  -26.1210  -16.1500   20.6250 H   0  0  0  0  0  0  0  0  0  0  0  0
  -27.7010  -15.8110   20.1250 H   0  0  0  0  0  0  0  0  0  0  0  0
  -31.4870  -16.4120   17.9330 C   0  0  0  0  0  1  0  0  0  0  0  0
  -29.6120  -17.9150   18.5290 C   0  0  0  0  0  1  0  0  0  0  0  0
  -30.9120  -17.2740   19.0690 C   0  0  0  0  0  3  0  0  0  0  0  0
  2  1  1  0
  3  1  2  0
  4  6  2  0
  4  5  1  0
  5  2  2  0
  6  3  1  0
  7  5  1  0
  7  9  2  0
  8 11  1  0
  8  7  1  0
 10  8  1  0
 12 13  1  0
 12 11  1  0
 14 13  1  0
 15 26  2  0
 16 14  1  0
 16 21  1  0
 17 25  1  0
 17 27  1  0
 18 24  1  0
 18 20  1  0
 19 25  1  0
 20 21  2  0
 20 19  1  0
 22 16  2  0
 23 22  1  0
 23 18  2  0
 24 17  1  0
 25 15  1  0
 27 29  2  0
 28 27  1  0
 30 28  1  0
 31 40  2  0
 31 36  1  0
 32 28  1  0
 32 36  1  0
 33 32  1  0
 34 35  1  0
 34 33  1  0
 35 31  1  0
 36 37  2  0
 37 38  1  0
 39 38  2  0
 40 39  1  0
 41 15  1  0
 41 42  1  0
 41 51  1  0
 42 45  1  0
 43 47  1  0
 43 42  1  0
 44 43  2  0
 47 46  1  0
 49 50  1  0
 49 47  1  0
 49 48  1  0
 51 54  1  1
 51 52  1  0
 53 51  1  0
 55 96  1  0
 55 64  1  0
 55  6  1  0
 56 64  1  0
 57 62  1  0
 58 59  1  0
 58 57  1  0
 60 59  1  0
 60 69  1  0
 60 61  1  0
 62 56  1  0
 62 61  1  0
 63 56  2  0
 64 65  1  0
 66 67  2  0
 67 86  1  0
 68 67  1  0
 68 71  1  0
 69 70  1  0
 69 66  1  0
 70 68  2  0
 71 72  1  0
 72 73  2  0
 74 77  1  0
 74 73  1  0
 75 74  2  0
 76 75  1  0
 76 71  2  0
 77 78  1  0
 78 83  2  0
 78 79  1  0
 79 80  2  0
 80 81  1  0
 81 85  1  0
 82 81  2  0
 83 82  1  0
 84 83  1  0
 86 87  1  0
 87 90  1  0
 87 89  1  0
 88 86  2  0
 91 66  1  0
 91 92  1  0
 93 91  1  0
 94 96  1  0
 95 96  1  0
M  ISO  4  13 101  14 101  56 100  64 100
M  END
>  <TORSDO>  (69) 
F 22

>  <SCORE>  (69) 
-10.474

>  <name>  (69) 
68

>  <ligand_id>  (69) 
68

>  <original_smiles>  (69) 
[H]c1c([H])c([H])c2c(c1[H])C([H])([H])C([H])([H])C([H])([H])C2([H])N([H])C(=O)C1([H])N(C(=O)C([H])(N([H])C(=O)C([H])(N([H])C([H])([H])[H])C([H])([H])[H])C(C([H])([H])[H])(C([H])([H])[H])C([H])([H])[H])C([H])([H])c2c([H])c(OC([H])([H])C([H])([H])C([H])([H])N([H])C(=O)c3c([H])c([H])c([H])c(C([H])(N([H])C(=O)N4C([H])([H])C([H])([H])C([H])([H])C([H])(n5nc(-c6c([H])c([H])c(Oc7c([H])c([H])c(F)c([H])c7F)c([H])c6[H])c(C(=O)N([H])[H])c5N([H])[H])C4([H])[H])C([H])(C([H])([H])[H])C([H])([H])[H])c3[H])c([H])c([H])c2C1([H])[H]

>  <smiles>  (69) 
[H]c1c([H])c([H])c2c(c1[H])C([H])([H])C([H])([H])C([H])([H])C2([H])N([H])C(=O)C1([H])N(C(=O)C([H])(N([H])C(=O)C([H])(N([H])C([H])([H])[H])C([H])([H])[H])C(C([H])([H])[H])(C([H])([H])[H])C([H])([H])[H])C([H])([H])c2c([H])c(OC([H])([H])C([H])([H])C([H])([H])N([H])C(=O)c3c([H])c([H])c([H])c(C([H])(N([H])C(=O)N4C([H])([H])C([H])([H])C([H])([H])C([H])(n5nc(-c6c([H])c([H])c(Oc7c([H])c([H])c(F)c([H])c7F)c([H])c6[H])c(C(=O)N([H])[H])c5N([H])[H])C4([H])[H])C([H])(C([H])([H])[H])C([H])([H])[H])c3[H])c([H])c([H])c2C1([H])[H]

$$$$
69:0:0
     RDKit          3D

 96103  0  0  1  0  0  0  0  0999 V2000
  -23.6270  -23.5610   23.8160 C   0  0  0  0  0  2  0  0  0  0  0  0
  -23.2910  -24.6590   22.9650 O   0  0  0  0  0  0  0  0  0  0  0  0
  -24.3950  -25.4510   22.5370 C   0  0  0  0  0  2  0  0  0  0  0  0
  -24.8300  -25.0720   21.1150 C   0  0  0  0  0  2  0  0  0  0  0  0
  -26.0530  -25.7260   20.8190 O   0  0  0  0  0  0  0  0  0  0  0  0
  -26.7990  -25.0740   19.7990 C   0  0  0  0  0  2  0  0  0  0  0  0
  -27.7360  -26.0700   19.0930 C   0  0  0  0  0  2  0  0  0  0  0  0
  -27.0220  -26.8020   18.0990 O   0  0  0  0  0  0  0  0  0  0  0  0
  -24.9810  -31.4750   23.0820 C   0  0  0  0  0  0  0  0  0  0  0  0
  -26.0640  -27.6510   18.5830 C   0  0  0  0  0  0  0  0  0  0  0  0
  -23.2240  -30.7090   21.5140 C   0  0  0  0  0  3  0  0  0  0  0  0
  -24.0440  -29.3880   19.4940 C   0  0  0  0  0  0  0  0  0  0  0  0
  -25.6780  -30.7590   20.8020 C   0  0  0  0  0  2  0  0  0  0  0  0
  -25.3720  -29.5880   19.8900 C   0  0  0  0  0  0  0  0  0  0  0  0
  -26.3880  -28.7200   19.4440 C   0  0  0  0  0  3  0  0  0  0  0  0
  -24.7280  -27.4560   18.1830 C   0  0  0  0  0  3  0  0  0  0  0  0
  -23.7130  -28.3190   18.6420 C   0  0  0  0  0  3  0  0  0  0  0  0
  -23.0220  -30.3740   20.0120 C   0  0  0  0  0  2  0  0  0  0  0  0
  -24.6590  -30.9790   21.8540 N   0  0  0  0  0  0  0  0  0  0  0  0
  -24.1040  -31.7550   23.9110 O   0  0  0  0  0  0  0  0  0  0  0  0
  -22.5910  -29.5850   22.3650 C   0  0  0  0  0  0  0  0  0  0  0  0
  -21.2500  -29.5200   22.3650 N   0  0  0  0  0  0  0  0  0  0  0  0
  -23.3000  -28.7800   22.9730 O   0  0  0  0  0  0  0  0  0  0  0  0
  -20.7410  -30.2250   21.8490 H   0  0  0  0  0  0  0  0  0  0  0  0
  -17.8690  -28.3520   22.8570 C   0  0  0  0  0  0  0  0  0  0  0  0
  -20.4400  -28.5240   23.0640 C   0  0  0  0  0  3  0  0  0  0  0  0
  -20.4910  -27.1610   22.3380 C   0  0  0  0  0  2  0  0  0  0  0  0
  -19.3450  -26.9590   21.3400 C   0  0  0  0  0  2  0  0  0  0  0  0
  -17.9890  -27.0740   22.0450 C   0  0  0  0  0  2  0  0  0  0  0  0
  -19.0190  -29.0410   23.3220 C   0  0  0  0  0  0  0  0  0  0  0  0
  -18.8550  -30.2430   24.0460 C   0  0  0  0  0  3  0  0  0  0  0  0
  -17.5690  -30.7490   24.3140 C   0  0  0  0  0  3  0  0  0  0  0  0
  -16.4320  -30.0570   23.8640 C   0  0  0  0  0  3  0  0  0  0  0  0
  -16.5830  -28.8630   23.1390 C   0  0  0  0  0  3  0  0  0  0  0  0
  -26.4650  -31.7380   23.4940 C   0  0  0  0  0  3  0  0  0  0  0  0
  -26.5290  -33.0770   24.0940 N   0  0  0  0  0  0  0  0  0  0  0  0
  -26.9630  -34.1760   23.4610 C   0  0  0  0  0  0  0  0  0  0  0  0
  -27.4300  -34.1520   22.3180 O   0  0  0  0  0  0  0  0  0  0  0  0
  -26.1170  -33.1800   25.0110 H   0  0  0  0  0  0  0  0  0  0  0  0
  -25.6420  -36.3000   23.7110 C   0  0  0  0  0  1  0  0  0  0  0  0
  -26.8630  -35.5150   24.2150 C   0  0  0  0  0  3  0  0  0  0  0  0
  -29.2350  -35.7870   24.7810 C   0  0  0  0  0  1  0  0  0  0  0  0
  -28.0780  -36.3490   24.0940 N   0  0  0  0  0  0  0  0  0  0  0  0
  -27.9120  -37.2800   24.4670 H   0  0  0  0  0  0  0  0  0  0  0  0
  -27.0380  -30.6530   24.4840 C   0  0  1  0  0  0  0  0  0  0  0  0
  -26.1400  -30.4030   25.7160 C   0  0  0  0  0  1  0  0  0  0  0  0
  -27.2330  -29.3040   23.7560 C   0  0  0  0  0  1  0  0  0  0  0  0
  -28.4340  -31.0890   24.9920 C   0  0  0  0  0  1  0  0  0  0  0  0
  -24.4460  -22.4720   23.0970 C   0  0  0  0  0  2  0  0  0  0  0  0
  -25.4800  -23.0590   22.3220 O   0  0  0  0  0  0  0  0  0  0  0  0
  -26.4100  -22.1240   21.7940 C   0  0  0  0  0  2  0  0  0  0  0  0
  -26.9940  -22.7070   20.4980 C   0  0  0  0  0  2  0  0  0  0  0  0
  -28.1460  -21.9860   20.0940 O   0  0  0  0  0  0  0  0  0  0  0  0
  -28.6020  -22.3830   18.8030 C   0  0  0  0  0  2  0  0  0  0  0  0
  -29.8270  -21.5350   18.4450 C   0  0  0  0  0  2  0  0  0  0  0  0
  -29.4060  -20.1820   18.3190 O   0  0  0  0  0  0  0  0  0  0  0  0
  -30.1140  -19.2700   19.1470 C   0  0  0  0  0  2  0  0  0  0  0  0
  -29.6490  -17.8660   18.7350 C   0  0  0  0  0  2  0  0  0  0  0  0
  -30.6810  -15.9390   19.9030 C   0  0  0  0  0  0  0  0  0  0  0  0
  -30.9940  -13.5110   20.1520 C   0  0  0  0  0  2  0  0  0  0  0  0
  -30.3260  -12.8060   18.9520 C   0  0  0  0  0  2  0  0  0  0  0  0
  -28.8280  -12.5540   19.2240 C   0  0  0  0  0  2  0  0  0  0  0  0
  -28.0930  -13.8120   19.7570 C   0  0  0  0  0  3  0  0  0  0  0  0
  -28.8940  -14.4700   20.9050 C   0  0  0  0  0  2  0  0  0  0  0  0
  -30.2560  -14.7540   20.4150 N   0  0  0  0  0  0  0  0  0  0  0  0
  -31.8020  -16.1150   19.4180 O   0  0  0  0  0  0  0  0  0  0  0  0
  -29.7270  -16.8730   19.8040 N   0  0  0  0  0  0  0  0  0  0  0  0
  -28.8660  -16.6720   20.2900 H   0  0  0  0  0  0  0  0  0  0  0  0
  -25.6370  -14.3520   20.3220 C   0  0  0  0  0  0  0  0  0  0  0  0
  -24.5780  -13.5510   20.6560 C   0  0  0  0  0  0  0  0  0  0  0  0
  -25.0850  -12.2170   20.6800 C   0  0  0  0  0  0  0  0  0  0  0  0
  -26.7220  -13.5020   20.1650 N   0  0  0  0  0  0  0  0  0  0  0  0
  -26.3890  -12.2140   20.4340 N   0  0  0  0  0  0  0  0  0  0  0  0
  -24.3940  -10.9340   20.8650 C   0  0  0  0  0  0  0  0  0  0  0  0
  -24.7510  -10.0450   21.9040 C   0  0  0  0  0  3  0  0  0  0  0  0
  -24.0590   -8.8270   22.0710 C   0  0  0  0  0  3  0  0  0  0  0  0
  -22.9970   -8.4870   21.2000 C   0  0  0  0  0  0  0  0  0  0  0  0
  -22.6600   -9.3660   20.1560 C   0  0  0  0  0  3  0  0  0  0  0  0
  -23.3530  -10.5750   19.9860 C   0  0  0  0  0  3  0  0  0  0  0  0
  -22.2870   -7.3130   21.2710 O   0  0  0  0  0  0  0  0  0  0  0  0
  -22.0370   -6.6940   22.4690 C   0  0  0  0  0  0  0  0  0  0  0  0
  -21.3580   -7.3480   23.5190 C   0  0  0  0  0  3  0  0  0  0  0  0
  -21.0580   -6.6520   24.7070 C   0  0  0  0  0  3  0  0  0  0  0  0
  -21.4320   -5.3020   24.8450 C   0  0  0  0  0  0  0  0  0  0  0  0
  -22.1050   -4.6450   23.7990 C   0  0  0  0  0  3  0  0  0  0  0  0
  -22.4030   -5.3410   22.6130 C   0  0  0  0  0  0  0  0  0  0  0  0
  -23.0330   -4.6970   21.6010 F   0  0  0  0  0  0  0  0  0  0  0  0
  -21.1390   -4.6300   25.9840 F   0  0  0  0  0  0  0  0  0  0  0  0
  -23.1530  -13.9870   20.8510 C   0  0  0  0  0  0  0  0  0  0  0  0
  -22.4120  -13.2930   21.7080 N   0  0  0  0  0  0  0  0  0  0  0  0
  -22.7020  -14.9770   20.2790 O   0  0  0  0  0  0  0  0  0  0  0  0
  -22.7860  -12.4950   22.1970 H   0  0  0  0  0  0  0  0  0  0  0  0
  -21.4540  -13.5650   21.8770 H   0  0  0  0  0  0  0  0  0  0  0  0
  -25.7640  -15.7250   20.1220 N   0  0  0  0  0  0  0  0  0  0  0  0
  -24.9690  -16.3540   20.1780 H   0  0  0  0  0  0  0  0  0  0  0  0
  -26.6190  -16.1880   19.8390 H   0  0  0  0  0  0  0  0  0  0  0  0
  2  1  1  0
  3  2  1  0
  4  3  1  0
  5  4  1  0
  6  5  1  0
  7  6  1  0
  8 10  1  0
  8  7  1  0
  9 20  2  0
 10 15  1  0
 11 19  1  0
 11 21  1  0
 12 14  1  0
 12 18  1  0
 13 19  1  0
 14 13  1  0
 15 14  2  0
 16 10  2  0
 16 17  1  0
 17 12  2  0
 18 11  1  0
 19  9  1  0
 21 22  1  0
 21 23  2  0
 24 22  1  0
 25 34  2  0
 25 30  1  0
 26 22  1  0
 26 30  1  0
 27 26  1  0
 28 29  1  0
 28 27  1  0
 29 25  1  0
 30 31  2  0
 31 32  1  0
 33 32  2  0
 34 33  1  0
 35  9  1  0
 35 36  1  0
 35 45  1  0
 36 39  1  0
 37 36  1  0
 37 41  1  0
 38 37  2  0
 41 40  1  0
 43 41  1  0
 43 44  1  0
 43 42  1  0
 45 48  1  1
 45 46  1  0
 47 45  1  0
 49  1  1  0
 50 49  1  0
 51 50  1  0
 52 51  1  0
 53 52  1  0
 54 53  1  0
 55 54  1  0
 56 55  1  0
 56 57  1  0
 58 57  1  0
 58 67  1  0
 59 65  1  0
 60 65  1  0
 61 62  1  0
 61 60  1  0
 63 62  1  0
 63 72  1  0
 63 64  1  0
 65 64  1  0
 66 59  2  0
 67 59  1  0
 67 68  1  0
 69 70  2  0
 70 71  1  0
 70 89  1  0
 71 74  1  0
 72 69  1  0
 72 73  1  0
 73 71  2  0
 74 75  1  0
 75 76  2  0
 77 80  1  0
 77 76  1  0
 78 77  2  0
 79 78  1  0
 79 74  2  0
 80 81  1  0
 81 86  2  0
 81 82  1  0
 82 83  2  0
 83 84  1  0
 84 88  1  0
 85 84  2  0
 86 85  1  0
 87 86  1  0
 89 90  1  0
 90 93  1  0
 90 92  1  0
 91 89  2  0
 94 95  1  0
 94 69  1  0
 96 94  1  0
M  ISO  4   7 101   8 101  59 100  67 100
M  END
>  <TORSDO>  (70) 
F 32

>  <SCORE>  (70) 
-4.596

>  <name>  (70) 
69

>  <ligand_id>  (70) 
69

>  <original_smiles>  (70) 
[H]c1c([H])c([H])c2c(c1[H])C([H])([H])C([H])([H])C([H])([H])C2([H])N([H])C(=O)C1([H])N(C(=O)C([H])(N([H])C(=O)C([H])(N([H])C([H])([H])[H])C([H])([H])[H])C(C([H])([H])[H])(C([H])([H])[H])C([H])([H])[H])C([H])([H])c2c([H])c(OC([H])([H])C([H])([H])OC([H])([H])C([H])([H])OC([H])([H])C([H])([H])OC([H])([H])C([H])([H])OC([H])([H])C([H])([H])OC([H])([H])C([H])([H])N([H])C(=O)N3C([H])([H])C([H])([H])C([H])([H])C([H])(n4nc(-c5c([H])c([H])c(Oc6c([H])c([H])c(F)c([H])c6F)c([H])c5[H])c(C(=O)N([H])[H])c4N([H])[H])C3([H])[H])c([H])c([H])c2C1([H])[H]

>  <smiles>  (70) 
[H]c1c([H])c([H])c2c(c1[H])C([H])([H])C([H])([H])C([H])([H])C2([H])N([H])C(=O)C1([H])N(C(=O)C([H])(N([H])C(=O)C([H])(N([H])C([H])([H])[H])C([H])([H])[H])C(C([H])([H])[H])(C([H])([H])[H])C([H])([H])[H])C([H])([H])c2c([H])c(OC([H])([H])C([H])([H])OC([H])([H])C([H])([H])OC([H])([H])C([H])([H])OC([H])([H])C([H])([H])OC([H])([H])C([H])([H])OC([H])([H])C([H])([H])N([H])C(=O)N3C([H])([H])C([H])([H])C([H])([H])C([H])(n4nc(-c5c([H])c([H])c(Oc6c([H])c([H])c(F)c([H])c6F)c([H])c5[H])c(C(=O)N([H])[H])c4N([H])[H])C3([H])[H])c([H])c([H])c2C1([H])[H]

$$$$
70:0:0
     RDKit          3D

 96103  0  0  1  0  0  0  0  0999 V2000
  -31.1360  -23.1260   24.3280 C   0  0  0  0  0  2  0  0  0  0  0  0
  -30.7840  -21.8510   22.2360 C   0  0  0  0  0  0  0  0  0  0  0  0
  -30.7140  -21.9590   23.5650 N   0  0  0  0  0  0  0  0  0  0  0  0
  -31.4710  -22.6000   21.5380 O   0  0  0  0  0  0  0  0  0  0  0  0
  -30.1260  -21.2990   24.0570 H   0  0  0  0  0  0  0  0  0  0  0  0
  -29.9220  -20.7620   21.6000 C   0  0  0  0  0  2  0  0  0  0  0  0
  -30.5760  -20.1130   20.3690 C   0  0  0  0  0  2  0  0  0  0  0  0
  -29.9370  -18.7660   20.0000 C   0  0  0  0  0  2  0  0  0  0  0  0
  -30.5070  -17.5990   20.8170 C   0  0  0  0  0  2  0  0  0  0  0  0
  -29.6740  -16.3210   20.6680 C   0  0  0  0  0  2  0  0  0  0  0  0
  -30.8900  -14.2790   20.3210 C   0  0  0  0  0  0  0  0  0  0  0  0
  -30.4210  -12.2140   19.0620 C   0  0  0  0  0  2  0  0  0  0  0  0
  -29.4320  -12.4870   17.9140 C   0  0  0  0  0  2  0  0  0  0  0  0
  -27.9720  -12.4030   18.4030 C   0  0  0  0  0  2  0  0  0  0  0  0
  -27.7260  -13.2080   19.7040 C   0  0  0  0  0  3  0  0  0  0  0  0
  -28.8180  -12.9060   20.7560 C   0  0  0  0  0  2  0  0  0  0  0  0
  -30.1340  -13.1660   20.1430 N   0  0  0  0  0  0  0  0  0  0  0  0
  -31.9400  -14.5080   19.7160 O   0  0  0  0  0  0  0  0  0  0  0  0
  -30.4090  -15.1710   21.1860 N   0  0  0  0  0  0  0  0  0  0  0  0
  -31.1330  -15.4850   21.8140 H   0  0  0  0  0  0  0  0  0  0  0  0
  -25.3790  -13.8790   20.5240 C   0  0  0  0  0  0  0  0  0  0  0  0
  -24.3020  -13.1340   20.9180 C   0  0  0  0  0  0  0  0  0  0  0  0
  -24.7140  -11.7680   20.8350 C   0  0  0  0  0  0  0  0  0  0  0  0
  -26.3850  -12.9690   20.2310 N   0  0  0  0  0  0  0  0  0  0  0  0
  -25.9870  -11.6950   20.4690 N   0  0  0  0  0  0  0  0  0  0  0  0
  -23.9540  -10.5250   21.0230 C   0  0  0  0  0  0  0  0  0  0  0  0
  -24.3940   -9.5210   21.9140 C   0  0  0  0  0  3  0  0  0  0  0  0
  -23.6380   -8.3420   22.0930 C   0  0  0  0  0  3  0  0  0  0  0  0
  -22.4310   -8.1580   21.3790 C   0  0  0  0  0  0  0  0  0  0  0  0
  -22.0100   -9.1490   20.4770 C   0  0  0  0  0  3  0  0  0  0  0  0
  -22.7640  -10.3210   20.2960 C   0  0  0  0  0  3  0  0  0  0  0  0
  -21.6450   -7.0340   21.4680 O   0  0  0  0  0  0  0  0  0  0  0  0
  -21.6130   -6.2680   22.6050 C   0  0  0  0  0  0  0  0  0  0  0  0
  -21.2510   -6.8060   23.8590 C   0  0  0  0  0  3  0  0  0  0  0  0
  -21.1670   -5.9670   24.9870 C   0  0  0  0  0  3  0  0  0  0  0  0
  -21.4330   -4.5900   24.8650 C   0  0  0  0  0  0  0  0  0  0  0  0
  -21.7880   -4.0510   23.6160 C   0  0  0  0  0  3  0  0  0  0  0  0
  -21.8760   -4.8880   22.4890 C   0  0  0  0  0  0  0  0  0  0  0  0
  -22.1990   -4.3580   21.2840 F   0  0  0  0  0  0  0  0  0  0  0  0
  -21.3420   -3.7830   25.9480 F   0  0  0  0  0  0  0  0  0  0  0  0
  -22.9330  -13.6470   21.2610 C   0  0  0  0  0  0  0  0  0  0  0  0
  -22.2220  -12.9580   22.1490 N   0  0  0  0  0  0  0  0  0  0  0  0
  -22.5030  -14.6940   20.7780 O   0  0  0  0  0  0  0  0  0  0  0  0
  -22.5800  -12.1090   22.5610 H   0  0  0  0  0  0  0  0  0  0  0  0
  -21.3050  -13.2850   22.4190 H   0  0  0  0  0  0  0  0  0  0  0  0
  -25.5900  -15.2470   20.3710 N   0  0  0  0  0  0  0  0  0  0  0  0
  -24.8630  -15.9370   20.5310 H   0  0  0  0  0  0  0  0  0  0  0  0
  -26.4550  -15.6500   20.0360 H   0  0  0  0  0  0  0  0  0  0  0  0
  -30.1100  -24.2490   24.1190 C   0  0  0  0  0  2  0  0  0  0  0  0
  -28.8060  -23.7040   24.3040 O   0  0  0  0  0  0  0  0  0  0  0  0
  -27.7830  -24.4130   23.6180 C   0  0  0  0  0  2  0  0  0  0  0  0
  -27.5190  -23.7960   22.2280 C   0  0  0  0  0  2  0  0  0  0  0  0
  -28.3780  -24.2940   21.2060 O   0  0  0  0  0  0  0  0  0  0  0  0
  -28.0660  -25.6050   20.7540 C   0  0  0  0  0  2  0  0  0  0  0  0
  -28.7820  -25.8640   19.4120 C   0  0  0  0  0  2  0  0  0  0  0  0
  -28.6920  -27.2300   19.0030 O   0  0  0  0  0  0  0  0  0  0  0  0
  -24.5320  -31.4120   22.9120 C   0  0  0  0  0  0  0  0  0  0  0  0
  -27.4520  -27.8130   19.1040 C   0  0  0  0  0  0  0  0  0  0  0  0
  -23.3920  -30.1700   21.0980 C   0  0  0  0  0  3  0  0  0  0  0  0
  -24.9250  -29.0300   19.4100 C   0  0  0  0  0  0  0  0  0  0  0  0
  -25.8590  -30.8140   20.8940 C   0  0  0  0  0  2  0  0  0  0  0  0
  -26.0480  -29.5770   20.0440 C   0  0  0  0  0  0  0  0  0  0  0  0
  -27.3140  -28.9780   19.8880 C   0  0  0  0  0  3  0  0  0  0  0  0
  -26.3170  -27.2740   18.4610 C   0  0  0  0  0  3  0  0  0  0  0  0
  -25.0530  -27.8770   18.6150 C   0  0  0  0  0  3  0  0  0  0  0  0
  -23.6090  -29.7390   19.6230 C   0  0  0  0  0  2  0  0  0  0  0  0
  -24.6140  -30.8040   21.6950 N   0  0  0  0  0  0  0  0  0  0  0  0
  -23.4540  -31.4880   23.5180 O   0  0  0  0  0  0  0  0  0  0  0  0
  -22.8820  -28.9520   21.9000 C   0  0  0  0  0  0  0  0  0  0  0  0
  -21.5770  -28.6630   21.7820 N   0  0  0  0  0  0  0  0  0  0  0  0
  -23.6580  -28.2770   22.5830 O   0  0  0  0  0  0  0  0  0  0  0  0
  -21.0060  -29.2680   21.2100 H   0  0  0  0  0  0  0  0  0  0  0  0
  -18.3520  -27.0940   22.1790 C   0  0  0  0  0  0  0  0  0  0  0  0
  -20.8860  -27.5430   22.4170 C   0  0  0  0  0  3  0  0  0  0  0  0
  -21.0910  -26.2360   21.6150 C   0  0  0  0  0  2  0  0  0  0  0  0
  -19.9780  -25.9770   20.5940 C   0  0  0  0  0  2  0  0  0  0  0  0
  -18.6180  -25.8900   21.2920 C   0  0  0  0  0  2  0  0  0  0  0  0
  -19.4170  -27.8800   22.6940 C   0  0  0  0  0  0  0  0  0  0  0  0
  -19.1120  -29.0130   23.4810 C   0  0  0  0  0  3  0  0  0  0  0  0
  -17.7760  -29.3570   23.7610 C   0  0  0  0  0  3  0  0  0  0  0  0
  -16.7270  -28.5660   23.2610 C   0  0  0  0  0  3  0  0  0  0  0  0
  -17.0160  -27.4370   22.4740 C   0  0  0  0  0  3  0  0  0  0  0  0
  -25.7800  -32.0640   23.5860 C   0  0  0  0  0  3  0  0  0  0  0  0
  -25.3920  -33.4090   24.0270 N   0  0  0  0  0  0  0  0  0  0  0  0
  -25.6730  -34.5380   23.3600 C   0  0  0  0  0  0  0  0  0  0  0  0
  -26.3580  -34.5550   22.3340 O   0  0  0  0  0  0  0  0  0  0  0  0
  -24.7810  -33.4660   24.8290 H   0  0  0  0  0  0  0  0  0  0  0  0
  -23.8460  -36.2510   23.1290 C   0  0  0  0  0  1  0  0  0  0  0  0
  -25.1020  -35.8550   23.9200 C   0  0  0  0  0  3  0  0  0  0  0  0
  -27.1800  -36.7870   24.8370 C   0  0  0  0  0  1  0  0  0  0  0  0
  -26.0720  -36.9710   23.9040 N   0  0  0  0  0  0  0  0  0  0  0  0
  -25.6120  -37.8500   24.1280 H   0  0  0  0  0  0  0  0  0  0  0  0
  -26.3410  -31.2200   24.7940 C   0  0  1  0  0  0  0  0  0  0  0  0
  -25.2670  -30.8240   25.8310 C   0  0  0  0  0  1  0  0  0  0  0  0
  -27.0080  -29.9200   24.2870 C   0  0  0  0  0  1  0  0  0  0  0  0
  -27.4400  -32.0220   25.5300 C   0  0  0  0  0  1  0  0  0  0  0  0
  2  3  1  0
  3  5  1  0
  3  1  1  0
  4  2  2  0
  6  2  1  0
  7  6  1  0
  8  7  1  0
  8  9  1  0
 10  9  1  0
 10 19  1  0
 11 19  1  0
 12 17  1  0
 13 14  1  0
 13 12  1  0
 15 14  1  0
 15 24  1  0
 15 16  1  0
 17 11  1  0
 17 16  1  0
 18 11  2  0
 19 20  1  0
 21 22  2  0
 22 41  1  0
 23 22  1  0
 23 26  1  0
 24 25  1  0
 24 21  1  0
 25 23  2  0
 26 27  1  0
 27 28  2  0
 29 32  1  0
 29 28  1  0
 30 29  2  0
 31 30  1  0
 31 26  2  0
 32 33  1  0
 33 34  1  0
 34 35  2  0
 36 35  1  0
 36 40  1  0
 37 36  2  0
 38 33  2  0
 38 37  1  0
 39 38  1  0
 41 42  1  0
 42 45  1  0
 42 44  1  0
 43 41  2  0
 46 21  1  0
 46 47  1  0
 48 46  1  0
 49 50  1  0
 49  1  1  0
 51 50  1  0
 52 51  1  0
 53 52  1  0
 54 53  1  0
 55 54  1  0
 56 58  1  0
 56 55  1  0
 57 68  2  0
 58 63  1  0
 59 67  1  0
 59 69  1  0
 60 66  1  0
 60 62  1  0
 61 67  1  0
 62 61  1  0
 63 62  2  0
 64 65  1  0
 64 58  2  0
 65 60  2  0
 66 59  1  0
 67 57  1  0
 69 71  2  0
 70 69  1  0
 72 70  1  0
 73 82  2  0
 73 78  1  0
 74 70  1  0
 74 78  1  0
 75 74  1  0
 76 77  1  0
 76 75  1  0
 77 73  1  0
 78 79  2  0
 79 80  1  0
 81 80  2  0
 82 81  1  0
 83 57  1  0
 83 84  1  0
 83 93  1  0
 84 87  1  0
 85 89  1  0
 85 84  1  0
 86 85  2  0
 89 88  1  0
 91 89  1  0
 91 92  1  0
 91 90  1  0
 93 96  1  1
 93 94  1  0
 95 93  1  0
M  ISO  4  11 100  19 100  55 101  56 101
M  END
>  <TORSDO>  (71) 
F 29

>  <SCORE>  (71) 
-5.851

>  <name>  (71) 
70

>  <ligand_id>  (71) 
70

>  <original_smiles>  (71) 
[H]c1c([H])c([H])c2c(c1[H])C([H])([H])C([H])([H])C([H])([H])C2([H])N([H])C(=O)C1([H])N(C(=O)C([H])(N([H])C(=O)C([H])(N([H])C([H])([H])[H])C([H])([H])[H])C(C([H])([H])[H])(C([H])([H])[H])C([H])([H])[H])C([H])([H])c2c([H])c(OC([H])([H])C([H])([H])OC([H])([H])C([H])([H])OC([H])([H])C([H])([H])N([H])C(=O)C([H])([H])C([H])([H])C([H])([H])C([H])([H])C([H])([H])N([H])C(=O)N3C([H])([H])C([H])([H])C([H])([H])C([H])(n4nc(-c5c([H])c([H])c(Oc6c([H])c([H])c(F)c([H])c6F)c([H])c5[H])c(C(=O)N([H])[H])c4N([H])[H])C3([H])[H])c([H])c([H])c2C1([H])[H]

>  <smiles>  (71) 
[H]c1c([H])c([H])c2c(c1[H])C([H])([H])C([H])([H])C([H])([H])C2([H])N([H])C(=O)C1([H])N(C(=O)C([H])(N([H])C(=O)C([H])(N([H])C([H])([H])[H])C([H])([H])[H])C(C([H])([H])[H])(C([H])([H])[H])C([H])([H])[H])C([H])([H])c2c([H])c(OC([H])([H])C([H])([H])OC([H])([H])C([H])([H])OC([H])([H])C([H])([H])N([H])C(=O)C([H])([H])C([H])([H])C([H])([H])C([H])([H])C([H])([H])N([H])C(=O)N3C([H])([H])C([H])([H])C([H])([H])C([H])(n4nc(-c5c([H])c([H])c(Oc6c([H])c([H])c(F)c([H])c6F)c([H])c5[H])c(C(=O)N([H])[H])c4N([H])[H])C3([H])[H])c([H])c([H])c2C1([H])[H]

$$$$
71:0:0
     RDKit          3D

 94101  0  0  1  0  0  0  0  0999 V2000
  -29.4220  -22.5960   18.0220 C   0  0  0  0  0  2  0  0  0  0  0  0
  -29.8730  -23.4240   16.8140 C   0  0  0  0  0  2  0  0  0  0  0  0
  -30.6820  -24.6580   17.2310 C   0  0  0  0  0  2  0  0  0  0  0  0
  -29.8220  -25.5510   17.9200 O   0  0  0  0  0  0  0  0  0  0  0  0
  -30.4930  -26.3480   18.8890 C   0  0  0  0  0  2  0  0  0  0  0  0
  -29.5190  -27.4120   19.4040 C   0  0  0  0  0  2  0  0  0  0  0  0
  -28.4410  -26.7540   20.0610 O   0  0  0  0  0  0  0  0  0  0  0  0
  -24.6000  -31.8680   23.2100 C   0  0  0  0  0  0  0  0  0  0  0  0
  -27.2850  -27.4860   20.1200 C   0  0  0  0  0  0  0  0  0  0  0  0
  -23.4050  -30.4690   21.5540 C   0  0  0  0  0  3  0  0  0  0  0  0
  -24.8740  -28.9430   20.1370 C   0  0  0  0  0  0  0  0  0  0  0  0
  -25.9260  -30.8510   21.3660 C   0  0  0  0  0  2  0  0  0  0  0  0
  -26.0230  -29.4840   20.7280 C   0  0  0  0  0  0  0  0  0  0  0  0
  -27.2340  -28.7620   20.7210 C   0  0  0  0  0  3  0  0  0  0  0  0
  -26.1180  -26.9380   19.5510 C   0  0  0  0  0  3  0  0  0  0  0  0
  -24.9130  -27.6660   19.5490 C   0  0  0  0  0  3  0  0  0  0  0  0
  -23.6260  -29.7950   20.1730 C   0  0  0  0  0  2  0  0  0  0  0  0
  -24.6620  -31.0770   22.1030 N   0  0  0  0  0  0  0  0  0  0  0  0
  -23.5160  -32.1330   23.7470 O   0  0  0  0  0  0  0  0  0  0  0  0
  -22.7560  -29.4400   22.5050 C   0  0  0  0  0  0  0  0  0  0  0  0
  -21.4310  -29.2630   22.3780 N   0  0  0  0  0  0  0  0  0  0  0  0
  -23.4390  -28.8040   23.3120 O   0  0  0  0  0  0  0  0  0  0  0  0
  -20.9410  -29.8310   21.7000 H   0  0  0  0  0  0  0  0  0  0  0  0
  -18.0500  -28.0950   22.8780 C   0  0  0  0  0  0  0  0  0  0  0  0
  -20.6120  -28.3210   23.1390 C   0  0  0  0  0  3  0  0  0  0  0  0
  -20.6950  -26.8980   22.5390 C   0  0  0  0  0  2  0  0  0  0  0  0
  -19.5830  -26.6030   21.5270 C   0  0  0  0  0  2  0  0  0  0  0  0
  -18.2080  -26.7540   22.1820 C   0  0  0  0  0  2  0  0  0  0  0  0
  -19.1790  -28.8380   23.3130 C   0  0  0  0  0  0  0  0  0  0  0  0
  -18.9790  -30.0950   23.9230 C   0  0  0  0  0  3  0  0  0  0  0  0
  -17.6820  -30.6100   24.1020 C   0  0  0  0  0  3  0  0  0  0  0  0
  -16.5660  -29.8630   23.6850 C   0  0  0  0  0  3  0  0  0  0  0  0
  -16.7510  -28.6080   23.0790 C   0  0  0  0  0  3  0  0  0  0  0  0
  -25.8820  -32.4990   23.8400 C   0  0  0  0  0  3  0  0  0  0  0  0
  -26.3980  -31.7190   25.1120 C   0  0  1  0  0  0  0  0  0  0  0  0
  -25.3030  -31.4700   26.1750 C   0  0  0  0  0  1  0  0  0  0  0  0
  -26.9850  -30.3460   24.7060 C   0  0  0  0  0  1  0  0  0  0  0  0
  -27.5460  -32.5100   25.7820 C   0  0  0  0  0  1  0  0  0  0  0  0
  -25.5680  -33.8920   24.1760 N   0  0  0  0  0  0  0  0  0  0  0  0
  -25.9020  -34.9490   23.4220 C   0  0  0  0  0  0  0  0  0  0  0  0
  -26.5780  -34.8520   22.3940 O   0  0  0  0  0  0  0  0  0  0  0  0
  -24.9690  -34.0420   24.9750 H   0  0  0  0  0  0  0  0  0  0  0  0
  -24.1720  -36.7380   23.0610 C   0  0  0  0  0  1  0  0  0  0  0  0
  -25.4070  -36.3330   23.8830 C   0  0  0  0  0  3  0  0  0  0  0  0
  -27.5310  -37.2180   24.7390 C   0  0  0  0  0  1  0  0  0  0  0  0
  -26.4370  -37.3890   23.7850 N   0  0  0  0  0  0  0  0  0  0  0  0
  -26.0280  -38.3070   23.9330 H   0  0  0  0  0  0  0  0  0  0  0  0
  -28.6800  -21.4660   17.5850 O   0  0  0  0  0  0  0  0  0  0  0  0
  -28.2200  -20.6870   18.6790 C   0  0  0  0  0  2  0  0  0  0  0  0
  -27.5650  -19.4030   18.1520 C   0  0  0  0  0  2  0  0  0  0  0  0
  -27.0590  -18.4700   19.2700 C   0  0  0  0  0  2  0  0  0  0  0  0
  -29.0590  -17.1670   19.9680 C   0  0  0  0  0  0  0  0  0  0  0  0
  -28.1140  -18.0810   20.2090 N   0  0  0  0  0  0  0  0  0  0  0  0
  -29.1410  -16.5720   18.8920 O   0  0  0  0  0  0  0  0  0  0  0  0
  -28.1050  -18.5200   21.1210 H   0  0  0  0  0  0  0  0  0  0  0  0
  -30.0400  -16.8480   21.1030 C   0  0  0  0  0  2  0  0  0  0  0  0
  -30.6920  -14.5010   20.6800 C   0  0  0  0  0  0  0  0  0  0  0  0
  -30.4350  -12.3930   19.4360 C   0  0  0  0  0  2  0  0  0  0  0  0
  -29.5210  -12.6460   18.2170 C   0  0  0  0  0  2  0  0  0  0  0  0
  -28.0350  -12.4980   18.6020 C   0  0  0  0  0  2  0  0  0  0  0  0
  -27.6670  -13.2940   19.8800 C   0  0  0  0  0  3  0  0  0  0  0  0
  -28.6880  -13.0140   21.0070 C   0  0  0  0  0  2  0  0  0  0  0  0
  -30.0370  -13.3240   20.5000 N   0  0  0  0  0  0  0  0  0  0  0  0
  -31.7750  -14.7730   20.1570 O   0  0  0  0  0  0  0  0  0  0  0  0
  -29.9930  -15.4130   21.3660 N   0  0  0  0  0  0  0  0  0  0  0  0
  -29.1370  -15.0740   21.7820 H   0  0  0  0  0  0  0  0  0  0  0  0
  -25.2290  -13.8800   20.4820 C   0  0  0  0  0  0  0  0  0  0  0  0
  -24.1590  -13.1000   20.8250 C   0  0  0  0  0  0  0  0  0  0  0  0
  -24.6400  -11.7560   20.8340 C   0  0  0  0  0  0  0  0  0  0  0  0
  -26.2950  -13.0130   20.3060 N   0  0  0  0  0  0  0  0  0  0  0  0
  -25.9410  -11.7290   20.5710 N   0  0  0  0  0  0  0  0  0  0  0  0
  -23.9270  -10.4880   21.0210 C   0  0  0  0  0  0  0  0  0  0  0  0
  -24.3530   -9.5370   21.9760 C   0  0  0  0  0  3  0  0  0  0  0  0
  -23.6400   -8.3320   22.1510 C   0  0  0  0  0  3  0  0  0  0  0  0
  -22.4890   -8.0690   21.3720 C   0  0  0  0  0  0  0  0  0  0  0  0
  -22.0830   -9.0070   20.4070 C   0  0  0  0  0  3  0  0  0  0  0  0
  -22.7950  -10.2050   20.2310 C   0  0  0  0  0  3  0  0  0  0  0  0
  -21.7440   -6.9170   21.4560 O   0  0  0  0  0  0  0  0  0  0  0  0
  -21.6840   -6.1810   22.6110 C   0  0  0  0  0  0  0  0  0  0  0  0
  -21.2230   -6.7380   23.8240 C   0  0  0  0  0  3  0  0  0  0  0  0
  -21.1140   -5.9280   24.9730 C   0  0  0  0  0  3  0  0  0  0  0  0
  -21.4520   -4.5630   24.9080 C   0  0  0  0  0  0  0  0  0  0  0  0
  -21.9050   -4.0060   23.6980 C   0  0  0  0  0  3  0  0  0  0  0  0
  -22.0200   -4.8130   22.5540 C   0  0  0  0  0  0  0  0  0  0  0  0
  -22.4370   -4.2680   21.3860 F   0  0  0  0  0  0  0  0  0  0  0  0
  -21.3380   -3.7840   26.0080 F   0  0  0  0  0  0  0  0  0  0  0  0
  -22.7480  -13.5620   21.0420 C   0  0  0  0  0  0  0  0  0  0  0  0
  -22.0010  -12.8700   21.8960 N   0  0  0  0  0  0  0  0  0  0  0  0
  -22.3140  -14.5710   20.4900 O   0  0  0  0  0  0  0  0  0  0  0  0
  -22.3590  -12.0510   22.3640 H   0  0  0  0  0  0  0  0  0  0  0  0
  -21.0520  -13.1620   22.0840 H   0  0  0  0  0  0  0  0  0  0  0  0
  -25.3780  -15.2490   20.2910 N   0  0  0  0  0  0  0  0  0  0  0  0
  -24.5960  -15.8880   20.3960 H   0  0  0  0  0  0  0  0  0  0  0  0
  -26.2310  -15.7050   19.9960 H   0  0  0  0  0  0  0  0  0  0  0  0
  2  3  1  0
  2  1  1  0
  3  4  1  0
  4  5  1  0
  5  6  1  0
  6  7  1  0
  7  9  1  0
  8 19  2  0
  9 14  1  0
 10 18  1  0
 10 20  1  0
 11 17  1  0
 11 13  1  0
 12 18  1  0
 13 12  1  0
 14 13  2  0
 15  9  2  0
 16 15  1  0
 16 11  2  0
 17 10  1  0
 18  8  1  0
 20 22  2  0
 21 20  1  0
 23 21  1  0
 24 33  2  0
 24 29  1  0
 25 21  1  0
 25 29  1  0
 26 25  1  0
 27 28  1  0
 27 26  1  0
 28 24  1  0
 29 30  2  0
 30 31  1  0
 32 31  2  0
 33 32  1  0
 34  8  1  0
 34 39  1  0
 34 35  1  0
 35 38  1  1
 35 36  1  0
 37 35  1  0
 39 42  1  0
 40 44  1  0
 40 39  1  0
 41 40  2  0
 44 43  1  0
 46 44  1  0
 46 47  1  0
 46 45  1  0
 48  1  1  0
 48 49  1  0
 50 49  1  0
 50 51  1  0
 51 53  1  0
 52 53  1  0
 52 56  1  0
 53 55  1  0
 54 52  2  0
 56 65  1  0
 57 65  1  0
 58 63  1  0
 59 60  1  0
 59 58  1  0
 61 60  1  0
 61 70  1  0
 61 62  1  0
 63 57  1  0
 63 62  1  0
 64 57  2  0
 65 66  1  0
 67 68  2  0
 68 69  1  0
 68 87  1  0
 69 72  1  0
 70 67  1  0
 70 71  1  0
 71 69  2  0
 72 73  1  0
 73 74  2  0
 75 78  1  0
 75 74  1  0
 76 75  2  0
 77 76  1  0
 77 72  2  0
 78 79  1  0
 79 80  1  0
 80 81  2  0
 82 81  1  0
 82 86  1  0
 83 82  2  0
 84 79  2  0
 84 83  1  0
 85 84  1  0
 87 88  1  0
 88 91  1  0
 88 90  1  0
 89 87  2  0
 92 93  1  0
 92 67  1  0
 94 92  1  0
M  ISO  4   6 101   7 101  57 100  65 100
M  END
>  <TORSDO>  (72) 
F 27

>  <SCORE>  (72) 
-11.669

>  <name>  (72) 
71

>  <ligand_id>  (72) 
71

>  <original_smiles>  (72) 
[H]c1c([H])c([H])c2c(c1[H])C([H])([H])C([H])([H])C([H])([H])C2([H])N([H])C(=O)C1([H])N(C(=O)C([H])(N([H])C(=O)C([H])(N([H])C([H])([H])[H])C([H])([H])[H])C(C([H])([H])[H])(C([H])([H])[H])C([H])([H])[H])C([H])([H])c2c([H])c(OC([H])([H])C([H])([H])OC([H])([H])C([H])([H])C([H])([H])OC([H])([H])C([H])([H])C([H])([H])N([H])C(=O)C([H])([H])N([H])C(=O)N3C([H])([H])C([H])([H])C([H])([H])C([H])(n4nc(-c5c([H])c([H])c(Oc6c([H])c([H])c(F)c([H])c6F)c([H])c5[H])c(C(=O)N([H])[H])c4N([H])[H])C3([H])[H])c([H])c([H])c2C1([H])[H]

>  <smiles>  (72) 
[H]c1c([H])c([H])c2c(c1[H])C([H])([H])C([H])([H])C([H])([H])C2([H])N([H])C(=O)C1([H])N(C(=O)C([H])(N([H])C(=O)C([H])(N([H])C([H])([H])[H])C([H])([H])[H])C(C([H])([H])[H])(C([H])([H])[H])C([H])([H])[H])C([H])([H])c2c([H])c(OC([H])([H])C([H])([H])OC([H])([H])C([H])([H])C([H])([H])OC([H])([H])C([H])([H])C([H])([H])N([H])C(=O)C([H])([H])N([H])C(=O)N3C([H])([H])C([H])([H])C([H])([H])C([H])(n4nc(-c5c([H])c([H])c(Oc6c([H])c([H])c(F)c([H])c6F)c([H])c5[H])c(C(=O)N([H])[H])c4N([H])[H])C3([H])[H])c([H])c([H])c2C1([H])[H]

$$$$
72:0:0
     RDKit          3D

 99107  0  0  1  0  0  0  0  0999 V2000
  -22.2950  -18.7840   24.0700 C   0  0  0  0  0  2  0  0  0  0  0  0
  -23.2330  -18.4840   23.0460 O   0  0  0  0  0  0  0  0  0  0  0  0
  -23.0890  -17.1650   22.5430 C   0  0  0  0  0  2  0  0  0  0  0  0
  -23.5990  -17.1160   21.0980 C   0  0  0  0  0  2  0  0  0  0  0  0
  -24.8570  -17.9790   20.8860 C   0  0  0  0  0  2  0  0  0  0  0  0
  -25.9870  -17.4520   21.5740 O   0  0  0  0  0  0  0  0  0  0  0  0
  -28.1770  -16.2120   18.8020 C   0  0  0  0  0  3  0  0  0  0  0  0
  -29.2970  -15.9830   20.9590 C   0  0  0  0  0  3  0  0  0  0  0  0
  -27.0590  -16.7730   19.4470 C   0  0  0  0  0  3  0  0  0  0  0  0
  -28.1720  -16.5340   21.5980 C   0  0  0  0  0  3  0  0  0  0  0  0
  -29.2910  -15.8000   19.5620 C   0  0  0  0  0  0  0  0  0  0  0  0
  -27.0420  -16.9300   20.8560 C   0  0  0  0  0  0  0  0  0  0  0  0
  -30.7920  -14.0180   18.6080 C   0  0  0  0  0  0  0  0  0  0  0  0
  -30.9400  -11.6110   19.1110 C   0  0  0  0  0  2  0  0  0  0  0  0
  -30.0330  -10.7680   18.1960 C   0  0  0  0  0  2  0  0  0  0  0  0
  -28.6140  -10.6540   18.7830 C   0  0  0  0  0  2  0  0  0  0  0  0
  -28.0460  -12.0310   19.2100 C   0  0  0  0  0  3  0  0  0  0  0  0
  -29.0760  -12.7830   20.0770 C   0  0  0  0  0  2  0  0  0  0  0  0
  -30.3260  -12.9380   19.3090 N   0  0  0  0  0  0  0  0  0  0  0  0
  -31.6690  -13.9100   17.7470 O   0  0  0  0  0  0  0  0  0  0  0  0
  -30.4330  -15.2730   18.9330 N   0  0  0  0  0  0  0  0  0  0  0  0
  -30.9850  -15.9600   18.4420 H   0  0  0  0  0  0  0  0  0  0  0  0
  -25.9870  -12.8570   20.5200 C   0  0  0  0  0  0  0  0  0  0  0  0
  -24.8600  -12.2110   20.9530 C   0  0  0  0  0  0  0  0  0  0  0  0
  -25.0050  -10.8480   20.5510 C   0  0  0  0  0  0  0  0  0  0  0  0
  -26.7640  -11.8900   19.9000 N   0  0  0  0  0  0  0  0  0  0  0  0
  -26.1820  -10.6650   19.9660 N   0  0  0  0  0  0  0  0  0  0  0  0
  -24.0720   -9.7180   20.6370 C   0  0  0  0  0  0  0  0  0  0  0  0
  -24.2330   -8.6990   21.6020 C   0  0  0  0  0  3  0  0  0  0  0  0
  -23.3130   -7.6330   21.6780 C   0  0  0  0  0  3  0  0  0  0  0  0
  -22.2150   -7.5780   20.7870 C   0  0  0  0  0  0  0  0  0  0  0  0
  -22.0690   -8.5830   19.8150 C   0  0  0  0  0  3  0  0  0  0  0  0
  -22.9910   -9.6400   19.7370 C   0  0  0  0  0  3  0  0  0  0  0  0
  -21.2860   -6.5660   20.7690 O   0  0  0  0  0  0  0  0  0  0  0  0
  -20.8310   -5.9860   21.9260 C   0  0  0  0  0  0  0  0  0  0  0  0
  -20.0360   -6.6950   22.8530 C   0  0  0  0  0  3  0  0  0  0  0  0
  -19.5320   -6.0410   23.9940 C   0  0  0  0  0  3  0  0  0  0  0  0
  -19.8130   -4.6770   24.2060 C   0  0  0  0  0  0  0  0  0  0  0  0
  -20.5980   -3.9680   23.2810 C   0  0  0  0  0  3  0  0  0  0  0  0
  -21.1040   -4.6210   22.1420 C   0  0  0  0  0  0  0  0  0  0  0  0
  -21.8440   -3.9270   21.2430 F   0  0  0  0  0  0  0  0  0  0  0  0
  -19.3200   -4.0450   25.2970 F   0  0  0  0  0  0  0  0  0  0  0  0
  -23.6680  -12.8390   21.6160 C   0  0  0  0  0  0  0  0  0  0  0  0
  -22.9340  -12.0700   22.4130 N   0  0  0  0  0  0  0  0  0  0  0  0
  -23.4090  -14.0330   21.4670 O   0  0  0  0  0  0  0  0  0  0  0  0
  -23.1560  -11.0950   22.5480 H   0  0  0  0  0  0  0  0  0  0  0  0
  -22.1310  -12.4620   22.8840 H   0  0  0  0  0  0  0  0  0  0  0  0
  -26.4010  -14.1820   20.5870 N   0  0  0  0  0  0  0  0  0  0  0  0
  -25.8240  -14.9070   20.9970 H   0  0  0  0  0  0  0  0  0  0  0  0
  -27.2640  -14.5350   20.1950 H   0  0  0  0  0  0  0  0  0  0  0  0
  -22.1440  -20.3050   24.1770 C   0  0  0  0  0  2  0  0  0  0  0  0
  -23.3440  -20.9740   24.8660 C   0  0  0  0  0  2  0  0  0  0  0  0
  -23.2920  -22.5070   24.8040 C   0  0  0  0  0  2  0  0  0  0  0  0
  -24.1570  -22.9840   23.7810 O   0  0  0  0  0  0  0  0  0  0  0  0
  -24.0560  -24.3900   23.6180 C   0  0  0  0  0  2  0  0  0  0  0  0
  -24.7540  -24.8280   22.3200 C   0  0  0  0  0  2  0  0  0  0  0  0
  -24.8570  -26.3630   22.2110 C   0  0  0  0  0  2  0  0  0  0  0  0
  -24.0640  -26.9850   21.0400 C   0  0  0  0  0  2  0  0  0  0  0  0
  -24.3870  -28.3710   20.8820 O   0  0  0  0  0  0  0  0  0  0  0  0
  -27.5290  -32.7130   25.5310 C   0  0  0  0  0  0  0  0  0  0  0  0
  -24.2080  -29.1810   21.9830 C   0  0  0  0  0  0  0  0  0  0  0  0
  -25.2240  -32.0200   26.1030 C   0  0  0  0  0  3  0  0  0  0  0  0
  -23.9320  -30.8440   24.2490 C   0  0  0  0  0  0  0  0  0  0  0  0
  -25.9840  -32.1470   23.6640 C   0  0  0  0  0  2  0  0  0  0  0  0
  -24.9980  -31.0400   23.3610 C   0  0  0  0  0  0  0  0  0  0  0  0
  -25.1330  -30.2200   22.2220 C   0  0  0  0  0  3  0  0  0  0  0  0
  -23.1350  -28.9970   22.8880 C   0  0  0  0  0  3  0  0  0  0  0  0
  -22.9980  -29.8210   24.0190 C   0  0  0  0  0  3  0  0  0  0  0  0
  -23.8460  -31.7760   25.4350 C   0  0  0  0  0  2  0  0  0  0  0  0
  -26.3090  -32.2850   25.1020 N   0  0  0  0  0  0  0  0  0  0  0  0
  -27.7470  -32.9250   26.7320 O   0  0  0  0  0  0  0  0  0  0  0  0
  -25.5350  -30.8330   27.0420 C   0  0  0  0  0  0  0  0  0  0  0  0
  -25.1890  -30.9840   28.3300 N   0  0  0  0  0  0  0  0  0  0  0  0
  -26.0490  -29.8010   26.6050 O   0  0  0  0  0  0  0  0  0  0  0  0
  -24.7820  -31.8660   28.6110 H   0  0  0  0  0  0  0  0  0  0  0  0
  -24.8250  -30.4220   31.8790 C   0  0  0  0  0  0  0  0  0  0  0  0
  -25.3500  -29.9870   29.3870 C   0  0  0  0  0  3  0  0  0  0  0  0
  -24.1550  -29.0050   29.4110 C   0  0  0  0  0  2  0  0  0  0  0  0
  -23.0450  -29.4280   30.3780 C   0  0  0  0  0  2  0  0  0  0  0  0
  -23.5900  -29.5390   31.8050 C   0  0  0  0  0  2  0  0  0  0  0  0
  -25.6420  -30.6450   30.7390 C   0  0  0  0  0  0  0  0  0  0  0  0
  -26.7580  -31.5020   30.8530 C   0  0  0  0  0  3  0  0  0  0  0  0
  -27.0630  -32.1280   32.0760 C   0  0  0  0  0  3  0  0  0  0  0  0
  -26.2590  -31.8920   33.2050 C   0  0  0  0  0  3  0  0  0  0  0  0
  -25.1480  -31.0370   33.1070 C   0  0  0  0  0  3  0  0  0  0  0  0
  -28.7010  -32.9770   24.5340 C   0  0  0  0  0  3  0  0  0  0  0  0
  -29.3250  -34.2510   24.9130 N   0  0  0  0  0  0  0  0  0  0  0  0
  -29.0510  -35.4310   24.3390 C   0  0  0  0  0  0  0  0  0  0  0  0
  -28.2880  -35.5470   23.3760 O   0  0  0  0  0  0  0  0  0  0  0  0
  -29.9200  -34.2400   25.7280 H   0  0  0  0  0  0  0  0  0  0  0  0
  -28.7630  -37.3790   25.9010 C   0  0  0  0  0  1  0  0  0  0  0  0
  -29.7290  -36.6810   24.9300 C   0  0  0  0  0  3  0  0  0  0  0  0
  -31.3080  -37.1500   23.1100 C   0  0  0  0  0  1  0  0  0  0  0  0
  -30.1860  -37.6440   23.9050 N   0  0  0  0  0  0  0  0  0  0  0  0
  -30.4630  -38.5230   24.3320 H   0  0  0  0  0  0  0  0  0  0  0  0
  -29.7710  -31.8160   24.5120 C   0  0  1  0  0  0  0  0  0  0  0  0
  -30.3740  -31.4970   25.9000 C   0  0  0  0  0  1  0  0  0  0  0  0
  -29.1510  -30.5150   23.9550 C   0  0  0  0  0  1  0  0  0  0  0  0
  -30.9330  -32.1920   23.5620 C   0  0  0  0  0  1  0  0  0  0  0  0
  1 51  1  0
  2  1  1  0
  3  2  1  0
  4  3  1  0
  5  4  1  0
  5  6  1  0
  7  9  2  0
  7 11  1  0
  8 10  1  0
  9 12  1  0
 11  8  2  0
 12  6  1  0
 12 10  2  0
 13 21  1  0
 13 19  1  0
 14 19  1  0
 15 16  1  0
 15 14  1  0
 17 16  1  0
 17 26  1  0
 17 18  1  0
 19 18  1  0
 20 13  2  0
 21 11  1  0
 22 21  1  0
 23 48  1  0
 23 24  2  0
 24 43  1  0
 25 28  1  0
 25 24  1  0
 26 27  1  0
 26 23  1  0
 27 25  2  0
 28 29  1  0
 29 30  2  0
 31 30  1  0
 32 31  2  0
 33 32  1  0
 33 28  2  0
 34 31  1  0
 34 35  1  0
 35 40  2  0
 35 36  1  0
 36 37  2  0
 37 38  1  0
 38 42  1  0
 39 38  2  0
 40 39  1  0
 41 40  1  0
 43 44  1  0
 44 46  1  0
 44 47  1  0
 45 43  2  0
 48 49  1  0
 50 48  1  0
 51 52  1  0
 53 52  1  0
 54 53  1  0
 55 54  1  0
 56 55  1  0
 57 56  1  0
 58 57  1  0
 59 58  1  0
 59 61  1  0
 60 71  2  0
 61 66  2  0
 61 67  1  0
 62 72  1  0
 63 69  1  0
 64 70  1  0
 65 64  1  0
 65 63  2  0
 66 65  1  0
 67 68  2  0
 68 63  1  0
 69 62  1  0
 70 60  1  0
 70 62  1  0
 72 73  1  0
 73 75  1  0
 74 72  2  0
 76 85  1  0
 77 73  1  0
 77 78  1  0
 77 81  1  0
 78 79  1  0
 79 80  1  0
 80 76  1  0
 81 82  1  0
 81 76  2  0
 82 83  2  0
 83 84  1  0
 85 84  2  0
 86 87  1  0
 86 60  1  0
 87 90  1  0
 88 87  1  0
 88 92  1  0
 89 88  2  0
 92 91  1  0
 93 94  1  0
 94 95  1  0
 94 92  1  0
 96 86  1  0
 96 97  1  1
 98 96  1  0
 99 96  1  0
M  ISO  4  13 100  21 100  58 101  59 101
M  END
>  <TORSDO>  (73) 
F 30

>  <SCORE>  (73) 
37.176

>  <name>  (73) 
72

>  <ligand_id>  (73) 
72

>  <original_smiles>  (73) 
[H]c1c([H])c([H])c2c(c1[H])C([H])([H])C([H])([H])C([H])([H])C2([H])N([H])C(=O)C1([H])N(C(=O)C([H])(N([H])C(=O)C([H])(N([H])C([H])([H])[H])C([H])([H])[H])C(C([H])([H])[H])(C([H])([H])[H])C([H])([H])[H])C([H])([H])c2c([H])c(OC([H])([H])C([H])([H])C([H])([H])C([H])([H])OC([H])([H])C([H])([H])C([H])([H])C([H])([H])OC([H])([H])C([H])([H])C([H])([H])Oc3c([H])c([H])c(N([H])C(=O)N4C([H])([H])C([H])([H])C([H])([H])C([H])(n5nc(-c6c([H])c([H])c(Oc7c([H])c([H])c(F)c([H])c7F)c([H])c6[H])c(C(=O)N([H])[H])c5N([H])[H])C4([H])[H])c([H])c3[H])c([H])c([H])c2C1([H])[H]

>  <smiles>  (73) 
[H]c1c([H])c([H])c2c(c1[H])C([H])([H])C([H])([H])C([H])([H])C2([H])N([H])C(=O)C1([H])N(C(=O)C([H])(N([H])C(=O)C([H])(N([H])C([H])([H])[H])C([H])([H])[H])C(C([H])([H])[H])(C([H])([H])[H])C([H])([H])[H])C([H])([H])c2c([H])c(OC([H])([H])C([H])([H])C([H])([H])C([H])([H])OC([H])([H])C([H])([H])C([H])([H])C([H])([H])OC([H])([H])C([H])([H])C([H])([H])Oc3c([H])c([H])c(N([H])C(=O)N4C([H])([H])C([H])([H])C([H])([H])C([H])(n5nc(-c6c([H])c([H])c(Oc7c([H])c([H])c(F)c([H])c7F)c([H])c6[H])c(C(=O)N([H])[H])c5N([H])[H])C4([H])[H])c([H])c3[H])c([H])c([H])c2C1([H])[H]

$$$$
73:0:0
     RDKit          3D

 94100  0  0  1  0  0  0  0  0999 V2000
  -29.2120  -17.8330   21.6280 C   0  0  0  0  0  3  0  0  0  0  0  0
  -28.2990  -16.7990   21.2710 C   0  0  0  0  0  3  0  0  0  0  0  0
  -29.6320  -18.8890   20.7690 C   0  0  0  0  0  3  0  0  0  0  0  0
  -28.1560  -17.8990   19.1330 C   0  0  0  0  0  3  0  0  0  0  0  0
  -27.6580  -16.7070   20.0110 C   0  0  0  0  0  0  0  0  0  0  0  0
  -29.1650  -19.0440   19.4440 C   0  0  0  0  0  0  0  0  0  0  0  0
  -26.4060  -15.4330   19.8700 C   0  0  0  0  0  2  0  0  0  0  0  0
  -28.4060  -11.7520   18.9190 C   0  0  0  0  0  0  0  0  0  0  0  0
  -26.2990  -13.6800   19.8700 N   0  0  0  0  0  4  0  0  0  0  0  0
  -28.3050  -10.6270   18.3890 O   0  0  0  0  0  0  0  0  0  0  0  0
  -25.3760  -13.3140   20.0440 H   0  0  0  0  0  0  0  0  0  0  0  0
  -30.1670  -12.3230   19.1400 C   0  0  0  0  0  2  0  0  0  0  0  0
  -31.9230  -12.0040   21.7070 C   0  0  0  0  0  0  0  0  0  0  0  0
  -32.2440   -9.6930   21.4240 C   0  0  0  0  0  2  0  0  0  0  0  0
  -31.8110   -9.7640   19.9660 C   0  0  0  0  0  2  0  0  0  0  0  0
  -30.2710   -9.8350   20.0600 C   0  0  0  0  0  2  0  0  0  0  0  0
  -29.6130  -10.7790   21.2740 C   0  0  0  0  0  3  0  0  0  0  0  0
  -30.1860  -10.4870   22.5400 C   0  0  0  0  0  2  0  0  0  0  0  0
  -31.5440  -10.7680   22.1080 N   0  0  0  0  0  0  0  0  0  0  0  0
  -32.8360  -12.4120   22.4520 O   0  0  0  0  0  0  0  0  0  0  0  0
  -31.3280  -12.5850   20.4300 N   0  0  0  0  0  0  0  0  0  0  0  0
  -31.7520  -13.4910   20.2940 H   0  0  0  0  0  0  0  0  0  0  0  0
  -27.3970  -12.8560   19.6300 C   0  0  0  0  0  3  0  0  0  0  0  0
  -25.7170  -11.9900   19.6660 C   0  0  0  0  0  2  0  0  0  0  0  0
  -25.7480  -10.5070   20.8430 C   0  0  0  0  0  2  0  0  0  0  0  0
  -28.5570  -11.6210   21.1280 N   0  0  0  0  0  1  0  0  0  0  0  0
  -27.3040  -10.2940   21.6550 N   0  0  0  0  0  1  0  0  0  0  0  0
  -24.7810   -9.4170   21.1460 C   0  0  0  0  0  0  0  0  0  0  0  0
  -24.8170   -8.6970   22.3690 C   0  0  0  0  0  3  0  0  0  0  0  0
  -23.8680   -7.6850   22.6480 C   0  0  0  0  0  3  0  0  0  0  0  0
  -22.8710   -7.3650   21.6970 C   0  0  0  0  0  0  0  0  0  0  0  0
  -22.8780   -8.0350   20.4570 C   0  0  0  0  0  3  0  0  0  0  0  0
  -23.8270   -9.0370   20.1820 C   0  0  0  0  0  3  0  0  0  0  0  0
  -21.9030   -6.4070   21.8760 O   0  0  0  0  0  0  0  0  0  0  0  0
  -21.3390   -6.1550   23.1040 C   0  0  0  0  0  0  0  0  0  0  0  0
  -20.7510   -7.1760   23.8820 C   0  0  0  0  0  3  0  0  0  0  0  0
  -20.1210   -6.8590   25.1020 C   0  0  0  0  0  3  0  0  0  0  0  0
  -20.0730   -5.5230   25.5470 C   0  0  0  0  0  0  0  0  0  0  0  0
  -20.6530   -4.5050   24.7720 C   0  0  0  0  0  3  0  0  0  0  0  0
  -21.2790   -4.8200   23.5520 C   0  0  0  0  0  0  0  0  0  0  0  0
  -21.8140   -3.8300   22.7970 F   0  0  0  0  0  0  0  0  0  0  0  0
  -19.4690   -5.2140   26.7180 F   0  0  0  0  0  0  0  0  0  0  0  0
  -24.3900  -12.6330   19.6300 C   0  0  0  0  0  0  0  0  0  0  0  0
  -23.4830  -12.2740   20.5540 N   0  0  0  0  0  0  0  0  0  0  0  0
  -24.2020  -13.5320   18.8480 O   0  0  0  0  0  0  0  0  0  0  0  0
  -23.6490  -11.5190   21.1970 H   0  0  0  0  0  0  0  0  0  0  0  0
  -22.5940  -12.7530   20.5810 H   0  0  0  0  0  0  0  0  0  0  0  0
  -27.9070  -13.8570   18.9060 N   0  0  0  0  0  0  0  0  0  0  0  0
  -27.3740  -14.4250   18.2600 H   0  0  0  0  0  0  0  0  0  0  0  0
  -28.8450  -14.2140   19.0550 H   0  0  0  0  0  0  0  0  0  0  0  0
  -29.7160  -20.2300   18.6220 O   0  0  0  0  0  0  0  0  0  0  0  0
  -30.5350  -21.6300   18.9870 C   0  0  0  0  0  3  0  0  0  0  0  0
  -30.5910  -23.3210   18.2810 C   0  0  0  0  0  3  0  0  0  0  0  0
  -31.3170  -24.8080   18.5660 O   0  0  0  0  0  0  0  0  0  0  0  0
  -28.3560  -29.7580   23.1990 C   0  0  0  0  0  0  0  0  0  0  0  0
  -30.5770  -26.0760   18.7480 C   0  0  0  0  0  0  0  0  0  0  0  0
  -27.1020  -29.0060   21.2200 C   0  0  0  0  0  3  0  0  0  0  0  0
  -28.4730  -28.0260   19.2810 C   0  0  0  0  0  0  0  0  0  0  0  0
  -29.6660  -29.2300   21.0990 C   0  0  0  0  0  2  0  0  0  0  0  0
  -29.6700  -28.1360   19.9980 C   0  0  0  0  0  0  0  0  0  0  0  0
  -30.7380  -27.1800   19.7190 C   0  0  0  0  0  3  0  0  0  0  0  0
  -29.4310  -26.2100   17.9490 C   0  0  0  0  0  3  0  0  0  0  0  0
  -28.3930  -27.1220   18.2170 C   0  0  0  0  0  3  0  0  0  0  0  0
  -27.2880  -28.8900   19.6850 C   0  0  0  0  0  2  0  0  0  0  0  0
  -28.3970  -29.3400   21.8970 N   0  0  0  0  0  0  0  0  0  0  0  0
  -27.2830  -29.8560   23.8150 O   0  0  0  0  0  0  0  0  0  0  0  0
  -26.4370  -27.7240   21.7900 C   0  0  0  0  0  0  0  0  0  0  0  0
  -25.1000  -27.6130   21.6780 N   0  0  0  0  0  0  0  0  0  0  0  0
  -27.1250  -26.8460   22.3160 O   0  0  0  0  0  0  0  0  0  0  0  0
  -24.5910  -28.3720   21.2430 H   0  0  0  0  0  0  0  0  0  0  0  0
  -21.7200  -26.3190   21.9180 C   0  0  0  0  0  0  0  0  0  0  0  0
  -24.2960  -26.4670   22.1170 C   0  0  0  0  0  3  0  0  0  0  0  0
  -24.3390  -25.3270   21.0730 C   0  0  0  0  0  2  0  0  0  0  0  0
  -23.1830  -25.3840   20.0700 C   0  0  0  0  0  2  0  0  0  0  0  0
  -21.8360  -25.2960   20.7980 C   0  0  0  0  0  2  0  0  0  0  0  0
  -22.8760  -26.8790   22.5250 C   0  0  0  0  0  0  0  0  0  0  0  0
  -22.7170  -27.8460   23.5410 C   0  0  0  0  0  3  0  0  0  0  0  0
  -21.4350  -28.2570   23.9490 C   0  0  0  0  0  3  0  0  0  0  0  0
  -20.2940  -27.6880   23.3580 C   0  0  0  0  0  3  0  0  0  0  0  0
  -20.4370  -26.7180   22.3490 C   0  0  0  0  0  3  0  0  0  0  0  0
  -29.6520  -30.1520   23.9710 C   0  0  0  0  0  3  0  0  0  0  0  0
  -29.3360  -31.3330   24.7950 N   0  0  0  0  0  0  0  0  0  0  0  0
  -29.6810  -32.5920   24.4990 C   0  0  0  0  0  0  0  0  0  0  0  0
  -30.3650  -32.8820   23.5140 O   0  0  0  0  0  0  0  0  0  0  0  0
  -28.7310  -31.1840   25.5900 H   0  0  0  0  0  0  0  0  0  0  0  0
  -27.9750  -34.4120   24.8390 C   0  0  0  0  0  1  0  0  0  0  0  0
  -29.1940  -33.7070   25.4510 C   0  0  0  0  0  3  0  0  0  0  0  0
  -31.3190  -34.1610   26.5940 C   0  0  0  0  0  1  0  0  0  0  0  0
  -30.2370  -34.7060   25.7780 N   0  0  0  0  0  0  0  0  0  0  0  0
  -29.8300  -35.4940   26.2770 H   0  0  0  0  0  0  0  0  0  0  0  0
  -30.2170  -28.9920   24.8820 C   0  0  1  0  0  0  0  0  0  0  0  0
  -29.1660  -28.3840   25.8390 C   0  0  0  0  0  1  0  0  0  0  0  0
  -30.7950  -27.8360   24.0330 C   0  0  0  0  0  1  0  0  0  0  0  0
  -31.3820  -29.5280   25.7440 C   0  0  0  0  0  1  0  0  0  0  0  0
  2  1  1  0
  3  1  2  0
  4  6  2  0
  4  5  1  0
  5  2  2  0
  6  3  1  0
  7  5  1  0
  8 12  1  0
  9  7  1  0
  9 11  1  0
 10  8  2  0
 12 21  1  0
 13 19  1  0
 13 20  2  0
 14 19  1  0
 15 16  1  0
 15 14  1  0
 16 17  1  0
 17 26  1  0
 17 18  1  0
 19 18  1  0
 21 13  1  0
 22 21  1  0
 23  8  1  0
 23  9  1  0
 24  9  1  0
 25 28  1  0
 25 27  1  0
 28 29  1  0
 29 30  2  0
 31 34  1  0
 31 30  1  0
 32 31  2  0
 33 32  1  0
 33 28  2  0
 34 35  1  0
 35 40  2  0
 35 36  1  0
 36 37  2  0
 37 38  1  0
 38 42  1  0
 39 38  2  0
 40 39  1  0
 41 40  1  0
 43 24  1  0
 43 44  1  0
 44 47  1  0
 44 46  1  0
 45 43  2  0
 48 50  1  0
 48 23  1  0
 49 48  1  0
 51 52  1  0
 51  6  1  0
 53 54  1  0
 53 52  2  0
 54 56  1  0
 55 66  2  0
 56 61  1  0
 57 67  1  0
 57 65  1  0
 58 64  1  0
 58 60  1  0
 59 65  1  0
 60 59  1  0
 61 60  2  0
 62 63  1  0
 62 56  2  0
 63 58  2  0
 64 57  1  0
 65 55  1  0
 67 69  2  0
 68 67  1  0
 70 68  1  0
 71 80  2  0
 71 76  1  0
 72 68  1  0
 72 76  1  0
 73 72  1  0
 74 75  1  0
 74 73  1  0
 75 71  1  0
 76 77  2  0
 77 78  1  0
 79 78  2  0
 80 79  1  0
 81 55  1  0
 81 82  1  0
 81 91  1  0
 82 85  1  0
 83 82  1  0
 83 87  1  0
 84 83  2  0
 87 86  1  0
 87 89  1  0
 89 90  1  0
 89 88  1  0
 91 94  1  1
 91 92  1  0
 93 91  1  0
M  ISO  4  13 100  21 100  53 101  54 101
M  END
>  <TORSDO>  (74) 
F 22

>  <SCORE>  (74) 
-2.918

>  <name>  (74) 
73

>  <ligand_id>  (74) 
73

>  <original_smiles>  (74) 
[H]c1c([H])c(OC([H])([H])C([H])([H])Oc2c([H])c([H])c3c(c2[H])C([H])([H])N(C(=O)C([H])(N([H])C(=O)C([H])(N([H])C([H])([H])[H])C([H])([H])[H])C(C([H])([H])[H])(C([H])([H])[H])C([H])([H])[H])C([H])(C(=O)N([H])C2([H])c4c([H])c([H])c([H])c([H])c4C([H])([H])C([H])([H])C2([H])[H])C3([H])[H])c([H])c(C([H])([H])N([H])C(=O)C([H])([H])N([H])C(=O)N2C([H])([H])C([H])([H])C([H])([H])C([H])(n3nc(-c4c([H])c([H])c(Oc5c([H])c([H])c(F)c([H])c5F)c([H])c4[H])c(C(=O)N([H])[H])c3N([H])[H])C2([H])[H])c1[H]

>  <smiles>  (74) 
[H]c1c([H])c(OC([H])([H])C([H])([H])Oc2c([H])c([H])c3c(c2[H])C([H])([H])N(C(=O)C([H])(N([H])C(=O)C([H])(N([H])C([H])([H])[H])C([H])([H])[H])C(C([H])([H])[H])(C([H])([H])[H])C([H])([H])[H])C([H])(C(=O)N([H])C2([H])c4c([H])c([H])c([H])c([H])c4C([H])([H])C([H])([H])C2([H])[H])C3([H])[H])c([H])c(C([H])([H])N([H])C(=O)C([H])([H])N([H])C(=O)N2C([H])([H])C([H])([H])C([H])([H])C([H])(n3nc(-c4c([H])c([H])c(Oc5c([H])c([H])c(F)c([H])c5F)c([H])c4[H])c(C(=O)N([H])[H])c3N([H])[H])C2([H])[H])c1[H]

$$$$
74:0:0
     RDKit          3D

 92 99  0  0  1  0  0  0  0  0999 V2000
  -30.0830  -22.0100   19.5570 C   0  0  0  0  0  3  0  0  0  0  0  0
  -30.7440  -19.5210   19.5800 C   0  0  0  0  0  3  0  0  0  0  0  0
  -28.6430  -20.2970   20.4080 C   0  0  0  0  0  3  0  0  0  0  0  0
  -30.9900  -20.9220   19.2780 C   0  0  0  0  0  0  0  0  0  0  0  0
  -28.8180  -21.9030   20.1700 C   0  0  0  0  0  0  0  0  0  0  0  0
  -29.5540  -18.9710   20.1430 C   0  0  0  0  0  0  0  0  0  0  0  0
  -30.2060  -15.8100   20.1470 C   0  0  0  0  0  0  0  0  0  0  0  0
  -30.2960  -13.2280   19.3390 C   0  0  0  0  0  2  0  0  0  0  0  0
  -29.4020  -12.8180   18.1300 C   0  0  0  0  0  2  0  0  0  0  0  0
  -28.0000  -12.4100   18.6020 C   0  0  0  0  0  2  0  0  0  0  0  0
  -27.4930  -13.3900   19.6790 C   0  0  0  0  0  3  0  0  0  0  0  0
  -28.5300  -13.7630   20.7730 C   0  0  0  0  0  2  0  0  0  0  0  0
  -29.6840  -14.4230   20.1070 N   0  0  0  0  0  0  0  0  0  0  0  0
  -31.4290  -15.7160   19.9000 O   0  0  0  0  0  0  0  0  0  0  0  0
  -29.4680  -17.2120   20.3160 N   0  0  0  0  0  0  0  0  0  0  0  0
  -28.5450  -16.9640   20.6450 H   0  0  0  0  0  0  0  0  0  0  0  0
  -25.1400  -13.8890   20.4840 C   0  0  0  0  0  0  0  0  0  0  0  0
  -24.0920  -13.0960   20.8560 C   0  0  0  0  0  0  0  0  0  0  0  0
  -24.5760  -11.7520   20.8100 C   0  0  0  0  0  0  0  0  0  0  0  0
  -26.1880  -13.0310   20.2220 N   0  0  0  0  0  0  0  0  0  0  0  0
  -25.8680  -11.7340   20.4870 N   0  0  0  0  0  0  0  0  0  0  0  0
  -23.8610  -10.4820   21.0070 C   0  0  0  0  0  0  0  0  0  0  0  0
  -24.3060   -9.5100   21.9320 C   0  0  0  0  0  3  0  0  0  0  0  0
  -23.5850   -8.3120   22.1200 C   0  0  0  0  0  3  0  0  0  0  0  0
  -22.4000   -8.0760   21.3830 C   0  0  0  0  0  0  0  0  0  0  0  0
  -21.9740   -9.0300   20.4430 C   0  0  0  0  0  3  0  0  0  0  0  0
  -22.6970  -10.2200   20.2550 C   0  0  0  0  0  3  0  0  0  0  0  0
  -21.6490   -6.9290   21.4790 O   0  0  0  0  0  0  0  0  0  0  0  0
  -21.6160   -6.1840   22.6310 C   0  0  0  0  0  0  0  0  0  0  0  0
  -21.1920   -6.7330   23.8630 C   0  0  0  0  0  3  0  0  0  0  0  0
  -21.1090   -5.9130   25.0060 C   0  0  0  0  0  3  0  0  0  0  0  0
  -21.4310   -4.5460   24.9220 C   0  0  0  0  0  0  0  0  0  0  0  0
  -21.8370   -3.9970   23.6910 C   0  0  0  0  0  3  0  0  0  0  0  0
  -21.9250   -4.8130   22.5500 C   0  0  0  0  0  0  0  0  0  0  0  0
  -22.3000   -4.2730   21.3660 F   0  0  0  0  0  0  0  0  0  0  0  0
  -21.3400   -3.7560   26.0170 F   0  0  0  0  0  0  0  0  0  0  0  0
  -22.6960  -13.5570   21.1510 C   0  0  0  0  0  0  0  0  0  0  0  0
  -21.9880  -12.8550   22.0280 N   0  0  0  0  0  0  0  0  0  0  0  0
  -22.2430  -14.5780   20.6360 O   0  0  0  0  0  0  0  0  0  0  0  0
  -22.3720  -12.0320   22.4650 H   0  0  0  0  0  0  0  0  0  0  0  0
  -21.0500  -13.1480   22.2640 H   0  0  0  0  0  0  0  0  0  0  0  0
  -25.2880  -15.2630   20.3060 N   0  0  0  0  0  0  0  0  0  0  0  0
  -24.5030  -15.9050   20.3530 H   0  0  0  0  0  0  0  0  0  0  0  0
  -26.1430  -15.7100   19.9990 H   0  0  0  0  0  0  0  0  0  0  0  0
  -32.3090  -21.3280   18.6540 C   0  0  0  0  0  0  0  0  0  0  0  0
  -33.9640  -20.8530   16.8550 C   0  0  0  0  0  1  0  0  0  0  0  0
  -32.8450  -20.5060   17.7410 N   0  0  0  0  0  0  0  0  0  0  0  0
  -32.8090  -22.4250   18.9080 O   0  0  0  0  0  0  0  0  0  0  0  0
  -32.3860  -19.6190   17.5820 H   0  0  0  0  0  0  0  0  0  0  0  0
  -27.8610  -23.5010   20.3830 C   0  0  0  0  0  2  0  0  0  0  0  0
  -26.7010  -23.2500   20.7220 O   0  0  0  0  0  1  0  0  0  0  0  0
  -28.1140  -25.3930   20.2370 O   0  0  0  0  0  1  0  0  0  0  0  0
  -24.6650  -31.8430   23.1570 C   0  0  0  0  0  0  0  0  0  0  0  0
  -27.1710  -26.6580   20.2370 C   0  0  0  0  0  0  0  0  0  0  0  0
  -23.4750  -30.4330   21.5370 C   0  0  0  0  0  3  0  0  0  0  0  0
  -24.9200  -28.7510   20.1510 C   0  0  0  0  0  0  0  0  0  0  0  0
  -26.0590  -30.5360   21.4290 C   0  0  0  0  0  2  0  0  0  0  0  0
  -26.1190  -29.0890   20.7880 C   0  0  0  0  0  0  0  0  0  0  0  0
  -27.2240  -28.0770   20.7980 C   0  0  0  0  0  3  0  0  0  0  0  0
  -25.9320  -26.5500   19.5430 C   0  0  0  0  0  3  0  0  0  0  0  0
  -24.8700  -27.5060   19.5050 C   0  0  0  0  0  3  0  0  0  0  0  0
  -23.7220  -29.7180   20.1760 C   0  0  0  0  0  2  0  0  0  0  0  0
  -24.7570  -30.9730   22.0920 N   0  0  0  0  0  0  0  0  0  0  0  0
  -23.5710  -32.1580   23.6590 O   0  0  0  0  0  0  0  0  0  0  0  0
  -22.7490  -29.4720   22.5170 C   0  0  0  0  0  0  0  0  0  0  0  0
  -21.4150  -29.3270   22.3990 N   0  0  0  0  0  0  0  0  0  0  0  0
  -23.4030  -28.8460   23.3560 O   0  0  0  0  0  0  0  0  0  0  0  0
  -20.9410  -29.8740   21.6940 H   0  0  0  0  0  0  0  0  0  0  0  0
  -18.0190  -28.1530   22.9500 C   0  0  0  0  0  0  0  0  0  0  0  0
  -20.5840  -28.4060   23.1860 C   0  0  0  0  0  3  0  0  0  0  0  0
  -20.6700  -26.9660   22.6250 C   0  0  0  0  0  2  0  0  0  0  0  0
  -19.5590  -26.6460   21.6230 C   0  0  0  0  0  2  0  0  0  0  0  0
  -18.1810  -26.8020   22.2720 C   0  0  0  0  0  2  0  0  0  0  0  0
  -19.1440  -28.9150   23.3610 C   0  0  0  0  0  0  0  0  0  0  0  0
  -18.9310  -30.1770   23.9590 C   0  0  0  0  0  3  0  0  0  0  0  0
  -17.6280  -30.6760   24.1460 C   0  0  0  0  0  3  0  0  0  0  0  0
  -16.5200  -29.9130   23.7430 C   0  0  0  0  0  3  0  0  0  0  0  0
  -16.7150  -28.6520   23.1500 C   0  0  0  0  0  3  0  0  0  0  0  0
  -25.9270  -32.4990   23.7930 C   0  0  0  0  0  3  0  0  0  0  0  0
  -25.5970  -33.8950   24.1490 N   0  0  0  0  0  0  0  0  0  0  0  0
  -25.8900  -34.9740   23.4090 C   0  0  0  0  0  0  0  0  0  0  0  0
  -26.5270  -34.9000   22.3550 O   0  0  0  0  0  0  0  0  0  0  0  0
  -25.0440  -34.0280   24.9850 H   0  0  0  0  0  0  0  0  0  0  0  0
  -24.1210  -36.7500   23.1590 C   0  0  0  0  0  1  0  0  0  0  0  0
  -25.4020  -36.3500   23.9110 C   0  0  0  0  0  3  0  0  0  0  0  0
  -27.5580  -37.2570   24.6620 C   0  0  0  0  0  1  0  0  0  0  0  0
  -26.4100  -37.4250   23.7750 N   0  0  0  0  0  0  0  0  0  0  0  0
  -25.9950  -38.3320   23.9640 H   0  0  0  0  0  0  0  0  0  0  0  0
  -26.4400  -31.7350   25.0790 C   0  0  1  0  0  0  0  0  0  0  0  0
  -25.3440  -31.5030   26.1450 C   0  0  0  0  0  1  0  0  0  0  0  0
  -27.0330  -30.3580   24.7110 C   0  0  0  0  0  1  0  0  0  0  0  0
  -27.5870  -32.5360   25.7380 C   0  0  0  0  0  1  0  0  0  0  0  0
  1  5  1  0
  2  6  2  0
  4  1  2  0
  4  2  1  0
  5 50  1  0
  5  3  2  0
  6 15  1  0
  6  3  1  0
  7 15  1  0
  8 13  1  0
  9 10  1  0
  9  8  1  0
 11 10  1  0
 11 20  1  0
 11 12  1  0
 13  7  1  0
 13 12  1  0
 14  7  2  0
 15 16  1  0
 17 18  2  0
 18 37  1  0
 19 18  1  0
 19 22  1  0
 20 17  1  0
 20 21  1  0
 21 19  2  0
 22 23  1  0
 23 24  2  0
 25 28  1  0
 25 24  1  0
 26 25  2  0
 27 26  1  0
 27 22  2  0
 28 29  1  0
 29 30  1  0
 30 31  2  0
 32 31  1  0
 32 36  1  0
 33 32  2  0
 34 29  2  0
 34 33  1  0
 35 34  1  0
 37 38  1  0
 38 41  1  0
 38 40  1  0
 39 37  2  0
 42 43  1  0
 42 17  1  0
 44 42  1  0
 45 48  2  0
 45  4  1  0
 46 47  1  0
 47 45  1  0
 49 47  1  0
 50 51  1  0
 53 64  2  0
 54 52  1  0
 54 59  1  0
 55 63  1  0
 55 65  1  0
 56 62  1  0
 56 58  1  0
 57 63  1  0
 58 59  2  0
 58 57  1  0
 60 54  2  0
 61 60  1  0
 61 56  2  0
 62 55  1  0
 63 53  1  0
 65 67  2  0
 66 65  1  0
 68 66  1  0
 69 78  2  0
 69 74  1  0
 70 66  1  0
 70 74  1  0
 71 70  1  0
 72 73  1  0
 72 71  1  0
 73 69  1  0
 74 75  2  0
 75 76  1  0
 77 76  2  0
 78 77  1  0
 79 53  1  0
 79 80  1  0
 79 89  1  0
 80 83  1  0
 81 85  1  0
 81 80  1  0
 82 81  2  0
 85 84  1  0
 87 85  1  0
 87 88  1  0
 87 86  1  0
 89 92  1  1
 89 90  1  0
 91 89  1  0
M  ISO  4   7 100  15 100  50 101  52 101
M  END
>  <TORSDO>  (75) 
F 18

>  <SCORE>  (75) 
-16.164

>  <name>  (75) 
74

>  <ligand_id>  (75) 
74

>  <original_smiles>  (75) 
[H]c1c([H])c([H])c2c(c1[H])C([H])([H])C([H])([H])C([H])([H])C2([H])N([H])C(=O)C1([H])N(C(=O)C([H])(N([H])C(=O)C([H])(N([H])C([H])([H])[H])C([H])([H])[H])C(C([H])([H])[H])(C([H])([H])[H])C([H])([H])[H])C([H])([H])c2c([H])c(OC(=O)c3c([H])c(C(=O)N([H])C([H])([H])[H])c([H])c(N([H])C(=O)N4C([H])([H])C([H])([H])C([H])([H])C([H])(n5nc(-c6c([H])c([H])c(Oc7c([H])c([H])c(F)c([H])c7F)c([H])c6[H])c(C(=O)N([H])[H])c5N([H])[H])C4([H])[H])c3[H])c([H])c([H])c2C1([H])[H]

>  <smiles>  (75) 
[H]c1c([H])c([H])c2c(c1[H])C([H])([H])C([H])([H])C([H])([H])C2([H])N([H])C(=O)C1([H])N(C(=O)C([H])(N([H])C(=O)C([H])(N([H])C([H])([H])[H])C([H])([H])[H])C(C([H])([H])[H])(C([H])([H])[H])C([H])([H])[H])C([H])([H])c2c([H])c(OC(=O)c3c([H])c(C(=O)N([H])C([H])([H])[H])c([H])c(N([H])C(=O)N4C([H])([H])C([H])([H])C([H])([H])C([H])(n5nc(-c6c([H])c([H])c(Oc7c([H])c([H])c(F)c([H])c7F)c([H])c6[H])c(C(=O)N([H])[H])c5N([H])[H])C4([H])[H])c3[H])c([H])c([H])c2C1([H])[H]

$$$$
75:0:0
     RDKit          3D

 87 94  0  0  1  0  0  0  0  0999 V2000
  -29.1130  -22.7980   20.1480 O   0  0  0  0  0  0  0  0  0  0  0  0
  -29.2650  -24.1800   20.5710 C   0  0  0  0  0  2  0  0  0  0  0  0
  -28.1950  -25.1410   19.9510 C   0  0  0  0  0  2  0  0  0  0  0  0
  -28.3440  -26.5690   20.2300 O   0  0  0  0  0  0  0  0  0  0  0  0
  -24.6030  -31.8820   23.2540 C   0  0  0  0  0  0  0  0  0  0  0  0
  -27.2030  -27.3700   20.1730 C   0  0  0  0  0  0  0  0  0  0  0  0
  -23.3880  -30.4910   21.6140 C   0  0  0  0  0  3  0  0  0  0  0  0
  -24.8290  -28.9470   20.1790 C   0  0  0  0  0  0  0  0  0  0  0  0
  -25.9230  -30.8160   21.4190 C   0  0  0  0  0  2  0  0  0  0  0  0
  -25.9960  -29.4430   20.7740 C   0  0  0  0  0  0  0  0  0  0  0  0
  -27.1840  -28.6630   20.7670 C   0  0  0  0  0  3  0  0  0  0  0  0
  -26.0140  -26.9200   19.5460 C   0  0  0  0  0  3  0  0  0  0  0  0
  -24.8370  -27.6890   19.5590 C   0  0  0  0  0  3  0  0  0  0  0  0
  -23.5920  -29.8180   20.2320 C   0  0  0  0  0  2  0  0  0  0  0  0
  -24.6560  -31.0790   22.1530 N   0  0  0  0  0  0  0  0  0  0  0  0
  -23.5240  -32.1610   23.7950 O   0  0  0  0  0  0  0  0  0  0  0  0
  -22.7290  -29.4710   22.5730 C   0  0  0  0  0  0  0  0  0  0  0  0
  -21.4040  -29.2960   22.4460 N   0  0  0  0  0  0  0  0  0  0  0  0
  -23.4090  -28.8420   23.3890 O   0  0  0  0  0  0  0  0  0  0  0  0
  -20.9160  -29.8550   21.7610 H   0  0  0  0  0  0  0  0  0  0  0  0
  -18.0240  -28.1080   22.9390 C   0  0  0  0  0  0  0  0  0  0  0  0
  -20.5820  -28.3620   23.2170 C   0  0  0  0  0  3  0  0  0  0  0  0
  -20.6820  -26.9290   22.6440 C   0  0  0  0  0  2  0  0  0  0  0  0
  -19.5830  -26.6070   21.6270 C   0  0  0  0  0  2  0  0  0  0  0  0
  -18.2000  -26.7570   22.2670 C   0  0  0  0  0  2  0  0  0  0  0  0
  -19.1430  -28.8680   23.3700 C   0  0  0  0  0  0  0  0  0  0  0  0
  -18.9250  -30.1340   23.9590 C   0  0  0  0  0  3  0  0  0  0  0  0
  -17.6220  -30.6390   24.1180 C   0  0  0  0  0  3  0  0  0  0  0  0
  -16.5170  -29.8760   23.7040 C   0  0  0  0  0  3  0  0  0  0  0  0
  -16.7190  -28.6120   23.1200 C   0  0  0  0  0  3  0  0  0  0  0  0
  -25.8930  -32.5060   23.8720 C   0  0  0  0  0  3  0  0  0  0  0  0
  -26.4080  -31.7310   25.1470 C   0  0  1  0  0  0  0  0  0  0  0  0
  -25.3180  -31.5010   26.2190 C   0  0  0  0  0  1  0  0  0  0  0  0
  -26.9820  -30.3500   24.7520 C   0  0  0  0  0  1  0  0  0  0  0  0
  -27.5640  -32.5190   25.8080 C   0  0  0  0  0  1  0  0  0  0  0  0
  -25.5920  -33.9060   24.2030 N   0  0  0  0  0  0  0  0  0  0  0  0
  -25.9250  -34.9570   23.4410 C   0  0  0  0  0  0  0  0  0  0  0  0
  -26.5890  -34.8480   22.4060 O   0  0  0  0  0  0  0  0  0  0  0  0
  -25.0030  -34.0650   25.0080 H   0  0  0  0  0  0  0  0  0  0  0  0
  -24.2020  -36.7560   23.0930 C   0  0  0  0  0  1  0  0  0  0  0  0
  -25.4460  -36.3470   23.8980 C   0  0  0  0  0  3  0  0  0  0  0  0
  -27.5900  -37.2240   24.7140 C   0  0  0  0  0  1  0  0  0  0  0  0
  -26.4820  -37.3950   23.7780 N   0  0  0  0  0  0  0  0  0  0  0  0
  -26.0800  -38.3170   23.9270 H   0  0  0  0  0  0  0  0  0  0  0  0
  -29.8660  -21.8260   20.9130 C   0  0  0  0  0  2  0  0  0  0  0  0
  -29.9940  -20.3890   20.2800 C   0  0  0  0  0  2  0  0  0  0  0  0
  -29.6060  -19.3250   21.1790 O   0  0  0  0  0  0  0  0  0  0  0  0
  -30.3560  -18.0820   21.1900 C   0  0  0  0  0  2  0  0  0  0  0  0
  -29.9920  -17.0260   20.1000 C   0  0  0  0  0  2  0  0  0  0  0  0
  -30.6580  -14.5630   20.1340 C   0  0  0  0  0  0  0  0  0  0  0  0
  -30.3320  -12.3860   19.0110 C   0  0  0  0  0  2  0  0  0  0  0  0
  -29.3420  -12.5990   17.8440 C   0  0  0  0  0  2  0  0  0  0  0  0
  -27.8850  -12.4670   18.3310 C   0  0  0  0  0  2  0  0  0  0  0  0
  -27.6040  -13.2910   19.6150 C   0  0  0  0  0  3  0  0  0  0  0  0
  -28.7030  -13.0590   20.6790 C   0  0  0  0  0  2  0  0  0  0  0  0
  -30.0040  -13.3660   20.0610 N   0  0  0  0  0  0  0  0  0  0  0  0
  -31.7760  -14.7380   19.6440 O   0  0  0  0  0  0  0  0  0  0  0  0
  -29.9110  -15.6090   20.5580 N   0  0  0  0  0  0  0  0  0  0  0  0
  -29.0360  -15.3490   20.9880 H   0  0  0  0  0  0  0  0  0  0  0  0
  -25.2410  -13.9170   20.4180 C   0  0  0  0  0  0  0  0  0  0  0  0
  -24.1800  -13.1550   20.8240 C   0  0  0  0  0  0  0  0  0  0  0  0
  -24.6260  -11.7980   20.7700 C   0  0  0  0  0  0  0  0  0  0  0  0
  -26.2680  -13.0270   20.1440 N   0  0  0  0  0  0  0  0  0  0  0  0
  -25.9040  -11.7470   20.4140 N   0  0  0  0  0  0  0  0  0  0  0  0
  -23.8950  -10.5420   20.9820 C   0  0  0  0  0  0  0  0  0  0  0  0
  -24.3570   -9.5630   21.8880 C   0  0  0  0  0  3  0  0  0  0  0  0
  -23.6260   -8.3710   22.0880 C   0  0  0  0  0  3  0  0  0  0  0  0
  -22.4190   -8.1520   21.3830 C   0  0  0  0  0  0  0  0  0  0  0  0
  -21.9750   -9.1210   20.4660 C   0  0  0  0  0  3  0  0  0  0  0  0
  -22.7060  -10.3040   20.2640 C   0  0  0  0  0  3  0  0  0  0  0  0
  -21.6570   -7.0150   21.4950 O   0  0  0  0  0  0  0  0  0  0  0  0
  -21.6560   -6.2580   22.6390 C   0  0  0  0  0  0  0  0  0  0  0  0
  -21.3040   -6.8040   23.8930 C   0  0  0  0  0  3  0  0  0  0  0  0
  -21.2500   -5.9740   25.0310 C   0  0  0  0  0  3  0  0  0  0  0  0
  -21.5350   -4.6010   24.9170 C   0  0  0  0  0  0  0  0  0  0  0  0
  -21.8800   -4.0550   23.6680 C   0  0  0  0  0  3  0  0  0  0  0  0
  -21.9370   -4.8820   22.5310 C   0  0  0  0  0  0  0  0  0  0  0  0
  -22.2490   -4.3460   21.3260 F   0  0  0  0  0  0  0  0  0  0  0  0
  -21.4760   -3.8020   26.0080 F   0  0  0  0  0  0  0  0  0  0  0  0
  -22.7990  -13.6450   21.1510 C   0  0  0  0  0  0  0  0  0  0  0  0
  -22.0980  -12.9520   22.0420 N   0  0  0  0  0  0  0  0  0  0  0  0
  -22.3520  -14.6760   20.6520 O   0  0  0  0  0  0  0  0  0  0  0  0
  -22.4730  -12.1180   22.4680 H   0  0  0  0  0  0  0  0  0  0  0  0
  -21.1730  -13.2630   22.3040 H   0  0  0  0  0  0  0  0  0  0  0  0
  -25.4140  -15.2870   20.2390 N   0  0  0  0  0  0  0  0  0  0  0  0
  -24.6560  -15.9470   20.3780 H   0  0  0  0  0  0  0  0  0  0  0  0
  -26.2510  -15.7180   19.8670 H   0  0  0  0  0  0  0  0  0  0  0  0
  1  2  1  0
  1 45  1  0
  3  4  1  0
  3  2  1  0
  5 16  2  0
  6  4  1  0
  6 11  1  0
  7 15  1  0
  7 17  1  0
  8 14  1  0
  8 10  1  0
  9 15  1  0
 10  9  1  0
 11 10  2  0
 12 13  1  0
 12  6  2  0
 13  8  2  0
 14  7  1  0
 15  5  1  0
 17 19  2  0
 18 17  1  0
 20 18  1  0
 21 30  2  0
 21 26  1  0
 22 18  1  0
 22 26  1  0
 23 22  1  0
 24 25  1  0
 24 23  1  0
 25 21  1  0
 26 27  2  0
 27 28  1  0
 29 28  2  0
 30 29  1  0
 31  5  1  0
 31 36  1  0
 31 32  1  0
 32 35  1  1
 32 33  1  0
 34 32  1  0
 36 39  1  0
 37 41  1  0
 37 36  1  0
 38 37  2  0
 41 40  1  0
 43 41  1  0
 43 44  1  0
 43 42  1  0
 46 45  1  0
 46 47  1  0
 47 48  1  0
 49 58  1  0
 49 48  1  0
 50 58  1  0
 51 56  1  0
 52 53  1  0
 52 51  1  0
 54 53  1  0
 54 63  1  0
 54 55  1  0
 56 50  1  0
 56 55  1  0
 57 50  2  0
 58 59  1  0
 60 61  2  0
 61 80  1  0
 62 61  1  0
 62 65  1  0
 63 64  1  0
 63 60  1  0
 64 62  2  0
 65 66  1  0
 66 67  2  0
 68 71  1  0
 68 67  1  0
 69 68  2  0
 70 69  1  0
 70 65  2  0
 71 72  1  0
 72 73  1  0
 73 74  2  0
 75 74  1  0
 75 79  1  0
 76 75  2  0
 77 72  2  0
 77 76  1  0
 78 77  1  0
 80 81  1  0
 81 84  1  0
 81 83  1  0
 82 80  2  0
 85 86  1  0
 85 60  1  0
 87 85  1  0
M  ISO  4   3 101   4 101  50 100  58 100
M  END
>  <TORSDO>  (76) 
F 23

>  <SCORE>  (76) 
-12.462

>  <name>  (76) 
75

>  <ligand_id>  (76) 
75

>  <original_smiles>  (76) 
[H]c1c([H])c([H])c2c(c1[H])C([H])([H])C([H])([H])C([H])([H])C2([H])N([H])C(=O)C1([H])N(C(=O)C([H])(N([H])C(=O)C([H])(N([H])C([H])([H])[H])C([H])([H])[H])C(C([H])([H])[H])(C([H])([H])[H])C([H])([H])[H])C([H])([H])c2c([H])c(OC([H])([H])C([H])([H])OC([H])([H])C([H])([H])OC([H])([H])C([H])([H])N([H])C(=O)N3C([H])([H])C([H])([H])C([H])([H])C([H])(n4nc(-c5c([H])c([H])c(Oc6c([H])c([H])c(F)c([H])c6F)c([H])c5[H])c(C(=O)N([H])[H])c4N([H])[H])C3([H])[H])c([H])c([H])c2C1([H])[H]

>  <smiles>  (76) 
[H]c1c([H])c([H])c2c(c1[H])C([H])([H])C([H])([H])C([H])([H])C2([H])N([H])C(=O)C1([H])N(C(=O)C([H])(N([H])C(=O)C([H])(N([H])C([H])([H])[H])C([H])([H])[H])C(C([H])([H])[H])(C([H])([H])[H])C([H])([H])[H])C([H])([H])c2c([H])c(OC([H])([H])C([H])([H])OC([H])([H])C([H])([H])OC([H])([H])C([H])([H])N([H])C(=O)N3C([H])([H])C([H])([H])C([H])([H])C([H])(n4nc(-c5c([H])c([H])c(Oc6c([H])c([H])c(F)c([H])c6F)c([H])c5[H])c(C(=O)N([H])[H])c4N([H])[H])C3([H])[H])c([H])c([H])c2C1([H])[H]

$$$$
76:0:0
     RDKit          3D

111119  0  0  1  0  0  0  0  0999 V2000
  -28.3360  -24.5370   13.5580 C   0  0  0  0  0  2  0  0  0  0  0  0
  -27.7120  -23.8480   14.6330 O   0  0  0  0  0  0  0  0  0  0  0  0
  -26.4860  -24.4400   15.0440 C   0  0  0  0  0  2  0  0  0  0  0  0
  -25.7680  -23.4570   15.9780 C   0  0  0  0  0  2  0  0  0  0  0  0
  -26.4250  -23.4420   17.2410 O   0  0  0  0  0  0  0  0  0  0  0  0
  -26.0620  -22.3220   18.0400 C   0  0  0  0  0  2  0  0  0  0  0  0
  -26.6410  -22.4790   19.4540 C   0  0  0  0  0  2  0  0  0  0  0  0
  -28.0610  -22.4570   19.3950 O   0  0  0  0  0  0  0  0  0  0  0  0
  -28.6770  -22.6740   20.6600 C   0  0  0  0  0  2  0  0  0  0  0  0
  -30.2000  -22.6200   20.4770 C   0  0  0  0  0  2  0  0  0  0  0  0
  -30.5860  -21.3090   20.0910 O   0  0  0  0  0  0  0  0  0  0  0  0
  -31.9670  -21.2340   19.7560 C   0  0  0  0  0  2  0  0  0  0  0  0
  -32.2410  -19.8720   19.1090 C   0  0  0  0  0  2  0  0  0  0  0  0
  -31.5080  -19.8300   17.8930 O   0  0  0  0  0  0  0  0  0  0  0  0
  -31.1140  -18.5310   17.4750 C   0  0  0  0  0  2  0  0  0  0  0  0
  -29.8730  -18.0350   18.2390 C   0  0  0  0  0  2  0  0  0  0  0  0
  -30.1970  -17.4260   19.4890 O   0  0  0  0  0  0  0  0  0  0  0  0
  -29.0590  -16.7580   20.0190 C   0  0  0  0  0  2  0  0  0  0  0  0
  -29.2810  -16.1830   21.4340 C   0  0  0  0  0  2  0  0  0  0  0  0
  -30.2930  -15.1880   21.6330 O   0  0  0  0  0  0  0  0  0  0  0  0
  -30.7700  -14.4050   20.6490 C   0  0  0  0  0  0  0  0  0  0  0  0
  -30.3800  -12.2710   19.4200 C   0  0  0  0  0  2  0  0  0  0  0  0
  -29.4750  -12.5290   18.2090 C   0  0  0  0  0  2  0  0  0  0  0  0
  -27.9990  -12.3720   18.6050 C   0  0  0  0  0  2  0  0  0  0  0  0
  -27.6530  -13.1720   19.8930 C   0  0  0  0  0  3  0  0  0  0  0  0
  -28.6910  -12.9580   21.0260 C   0  0  0  0  0  2  0  0  0  0  0  0
  -30.0190  -13.2320   20.4630 N   0  0  0  0  0  0  0  0  0  0  0  0
  -31.8040  -14.6940   20.0460 O   0  0  0  0  0  0  0  0  0  0  0  0
  -25.2610  -13.8060   20.5610 C   0  0  0  0  0  0  0  0  0  0  0  0
  -24.1800  -13.0400   20.9130 C   0  0  0  0  0  0  0  0  0  0  0  0
  -24.6250  -11.6860   20.8660 C   0  0  0  0  0  0  0  0  0  0  0  0
  -26.2950  -12.9110   20.3400 N   0  0  0  0  0  0  0  0  0  0  0  0
  -25.9180  -11.6300   20.5710 N   0  0  0  0  0  0  0  0  0  0  0  0
  -23.8850  -10.4320   21.0330 C   0  0  0  0  0  0  0  0  0  0  0  0
  -24.3500   -9.4320   21.9110 C   0  0  0  0  0  3  0  0  0  0  0  0
  -23.6270   -8.2320   22.0760 C   0  0  0  0  0  3  0  0  0  0  0  0
  -22.4260   -8.0250   21.3540 C   0  0  0  0  0  0  0  0  0  0  0  0
  -21.9800   -9.0160   20.4620 C   0  0  0  0  0  3  0  0  0  0  0  0
  -22.7020  -10.2110   20.2980 C   0  0  0  0  0  3  0  0  0  0  0  0
  -21.6720   -6.8800   21.4200 O   0  0  0  0  0  0  0  0  0  0  0  0
  -21.6920   -6.0670   22.5230 C   0  0  0  0  0  0  0  0  0  0  0  0
  -21.4050   -6.5600   23.8130 C   0  0  0  0  0  3  0  0  0  0  0  0
  -21.3660   -5.6790   24.9110 C   0  0  0  0  0  3  0  0  0  0  0  0
  -21.6070   -4.3050   24.7230 C   0  0  0  0  0  0  0  0  0  0  0  0
  -21.8840   -3.8090   23.4370 C   0  0  0  0  0  3  0  0  0  0  0  0
  -21.9250   -4.6890   22.3400 C   0  0  0  0  0  0  0  0  0  0  0  0
  -22.1700   -4.2030   21.0990 F   0  0  0  0  0  0  0  0  0  0  0  0
  -21.5640   -3.4580   25.7780 F   0  0  0  0  0  0  0  0  0  0  0  0
  -22.7880  -13.5260   21.1800 C   0  0  0  0  0  0  0  0  0  0  0  0
  -22.0580  -12.8170   22.0340 N   0  0  0  0  0  0  0  0  0  0  0  0
  -22.3550  -14.5540   20.6680 O   0  0  0  0  0  0  0  0  0  0  0  0
  -22.4400  -11.9860   22.4610 H   0  0  0  0  0  0  0  0  0  0  0  0
  -21.1140  -13.1030   22.2510 H   0  0  0  0  0  0  0  0  0  0  0  0
  -25.4460  -15.1720   20.3910 N   0  0  0  0  0  0  0  0  0  0  0  0
  -24.6790  -15.8340   20.4440 H   0  0  0  0  0  0  0  0  0  0  0  0
  -26.2530  -15.5470   19.9110 H   0  0  0  0  0  0  0  0  0  0  0  0
  -29.7390  -23.9470   13.3650 C   0  0  0  0  0  2  0  0  0  0  0  0
  -31.7900  -24.1410   14.7770 C   0  0  0  0  0  0  0  0  0  0  0  0
  -30.4680  -24.1100   14.6090 N   0  0  0  0  0  0  0  0  0  0  0  0
  -32.6030  -23.8890   13.8860 O   0  0  0  0  0  0  0  0  0  0  0  0
  -29.9000  -24.2620   15.4320 H   0  0  0  0  0  0  0  0  0  0  0  0
  -33.7080  -24.1690   18.0860 C   0  0  0  0  0  3  0  0  0  0  0  0
  -33.3370  -23.8510   16.7630 C   0  0  0  0  0  3  0  0  0  0  0  0
  -32.9580  -25.1030   18.8280 C   0  0  0  0  0  3  0  0  0  0  0  0
  -31.5010  -25.4440   16.9120 C   0  0  0  0  0  3  0  0  0  0  0  0
  -32.2180  -24.4770   16.1740 C   0  0  0  0  0  0  0  0  0  0  0  0
  -31.8430  -25.7410   18.2410 C   0  0  0  0  0  0  0  0  0  0  0  0
  -31.0580  -26.6600   18.8880 O   0  0  0  0  0  0  0  0  0  0  0  0
  -30.8310  -26.4500   20.2730 C   0  0  0  0  0  2  0  0  0  0  0  0
  -29.6030  -27.2760   20.6630 C   0  0  0  0  0  2  0  0  0  0  0  0
  -28.4260  -26.7390   20.0500 O   0  0  0  0  0  0  0  0  0  0  0  0
  -24.6050  -31.8720   23.2130 C   0  0  0  0  0  0  0  0  0  0  0  0
  -27.2700  -27.4920   20.1090 C   0  0  0  0  0  0  0  0  0  0  0  0
  -23.3910  -30.4900   21.5500 C   0  0  0  0  0  3  0  0  0  0  0  0
  -24.8460  -28.9580   20.1160 C   0  0  0  0  0  0  0  0  0  0  0  0
  -25.9070  -30.8580   21.3540 C   0  0  0  0  0  2  0  0  0  0  0  0
  -25.9910  -29.4910   20.7160 C   0  0  0  0  0  0  0  0  0  0  0  0
  -27.1950  -28.7640   20.7250 C   0  0  0  0  0  3  0  0  0  0  0  0
  -26.1050  -26.9640   19.5100 C   0  0  0  0  0  3  0  0  0  0  0  0
  -24.8940  -27.6880   19.5120 C   0  0  0  0  0  3  0  0  0  0  0  0
  -23.6000  -29.8140   20.1640 C   0  0  0  0  0  2  0  0  0  0  0  0
  -24.6520  -31.0870   22.0990 N   0  0  0  0  0  0  0  0  0  0  0  0
  -23.5270  -32.1440   23.7560 O   0  0  0  0  0  0  0  0  0  0  0  0
  -22.7350  -29.4650   22.5020 C   0  0  0  0  0  0  0  0  0  0  0  0
  -21.4090  -29.3000   22.3760 N   0  0  0  0  0  0  0  0  0  0  0  0
  -23.4140  -28.8210   23.3050 O   0  0  0  0  0  0  0  0  0  0  0  0
  -20.9220  -29.8720   21.6990 H   0  0  0  0  0  0  0  0  0  0  0  0
  -18.0260  -28.1360   22.8490 C   0  0  0  0  0  0  0  0  0  0  0  0
  -20.5840  -28.3630   23.1350 C   0  0  0  0  0  3  0  0  0  0  0  0
  -20.6740  -26.9380   22.5430 C   0  0  0  0  0  2  0  0  0  0  0  0
  -19.5740  -26.6380   21.5200 C   0  0  0  0  0  2  0  0  0  0  0  0
  -18.1910  -26.7910   22.1610 C   0  0  0  0  0  2  0  0  0  0  0  0
  -19.1500  -28.8810   23.2920 C   0  0  0  0  0  0  0  0  0  0  0  0
  -18.9440  -30.1420   23.8920 C   0  0  0  0  0  3  0  0  0  0  0  0
  -17.6450  -30.6570   24.0560 C   0  0  0  0  0  3  0  0  0  0  0  0
  -16.5340  -29.9080   23.6320 C   0  0  0  0  0  3  0  0  0  0  0  0
  -16.7250  -28.6490   23.0350 C   0  0  0  0  0  3  0  0  0  0  0  0
  -25.8980  -32.4840   23.8410 C   0  0  0  0  0  3  0  0  0  0  0  0
  -25.5880  -33.8640   24.2340 N   0  0  0  0  0  0  0  0  0  0  0  0
  -25.9030  -34.9480   23.5140 C   0  0  0  0  0  0  0  0  0  0  0  0
  -26.5580  -34.8930   22.4700 O   0  0  0  0  0  0  0  0  0  0  0  0
  -25.0060  -33.9820   25.0510 H   0  0  0  0  0  0  0  0  0  0  0  0
  -24.1480  -36.7310   23.2630 C   0  0  0  0  0  1  0  0  0  0  0  0
  -25.4090  -36.3110   24.0340 C   0  0  0  0  0  3  0  0  0  0  0  0
  -27.5590  -37.1780   24.8450 C   0  0  0  0  0  1  0  0  0  0  0  0
  -26.4270  -37.3800   23.9440 N   0  0  0  0  0  0  0  0  0  0  0  0
  -26.0150  -38.2860   24.1530 H   0  0  0  0  0  0  0  0  0  0  0  0
  -26.4450  -31.6590   25.0700 C   0  0  1  0  0  0  0  0  0  0  0  0
  -25.3750  -31.3680   26.1470 C   0  0  0  0  0  1  0  0  0  0  0  0
  -27.0270  -30.3050   24.6000 C   0  0  0  0  0  1  0  0  0  0  0  0
  -27.6040  -32.4300   25.7460 C   0  0  0  0  0  1  0  0  0  0  0  0
  1  2  1  0
  2  3  1  0
  3  4  1  0
  4  5  1  0
  5  6  1  0
  6  7  1  0
  8  7  1  0
  8  9  1  0
 10  9  1  0
 11 10  1  0
 12 11  1  0
 13 12  1  0
 14 13  1  0
 15 14  1  0
 15 16  1  0
 16 17  1  0
 17 18  1  0
 18 19  1  0
 19 20  1  0
 21 20  1  0
 22 27  1  0
 23 24  1  0
 23 22  1  0
 25 24  1  0
 25 32  1  0
 25 26  1  0
 27 21  1  0
 27 26  1  0
 28 21  2  0
 29 30  2  0
 30 49  1  0
 31 30  1  0
 31 34  1  0
 32 29  1  0
 32 33  1  0
 33 31  2  0
 34 35  1  0
 35 36  2  0
 37 40  1  0
 37 36  1  0
 38 37  2  0
 39 38  1  0
 39 34  2  0
 40 41  1  0
 41 42  1  0
 42 43  2  0
 44 43  1  0
 44 48  1  0
 45 44  2  0
 46 41  2  0
 46 45  1  0
 47 46  1  0
 49 50  1  0
 50 53  1  0
 50 52  1  0
 51 49  2  0
 54 55  1  0
 54 29  1  0
 56 54  1  0
 57  1  1  0
 57 59  1  0
 58 66  1  0
 59 58  1  0
 59 61  1  0
 60 58  2  0
 62 64  1  0
 63 62  2  0
 65 67  1  0
 66 63  1  0
 66 65  2  0
 67 64  2  0
 67 68  1  0
 68 69  1  0
 69 70  1  0
 71 73  1  0
 71 70  1  0
 72 83  2  0
 73 78  1  0
 74 82  1  0
 74 84  1  0
 75 81  1  0
 75 77  1  0
 76 82  1  0
 77 78  2  0
 77 76  1  0
 79 80  1  0
 79 73  2  0
 80 75  2  0
 81 74  1  0
 82 72  1  0
 84 86  2  0
 85 84  1  0
 87 85  1  0
 88 97  2  0
 88 93  1  0
 89 85  1  0
 89 93  1  0
 90 89  1  0
 91 92  1  0
 91 90  1  0
 92 88  1  0
 93 94  2  0
 94 95  1  0
 96 95  2  0
 97 96  1  0
 98 72  1  0
 98 99  1  0
 98108  1  0
 99102  1  0
100104  1  0
100 99  1  0
101100  2  0
104103  1  0
106104  1  0
106107  1  0
106105  1  0
108111  1  1
108109  1  0
110108  1  0
M  ISO  4  20 100  21 100  70 101  71 101
M  END
>  <TORSDO>  (77) 
F 41

>  <SCORE>  (77) 
-6.718

>  <name>  (77) 
76

>  <ligand_id>  (77) 
76

>  <original_smiles>  (77) 
[H]c1c([H])c(OC([H])([H])C([H])([H])Oc2c([H])c([H])c3c(c2[H])C([H])([H])N(C(=O)C([H])(N([H])C(=O)C([H])(N([H])C([H])([H])[H])C([H])([H])[H])C(C([H])([H])[H])(C([H])([H])[H])C([H])([H])[H])C([H])(C(=O)N([H])C2([H])c4c([H])c([H])c([H])c([H])c4C([H])([H])C([H])([H])C2([H])[H])C3([H])[H])c([H])c(C(=O)N([H])C([H])([H])C([H])([H])OC([H])([H])C([H])([H])OC([H])([H])C([H])([H])OC([H])([H])C([H])([H])OC([H])([H])C([H])([H])OC([H])([H])C([H])([H])OC([H])([H])C([H])([H])OC(=O)N2C([H])([H])C([H])([H])C([H])([H])C([H])(n3nc(-c4c([H])c([H])c(Oc5c([H])c([H])c(F)c([H])c5F)c([H])c4[H])c(C(=O)N([H])[H])c3N([H])[H])C2([H])[H])c1[H]

>  <smiles>  (77) 
[H]c1c([H])c(OC([H])([H])C([H])([H])Oc2c([H])c([H])c3c(c2[H])C([H])([H])N(C(=O)C([H])(N([H])C(=O)C([H])(N([H])C([H])([H])[H])C([H])([H])[H])C(C([H])([H])[H])(C([H])([H])[H])C([H])([H])[H])C([H])(C(=O)N([H])C2([H])c4c([H])c([H])c([H])c([H])c4C([H])([H])C([H])([H])C2([H])[H])C3([H])[H])c([H])c(C(=O)N([H])C([H])([H])C([H])([H])OC([H])([H])C([H])([H])OC([H])([H])C([H])([H])OC([H])([H])C([H])([H])OC([H])([H])C([H])([H])OC([H])([H])C([H])([H])OC([H])([H])C([H])([H])OC(=O)N2C([H])([H])C([H])([H])C([H])([H])C([H])(n3nc(-c4c([H])c([H])c(Oc5c([H])c([H])c(F)c([H])c5F)c([H])c4[H])c(C(=O)N([H])[H])c3N([H])[H])C2([H])[H])c1[H]

$$$$
77:0:0
     RDKit          3D

 81 85  0  0  1  0  0  0  0  0999 V2000
  -28.1090  -24.6470   20.3000 O   0  0  0  0  0  1  0  0  0  0  0  0
  -24.7100  -31.7810   23.1610 C   0  0  0  0  0  0  0  0  0  0  0  0
  -27.2070  -26.1440   20.2640 C   0  0  0  0  0  0  0  0  0  0  0  0
  -23.5560  -30.3680   21.5220 C   0  0  0  0  0  3  0  0  0  0  0  0
  -25.0090  -28.5810   20.1690 C   0  0  0  0  0  0  0  0  0  0  0  0
  -26.1560  -30.3130   21.5020 C   0  0  0  0  0  2  0  0  0  0  0  0
  -26.2110  -28.8120   20.8490 C   0  0  0  0  0  0  0  0  0  0  0  0
  -27.2590  -27.6460   20.8460 C   0  0  0  0  0  3  0  0  0  0  0  0
  -25.9680  -26.2870   19.5230 C   0  0  0  0  0  3  0  0  0  0  0  0
  -24.9660  -27.3480   19.4800 C   0  0  0  0  0  3  0  0  0  0  0  0
  -23.8360  -29.6140   20.1780 C   0  0  0  0  0  2  0  0  0  0  0  0
  -24.8390  -30.8700   22.1140 N   0  0  0  0  0  0  0  0  0  0  0  0
  -23.6010  -32.1150   23.6230 O   0  0  0  0  0  0  0  0  0  0  0  0
  -22.7620  -29.4580   22.5040 C   0  0  0  0  0  0  0  0  0  0  0  0
  -21.4220  -29.3560   22.3730 N   0  0  0  0  0  0  0  0  0  0  0  0
  -23.3780  -28.8290   23.3670 O   0  0  0  0  0  0  0  0  0  0  0  0
  -20.9670  -29.9120   21.6630 H   0  0  0  0  0  0  0  0  0  0  0  0
  -17.9970  -28.2130   22.9010 C   0  0  0  0  0  0  0  0  0  0  0  0
  -20.5670  -28.4380   23.1430 C   0  0  0  0  0  3  0  0  0  0  0  0
  -20.6330  -27.0060   22.5600 C   0  0  0  0  0  2  0  0  0  0  0  0
  -19.5210  -26.7160   21.5460 C   0  0  0  0  0  2  0  0  0  0  0  0
  -18.1460  -26.8740   22.1990 C   0  0  0  0  0  2  0  0  0  0  0  0
  -19.1320  -28.9550   23.3290 C   0  0  0  0  0  0  0  0  0  0  0  0
  -18.9320  -30.2040   23.9560 C   0  0  0  0  0  3  0  0  0  0  0  0
  -17.6350  -30.7130   24.1530 C   0  0  0  0  0  3  0  0  0  0  0  0
  -16.5160  -29.9710   23.7350 C   0  0  0  0  0  3  0  0  0  0  0  0
  -16.6980  -28.7220   23.1160 C   0  0  0  0  0  3  0  0  0  0  0  0
  -25.9400  -32.4590   23.8420 C   0  0  0  0  0  3  0  0  0  0  0  0
  -25.5980  -33.8650   24.1720 N   0  0  0  0  0  0  0  0  0  0  0  0
  -25.9200  -34.9450   23.4450 C   0  0  0  0  0  0  0  0  0  0  0  0
  -26.5760  -34.8640   22.4040 O   0  0  0  0  0  0  0  0  0  0  0  0
  -25.0070  -33.9990   24.9800 H   0  0  0  0  0  0  0  0  0  0  0  0
  -24.1680  -36.7480   23.1980 C   0  0  0  0  0  1  0  0  0  0  0  0
  -25.4480  -36.3330   23.9420 C   0  0  0  0  0  3  0  0  0  0  0  0
  -27.6060  -37.2470   24.6880 C   0  0  0  0  0  1  0  0  0  0  0  0
  -26.4650  -37.3980   23.7880 N   0  0  0  0  0  0  0  0  0  0  0  0
  -26.0550  -38.3150   23.9480 H   0  0  0  0  0  0  0  0  0  0  0  0
  -26.3960  -31.7200   25.1620 C   0  0  1  0  0  0  0  0  0  0  0  0
  -25.2580  -31.5140   26.1910 C   0  0  0  0  0  1  0  0  0  0  0  0
  -26.9880  -30.3300   24.8490 C   0  0  0  0  0  1  0  0  0  0  0  0
  -27.5230  -32.5250   25.8520 C   0  0  0  0  0  1  0  0  0  0  0  0
  -28.1400  -22.5480   20.1630 C   0  0  0  0  0 15  0  0  0  0  0  0
  -29.1420  -20.4180   20.2160 C   0  0  0  0  0 15  0  0  0  0  0  0
  -29.9010  -16.6470   20.0860 C   0  0  0  0  0  0  0  0  0  0  0  0
  -30.2300  -13.8900   19.2940 C   0  0  0  0  0  2  0  0  0  0  0  0
  -29.4480  -13.0530   18.1990 C   0  0  0  0  0  2  0  0  0  0  0  0
  -28.1340  -12.4820   18.7300 C   0  0  0  0  0  2  0  0  0  0  0  0
  -27.5010  -13.5140   19.6750 C   0  0  0  0  0  3  0  0  0  0  0  0
  -28.4750  -14.2100   20.6950 C   0  0  0  0  0  2  0  0  0  0  0  0
  -29.4550  -15.1290   19.9600 N   0  0  0  0  0  0  0  0  0  0  0  0
  -31.1430  -16.3980   20.0040 O   0  0  0  0  0  0  0  0  0  0  0  0
  -29.2570  -18.3100   20.1340 N   0  0  0  0  0  2  0  0  0  0  0  0
  -30.2580  -18.4710   20.1320 H   0  0  0  0  0  0  0  0  0  0  0  0
  -25.1600  -13.9200   20.5080 C   0  0  0  0  0  0  0  0  0  0  0  0
  -24.1280  -13.1120   20.8810 C   0  0  0  0  0  0  0  0  0  0  0  0
  -24.6260  -11.7720   20.8220 C   0  0  0  0  0  0  0  0  0  0  0  0
  -26.2240  -13.0860   20.2420 N   0  0  0  0  0  0  0  0  0  0  0  0
  -25.9190  -11.7780   20.4820 N   0  0  0  0  0  0  0  0  0  0  0  0
  -23.9140  -10.4950   21.0120 C   0  0  0  0  0  0  0  0  0  0  0  0
  -24.3570   -9.5290   21.9420 C   0  0  0  0  0  3  0  0  0  0  0  0
  -23.6350   -8.3280   22.1300 C   0  0  0  0  0  3  0  0  0  0  0  0
  -22.4560   -8.0830   21.3870 C   0  0  0  0  0  0  0  0  0  0  0  0
  -22.0290   -9.0390   20.4470 C   0  0  0  0  0  3  0  0  0  0  0  0
  -22.7510  -10.2310   20.2590 C   0  0  0  0  0  3  0  0  0  0  0  0
  -21.7070   -6.9350   21.4820 O   0  0  0  0  0  0  0  0  0  0  0  0
  -21.6700   -6.1910   22.6350 C   0  0  0  0  0  0  0  0  0  0  0  0
  -21.2140   -6.7320   23.8560 C   0  0  0  0  0  3  0  0  0  0  0  0
  -21.1260   -5.9140   25.0000 C   0  0  0  0  0  3  0  0  0  0  0  0
  -21.4850   -4.5540   24.9250 C   0  0  0  0  0  0  0  0  0  0  0  0
  -21.9340   -4.0110   23.7070 C   0  0  0  0  0  3  0  0  0  0  0  0
  -22.0220   -4.8270   22.5660 C   0  0  0  0  0  0  0  0  0  0  0  0
  -22.4340   -4.2930   21.3900 F   0  0  0  0  0  0  0  0  0  0  0  0
  -21.3950   -3.7660   26.0220 F   0  0  0  0  0  0  0  0  0  0  0  0
  -22.7270  -13.5620   21.1730 C   0  0  0  0  0  0  0  0  0  0  0  0
  -22.0260  -12.8570   22.0520 N   0  0  0  0  0  0  0  0  0  0  0  0
  -22.2670  -14.5820   20.6590 O   0  0  0  0  0  0  0  0  0  0  0  0
  -22.4140  -12.0340   22.4890 H   0  0  0  0  0  0  0  0  0  0  0  0
  -21.0880  -13.1430   22.2910 H   0  0  0  0  0  0  0  0  0  0  0  0
  -25.2790  -15.2960   20.3350 N   0  0  0  0  0  0  0  0  0  0  0  0
  -24.4980  -15.9290   20.4650 H   0  0  0  0  0  0  0  0  0  0  0  0
  -26.1180  -15.7610   20.0090 H   0  0  0  0  0  0  0  0  0  0  0  0
  2 13  2  0
  3  1  1  0
  3  8  1  0
  4 12  1  0
  4 14  1  0
  5 11  1  0
  5  7  1  0
  6 12  1  0
  7  6  1  0
  8  7  2  0
  9  3  2  0
 10  9  1  0
 10  5  2  0
 11  4  1  0
 12  2  1  0
 14 16  2  0
 15 14  1  0
 17 15  1  0
 18 27  2  0
 18 23  1  0
 19 15  1  0
 19 23  1  0
 20 19  1  0
 21 22  1  0
 21 20  1  0
 22 18  1  0
 23 24  2  0
 24 25  1  0
 26 25  2  0
 27 26  1  0
 28  2  1  0
 28 29  1  0
 28 38  1  0
 29 32  1  0
 30 34  1  0
 30 29  1  0
 31 30  2  0
 34 33  1  0
 36 34  1  0
 36 37  1  0
 36 35  1  0
 38 41  1  1
 38 39  1  0
 40 38  1  0
 44 52  1  0
 45 50  1  0
 46 47  1  0
 46 45  1  0
 48 47  1  0
 48 57  1  0
 48 49  1  0
 50 44  1  0
 50 49  1  0
 51 44  2  0
 53 52  1  0
 54 55  2  0
 55 74  1  0
 56 55  1  0
 56 59  1  0
 57 58  1  0
 57 54  1  0
 58 56  2  0
 59 60  1  0
 60 61  2  0
 62 65  1  0
 62 61  1  0
 63 62  2  0
 64 63  1  0
 64 59  2  0
 65 66  1  0
 66 67  1  0
 67 68  2  0
 69 68  1  0
 69 73  1  0
 70 69  2  0
 71 66  2  0
 71 70  1  0
 72 71  1  0
 74 75  1  0
 75 78  1  0
 75 77  1  0
 76 74  2  0
 79 80  1  0
 79 54  1  0
 81 79  1  0
M  ISO  4   1 101  42 101  44 100  52 100
M  END
>  <TORSDO>  (78) 
F 17

>  <SCORE>  (78) 
-16.141

>  <name>  (78) 
77

>  <ligand_id>  (78) 
77

>  <original_smiles>  (78) 
[H]c1c([H])c([H])c2c(c1[H])C([H])([H])C([H])([H])C([H])([H])C2([H])N([H])C(=O)C1([H])N(C(=O)C([H])(N([H])C(=O)C([H])(N([H])C([H])([H])[H])C([H])([H])[H])C(C([H])([H])[H])(C([H])([H])[H])C([H])([H])[H])C([H])([H])c2c([H])c(OC([H])([H])C([H])([H])N([H])C(=O)N3C([H])([H])C([H])([H])C([H])([H])C([H])(n4nc(-c5c([H])c([H])c(Oc6c([H])c([H])c(F)c([H])c6F)c([H])c5[H])c(C(=O)N([H])[H])c4N([H])[H])C3([H])[H])c([H])c([H])c2C1([H])[H]

>  <smiles>  (78) 
[H]c1c([H])c([H])c2c(c1[H])C([H])([H])C([H])([H])C([H])([H])C2([H])N([H])C(=O)C1([H])N(C(=O)C([H])(N([H])C(=O)C([H])(N([H])C([H])([H])[H])C([H])([H])[H])C(C([H])([H])[H])(C([H])([H])[H])C([H])([H])[H])C([H])([H])c2c([H])c(OC([H])([H])C([H])([H])N([H])C(=O)N3C([H])([H])C([H])([H])C([H])([H])C([H])(n4nc(-c5c([H])c([H])c(Oc6c([H])c([H])c(F)c([H])c6F)c([H])c5[H])c(C(=O)N([H])[H])c4N([H])[H])C3([H])[H])c([H])c([H])c2C1([H])[H]

$$$$
78:0:0
     RDKit          3D

 97104  0  0  1  0  0  0  0  0999 V2000
  -27.1550  -20.0250   20.6720 O   0  0  0  0  0  0  0  0  0  0  0  0
  -26.7420  -21.3880   20.6580 C   0  0  0  0  0  2  0  0  0  0  0  0
  -27.9140  -22.2790   20.2210 C   0  0  0  0  0  0  0  0  0  0  0  0
  -27.6440  -23.5750   20.0290 N   0  0  0  0  0  0  0  0  0  0  0  0
  -29.0430  -21.8020   20.0700 O   0  0  0  0  0  0  0  0  0  0  0  0
  -26.6900  -23.8720   20.1750 H   0  0  0  0  0  0  0  0  0  0  0  0
  -28.6090  -24.6130   19.6650 C   0  0  0  0  0  2  0  0  0  0  0  0
  -28.5920  -25.7770   20.6710 C   0  0  0  0  0  2  0  0  0  0  0  0
  -28.5640  -27.0330   20.0000 O   0  0  0  0  0  0  0  0  0  0  0  0
  -24.8070  -31.9040   23.5230 C   0  0  0  0  0  0  0  0  0  0  0  0
  -27.3760  -27.7090   20.0990 C   0  0  0  0  0  0  0  0  0  0  0  0
  -23.5490  -30.5850   21.8470 C   0  0  0  0  0  3  0  0  0  0  0  0
  -24.9610  -29.1460   20.2850 C   0  0  0  0  0  0  0  0  0  0  0  0
  -26.0540  -30.9980   21.5680 C   0  0  0  0  0  2  0  0  0  0  0  0
  -26.1310  -29.6660   20.8540 C   0  0  0  0  0  0  0  0  0  0  0  0
  -27.3420  -28.9530   20.7590 C   0  0  0  0  0  3  0  0  0  0  0  0
  -26.1960  -27.1880   19.5310 C   0  0  0  0  0  3  0  0  0  0  0  0
  -24.9850  -27.9040   19.6210 C   0  0  0  0  0  3  0  0  0  0  0  0
  -23.7100  -29.9820   20.4240 C   0  0  0  0  0  2  0  0  0  0  0  0
  -24.8240  -31.1730   22.3720 N   0  0  0  0  0  0  0  0  0  0  0  0
  -23.7460  -32.1310   24.1210 O   0  0  0  0  0  0  0  0  0  0  0  0
  -22.9450  -29.5050   22.7740 C   0  0  0  0  0  0  0  0  0  0  0  0
  -21.6690  -29.1590   22.5370 N   0  0  0  0  0  0  0  0  0  0  0  0
  -23.6250  -28.9790   23.6590 O   0  0  0  0  0  0  0  0  0  0  0  0
  -21.1770  -29.6420   21.7980 H   0  0  0  0  0  0  0  0  0  0  0  0
  -18.4860  -27.4580   22.6690 C   0  0  0  0  0  0  0  0  0  0  0  0
  -20.9100  -28.1370   23.2560 C   0  0  0  0  0  3  0  0  0  0  0  0
  -21.3130  -26.7170   22.7950 C   0  0  0  0  0  2  0  0  0  0  0  0
  -20.4270  -26.1770   21.6680 C   0  0  0  0  0  2  0  0  0  0  0  0
  -18.9620  -26.1250   22.1140 C   0  0  0  0  0  2  0  0  0  0  0  0
  -19.4030  -28.4080   23.1900 C   0  0  0  0  0  0  0  0  0  0  0  0
  -18.9120  -29.6470   23.6590 C   0  0  0  0  0  3  0  0  0  0  0  0
  -17.5360  -29.9390   23.6160 C   0  0  0  0  0  3  0  0  0  0  0  0
  -16.6320  -28.9880   23.1120 C   0  0  0  0  0  3  0  0  0  0  0  0
  -17.1060  -27.7490   22.6450 C   0  0  0  0  0  3  0  0  0  0  0  0
  -26.1130  -32.5120   24.1260 C   0  0  0  0  0  3  0  0  0  0  0  0
  -25.8590  -33.9340   24.3890 N   0  0  0  0  0  0  0  0  0  0  0  0
  -26.2670  -34.9370   23.6000 C   0  0  0  0  0  0  0  0  0  0  0  0
  -26.9680  -34.7600   22.5990 O   0  0  0  0  0  0  0  0  0  0  0  0
  -25.2510  -34.1490   25.1660 H   0  0  0  0  0  0  0  0  0  0  0  0
  -24.6440  -36.7900   23.0980 C   0  0  0  0  0  1  0  0  0  0  0  0
  -25.8280  -36.3640   23.9800 C   0  0  0  0  0  3  0  0  0  0  0  0
  -27.9750  -37.1720   24.8560 C   0  0  0  0  0  1  0  0  0  0  0  0
  -26.9130  -37.3630   23.8710 N   0  0  0  0  0  0  0  0  0  0  0  0
  -26.5480  -38.3050   23.9780 H   0  0  0  0  0  0  0  0  0  0  0  0
  -26.5920  -31.7780   25.4390 C   0  0  1  0  0  0  0  0  0  0  0  0
  -25.4640  -31.5530   26.4720 C   0  0  0  0  0  1  0  0  0  0  0  0
  -27.2010  -30.3990   25.0970 C   0  0  0  0  0  1  0  0  0  0  0  0
  -27.7080  -32.6020   26.1240 C   0  0  0  0  0  1  0  0  0  0  0  0
  -26.4710  -19.2410   19.7020 C   0  0  0  0  0  2  0  0  0  0  0  0
  -27.4920  -18.4390   18.8950 C   0  0  0  0  0  0  0  0  0  0  0  0
  -28.7120  -18.9740   18.7620 N   0  0  0  0  0  0  0  0  0  0  0  0
  -27.1790  -17.3590   18.3920 O   0  0  0  0  0  0  0  0  0  0  0  0
  -28.8980  -19.8440   19.2450 H   0  0  0  0  0  0  0  0  0  0  0  0
  -29.7840  -18.4180   17.9430 C   0  0  0  0  0  2  0  0  0  0  0  0
  -30.6250  -17.3970   18.7190 C   0  0  0  0  0  2  0  0  0  0  0  0
  -31.8230  -18.0250   19.1450 O   0  0  0  0  0  0  0  0  0  0  0  0
  -31.9750  -18.0730   20.5590 C   0  0  0  0  0  2  0  0  0  0  0  0
  -32.5000  -16.7110   21.0320 C   0  0  0  0  0  2  0  0  0  0  0  0
  -33.1100  -14.5790   20.0050 C   0  0  0  0  0  0  0  0  0  0  0  0
  -32.9210  -12.2050   20.6450 C   0  0  0  0  0  2  0  0  0  0  0  0
  -32.1420  -11.4070   19.5810 C   0  0  0  0  0  2  0  0  0  0  0  0
  -30.6270  -11.4730   19.8510 C   0  0  0  0  0  2  0  0  0  0  0  0
  -30.1300  -12.9230   20.0780 C   0  0  0  0  0  3  0  0  0  0  0  0
  -31.0240  -13.6570   21.1000 C   0  0  0  0  0  2  0  0  0  0  0  0
  -32.4250  -13.5910   20.6400 N   0  0  0  0  0  0  0  0  0  0  0  0
  -34.1880  -14.4030   19.4330 O   0  0  0  0  0  0  0  0  0  0  0  0
  -32.5130  -15.7650   19.9180 N   0  0  0  0  0  0  0  0  0  0  0  0
  -32.7520  -16.2360   19.0570 H   0  0  0  0  0  0  0  0  0  0  0  0
  -27.8860  -14.0300   20.6950 C   0  0  0  0  0  0  0  0  0  0  0  0
  -26.6570  -13.5030   20.9880 C   0  0  0  0  0  0  0  0  0  0  0  0
  -26.8080  -12.0850   20.9180 C   0  0  0  0  0  0  0  0  0  0  0  0
  -28.7230  -12.9470   20.4790 N   0  0  0  0  0  0  0  0  0  0  0  0
  -28.0720  -11.7690   20.6660 N   0  0  0  0  0  0  0  0  0  0  0  0
  -25.8120  -11.0100   21.0200 C   0  0  0  0  0  0  0  0  0  0  0  0
  -25.8860  -10.0270   22.0320 C   0  0  0  0  0  3  0  0  0  0  0  0
  -24.9070   -9.0150   22.1200 C   0  0  0  0  0  3  0  0  0  0  0  0
  -23.8390   -8.9790   21.1920 C   0  0  0  0  0  0  0  0  0  0  0  0
  -23.7820   -9.9450   20.1730 C   0  0  0  0  0  3  0  0  0  0  0  0
  -24.7620  -10.9490   20.0840 C   0  0  0  0  0  3  0  0  0  0  0  0
  -22.8570   -8.0160   21.1860 O   0  0  0  0  0  0  0  0  0  0  0  0
  -22.4460   -7.3990   22.3400 C   0  0  0  0  0  0  0  0  0  0  0  0
  -21.8600   -8.1210   23.4020 C   0  0  0  0  0  3  0  0  0  0  0  0
  -21.3880   -7.4390   24.5430 C   0  0  0  0  0  3  0  0  0  0  0  0
  -21.4920   -6.0370   24.6170 C   0  0  0  0  0  0  0  0  0  0  0  0
  -22.0690   -5.3160   23.5570 C   0  0  0  0  0  3  0  0  0  0  0  0
  -22.5420   -5.9960   22.4210 C   0  0  0  0  0  0  0  0  0  0  0  0
  -23.0790   -5.2940   21.3940 F   0  0  0  0  0  0  0  0  0  0  0  0
  -21.0310   -5.3790   25.7060 F   0  0  0  0  0  0  0  0  0  0  0  0
  -25.3870  -14.2700   21.2230 C   0  0  0  0  0  0  0  0  0  0  0  0
  -24.4880  -13.7350   22.0440 N   0  0  0  0  0  0  0  0  0  0  0  0
  -25.2040  -15.3740   20.7110 O   0  0  0  0  0  0  0  0  0  0  0  0
  -24.6490  -12.8400   22.4800 H   0  0  0  0  0  0  0  0  0  0  0  0
  -23.6300  -14.2330   22.2410 H   0  0  0  0  0  0  0  0  0  0  0  0
  -28.3540  -15.3350   20.5750 N   0  0  0  0  0  0  0  0  0  0  0  0
  -27.7280  -16.1300   20.6210 H   0  0  0  0  0  0  0  0  0  0  0  0
  -29.2900  -15.5750   20.2700 H   0  0  0  0  0  0  0  0  0  0  0  0
  2  1  1  0
  3  2  1  0
  4  6  1  0
  4  3  1  0
  5  3  2  0
  7  4  1  0
  7  8  1  0
  9 11  1  0
  9  8  1  0
 10 21  2  0
 11 16  1  0
 12 20  1  0
 12 22  1  0
 13 19  1  0
 13 15  1  0
 14 20  1  0
 15 14  1  0
 16 15  2  0
 17 18  1  0
 17 11  2  0
 18 13  2  0
 19 12  1  0
 20 10  1  0
 22 24  2  0
 23 22  1  0
 25 23  1  0
 26 31  1  0
 27 23  1  0
 28 27  1  0
 29 30  1  0
 29 28  1  0
 30 26  1  0
 31 27  1  0
 31 32  2  0
 33 32  1  0
 34 33  2  0
 35 26  2  0
 35 34  1  0
 36 10  1  0
 36 37  1  0
 36 46  1  0
 37 40  1  0
 38 42  1  0
 38 37  1  0
 39 38  2  0
 42 41  1  0
 44 45  1  0
 44 42  1  0
 44 43  1  0
 46 49  1  1
 46 47  1  0
 48 46  1  0
 50  1  1  0
 51 50  1  0
 52 51  1  0
 52 54  1  0
 53 51  2  0
 55 56  1  0
 55 52  1  0
 56 57  1  0
 57 58  1  0
 58 59  1  0
 60 66  1  0
 62 63  1  0
 62 61  1  0
 64 63  1  0
 64 73  1  0
 64 65  1  0
 66 61  1  0
 66 65  1  0
 67 60  2  0
 68 60  1  0
 68 59  1  0
 69 68  1  0
 70 71  2  0
 71 90  1  0
 72 71  1  0
 72 75  1  0
 73 74  1  0
 73 70  1  0
 74 72  2  0
 75 76  1  0
 76 77  2  0
 78 77  1  0
 79 78  2  0
 80 79  1  0
 80 75  2  0
 81 78  1  0
 81 82  1  0
 82 87  2  0
 82 83  1  0
 83 84  2  0
 84 85  1  0
 85 89  1  0
 86 85  2  0
 87 86  1  0
 88 87  1  0
 90 91  1  0
 91 94  1  0
 91 93  1  0
 92 90  2  0
 95 96  1  0
 95 70  1  0
 97 95  1  0
M  ISO  4   8 101   9 101  60 100  68 100
M  END
>  <TORSDO>  (79) 
F 27

>  <SCORE>  (79) 
-6.889

>  <name>  (79) 
78

>  <ligand_id>  (79) 
78

>  <original_smiles>  (79) 
[H]c1c([H])c([H])c2c(c1[H])C([H])([H])C([H])([H])C([H])([H])C2([H])N([H])C(=O)C1([H])N(C(=O)C([H])(N([H])C(=O)C([H])(N([H])C([H])([H])[H])C([H])([H])[H])C(C([H])([H])[H])(C([H])([H])[H])C([H])([H])[H])C([H])([H])c2c([H])c(OC([H])([H])C([H])([H])N([H])C(=O)C([H])([H])OC([H])([H])C(=O)N([H])C([H])([H])C([H])([H])OC([H])([H])C([H])([H])N([H])C(=O)N3C([H])([H])C([H])([H])C([H])([H])C([H])(n4nc(-c5c([H])c([H])c(Oc6c([H])c([H])c(F)c([H])c6F)c([H])c5[H])c(C(=O)N([H])[H])c4N([H])[H])C3([H])[H])c([H])c([H])c2C1([H])[H]

>  <smiles>  (79) 
[H]c1c([H])c([H])c2c(c1[H])C([H])([H])C([H])([H])C([H])([H])C2([H])N([H])C(=O)C1([H])N(C(=O)C([H])(N([H])C(=O)C([H])(N([H])C([H])([H])[H])C([H])([H])[H])C(C([H])([H])[H])(C([H])([H])[H])C([H])([H])[H])C([H])([H])c2c([H])c(OC([H])([H])C([H])([H])N([H])C(=O)C([H])([H])OC([H])([H])C(=O)N([H])C([H])([H])C([H])([H])OC([H])([H])C([H])([H])N([H])C(=O)N3C([H])([H])C([H])([H])C([H])([H])C([H])(n4nc(-c5c([H])c([H])c(Oc6c([H])c([H])c(F)c([H])c6F)c([H])c5[H])c(C(=O)N([H])[H])c4N([H])[H])C3([H])[H])c([H])c([H])c2C1([H])[H]

$$$$
79:0:0
     RDKit          3D

 91 99  0  0  1  0  0  0  0  0999 V2000
  -29.2090  -19.8840   19.1690 C   0  0  0  0  0  3  0  0  0  0  0  0
  -29.7350  -19.8910   21.4570 C   0  0  0  0  0  3  0  0  0  0  0  0
  -28.8870  -21.3110   19.2200 C   0  0  0  0  0  3  0  0  0  0  0  0
  -29.4350  -21.3190   21.5040 C   0  0  0  0  0  3  0  0  0  0  0  0
  -29.6580  -19.0740   20.2780 C   0  0  0  0  0  0  0  0  0  0  0  0
  -29.0130  -22.1360   20.3920 C   0  0  0  0  0  0  0  0  0  0  0  0
  -30.6460  -15.0770   20.2520 C   0  0  0  0  0  0  0  0  0  0  0  0
  -30.4770  -12.7200   19.3410 C   0  0  0  0  0  2  0  0  0  0  0  0
  -29.5550  -12.6730   18.1020 C   0  0  0  0  0  2  0  0  0  0  0  0
  -28.0960  -12.4590   18.5360 C   0  0  0  0  0  2  0  0  0  0  0  0
  -27.6830  -13.3900   19.7060 C   0  0  0  0  0  3  0  0  0  0  0  0
  -28.7360  -13.4340   20.8340 C   0  0  0  0  0  2  0  0  0  0  0  0
  -30.0080  -13.8340   20.2220 N   0  0  0  0  0  0  0  0  0  0  0  0
  -31.8520  -15.0470   19.9830 O   0  0  0  0  0  0  0  0  0  0  0  0
  -30.3890  -17.6470   20.1030 C   0  0  0  0  0  0  0  0  0  0  0  0
  -29.9410  -16.3210   20.3890 N   0  0  0  0  0  0  0  0  0  0  0  0
  -31.5150  -17.7910   19.6190 O   0  0  0  0  0  0  0  0  0  0  0  0
  -28.9810  -16.2530   20.6820 H   0  0  0  0  0  0  0  0  0  0  0  0
  -25.2960  -13.9470   20.4360 C   0  0  0  0  0  0  0  0  0  0  0  0
  -24.2380  -13.1640   20.8080 C   0  0  0  0  0  0  0  0  0  0  0  0
  -24.7170  -11.8180   20.7870 C   0  0  0  0  0  0  0  0  0  0  0  0
  -26.3490  -13.0780   20.2050 N   0  0  0  0  0  0  0  0  0  0  0  0
  -26.0100  -11.7930   20.4840 N   0  0  0  0  0  0  0  0  0  0  0  0
  -24.0010  -10.5490   20.9820 C   0  0  0  0  0  0  0  0  0  0  0  0
  -24.4330   -9.5930   21.9260 C   0  0  0  0  0  3  0  0  0  0  0  0
  -23.7150   -8.3920   22.1090 C   0  0  0  0  0  3  0  0  0  0  0  0
  -22.5500   -8.1370   21.3450 C   0  0  0  0  0  0  0  0  0  0  0  0
  -22.1380   -9.0820   20.3890 C   0  0  0  0  0  3  0  0  0  0  0  0
  -22.8560  -10.2750   20.2060 C   0  0  0  0  0  3  0  0  0  0  0  0
  -21.8040   -6.9870   21.4360 O   0  0  0  0  0  0  0  0  0  0  0  0
  -21.7410   -6.2600   22.5980 C   0  0  0  0  0  0  0  0  0  0  0  0
  -21.2500   -6.8170   23.7990 C   0  0  0  0  0  3  0  0  0  0  0  0
  -21.1380   -6.0140   24.9520 C   0  0  0  0  0  3  0  0  0  0  0  0
  -21.5050   -4.6570   24.9050 C   0  0  0  0  0  0  0  0  0  0  0  0
  -21.9880   -4.0980   23.7080 C   0  0  0  0  0  3  0  0  0  0  0  0
  -22.1020   -4.8980   22.5570 C   0  0  0  0  0  0  0  0  0  0  0  0
  -22.5480   -4.3510   21.4010 F   0  0  0  0  0  0  0  0  0  0  0  0
  -21.3890   -3.8830   26.0100 F   0  0  0  0  0  0  0  0  0  0  0  0
  -22.8370  -13.6300   21.0680 C   0  0  0  0  0  0  0  0  0  0  0  0
  -22.1120  -12.9360   21.9370 N   0  0  0  0  0  0  0  0  0  0  0  0
  -22.3940  -14.6460   20.5350 O   0  0  0  0  0  0  0  0  0  0  0  0
  -22.4840  -12.1130   22.3880 H   0  0  0  0  0  0  0  0  0  0  0  0
  -21.1710  -13.2320   22.1550 H   0  0  0  0  0  0  0  0  0  0  0  0
  -25.4490  -15.3180   20.2470 N   0  0  0  0  0  0  0  0  0  0  0  0
  -24.6720  -15.9640   20.3370 H   0  0  0  0  0  0  0  0  0  0  0  0
  -26.2840  -15.7550   19.8800 H   0  0  0  0  0  0  0  0  0  0  0  0
  -28.1750  -24.7050   19.7110 C   0  0  0  0  0  0  0  0  0  0  0  0
  -28.8390  -23.6670   20.5110 N   0  0  0  0  0  0  0  0  0  0  0  0
  -27.5600  -24.3960   18.6890 O   0  0  0  0  0  0  0  0  0  0  0  0
  -29.2400  -24.0620   21.3510 H   0  0  0  0  0  0  0  0  0  0  0  0
  -28.2610  -26.1970   20.1820 O   0  0  0  0  0  0  0  0  0  0  0  0
  -24.6970  -31.8960   23.2250 C   0  0  0  0  0  0  0  0  0  0  0  0
  -27.2370  -27.2220   20.0660 C   0  0  0  0  0  0  0  0  0  0  0  0
  -23.4810  -30.5290   21.5760 C   0  0  0  0  0  3  0  0  0  0  0  0
  -24.9130  -28.9930   20.0970 C   0  0  0  0  0  0  0  0  0  0  0  0
  -26.0360  -30.7910   21.3930 C   0  0  0  0  0  2  0  0  0  0  0  0
  -26.1010  -29.4140   20.7060 C   0  0  0  0  0  0  0  0  0  0  0  0
  -27.2590  -28.5440   20.6800 C   0  0  0  0  0  3  0  0  0  0  0  0
  -26.0160  -26.9180   19.4180 C   0  0  0  0  0  3  0  0  0  0  0  0
  -24.8860  -27.7590   19.4380 C   0  0  0  0  0  3  0  0  0  0  0  0
  -23.6860  -29.8850   20.1800 C   0  0  0  0  0  2  0  0  0  0  0  0
  -24.7580  -31.0930   22.1180 N   0  0  0  0  0  0  0  0  0  0  0  0
  -23.6160  -32.1700   23.7700 O   0  0  0  0  0  0  0  0  0  0  0  0
  -22.8160  -29.5000   22.5260 C   0  0  0  0  0  0  0  0  0  0  0  0
  -21.4900  -29.3160   22.4020 N   0  0  0  0  0  0  0  0  0  0  0  0
  -23.4970  -28.8700   23.3390 O   0  0  0  0  0  0  0  0  0  0  0  0
  -20.9970  -29.8750   21.7210 H   0  0  0  0  0  0  0  0  0  0  0  0
  -18.1250  -28.0620   22.8910 C   0  0  0  0  0  0  0  0  0  0  0  0
  -20.6800  -28.3630   23.1660 C   0  0  0  0  0  3  0  0  0  0  0  0
  -20.8040  -26.9350   22.5850 C   0  0  0  0  0  2  0  0  0  0  0  0
  -19.7090  -26.6020   21.5650 C   0  0  0  0  0  2  0  0  0  0  0  0
  -18.3240  -26.7210   22.2050 C   0  0  0  0  0  2  0  0  0  0  0  0
  -19.2310  -28.8410   23.3270 C   0  0  0  0  0  0  0  0  0  0  0  0
  -18.9890  -30.0950   23.9300 C   0  0  0  0  0  3  0  0  0  0  0  0
  -17.6750  -30.5710   24.0990 C   0  0  0  0  0  3  0  0  0  0  0  0
  -16.5860  -29.7910   23.6780 C   0  0  0  0  0  3  0  0  0  0  0  0
  -16.8110  -28.5380   23.0800 C   0  0  0  0  0  3  0  0  0  0  0  0
  -25.9810  -32.5240   23.8460 C   0  0  0  0  0  3  0  0  0  0  0  0
  -26.4940  -31.7500   25.1230 C   0  0  1  0  0  0  0  0  0  0  0  0
  -25.4010  -31.5180   26.1930 C   0  0  0  0  0  1  0  0  0  0  0  0
  -27.0690  -30.3680   24.7360 C   0  0  0  0  0  1  0  0  0  0  0  0
  -27.6500  -32.5390   25.7810 C   0  0  0  0  0  1  0  0  0  0  0  0
  -25.6750  -33.9230   24.1870 N   0  0  0  0  0  0  0  0  0  0  0  0
  -25.9900  -34.9820   23.4290 C   0  0  0  0  0  0  0  0  0  0  0  0
  -26.6350  -34.8850   22.3820 O   0  0  0  0  0  0  0  0  0  0  0  0
  -25.1000  -34.0710   25.0040 H   0  0  0  0  0  0  0  0  0  0  0  0
  -24.2550  -36.7800   23.1270 C   0  0  0  0  0  1  0  0  0  0  0  0
  -25.5130  -36.3680   23.9070 C   0  0  0  0  0  3  0  0  0  0  0  0
  -27.6640  -37.2500   24.7010 C   0  0  0  0  0  1  0  0  0  0  0  0
  -26.5440  -37.4230   23.7810 N   0  0  0  0  0  0  0  0  0  0  0  0
  -26.1390  -38.3410   23.9450 H   0  0  0  0  0  0  0  0  0  0  0  0
  1  3  2  0
  1  5  1  0
  2  4  1  0
  3  6  1  0
  5  2  2  0
  6 48  1  0
  6  4  2  0
  7 16  1  0
  8 13  1  0
  9 10  1  0
  9  8  1  0
 11 10  1  0
 11 22  1  0
 11 12  1  0
 13  7  1  0
 13 12  1  0
 14  7  2  0
 15  5  1  0
 15 16  1  0
 16 18  1  0
 17 15  2  0
 19 20  2  0
 20 39  1  0
 21 20  1  0
 21 24  1  0
 22 19  1  0
 22 23  1  0
 23 21  2  0
 24 25  1  0
 25 26  2  0
 27 30  1  0
 27 26  1  0
 28 27  2  0
 29 28  1  0
 29 24  2  0
 30 31  1  0
 31 32  1  0
 32 33  2  0
 34 33  1  0
 34 38  1  0
 35 34  2  0
 36 31  2  0
 36 35  1  0
 37 36  1  0
 39 40  1  0
 40 43  1  0
 40 42  1  0
 41 39  2  0
 44 45  1  0
 44 19  1  0
 46 44  1  0
 47 51  1  0
 47 48  1  0
 48 50  1  0
 49 47  2  0
 52 63  2  0
 53 51  1  0
 53 58  1  0
 54 62  1  0
 54 64  1  0
 55 61  1  0
 55 57  1  0
 56 62  1  0
 57 56  1  0
 58 57  2  0
 59 60  1  0
 59 53  2  0
 60 55  2  0
 61 54  1  0
 62 52  1  0
 64 66  2  0
 65 64  1  0
 67 65  1  0
 68 77  2  0
 68 73  1  0
 69 65  1  0
 69 73  1  0
 70 69  1  0
 71 72  1  0
 71 70  1  0
 72 68  1  0
 73 74  2  0
 74 75  1  0
 76 75  2  0
 77 76  1  0
 78 52  1  0
 78 83  1  0
 78 79  1  0
 79 82  1  1
 79 80  1  0
 81 79  1  0
 83 86  1  0
 84 88  1  0
 84 83  1  0
 85 84  2  0
 88 87  1  0
 90 88  1  0
 90 91  1  0
 90 89  1  0
M  ISO  4   7 100  16 100  47 101  51 101
M  END
>  <TORSDO>  (80) 
F 17

>  <SCORE>  (80) 
-14.913

>  <name>  (80) 
79

>  <ligand_id>  (80) 
79

>  <original_smiles>  (80) 
[H]c1c([H])c([H])c2c(c1[H])C([H])([H])C([H])([H])C([H])([H])C2([H])N([H])C(=O)C1([H])N(C(=O)C([H])(N([H])C(=O)C([H])(N([H])C([H])([H])[H])C([H])([H])[H])C(C([H])([H])[H])(C([H])([H])[H])C([H])([H])[H])C([H])([H])c2c([H])c(OC(=O)N([H])c3c([H])c([H])c(C(=O)N([H])C(=O)N4C([H])([H])C([H])([H])C([H])([H])C([H])(n5nc(-c6c([H])c([H])c(Oc7c([H])c([H])c(F)c([H])c7F)c([H])c6[H])c(C(=O)N([H])[H])c5N([H])[H])C4([H])[H])c([H])c3[H])c([H])c([H])c2C1([H])[H]

>  <smiles>  (80) 
[H]c1c([H])c([H])c2c(c1[H])C([H])([H])C([H])([H])C([H])([H])C2([H])N([H])C(=O)C1([H])N(C(=O)C([H])(N([H])C(=O)C([H])(N([H])C([H])([H])[H])C([H])([H])[H])C(C([H])([H])[H])(C([H])([H])[H])C([H])([H])[H])C([H])([H])c2c([H])c(OC(=O)N([H])c3c([H])c([H])c(C(=O)N([H])C(=O)N4C([H])([H])C([H])([H])C([H])([H])C([H])(n5nc(-c6c([H])c([H])c(Oc7c([H])c([H])c(F)c([H])c7F)c([H])c6[H])c(C(=O)N([H])[H])c5N([H])[H])C4([H])[H])c([H])c3[H])c([H])c([H])c2C1([H])[H]

$$$$
80:0:0
     RDKit          3D

 94102  0  0  1  0  0  0  0  0999 V2000
  -30.1190  -22.2810   20.0160 C   0  0  0  0  0  3  0  0  0  0  0  0
  -27.7330  -22.5200   20.4650 C   0  0  0  0  0  3  0  0  0  0  0  0
  -29.9770  -20.8760   20.0400 C   0  0  0  0  0  3  0  0  0  0  0  0
  -27.5890  -21.1220   20.4750 C   0  0  0  0  0  3  0  0  0  0  0  0
  -29.0020  -23.1120   20.2500 C   0  0  0  0  0  0  0  0  0  0  0  0
  -28.7100  -20.3020   20.2740 C   0  0  0  0  0  0  0  0  0  0  0  0
  -28.2660  -25.4380   20.7380 C   0  0  0  0  0  0  0  0  0  0  0  0
  -29.1630  -24.5240   20.2080 N   0  0  0  0  0  0  0  0  0  0  0  0
  -27.4990  -25.2310   21.6840 O   0  0  0  0  0  0  0  0  0  0  0  0
  -29.8480  -24.9070   19.5700 H   0  0  0  0  0  0  0  0  0  0  0  0
  -28.2960  -26.5730   20.0120 O   0  0  0  0  0  0  0  0  0  0  0  0
  -24.5250  -31.7120   23.2010 C   0  0  0  0  0  0  0  0  0  0  0  0
  -27.1610  -27.3470   20.0370 C   0  0  0  0  0  0  0  0  0  0  0  0
  -23.3200  -30.3560   21.5180 C   0  0  0  0  0  3  0  0  0  0  0  0
  -24.7750  -28.8470   20.0680 C   0  0  0  0  0  0  0  0  0  0  0  0
  -25.8470  -30.7100   21.3440 C   0  0  0  0  0  2  0  0  0  0  0  0
  -25.9310  -29.3560   20.6750 C   0  0  0  0  0  0  0  0  0  0  0  0
  -27.1330  -28.6150   20.6570 C   0  0  0  0  0  3  0  0  0  0  0  0
  -25.9940  -26.8500   19.4190 C   0  0  0  0  0  3  0  0  0  0  0  0
  -24.7990  -27.5910   19.4360 C   0  0  0  0  0  3  0  0  0  0  0  0
  -23.5340  -29.7060   20.1250 C   0  0  0  0  0  2  0  0  0  0  0  0
  -24.5820  -30.9380   22.0810 N   0  0  0  0  0  0  0  0  0  0  0  0
  -23.4420  -31.9800   23.7400 O   0  0  0  0  0  0  0  0  0  0  0  0
  -22.6550  -29.3180   22.4500 C   0  0  0  0  0  0  0  0  0  0  0  0
  -21.3340  -29.1340   22.2960 N   0  0  0  0  0  0  0  0  0  0  0  0
  -23.3260  -28.6810   23.2670 O   0  0  0  0  0  0  0  0  0  0  0  0
  -20.8550  -29.7010   21.6100 H   0  0  0  0  0  0  0  0  0  0  0  0
  -17.9620  -27.8950   22.6760 C   0  0  0  0  0  0  0  0  0  0  0  0
  -20.5050  -28.1840   23.0360 C   0  0  0  0  0  3  0  0  0  0  0  0
  -20.6460  -26.7560   22.4590 C   0  0  0  0  0  2  0  0  0  0  0  0
  -19.5830  -26.4230   21.4080 C   0  0  0  0  0  2  0  0  0  0  0  0
  -18.1790  -26.5480   22.0040 C   0  0  0  0  0  2  0  0  0  0  0  0
  -19.0550  -28.6690   23.1460 C   0  0  0  0  0  0  0  0  0  0  0  0
  -18.8010  -29.9290   23.7300 C   0  0  0  0  0  3  0  0  0  0  0  0
  -17.4850  -30.4150   23.8490 C   0  0  0  0  0  3  0  0  0  0  0  0
  -16.4050  -29.6370   23.3980 C   0  0  0  0  0  3  0  0  0  0  0  0
  -16.6440  -28.3780   22.8170 C   0  0  0  0  0  3  0  0  0  0  0  0
  -25.8130  -32.3180   23.8420 C   0  0  0  0  0  3  0  0  0  0  0  0
  -25.5160  -33.7130   24.1920 N   0  0  0  0  0  0  0  0  0  0  0  0
  -25.8760  -34.7740   23.4570 C   0  0  0  0  0  0  0  0  0  0  0  0
  -26.5630  -34.6800   22.4350 O   0  0  0  0  0  0  0  0  0  0  0  0
  -24.9110  -33.8620   24.9850 H   0  0  0  0  0  0  0  0  0  0  0  0
  -24.1690  -36.5870   23.1090 C   0  0  0  0  0  1  0  0  0  0  0  0
  -25.3970  -36.1600   23.9280 C   0  0  0  0  0  3  0  0  0  0  0  0
  -27.5330  -37.0070   24.7910 C   0  0  0  0  0  1  0  0  0  0  0  0
  -26.4400  -37.2040   23.8430 N   0  0  0  0  0  0  0  0  0  0  0  0
  -26.0410  -38.1250   24.0040 H   0  0  0  0  0  0  0  0  0  0  0  0
  -26.3130  -31.5180   25.1060 C   0  0  1  0  0  0  0  0  0  0  0  0
  -25.2080  -31.2650   26.1580 C   0  0  0  0  0  1  0  0  0  0  0  0
  -26.8900  -30.1460   24.6870 C   0  0  0  0  0  1  0  0  0  0  0  0
  -27.4620  -32.2910   25.7940 C   0  0  0  0  0  1  0  0  0  0  0  0
  -28.5090  -18.5550   20.3590 S   0  0  0  0  0  0  0  0  0  0  0  0
  -29.4090  -18.1100   21.8740 C   0  0  0  0  0  2  0  0  0  0  0  0
  -30.4590  -17.0230   21.6250 C   0  0  0  0  0  2  0  0  0  0  0  0
  -31.0390  -17.1750   20.3320 O   0  0  0  0  0  0  0  0  0  0  0  0
  -32.2500  -16.4560   20.1080 C   0  0  0  0  0  2  0  0  0  0  0  0
  -32.3200  -15.0860   20.8120 C   0  0  0  0  0  2  0  0  0  0  0  0
  -31.2690  -14.2120   20.4170 O   0  0  0  0  0  0  0  0  0  0  0  0
  -31.4300  -13.4280   19.3470 C   0  0  0  0  0  0  0  0  0  0  0  0
  -30.7190  -11.2040   18.5020 C   0  0  0  0  0  2  0  0  0  0  0  0
  -29.6560  -11.2750   17.4000 C   0  0  0  0  0  2  0  0  0  0  0  0
  -28.2510  -11.3190   18.0230 C   0  0  0  0  0  2  0  0  0  0  0  0
  -28.1150  -12.4110   19.1200 C   0  0  0  0  0  3  0  0  0  0  0  0
  -29.2750  -12.3250   20.1390 C   0  0  0  0  0  2  0  0  0  0  0  0
  -30.5370  -12.3550   19.3850 N   0  0  0  0  0  0  0  0  0  0  0  0
  -32.3380  -13.5760   18.5270 O   0  0  0  0  0  0  0  0  0  0  0  0
  -25.9390  -13.3510   20.1280 C   0  0  0  0  0  0  0  0  0  0  0  0
  -24.8310  -12.7330   20.6420 C   0  0  0  0  0  0  0  0  0  0  0  0
  -25.0910  -11.3320   20.5710 C   0  0  0  0  0  0  0  0  0  0  0  0
  -26.8130  -12.3330   19.7780 N   0  0  0  0  0  0  0  0  0  0  0  0
  -26.3100  -11.1120   20.1000 N   0  0  0  0  0  0  0  0  0  0  0  0
  -24.2260  -10.1850   20.8730 C   0  0  0  0  0  0  0  0  0  0  0  0
  -24.6030   -9.2070   21.8190 C   0  0  0  0  0  3  0  0  0  0  0  0
  -23.7470   -8.1210   22.1060 C   0  0  0  0  0  3  0  0  0  0  0  0
  -22.5000   -8.0080   21.4470 C   0  0  0  0  0  0  0  0  0  0  0  0
  -22.1390   -8.9730   20.4890 C   0  0  0  0  0  3  0  0  0  0  0  0
  -22.9940  -10.0510   20.2020 C   0  0  0  0  0  3  0  0  0  0  0  0
  -21.6150   -6.9750   21.6440 O   0  0  0  0  0  0  0  0  0  0  0  0
  -21.5270   -6.3220   22.8470 C   0  0  0  0  0  0  0  0  0  0  0  0
  -21.2150   -7.0050   24.0440 C   0  0  0  0  0  3  0  0  0  0  0  0
  -21.0650   -6.2850   25.2450 C   0  0  0  0  0  3  0  0  0  0  0  0
  -21.2150   -4.8840   25.2510 C   0  0  0  0  0  0  0  0  0  0  0  0
  -21.5200   -4.2030   24.0590 C   0  0  0  0  0  3  0  0  0  0  0  0
  -21.6710   -4.9210   22.8600 C   0  0  0  0  0  0  0  0  0  0  0  0
  -21.9430   -4.2590   21.7090 F   0  0  0  0  0  0  0  0  0  0  0  0
  -21.0630   -4.1880   26.4020 F   0  0  0  0  0  0  0  0  0  0  0  0
  -23.5640  -13.4050   21.0930 C   0  0  0  0  0  0  0  0  0  0  0  0
  -22.8760  -12.8250   22.0700 N   0  0  0  0  0  0  0  0  0  0  0  0
  -23.2050  -14.4760   20.6110 O   0  0  0  0  0  0  0  0  0  0  0  0
  -23.1790  -11.9570   22.4850 H   0  0  0  0  0  0  0  0  0  0  0  0
  -22.0320  -13.2600   22.4120 H   0  0  0  0  0  0  0  0  0  0  0  0
  -26.2680  -14.6850   19.9140 N   0  0  0  0  0  0  0  0  0  0  0  0
  -25.6270  -15.4420   20.1230 H   0  0  0  0  0  0  0  0  0  0  0  0
  -27.1440  -15.0030   19.5150 H   0  0  0  0  0  0  0  0  0  0  0  0
  1  3  2  0
  1  5  1  0
  2  4  1  0
  3  6  1  0
  5  2  2  0
  6 52  1  0
  6  4  2  0
  7  9  2  0
  8  5  1  0
  8  7  1  0
 10  8  1  0
 11 13  1  0
 11  7  1  0
 12 23  2  0
 13 18  1  0
 14 22  1  0
 14 24  1  0
 15 21  1  0
 15 17  1  0
 16 22  1  0
 17 16  1  0
 18 17  2  0
 19 20  1  0
 19 13  2  0
 20 15  2  0
 21 14  1  0
 22 12  1  0
 24 26  2  0
 25 24  1  0
 27 25  1  0
 28 37  2  0
 28 33  1  0
 29 25  1  0
 29 33  1  0
 30 29  1  0
 31 32  1  0
 31 30  1  0
 32 28  1  0
 33 34  2  0
 34 35  1  0
 36 35  2  0
 37 36  1  0
 38 12  1  0
 38 39  1  0
 38 48  1  0
 39 42  1  0
 40 44  1  0
 40 39  1  0
 41 40  2  0
 44 43  1  0
 46 44  1  0
 46 47  1  0
 46 45  1  0
 48 51  1  1
 48 49  1  0
 50 48  1  0
 52 53  1  0
 54 53  1  0
 55 54  1  0
 56 55  1  0
 56 57  1  0
 58 57  1  0
 59 65  1  0
 59 58  1  0
 60 65  1  0
 61 62  1  0
 61 60  1  0
 63 62  1  0
 63 70  1  0
 63 64  1  0
 65 64  1  0
 66 59  2  0
 67 68  2  0
 68 87  1  0
 69 68  1  0
 69 72  1  0
 70 71  1  0
 70 67  1  0
 71 69  2  0
 72 73  1  0
 73 74  2  0
 75 78  1  0
 75 74  1  0
 76 75  2  0
 77 76  1  0
 77 72  2  0
 78 79  1  0
 79 84  2  0
 79 80  1  0
 80 81  2  0
 81 82  1  0
 82 86  1  0
 83 82  2  0
 84 83  1  0
 85 84  1  0
 87 88  1  0
 88 91  1  0
 88 90  1  0
 89 87  2  0
 92 93  1  0
 92 67  1  0
 94 92  1  0
M  ISO  4   7 101  11 101  58 100  59 100
M  END
>  <TORSDO>  (81) 
F 24

>  <SCORE>  (81) 
-9.833

>  <name>  (81) 
80

>  <ligand_id>  (81) 
80

>  <original_smiles>  (81) 
[H]c1c([H])c([H])c2c(c1[H])C([H])([H])C([H])([H])C([H])([H])C2([H])N([H])C(=O)C1([H])N(C(=O)C([H])(N([H])C(=O)C([H])(N([H])C([H])([H])[H])C([H])([H])[H])C(C([H])([H])[H])(C([H])([H])[H])C([H])([H])[H])C([H])([H])c2c([H])c(OC(=O)N([H])c3c([H])c([H])c(SC([H])([H])C([H])([H])OC([H])([H])C([H])([H])OC(=O)N4C([H])([H])C([H])([H])C([H])([H])C([H])(n5nc(-c6c([H])c([H])c(Oc7c([H])c([H])c(F)c([H])c7F)c([H])c6[H])c(C(=O)N([H])[H])c5N([H])[H])C4([H])[H])c([H])c3[H])c([H])c([H])c2C1([H])[H]

>  <smiles>  (81) 
[H]c1c([H])c([H])c2c(c1[H])C([H])([H])C([H])([H])C([H])([H])C2([H])N([H])C(=O)C1([H])N(C(=O)C([H])(N([H])C(=O)C([H])(N([H])C([H])([H])[H])C([H])([H])[H])C(C([H])([H])[H])(C([H])([H])[H])C([H])([H])[H])C([H])([H])c2c([H])c(OC(=O)N([H])c3c([H])c([H])c(SC([H])([H])C([H])([H])OC([H])([H])C([H])([H])OC(=O)N4C([H])([H])C([H])([H])C([H])([H])C([H])(n5nc(-c6c([H])c([H])c(Oc7c([H])c([H])c(F)c([H])c7F)c([H])c6[H])c(C(=O)N([H])[H])c5N([H])[H])C4([H])[H])c([H])c3[H])c([H])c([H])c2C1([H])[H]

$$$$
81:0:0
     RDKit          3D

116124  0  0  1  0  0  0  0  0999 V2000
  -33.9350  -18.0220   13.6100 C   0  0  0  0  0  2  0  0  0  0  0  0
  -33.3880  -19.2130   12.8170 C   0  0  0  0  0  0  0  0  0  0  0  0
  -34.2820  -20.0630   12.2960 N   0  0  0  0  0  0  0  0  0  0  0  0
  -32.1720  -19.3540   12.6730 O   0  0  0  0  0  0  0  0  0  0  0  0
  -35.2630  -19.8680   12.4400 H   0  0  0  0  0  0  0  0  0  0  0  0
  -33.9520  -21.2640   11.5300 C   0  0  0  0  0  2  0  0  0  0  0  0
  -35.2040  -21.9120   10.9180 C   0  0  0  0  0  2  0  0  0  0  0  0
  -35.9350  -22.5820   11.9340 O   0  0  0  0  0  0  0  0  0  0  0  0
  -35.1330  -23.4130   12.7580 C   0  0  0  0  0  2  0  0  0  0  0  0
  -35.5790  -24.8660   12.5540 C   0  0  0  0  0  2  0  0  0  0  0  0
  -35.6650  -25.5160   13.8160 O   0  0  0  0  0  0  0  0  0  0  0  0
  -34.4180  -26.0480   14.2390 C   0  0  0  0  0  2  0  0  0  0  0  0
  -34.4400  -26.2600   15.7590 C   0  0  0  0  0  2  0  0  0  0  0  0
  -34.3050  -27.6400   16.0890 O   0  0  0  0  0  0  0  0  0  0  0  0
  -34.0350  -27.8360   17.4750 C   0  0  0  0  0  2  0  0  0  0  0  0
  -34.7330  -26.7780   18.3440 C   0  0  0  0  0  2  0  0  0  0  0  0
  -34.2330  -26.7390   19.6820 O   0  0  0  0  0  0  0  0  0  0  0  0
  -33.0310  -27.4970   19.8100 C   0  0  0  0  0  2  0  0  0  0  0  0
  -31.8370  -26.6150   20.2090 C   0  0  0  0  0  2  0  0  0  0  0  0
  -30.9990  -27.2690   21.3340 C   0  0  0  0  0  2  0  0  0  0  0  0
  -29.3330  -25.6810   22.2620 C   0  0  0  0  0  0  0  0  0  0  0  0
  -27.9670  -23.9270   21.1810 C   0  0  0  0  0  2  0  0  0  0  0  0
  -28.3030  -22.5340   21.7530 C   0  0  0  0  0  2  0  0  0  0  0  0
  -29.5080  -21.9080   21.0210 C   0  0  0  0  0  2  0  0  0  0  0  0
  -30.7030  -22.8870   20.8980 C   0  0  0  0  0  3  0  0  0  0  0  0
  -30.2190  -24.2500   20.3680 C   0  0  0  0  0  2  0  0  0  0  0  0
  -29.1710  -24.7680   21.2650 N   0  0  0  0  0  0  0  0  0  0  0  0
  -28.4870  -25.8820   23.1360 O   0  0  0  0  0  0  0  0  0  0  0  0
  -30.5200  -26.3070   22.3330 N   0  0  0  0  0  0  0  0  0  0  0  0
  -30.6960  -26.6270   23.2720 H   0  0  0  0  0  0  0  0  0  0  0  0
  -32.0110  -22.5270   18.7040 C   0  0  0  0  0  0  0  0  0  0  0  0
  -33.1650  -21.8440   18.4320 C   0  0  0  0  0  0  0  0  0  0  0  0
  -33.5790  -21.2600   19.6670 C   0  0  0  0  0  0  0  0  0  0  0  0
  -31.7660  -22.3370   20.0580 N   0  0  0  0  0  0  0  0  0  0  0  0
  -32.6970  -21.5260   20.6230 N   0  0  0  0  0  0  0  0  0  0  0  0
  -34.7950  -20.5140   20.0120 C   0  0  0  0  0  0  0  0  0  0  0  0
  -35.9250  -21.1540   20.5670 C   0  0  0  0  0  3  0  0  0  0  0  0
  -37.0770  -20.4090   20.9040 C   0  0  0  0  0  3  0  0  0  0  0  0
  -37.1020  -19.0090   20.6940 C   0  0  0  0  0  0  0  0  0  0  0  0
  -35.9820  -18.3820   20.1200 C   0  0  0  0  0  3  0  0  0  0  0  0
  -34.8400  -19.1250   19.7790 C   0  0  0  0  0  3  0  0  0  0  0  0
  -38.1820  -18.2090   20.9710 O   0  0  0  0  0  0  0  0  0  0  0  0
  -39.0530  -17.8100   19.9890 C   0  0  0  0  0  0  0  0  0  0  0  0
  -39.9810  -18.7030   19.4080 C   0  0  0  0  0  3  0  0  0  0  0  0
  -40.9040  -18.2330   18.4520 C   0  0  0  0  0  3  0  0  0  0  0  0
  -40.9090  -16.8740   18.0850 C   0  0  0  0  0  0  0  0  0  0  0  0
  -39.9890  -15.9840   18.6670 C   0  0  0  0  0  3  0  0  0  0  0  0
  -39.0670  -16.4520   19.6190 C   0  0  0  0  0  0  0  0  0  0  0  0
  -38.1970  -15.5850   20.1910 F   0  0  0  0  0  0  0  0  0  0  0  0
  -41.8020  -16.4220   17.1750 F   0  0  0  0  0  0  0  0  0  0  0  0
  -33.8980  -21.8100   17.1220 C   0  0  0  0  0  0  0  0  0  0  0  0
  -34.1680  -20.6170   16.5990 N   0  0  0  0  0  0  0  0  0  0  0  0
  -34.2060  -22.8470   16.5360 O   0  0  0  0  0  0  0  0  0  0  0  0
  -33.8940  -19.7690   17.0690 H   0  0  0  0  0  0  0  0  0  0  0  0
  -34.6570  -20.5570   15.7190 H   0  0  0  0  0  0  0  0  0  0  0  0
  -31.1630  -23.3030   17.9210 N   0  0  0  0  0  0  0  0  0  0  0  0
  -31.3200  -23.4240   16.9290 H   0  0  0  0  0  0  0  0  0  0  0  0
  -30.2560  -23.6430   18.2180 H   0  0  0  0  0  0  0  0  0  0  0  0
  -33.1210  -17.7320   14.8890 C   0  0  0  0  0  2  0  0  0  0  0  0
  -34.4610  -16.3120   16.4260 C   0  0  0  0  0  0  0  0  0  0  0  0
  -33.5120  -16.4580   15.4940 N   0  0  0  0  0  0  0  0  0  0  0  0
  -35.1750  -17.2400   16.8060 O   0  0  0  0  0  0  0  0  0  0  0  0
  -33.0170  -15.6260   15.2020 H   0  0  0  0  0  0  0  0  0  0  0  0
  -34.4180  -13.8070   16.1610 C   0  0  0  0  0  3  0  0  0  0  0  0
  -35.1300  -14.7240   18.3010 C   0  0  0  0  0  3  0  0  0  0  0  0
  -34.6780  -12.5040   16.6310 C   0  0  0  0  0  3  0  0  0  0  0  0
  -35.3890  -13.4200   18.7720 C   0  0  0  0  0  3  0  0  0  0  0  0
  -34.6500  -14.9280   16.9860 C   0  0  0  0  0  0  0  0  0  0  0  0
  -35.1890  -12.3000   17.9310 C   0  0  0  0  0  0  0  0  0  0  0  0
  -35.5040  -10.9050   18.4010 C   0  0  0  0  0  0  0  0  0  0  0  0
  -35.2680   -9.9390   17.5070 N   0  0  0  0  0  0  0  0  0  0  0  0
  -35.8680  -10.6880   19.5580 O   0  0  0  0  0  0  0  0  0  0  0  0
  -34.9250  -10.2400   16.6070 H   0  0  0  0  0  0  0  0  0  0  0  0
  -35.3730   -8.4980   17.7280 C   0  0  0  0  0  2  0  0  0  0  0  0
  -36.8190   -7.9570   17.6580 C   0  0  0  0  0  2  0  0  0  0  0  0
  -37.0820   -7.1160   16.5360 O   0  0  0  0  0  0  0  0  0  0  0  0
  -39.0750  -12.5410   12.4260 C   0  0  0  0  0  0  0  0  0  0  0  0
  -36.9960   -7.6890   15.2930 C   0  0  0  0  0  0  0  0  0  0  0  0
  -37.2360  -11.1410   11.5400 C   0  0  0  0  0  3  0  0  0  0  0  0
  -36.8200   -8.9500   12.7770 C   0  0  0  0  0  0  0  0  0  0  0  0
  -38.9870  -10.1520   13.1190 C   0  0  0  0  0  2  0  0  0  0  0  0
  -37.9170   -9.2010   13.6110 C   0  0  0  0  0  0  0  0  0  0  0  0
  -38.0050   -8.5800   14.8730 C   0  0  0  0  0  3  0  0  0  0  0  0
  -35.8860   -7.4590   14.4540 C   0  0  0  0  0  3  0  0  0  0  0  0
  -35.7960   -8.0830   13.1960 C   0  0  0  0  0  3  0  0  0  0  0  0
  -36.8020   -9.6550   11.4400 C   0  0  0  0  0  2  0  0  0  0  0  0
  -38.4540  -11.3290   12.3940 N   0  0  0  0  0  0  0  0  0  0  0  0
  -38.6750  -13.4840   11.7280 O   0  0  0  0  0  0  0  0  0  0  0  0
  -36.0260  -11.9780   12.0120 C   0  0  0  0  0  0  0  0  0  0  0  0
  -35.2870  -12.5550   11.0490 N   0  0  0  0  0  0  0  0  0  0  0  0
  -35.7510  -12.0740   13.2110 O   0  0  0  0  0  0  0  0  0  0  0  0
  -35.5830  -12.4330   10.0910 H   0  0  0  0  0  0  0  0  0  0  0  0
  -33.3520  -15.2900    9.7000 C   0  0  0  0  0  0  0  0  0  0  0  0
  -34.0830  -13.3570   11.2530 C   0  0  0  0  0  3  0  0  0  0  0  0
  -32.8270  -12.6110   10.7470 C   0  0  0  0  0  2  0  0  0  0  0  0
  -32.4630  -12.9540    9.2990 C   0  0  0  0  0  2  0  0  0  0  0  0
  -32.2060  -14.4570    9.1530 C   0  0  0  0  0  2  0  0  0  0  0  0
  -34.2420  -14.7680   10.6760 C   0  0  0  0  0  0  0  0  0  0  0  0
  -35.3130  -15.5700   11.1260 C   0  0  0  0  0  3  0  0  0  0  0  0
  -35.4980  -16.8720   10.6230 C   0  0  0  0  0  3  0  0  0  0  0  0
  -34.6040  -17.3900    9.6710 C   0  0  0  0  0  3  0  0  0  0  0  0
  -33.5330  -16.6010    9.2140 C   0  0  0  0  0  3  0  0  0  0  0  0
  -40.3290  -12.7960   13.3210 C   0  0  0  0  0  3  0  0  0  0  0  0
  -41.6840  -12.3880   12.6230 C   0  0  1  0  0  0  0  0  0  0  0  0
  -42.3750  -11.1670   13.2740 C   0  0  0  0  0  1  0  0  0  0  0  0
  -41.4520  -12.0610   11.1310 C   0  0  0  0  0  1  0  0  0  0  0  0
  -42.6740  -13.5770   12.6670 C   0  0  0  0  0  1  0  0  0  0  0  0
  -40.1400  -12.0450   14.5690 N   0  0  0  0  0  0  0  0  0  0  0  0
  -40.2450  -12.5730   15.7960 C   0  0  0  0  0  0  0  0  0  0  0  0
  -40.5880  -13.7420   15.9960 O   0  0  0  0  0  0  0  0  0  0  0  0
  -39.8070  -11.0960   14.4810 H   0  0  0  0  0  0  0  0  0  0  0  0
  -38.9010  -12.3560   17.9090 C   0  0  0  0  0  1  0  0  0  0  0  0
  -39.9190  -11.6600   16.9930 C   0  0  0  0  0  3  0  0  0  0  0  0
  -41.9030  -10.2200   17.1380 C   0  0  0  0  0  1  0  0  0  0  0  0
  -41.1110  -11.2680   17.7770 N   0  0  0  0  0  0  0  0  0  0  0  0
  -40.8430  -10.9450   18.7020 H   0  0  0  0  0  0  0  0  0  0  0  0
  1 59  1  0
  2  1  1  0
  3  5  1  0
  3  2  1  0
  4  2  2  0
  6  3  1  0
  7  6  1  0
  7  8  1  0
  8  9  1  0
 10  9  1  0
 10 11  1  0
 11 12  1  0
 12 13  1  0
 13 14  1  0
 14 15  1  0
 15 16  1  0
 16 17  1  0
 17 18  1  0
 18 19  1  0
 19 20  1  0
 20 29  1  0
 21 29  1  0
 21 28  2  0
 22 27  1  0
 22 23  1  0
 24 23  1  0
 25 34  1  0
 25 24  1  0
 26 25  1  0
 26 27  1  0
 27 21  1  0
 29 30  1  0
 31 34  1  0
 32 31  2  0
 32 33  1  0
 33 36  1  0
 33 35  2  0
 34 35  1  0
 36 37  1  0
 37 38  2  0
 39 38  1  0
 39 42  1  0
 40 39  2  0
 41 36  2  0
 41 40  1  0
 43 42  1  0
 44 43  2  0
 45 44  1  0
 46 45  2  0
 46 47  1  0
 47 48  2  0
 48 43  1  0
 48 49  1  0
 50 46  1  0
 51 32  1  0
 52 54  1  0
 52 51  1  0
 53 51  2  0
 55 52  1  0
 56 58  1  0
 56 31  1  0
 57 56  1  0
 59 61  1  0
 60 62  2  0
 60 68  1  0
 61 60  1  0
 63 61  1  0
 64 66  2  0
 64 68  1  0
 65 67  1  0
 66 69  1  0
 68 65  2  0
 69 70  1  0
 69 67  2  0
 70 72  2  0
 71 74  1  0
 71 70  1  0
 73 71  1  0
 75 74  1  0
 76 75  1  0
 78 76  1  0
 79 89  1  0
 79 87  1  0
 80 85  2  0
 80 82  1  0
 81 82  1  0
 82 83  2  0
 83 78  1  0
 84 78  2  0
 85 84  1  0
 86 79  1  0
 86 80  1  0
 87 77  1  0
 87 81  1  0
 88 77  2  0
 89 91  2  0
 90 89  1  0
 92 90  1  0
 93 98  1  0
 94 90  1  0
 95 94  1  0
 96 95  1  0
 97 96  1  0
 97 93  1  0
 98 99  2  0
 98 94  1  0
100 99  1  0
101100  2  0
102101  1  0
102 93  2  0
103 77  1  0
103108  1  0
104107  1  6
104105  1  0
104103  1  0
106104  1  0
108109  1  0
109110  2  0
109113  1  0
111108  1  0
113115  1  0
113112  1  0
114115  1  0
115116  1  0
M  ISO  4  21 100  29 100  75 101  76 101
M  END
>  <TORSDO>  (82) 
F 38

>  <SCORE>  (82) 
-2.108

>  <name>  (82) 
81

>  <ligand_id>  (82) 
81

>  <original_smiles>  (82) 
[H]c1c([H])c([H])c2c(c1[H])C([H])([H])C([H])([H])C([H])([H])C2([H])N([H])C(=O)C1([H])N(C(=O)C([H])(N([H])C(=O)C([H])(N([H])C([H])([H])[H])C([H])([H])[H])C(C([H])([H])[H])(C([H])([H])[H])C([H])([H])[H])C([H])([H])c2c([H])c(OC([H])([H])C([H])([H])N([H])C(=O)c3c([H])c([H])c(C(=O)N([H])C([H])([H])C([H])([H])C(=O)N([H])C([H])([H])C([H])([H])OC([H])([H])C([H])([H])OC([H])([H])C([H])([H])OC([H])([H])C([H])([H])OC([H])([H])C([H])([H])C([H])([H])N([H])C(=O)N4C([H])([H])C([H])([H])C([H])([H])C([H])(n5nc(-c6c([H])c([H])c(Oc7c([H])c([H])c(F)c([H])c7F)c([H])c6[H])c(C(=O)N([H])[H])c5N([H])[H])C4([H])[H])c([H])c3[H])c([H])c([H])c2C1([H])[H]

>  <smiles>  (82) 
[H]c1c([H])c([H])c2c(c1[H])C([H])([H])C([H])([H])C([H])([H])C2([H])N([H])C(=O)C1([H])N(C(=O)C([H])(N([H])C(=O)C([H])(N([H])C([H])([H])[H])C([H])([H])[H])C(C([H])([H])[H])(C([H])([H])[H])C([H])([H])[H])C([H])([H])c2c([H])c(OC([H])([H])C([H])([H])N([H])C(=O)c3c([H])c([H])c(C(=O)N([H])C([H])([H])C([H])([H])C(=O)N([H])C([H])([H])C([H])([H])OC([H])([H])C([H])([H])OC([H])([H])C([H])([H])OC([H])([H])C([H])([H])OC([H])([H])C([H])([H])C([H])([H])N([H])C(=O)N4C([H])([H])C([H])([H])C([H])([H])C([H])(n5nc(-c6c([H])c([H])c(Oc7c([H])c([H])c(F)c([H])c7F)c([H])c6[H])c(C(=O)N([H])[H])c5N([H])[H])C4([H])[H])c([H])c3[H])c([H])c([H])c2C1([H])[H]

$$$$
82:0:0
     RDKit          3D

 97105  0  0  1  0  0  0  0  0999 V2000
  -29.2290  -22.8770   21.1520 C   0  0  0  0  0  3  0  0  0  0  0  0
  -29.5030  -24.1110   19.3090 C   0  0  0  0  0  3  0  0  0  0  0  0
  -29.0500  -24.2030   20.5970 C   0  0  0  0  0  0  0  0  0  0  0  0
  -29.7940  -22.0330   20.2140 C   0  0  0  0  0  0  0  0  0  0  0  0
  -29.9260  -22.8090   19.0520 N   0  0  0  0  0  0  0  0  0  0  0  0
  -30.2880  -20.5870   20.2410 C   0  0  0  0  0  0  0  0  0  0  0  0
  -29.5300  -19.6070   20.7800 N   0  0  0  0  0  0  0  0  0  0  0  0
  -31.3360  -20.2900   19.6650 O   0  0  0  0  0  0  0  0  0  0  0  0
  -28.6980  -19.9150   21.2670 H   0  0  0  0  0  0  0  0  0  0  0  0
  -29.5680  -18.1620   20.3920 C   0  0  0  0  0  2  0  0  0  0  0  0
  -30.6260  -17.2170   21.0690 C   0  0  0  0  0  2  0  0  0  0  0  0
  -31.0070  -14.7090   20.5980 C   0  0  0  0  0  0  0  0  0  0  0  0
  -30.7680  -12.4930   19.5080 C   0  0  0  0  0  2  0  0  0  0  0  0
  -29.8730  -12.6450   18.2590 C   0  0  0  0  0  2  0  0  0  0  0  0
  -28.3820  -12.5240   18.6340 C   0  0  0  0  0  2  0  0  0  0  0  0
  -27.9980  -13.4020   19.8560 C   0  0  0  0  0  3  0  0  0  0  0  0
  -29.0090  -13.2180   21.0110 C   0  0  0  0  0  2  0  0  0  0  0  0
  -30.3490  -13.5170   20.4830 N   0  0  0  0  0  0  0  0  0  0  0  0
  -32.1680  -14.8570   20.2060 O   0  0  0  0  0  0  0  0  0  0  0  0
  -30.2600  -15.7690   21.0100 N   0  0  0  0  0  0  0  0  0  0  0  0
  -29.3200  -15.5360   21.2930 H   0  0  0  0  0  0  0  0  0  0  0  0
  -25.5880  -14.0540   20.4670 C   0  0  0  0  0  0  0  0  0  0  0  0
  -24.4940  -13.3050   20.8090 C   0  0  0  0  0  0  0  0  0  0  0  0
  -24.9350  -11.9460   20.8170 C   0  0  0  0  0  0  0  0  0  0  0  0
  -26.6270  -13.1530   20.2890 N   0  0  0  0  0  0  0  0  0  0  0  0
  -26.2350  -11.8810   20.5590 N   0  0  0  0  0  0  0  0  0  0  0  0
  -24.1810  -10.6980   20.9990 C   0  0  0  0  0  0  0  0  0  0  0  0
  -24.5500   -9.7480   21.9760 C   0  0  0  0  0  3  0  0  0  0  0  0
  -23.7980   -8.5660   22.1440 C   0  0  0  0  0  3  0  0  0  0  0  0
  -22.6630   -8.3260   21.3340 C   0  0  0  0  0  0  0  0  0  0  0  0
  -22.3130   -9.2640   20.3470 C   0  0  0  0  0  3  0  0  0  0  0  0
  -23.0650  -10.4380   20.1780 C   0  0  0  0  0  3  0  0  0  0  0  0
  -21.8870   -7.1940   21.4090 O   0  0  0  0  0  0  0  0  0  0  0  0
  -21.7490   -6.4930   22.5800 C   0  0  0  0  0  0  0  0  0  0  0  0
  -21.2420   -7.0930   23.7530 C   0  0  0  0  0  3  0  0  0  0  0  0
  -21.0520   -6.3190   24.9150 C   0  0  0  0  0  3  0  0  0  0  0  0
  -21.3570   -4.9440   24.9030 C   0  0  0  0  0  0  0  0  0  0  0  0
  -21.8570   -4.3430   23.7340 C   0  0  0  0  0  3  0  0  0  0  0  0
  -22.0490   -5.1160   22.5760 C   0  0  0  0  0  0  0  0  0  0  0  0
  -22.5110   -4.5270   21.4450 F   0  0  0  0  0  0  0  0  0  0  0  0
  -21.1670   -4.1970   26.0160 F   0  0  0  0  0  0  0  0  0  0  0  0
  -23.0970  -13.8100   21.0190 C   0  0  0  0  0  0  0  0  0  0  0  0
  -22.3310  -13.1480   21.8810 N   0  0  0  0  0  0  0  0  0  0  0  0
  -22.6900  -14.8250   20.4570 O   0  0  0  0  0  0  0  0  0  0  0  0
  -22.6720  -12.3270   22.3580 H   0  0  0  0  0  0  0  0  0  0  0  0
  -21.3920  -13.4690   22.0670 H   0  0  0  0  0  0  0  0  0  0  0  0
  -25.7830  -15.4190   20.2710 N   0  0  0  0  0  0  0  0  0  0  0  0
  -25.0170  -16.0810   20.3220 H   0  0  0  0  0  0  0  0  0  0  0  0
  -26.6390  -15.8310   19.9250 H   0  0  0  0  0  0  0  0  0  0  0  0
  -28.4490  -25.4770   21.1720 C   0  0  0  0  0  0  0  0  0  0  0  0
  -27.9450  -25.4690   22.2980 O   0  0  0  0  0  0  0  0  0  0  0  0
  -28.4410  -26.6140   20.3500 O   0  0  0  0  0  0  0  0  0  0  0  0
  -24.6070  -31.9750   23.2900 C   0  0  0  0  0  0  0  0  0  0  0  0
  -27.3290  -27.4470   20.3560 C   0  0  0  0  0  0  0  0  0  0  0  0
  -23.4490  -30.5470   21.6380 C   0  0  0  0  0  3  0  0  0  0  0  0
  -24.9450  -28.9950   20.2690 C   0  0  0  0  0  0  0  0  0  0  0  0
  -25.9840  -30.9000   21.5020 C   0  0  0  0  0  2  0  0  0  0  0  0
  -26.0930  -29.5160   20.8830 C   0  0  0  0  0  0  0  0  0  0  0  0
  -27.2920  -28.7520   20.9210 C   0  0  0  0  0  3  0  0  0  0  0  0
  -26.1680  -26.9680   19.7160 C   0  0  0  0  0  3  0  0  0  0  0  0
  -24.9810  -27.7220   19.6780 C   0  0  0  0  0  3  0  0  0  0  0  0
  -23.6970  -29.8520   20.2730 C   0  0  0  0  0  2  0  0  0  0  0  0
  -24.6980  -31.1580   22.2010 N   0  0  0  0  0  0  0  0  0  0  0  0
  -23.5110  -32.2470   23.8010 O   0  0  0  0  0  0  0  0  0  0  0  0
  -22.7770  -29.5370   22.5970 C   0  0  0  0  0  0  0  0  0  0  0  0
  -21.4530  -29.3570   22.4520 N   0  0  0  0  0  0  0  0  0  0  0  0
  -23.4460  -28.9160   23.4260 O   0  0  0  0  0  0  0  0  0  0  0  0
  -20.9740  -29.9100   21.7560 H   0  0  0  0  0  0  0  0  0  0  0  0
  -18.0630  -28.2050   22.9470 C   0  0  0  0  0  0  0  0  0  0  0  0
  -20.6240  -28.4260   23.2180 C   0  0  0  0  0  3  0  0  0  0  0  0
  -20.7060  -26.9960   22.6330 C   0  0  0  0  0  2  0  0  0  0  0  0
  -19.5980  -26.6960   21.6180 C   0  0  0  0  0  2  0  0  0  0  0  0
  -18.2190  -26.8570   22.2630 C   0  0  0  0  0  2  0  0  0  0  0  0
  -19.1920  -28.9470   23.3820 C   0  0  0  0  0  0  0  0  0  0  0  0
  -18.9910  -30.2110   23.9800 C   0  0  0  0  0  3  0  0  0  0  0  0
  -17.6940  -30.7290   24.1500 C   0  0  0  0  0  3  0  0  0  0  0  0
  -16.5780  -29.9820   23.7330 C   0  0  0  0  0  3  0  0  0  0  0  0
  -16.7640  -28.7220   23.1360 C   0  0  0  0  0  3  0  0  0  0  0  0
  -25.8730  -32.6240   23.9310 C   0  0  0  0  0  3  0  0  0  0  0  0
  -25.5490  -34.0240   24.2310 N   0  0  0  0  0  0  0  0  0  0  0  0
  -25.9010  -35.0680   23.4680 C   0  0  0  0  0  0  0  0  0  0  0  0
  -26.6010  -34.9530   22.4600 O   0  0  0  0  0  0  0  0  0  0  0  0
  -24.9330  -34.1880   25.0140 H   0  0  0  0  0  0  0  0  0  0  0  0
  -24.1760  -36.8470   23.0400 C   0  0  0  0  0  1  0  0  0  0  0  0
  -25.3950  -36.4600   23.8930 C   0  0  0  0  0  3  0  0  0  0  0  0
  -27.5020  -37.3670   24.7690 C   0  0  0  0  0  1  0  0  0  0  0  0
  -26.4260  -37.5160   23.7930 N   0  0  0  0  0  0  0  0  0  0  0  0
  -26.0130  -38.4370   23.9150 H   0  0  0  0  0  0  0  0  0  0  0  0
  -26.3640  -31.8740   25.2290 C   0  0  1  0  0  0  0  0  0  0  0  0
  -25.2450  -31.6280   26.2680 C   0  0  0  0  0  1  0  0  0  0  0  0
  -26.9810  -30.5030   24.8680 C   0  0  0  0  0  1  0  0  0  0  0  0
  -27.4820  -32.6940   25.9160 C   0  0  0  0  0  1  0  0  0  0  0  0
  -30.3910  -22.3610   17.7390 C   0  0  0  0  0  2  0  0  0  0  0  0
  -29.3690  -21.4200   17.0710 C   0  0  0  0  0  2  0  0  0  0  0  0
  -29.9980  -20.4700   16.0450 C   0  0  0  0  0  2  0  0  0  0  0  0
  -29.4700  -18.6670   14.6080 C   0  0  0  0  0  1  0  0  0  0  0  0
  -28.9690  -19.6580   15.4960 O   0  0  0  0  0  0  0  0  0  0  0  0
  2  3  2  0
  3  1  1  0
  3 50  1  0
  4  6  1  0
  4  1  2  0
  5  2  1  0
  5  4  1  0
  6  7  1  0
  7  9  1  0
  8  6  2  0
 10  7  1  0
 10 11  1  0
 12 20  1  0
 13 18  1  0
 14 15  1  0
 14 13  1  0
 16 15  1  0
 16 25  1  0
 16 17  1  0
 18 12  1  0
 18 17  1  0
 19 12  2  0
 20 11  1  0
 20 21  1  0
 22 23  2  0
 23 24  1  0
 23 42  1  0
 24 27  1  0
 25 22  1  0
 25 26  1  0
 26 24  2  0
 27 28  1  0
 28 29  2  0
 30 33  1  0
 30 29  1  0
 31 30  2  0
 32 31  1  0
 32 27  2  0
 33 34  1  0
 34 35  1  0
 35 36  2  0
 37 36  1  0
 37 41  1  0
 38 37  2  0
 39 34  2  0
 39 38  1  0
 40 39  1  0
 42 43  1  0
 43 46  1  0
 43 45  1  0
 44 42  2  0
 47 48  1  0
 47 22  1  0
 49 47  1  0
 50 51  2  0
 52 54  1  0
 52 50  1  0
 53 64  2  0
 54 59  1  0
 55 63  1  0
 55 65  1  0
 56 62  1  0
 56 58  1  0
 57 63  1  0
 58 59  2  0
 58 57  1  0
 60 54  2  0
 61 60  1  0
 61 56  2  0
 62 55  1  0
 63 53  1  0
 65 67  2  0
 66 65  1  0
 68 66  1  0
 69 78  2  0
 69 74  1  0
 70 66  1  0
 70 74  1  0
 71 70  1  0
 72 73  1  0
 72 71  1  0
 73 69  1  0
 74 75  2  0
 75 76  1  0
 77 76  2  0
 78 77  1  0
 79 53  1  0
 79 80  1  0
 79 89  1  0
 80 83  1  0
 81 85  1  0
 81 80  1  0
 82 81  2  0
 85 84  1  0
 87 85  1  0
 87 88  1  0
 87 86  1  0
 89 92  1  1
 89 90  1  0
 91 89  1  0
 93  5  1  0
 94 93  1  0
 95 94  1  0
 96 97  1  0
 97 95  1  0
M  ISO  4  12 100  20 100  50 101  52 101
M  END
>  <TORSDO>  (83) 
F 24

>  <SCORE>  (83) 
-12.715

>  <name>  (83) 
82

>  <ligand_id>  (83) 
82

>  <original_smiles>  (83) 
[H]c1c([H])c([H])c2c(c1[H])C([H])([H])C([H])([H])C([H])([H])C2([H])N([H])C(=O)C1([H])N(C(=O)C([H])(N([H])C(=O)C([H])(N([H])C([H])([H])[H])C([H])([H])[H])C(C([H])([H])[H])(C([H])([H])[H])C([H])([H])[H])C([H])([H])c2c([H])c(OC(=O)c3c([H])c(C(=O)N([H])C([H])([H])C([H])([H])N([H])C(=O)N4C([H])([H])C([H])([H])C([H])([H])C([H])(n5nc(-c6c([H])c([H])c(Oc7c([H])c([H])c(F)c([H])c7F)c([H])c6[H])c(C(=O)N([H])[H])c5N([H])[H])C4([H])[H])n(C([H])([H])C([H])([H])C([H])([H])OC([H])([H])[H])c3[H])c([H])c([H])c2C1([H])[H]

>  <smiles>  (83) 
[H]c1c([H])c([H])c2c(c1[H])C([H])([H])C([H])([H])C([H])([H])C2([H])N([H])C(=O)C1([H])N(C(=O)C([H])(N([H])C(=O)C([H])(N([H])C([H])([H])[H])C([H])([H])[H])C(C([H])([H])[H])(C([H])([H])[H])C([H])([H])[H])C([H])([H])c2c([H])c(OC(=O)c3c([H])c(C(=O)N([H])C([H])([H])C([H])([H])N([H])C(=O)N4C([H])([H])C([H])([H])C([H])([H])C([H])(n5nc(-c6c([H])c([H])c(Oc7c([H])c([H])c(F)c([H])c7F)c([H])c6[H])c(C(=O)N([H])[H])c5N([H])[H])C4([H])[H])n(C([H])([H])C([H])([H])C([H])([H])OC([H])([H])[H])c3[H])c([H])c([H])c2C1([H])[H]

$$$$
83:0:0
     RDKit          3D

101108  0  0  1  0  0  0  0  0999 V2000
  -27.7170  -19.5550   24.3750 N   0  0  0  0  0  4  0  0  0  0  0  0
  -27.8700  -19.3300   23.3990 H   0  0  0  0  0  0  0  0  0  0  0  0
  -27.3730  -20.5050   24.4160 H   0  0  0  0  0  0  0  0  0  0  0  0
  -26.6940  -18.6250   24.9050 C   0  0  0  0  0  2  0  0  0  0  0  0
  -25.6040  -18.3620   23.8590 C   0  0  0  0  0  2  0  0  0  0  0  0
  -26.2620  -17.7850   22.7360 O   0  0  0  0  0  0  0  0  0  0  0  0
  -25.9690  -18.4200   21.4990 C   0  0  0  0  0  2  0  0  0  0  0  0
  -26.7920  -17.7280   20.4070 C   0  0  0  0  0  2  0  0  0  0  0  0
  -28.1650  -18.0920   20.5450 O   0  0  0  0  0  0  0  0  0  0  0  0
  -28.9200  -17.7100   19.3970 C   0  0  0  0  0  2  0  0  0  0  0  0
  -30.4260  -17.7930   19.6780 C   0  0  0  0  0  2  0  0  0  0  0  0
  -30.8000  -16.7230   20.5350 O   0  0  0  0  0  0  0  0  0  0  0  0
  -32.2080  -16.5300   20.5900 C   0  0  0  0  0  2  0  0  0  0  0  0
  -32.5010  -15.2720   21.4240 C   0  0  0  0  0  2  0  0  0  0  0  0
  -31.8720  -13.3300   19.9950 C   0  0  0  0  0  0  0  0  0  0  0  0
  -31.0510  -11.3620   18.7550 C   0  0  0  0  0  2  0  0  0  0  0  0
  -30.1130  -11.7650   17.6030 C   0  0  0  0  0  2  0  0  0  0  0  0
  -28.6640  -11.9140   18.1040 C   0  0  0  0  0  2  0  0  0  0  0  0
  -28.5630  -12.7970   19.3730 C   0  0  0  0  0  3  0  0  0  0  0  0
  -29.5910  -12.3480   20.4350 C   0  0  0  0  0  2  0  0  0  0  0  0
  -30.9340  -12.3650   19.8230 N   0  0  0  0  0  0  0  0  0  0  0  0
  -32.8830  -13.4350   19.2960 O   0  0  0  0  0  0  0  0  0  0  0  0
  -31.6530  -14.1500   21.0270 N   0  0  0  0  0  0  0  0  0  0  0  0
  -30.8130  -13.9940   21.5620 H   0  0  0  0  0  0  0  0  0  0  0  0
  -26.3570  -13.8720   20.1540 C   0  0  0  0  0  0  0  0  0  0  0  0
  -25.1770  -13.3290   20.5870 C   0  0  0  0  0  0  0  0  0  0  0  0
  -25.3680  -11.9130   20.5760 C   0  0  0  0  0  0  0  0  0  0  0  0
  -27.2030  -12.8010   19.9110 N   0  0  0  0  0  0  0  0  0  0  0  0
  -26.6110  -11.6190   20.2190 N   0  0  0  0  0  0  0  0  0  0  0  0
  -24.4230  -10.8200   20.8340 C   0  0  0  0  0  0  0  0  0  0  0  0
  -24.7210   -9.7890   21.7530 C   0  0  0  0  0  3  0  0  0  0  0  0
  -23.7910   -8.7560   21.9960 C   0  0  0  0  0  3  0  0  0  0  0  0
  -22.5460   -8.7500   21.3220 C   0  0  0  0  0  0  0  0  0  0  0  0
  -22.2640   -9.7670   20.3920 C   0  0  0  0  0  3  0  0  0  0  0  0
  -23.1930  -10.7910   20.1480 C   0  0  0  0  0  3  0  0  0  0  0  0
  -21.5900   -7.7760   21.4760 O   0  0  0  0  0  0  0  0  0  0  0  0
  -21.4950   -7.0360   22.6280 C   0  0  0  0  0  0  0  0  0  0  0  0
  -21.2760   -7.6400   23.8850 C   0  0  0  0  0  3  0  0  0  0  0  0
  -21.1150   -6.8390   25.0320 C   0  0  0  0  0  3  0  0  0  0  0  0
  -21.1630   -5.4370   24.9240 C   0  0  0  0  0  0  0  0  0  0  0  0
  -21.3740   -4.8330   23.6730 C   0  0  0  0  0  3  0  0  0  0  0  0
  -21.5370   -5.6310   22.5280 C   0  0  0  0  0  0  0  0  0  0  0  0
  -21.7210   -5.0440   21.3210 F   0  0  0  0  0  0  0  0  0  0  0  0
  -21.0000   -4.6670   26.0250 F   0  0  0  0  0  0  0  0  0  0  0  0
  -23.9120  -14.0730   20.9040 C   0  0  0  0  0  0  0  0  0  0  0  0
  -23.1150  -13.5600   21.8340 N   0  0  0  0  0  0  0  0  0  0  0  0
  -23.6450  -15.1440   20.3590 O   0  0  0  0  0  0  0  0  0  0  0  0
  -23.3430  -12.6910   22.2950 H   0  0  0  0  0  0  0  0  0  0  0  0
  -22.2650  -14.0420   22.0890 H   0  0  0  0  0  0  0  0  0  0  0  0
  -26.7740  -15.1800   19.9310 N   0  0  0  0  0  0  0  0  0  0  0  0
  -26.1580  -15.9730   20.0660 H   0  0  0  0  0  0  0  0  0  0  0  0
  -27.7010  -15.4330   19.6150 H   0  0  0  0  0  0  0  0  0  0  0  0
  -29.0130  -19.5300   25.0830 C   0  0  0  0  0  2  0  0  0  0  0  0
  -29.9990  -20.5040   24.4250 C   0  0  0  0  0  2  0  0  0  0  0  0
  -29.3640  -21.7720   24.3000 O   0  0  0  0  0  0  0  0  0  0  0  0
  -30.2760  -22.7880   23.8900 C   0  0  0  0  0  2  0  0  0  0  0  0
  -29.5150  -23.9960   23.3260 C   0  0  0  0  0  2  0  0  0  0  0  0
  -28.8250  -23.6020   22.1460 O   0  0  0  0  0  0  0  0  0  0  0  0
  -28.1140  -24.6650   21.5120 C   0  0  0  0  0  2  0  0  0  0  0  0
  -28.9070  -25.2740   20.3330 C   0  0  0  0  0  2  0  0  0  0  0  0
  -28.8560  -26.7010   20.3030 O   0  0  0  0  0  0  0  0  0  0  0  0
  -24.7120  -31.6470   23.2020 C   0  0  0  0  0  0  0  0  0  0  0  0
  -27.6340  -27.3290   20.2270 C   0  0  0  0  0  0  0  0  0  0  0  0
  -23.6150  -30.2120   21.5080 C   0  0  0  0  0  3  0  0  0  0  0  0
  -25.1750  -28.7270   20.1390 C   0  0  0  0  0  0  0  0  0  0  0  0
  -26.1290  -30.6640   21.4090 C   0  0  0  0  0  2  0  0  0  0  0  0
  -26.2870  -29.3020   20.7680 C   0  0  0  0  0  0  0  0  0  0  0  0
  -27.5160  -28.6120   20.8020 C   0  0  0  0  0  3  0  0  0  0  0  0
  -26.5040  -26.7570   19.5960 C   0  0  0  0  0  3  0  0  0  0  0  0
  -25.2790  -27.4520   19.5500 C   0  0  0  0  0  3  0  0  0  0  0  0
  -23.8970  -29.5380   20.1380 C   0  0  0  0  0  2  0  0  0  0  0  0
  -24.8350  -30.8550   22.1000 N   0  0  0  0  0  0  0  0  0  0  0  0
  -23.6030  -31.8850   23.7000 O   0  0  0  0  0  0  0  0  0  0  0  0
  -22.9640  -29.1690   22.4420 C   0  0  0  0  0  0  0  0  0  0  0  0
  -21.6460  -28.9690   22.2830 N   0  0  0  0  0  0  0  0  0  0  0  0
  -23.6400  -28.5420   23.2590 O   0  0  0  0  0  0  0  0  0  0  0  0
  -21.1630  -29.5280   21.5950 H   0  0  0  0  0  0  0  0  0  0  0  0
  -18.2720  -27.7620   22.7170 C   0  0  0  0  0  0  0  0  0  0  0  0
  -20.8270  -28.0090   23.0210 C   0  0  0  0  0  3  0  0  0  0  0  0
  -20.9350  -26.5960   22.4040 C   0  0  0  0  0  2  0  0  0  0  0  0
  -19.8420  -26.3030   21.3720 C   0  0  0  0  0  2  0  0  0  0  0  0
  -18.4530  -26.4290   22.0080 C   0  0  0  0  0  2  0  0  0  0  0  0
  -19.3870  -28.5100   23.1780 C   0  0  0  0  0  0  0  0  0  0  0  0
  -19.1640  -29.7580   23.7990 C   0  0  0  0  0  3  0  0  0  0  0  0
  -17.8580  -30.2570   23.9660 C   0  0  0  0  0  3  0  0  0  0  0  0
  -16.7580  -29.5030   23.5250 C   0  0  0  0  0  3  0  0  0  0  0  0
  -16.9650  -28.2590   22.9020 C   0  0  0  0  0  3  0  0  0  0  0  0
  -25.9550  -32.3130   23.8740 C   0  0  0  0  0  3  0  0  0  0  0  0
  -25.5930  -33.6990   24.1960 N   0  0  0  0  0  0  0  0  0  0  0  0
  -25.9250  -34.7650   23.4540 C   0  0  0  0  0  0  0  0  0  0  0  0
  -26.6390  -34.6860   22.4500 O   0  0  0  0  0  0  0  0  0  0  0  0
  -24.9600  -33.8310   24.9700 H   0  0  0  0  0  0  0  0  0  0  0  0
  -24.1510  -36.4940   23.0420 C   0  0  0  0  0  1  0  0  0  0  0  0
  -25.3760  -36.1320   23.8960 C   0  0  0  0  0  3  0  0  0  0  0  0
  -27.4500  -37.0870   24.7990 C   0  0  0  0  0  1  0  0  0  0  0  0
  -26.3770  -37.2180   23.8190 N   0  0  0  0  0  0  0  0  0  0  0  0
  -25.9370  -38.1260   23.9480 H   0  0  0  0  0  0  0  0  0  0  0  0
  -26.4470  -31.5510   25.1640 C   0  0  1  0  0  0  0  0  0  0  0  0
  -25.3220  -31.2740   26.1880 C   0  0  0  0  0  1  0  0  0  0  0  0
  -27.0880  -30.1960   24.7810 C   0  0  0  0  0  1  0  0  0  0  0  0
  -27.5430  -32.3770   25.8750 C   0  0  0  0  0  1  0  0  0  0  0  0
  1  3  1  0
  1  4  1  0
  1 53  1  0
  2  1  1  0
  5  4  1  0
  6  5  1  0
  7  6  1  0
  8  9  1  0
  8  7  1  0
 10 11  1  0
 10  9  1  0
 11 12  1  0
 12 13  1  0
 13 14  1  0
 15 23  1  0
 16 21  1  0
 17 18  1  0
 17 16  1  0
 19 18  1  0
 19 28  1  0
 19 20  1  0
 21 15  1  0
 21 20  1  0
 22 15  2  0
 23 14  1  0
 23 24  1  0
 25 26  2  0
 26 45  1  0
 27 26  1  0
 27 30  1  0
 28 25  1  0
 28 29  1  0
 29 27  2  0
 30 31  1  0
 31 32  2  0
 33 36  1  0
 33 32  1  0
 34 33  2  0
 35 34  1  0
 35 30  2  0
 36 37  1  0
 37 38  1  0
 38 39  2  0
 40 39  1  0
 40 44  1  0
 41 40  2  0
 42 37  2  0
 42 41  1  0
 43 42  1  0
 45 46  1  0
 46 49  1  0
 46 48  1  0
 47 45  2  0
 50 51  1  0
 50 25  1  0
 52 50  1  0
 54 53  1  0
 55 54  1  0
 56 55  1  0
 57 56  1  0
 58 57  1  0
 59 58  1  0
 60 59  1  0
 61 60  1  0
 62 73  2  0
 63 61  1  0
 63 68  1  0
 64 72  1  0
 64 74  1  0
 65 67  1  0
 66 72  1  0
 67 68  2  0
 67 66  1  0
 69 63  2  0
 70 69  1  0
 70 65  2  0
 71 65  1  0
 71 64  1  0
 72 62  1  0
 74 76  2  0
 75 74  1  0
 77 75  1  0
 78 87  2  0
 78 83  1  0
 79 75  1  0
 79 83  1  0
 80 79  1  0
 81 82  1  0
 81 80  1  0
 82 78  1  0
 83 84  2  0
 84 85  1  0
 86 85  2  0
 87 86  1  0
 88 62  1  0
 88 89  1  0
 88 98  1  0
 89 92  1  0
 90 94  1  0
 90 89  1  0
 91 90  2  0
 94 93  1  0
 96 94  1  0
 96 97  1  0
 96 95  1  0
 98101  1  1
 98 99  1  0
100 98  1  0
M  ISO  4  15 100  23 100  60 101  61 101
M  END
>  <TORSDO>  (84) 
F 35

>  <SCORE>  (84) 
20.992

>  <name>  (84) 
83

>  <ligand_id>  (84) 
83

>  <original_smiles>  (84) 
[H]c1c([H])c([H])c2c(c1[H])C([H])([H])C([H])([H])C([H])([H])C2([H])N([H])C(=O)C1([H])N(C(=O)C([H])(N([H])C(=O)C([H])(N([H])C([H])([H])[H])C([H])([H])[H])C(C([H])([H])[H])(C([H])([H])[H])C([H])([H])[H])C([H])([H])c2c([H])c(OC([H])([H])C([H])([H])OC([H])([H])C([H])([H])OC([H])([H])C([H])([H])[N+]([H])([H])C([H])([H])C([H])([H])OC([H])([H])C([H])([H])OC([H])([H])C([H])([H])OC([H])([H])C([H])([H])N([H])C(=O)N3C([H])([H])C([H])([H])C([H])([H])C([H])(n4nc(-c5c([H])c([H])c(Oc6c([H])c([H])c(F)c([H])c6F)c([H])c5[H])c(C(=O)N([H])[H])c4N([H])[H])C3([H])[H])c([H])c([H])c2C1([H])[H]

>  <smiles>  (84) 
[H]c1c([H])c([H])c2c(c1[H])C([H])([H])C([H])([H])C([H])([H])C2([H])N([H])C(=O)C1([H])N(C(=O)C([H])(N([H])C(=O)C([H])(N([H])C([H])([H])[H])C([H])([H])[H])C(C([H])([H])[H])(C([H])([H])[H])C([H])([H])[H])C([H])([H])c2c([H])c(OC([H])([H])C([H])([H])OC([H])([H])C([H])([H])OC([H])([H])C([H])([H])[N+]([H])([H])C([H])([H])C([H])([H])OC([H])([H])C([H])([H])OC([H])([H])C([H])([H])OC([H])([H])C([H])([H])N([H])C(=O)N3C([H])([H])C([H])([H])C([H])([H])C([H])(n4nc(-c5c([H])c([H])c(Oc6c([H])c([H])c(F)c([H])c6F)c([H])c5[H])c(C(=O)N([H])[H])c4N([H])[H])C3([H])[H])c([H])c([H])c2C1([H])[H]

$$$$
84:0:0
     RDKit          3D

 95103  0  0  1  0  0  0  0  0999 V2000
  -27.2500  -20.0240   18.0520 C   0  0  0  0  0  3  0  0  0  0  0  0
  -28.3230  -19.2790   18.5810 C   0  0  0  0  0  3  0  0  0  0  0  0
  -26.8300  -21.2090   18.6860 C   0  0  0  0  0  3  0  0  0  0  0  0
  -28.5410  -20.8940   20.3920 C   0  0  0  0  0  3  0  0  0  0  0  0
  -28.9870  -19.7170   19.7510 C   0  0  0  0  0  0  0  0  0  0  0  0
  -27.4760  -21.6500   19.8600 C   0  0  0  0  0  0  0  0  0  0  0  0
  -30.1500  -18.9580   20.3240 C   0  0  0  0  0  0  0  0  0  0  0  0
  -30.9330  -18.3400   19.4350 N   0  0  0  0  0  0  0  0  0  0  0  0
  -30.4090  -19.0070   21.5280 O   0  0  0  0  0  0  0  0  0  0  0  0
  -30.6530  -18.3880   18.4650 H   0  0  0  0  0  0  0  0  0  0  0  0
  -32.2530  -17.7910   19.7340 C   0  0  0  0  0  2  0  0  0  0  0  0
  -32.4820  -16.4580   19.0190 C   0  0  0  0  0  2  0  0  0  0  0  0
  -32.0330  -15.3880   19.8390 O   0  0  0  0  0  0  0  0  0  0  0  0
  -32.7310  -14.2420   19.8660 C   0  0  0  0  0  0  0  0  0  0  0  0
  -32.5220  -11.8550   20.5320 C   0  0  0  0  0  2  0  0  0  0  0  0
  -31.6930  -11.0780   19.4930 C   0  0  0  0  0  2  0  0  0  0  0  0
  -30.1890  -11.1790   19.8090 C   0  0  0  0  0  2  0  0  0  0  0  0
  -29.7230  -12.6400   20.0520 C   0  0  0  0  0  3  0  0  0  0  0  0
  -30.6580  -13.3590   21.0490 C   0  0  0  0  0  2  0  0  0  0  0  0
  -32.0340  -13.2360   20.5450 N   0  0  0  0  0  0  0  0  0  0  0  0
  -33.8340  -14.1080   19.3300 O   0  0  0  0  0  0  0  0  0  0  0  0
  -27.5440  -13.7830   20.8080 C   0  0  0  0  0  0  0  0  0  0  0  0
  -26.3000  -13.2850   21.0920 C   0  0  0  0  0  0  0  0  0  0  0  0
  -26.3950  -11.8680   20.9240 C   0  0  0  0  0  0  0  0  0  0  0  0
  -28.3310  -12.6860   20.4930 N   0  0  0  0  0  0  0  0  0  0  0  0
  -27.6380  -11.5240   20.6150 N   0  0  0  0  0  0  0  0  0  0  0  0
  -25.3620  -10.8270   20.9820 C   0  0  0  0  0  0  0  0  0  0  0  0
  -25.4570   -9.7420   21.8820 C   0  0  0  0  0  3  0  0  0  0  0  0
  -24.4430   -8.7620   21.9320 C   0  0  0  0  0  3  0  0  0  0  0  0
  -23.3170   -8.8620   21.0800 C   0  0  0  0  0  0  0  0  0  0  0  0
  -23.2380   -9.9310   20.1700 C   0  0  0  0  0  3  0  0  0  0  0  0
  -24.2510  -10.9030   20.1180 C   0  0  0  0  0  3  0  0  0  0  0  0
  -22.2960   -7.9440   21.0400 O   0  0  0  0  0  0  0  0  0  0  0  0
  -21.8510   -7.3130   22.1730 C   0  0  0  0  0  0  0  0  0  0  0  0
  -21.3010   -8.0310   23.2590 C   0  0  0  0  0  3  0  0  0  0  0  0
  -20.7920   -7.3390   24.3750 C   0  0  0  0  0  3  0  0  0  0  0  0
  -20.8230   -5.9310   24.4060 C   0  0  0  0  0  0  0  0  0  0  0  0
  -21.3650   -5.2150   23.3240 C   0  0  0  0  0  3  0  0  0  0  0  0
  -21.8750   -5.9040   22.2110 C   0  0  0  0  0  0  0  0  0  0  0  0
  -22.3770   -5.2080   21.1620 F   0  0  0  0  0  0  0  0  0  0  0  0
  -20.3260   -5.2660   25.4750 F   0  0  0  0  0  0  0  0  0  0  0  0
  -25.0670  -14.0810   21.4080 C   0  0  0  0  0  0  0  0  0  0  0  0
  -24.2130  -13.5680   22.2870 N   0  0  0  0  0  0  0  0  0  0  0  0
  -24.8760  -15.1890   20.9100 O   0  0  0  0  0  0  0  0  0  0  0  0
  -24.3770  -12.6690   22.7160 H   0  0  0  0  0  0  0  0  0  0  0  0
  -23.3840  -14.0870   22.5410 H   0  0  0  0  0  0  0  0  0  0  0  0
  -28.0650  -15.0720   20.7740 N   0  0  0  0  0  0  0  0  0  0  0  0
  -27.5010  -15.8930   20.9640 H   0  0  0  0  0  0  0  0  0  0  0  0
  -29.0230  -15.2920   20.5320 H   0  0  0  0  0  0  0  0  0  0  0  0
  -27.0640  -22.9490   20.5340 C   0  0  0  0  0  2  0  0  0  0  0  0
  -28.1670  -24.0140   20.4470 C   0  0  0  0  0  2  0  0  0  0  0  0
  -28.2280  -24.5160   19.1190 O   0  0  0  0  0  0  0  0  0  0  0  0
  -29.4740  -25.1210   18.8020 C   0  0  0  0  0  2  0  0  0  0  0  0
  -29.2780  -26.1930   17.7120 C   0  0  0  0  0  2  0  0  0  0  0  0
  -29.0200  -27.4830   18.2630 O   0  0  0  0  0  0  0  0  0  0  0  0
  -24.7390  -29.9810   23.3320 C   0  0  0  0  0  0  0  0  0  0  0  0
  -27.7300  -27.8530   18.5730 C   0  0  0  0  0  0  0  0  0  0  0  0
  -23.6080  -29.2120   21.2700 C   0  0  0  0  0  3  0  0  0  0  0  0
  -25.1370  -28.7180   19.2900 C   0  0  0  0  0  0  0  0  0  0  0  0
  -26.0120  -30.0810   21.1950 C   0  0  0  0  0  2  0  0  0  0  0  0
  -26.2460  -29.1530   20.0230 C   0  0  0  0  0  0  0  0  0  0  0  0
  -27.5430  -28.7280   19.6650 C   0  0  0  0  0  3  0  0  0  0  0  0
  -26.5990  -27.4200   17.8430 C   0  0  0  0  0  3  0  0  0  0  0  0
  -25.3070  -27.8480   18.2000 C   0  0  0  0  0  3  0  0  0  0  0  0
  -23.7840  -29.2290   19.7280 C   0  0  0  0  0  2  0  0  0  0  0  0
  -24.8070  -29.7490   21.9910 N   0  0  0  0  0  0  0  0  0  0  0  0
  -23.6870  -29.7960   23.9600 O   0  0  0  0  0  0  0  0  0  0  0  0
  -23.2240  -27.7800   21.7060 C   0  0  0  0  0  0  0  0  0  0  0  0
  -21.9660  -27.3940   21.4390 N   0  0  0  0  0  0  0  0  0  0  0  0
  -24.0510  -27.0380   22.2410 O   0  0  0  0  0  0  0  0  0  0  0  0
  -21.3480  -28.0620   21.0010 H   0  0  0  0  0  0  0  0  0  0  0  0
  -19.0040  -25.3640   21.0460 C   0  0  0  0  0  0  0  0  0  0  0  0
  -21.3930  -26.0790   21.7240 C   0  0  0  0  0  3  0  0  0  0  0  0
  -21.8880  -25.0230   20.7110 C   0  0  0  0  0  2  0  0  0  0  0  0
  -20.9510  -24.8530   19.5100 C   0  0  0  0  0  2  0  0  0  0  0  0
  -19.5540  -24.4340   19.9770 C   0  0  0  0  0  2  0  0  0  0  0  0
  -19.8670  -26.1490   21.8550 C   0  0  0  0  0  0  0  0  0  0  0  0
  -19.3060  -27.0220   22.8110 C   0  0  0  0  0  3  0  0  0  0  0  0
  -17.9110  -27.1180   22.9670 C   0  0  0  0  0  3  0  0  0  0  0  0
  -17.0600  -26.3290   22.1730 C   0  0  0  0  0  3  0  0  0  0  0  0
  -17.6060  -25.4510   21.2180 C   0  0  0  0  0  3  0  0  0  0  0  0
  -25.9650  -30.5130   24.1370 C   0  0  0  0  0  3  0  0  0  0  0  0
  -26.2520  -29.6880   25.4490 C   0  0  1  0  0  0  0  0  0  0  0  0
  -25.0160  -29.5220   26.3630 C   0  0  0  0  0  1  0  0  0  0  0  0
  -26.7780  -28.2740   25.1010 C   0  0  0  0  0  1  0  0  0  0  0  0
  -27.3640  -30.3830   26.2720 C   0  0  0  0  0  1  0  0  0  0  0  0
  -25.7060  -31.9230   24.4550 N   0  0  0  0  0  0  0  0  0  0  0  0
  -26.3880  -32.9560   23.9390 C   0  0  0  0  0  0  0  0  0  0  0  0
  -27.3590  -32.8100   23.1920 O   0  0  0  0  0  0  0  0  0  0  0  0
  -24.8920  -32.1180   25.0180 H   0  0  0  0  0  0  0  0  0  0  0  0
  -25.2570  -35.0350   23.0920 C   0  0  0  0  0  1  0  0  0  0  0  0
  -25.9170  -34.3740   24.3130 C   0  0  0  0  0  3  0  0  0  0  0  0
  -27.5070  -34.8260   26.1280 C   0  0  0  0  0  1  0  0  0  0  0  0
  -27.0030  -35.2400   24.8200 N   0  0  0  0  0  0  0  0  0  0  0  0
  -26.6910  -36.2050   24.8930 H   0  0  0  0  0  0  0  0  0  0  0  0
  1  2  2  0
  1  3  1  0
  2  5  1  0
  3  6  2  0
  5  7  1  0
  5  4  2  0
  6  4  1  0
  6 50  1  0
  7  9  2  0
  8 11  1  0
  8  7  1  0
 10  8  1  0
 12 11  1  0
 12 13  1  0
 13 14  1  0
 14 20  1  0
 15 20  1  0
 16 17  1  0
 16 15  1  0
 18 17  1  0
 18 25  1  0
 18 19  1  0
 20 19  1  0
 21 14  2  0
 22 23  2  0
 23 42  1  0
 24 27  1  0
 24 23  1  0
 25 26  1  0
 25 22  1  0
 26 24  2  0
 27 28  1  0
 28 29  2  0
 30 29  1  0
 31 30  2  0
 32 31  1  0
 32 27  2  0
 33 30  1  0
 33 34  1  0
 34 39  2  0
 34 35  1  0
 35 36  2  0
 36 37  1  0
 37 41  1  0
 38 37  2  0
 39 38  1  0
 40 39  1  0
 42 43  1  0
 43 46  1  0
 43 45  1  0
 44 42  2  0
 47 22  1  0
 47 48  1  0
 49 47  1  0
 51 50  1  0
 52 51  1  0
 53 52  1  0
 54 55  1  0
 54 53  1  0
 55 57  1  0
 56 67  2  0
 57 62  1  0
 58 68  1  0
 58 66  1  0
 59 65  1  0
 59 61  1  0
 60 66  1  0
 61 60  1  0
 62 61  2  0
 63 64  1  0
 63 57  2  0
 64 59  2  0
 65 58  1  0
 66 56  1  0
 68 70  2  0
 69 68  1  0
 71 69  1  0
 72 81  2  0
 72 77  1  0
 73 69  1  0
 73 77  1  0
 74 73  1  0
 75 76  1  0
 75 74  1  0
 76 72  1  0
 77 78  2  0
 78 79  1  0
 80 79  2  0
 81 80  1  0
 82 56  1  0
 82 87  1  0
 82 83  1  0
 83 86  1  1
 83 84  1  0
 85 83  1  0
 87 90  1  0
 88 92  1  0
 88 87  1  0
 89 88  2  0
 92 91  1  0
 92 94  1  0
 94 95  1  0
 94 93  1  0
M  ISO  4  13 100  14 100  54 101  55 101
M  END
>  <TORSDO>  (85) 
F 25

>  <SCORE>  (85) 
-8.229

>  <name>  (85) 
84

>  <ligand_id>  (85) 
84

>  <original_smiles>  (85) 
[H]c1c([H])c(C(=O)N([H])C([H])([H])C([H])([H])OC(=O)N2C([H])([H])C([H])([H])C([H])([H])C([H])(n3nc(-c4c([H])c([H])c(Oc5c([H])c([H])c(F)c([H])c5F)c([H])c4[H])c(C(=O)N([H])[H])c3N([H])[H])C2([H])[H])c([H])c(C([H])([H])C([H])([H])OC([H])([H])C([H])([H])Oc2c([H])c([H])c3c(c2[H])C([H])([H])N(C(=O)C([H])(N([H])C(=O)C([H])(N([H])C([H])([H])[H])C([H])([H])[H])C(C([H])([H])[H])(C([H])([H])[H])C([H])([H])[H])C([H])(C(=O)N([H])C2([H])c4c([H])c([H])c([H])c([H])c4C([H])([H])C([H])([H])C2([H])[H])C3([H])[H])c1[H]

>  <smiles>  (85) 
[H]c1c([H])c(C(=O)N([H])C([H])([H])C([H])([H])OC(=O)N2C([H])([H])C([H])([H])C([H])([H])C([H])(n3nc(-c4c([H])c([H])c(Oc5c([H])c([H])c(F)c([H])c5F)c([H])c4[H])c(C(=O)N([H])[H])c3N([H])[H])C2([H])[H])c([H])c(C([H])([H])C([H])([H])OC([H])([H])C([H])([H])Oc2c([H])c([H])c3c(c2[H])C([H])([H])N(C(=O)C([H])(N([H])C(=O)C([H])(N([H])C([H])([H])[H])C([H])([H])[H])C(C([H])([H])[H])(C([H])([H])[H])C([H])([H])[H])C([H])(C(=O)N([H])C2([H])c4c([H])c([H])c([H])c([H])c4C([H])([H])C([H])([H])C2([H])[H])C3([H])[H])c1[H]

$$$$
85:0:0
     RDKit          3D

 95103  0  0  1  0  0  0  0  0999 V2000
  -26.5500  -22.5210   20.3810 C   0  0  0  0  0  0  0  0  0  0  0  0
  -27.7110  -22.4340   19.7230 N   0  0  0  0  0  0  0  0  0  0  0  0
  -25.4950  -22.0230   19.9840 O   0  0  0  0  0  0  0  0  0  0  0  0
  -28.4770  -22.9210   20.1690 H   0  0  0  0  0  0  0  0  0  0  0  0
  -28.0770  -21.3960   18.7820 C   0  0  0  0  0  2  0  0  0  0  0  0
  -29.6490  -20.4330   20.5590 C   0  0  0  0  0  3  0  0  0  0  0  0
  -28.3770  -18.8990   19.1770 C   0  0  0  0  0  3  0  0  0  0  0  0
  -30.1950  -19.3470   21.2750 C   0  0  0  0  0  3  0  0  0  0  0  0
  -28.9370  -17.8060   19.8750 C   0  0  0  0  0  3  0  0  0  0  0  0
  -28.7280  -20.2200   19.5110 C   0  0  0  0  0  0  0  0  0  0  0  0
  -29.8570  -18.0170   20.9300 C   0  0  0  0  0  0  0  0  0  0  0  0
  -30.4580  -16.8560   21.7370 C   0  0  0  0  0  2  0  0  0  0  0  0
  -30.1520  -15.5400   21.2630 O   0  0  0  0  0  0  0  0  0  0  0  0
  -30.9880  -14.7340   20.5240 C   0  0  0  0  0  0  0  0  0  0  0  0
  -30.8300  -12.5290   19.3440 C   0  0  0  0  0  2  0  0  0  0  0  0
  -29.8620  -12.6440   18.1450 C   0  0  0  0  0  2  0  0  0  0  0  0
  -28.3870  -12.4870   18.5830 C   0  0  0  0  0  2  0  0  0  0  0  0
  -28.0360  -13.3720   19.8050 C   0  0  0  0  0  3  0  0  0  0  0  0
  -29.0720  -13.1300   20.9190 C   0  0  0  0  0  2  0  0  0  0  0  0
  -30.3870  -13.4770   20.3690 N   0  0  0  0  0  0  0  0  0  0  0  0
  -32.0650  -15.0760   20.0210 O   0  0  0  0  0  0  0  0  0  0  0  0
  -25.6540  -14.0470   20.5220 C   0  0  0  0  0  0  0  0  0  0  0  0
  -24.5650  -13.2950   20.8810 C   0  0  0  0  0  0  0  0  0  0  0  0
  -24.9830  -11.9340   20.8230 C   0  0  0  0  0  0  0  0  0  0  0  0
  -26.6700  -13.1320   20.2690 N   0  0  0  0  0  0  0  0  0  0  0  0
  -26.2680  -11.8580   20.5040 N   0  0  0  0  0  0  0  0  0  0  0  0
  -24.2250  -10.6840   20.9930 C   0  0  0  0  0  0  0  0  0  0  0  0
  -24.6080   -9.7140   21.9440 C   0  0  0  0  0  3  0  0  0  0  0  0
  -23.8640   -8.5250   22.0930 C   0  0  0  0  0  3  0  0  0  0  0  0
  -22.7230   -8.3060   21.2890 C   0  0  0  0  0  0  0  0  0  0  0  0
  -22.3620   -9.2610   20.3250 C   0  0  0  0  0  3  0  0  0  0  0  0
  -23.1030  -10.4420   20.1750 C   0  0  0  0  0  3  0  0  0  0  0  0
  -21.9390   -7.1770   21.3460 O   0  0  0  0  0  0  0  0  0  0  0  0
  -21.7570   -6.4920   22.5180 C   0  0  0  0  0  0  0  0  0  0  0  0
  -21.1850   -7.1010   23.6570 C   0  0  0  0  0  3  0  0  0  0  0  0
  -20.9580   -6.3370   24.8210 C   0  0  0  0  0  3  0  0  0  0  0  0
  -21.2860   -4.9670   24.8430 C   0  0  0  0  0  0  0  0  0  0  0  0
  -21.8460   -4.3620   23.7020 C   0  0  0  0  0  3  0  0  0  0  0  0
  -22.0790   -5.1210   22.5440 C   0  0  0  0  0  0  0  0  0  0  0  0
  -22.6060   -4.5300   21.4440 F   0  0  0  0  0  0  0  0  0  0  0  0
  -21.0580   -4.2260   25.9530 F   0  0  0  0  0  0  0  0  0  0  0  0
  -23.1840  -13.8110   21.1680 C   0  0  0  0  0  0  0  0  0  0  0  0
  -22.4440  -13.1340   22.0400 N   0  0  0  0  0  0  0  0  0  0  0  0
  -22.7690  -14.8490   20.6590 O   0  0  0  0  0  0  0  0  0  0  0  0
  -22.7770  -12.2780   22.4520 H   0  0  0  0  0  0  0  0  0  0  0  0
  -21.5240  -13.4700   22.2870 H   0  0  0  0  0  0  0  0  0  0  0  0
  -25.8500  -15.4130   20.3660 N   0  0  0  0  0  0  0  0  0  0  0  0
  -25.1040  -16.0820   20.5040 H   0  0  0  0  0  0  0  0  0  0  0  0
  -26.6810  -15.8280   19.9690 H   0  0  0  0  0  0  0  0  0  0  0  0
  -26.6490  -23.2100   21.7490 C   0  0  0  0  0  2  0  0  0  0  0  0
  -27.7510  -24.1260   21.7550 O   0  0  0  0  0  0  0  0  0  0  0  0
  -27.4330  -25.4030   21.2050 C   0  0  0  0  0  2  0  0  0  0  0  0
  -28.5770  -25.9070   20.2920 C   0  0  0  0  0  0  0  0  0  0  0  0
  -29.5800  -25.2150   20.1050 O   0  0  0  0  0  0  0  0  0  0  0  0
  -28.4090  -27.1240   19.6910 O   0  0  0  0  0  0  0  0  0  0  0  0
  -24.5640  -31.9600   23.1820 C   0  0  0  0  0  0  0  0  0  0  0  0
  -27.2290  -27.8140   19.7720 C   0  0  0  0  0  0  0  0  0  0  0  0
  -23.3400  -30.6260   21.4920 C   0  0  0  0  0  3  0  0  0  0  0  0
  -24.7940  -29.2200   19.9400 C   0  0  0  0  0  0  0  0  0  0  0  0
  -25.8460  -31.0760   21.2420 C   0  0  0  0  0  2  0  0  0  0  0  0
  -25.9510  -29.7470   20.5280 C   0  0  0  0  0  0  0  0  0  0  0  0
  -27.1750  -29.0510   20.4460 C   0  0  0  0  0  3  0  0  0  0  0  0
  -26.0700  -27.3150   19.1390 C   0  0  0  0  0  3  0  0  0  0  0  0
  -24.8470  -27.9980   19.2470 C   0  0  0  0  0  3  0  0  0  0  0  0
  -23.5260  -30.0310   20.0710 C   0  0  0  0  0  2  0  0  0  0  0  0
  -24.6030  -31.2300   22.0310 N   0  0  0  0  0  0  0  0  0  0  0  0
  -23.4940  -32.1650   23.7680 O   0  0  0  0  0  0  0  0  0  0  0  0
  -22.7520  -29.5250   22.4050 C   0  0  0  0  0  0  0  0  0  0  0  0
  -21.4290  -29.3170   22.3050 N   0  0  0  0  0  0  0  0  0  0  0  0
  -23.4760  -28.8680   23.1590 O   0  0  0  0  0  0  0  0  0  0  0  0
  -20.9090  -29.9080   21.6680 H   0  0  0  0  0  0  0  0  0  0  0  0
  -18.0990  -28.0240   22.8230 C   0  0  0  0  0  0  0  0  0  0  0  0
  -20.6550  -28.3130   23.0330 C   0  0  0  0  0  3  0  0  0  0  0  0
  -20.7650  -26.9240   22.3640 C   0  0  0  0  0  2  0  0  0  0  0  0
  -19.6420  -26.6460   21.3620 C   0  0  0  0  0  2  0  0  0  0  0  0
  -18.2780  -26.7210   22.0570 C   0  0  0  0  0  2  0  0  0  0  0  0
  -19.2150  -28.7810   23.2650 C   0  0  0  0  0  0  0  0  0  0  0  0
  -18.9910  -30.0000   23.9380 C   0  0  0  0  0  3  0  0  0  0  0  0
  -17.6820  -30.4670   24.1690 C   0  0  0  0  0  3  0  0  0  0  0  0
  -16.5810  -29.7040   23.7430 C   0  0  0  0  0  3  0  0  0  0  0  0
  -16.7880  -28.4840   23.0750 C   0  0  0  0  0  3  0  0  0  0  0  0
  -25.8530  -32.5830   23.8040 C   0  0  0  0  0  3  0  0  0  0  0  0
  -25.5420  -33.9750   24.1500 N   0  0  0  0  0  0  0  0  0  0  0  0
  -25.8700  -35.0370   23.4030 C   0  0  0  0  0  0  0  0  0  0  0  0
  -26.5400  -34.9480   22.3690 O   0  0  0  0  0  0  0  0  0  0  0  0
  -24.9600  -34.1190   24.9600 H   0  0  0  0  0  0  0  0  0  0  0  0
  -24.1380  -36.8250   23.0620 C   0  0  0  0  0  1  0  0  0  0  0  0
  -25.3760  -36.4190   23.8760 C   0  0  0  0  0  3  0  0  0  0  0  0
  -27.5010  -37.2980   24.7350 C   0  0  0  0  0  1  0  0  0  0  0  0
  -26.4080  -37.4770   23.7830 N   0  0  0  0  0  0  0  0  0  0  0  0
  -25.9990  -38.3950   23.9390 H   0  0  0  0  0  0  0  0  0  0  0  0
  -26.3790  -31.7910   25.0640 C   0  0  1  0  0  0  0  0  0  0  0  0
  -25.2940  -31.5310   26.1350 C   0  0  0  0  0  1  0  0  0  0  0  0
  -26.9570  -30.4230   24.6380 C   0  0  0  0  0  1  0  0  0  0  0  0
  -27.5340  -32.5760   25.7290 C   0  0  0  0  0  1  0  0  0  0  0  0
  1 50  1  0
  2  4  1  0
  2  1  1  0
  3  1  2  0
  5 10  1  0
  5  2  1  0
  6  8  1  0
  7 10  1  0
  7  9  2  0
  9 11  1  0
 10  6  2  0
 11  8  2  0
 11 12  1  0
 13 12  1  0
 14 13  1  0
 15 20  1  0
 16 17  1  0
 16 15  1  0
 18 17  1  0
 18 25  1  0
 18 19  1  0
 20 14  1  0
 20 19  1  0
 21 14  2  0
 22 23  2  0
 23 42  1  0
 24 23  1  0
 24 27  1  0
 25 26  1  0
 25 22  1  0
 26 24  2  0
 27 28  1  0
 28 29  2  0
 30 33  1  0
 30 29  1  0
 31 30  2  0
 32 31  1  0
 32 27  2  0
 33 34  1  0
 34 39  2  0
 34 35  1  0
 35 36  2  0
 36 37  1  0
 37 41  1  0
 38 37  2  0
 39 38  1  0
 40 39  1  0
 42 43  1  0
 43 46  1  0
 43 45  1  0
 44 42  2  0
 47 48  1  0
 47 22  1  0
 49 47  1  0
 50 51  1  0
 52 51  1  0
 53 52  1  0
 54 53  2  0
 55 57  1  0
 55 53  1  0
 56 67  2  0
 57 62  1  0
 58 66  1  0
 58 68  1  0
 59 65  1  0
 59 61  1  0
 60 66  1  0
 61 60  1  0
 62 61  2  0
 63 64  1  0
 63 57  2  0
 64 59  2  0
 65 58  1  0
 66 56  1  0
 68 70  2  0
 69 68  1  0
 71 69  1  0
 72 81  2  0
 72 77  1  0
 73 69  1  0
 73 77  1  0
 74 73  1  0
 75 76  1  0
 75 74  1  0
 76 72  1  0
 77 78  2  0
 78 79  1  0
 80 79  2  0
 81 80  1  0
 82 56  1  0
 82 83  1  0
 82 92  1  0
 83 86  1  0
 84 88  1  0
 84 83  1  0
 85 84  2  0
 88 87  1  0
 90 88  1  0
 90 91  1  0
 90 89  1  0
 92 95  1  1
 92 93  1  0
 94 92  1  0
M  ISO  4  13 100  14 100  53 101  55 101
M  END
>  <TORSDO>  (86) 
F 24

>  <SCORE>  (86) 
-11.760

>  <name>  (86) 
85

>  <ligand_id>  (86) 
85

>  <original_smiles>  (86) 
[H]c1c([H])c([H])c2c(c1[H])C([H])([H])C([H])([H])C([H])([H])C2([H])N([H])C(=O)C1([H])N(C(=O)C([H])(N([H])C(=O)C([H])(N([H])C([H])([H])[H])C([H])([H])[H])C(C([H])([H])[H])(C([H])([H])[H])C([H])([H])[H])C([H])([H])c2c([H])c(OC(=O)C([H])([H])OC([H])([H])C(=O)N([H])C([H])([H])c3c([H])c([H])c(C([H])([H])OC(=O)N4C([H])([H])C([H])([H])C([H])([H])C([H])(n5nc(-c6c([H])c([H])c(Oc7c([H])c([H])c(F)c([H])c7F)c([H])c6[H])c(C(=O)N([H])[H])c5N([H])[H])C4([H])[H])c([H])c3[H])c([H])c([H])c2C1([H])[H]

>  <smiles>  (86) 
[H]c1c([H])c([H])c2c(c1[H])C([H])([H])C([H])([H])C([H])([H])C2([H])N([H])C(=O)C1([H])N(C(=O)C([H])(N([H])C(=O)C([H])(N([H])C([H])([H])[H])C([H])([H])[H])C(C([H])([H])[H])(C([H])([H])[H])C([H])([H])[H])C([H])([H])c2c([H])c(OC(=O)C([H])([H])OC([H])([H])C(=O)N([H])C([H])([H])c3c([H])c([H])c(C([H])([H])OC(=O)N4C([H])([H])C([H])([H])C([H])([H])C([H])(n5nc(-c6c([H])c([H])c(Oc7c([H])c([H])c(F)c([H])c7F)c([H])c6[H])c(C(=O)N([H])[H])c5N([H])[H])C4([H])[H])c([H])c3[H])c([H])c([H])c2C1([H])[H]

$$$$
86:0:0
     RDKit          3D

 93100  0  0  1  0  0  0  0  0999 V2000
  -25.1720  -23.3380   22.0120 O   0  0  0  0  0  0  0  0  0  0  0  0
  -26.2330  -22.5500   22.5490 C   0  0  0  0  0  2  0  0  0  0  0  0
  -27.1620  -22.1360   21.4030 C   0  0  0  0  0  2  0  0  0  0  0  0
  -27.8580  -23.2870   20.9350 O   0  0  0  0  0  0  0  0  0  0  0  0
  -28.6680  -23.0240   19.7970 C   0  0  0  0  0  2  0  0  0  0  0  0
  -29.5750  -24.2400   19.5130 C   0  0  0  0  0  2  0  0  0  0  0  0
  -30.8040  -24.2090   20.2400 O   0  0  0  0  0  0  0  0  0  0  0  0
  -31.4300  -22.9330   20.2120 C   0  0  0  0  0  2  0  0  0  0  0  0
  -32.7020  -22.9100   21.0740 C   0  0  0  0  0  2  0  0  0  0  0  0
  -33.9700  -20.7620   21.0540 C   0  0  0  0  0  0  0  0  0  0  0  0
  -34.6360  -18.4370   20.5590 C   0  0  0  0  0  2  0  0  0  0  0  0
  -34.2500  -18.0470   19.1180 C   0  0  0  0  0  2  0  0  0  0  0  0
  -32.7880  -17.5610   19.0440 C   0  0  0  0  0  2  0  0  0  0  0  0
  -31.8040  -18.5330   19.7430 C   0  0  0  0  0  3  0  0  0  0  0  0
  -32.3180  -18.8710   21.1600 C   0  0  0  0  0  2  0  0  0  0  0  0
  -33.6770  -19.4380   21.0480 N   0  0  0  0  0  0  0  0  0  0  0  0
  -35.0520  -21.2340   20.6970 O   0  0  0  0  0  0  0  0  0  0  0  0
  -32.9600  -21.5300   21.4660 N   0  0  0  0  0  0  0  0  0  0  0  0
  -32.1740  -21.0280   21.8550 H   0  0  0  0  0  0  0  0  0  0  0  0
  -29.2290  -18.6350   19.6990 C   0  0  0  0  0  0  0  0  0  0  0  0
  -28.2770  -17.6520   19.7250 C   0  0  0  0  0  0  0  0  0  0  0  0
  -28.9880  -16.4160   19.8140 C   0  0  0  0  0  0  0  0  0  0  0  0
  -30.4510  -17.9850   19.7830 N   0  0  0  0  0  0  0  0  0  0  0  0
  -30.2910  -16.6430   19.9070 N   0  0  0  0  0  0  0  0  0  0  0  0
  -28.5070  -15.0300   19.7650 C   0  0  0  0  0  0  0  0  0  0  0  0
  -28.7270  -14.1350   20.8330 C   0  0  0  0  0  3  0  0  0  0  0  0
  -28.2440  -12.8100   20.7690 C   0  0  0  0  0  3  0  0  0  0  0  0
  -27.5260  -12.3710   19.6300 C   0  0  0  0  0  0  0  0  0  0  0  0
  -27.3310  -13.2600   18.5580 C   0  0  0  0  0  3  0  0  0  0  0  0
  -27.8180  -14.5750   18.6210 C   0  0  0  0  0  3  0  0  0  0  0  0
  -27.0370  -11.0970   19.4710 O   0  0  0  0  0  0  0  0  0  0  0  0
  -26.5820  -10.3630   20.5370 C   0  0  0  0  0  0  0  0  0  0  0  0
  -25.5340  -10.8190   21.3660 C   0  0  0  0  0  3  0  0  0  0  0  0
  -25.0500   -9.9980   22.4040 C   0  0  0  0  0  3  0  0  0  0  0  0
  -25.6010   -8.7200   22.6100 C   0  0  0  0  0  0  0  0  0  0  0  0
  -26.6430   -8.2630   21.7820 C   0  0  0  0  0  3  0  0  0  0  0  0
  -27.1270   -9.0800   20.7470 C   0  0  0  0  0  0  0  0  0  0  0  0
  -28.1140   -8.6240   19.9380 F   0  0  0  0  0  0  0  0  0  0  0  0
  -25.1330   -7.9280   23.6030 F   0  0  0  0  0  0  0  0  0  0  0  0
  -26.7940  -17.8330   19.5780 C   0  0  0  0  0  0  0  0  0  0  0  0
  -26.0020  -16.9500   20.1780 N   0  0  0  0  0  0  0  0  0  0  0  0
  -26.3260  -18.7950   18.9700 O   0  0  0  0  0  0  0  0  0  0  0  0
  -26.3800  -16.1720   20.6990 H   0  0  0  0  0  0  0  0  0  0  0  0
  -24.9990  -17.0520   20.1100 H   0  0  0  0  0  0  0  0  0  0  0  0
  -29.1610  -20.0220   19.5910 N   0  0  0  0  0  0  0  0  0  0  0  0
  -28.2780  -20.4970   19.4340 H   0  0  0  0  0  0  0  0  0  0  0  0
  -29.9640  -20.6210   19.4610 H   0  0  0  0  0  0  0  0  0  0  0  0
  -24.9040  -24.5320   22.7430 C   0  0  0  0  0  2  0  0  0  0  0  0
  -26.0460  -25.5490   22.5820 C   0  0  0  0  0  2  0  0  0  0  0  0
  -26.3250  -25.7290   21.1990 O   0  0  0  0  0  0  0  0  0  0  0  0
  -27.7110  -25.8930   20.9330 C   0  0  0  0  0  2  0  0  0  0  0  0
  -27.9270  -26.4910   19.5320 C   0  0  0  0  0  2  0  0  0  0  0  0
  -27.9490  -27.9210   19.5800 O   0  0  0  0  0  0  0  0  0  0  0  0
  -24.5820  -32.4860   23.8510 C   0  0  0  0  0  0  0  0  0  0  0  0
  -26.7770  -28.6050   19.8200 C   0  0  0  0  0  0  0  0  0  0  0  0
  -23.1840  -31.4170   22.1130 C   0  0  0  0  0  3  0  0  0  0  0  0
  -24.4440  -30.1210   20.3180 C   0  0  0  0  0  0  0  0  0  0  0  0
  -25.6910  -31.7550   21.7440 C   0  0  0  0  0  2  0  0  0  0  0  0
  -25.6680  -30.5160   20.8720 C   0  0  0  0  0  0  0  0  0  0  0  0
  -26.8360  -29.7680   20.6170 C   0  0  0  0  0  3  0  0  0  0  0  0
  -25.5330  -28.2160   19.2720 C   0  0  0  0  0  3  0  0  0  0  0  0
  -24.3700  -28.9690   19.5180 C   0  0  0  0  0  3  0  0  0  0  0  0
  -23.2430  -30.9840   20.6240 C   0  0  0  0  0  2  0  0  0  0  0  0
  -24.5100  -31.8890   22.6270 N   0  0  0  0  0  0  0  0  0  0  0  0
  -23.5650  -32.6820   24.5290 O   0  0  0  0  0  0  0  0  0  0  0  0
  -22.5850  -30.2560   22.9400 C   0  0  0  0  0  0  0  0  0  0  0  0
  -21.2770  -30.0070   22.7620 N   0  0  0  0  0  0  0  0  0  0  0  0
  -23.2940  -29.5870   23.6960 O   0  0  0  0  0  0  0  0  0  0  0  0
  -20.7650  -30.6070   22.1320 H   0  0  0  0  0  0  0  0  0  0  0  0
  -18.0310  -28.4260   22.8830 C   0  0  0  0  0  0  0  0  0  0  0  0
  -20.5100  -28.9410   23.4050 C   0  0  0  0  0  3  0  0  0  0  0  0
  -20.8240  -27.5670   22.7700 C   0  0  0  0  0  2  0  0  0  0  0  0
  -19.8570  -27.1890   21.6430 C   0  0  0  0  0  2  0  0  0  0  0  0
  -18.4170  -27.1460   22.1610 C   0  0  0  0  0  2  0  0  0  0  0  0
  -19.0150  -29.2770   23.4520 C   0  0  0  0  0  0  0  0  0  0  0  0
  -18.6040  -30.4740   24.0810 C   0  0  0  0  0  3  0  0  0  0  0  0
  -17.2410  -30.8200   24.1480 C   0  0  0  0  0  3  0  0  0  0  0  0
  -16.2710  -29.9670   23.5960 C   0  0  0  0  0  3  0  0  0  0  0  0
  -16.6660  -28.7710   22.9690 C   0  0  0  0  0  3  0  0  0  0  0  0
  -25.9420  -32.9700   24.4450 C   0  0  0  0  0  3  0  0  0  0  0  0
  -26.4700  -32.0580   25.6190 C   0  0  1  0  0  0  0  0  0  0  0  0
  -25.4150  -31.7830   26.7150 C   0  0  0  0  0  1  0  0  0  0  0  0
  -26.9540  -30.6940   25.0750 C   0  0  0  0  0  1  0  0  0  0  0  0
  -27.6960  -32.7260   26.2880 C   0  0  0  0  0  1  0  0  0  0  0  0
  -25.7540  -34.3520   24.9040 N   0  0  0  0  0  0  0  0  0  0  0  0
  -26.1440  -35.4400   24.2250 C   0  0  0  0  0  0  0  0  0  0  0  0
  -26.7700  -35.3760   23.1640 O   0  0  0  0  0  0  0  0  0  0  0  0
  -25.2020  -34.4810   25.7390 H   0  0  0  0  0  0  0  0  0  0  0  0
  -24.5540  -37.3820   24.0820 C   0  0  0  0  0  1  0  0  0  0  0  0
  -25.7800  -36.8150   24.8160 C   0  0  0  0  0  3  0  0  0  0  0  0
  -27.9990  -37.4550   25.6470 C   0  0  0  0  0  1  0  0  0  0  0  0
  -26.8890  -37.7920   24.7600 N   0  0  0  0  0  0  0  0  0  0  0  0
  -26.5620  -38.7240   25.0000 H   0  0  0  0  0  0  0  0  0  0  0  0
  1  2  1  0
  1 48  1  0
  3  2  1  0
  4  3  1  0
  5  4  1  0
  6  5  1  0
  6  7  1  0
  8  7  1  0
  8  9  1  0
  9 18  1  0
 10 18  1  0
 11 16  1  0
 12 11  1  0
 13 12  1  0
 14 13  1  0
 14 23  1  0
 14 15  1  0
 16 10  1  0
 16 15  1  0
 17 10  2  0
 18 19  1  0
 20 21  2  0
 20 23  1  0
 21 22  1  0
 22 24  2  0
 23 24  1  0
 25 22  1  0
 25 26  1  0
 27 26  2  0
 28 27  1  0
 29 30  1  0
 29 28  2  0
 30 25  2  0
 31 28  1  0
 31 32  1  0
 32 37  2  0
 32 33  1  0
 33 34  2  0
 34 35  1  0
 35 39  1  0
 36 35  2  0
 37 36  1  0
 38 37  1  0
 40 21  1  0
 40 41  1  0
 41 43  1  0
 42 40  2  0
 44 41  1  0
 45 20  1  0
 46 45  1  0
 47 45  1  0
 49 48  1  0
 50 49  1  0
 51 50  1  0
 52 53  1  0
 52 51  1  0
 53 55  1  0
 54 65  2  0
 55 60  1  0
 56 64  1  0
 56 66  1  0
 57 63  1  0
 57 59  1  0
 58 64  1  0
 59 58  1  0
 60 59  2  0
 61 62  1  0
 61 55  2  0
 62 57  2  0
 63 56  1  0
 64 54  1  0
 66 68  2  0
 67 66  1  0
 69 67  1  0
 70 79  2  0
 70 75  1  0
 71 67  1  0
 71 75  1  0
 72 71  1  0
 73 74  1  0
 73 72  1  0
 74 70  1  0
 75 76  2  0
 76 77  1  0
 78 77  2  0
 79 78  1  0
 80 54  1  0
 80 85  1  0
 80 81  1  0
 81 84  1  1
 81 82  1  0
 83 81  1  0
 85 88  1  0
 86 90  1  0
 86 85  1  0
 87 86  2  0
 90 89  1  0
 92 90  1  0
 92 93  1  0
 92 91  1  0
M  ISO  4  10 100  18 100  52 101  53 101
M  END
>  <TORSDO>  (87) 
F 29

>  <SCORE>  (87) 
-2.990

>  <name>  (87) 
86

>  <ligand_id>  (87) 
86

>  <original_smiles>  (87) 
[H]c1c([H])c([H])c2c(c1[H])C([H])([H])C([H])([H])C([H])([H])C2([H])N([H])C(=O)C1([H])N(C(=O)C([H])(N([H])C(=O)C([H])(N([H])C([H])([H])[H])C([H])([H])[H])C(C([H])([H])[H])(C([H])([H])[H])C([H])([H])[H])C([H])([H])c2c([H])c(OC([H])([H])C([H])([H])OC([H])([H])C([H])([H])OC([H])([H])C([H])([H])OC([H])([H])C([H])([H])OC([H])([H])C([H])([H])N([H])C(=O)N3C([H])([H])C([H])([H])C([H])([H])C([H])(n4nc(-c5c([H])c([H])c(Oc6c([H])c([H])c(F)c([H])c6F)c([H])c5[H])c(C(=O)N([H])[H])c4N([H])[H])C3([H])[H])c([H])c([H])c2C1([H])[H]

>  <smiles>  (87) 
[H]c1c([H])c([H])c2c(c1[H])C([H])([H])C([H])([H])C([H])([H])C2([H])N([H])C(=O)C1([H])N(C(=O)C([H])(N([H])C(=O)C([H])(N([H])C([H])([H])[H])C([H])([H])[H])C(C([H])([H])[H])(C([H])([H])[H])C([H])([H])[H])C([H])([H])c2c([H])c(OC([H])([H])C([H])([H])OC([H])([H])C([H])([H])OC([H])([H])C([H])([H])OC([H])([H])C([H])([H])OC([H])([H])C([H])([H])N([H])C(=O)N3C([H])([H])C([H])([H])C([H])([H])C([H])(n4nc(-c5c([H])c([H])c(Oc6c([H])c([H])c(F)c([H])c6F)c([H])c5[H])c(C(=O)N([H])[H])c4N([H])[H])C3([H])[H])c([H])c([H])c2C1([H])[H]

$$$$
87:0:0
     RDKit          3D

 89 97  0  0  1  0  0  0  0  0999 V2000
  -28.6530  -21.7450   20.4290 O   0  0  0  0  0  0  0  0  0  0  0  0
  -31.7040  -19.6020   19.6150 C   0  0  0  0  0  3  0  0  0  0  0  0
  -31.3330  -18.2510   19.8270 C   0  0  0  0  0  3  0  0  0  0  0  0
  -30.8310  -20.7000   19.8240 C   0  0  0  0  0  3  0  0  0  0  0  0
  -29.1520  -19.0750   20.4580 C   0  0  0  0  0  3  0  0  0  0  0  0
  -30.0430  -17.8710   20.2630 C   0  0  0  0  0  0  0  0  0  0  0  0
  -29.4980  -20.5320   20.2550 C   0  0  0  0  0  0  0  0  0  0  0  0
  -30.5080  -15.1170   20.2900 C   0  0  0  0  0  0  0  0  0  0  0  0
  -30.3980  -12.7390   19.3660 C   0  0  0  0  0  2  0  0  0  0  0  0
  -29.4620  -12.6480   18.1370 C   0  0  0  0  0  2  0  0  0  0  0  0
  -28.0060  -12.4080   18.5780 C   0  0  0  0  0  2  0  0  0  0  0  0
  -27.5890  -13.3430   19.7430 C   0  0  0  0  0  3  0  0  0  0  0  0
  -28.6500  -13.4110   20.8640 C   0  0  0  0  0  2  0  0  0  0  0  0
  -29.9060  -13.8500   20.2420 N   0  0  0  0  0  0  0  0  0  0  0  0
  -31.7170  -15.1300   20.0260 O   0  0  0  0  0  0  0  0  0  0  0  0
  -29.7520  -16.3410   20.4450 N   0  0  0  0  0  0  0  0  0  0  0  0
  -28.7910  -16.1420   20.6810 H   0  0  0  0  0  0  0  0  0  0  0  0
  -25.2140  -13.8960   20.5080 C   0  0  0  0  0  0  0  0  0  0  0  0
  -24.1570  -13.1120   20.8790 C   0  0  0  0  0  0  0  0  0  0  0  0
  -24.6290  -11.7650   20.8340 C   0  0  0  0  0  0  0  0  0  0  0  0
  -26.2600  -13.0260   20.2550 N   0  0  0  0  0  0  0  0  0  0  0  0
  -25.9190  -11.7390   20.5190 N   0  0  0  0  0  0  0  0  0  0  0  0
  -23.9080  -10.4970   21.0180 C   0  0  0  0  0  0  0  0  0  0  0  0
  -24.3310   -9.5360   21.9630 C   0  0  0  0  0  3  0  0  0  0  0  0
  -23.6090   -8.3340   22.1350 C   0  0  0  0  0  3  0  0  0  0  0  0
  -22.4520   -8.0850   21.3600 C   0  0  0  0  0  0  0  0  0  0  0  0
  -22.0480   -9.0350   20.4050 C   0  0  0  0  0  3  0  0  0  0  0  0
  -22.7700  -10.2270   20.2330 C   0  0  0  0  0  3  0  0  0  0  0  0
  -21.7010   -6.9360   21.4390 O   0  0  0  0  0  0  0  0  0  0  0  0
  -21.6130   -6.2130   22.6010 C   0  0  0  0  0  0  0  0  0  0  0  0
  -21.0990   -6.7740   23.7900 C   0  0  0  0  0  3  0  0  0  0  0  0
  -20.9610   -5.9750   24.9440 C   0  0  0  0  0  3  0  0  0  0  0  0
  -21.3270   -4.6160   24.9060 C   0  0  0  0  0  0  0  0  0  0  0  0
  -21.8340   -4.0540   23.7210 C   0  0  0  0  0  3  0  0  0  0  0  0
  -21.9730   -4.8510   22.5710 C   0  0  0  0  0  0  0  0  0  0  0  0
  -22.4410   -4.2990   21.4260 F   0  0  0  0  0  0  0  0  0  0  0  0
  -21.1880   -3.8460   26.0120 F   0  0  0  0  0  0  0  0  0  0  0  0
  -22.7580  -13.5800   21.1590 C   0  0  0  0  0  0  0  0  0  0  0  0
  -22.0350  -12.8730   22.0190 N   0  0  0  0  0  0  0  0  0  0  0  0
  -22.3170  -14.6090   20.6500 O   0  0  0  0  0  0  0  0  0  0  0  0
  -22.4030  -12.0390   22.4500 H   0  0  0  0  0  0  0  0  0  0  0  0
  -21.0970  -13.1700   22.2500 H   0  0  0  0  0  0  0  0  0  0  0  0
  -25.3650  -15.2700   20.3390 N   0  0  0  0  0  0  0  0  0  0  0  0
  -24.5840  -15.9120   20.4450 H   0  0  0  0  0  0  0  0  0  0  0  0
  -26.1920  -15.7200   19.9700 H   0  0  0  0  0  0  0  0  0  0  0  0
  -29.0510  -23.2690   20.2420 C   0  0  0  0  0  2  0  0  0  0  0  0
  -27.9280  -24.5150   20.4150 C   0  0  0  0  0  0  0  0  0  0  0  0
  -26.7930  -24.1360   20.7150 O   0  0  0  0  0  0  0  0  0  0  0  0
  -28.2050  -26.0840   20.2330 O   0  0  0  0  0  0  0  0  0  0  0  0
  -24.6190  -31.8970   23.2380 C   0  0  0  0  0  0  0  0  0  0  0  0
  -27.1810  -27.1290   20.1980 C   0  0  0  0  0  0  0  0  0  0  0  0
  -23.4160  -30.5020   21.6050 C   0  0  0  0  0  3  0  0  0  0  0  0
  -24.8590  -28.9220   20.1730 C   0  0  0  0  0  0  0  0  0  0  0  0
  -25.9740  -30.7480   21.4370 C   0  0  0  0  0  2  0  0  0  0  0  0
  -26.0440  -29.3490   20.7850 C   0  0  0  0  0  0  0  0  0  0  0  0
  -27.2030  -28.4690   20.7840 C   0  0  0  0  0  3  0  0  0  0  0  0
  -25.9690  -26.8310   19.5320 C   0  0  0  0  0  3  0  0  0  0  0  0
  -24.8380  -27.6750   19.5330 C   0  0  0  0  0  3  0  0  0  0  0  0
  -23.6330  -29.8240   20.2280 C   0  0  0  0  0  2  0  0  0  0  0  0
  -24.6910  -31.0730   22.1470 N   0  0  0  0  0  0  0  0  0  0  0  0
  -23.5330  -32.1860   23.7650 O   0  0  0  0  0  0  0  0  0  0  0  0
  -22.7340  -29.4980   22.5690 C   0  0  0  0  0  0  0  0  0  0  0  0
  -21.4070  -29.3250   22.4400 N   0  0  0  0  0  0  0  0  0  0  0  0
  -23.4040  -28.8770   23.3980 O   0  0  0  0  0  0  0  0  0  0  0  0
  -20.9220  -29.8760   21.7450 H   0  0  0  0  0  0  0  0  0  0  0  0
  -18.0250  -28.1180   22.9460 C   0  0  0  0  0  0  0  0  0  0  0  0
  -20.5840  -28.3870   23.2120 C   0  0  0  0  0  3  0  0  0  0  0  0
  -20.6880  -26.9560   22.6380 C   0  0  0  0  0  2  0  0  0  0  0  0
  -19.5870  -26.6300   21.6250 C   0  0  0  0  0  2  0  0  0  0  0  0
  -18.2040  -26.7710   22.2680 C   0  0  0  0  0  2  0  0  0  0  0  0
  -19.1420  -28.8850   23.3730 C   0  0  0  0  0  0  0  0  0  0  0  0
  -18.9190  -30.1450   23.9700 C   0  0  0  0  0  3  0  0  0  0  0  0
  -17.6140  -30.6420   24.1400 C   0  0  0  0  0  3  0  0  0  0  0  0
  -16.5100  -29.8740   23.7270 C   0  0  0  0  0  3  0  0  0  0  0  0
  -16.7170  -28.6140   23.1370 C   0  0  0  0  0  3  0  0  0  0  0  0
  -25.8970  -32.5320   23.8680 C   0  0  0  0  0  3  0  0  0  0  0  0
  -26.4020  -31.7650   25.1510 C   0  0  1  0  0  0  0  0  0  0  0  0
  -25.3030  -31.5360   26.2150 C   0  0  0  0  0  1  0  0  0  0  0  0
  -26.9840  -30.3820   24.7730 C   0  0  0  0  0  1  0  0  0  0  0  0
  -27.5510  -32.5610   25.8150 C   0  0  0  0  0  1  0  0  0  0  0  0
  -25.5870  -33.9320   24.1970 N   0  0  0  0  0  0  0  0  0  0  0  0
  -25.9100  -34.9880   23.4360 C   0  0  0  0  0  0  0  0  0  0  0  0
  -26.5670  -34.8830   22.3970 O   0  0  0  0  0  0  0  0  0  0  0  0
  -24.9990  -34.0890   25.0020 H   0  0  0  0  0  0  0  0  0  0  0  0
  -24.1780  -36.7850   23.1100 C   0  0  0  0  0  1  0  0  0  0  0  0
  -25.4310  -36.3770   23.9020 C   0  0  0  0  0  3  0  0  0  0  0  0
  -27.5740  -37.2650   24.7080 C   0  0  0  0  0  1  0  0  0  0  0  0
  -26.4640  -37.4290   23.7740 N   0  0  0  0  0  0  0  0  0  0  0  0
  -26.0590  -38.3500   23.9210 H   0  0  0  0  0  0  0  0  0  0  0  0
  2  4  2  0
  2  3  1  0
  3  6  2  0
  4  7  1  0
  6 16  1  0
  6  5  1  0
  7  1  1  0
  7  5  2  0
  8 16  1  0
  9 14  1  0
 10 11  1  0
 10  9  1  0
 12 11  1  0
 12 21  1  0
 12 13  1  0
 14  8  1  0
 14 13  1  0
 15  8  2  0
 16 17  1  0
 18 19  2  0
 19 38  1  0
 20 19  1  0
 20 23  1  0
 21 18  1  0
 21 22  1  0
 22 20  2  0
 23 24  1  0
 24 25  2  0
 26 29  1  0
 26 25  1  0
 27 26  2  0
 28 27  1  0
 28 23  2  0
 29 30  1  0
 30 31  1  0
 31 32  2  0
 33 32  1  0
 33 37  1  0
 34 33  2  0
 35 30  2  0
 35 34  1  0
 36 35  1  0
 38 39  1  0
 39 42  1  0
 39 41  1  0
 40 38  2  0
 43 44  1  0
 43 18  1  0
 45 43  1  0
 46 47  1  0
 46  1  1  0
 47 48  2  0
 49 47  1  0
 50 61  2  0
 51 49  1  0
 51 56  1  0
 52 60  1  0
 52 62  1  0
 53 59  1  0
 53 55  1  0
 54 60  1  0
 55 54  1  0
 56 55  2  0
 57 58  1  0
 57 51  2  0
 58 53  2  0
 59 52  1  0
 60 50  1  0
 62 64  2  0
 63 62  1  0
 65 63  1  0
 66 75  2  0
 66 71  1  0
 67 63  1  0
 67 71  1  0
 68 67  1  0
 69 70  1  0
 69 68  1  0
 70 66  1  0
 71 72  2  0
 72 73  1  0
 74 73  2  0
 75 74  1  0
 76 50  1  0
 76 81  1  0
 76 77  1  0
 77 80  1  1
 77 78  1  0
 79 77  1  0
 81 84  1  0
 82 86  1  0
 82 81  1  0
 83 82  2  0
 86 85  1  0
 88 86  1  0
 88 89  1  0
 88 87  1  0
M  ISO  4   8 100  16 100  47 101  49 101
M  END
>  <TORSDO>  (88) 
F 19

>  <SCORE>  (88) 
-14.199

>  <name>  (88) 
87

>  <ligand_id>  (88) 
87

>  <original_smiles>  (88) 
[H]c1c([H])c(OC([H])([H])C(=O)Oc2c([H])c([H])c3c(c2[H])C([H])([H])N(C(=O)C([H])(N([H])C(=O)C([H])(N([H])C([H])([H])[H])C([H])([H])[H])C(C([H])([H])[H])(C([H])([H])[H])C([H])([H])[H])C([H])(C(=O)N([H])C2([H])c4c([H])c([H])c([H])c([H])c4C([H])([H])C([H])([H])C2([H])[H])C3([H])[H])c([H])c(N([H])C(=O)N2C([H])([H])C([H])([H])C([H])([H])C([H])(n3nc(-c4c([H])c([H])c(Oc5c([H])c([H])c(F)c([H])c5F)c([H])c4[H])c(C(=O)N([H])[H])c3N([H])[H])C2([H])[H])c1[H]

>  <smiles>  (88) 
[H]c1c([H])c(OC([H])([H])C(=O)Oc2c([H])c([H])c3c(c2[H])C([H])([H])N(C(=O)C([H])(N([H])C(=O)C([H])(N([H])C([H])([H])[H])C([H])([H])[H])C(C([H])([H])[H])(C([H])([H])[H])C([H])([H])[H])C([H])(C(=O)N([H])C2([H])c4c([H])c([H])c([H])c([H])c4C([H])([H])C([H])([H])C2([H])[H])C3([H])[H])c([H])c(N([H])C(=O)N2C([H])([H])C([H])([H])C([H])([H])C([H])(n3nc(-c4c([H])c([H])c(Oc5c([H])c([H])c(F)c([H])c5F)c([H])c4[H])c(C(=O)N([H])[H])c3N([H])[H])C2([H])[H])c1[H]

$$$$
88:0:0
     RDKit          3D

102110  0  0  1  0  0  0  0  0999 V2000
  -31.0360  -23.8500   23.8590 C   0  0  0  0  0  2  0  0  0  0  0  0
  -29.7360  -23.5980   24.3860 O   0  0  0  0  0  0  0  0  0  0  0  0
  -28.6910  -24.3900   23.8230 C   0  0  0  0  0  2  0  0  0  0  0  0
  -27.0600  -22.6800   20.2500 C   0  0  0  0  0  3  0  0  0  0  0  0
  -27.5400  -23.9970   20.1670 C   0  0  0  0  0  3  0  0  0  0  0  0
  -27.1430  -22.0080   21.4760 C   0  0  0  0  0  3  0  0  0  0  0  0
  -28.0770  -24.6110   21.3170 C   0  0  0  0  0  0  0  0  0  0  0  0
  -28.1330  -23.8440   22.5080 C   0  0  0  0  0  0  0  0  0  0  0  0
  -27.6700  -22.5730   22.5800 N   0  0  0  0  0  0  0  0  0  0  0  0
  -28.6480  -26.0290   21.2510 C   0  0  0  0  0  2  0  0  0  0  0  0
  -28.3660  -26.7240   20.0400 O   0  0  0  0  0  0  0  0  0  0  0  0
  -24.6110  -31.8720   23.2140 C   0  0  0  0  0  0  0  0  0  0  0  0
  -27.2150  -27.4680   20.0780 C   0  0  0  0  0  0  0  0  0  0  0  0
  -23.3950  -30.5010   21.5500 C   0  0  0  0  0  3  0  0  0  0  0  0
  -24.8360  -28.9720   20.1150 C   0  0  0  0  0  0  0  0  0  0  0  0
  -25.9220  -30.8440   21.3680 C   0  0  0  0  0  2  0  0  0  0  0  0
  -25.9940  -29.4830   20.7140 C   0  0  0  0  0  0  0  0  0  0  0  0
  -27.1890  -28.7340   20.7030 C   0  0  0  0  0  3  0  0  0  0  0  0
  -26.0480  -26.9760   19.4620 C   0  0  0  0  0  3  0  0  0  0  0  0
  -24.8530  -27.7140   19.4910 C   0  0  0  0  0  3  0  0  0  0  0  0
  -23.6030  -29.8420   20.1610 C   0  0  0  0  0  2  0  0  0  0  0  0
  -24.6600  -31.0880   22.1010 N   0  0  0  0  0  0  0  0  0  0  0  0
  -23.5320  -32.1460   23.7570 O   0  0  0  0  0  0  0  0  0  0  0  0
  -22.7380  -29.4710   22.4950 C   0  0  0  0  0  0  0  0  0  0  0  0
  -21.4130  -29.3020   22.3660 N   0  0  0  0  0  0  0  0  0  0  0  0
  -23.4180  -28.8260   23.3000 O   0  0  0  0  0  0  0  0  0  0  0  0
  -20.9290  -29.8700   21.6840 H   0  0  0  0  0  0  0  0  0  0  0  0
  -18.0280  -28.1370   22.8480 C   0  0  0  0  0  0  0  0  0  0  0  0
  -20.5870  -28.3670   23.1280 C   0  0  0  0  0  3  0  0  0  0  0  0
  -20.6770  -26.9410   22.5410 C   0  0  0  0  0  2  0  0  0  0  0  0
  -19.5750  -26.6390   21.5200 C   0  0  0  0  0  2  0  0  0  0  0  0
  -18.1930  -26.7930   22.1610 C   0  0  0  0  0  2  0  0  0  0  0  0
  -19.1530  -28.8840   23.2880 C   0  0  0  0  0  0  0  0  0  0  0  0
  -18.9470  -30.1440   23.8890 C   0  0  0  0  0  3  0  0  0  0  0  0
  -17.6480  -30.6580   24.0570 C   0  0  0  0  0  3  0  0  0  0  0  0
  -16.5360  -29.9090   23.6330 C   0  0  0  0  0  3  0  0  0  0  0  0
  -16.7270  -28.6510   23.0360 C   0  0  0  0  0  3  0  0  0  0  0  0
  -25.9040  -32.4810   23.8400 C   0  0  0  0  0  3  0  0  0  0  0  0
  -25.5920  -33.8610   24.2360 N   0  0  0  0  0  0  0  0  0  0  0  0
  -25.9040  -34.9460   23.5140 C   0  0  0  0  0  0  0  0  0  0  0  0
  -26.5590  -34.8910   22.4690 O   0  0  0  0  0  0  0  0  0  0  0  0
  -25.0130  -33.9770   25.0540 H   0  0  0  0  0  0  0  0  0  0  0  0
  -24.1490  -36.7280   23.2640 C   0  0  0  0  0  1  0  0  0  0  0  0
  -25.4120  -36.3090   24.0340 C   0  0  0  0  0  3  0  0  0  0  0  0
  -27.5570  -37.1800   24.8480 C   0  0  0  0  0  1  0  0  0  0  0  0
  -26.4290  -37.3790   23.9410 N   0  0  0  0  0  0  0  0  0  0  0  0
  -26.0160  -38.2850   24.1440 H   0  0  0  0  0  0  0  0  0  0  0  0
  -26.4520  -31.6530   25.0670 C   0  0  1  0  0  0  0  0  0  0  0  0
  -25.3830  -31.3570   26.1430 C   0  0  0  0  0  1  0  0  0  0  0  0
  -27.0350  -30.2990   24.5980 C   0  0  0  0  0  1  0  0  0  0  0  0
  -27.6120  -32.4230   25.7430 C   0  0  0  0  0  1  0  0  0  0  0  0
  -31.4160  -22.8680   22.7400 C   0  0  0  0  0  2  0  0  0  0  0  0
  -30.9560  -23.3450   21.4850 O   0  0  0  0  0  0  0  0  0  0  0  0
  -31.3400  -22.4950   20.4110 C   0  0  0  0  0  2  0  0  0  0  0  0
  -30.5930  -22.8950   19.1310 C   0  0  0  0  0  2  0  0  0  0  0  0
  -31.4910  -23.0530   18.0390 O   0  0  0  0  0  0  0  0  0  0  0  0
  -30.9410  -22.6330   16.7940 C   0  0  0  0  0  2  0  0  0  0  0  0
  -31.4900  -21.2390   16.4640 C   0  0  0  0  0  2  0  0  0  0  0  0
  -31.0380  -20.2840   17.4180 O   0  0  0  0  0  0  0  0  0  0  0  0
  -31.8290  -19.1000   17.4060 C   0  0  0  0  0  2  0  0  0  0  0  0
  -31.2730  -18.0640   18.3930 C   0  0  0  0  0  2  0  0  0  0  0  0
  -31.2820  -18.5730   19.7310 O   0  0  0  0  0  0  0  0  0  0  0  0
  -31.2810  -17.5760   20.7560 C   0  0  0  0  0  2  0  0  0  0  0  0
  -29.9560  -16.7700   20.8060 C   0  0  0  0  0  2  0  0  0  0  0  0
  -30.7190  -14.4110   20.5850 C   0  0  0  0  0  0  0  0  0  0  0  0
  -30.4150  -12.2660   19.4230 C   0  0  0  0  0  2  0  0  0  0  0  0
  -29.4980  -12.5130   18.2090 C   0  0  0  0  0  2  0  0  0  0  0  0
  -28.0130  -12.4040   18.6100 C   0  0  0  0  0  2  0  0  0  0  0  0
  -27.6720  -13.2090   19.8940 C   0  0  0  0  0  3  0  0  0  0  0  0
  -28.7110  -12.9440   21.0090 C   0  0  0  0  0  2  0  0  0  0  0  0
  -30.0540  -13.2330   20.4700 N   0  0  0  0  0  0  0  0  0  0  0  0
  -31.7860  -14.6410   20.0120 O   0  0  0  0  0  0  0  0  0  0  0  0
  -30.0520  -15.3710   21.2370 N   0  0  0  0  0  0  0  0  0  0  0  0
  -29.2660  -15.0310   21.7730 H   0  0  0  0  0  0  0  0  0  0  0  0
  -25.2610  -13.8180   20.5700 C   0  0  0  0  0  0  0  0  0  0  0  0
  -24.1860  -13.0440   20.9150 C   0  0  0  0  0  0  0  0  0  0  0  0
  -24.6430  -11.6910   20.8720 C   0  0  0  0  0  0  0  0  0  0  0  0
  -26.3090  -12.9360   20.3450 N   0  0  0  0  0  0  0  0  0  0  0  0
  -25.9360  -11.6510   20.5790 N   0  0  0  0  0  0  0  0  0  0  0  0
  -23.9090  -10.4300   21.0390 C   0  0  0  0  0  0  0  0  0  0  0  0
  -24.3630   -9.4220   21.9180 C   0  0  0  0  0  3  0  0  0  0  0  0
  -23.6310   -8.2240   22.0750 C   0  0  0  0  0  3  0  0  0  0  0  0
  -22.4300   -8.0270   21.3530 C   0  0  0  0  0  0  0  0  0  0  0  0
  -21.9930   -9.0250   20.4640 C   0  0  0  0  0  3  0  0  0  0  0  0
  -22.7250  -10.2140   20.3050 C   0  0  0  0  0  3  0  0  0  0  0  0
  -21.6650   -6.8880   21.4250 O   0  0  0  0  0  0  0  0  0  0  0  0
  -21.6870   -6.0740   22.5290 C   0  0  0  0  0  0  0  0  0  0  0  0
  -21.4010   -6.5640   23.8220 C   0  0  0  0  0  3  0  0  0  0  0  0
  -21.3670   -5.6800   24.9180 C   0  0  0  0  0  3  0  0  0  0  0  0
  -21.6050   -4.3060   24.7230 C   0  0  0  0  0  0  0  0  0  0  0  0
  -21.8820   -3.8150   23.4350 C   0  0  0  0  0  3  0  0  0  0  0  0
  -21.9190   -4.6960   22.3410 C   0  0  0  0  0  0  0  0  0  0  0  0
  -22.1660   -4.2140   21.0990 F   0  0  0  0  0  0  0  0  0  0  0  0
  -21.5630   -3.4540   25.7730 F   0  0  0  0  0  0  0  0  0  0  0  0
  -22.7880  -13.5220   21.1810 C   0  0  0  0  0  0  0  0  0  0  0  0
  -22.0530  -12.8210   22.0380 N   0  0  0  0  0  0  0  0  0  0  0  0
  -22.3560  -14.5530   20.6670 O   0  0  0  0  0  0  0  0  0  0  0  0
  -22.4150  -11.9860   22.4750 H   0  0  0  0  0  0  0  0  0  0  0  0
  -21.1160  -13.1260   22.2620 H   0  0  0  0  0  0  0  0  0  0  0  0
  -25.4310  -15.1900   20.4110 N   0  0  0  0  0  0  0  0  0  0  0  0
  -24.6570  -15.8400   20.4930 H   0  0  0  0  0  0  0  0  0  0  0  0
  -26.2890  -15.6330   20.1070 H   0  0  0  0  0  0  0  0  0  0  0  0
  1  2  1  0
  3  2  1  0
  4  6  1  0
  5  4  2  0
  5  7  1  0
  6  9  2  0
  7  8  2  0
  8  9  1  0
  8  3  1  0
 10  7  1  0
 11 13  1  0
 11 10  1  0
 12 23  2  0
 13 18  1  0
 14 22  1  0
 14 24  1  0
 15 21  1  0
 15 17  1  0
 16 22  1  0
 17 16  1  0
 18 17  2  0
 19 20  1  0
 19 13  2  0
 20 15  2  0
 21 14  1  0
 22 12  1  0
 24 26  2  0
 25 24  1  0
 27 25  1  0
 28 37  2  0
 28 33  1  0
 29 25  1  0
 29 33  1  0
 30 29  1  0
 31 32  1  0
 31 30  1  0
 32 28  1  0
 33 34  2  0
 34 35  1  0
 36 35  2  0
 37 36  1  0
 38 12  1  0
 38 39  1  0
 38 48  1  0
 39 42  1  0
 40 44  1  0
 40 39  1  0
 41 40  2  0
 44 43  1  0
 46 44  1  0
 46 47  1  0
 46 45  1  0
 48 51  1  1
 48 49  1  0
 50 48  1  0
 52  1  1  0
 53 52  1  0
 54 53  1  0
 55 54  1  0
 56 55  1  0
 57 56  1  0
 58 57  1  0
 58 59  1  0
 60 59  1  0
 60 61  1  0
 61 62  1  0
 62 63  1  0
 63 64  1  0
 64 73  1  0
 65 73  1  0
 66 71  1  0
 67 68  1  0
 67 66  1  0
 69 68  1  0
 69 78  1  0
 69 70  1  0
 71 65  1  0
 71 70  1  0
 72 65  2  0
 73 74  1  0
 75 76  2  0
 76 95  1  0
 77 76  1  0
 77 80  1  0
 78 75  1  0
 78 79  1  0
 79 77  2  0
 80 81  1  0
 81 82  2  0
 83 86  1  0
 83 82  1  0
 84 83  2  0
 85 84  1  0
 85 80  2  0
 86 87  1  0
 87 88  1  0
 88 89  2  0
 90 89  1  0
 90 94  1  0
 91 90  2  0
 92 87  2  0
 92 91  1  0
 93 92  1  0
 95 96  1  0
 96 99  1  0
 96 98  1  0
 97 95  2  0
100101  1  0
100 75  1  0
102100  1  0
M  ISO  4  10 101  11 101  65 100  73 100
M  END
>  <TORSDO>  (89) 
F 33

>  <SCORE>  (89) 
-6.319

>  <name>  (89) 
88

>  <ligand_id>  (89) 
88

>  <original_smiles>  (89) 
[H]c1nc(C([H])([H])OC([H])([H])C([H])([H])OC([H])([H])C([H])([H])OC([H])([H])C([H])([H])OC([H])([H])C([H])([H])OC([H])([H])C([H])([H])N([H])C(=O)N2C([H])([H])C([H])([H])C([H])([H])C([H])(n3nc(-c4c([H])c([H])c(Oc5c([H])c([H])c(F)c([H])c5F)c([H])c4[H])c(C(=O)N([H])[H])c3N([H])[H])C2([H])[H])c(C([H])([H])Oc2c([H])c([H])c3c(c2[H])C([H])([H])N(C(=O)C([H])(N([H])C(=O)C([H])(N([H])C([H])([H])[H])C([H])([H])[H])C(C([H])([H])[H])(C([H])([H])[H])C([H])([H])[H])C([H])(C(=O)N([H])C2([H])c4c([H])c([H])c([H])c([H])c4C([H])([H])C([H])([H])C2([H])[H])C3([H])[H])c([H])c1[H]

>  <smiles>  (89) 
[H]c1nc(C([H])([H])OC([H])([H])C([H])([H])OC([H])([H])C([H])([H])OC([H])([H])C([H])([H])OC([H])([H])C([H])([H])OC([H])([H])C([H])([H])N([H])C(=O)N2C([H])([H])C([H])([H])C([H])([H])C([H])(n3nc(-c4c([H])c([H])c(Oc5c([H])c([H])c(F)c([H])c5F)c([H])c4[H])c(C(=O)N([H])[H])c3N([H])[H])C2([H])[H])c(C([H])([H])Oc2c([H])c([H])c3c(c2[H])C([H])([H])N(C(=O)C([H])(N([H])C(=O)C([H])(N([H])C([H])([H])[H])C([H])([H])[H])C(C([H])([H])[H])(C([H])([H])[H])C([H])([H])[H])C([H])(C(=O)N([H])C2([H])c4c([H])c([H])c([H])c([H])c4C([H])([H])C([H])([H])C2([H])[H])C3([H])[H])c([H])c1[H]

$$$$
89:0:0
     RDKit          3D

 86 93  0  0  1  0  0  0  0  0999 V2000
  -28.1520  -24.0360   19.9640 C   0  0  0  0  0  2  0  0  0  0  0  0
  -28.3920  -25.3500   20.7900 C   0  0  0  0  0  2  0  0  0  0  0  0
  -28.3770  -26.6310   20.0960 O   0  0  0  0  0  0  0  0  0  0  0  0
  -24.5990  -31.8740   23.2160 C   0  0  0  0  0  0  0  0  0  0  0  0
  -27.2150  -27.3850   20.1400 C   0  0  0  0  0  0  0  0  0  0  0  0
  -23.3840  -30.4740   21.5800 C   0  0  0  0  0  3  0  0  0  0  0  0
  -24.8290  -28.9240   20.1520 C   0  0  0  0  0  0  0  0  0  0  0  0
  -25.9130  -30.8190   21.3710 C   0  0  0  0  0  2  0  0  0  0  0  0
  -25.9940  -29.4420   20.7330 C   0  0  0  0  0  0  0  0  0  0  0  0
  -27.1920  -28.6830   20.7140 C   0  0  0  0  0  3  0  0  0  0  0  0
  -26.0330  -26.8880   19.5570 C   0  0  0  0  0  3  0  0  0  0  0  0
  -24.8460  -27.6490   19.5580 C   0  0  0  0  0  3  0  0  0  0  0  0
  -23.5880  -29.7890   20.2000 C   0  0  0  0  0  2  0  0  0  0  0  0
  -24.6500  -31.0720   22.1130 N   0  0  0  0  0  0  0  0  0  0  0  0
  -23.5200  -32.1480   23.7600 O   0  0  0  0  0  0  0  0  0  0  0  0
  -22.7330  -29.4560   22.5450 C   0  0  0  0  0  0  0  0  0  0  0  0
  -21.4080  -29.2750   22.4230 N   0  0  0  0  0  0  0  0  0  0  0  0
  -23.4180  -28.8320   23.3590 O   0  0  0  0  0  0  0  0  0  0  0  0
  -20.9160  -29.8300   21.7370 H   0  0  0  0  0  0  0  0  0  0  0  0
  -18.0370  -28.0680   22.9220 C   0  0  0  0  0  0  0  0  0  0  0  0
  -20.5930  -28.3370   23.1960 C   0  0  0  0  0  3  0  0  0  0  0  0
  -20.7010  -26.9040   22.6240 C   0  0  0  0  0  2  0  0  0  0  0  0
  -19.6020  -26.5740   21.6090 C   0  0  0  0  0  2  0  0  0  0  0  0
  -18.2190  -26.7170   22.2510 C   0  0  0  0  0  2  0  0  0  0  0  0
  -19.1520  -28.8360   23.3510 C   0  0  0  0  0  0  0  0  0  0  0  0
  -18.9290  -30.1010   23.9370 C   0  0  0  0  0  3  0  0  0  0  0  0
  -17.6230  -30.5990   24.0990 C   0  0  0  0  0  3  0  0  0  0  0  0
  -16.5210  -29.8280   23.6870 C   0  0  0  0  0  3  0  0  0  0  0  0
  -16.7290  -28.5660   23.1040 C   0  0  0  0  0  3  0  0  0  0  0  0
  -25.8870  -32.5040   23.8300 C   0  0  0  0  0  3  0  0  0  0  0  0
  -26.4150  -31.7260   25.0990 C   0  0  1  0  0  0  0  0  0  0  0  0
  -25.3310  -31.4830   26.1750 C   0  0  0  0  0  1  0  0  0  0  0  0
  -26.9930  -30.3500   24.6930 C   0  0  0  0  0  1  0  0  0  0  0  0
  -27.5720  -32.5160   25.7540 C   0  0  0  0  0  1  0  0  0  0  0  0
  -25.5800  -33.9010   24.1710 N   0  0  0  0  0  0  0  0  0  0  0  0
  -25.9080  -34.9570   23.4150 C   0  0  0  0  0  0  0  0  0  0  0  0
  -26.5710  -34.8590   22.3790 O   0  0  0  0  0  0  0  0  0  0  0  0
  -24.9910  -34.0510   24.9760 H   0  0  0  0  0  0  0  0  0  0  0  0
  -24.1760  -36.7500   23.0790 C   0  0  0  0  0  1  0  0  0  0  0  0
  -25.4220  -36.3430   23.8810 C   0  0  0  0  0  3  0  0  0  0  0  0
  -27.5630  -37.2230   24.6990 C   0  0  0  0  0  1  0  0  0  0  0  0
  -26.4530  -37.3970   23.7660 N   0  0  0  0  0  0  0  0  0  0  0  0
  -26.0480  -38.3160   23.9220 H   0  0  0  0  0  0  0  0  0  0  0  0
  -28.9100  -22.8780   20.4230 O   0  0  0  0  0  0  0  0  0  0  0  0
  -28.3720  -21.5820   20.0450 C   0  0  0  0  0  2  0  0  0  0  0  0
  -29.4000  -20.4060   19.8200 C   0  0  0  0  0  2  0  0  0  0  0  0
  -29.3490  -19.2780   20.7360 O   0  0  0  0  0  0  0  0  0  0  0  0
  -29.7840  -18.0010   20.1830 C   0  0  0  0  0  2  0  0  0  0  0  0
  -30.1970  -16.9170   21.2400 C   0  0  0  0  0  2  0  0  0  0  0  0
  -29.7780  -15.5490   20.9980 O   0  0  0  0  0  0  0  0  0  0  0  0
  -30.6130  -14.5690   20.4860 C   0  0  0  0  0  0  0  0  0  0  0  0
  -30.3590  -12.3550   19.3530 C   0  0  0  0  0  2  0  0  0  0  0  0
  -29.4220  -12.5490   18.1410 C   0  0  0  0  0  2  0  0  0  0  0  0
  -27.9430  -12.4080   18.5590 C   0  0  0  0  0  2  0  0  0  0  0  0
  -27.5900  -13.2510   19.8140 C   0  0  0  0  0  3  0  0  0  0  0  0
  -28.6310  -13.0410   20.9330 C   0  0  0  0  0  2  0  0  0  0  0  0
  -29.9560  -13.3290   20.3760 N   0  0  0  0  0  0  0  0  0  0  0  0
  -31.7500  -14.7950   20.0640 O   0  0  0  0  0  0  0  0  0  0  0  0
  -25.1880  -13.8620   20.5000 C   0  0  0  0  0  0  0  0  0  0  0  0
  -24.1170  -13.0940   20.8650 C   0  0  0  0  0  0  0  0  0  0  0  0
  -24.5770  -11.7420   20.8520 C   0  0  0  0  0  0  0  0  0  0  0  0
  -26.2340  -12.9790   20.2830 N   0  0  0  0  0  0  0  0  0  0  0  0
  -25.8710  -11.6980   20.5550 N   0  0  0  0  0  0  0  0  0  0  0  0
  -23.8490  -10.4810   21.0480 C   0  0  0  0  0  0  0  0  0  0  0  0
  -24.2860   -9.5120   21.9780 C   0  0  0  0  0  3  0  0  0  0  0  0
  -23.5580   -8.3160   22.1610 C   0  0  0  0  0  3  0  0  0  0  0  0
  -22.3790   -8.0820   21.4130 C   0  0  0  0  0  0  0  0  0  0  0  0
  -21.9620   -9.0400   20.4730 C   0  0  0  0  0  3  0  0  0  0  0  0
  -22.6910  -10.2270   20.2880 C   0  0  0  0  0  3  0  0  0  0  0  0
  -21.6230   -6.9390   21.5050 O   0  0  0  0  0  0  0  0  0  0  0  0
  -21.5930   -6.1860   22.6520 C   0  0  0  0  0  0  0  0  0  0  0  0
  -21.2090   -6.7350   23.8940 C   0  0  0  0  0  3  0  0  0  0  0  0
  -21.1250   -5.9090   25.0330 C   0  0  0  0  0  3  0  0  0  0  0  0
  -21.4160   -4.5360   24.9310 C   0  0  0  0  0  0  0  0  0  0  0  0
  -21.7920   -3.9860   23.6930 C   0  0  0  0  0  3  0  0  0  0  0  0
  -21.8780   -4.8080   22.5560 C   0  0  0  0  0  0  0  0  0  0  0  0
  -22.2210   -4.2700   21.3610 F   0  0  0  0  0  0  0  0  0  0  0  0
  -21.3270   -3.7400   26.0220 F   0  0  0  0  0  0  0  0  0  0  0  0
  -22.7180  -13.5740   21.1220 C   0  0  0  0  0  0  0  0  0  0  0  0
  -21.9840  -12.8850   21.9900 N   0  0  0  0  0  0  0  0  0  0  0  0
  -22.2830  -14.5940   20.5890 O   0  0  0  0  0  0  0  0  0  0  0  0
  -22.3470  -12.0600   22.4420 H   0  0  0  0  0  0  0  0  0  0  0  0
  -21.0440  -13.1890   22.2050 H   0  0  0  0  0  0  0  0  0  0  0  0
  -25.3570  -15.2310   20.3150 N   0  0  0  0  0  0  0  0  0  0  0  0
  -24.5960  -15.8930   20.4210 H   0  0  0  0  0  0  0  0  0  0  0  0
  -26.2240  -15.6670   20.0240 H   0  0  0  0  0  0  0  0  0  0  0  0
  1 44  1  0
  1  2  1  0
  3  5  1  0
  3  2  1  0
  4 15  2  0
  5 10  1  0
  6 14  1  0
  6 16  1  0
  7 13  1  0
  7  9  1  0
  8 14  1  0
  9  8  1  0
 10  9  2  0
 11 12  1  0
 11  5  2  0
 12  7  2  0
 13  6  1  0
 14  4  1  0
 16 18  2  0
 17 16  1  0
 19 17  1  0
 20 29  2  0
 20 25  1  0
 21 17  1  0
 21 25  1  0
 22 21  1  0
 23 24  1  0
 23 22  1  0
 24 20  1  0
 25 26  2  0
 26 27  1  0
 28 27  2  0
 29 28  1  0
 30  4  1  0
 30 35  1  0
 30 31  1  0
 31 34  1  1
 31 32  1  0
 33 31  1  0
 35 38  1  0
 36 40  1  0
 36 35  1  0
 37 36  2  0
 40 39  1  0
 42 40  1  0
 42 43  1  0
 42 41  1  0
 45 44  1  0
 46 45  1  0
 46 47  1  0
 48 47  1  0
 48 49  1  0
 50 49  1  0
 51 50  1  0
 52 57  1  0
 53 54  1  0
 53 52  1  0
 55 54  1  0
 55 62  1  0
 55 56  1  0
 57 51  1  0
 57 56  1  0
 58 51  2  0
 59 60  2  0
 60 79  1  0
 61 60  1  0
 61 64  1  0
 62 59  1  0
 62 63  1  0
 63 61  2  0
 64 65  1  0
 65 66  2  0
 67 70  1  0
 67 66  1  0
 68 67  2  0
 69 68  1  0
 69 64  2  0
 70 71  1  0
 71 72  1  0
 72 73  2  0
 74 73  1  0
 74 78  1  0
 75 74  2  0
 76 71  2  0
 76 75  1  0
 77 76  1  0
 79 80  1  0
 80 83  1  0
 80 82  1  0
 81 79  2  0
 84 85  1  0
 84 59  1  0
 86 84  1  0
M  ISO  4   2 101   3 101  50 100  51 100
M  END
>  <TORSDO>  (90) 
F 24

>  <SCORE>  (90) 
-12.330

>  <name>  (90) 
89

>  <ligand_id>  (90) 
89

>  <original_smiles>  (90) 
[H]c1c([H])c([H])c2c(c1[H])C([H])([H])C([H])([H])C([H])([H])C2([H])N([H])C(=O)C1([H])N(C(=O)C([H])(N([H])C(=O)C([H])(N([H])C([H])([H])[H])C([H])([H])[H])C(C([H])([H])[H])(C([H])([H])[H])C([H])([H])[H])C([H])([H])c2c([H])c(OC([H])([H])C([H])([H])OC([H])([H])C([H])([H])OC([H])([H])C([H])([H])OC(=O)N3C([H])([H])C([H])([H])C([H])([H])C([H])(n4nc(-c5c([H])c([H])c(Oc6c([H])c([H])c(F)c([H])c6F)c([H])c5[H])c(C(=O)N([H])[H])c4N([H])[H])C3([H])[H])c([H])c([H])c2C1([H])[H]

>  <smiles>  (90) 
[H]c1c([H])c([H])c2c(c1[H])C([H])([H])C([H])([H])C([H])([H])C2([H])N([H])C(=O)C1([H])N(C(=O)C([H])(N([H])C(=O)C([H])(N([H])C([H])([H])[H])C([H])([H])[H])C(C([H])([H])[H])(C([H])([H])[H])C([H])([H])[H])C([H])([H])c2c([H])c(OC([H])([H])C([H])([H])OC([H])([H])C([H])([H])OC([H])([H])C([H])([H])OC(=O)N3C([H])([H])C([H])([H])C([H])([H])C([H])(n4nc(-c5c([H])c([H])c(Oc6c([H])c([H])c(F)c([H])c6F)c([H])c5[H])c(C(=O)N([H])[H])c4N([H])[H])C3([H])[H])c([H])c([H])c2C1([H])[H]

$$$$
90:0:0
     RDKit          3D

 94101  0  0  1  0  0  0  0  0999 V2000
  -28.7090  -23.5170   23.0520 C   0  0  0  0  0  2  0  0  0  0  0  0
  -28.4760  -24.9000   23.3060 O   0  0  0  0  0  0  0  0  0  0  0  0
  -29.1270  -25.8160   22.4350 C   0  0  0  0  0  2  0  0  0  0  0  0
  -28.4800  -25.8980   21.0300 C   0  0  0  0  0  3  0  0  0  0  0  0
  -28.4000  -24.5660   18.8110 C   0  0  0  0  0  1  0  0  0  0  0  0
  -30.5230  -25.7790   19.4760 C   0  0  0  0  0  1  0  0  0  0  0  0
  -29.2620  -25.0580   19.9850 C   0  0  0  0  0  3  0  0  0  0  0  0
  -28.4310  -27.2840   20.6550 O   0  0  0  0  0  0  0  0  0  0  0  0
  -23.9170  -32.0510   23.4130 C   0  0  0  0  0  0  0  0  0  0  0  0
  -27.1850  -27.8630   20.6160 C   0  0  0  0  0  0  0  0  0  0  0  0
  -22.9570  -30.4670   21.7770 C   0  0  0  0  0  3  0  0  0  0  0  0
  -24.6370  -29.0710   20.4780 C   0  0  0  0  0  0  0  0  0  0  0  0
  -25.4320  -31.1200   21.6660 C   0  0  0  0  0  2  0  0  0  0  0  0
  -25.7040  -29.7500   21.0810 C   0  0  0  0  0  0  0  0  0  0  0  0
  -26.9850  -29.1590   21.1370 C   0  0  0  0  0  3  0  0  0  0  0  0
  -26.0970  -27.1870   20.0240 C   0  0  0  0  0  3  0  0  0  0  0  0
  -24.8280  -27.7850   19.9460 C   0  0  0  0  0  3  0  0  0  0  0  0
  -23.3070  -29.7810   20.4330 C   0  0  0  0  0  2  0  0  0  0  0  0
  -24.1180  -31.2280   22.3460 N   0  0  0  0  0  0  0  0  0  0  0  0
  -22.7880  -32.2110   23.8980 O   0  0  0  0  0  0  0  0  0  0  0  0
  -22.3880  -29.4010   22.7430 C   0  0  0  0  0  0  0  0  0  0  0  0
  -21.0830  -29.1100   22.6140 N   0  0  0  0  0  0  0  0  0  0  0  0
  -23.1170  -28.8430   23.5690 O   0  0  0  0  0  0  0  0  0  0  0  0
  -20.5490  -29.6150   21.9170 H   0  0  0  0  0  0  0  0  0  0  0  0
  -17.8160  -27.6750   23.1320 C   0  0  0  0  0  0  0  0  0  0  0  0
  -20.3480  -28.1170   23.3930 C   0  0  0  0  0  3  0  0  0  0  0  0
  -20.5520  -26.6950   22.8180 C   0  0  0  0  0  2  0  0  0  0  0  0
  -19.4760  -26.2940   21.8060 C   0  0  0  0  0  2  0  0  0  0  0  0
  -18.0850  -26.3440   22.4480 C   0  0  0  0  0  2  0  0  0  0  0  0
  -18.8780  -28.5140   23.5610 C   0  0  0  0  0  0  0  0  0  0  0  0
  -18.5740  -29.7550   24.1570 C   0  0  0  0  0  3  0  0  0  0  0  0
  -17.2380  -30.1620   24.3300 C   0  0  0  0  0  3  0  0  0  0  0  0
  -16.1900  -29.3220   23.9180 C   0  0  0  0  0  3  0  0  0  0  0  0
  -16.4790  -28.0800   23.3250 C   0  0  0  0  0  3  0  0  0  0  0  0
  -25.0930  -32.8530   24.0570 C   0  0  0  0  0  3  0  0  0  0  0  0
  -25.6330  -32.1990   25.3860 C   0  0  1  0  0  0  0  0  0  0  0  0
  -24.5240  -31.8880   26.4200 C   0  0  0  0  0  1  0  0  0  0  0  0
  -26.3800  -30.8780   25.0830 C   0  0  0  0  0  1  0  0  0  0  0  0
  -26.6580  -33.1440   26.0570 C   0  0  0  0  0  1  0  0  0  0  0  0
  -24.6140  -34.2200   24.3050 N   0  0  0  0  0  0  0  0  0  0  0  0
  -24.8450  -35.2630   23.4940 C   0  0  0  0  0  0  0  0  0  0  0  0
  -25.5550  -35.1860   22.4880 O   0  0  0  0  0  0  0  0  0  0  0  0
  -23.9830  -34.3460   25.0840 H   0  0  0  0  0  0  0  0  0  0  0  0
  -22.9150  -36.8050   23.0200 C   0  0  0  0  0  1  0  0  0  0  0  0
  -24.1850  -36.6050   23.8610 C   0  0  0  0  0  3  0  0  0  0  0  0
  -26.1880  -37.7900   24.6470 C   0  0  0  0  0  1  0  0  0  0  0  0
  -25.0830  -37.7700   23.6930 N   0  0  0  0  0  0  0  0  0  0  0  0
  -24.5670  -38.6370   23.7920 H   0  0  0  0  0  0  0  0  0  0  0  0
  -27.5250  -22.9340   22.2660 C   0  0  0  0  0  2  0  0  0  0  0  0
  -27.5570  -21.4040   22.1120 C   0  0  0  0  0  2  0  0  0  0  0  0
  -28.6610  -20.9290   21.3390 O   0  0  0  0  0  0  0  0  0  0  0  0
  -28.4690  -19.5580   20.9880 C   0  0  0  0  0  2  0  0  0  0  0  0
  -29.6190  -18.9440   20.1620 C   0  0  0  0  0  2  0  0  0  0  0  0
  -30.4220  -18.0210   20.8930 O   0  0  0  0  0  0  0  0  0  0  0  0
  -31.4390  -18.6310   21.6760 C   0  0  0  0  0  2  0  0  0  0  0  0
  -32.2920  -17.5270   22.3250 C   0  0  0  0  0  2  0  0  0  0  0  0
  -34.1460  -16.0570   21.4860 C   0  0  0  0  0  0  0  0  0  0  0  0
  -36.0570  -15.0400   20.3030 C   0  0  0  0  0  2  0  0  0  0  0  0
  -36.8950  -16.1280   19.6020 C   0  0  0  0  0  2  0  0  0  0  0  0
  -36.3220  -16.4610   18.2100 C   0  0  0  0  0  2  0  0  0  0  0  0
  -34.7900  -16.7090   18.2370 C   0  0  0  0  0  3  0  0  0  0  0  0
  -34.0650  -15.5870   19.0120 C   0  0  0  0  0  2  0  0  0  0  0  0
  -34.6640  -15.5080   20.3560 N   0  0  0  0  0  0  0  0  0  0  0  0
  -34.6980  -15.9870   22.5860 O   0  0  0  0  0  0  0  0  0  0  0  0
  -33.0290  -16.7770   21.3050 N   0  0  0  0  0  0  0  0  0  0  0  0
  -32.6700  -16.8480   20.3630 H   0  0  0  0  0  0  0  0  0  0  0  0
  -33.5750  -17.9500   16.3380 C   0  0  0  0  0  0  0  0  0  0  0  0
  -33.3560  -17.6240   15.0280 C   0  0  0  0  0  0  0  0  0  0  0  0
  -33.9240  -16.3260   14.8430 C   0  0  0  0  0  0  0  0  0  0  0  0
  -34.2500  -16.8720   16.8900 N   0  0  0  0  0  0  0  0  0  0  0  0
  -34.4060  -15.8670   15.9900 N   0  0  0  0  0  0  0  0  0  0  0  0
  -34.0840  -15.5150   13.6290 C   0  0  0  0  0  0  0  0  0  0  0  0
  -33.6040  -14.1880   13.5590 C   0  0  0  0  0  3  0  0  0  0  0  0
  -33.7590  -13.4310   12.3780 C   0  0  0  0  0  3  0  0  0  0  0  0
  -34.3920  -14.0010   11.2480 C   0  0  0  0  0  0  0  0  0  0  0  0
  -34.8910  -15.3120   11.3310 C   0  0  0  0  0  3  0  0  0  0  0  0
  -34.7430  -16.0630   12.5100 C   0  0  0  0  0  3  0  0  0  0  0  0
  -34.6110  -13.3330   10.0680 O   0  0  0  0  0  0  0  0  0  0  0  0
  -33.7480  -12.3660    9.6200 C   0  0  0  0  0  0  0  0  0  0  0  0
  -32.3680  -12.6130    9.4510 C   0  0  0  0  0  3  0  0  0  0  0  0
  -31.5310  -11.6090    8.9230 C   0  0  0  0  0  3  0  0  0  0  0  0
  -32.0740  -10.3620    8.5560 C   0  0  0  0  0  0  0  0  0  0  0  0
  -33.4480  -10.1160    8.7180 C   0  0  0  0  0  3  0  0  0  0  0  0
  -34.2830  -11.1170    9.2480 C   0  0  0  0  0  0  0  0  0  0  0  0
  -35.6100  -10.8820    9.3850 F   0  0  0  0  0  0  0  0  0  0  0  0
  -31.2750   -9.3990    8.0390 F   0  0  0  0  0  0  0  0  0  0  0  0
  -32.7370  -18.4990   13.9750 C   0  0  0  0  0  0  0  0  0  0  0  0
  -32.0620  -17.9030   12.9980 N   0  0  0  0  0  0  0  0  0  0  0  0
  -32.8090  -19.7250   14.0450 O   0  0  0  0  0  0  0  0  0  0  0  0
  -31.9870  -16.8970   12.9570 H   0  0  0  0  0  0  0  0  0  0  0  0
  -31.6170  -18.4540   12.2790 H   0  0  0  0  0  0  0  0  0  0  0  0
  -33.2780  -19.0760   17.0970 N   0  0  0  0  0  0  0  0  0  0  0  0
  -32.8600  -19.9010   16.6820 H   0  0  0  0  0  0  0  0  0  0  0  0
  -33.5430  -19.2060   18.0650 H   0  0  0  0  0  0  0  0  0  0  0  0
  1  2  1  0
  3  2  1  0
  4  3  1  0
  5  7  1  0
  6  7  1  0
  7  4  1  0
  8  4  1  0
  9 20  2  0
 10  8  1  0
 10 15  1  0
 11 19  1  0
 11 21  1  0
 12 14  1  0
 13 19  1  0
 14 15  2  0
 14 13  1  0
 16 10  2  0
 17 16  1  0
 17 12  2  0
 18 12  1  0
 18 11  1  0
 19  9  1  0
 21 23  2  0
 22 21  1  0
 24 22  1  0
 25 34  2  0
 25 30  1  0
 26 22  1  0
 26 30  1  0
 27 26  1  0
 28 29  1  0
 28 27  1  0
 29 25  1  0
 30 31  2  0
 31 32  1  0
 33 32  2  0
 34 33  1  0
 35  9  1  0
 35 40  1  0
 35 36  1  0
 36 39  1  1
 36 37  1  0
 38 36  1  0
 40 43  1  0
 41 45  1  0
 41 40  1  0
 42 41  2  0
 45 44  1  0
 47 48  1  0
 47 45  1  0
 47 46  1  0
 49  1  1  0
 50 49  1  0
 51 50  1  0
 52 51  1  0
 53 54  1  0
 53 52  1  0
 54 55  1  0
 55 56  1  0
 57 64  2  0
 58 63  1  0
 59 58  1  0
 60 61  1  0
 60 59  1  0
 61 70  1  0
 61 62  1  0
 62 63  1  0
 63 57  1  0
 65 57  1  0
 65 56  1  0
 66 65  1  0
 67 70  1  0
 67 92  1  0
 68 67  2  0
 69 68  1  0
 69 71  2  0
 71 70  1  0
 72 69  1  0
 73 72  1  0
 74 73  2  0
 75 76  2  0
 75 74  1  0
 76 77  1  0
 77 72  2  0
 78 75  1  0
 79 78  1  0
 80 79  1  0
 81 80  2  0
 82 83  2  0
 82 81  1  0
 83 84  1  0
 84 85  1  0
 84 79  2  0
 86 82  1  0
 87 89  2  0
 87 68  1  0
 88 87  1  0
 90 88  1  0
 91 88  1  0
 92 94  1  0
 93 92  1  0
M  ISO  4   4 101   8 101  57 100  65 100
M  END
>  <TORSDO>  (91) 
F 28

>  <SCORE>  (91) 
13.604

>  <name>  (91) 
90

>  <ligand_id>  (91) 
90

>  <original_smiles>  (91) 
[H]c1c([H])c([H])c2c(c1[H])C([H])([H])C([H])([H])C([H])([H])C2([H])N([H])C(=O)C1([H])N(C(=O)C([H])(N([H])C(=O)C([H])(N([H])C([H])([H])[H])C([H])([H])[H])C(C([H])([H])[H])(C([H])([H])[H])C([H])([H])[H])C([H])([H])c2c([H])c(OC([H])(C([H])([H])OC([H])([H])C([H])([H])C([H])([H])OC([H])([H])C([H])([H])OC([H])([H])C([H])([H])N([H])C(=O)N3C([H])([H])C([H])([H])C([H])([H])C([H])(n4nc(-c5c([H])c([H])c(Oc6c([H])c([H])c(F)c([H])c6F)c([H])c5[H])c(C(=O)N([H])[H])c4N([H])[H])C3([H])[H])C([H])(C([H])([H])[H])C([H])([H])[H])c([H])c([H])c2C1([H])[H]

>  <smiles>  (91) 
[H]c1c([H])c([H])c2c(c1[H])C([H])([H])C([H])([H])C([H])([H])C2([H])N([H])C(=O)C1([H])N(C(=O)C([H])(N([H])C(=O)C([H])(N([H])C([H])([H])[H])C([H])([H])[H])C(C([H])([H])[H])(C([H])([H])[H])C([H])([H])[H])C([H])([H])c2c([H])c(OC([H])(C([H])([H])OC([H])([H])C([H])([H])C([H])([H])OC([H])([H])C([H])([H])OC([H])([H])C([H])([H])N([H])C(=O)N3C([H])([H])C([H])([H])C([H])([H])C([H])(n4nc(-c5c([H])c([H])c(Oc6c([H])c([H])c(F)c([H])c6F)c([H])c5[H])c(C(=O)N([H])[H])c4N([H])[H])C3([H])[H])C([H])(C([H])([H])[H])C([H])([H])[H])c([H])c([H])c2C1([H])[H]

$$$$
91:0:0
     RDKit          3D

 82 89  0  0  1  0  0  0  0  0999 V2000
  -28.1760  -25.6460   20.2760 O   0  0  0  0  0  0  0  0  0  0  0  0
  -24.6830  -31.8660   23.1840 C   0  0  0  0  0  0  0  0  0  0  0  0
  -27.1930  -26.8230   20.2170 C   0  0  0  0  0  0  0  0  0  0  0  0
  -23.4850  -30.4650   21.5560 C   0  0  0  0  0  3  0  0  0  0  0  0
  -24.9230  -28.8150   20.1490 C   0  0  0  0  0  0  0  0  0  0  0  0
  -26.0600  -30.6180   21.4210 C   0  0  0  0  0  2  0  0  0  0  0  0
  -26.1190  -29.1880   20.7740 C   0  0  0  0  0  0  0  0  0  0  0  0
  -27.2420  -28.2180   20.7750 C   0  0  0  0  0  3  0  0  0  0  0  0
  -25.9620  -26.6390   19.5390 C   0  0  0  0  0  3  0  0  0  0  0  0
  -24.8790  -27.5650   19.5080 C   0  0  0  0  0  3  0  0  0  0  0  0
  -23.7160  -29.7620   20.1880 C   0  0  0  0  0  2  0  0  0  0  0  0
  -24.7660  -31.0150   22.1060 N   0  0  0  0  0  0  0  0  0  0  0  0
  -23.5940  -32.1700   23.6980 O   0  0  0  0  0  0  0  0  0  0  0  0
  -22.7730  -29.4900   22.5330 C   0  0  0  0  0  0  0  0  0  0  0  0
  -21.4390  -29.3450   22.4170 N   0  0  0  0  0  0  0  0  0  0  0  0
  -23.4310  -28.8630   23.3670 O   0  0  0  0  0  0  0  0  0  0  0  0
  -20.9590  -29.9010   21.7230 H   0  0  0  0  0  0  0  0  0  0  0  0
  -18.0450  -28.1650   22.9510 C   0  0  0  0  0  0  0  0  0  0  0  0
  -20.6100  -28.4180   23.1970 C   0  0  0  0  0  3  0  0  0  0  0  0
  -20.6970  -26.9820   22.6290 C   0  0  0  0  0  2  0  0  0  0  0  0
  -19.5880  -26.6620   21.6220 C   0  0  0  0  0  2  0  0  0  0  0  0
  -18.2110  -26.8150   22.2740 C   0  0  0  0  0  2  0  0  0  0  0  0
  -19.1710  -28.9250   23.3700 C   0  0  0  0  0  0  0  0  0  0  0  0
  -18.9590  -30.1850   23.9680 C   0  0  0  0  0  3  0  0  0  0  0  0
  -17.6560  -30.6880   24.1490 C   0  0  0  0  0  3  0  0  0  0  0  0
  -16.5470  -29.9270   23.7430 C   0  0  0  0  0  3  0  0  0  0  0  0
  -16.7420  -28.6670   23.1510 C   0  0  0  0  0  3  0  0  0  0  0  0
  -25.9530  -32.5120   23.8160 C   0  0  0  0  0  3  0  0  0  0  0  0
  -26.4660  -31.7420   25.0980 C   0  0  1  0  0  0  0  0  0  0  0  0
  -25.3700  -31.5100   26.1650 C   0  0  0  0  0  1  0  0  0  0  0  0
  -27.0470  -30.3620   24.7200 C   0  0  0  0  0  1  0  0  0  0  0  0
  -27.6160  -32.5360   25.7590 C   0  0  0  0  0  1  0  0  0  0  0  0
  -25.6300  -33.9090   24.1670 N   0  0  0  0  0  0  0  0  0  0  0  0
  -25.9360  -34.9810   23.4250 C   0  0  0  0  0  0  0  0  0  0  0  0
  -26.5780  -34.9000   22.3750 O   0  0  0  0  0  0  0  0  0  0  0  0
  -25.0540  -34.0440   24.9850 H   0  0  0  0  0  0  0  0  0  0  0  0
  -24.1760  -36.7680   23.1750 C   0  0  0  0  0  1  0  0  0  0  0  0
  -25.4570  -36.3630   23.9220 C   0  0  0  0  0  3  0  0  0  0  0  0
  -27.6190  -37.2660   24.6640 C   0  0  0  0  0  1  0  0  0  0  0  0
  -26.4730  -37.4290   23.7730 N   0  0  0  0  0  0  0  0  0  0  0  0
  -26.0640  -38.3430   23.9470 H   0  0  0  0  0  0  0  0  0  0  0  0
  -27.9610  -23.9320   20.2030 C   0  0  0  0  0  3  0  0  0  0  0  0
  -28.9580  -22.3090   20.2870 C   0  0  0  0  0  3  0  0  0  0  0  0
  -28.6930  -20.4210   20.2880 C   0  0  0  0  0  3  0  0  0  0  0  0
  -29.6870  -18.7930   20.2970 C   0  0  0  0  0  3  0  0  0  0  0  0
  -29.4320  -17.0890   20.3700 O   0  0  0  0  0  0  0  0  0  0  0  0
  -30.3760  -15.5680   20.2340 C   0  0  0  0  0  0  0  0  0  0  0  0
  -30.4150  -13.0230   19.4300 C   0  0  0  0  0  2  0  0  0  0  0  0
  -29.5350  -12.7090   18.1890 C   0  0  0  0  0  2  0  0  0  0  0  0
  -28.0940  -12.3800   18.6120 C   0  0  0  0  0  2  0  0  0  0  0  0
  -27.5770  -13.3680   19.6870 C   0  0  0  0  0  3  0  0  0  0  0  0
  -28.5820  -13.6430   20.8230 C   0  0  0  0  0  2  0  0  0  0  0  0
  -29.8050  -14.1770   20.2080 N   0  0  0  0  0  0  0  0  0  0  0  0
  -31.5990  -15.5590   20.0190 O   0  0  0  0  0  0  0  0  0  0  0  0
  -25.2010  -13.8730   20.4230 C   0  0  0  0  0  0  0  0  0  0  0  0
  -24.1510  -13.0800   20.7860 C   0  0  0  0  0  0  0  0  0  0  0  0
  -24.6440  -11.7380   20.7770 C   0  0  0  0  0  0  0  0  0  0  0  0
  -26.2590  -13.0170   20.1930 N   0  0  0  0  0  0  0  0  0  0  0  0
  -25.9400  -11.7260   20.4780 N   0  0  0  0  0  0  0  0  0  0  0  0
  -23.9370  -10.4660   20.9720 C   0  0  0  0  0  0  0  0  0  0  0  0
  -24.3680   -9.5150   21.9250 C   0  0  0  0  0  3  0  0  0  0  0  0
  -23.6540   -8.3110   22.1080 C   0  0  0  0  0  3  0  0  0  0  0  0
  -22.4960   -8.0480   21.3400 C   0  0  0  0  0  0  0  0  0  0  0  0
  -22.0840   -8.9860   20.3760 C   0  0  0  0  0  3  0  0  0  0  0  0
  -22.7980  -10.1810   20.1920 C   0  0  0  0  0  3  0  0  0  0  0  0
  -21.7550   -6.8930   21.4300 O   0  0  0  0  0  0  0  0  0  0  0  0
  -21.6940   -6.1670   22.5930 C   0  0  0  0  0  0  0  0  0  0  0  0
  -21.2400   -6.7340   23.8030 C   0  0  0  0  0  3  0  0  0  0  0  0
  -21.1270   -5.9330   24.9570 C   0  0  0  0  0  3  0  0  0  0  0  0
  -21.4590   -4.5670   24.9020 C   0  0  0  0  0  0  0  0  0  0  0  0
  -21.9060   -3.9990   23.6960 C   0  0  0  0  0  3  0  0  0  0  0  0
  -22.0200   -4.7970   22.5440 C   0  0  0  0  0  0  0  0  0  0  0  0
  -22.4310   -4.2390   21.3800 F   0  0  0  0  0  0  0  0  0  0  0  0
  -21.3440   -3.7950   26.0090 F   0  0  0  0  0  0  0  0  0  0  0  0
  -22.7430  -13.5360   21.0290 C   0  0  0  0  0  0  0  0  0  0  0  0
  -22.0160  -12.8430   21.8980 N   0  0  0  0  0  0  0  0  0  0  0  0
  -22.2970  -14.5440   20.4840 O   0  0  0  0  0  0  0  0  0  0  0  0
  -22.3920  -12.0290   22.3610 H   0  0  0  0  0  0  0  0  0  0  0  0
  -21.0700  -13.1320   22.1040 H   0  0  0  0  0  0  0  0  0  0  0  0
  -25.3440  -15.2460   20.2370 N   0  0  0  0  0  0  0  0  0  0  0  0
  -24.5710  -15.8930   20.3490 H   0  0  0  0  0  0  0  0  0  0  0  0
  -26.2010  -15.6980   19.9430 H   0  0  0  0  0  0  0  0  0  0  0  0
  2 13  2  0
  3  1  1  0
  3  8  1  0
  4 12  1  0
  4 14  1  0
  5 11  1  0
  5  7  1  0
  6 12  1  0
  7  8  2  0
  7  6  1  0
  9  3  2  0
 10  9  1  0
 10  5  2  0
 11  4  1  0
 12  2  1  0
 14 16  2  0
 15 14  1  0
 17 15  1  0
 18 27  2  0
 18 23  1  0
 19 15  1  0
 19 23  1  0
 20 19  1  0
 21 22  1  0
 21 20  1  0
 22 18  1  0
 23 24  2  0
 24 25  1  0
 26 25  2  0
 27 26  1  0
 28  2  1  0
 28 33  1  0
 28 29  1  0
 29 32  1  1
 29 30  1  0
 31 29  1  0
 33 36  1  0
 34 38  1  0
 34 33  1  0
 35 34  2  0
 38 37  1  0
 40 38  1  0
 40 41  1  0
 40 39  1  0
 42  1  1  0
 42 43  2  0
 43 44  1  0
 44 45  2  0
 45 46  1  0
 47 46  1  0
 48 53  1  0
 49 50  1  0
 49 48  1  0
 51 50  1  0
 51 58  1  0
 51 52  1  0
 53 47  1  0
 53 52  1  0
 54 47  2  0
 55 56  2  0
 56 75  1  0
 57 56  1  0
 57 60  1  0
 58 55  1  0
 58 59  1  0
 59 57  2  0
 60 61  1  0
 61 62  2  0
 63 66  1  0
 63 62  1  0
 64 63  2  0
 65 64  1  0
 65 60  2  0
 66 67  1  0
 67 68  1  0
 68 69  2  0
 70 69  1  0
 70 74  1  0
 71 70  2  0
 72 67  2  0
 72 71  1  0
 73 72  1  0
 75 76  1  0
 76 79  1  0
 76 78  1  0
 77 75  2  0
 80 81  1  0
 80 55  1  0
 82 80  1  0
M  ISO  4   1 101  42 101  46 100  47 100
M  END
>  <TORSDO>  (92) 
F 20

>  <SCORE>  (92) 
-16.168

>  <name>  (92) 
91

>  <ligand_id>  (92) 
91

>  <original_smiles>  (92) 
[H]c1c([H])c([H])c2c(c1[H])C([H])([H])C([H])([H])C([H])([H])C2([H])N([H])C(=O)C1([H])N(C(=O)C([H])(N([H])C(=O)C([H])(N([H])C([H])([H])[H])C([H])([H])[H])C(C([H])([H])[H])(C([H])([H])[H])C([H])([H])[H])C([H])([H])c2c([H])c(OC([H])([H])C([H])([H])C([H])([H])C([H])([H])OC(=O)N3C([H])([H])C([H])([H])C([H])([H])C([H])(n4nc(-c5c([H])c([H])c(Oc6c([H])c([H])c(F)c([H])c6F)c([H])c5[H])c(C(=O)N([H])[H])c4N([H])[H])C3([H])[H])c([H])c([H])c2C1([H])[H]

>  <smiles>  (92) 
[H]c1c([H])c([H])c2c(c1[H])C([H])([H])C([H])([H])C([H])([H])C2([H])N([H])C(=O)C1([H])N(C(=O)C([H])(N([H])C(=O)C([H])(N([H])C([H])([H])[H])C([H])([H])[H])C(C([H])([H])[H])(C([H])([H])[H])C([H])([H])[H])C([H])([H])c2c([H])c(OC([H])([H])C([H])([H])C([H])([H])C([H])([H])OC(=O)N3C([H])([H])C([H])([H])C([H])([H])C([H])(n4nc(-c5c([H])c([H])c(Oc6c([H])c([H])c(F)c([H])c6F)c([H])c5[H])c(C(=O)N([H])[H])c4N([H])[H])C3([H])[H])c([H])c([H])c2C1([H])[H]

$$$$
