0:0:0
     RDKit          3D

 96105  0  0  1  0  0  0  0  0999 V2000
  -30.2900  -19.6170   19.4130 C   0  0  0  0  0  3  0  0  0  0  0  0
  -30.5550  -18.1910   19.6130 C   0  0  0  0  0  3  0  0  0  0  0  0
  -28.0270  -19.2400   19.9210 C   0  0  0  0  0  3  0  0  0  0  0  0
  -28.2590  -17.8220   20.1110 C   0  0  0  0  0  0  0  0  0  0  0  0
  -28.9900  -20.2210   19.5340 C   0  0  0  0  0  0  0  0  0  0  0  0
  -29.5570  -17.2030   19.9530 C   0  0  0  0  0  0  0  0  0  0  0  0
  -30.6160  -14.6440   19.7090 C   0  0  0  0  0  0  0  0  0  0  0  0
  -30.5820  -12.2520   18.8710 C   0  0  0  0  0  2  0  0  0  0  0  0
  -29.5570  -12.1320   17.7180 C   0  0  0  0  0  2  0  0  0  0  0  0
  -28.1330  -11.9000   18.2610 C   0  0  0  0  0  2  0  0  0  0  0  0
  -27.7860  -12.8590   19.4280 C   0  0  0  0  0  3  0  0  0  0  0  0
  -28.9160  -12.9100   20.4790 C   0  0  0  0  0  2  0  0  0  0  0  0
  -30.1330  -13.3430   19.7780 N   0  0  0  0  0  0  0  0  0  0  0  0
  -31.7520  -14.8270   19.2530 O   0  0  0  0  0  0  0  0  0  0  0  0
  -29.7190  -15.6820   20.0480 N   0  0  0  0  0  0  0  0  0  0  0  0
  -28.9110  -15.2380   20.4510 H   0  0  0  0  0  0  0  0  0  0  0  0
  -25.4780  -13.4280   20.3730 C   0  0  0  0  0  0  0  0  0  0  0  0
  -24.4530  -12.6470   20.8320 C   0  0  0  0  0  0  0  0  0  0  0  0
  -24.9080  -11.2970   20.7320 C   0  0  0  0  0  0  0  0  0  0  0  0
  -26.4940  -12.5540   20.0280 N   0  0  0  0  0  0  0  0  0  0  0  0
  -26.1650  -11.2670   20.3050 N   0  0  0  0  0  0  0  0  0  0  0  0
  -24.2030  -10.0290   20.9590 C   0  0  0  0  0  0  0  0  0  0  0  0
  -24.7020   -9.0540   21.8510 C   0  0  0  0  0  3  0  0  0  0  0  0
  -23.9960   -7.8520   22.0670 C   0  0  0  0  0  3  0  0  0  0  0  0
  -22.7760   -7.6140   21.3910 C   0  0  0  0  0  0  0  0  0  0  0  0
  -22.2950   -8.5770   20.4860 C   0  0  0  0  0  3  0  0  0  0  0  0
  -23.0010   -9.7720   20.2680 C   0  0  0  0  0  3  0  0  0  0  0  0
  -22.0350   -6.4630   21.5180 O   0  0  0  0  0  0  0  0  0  0  0  0
  -21.9000   -5.8240   22.7250 C   0  0  0  0  0  0  0  0  0  0  0  0
  -21.3760   -6.4810   23.8610 C   0  0  0  0  0  3  0  0  0  0  0  0
  -21.1890   -5.7680   25.0620 C   0  0  0  0  0  3  0  0  0  0  0  0
  -21.5160   -4.4000   25.1280 C   0  0  0  0  0  0  0  0  0  0  0  0
  -22.0340   -3.7450   23.9970 C   0  0  0  0  0  3  0  0  0  0  0  0
  -22.2220   -4.4540   22.7990 C   0  0  0  0  0  0  0  0  0  0  0  0
  -22.7000   -3.8130   21.7050 F   0  0  0  0  0  0  0  0  0  0  0  0
  -21.3310   -3.7130   26.2790 F   0  0  0  0  0  0  0  0  0  0  0  0
  -23.0850  -13.1190   21.2320 C   0  0  0  0  0  0  0  0  0  0  0  0
  -22.4970  -12.5020   22.2510 N   0  0  0  0  0  0  0  0  0  0  0  0
  -22.5550  -14.0760   20.6710 O   0  0  0  0  0  0  0  0  0  0  0  0
  -22.9430  -11.7300   22.7230 H   0  0  0  0  0  0  0  0  0  0  0  0
  -21.5860  -12.8060   22.5620 H   0  0  0  0  0  0  0  0  0  0  0  0
  -25.6310  -14.8020   20.1830 N   0  0  0  0  0  0  0  0  0  0  0  0
  -24.7110  -15.2230   20.0940 H   0  0  0  0  0  0  0  0  0  0  0  0
  -26.1680  -14.9880   19.3440 H   0  0  0  0  0  0  0  0  0  0  0  0
  -28.5180  -21.6100   19.2950 N   0  0  0  0  0  0  0  0  0  0  0  0
  -27.5040  -21.6710   19.3410 H   0  0  0  0  0  0  0  0  0  0  0  0
  -29.1140  -23.0320   19.1220 C   0  0  0  0  0  3  0  0  0  0  0  0
  -28.1120  -24.3790   19.2410 C   0  0  0  0  0  3  0  0  0  0  0  0
  -28.4770  -25.8890   19.3040 O   0  0  0  0  0  0  0  0  0  0  0  0
  -25.0600  -31.2540   23.0190 C   0  0  0  0  0  0  0  0  0  0  0  0
  -27.4550  -26.8990   19.3910 C   0  0  0  0  0  0  0  0  0  0  0  0
  -23.8090  -30.1430   21.2090 C   0  0  0  0  0  3  0  0  0  0  0  0
  -25.1990  -28.7180   19.5870 C   0  0  0  0  0  0  0  0  0  0  0  0
  -26.3720  -30.3240   21.0800 C   0  0  0  0  0  2  0  0  0  0  0  0
  -26.3910  -29.0310   20.2500 C   0  0  0  0  0  0  0  0  0  0  0  0
  -27.5210  -28.1400   20.1390 C   0  0  0  0  0  3  0  0  0  0  0  0
  -26.2440  -26.6980   18.6900 C   0  0  0  0  0  3  0  0  0  0  0  0
  -25.1380  -27.5660   18.7900 C   0  0  0  0  0  3  0  0  0  0  0  0
  -24.0080  -29.6480   19.7520 C   0  0  0  0  0  2  0  0  0  0  0  0
  -25.1000  -30.5880   21.8260 N   0  0  0  0  0  0  0  0  0  0  0  0
  -23.9850  -31.5120   23.5810 O   0  0  0  0  0  0  0  0  0  0  0  0
  -23.0860  -29.0440   22.0270 C   0  0  0  0  0  0  0  0  0  0  0  0
  -21.7450  -28.9990   21.9420 N   0  0  0  0  0  0  0  0  0  0  0  0
  -23.7330  -28.2400   22.7020 O   0  0  0  0  0  0  0  0  0  0  0  0
  -21.2820  -29.6990   21.3790 H   0  0  0  0  0  0  0  0  0  0  0  0
  -18.2920  -28.0500   22.4880 C   0  0  0  0  0  0  0  0  0  0  0  0
  -20.8770  -28.0150   22.5930 C   0  0  0  0  0  3  0  0  0  0  0  0
  -20.7870  -26.7140   21.7620 C   0  0  0  0  0  2  0  0  0  0  0  0
  -19.5980  -26.6930   20.7970 C   0  0  0  0  0  2  0  0  0  0  0  0
  -18.2810  -26.8430   21.5640 C   0  0  0  0  0  2  0  0  0  0  0  0
  -19.5100  -28.6100   22.9590 C   0  0  0  0  0  0  0  0  0  0  0  0
  -19.4640  -29.7500   23.7880 C   0  0  0  0  0  3  0  0  0  0  0  0
  -18.2330  -30.3300   24.1480 C   0  0  0  0  0  3  0  0  0  0  0  0
  -17.0300  -29.7640   23.6910 C   0  0  0  0  0  3  0  0  0  0  0  0
  -17.0610  -28.6250   22.8680 C   0  0  0  0  0  3  0  0  0  0  0  0
  -26.3620  -31.7450   23.7230 C   0  0  0  0  0  3  0  0  0  0  0  0
  -26.1050  -33.0960   24.2480 N   0  0  0  0  0  0  0  0  0  0  0  0
  -26.5020  -34.2320   23.6600 C   0  0  0  0  0  0  0  0  0  0  0  0
  -27.1910  -34.2480   22.6370 O   0  0  0  0  0  0  0  0  0  0  0  0
  -25.5000  -33.1590   25.0540 H   0  0  0  0  0  0  0  0  0  0  0  0
  -24.9020  -36.1690   23.5150 C   0  0  0  0  0  1  0  0  0  0  0  0
  -26.0690  -35.5620   24.3090 C   0  0  0  0  0  3  0  0  0  0  0  0
  -28.1920  -36.1770   25.3810 C   0  0  0  0  0  1  0  0  0  0  0  0
  -27.1650  -36.5510   24.4130 N   0  0  0  0  0  0  0  0  0  0  0  0
  -26.8020  -37.4650   24.6710 H   0  0  0  0  0  0  0  0  0  0  0  0
  -26.8390  -30.7860   24.8830 C   0  0  1  0  0  0  0  0  0  0  0  0
  -25.7350  -30.4640   25.9170 C   0  0  0  0  0  1  0  0  0  0  0  0
  -27.3520  -29.4440   24.3120 C   0  0  0  0  0  1  0  0  0  0  0  0
  -28.0270  -31.4270   25.6360 C   0  0  0  0  0  1  0  0  0  0  0  0
  -27.0400  -17.0050   20.5770 C   0  0  0  0  0  2  0  0  0  0  0  0
  -23.9110  -18.4770   19.1030 C   0  0  0  0  0  2  0  0  0  0  0  0
  -23.3820  -17.3750   20.0190 C   0  0  0  0  0  2  0  0  0  0  0  0
  -25.3890  -18.5610   19.4710 C   0  0  0  0  0  2  0  0  0  0  0  0
  -24.6080  -16.5060   20.3580 C   0  0  0  0  0  2  0  0  0  0  0  0
  -25.7970  -17.1720   19.7700 N   0  0  2  0  0  4  0  0  0  0  0  0
  -25.9190  -16.7170   18.8690 H   0  0  0  0  0  0  0  0  0  0  0  0
  1  5  2  0
  1  2  1  0
  2  6  2  0
  3  4  2  0
  4 90  1  0
  5  3  1  0
  6 15  1  0
  6  4  1  0
  7 13  1  0
  7 15  1  0
  8 13  1  0
  9 10  1  0
  9  8  1  0
 11 10  1  0
 11 20  1  0
 11 12  1  0
 13 12  1  0
 14  7  2  0
 15 16  1  0
 17 18  2  0
 18 37  1  0
 19 18  1  0
 19 22  1  0
 20 21  1  0
 20 17  1  0
 21 19  2  0
 22 23  1  0
 23 24  2  0
 25 28  1  0
 25 24  1  0
 26 25  2  0
 27 26  1  0
 27 22  2  0
 28 29  1  0
 29 34  2  0
 29 30  1  0
 30 31  2  0
 31 32  1  0
 32 36  1  0
 33 32  2  0
 34 33  1  0
 35 34  1  0
 37 38  1  0
 38 41  1  0
 38 40  1  0
 39 37  2  0
 42 17  1  0
 43 42  1  0
 44 42  1  0
 45 46  1  0
 45  5  1  0
 47 48  2  0
 47 45  1  0
 48 49  1  0
 49 51  1  0
 50 61  2  0
 51 56  1  0
 52 60  1  0
 52 62  1  0
 53 59  1  0
 53 55  1  0
 54 60  1  0
 55 54  1  0
 56 55  2  0
 57 58  1  0
 57 51  2  0
 58 53  2  0
 59 52  1  0
 60 50  1  0
 62 64  2  0
 63 62  1  0
 65 63  1  0
 66 75  2  0
 66 71  1  0
 67 63  1  0
 67 71  1  0
 68 67  1  0
 69 70  1  0
 69 68  1  0
 70 66  1  0
 71 72  2  0
 72 73  1  0
 74 73  2  0
 75 74  1  0
 76 50  1  0
 76 77  1  0
 76 86  1  0
 77 80  1  0
 78 77  1  0
 78 82  1  0
 79 78  2  0
 82 81  1  0
 82 84  1  0
 84 85  1  0
 84 83  1  0
 86 89  1  1
 86 87  1  0
 88 86  1  0
 91 93  1  0
 91 92  1  0
 92 94  1  0
 93 95  1  0
 95 94  1  0
 95 90  1  0
 95 96  1  6
M  ISO  4   7 100  15 100  48 101  49 101
M  END
>  <TORSDO>  (1) 
F 21

>  <SCORE>  (1) 
-7.172

>  <name>  (1) 
0

>  <ligand_id>  (1) 
0

>  <original_smiles>  (1) 
[H]c1c([H])c([H])c2c(c1[H])C([H])([H])C([H])([H])C([H])([H])C2([H])N([H])C(=O)C1([H])N(C(=O)C([H])(N([H])C(=O)C([H])(N([H])C([H])([H])[H])C([H])([H])[H])C(C([H])([H])[H])(C([H])([H])[H])C([H])([H])[H])C([H])([H])c2c([H])c(OC([H])([H])C([H])([H])N([H])c3c([H])c([H])c(N([H])C(=O)N4C([H])([H])C([H])([H])C([H])([H])C([H])(n5nc(-c6c([H])c([H])c(Oc7c([H])c([H])c(F)c([H])c7F)c([H])c6[H])c(C(=O)N([H])[H])c5N([H])[H])C4([H])[H])c(C([H])([H])[N+]4([H])C([H])([H])C([H])([H])C([H])([H])C4([H])[H])c3[H])c([H])c([H])c2C1([H])[H]

>  <smiles>  (1) 
[H]c1c([H])c([H])c2c(c1[H])C([H])([H])C([H])([H])C([H])([H])C2([H])N([H])C(=O)C1([H])N(C(=O)C([H])(N([H])C(=O)C([H])(N([H])C([H])([H])[H])C([H])([H])[H])C(C([H])([H])[H])(C([H])([H])[H])C([H])([H])[H])C([H])([H])c2c([H])c(OC([H])([H])C([H])([H])N([H])c3c([H])c([H])c(N([H])C(=O)N4C([H])([H])C([H])([H])C([H])([H])C([H])(n5nc(-c6c([H])c([H])c(Oc7c([H])c([H])c(F)c([H])c7F)c([H])c6[H])c(C(=O)N([H])[H])c5N([H])[H])C4([H])[H])c(C([H])([H])[N+]4([H])C([H])([H])C([H])([H])C([H])([H])C4([H])[H])c3[H])c([H])c([H])c2C1([H])[H]

$$$$
1:0:0
     RDKit          3D

 95104  0  0  1  0  0  0  0  0999 V2000
  -31.3200  -23.2020   19.8800 C   0  0  0  0  0  2  0  0  0  0  0  0
  -31.7530  -21.7370   19.7970 C   0  0  0  0  0  2  0  0  0  0  0  0
  -30.1960  -21.9950   21.6040 C   0  0  0  0  0  2  0  0  0  0  0  0
  -30.8300  -23.3740   21.3270 C   0  0  0  0  0  3  0  0  0  0  0  0
  -31.0250  -21.0560   20.8610 N   0  0  0  0  0  0  0  0  0  0  0  0
  -31.5720  -18.8440   19.9830 C   0  0  0  0  0  3  0  0  0  0  0  0
  -29.9010  -19.0370   21.7280 C   0  0  0  0  0  3  0  0  0  0  0  0
  -31.3910  -17.4520   19.9590 C   0  0  0  0  0  3  0  0  0  0  0  0
  -29.7250  -17.6360   21.7120 C   0  0  0  0  0  3  0  0  0  0  0  0
  -30.8280  -19.6600   20.8600 C   0  0  0  0  0  0  0  0  0  0  0  0
  -30.4700  -16.8220   20.8310 C   0  0  0  0  0  0  0  0  0  0  0  0
  -30.8350  -14.4420   20.1460 C   0  0  0  0  0  0  0  0  0  0  0  0
  -30.4290  -12.3550   18.9140 C   0  0  0  0  0  2  0  0  0  0  0  0
  -29.4250  -12.6370   17.7790 C   0  0  0  0  0  2  0  0  0  0  0  0
  -27.9790  -12.4840   18.2870 C   0  0  0  0  0  2  0  0  0  0  0  0
  -27.7210  -13.2600   19.6060 C   0  0  0  0  0  3  0  0  0  0  0  0
  -28.8360  -12.9800   20.6400 C   0  0  0  0  0  2  0  0  0  0  0  0
  -30.1320  -13.2880   20.0110 N   0  0  0  0  0  0  0  0  0  0  0  0
  -31.9250  -14.6130   19.5960 O   0  0  0  0  0  0  0  0  0  0  0  0
  -30.2200  -15.4140   20.8450 N   0  0  0  0  0  0  0  0  0  0  0  0
  -29.3930  -15.1150   21.3370 H   0  0  0  0  0  0  0  0  0  0  0  0
  -25.3570  -13.8300   20.4510 C   0  0  0  0  0  0  0  0  0  0  0  0
  -24.3160  -13.0400   20.8590 C   0  0  0  0  0  0  0  0  0  0  0  0
  -24.7860  -11.6940   20.7730 C   0  0  0  0  0  0  0  0  0  0  0  0
  -26.3960  -12.9650   20.1470 N   0  0  0  0  0  0  0  0  0  0  0  0
  -26.0570  -11.6730   20.3970 N   0  0  0  0  0  0  0  0  0  0  0  0
  -24.0820  -10.4200   20.9720 C   0  0  0  0  0  0  0  0  0  0  0  0
  -24.5300   -9.4680   21.9140 C   0  0  0  0  0  3  0  0  0  0  0  0
  -23.8260   -8.2580   22.1000 C   0  0  0  0  0  3  0  0  0  0  0  0
  -22.6580   -7.9940   21.3450 C   0  0  0  0  0  0  0  0  0  0  0  0
  -22.2290   -8.9350   20.3940 C   0  0  0  0  0  3  0  0  0  0  0  0
  -22.9340  -10.1360   20.2050 C   0  0  0  0  0  3  0  0  0  0  0  0
  -21.9250   -6.8370   21.4410 O   0  0  0  0  0  0  0  0  0  0  0  0
  -21.8260   -6.1420   22.6200 C   0  0  0  0  0  0  0  0  0  0  0  0
  -21.3080   -6.7320   23.7920 C   0  0  0  0  0  3  0  0  0  0  0  0
  -21.1610   -5.9620   24.9640 C   0  0  0  0  0  3  0  0  0  0  0  0
  -21.5210   -4.6000   24.9610 C   0  0  0  0  0  0  0  0  0  0  0  0
  -22.0320   -4.0100   23.7920 C   0  0  0  0  0  3  0  0  0  0  0  0
  -22.1810   -4.7770   22.6240 C   0  0  0  0  0  0  0  0  0  0  0  0
  -22.6540   -4.1970   21.4950 F   0  0  0  0  0  0  0  0  0  0  0  0
  -21.3720   -3.8570   26.0830 F   0  0  0  0  0  0  0  0  0  0  0  0
  -22.9310  -13.4970   21.2170 C   0  0  0  0  0  0  0  0  0  0  0  0
  -22.2580  -12.7760   22.1070 N   0  0  0  0  0  0  0  0  0  0  0  0
  -22.4560  -14.5280   20.7430 O   0  0  0  0  0  0  0  0  0  0  0  0
  -22.6560  -11.9420   22.5110 H   0  0  0  0  0  0  0  0  0  0  0  0
  -21.3320  -13.0650   22.3890 H   0  0  0  0  0  0  0  0  0  0  0  0
  -25.5020  -15.2060   20.2980 N   0  0  0  0  0  0  0  0  0  0  0  0
  -24.7360  -15.8520   20.4610 H   0  0  0  0  0  0  0  0  0  0  0  0
  -26.3330  -15.6590   19.9380 H   0  0  0  0  0  0  0  0  0  0  0  0
  -29.3840  -24.5780   22.9310 C   0  0  0  0  0  1  0  0  0  0  0  0
  -29.9250  -24.5420   21.5450 N   0  0  1  0  0  4  0  0  0  0  0  0
  -29.1300  -24.4100   20.9350 H   0  0  0  0  0  0  0  0  0  0  0  0
  -30.5590  -25.8330   21.1350 C   0  0  0  0  0  2  0  0  0  0  0  0
  -29.5790  -27.0130   21.0530 C   0  0  0  0  0  2  0  0  0  0  0  0
  -28.5290  -26.6730   20.1490 O   0  0  0  0  0  0  0  0  0  0  0  0
  -24.6860  -31.8430   23.2230 C   0  0  0  0  0  0  0  0  0  0  0  0
  -27.3910  -27.4490   20.1730 C   0  0  0  0  0  0  0  0  0  0  0  0
  -23.4970  -30.4460   21.5590 C   0  0  0  0  0  3  0  0  0  0  0  0
  -24.9730  -28.9150   20.1500 C   0  0  0  0  0  0  0  0  0  0  0  0
  -26.0160  -30.8230   21.3860 C   0  0  0  0  0  2  0  0  0  0  0  0
  -26.1150  -29.4540   20.7530 C   0  0  0  0  0  0  0  0  0  0  0  0
  -27.3230  -28.7330   20.7650 C   0  0  0  0  0  3  0  0  0  0  0  0
  -26.2360  -26.9200   19.5620 C   0  0  0  0  0  3  0  0  0  0  0  0
  -25.0250  -27.6430   19.5520 C   0  0  0  0  0  3  0  0  0  0  0  0
  -23.7230  -29.7650   20.1810 C   0  0  0  0  0  2  0  0  0  0  0  0
  -24.7500  -31.0520   22.1160 N   0  0  0  0  0  0  0  0  0  0  0  0
  -23.5990  -32.1120   23.7540 O   0  0  0  0  0  0  0  0  0  0  0  0
  -22.8380  -29.4230   22.5090 C   0  0  0  0  0  0  0  0  0  0  0  0
  -21.5100  -29.2640   22.3840 N   0  0  0  0  0  0  0  0  0  0  0  0
  -23.5150  -28.7750   23.3110 O   0  0  0  0  0  0  0  0  0  0  0  0
  -21.0270  -29.8390   21.7080 H   0  0  0  0  0  0  0  0  0  0  0  0
  -18.1130  -28.1530   22.9000 C   0  0  0  0  0  0  0  0  0  0  0  0
  -20.6800  -28.3310   23.1430 C   0  0  0  0  0  3  0  0  0  0  0  0
  -20.7340  -26.9130   22.5290 C   0  0  0  0  0  2  0  0  0  0  0  0
  -19.6090  -26.6490   21.5220 C   0  0  0  0  0  2  0  0  0  0  0  0
  -18.2410  -26.8180   22.1890 C   0  0  0  0  0  2  0  0  0  0  0  0
  -19.2590  -28.8720   23.3340 C   0  0  0  0  0  0  0  0  0  0  0  0
  -19.0850  -30.1260   23.9570 C   0  0  0  0  0  3  0  0  0  0  0  0
  -17.7990  -30.6620   24.1530 C   0  0  0  0  0  3  0  0  0  0  0  0
  -16.6670  -29.9400   23.7360 C   0  0  0  0  0  3  0  0  0  0  0  0
  -16.8250  -28.6870   23.1160 C   0  0  0  0  0  3  0  0  0  0  0  0
  -25.9660  -32.4680   23.8610 C   0  0  0  0  0  3  0  0  0  0  0  0
  -26.4900  -31.6690   25.1180 C   0  0  1  0  0  0  0  0  0  0  0  0
  -25.4000  -31.3970   26.1790 C   0  0  0  0  0  1  0  0  0  0  0  0
  -27.0840  -30.3080   24.6880 C   0  0  0  0  0  1  0  0  0  0  0  0
  -27.6340  -32.4560   25.8000 C   0  0  0  0  0  1  0  0  0  0  0  0
  -25.6490  -33.8560   24.2210 N   0  0  0  0  0  0  0  0  0  0  0  0
  -25.9630  -34.9240   23.4760 C   0  0  0  0  0  0  0  0  0  0  0  0
  -26.6220  -34.8450   22.4350 O   0  0  0  0  0  0  0  0  0  0  0  0
  -25.0620  -33.9910   25.0300 H   0  0  0  0  0  0  0  0  0  0  0  0
  -24.2090  -36.7000   23.1720 C   0  0  0  0  0  1  0  0  0  0  0  0
  -25.4660  -36.2990   23.9610 C   0  0  0  0  0  3  0  0  0  0  0  0
  -27.5990  -37.1970   24.7790 C   0  0  0  0  0  1  0  0  0  0  0  0
  -26.4840  -37.3650   23.8500 N   0  0  0  0  0  0  0  0  0  0  0  0
  -26.0690  -38.2790   24.0140 H   0  0  0  0  0  0  0  0  0  0  0  0
  1  4  1  0
  2  1  1  0
  2  5  1  0
  4 51  1  0
  4  3  1  0
  5  3  1  0
  6 10  1  0
  8  6  2  0
  8 11  1  0
  9  7  1  0
 10  5  1  0
 10  7  2  0
 11 20  1  0
 11  9  2  0
 12 20  1  0
 13 18  1  0
 14 15  1  0
 14 13  1  0
 16 15  1  0
 16 25  1  0
 16 17  1  0
 18 12  1  0
 18 17  1  0
 19 12  2  0
 20 21  1  0
 22 23  2  0
 23 42  1  0
 24 23  1  0
 24 27  1  0
 25 26  1  0
 25 22  1  0
 26 24  2  0
 27 28  1  0
 28 29  2  0
 30 33  1  0
 30 29  1  0
 31 30  2  0
 32 31  1  0
 32 27  2  0
 33 34  1  0
 34 39  2  0
 34 35  1  0
 35 36  2  0
 37 36  1  0
 37 41  1  0
 38 37  2  0
 39 38  1  0
 40 39  1  0
 42 43  1  0
 43 46  1  0
 43 45  1  0
 44 42  2  0
 47 22  1  0
 47 48  1  0
 49 47  1  0
 51 50  1  0
 51 52  1  6
 53 51  1  0
 54 53  1  0
 55 57  1  0
 55 54  1  0
 56 67  2  0
 57 62  1  0
 58 66  1  0
 58 68  1  0
 59 65  1  0
 59 61  1  0
 60 66  1  0
 61 62  2  0
 61 60  1  0
 63 57  2  0
 64 63  1  0
 64 59  2  0
 65 58  1  0
 66 56  1  0
 68 70  2  0
 69 68  1  0
 71 69  1  0
 72 81  2  0
 72 77  1  0
 73 69  1  0
 73 77  1  0
 74 73  1  0
 75 76  1  0
 75 74  1  0
 76 72  1  0
 77 78  2  0
 78 79  1  0
 80 79  2  0
 81 80  1  0
 82 56  1  0
 82 87  1  0
 82 83  1  0
 83 86  1  1
 83 84  1  0
 85 83  1  0
 87 90  1  0
 88 92  1  0
 88 87  1  0
 89 88  2  0
 92 91  1  0
 94 92  1  0
 94 95  1  0
 94 93  1  0
M  ISO  4  12 100  20 100  54 101  55 101
M  END
>  <TORSDO>  (2) 
F 20

>  <SCORE>  (2) 
-13.300

>  <name>  (2) 
1

>  <ligand_id>  (2) 
1

>  <original_smiles>  (2) 
[H]c1c([H])c([H])c2c(c1[H])C([H])([H])C([H])([H])C([H])([H])C2([H])N([H])C(=O)C1([H])N(C(=O)C([H])(N([H])C(=O)C([H])(N([H])C([H])([H])[H])C([H])([H])[H])C(C([H])([H])[H])(C([H])([H])[H])C([H])([H])[H])C([H])([H])c2c([H])c(OC([H])([H])C([H])([H])[N+]([H])(C([H])([H])[H])C3([H])C([H])([H])N(c4c([H])c([H])c(N([H])C(=O)N5C([H])([H])C([H])([H])C([H])([H])C([H])(n6nc(-c7c([H])c([H])c(Oc8c([H])c([H])c(F)c([H])c8F)c([H])c7[H])c(C(=O)N([H])[H])c6N([H])[H])C5([H])[H])c([H])c4[H])C([H])([H])C3([H])[H])c([H])c([H])c2C1([H])[H]

>  <smiles>  (2) 
[H]c1c([H])c([H])c2c(c1[H])C([H])([H])C([H])([H])C([H])([H])C2([H])N([H])C(=O)C1([H])N(C(=O)C([H])(N([H])C(=O)C([H])(N([H])C([H])([H])[H])C([H])([H])[H])C(C([H])([H])[H])(C([H])([H])[H])C([H])([H])[H])C([H])([H])c2c([H])c(OC([H])([H])C([H])([H])[N+]([H])(C([H])([H])[H])C3([H])C([H])([H])N(c4c([H])c([H])c(N([H])C(=O)N5C([H])([H])C([H])([H])C([H])([H])C([H])(n6nc(-c7c([H])c([H])c(Oc8c([H])c([H])c(F)c([H])c8F)c([H])c7[H])c(C(=O)N([H])[H])c6N([H])[H])C5([H])[H])c([H])c4[H])C([H])([H])C3([H])[H])c([H])c([H])c2C1([H])[H]

$$$$
2:0:0
     RDKit          3D

100110  0  0  1  0  0  0  0  0999 V2000
  -28.2700  -19.6210   17.5490 C   0  0  0  0  0  3  0  0  0  0  0  0
  -28.2580  -20.8190   18.2720 C   0  0  0  0  0  3  0  0  0  0  0  0
  -29.1230  -18.5720   17.9240 C   0  0  0  0  0  0  0  0  0  0  0  0
  -29.9120  -18.6590   19.1080 C   0  0  0  0  0  0  0  0  0  0  0  0
  -29.7600  -19.8300   19.9370 C   0  0  0  0  0  0  0  0  0  0  0  0
  -29.0290  -20.9680   19.4420 C   0  0  0  0  0  0  0  0  0  0  0  0
  -29.3280  -17.4610   16.9070 C   0  0  0  0  0  2  0  0  0  0  0  0
  -30.5490  -17.7800   16.0290 C   0  0  0  0  0  2  0  0  0  0  0  0
  -31.7250  -18.3550   16.8440 C   0  0  0  0  0  2  0  0  0  0  0  0
  -32.0200  -17.5040   18.0910 C   0  0  0  0  0  2  0  0  0  0  0  0
  -31.0400  -17.5890   19.3270 C   0  0  0  0  0  3  0  0  0  0  0  0
  -31.3530  -15.1970   20.2200 C   0  0  0  0  0  0  0  0  0  0  0  0
  -31.1900  -12.8530   19.5320 C   0  0  0  0  0  2  0  0  0  0  0  0
  -30.3200  -12.8070   18.2610 C   0  0  0  0  0  2  0  0  0  0  0  0
  -28.8320  -12.6670   18.6420 C   0  0  0  0  0  2  0  0  0  0  0  0
  -28.3780  -13.6900   19.7190 C   0  0  0  0  0  3  0  0  0  0  0  0
  -29.3830  -13.7750   20.8870 C   0  0  0  0  0  2  0  0  0  0  0  0
  -30.7140  -14.0030   20.3130 N   0  0  0  0  0  0  0  0  0  0  0  0
  -32.5800  -15.2690   20.1750 O   0  0  0  0  0  0  0  0  0  0  0  0
  -30.5860  -16.2550   19.8350 N   0  0  0  0  0  0  0  0  0  0  0  0
  -29.5930  -16.0910   19.8090 H   0  0  0  0  0  0  0  0  0  0  0  0
  -25.9810  -14.3010   20.4110 C   0  0  0  0  0  0  0  0  0  0  0  0
  -24.9030  -13.5310   20.7520 C   0  0  0  0  0  0  0  0  0  0  0  0
  -25.3570  -12.1770   20.7170 C   0  0  0  0  0  0  0  0  0  0  0  0
  -27.0220  -13.4150   20.1860 N   0  0  0  0  0  0  0  0  0  0  0  0
  -26.6520  -12.1320   20.4370 N   0  0  0  0  0  0  0  0  0  0  0  0
  -24.6170  -10.9170   20.8800 C   0  0  0  0  0  0  0  0  0  0  0  0
  -24.9570   -9.9860   21.8830 C   0  0  0  0  0  3  0  0  0  0  0  0
  -24.2190   -8.7910   22.0310 C   0  0  0  0  0  3  0  0  0  0  0  0
  -23.1260   -8.5210   21.1740 C   0  0  0  0  0  0  0  0  0  0  0  0
  -22.8080   -9.4410   20.1590 C   0  0  0  0  0  3  0  0  0  0  0  0
  -23.5470  -10.6270   20.0110 C   0  0  0  0  0  3  0  0  0  0  0  0
  -22.3670   -7.3760   21.2280 O   0  0  0  0  0  0  0  0  0  0  0  0
  -22.0830   -6.7580   22.4180 C   0  0  0  0  0  0  0  0  0  0  0  0
  -21.3990   -7.4240   23.4590 C   0  0  0  0  0  3  0  0  0  0  0  0
  -21.0630   -6.7290   24.6380 C   0  0  0  0  0  3  0  0  0  0  0  0
  -21.4020   -5.3690   24.7750 C   0  0  0  0  0  0  0  0  0  0  0  0
  -22.0780   -4.7040   23.7380 C   0  0  0  0  0  3  0  0  0  0  0  0
  -22.4140   -5.3960   22.5610 C   0  0  0  0  0  0  0  0  0  0  0  0
  -23.0470   -4.7450   21.5560 F   0  0  0  0  0  0  0  0  0  0  0  0
  -21.0730   -4.6990   25.9050 F   0  0  0  0  0  0  0  0  0  0  0  0
  -23.5040  -14.0130   21.0000 C   0  0  0  0  0  0  0  0  0  0  0  0
  -22.7660  -13.3330   21.8700 N   0  0  0  0  0  0  0  0  0  0  0  0
  -23.0730  -15.0280   20.4530 O   0  0  0  0  0  0  0  0  0  0  0  0
  -23.1240  -12.5090   22.3270 H   0  0  0  0  0  0  0  0  0  0  0  0
  -21.8250  -13.6410   22.0780 H   0  0  0  0  0  0  0  0  0  0  0  0
  -26.1590  -15.6710   20.2490 N   0  0  0  0  0  0  0  0  0  0  0  0
  -25.3920  -16.3280   20.3430 H   0  0  0  0  0  0  0  0  0  0  0  0
  -27.0090  -16.1090   19.9180 H   0  0  0  0  0  0  0  0  0  0  0  0
  -30.6870  -21.4470   23.2140 C   0  0  0  0  0  2  0  0  0  0  0  0
  -31.9900  -20.7060   22.9100 C   0  0  0  0  0  2  0  0  0  0  0  0
  -29.6090  -20.7440   22.3760 C   0  0  0  0  0  2  0  0  0  0  0  0
  -31.8420  -20.2480   21.4570 C   0  0  0  0  0  2  0  0  0  0  0  0
  -30.3610  -19.8550   21.3580 C   0  0  0  0  0  3  0  0  0  0  0  0
  -29.0530  -22.2400   20.0690 N   0  0  0  0  0  0  0  0  0  0  0  0
  -29.7610  -22.3150   20.7950 H   0  0  0  0  0  0  0  0  0  0  0  0
  -28.9100  -23.4470   19.2280 C   0  0  0  0  0  2  0  0  0  0  0  0
  -28.6850  -24.7790   20.0080 C   0  0  0  0  0  2  0  0  0  0  0  0
  -28.7300  -26.0420   19.0920 C   0  0  0  0  0  2  0  0  0  0  0  0
  -28.6120  -27.3160   19.7630 O   0  0  0  0  0  0  0  0  0  0  0  0
  -24.5760  -31.9600   23.3890 C   0  0  0  0  0  0  0  0  0  0  0  0
  -27.3970  -27.9800   19.8240 C   0  0  0  0  0  0  0  0  0  0  0  0
  -23.4300  -30.6940   21.6010 C   0  0  0  0  0  3  0  0  0  0  0  0
  -24.9420  -29.3890   20.0170 C   0  0  0  0  0  0  0  0  0  0  0  0
  -25.9420  -31.1760   21.4490 C   0  0  0  0  0  2  0  0  0  0  0  0
  -26.0810  -29.8860   20.6580 C   0  0  0  0  0  0  0  0  0  0  0  0
  -27.3100  -29.1900   20.5590 C   0  0  0  0  0  3  0  0  0  0  0  0
  -26.2300  -27.4960   19.1910 C   0  0  0  0  0  3  0  0  0  0  0  0
  -25.0120  -28.1930   19.2840 C   0  0  0  0  0  3  0  0  0  0  0  0
  -23.6650  -30.1860   20.1550 C   0  0  0  0  0  2  0  0  0  0  0  0
  -24.6670  -31.2870   22.2040 N   0  0  0  0  0  0  0  0  0  0  0  0
  -23.4860  -32.1230   23.9520 O   0  0  0  0  0  0  0  0  0  0  0  0
  -22.8260  -29.5440   22.4390 C   0  0  0  0  0  0  0  0  0  0  0  0
  -21.5090  -29.3330   22.3030 N   0  0  0  0  0  0  0  0  0  0  0  0
  -23.5430  -28.8530   23.1690 O   0  0  0  0  0  0  0  0  0  0  0  0
  -20.9910  -29.9450   21.6870 H   0  0  0  0  0  0  0  0  0  0  0  0
  -18.1950  -27.9290   22.6460 C   0  0  0  0  0  0  0  0  0  0  0  0
  -20.7350  -28.2810   22.9660 C   0  0  0  0  0  3  0  0  0  0  0  0
  -20.9110  -26.9240   22.2450 C   0  0  0  0  0  2  0  0  0  0  0  0
  -19.8300  -26.6560   21.1930 C   0  0  0  0  0  2  0  0  0  0  0  0
  -18.4390  -26.6680   21.8350 C   0  0  0  0  0  2  0  0  0  0  0  0
  -19.2730  -28.6960   23.1630 C   0  0  0  0  0  0  0  0  0  0  0  0
  -18.9920  -29.8770   23.8820 C   0  0  0  0  0  3  0  0  0  0  0  0
  -17.6650  -30.2960   24.0850 C   0  0  0  0  0  3  0  0  0  0  0  0
  -16.5990  -29.5270   23.5840 C   0  0  0  0  0  3  0  0  0  0  0  0
  -16.8660  -28.3430   22.8730 C   0  0  0  0  0  3  0  0  0  0  0  0
  -25.8330  -32.5770   24.0760 C   0  0  0  0  0  3  0  0  0  0  0  0
  -25.5060  -33.9610   24.4420 N   0  0  0  0  0  0  0  0  0  0  0  0
  -25.9230  -35.0440   23.7710 C   0  0  0  0  0  0  0  0  0  0  0  0
  -26.6950  -34.9800   22.8110 O   0  0  0  0  0  0  0  0  0  0  0  0
  -24.8380  -34.0840   25.1890 H   0  0  0  0  0  0  0  0  0  0  0  0
  -24.2730  -36.8820   23.3030 C   0  0  0  0  0  1  0  0  0  0  0  0
  -25.4010  -36.4160   24.2380 C   0  0  0  0  0  3  0  0  0  0  0  0
  -27.4320  -37.2120   25.3680 C   0  0  0  0  0  1  0  0  0  0  0  0
  -26.4540  -37.4530   24.3090 N   0  0  0  0  0  0  0  0  0  0  0  0
  -26.0470  -38.3710   24.4580 H   0  0  0  0  0  0  0  0  0  0  0  0
  -26.3130  -31.7620   25.3390 C   0  0  1  0  0  0  0  0  0  0  0  0
  -25.1900  -31.5020   26.3700 C   0  0  0  0  0  1  0  0  0  0  0  0
  -26.8960  -30.3930   24.9200 C   0  0  0  0  0  1  0  0  0  0  0  0
  -27.4490  -32.5280   26.0560 C   0  0  0  0  0  1  0  0  0  0  0  0
  1  3  2  0
  1  2  1  0
  2  6  2  0
  3  4  1  0
  4 11  1  0
  4  5  2  0
  5 54  1  0
  6  5  1  0
  6 55  1  0
  7  3  1  0
  8  9  1  0
  8  7  1  0
  9 10  1  0
 10 11  1  0
 11 20  1  0
 12 18  1  0
 13 18  1  0
 14 15  1  0
 14 13  1  0
 16 15  1  0
 16 25  1  0
 16 17  1  0
 18 17  1  0
 19 12  2  0
 20 12  1  0
 21 20  1  0
 22 23  2  0
 23 42  1  0
 24 23  1  0
 24 27  1  0
 25 22  1  0
 25 26  1  0
 26 24  2  0
 27 28  1  0
 28 29  2  0
 30 33  1  0
 30 29  1  0
 31 30  2  0
 32 31  1  0
 32 27  2  0
 33 34  1  0
 34 39  2  0
 34 35  1  0
 35 36  2  0
 36 37  1  0
 37 41  1  0
 38 37  2  0
 39 38  1  0
 40 39  1  0
 42 43  1  0
 43 46  1  0
 43 45  1  0
 44 42  2  0
 47 48  1  0
 47 22  1  0
 49 47  1  0
 51 50  1  0
 52 50  1  0
 53 51  1  0
 54 53  1  0
 54 52  1  0
 55 56  1  0
 57 58  1  0
 57 55  1  0
 59 60  1  0
 59 58  1  0
 60 62  1  0
 61 72  2  0
 62 67  1  0
 63 71  1  0
 63 73  1  0
 64 70  1  0
 64 66  1  0
 65 71  1  0
 66 65  1  0
 67 66  2  0
 68 69  1  0
 68 62  2  0
 69 64  2  0
 70 63  1  0
 71 61  1  0
 73 75  2  0
 74 73  1  0
 76 74  1  0
 77 86  2  0
 77 82  1  0
 78 74  1  0
 78 82  1  0
 79 78  1  0
 80 81  1  0
 80 79  1  0
 81 77  1  0
 82 83  2  0
 83 84  1  0
 85 84  2  0
 86 85  1  0
 87 61  1  0
 87 88  1  0
 87 97  1  0
 88 91  1  0
 89 93  1  0
 89 88  1  0
 90 89  2  0
 93 92  1  0
 93 95  1  0
 95 96  1  0
 95 94  1  0
 97100  1  1
 97 98  1  0
 99 97  1  0
M  ISO  4  12 100  20 100  59 101  60 101
M  END
>  <TORSDO>  (3) 
F 21

>  <SCORE>  (3) 
-11.114

>  <name>  (3) 
2

>  <ligand_id>  (3) 
2

>  <original_smiles>  (3) 
[H]c1c([H])c([H])c2c(c1[H])C([H])([H])C([H])([H])C([H])([H])C2([H])N([H])C(=O)C1([H])N(C(=O)C([H])(N([H])C(=O)C([H])(N([H])C([H])([H])[H])C([H])([H])[H])C(C([H])([H])[H])(C([H])([H])[H])C([H])([H])[H])C([H])([H])c2c([H])c(OC([H])([H])C([H])([H])C([H])([H])N([H])c3c([H])c([H])c4c(c3C3([H])C([H])([H])C([H])([H])C([H])([H])C3([H])[H])C([H])(N([H])C(=O)N3C([H])([H])C([H])([H])C([H])([H])C([H])(n5nc(-c6c([H])c([H])c(Oc7c([H])c([H])c(F)c([H])c7F)c([H])c6[H])c(C(=O)N([H])[H])c5N([H])[H])C3([H])[H])C([H])([H])C([H])([H])C([H])([H])C4([H])[H])c([H])c([H])c2C1([H])[H]

>  <smiles>  (3) 
[H]c1c([H])c([H])c2c(c1[H])C([H])([H])C([H])([H])C([H])([H])C2([H])N([H])C(=O)C1([H])N(C(=O)C([H])(N([H])C(=O)C([H])(N([H])C([H])([H])[H])C([H])([H])[H])C(C([H])([H])[H])(C([H])([H])[H])C([H])([H])[H])C([H])([H])c2c([H])c(OC([H])([H])C([H])([H])C([H])([H])N([H])c3c([H])c([H])c4c(c3C3([H])C([H])([H])C([H])([H])C([H])([H])C3([H])[H])C([H])(N([H])C(=O)N3C([H])([H])C([H])([H])C([H])([H])C([H])(n5nc(-c6c([H])c([H])c(Oc7c([H])c([H])c(F)c([H])c7F)c([H])c6[H])c(C(=O)N([H])[H])c5N([H])[H])C3([H])[H])C([H])([H])C([H])([H])C([H])([H])C4([H])[H])c([H])c([H])c2C1([H])[H]

$$$$
3:0:0
     RDKit          3D

102111  0  0  1  0  0  0  0  0999 V2000
  -29.2750  -23.0210   17.6830 C   0  0  0  0  0  0  0  0  0  0  0  0
  -27.4370  -24.2280   16.5840 C   0  0  0  0  0  1  0  0  0  0  0  0
  -28.6460  -24.1920   17.4280 N   0  0  0  0  0  0  0  0  0  0  0  0
  -30.2170  -22.9550   18.4800 O   0  0  0  0  0  0  0  0  0  0  0  0
  -28.8040  -21.7350   16.9710 C   0  0  0  0  0  2  0  0  0  0  0  0
  -32.1090  -18.5290   18.8540 C   0  0  0  0  0  3  0  0  0  0  0  0
  -32.1070  -17.6840   19.9850 C   0  0  0  0  0  3  0  0  0  0  0  0
  -29.7180  -18.1280   20.3800 C   0  0  0  0  0  3  0  0  0  0  0  0
  -30.9010  -19.1590   18.5180 C   0  0  0  0  0  0  0  0  0  0  0  0
  -29.7510  -18.9820   19.2660 C   0  0  0  0  0  0  0  0  0  0  0  0
  -30.9190  -17.4700   20.7360 C   0  0  0  0  0  0  0  0  0  0  0  0
  -30.6410  -20.1150   17.4190 C   0  0  0  0  0  0  0  0  0  0  0  0
  -28.6670  -19.8520   18.6860 C   0  0  0  0  0  2  0  0  0  0  0  0
  -29.3700  -20.5340   17.5810 N   0  0  0  0  0  0  0  0  0  0  0  0
  -31.4670  -20.4840   16.5780 O   0  0  0  0  0  0  0  0  0  0  0  0
  -30.9280  -16.4720   21.8840 C   0  0  0  0  0  2  0  0  0  0  0  0
  -30.8200  -14.3390   20.6160 C   0  0  0  0  0  0  0  0  0  0  0  0
  -30.4360  -12.2660   19.3450 C   0  0  0  0  0  2  0  0  0  0  0  0
  -29.5210  -12.5210   18.1330 C   0  0  0  0  0  2  0  0  0  0  0  0
  -28.0400  -12.4090   18.5380 C   0  0  0  0  0  2  0  0  0  0  0  0
  -27.7020  -13.2410   19.8040 C   0  0  0  0  0  3  0  0  0  0  0  0
  -28.7250  -12.9660   20.9280 C   0  0  0  0  0  2  0  0  0  0  0  0
  -30.0760  -13.2260   20.3980 N   0  0  0  0  0  0  0  0  0  0  0  0
  -31.8870  -14.5570   20.0350 O   0  0  0  0  0  0  0  0  0  0  0  0
  -30.3190  -15.2000   21.5080 N   0  0  0  0  0  0  0  0  0  0  0  0
  -29.4450  -14.9550   21.9480 H   0  0  0  0  0  0  0  0  0  0  0  0
  -25.2920  -13.8940   20.4370 C   0  0  0  0  0  0  0  0  0  0  0  0
  -24.2050  -13.1410   20.7970 C   0  0  0  0  0  0  0  0  0  0  0  0
  -24.6520  -11.7850   20.8050 C   0  0  0  0  0  0  0  0  0  0  0  0
  -26.3330  -12.9960   20.2520 N   0  0  0  0  0  0  0  0  0  0  0  0
  -25.9470  -11.7240   20.5290 N   0  0  0  0  0  0  0  0  0  0  0  0
  -23.9070  -10.5350   21.0050 C   0  0  0  0  0  0  0  0  0  0  0  0
  -24.3150   -9.5760   21.9600 C   0  0  0  0  0  3  0  0  0  0  0  0
  -23.5730   -8.3900   22.1460 C   0  0  0  0  0  3  0  0  0  0  0  0
  -22.4080   -8.1530   21.3790 C   0  0  0  0  0  0  0  0  0  0  0  0
  -22.0180   -9.1010   20.4160 C   0  0  0  0  0  3  0  0  0  0  0  0
  -22.7610  -10.2780   20.2270 C   0  0  0  0  0  3  0  0  0  0  0  0
  -21.6380   -7.0190   21.4740 O   0  0  0  0  0  0  0  0  0  0  0  0
  -21.5750   -6.2870   22.6320 C   0  0  0  0  0  0  0  0  0  0  0  0
  -21.1590   -6.8600   23.8530 C   0  0  0  0  0  3  0  0  0  0  0  0
  -21.0420   -6.0550   25.0050 C   0  0  0  0  0  3  0  0  0  0  0  0
  -21.3300   -4.6790   24.9350 C   0  0  0  0  0  0  0  0  0  0  0  0
  -21.7400   -4.1060   23.7180 C   0  0  0  0  0  3  0  0  0  0  0  0
  -21.8600   -4.9080   22.5690 C   0  0  0  0  0  0  0  0  0  0  0  0
  -22.2330   -4.3470   21.3940 F   0  0  0  0  0  0  0  0  0  0  0  0
  -21.2100   -3.9040   26.0380 F   0  0  0  0  0  0  0  0  0  0  0  0
  -22.8070  -13.6390   21.0280 C   0  0  0  0  0  0  0  0  0  0  0  0
  -22.0530  -12.9710   21.8930 N   0  0  0  0  0  0  0  0  0  0  0  0
  -22.3920  -14.6580   20.4760 O   0  0  0  0  0  0  0  0  0  0  0  0
  -22.4010  -12.1470   22.3620 H   0  0  0  0  0  0  0  0  0  0  0  0
  -21.1140  -13.2870   22.0890 H   0  0  0  0  0  0  0  0  0  0  0  0
  -25.4770  -15.2570   20.2350 N   0  0  0  0  0  0  0  0  0  0  0  0
  -24.7180  -15.9260   20.3120 H   0  0  0  0  0  0  0  0  0  0  0  0
  -26.3450  -15.6780   19.9280 H   0  0  0  0  0  0  0  0  0  0  0  0
  -29.0880  -25.4390   18.1030 C   0  0  0  0  0  3  0  0  0  0  0  0
  -29.0860  -26.6800   17.1820 C   0  0  0  0  0  0  0  0  0  0  0  0
  -30.0830  -26.7940   16.3120 N   0  0  0  0  0  0  0  0  0  0  0  0
  -28.1840  -27.5120   17.1970 O   0  0  0  0  0  0  0  0  0  0  0  0
  -30.8180  -26.1000   16.2760 H   0  0  0  0  0  0  0  0  0  0  0  0
  -30.1180  -27.5790   15.6760 H   0  0  0  0  0  0  0  0  0  0  0  0
  -28.4710  -25.5080   19.5310 C   0  0  0  0  0  2  0  0  0  0  0  0
  -28.4090  -26.8080   20.1270 O   0  0  0  0  0  0  0  0  0  0  0  0
  -24.5730  -31.9180   23.2490 C   0  0  0  0  0  0  0  0  0  0  0  0
  -27.2030  -27.4810   20.1460 C   0  0  0  0  0  0  0  0  0  0  0  0
  -23.3580  -30.5090   21.6210 C   0  0  0  0  0  3  0  0  0  0  0  0
  -24.8000  -28.9760   20.1920 C   0  0  0  0  0  0  0  0  0  0  0  0
  -25.8830  -30.8680   21.4100 C   0  0  0  0  0  2  0  0  0  0  0  0
  -25.9610  -29.4980   20.7760 C   0  0  0  0  0  0  0  0  0  0  0  0
  -27.1600  -28.7520   20.7610 C   0  0  0  0  0  3  0  0  0  0  0  0
  -26.0150  -26.9750   19.5610 C   0  0  0  0  0  3  0  0  0  0  0  0
  -24.8200  -27.7100   19.5900 C   0  0  0  0  0  3  0  0  0  0  0  0
  -23.5590  -29.8340   20.2400 C   0  0  0  0  0  2  0  0  0  0  0  0
  -24.6230  -31.1150   22.1510 N   0  0  0  0  0  0  0  0  0  0  0  0
  -23.4940  -32.1890   23.7960 O   0  0  0  0  0  0  0  0  0  0  0  0
  -22.7190  -29.4840   22.5830 C   0  0  0  0  0  0  0  0  0  0  0  0
  -21.3960  -29.2950   22.4590 N   0  0  0  0  0  0  0  0  0  0  0  0
  -23.4100  -28.8630   23.3970 O   0  0  0  0  0  0  0  0  0  0  0  0
  -20.9020  -29.8470   21.7720 H   0  0  0  0  0  0  0  0  0  0  0  0
  -18.0260  -28.0960   22.9600 C   0  0  0  0  0  0  0  0  0  0  0  0
  -20.5820  -28.3580   23.2350 C   0  0  0  0  0  3  0  0  0  0  0  0
  -20.6890  -26.9250   22.6630 C   0  0  0  0  0  2  0  0  0  0  0  0
  -19.5880  -26.5960   21.6510 C   0  0  0  0  0  2  0  0  0  0  0  0
  -18.2060  -26.7430   22.2950 C   0  0  0  0  0  2  0  0  0  0  0  0
  -19.1430  -28.8610   23.3880 C   0  0  0  0  0  0  0  0  0  0  0  0
  -18.9220  -30.1300   23.9680 C   0  0  0  0  0  3  0  0  0  0  0  0
  -17.6160  -30.6290   24.1300 C   0  0  0  0  0  3  0  0  0  0  0  0
  -16.5130  -29.8590   23.7230 C   0  0  0  0  0  3  0  0  0  0  0  0
  -16.7200  -28.5950   23.1400 C   0  0  0  0  0  3  0  0  0  0  0  0
  -25.8620  -32.5510   23.8580 C   0  0  0  0  0  3  0  0  0  0  0  0
  -25.5510  -33.9450   24.1940 N   0  0  0  0  0  0  0  0  0  0  0  0
  -25.8790  -35.0000   23.4360 C   0  0  0  0  0  0  0  0  0  0  0  0
  -26.5460  -34.9020   22.4020 O   0  0  0  0  0  0  0  0  0  0  0  0
  -24.9520  -34.0950   24.9910 H   0  0  0  0  0  0  0  0  0  0  0  0
  -24.1440  -36.7870   23.0890 C   0  0  0  0  0  1  0  0  0  0  0  0
  -25.3860  -36.3840   23.8990 C   0  0  0  0  0  3  0  0  0  0  0  0
  -27.5180  -37.2690   24.7330 C   0  0  0  0  0  1  0  0  0  0  0  0
  -26.4150  -37.4400   23.7930 N   0  0  0  0  0  0  0  0  0  0  0  0
  -26.0050  -38.3570   23.9460 H   0  0  0  0  0  0  0  0  0  0  0  0
  -26.3980  -31.7750   25.1240 C   0  0  1  0  0  0  0  0  0  0  0  0
  -25.3210  -31.5230   26.2020 C   0  0  0  0  0  1  0  0  0  0  0  0
  -26.9830  -30.4040   24.7140 C   0  0  0  0  0  1  0  0  0  0  0  0
  -27.5530  -32.5720   25.7770 C   0  0  0  0  0  1  0  0  0  0  0  0
  1  4  2  0
  2  3  1  0
  3  1  1  0
  3 55  1  0
  5 14  1  0
  5  1  1  0
  6  7  1  0
  7 11  2  0
  8 11  1  0
  9  6  2  0
  9 10  1  0
 10  8  2  0
 11 16  1  0
 12 14  1  0
 12  9  1  0
 13 10  1  0
 14 13  1  0
 15 12  2  0
 17 25  1  0
 18 23  1  0
 19 20  1  0
 19 18  1  0
 21 20  1  0
 21 30  1  0
 21 22  1  0
 23 17  1  0
 23 22  1  0
 24 17  2  0
 25 16  1  0
 25 26  1  0
 27 28  2  0
 28 29  1  0
 28 47  1  0
 29 32  1  0
 30 27  1  0
 30 31  1  0
 31 29  2  0
 32 33  1  0
 33 34  2  0
 35 38  1  0
 35 34  1  0
 36 35  2  0
 37 36  1  0
 37 32  2  0
 38 39  1  0
 39 40  1  0
 40 41  2  0
 42 41  1  0
 42 46  1  0
 43 42  2  0
 44 39  2  0
 44 43  1  0
 45 44  1  0
 47 48  1  0
 48 51  1  0
 48 50  1  0
 49 47  2  0
 52 53  1  0
 52 27  1  0
 54 52  1  0
 55 61  1  0
 56 58  2  0
 56 55  1  0
 57 56  1  0
 59 57  1  0
 60 57  1  0
 61 62  1  0
 62 64  1  0
 63 74  2  0
 64 69  1  0
 65 73  1  0
 65 75  1  0
 66 72  1  0
 66 68  1  0
 67 73  1  0
 68 67  1  0
 69 68  2  0
 70 71  1  0
 70 64  2  0
 71 66  2  0
 72 65  1  0
 73 63  1  0
 75 77  2  0
 76 75  1  0
 78 76  1  0
 79 88  2  0
 79 84  1  0
 80 76  1  0
 80 84  1  0
 81 80  1  0
 82 83  1  0
 82 81  1  0
 83 79  1  0
 84 85  2  0
 85 86  1  0
 87 86  2  0
 88 87  1  0
 89 63  1  0
 89 90  1  0
 89 99  1  0
 90 93  1  0
 91 95  1  0
 91 90  1  0
 92 91  2  0
 95 94  1  0
 97 95  1  0
 97 98  1  0
 97 96  1  0
 99102  1  1
 99100  1  0
101 99  1  0
M  ISO  4  17 100  25 100  61 101  62 101
M  END
>  <TORSDO>  (4) 
F 22

>  <SCORE>  (4) 
-13.025

>  <name>  (4) 
3

>  <ligand_id>  (4) 
3

>  <original_smiles>  (4) 
[H]c1c([H])c([H])c2c(c1[H])C([H])([H])C([H])([H])C([H])([H])C2([H])N([H])C(=O)C1([H])N(C(=O)C([H])(N([H])C(=O)C([H])(N([H])C([H])([H])[H])C([H])([H])[H])C(C([H])([H])[H])(C([H])([H])[H])C([H])([H])[H])C([H])([H])c2c([H])c(OC([H])([H])C([H])(C(=O)N([H])[H])N(C(=O)C([H])([H])N3C(=O)c4c([H])c([H])c(C([H])([H])N([H])C(=O)N5C([H])([H])C([H])([H])C([H])([H])C([H])(n6nc(-c7c([H])c([H])c(Oc8c([H])c([H])c(F)c([H])c8F)c([H])c7[H])c(C(=O)N([H])[H])c6N([H])[H])C5([H])[H])c([H])c4C3([H])[H])C([H])([H])[H])c([H])c([H])c2C1([H])[H]

>  <smiles>  (4) 
[H]c1c([H])c([H])c2c(c1[H])C([H])([H])C([H])([H])C([H])([H])C2([H])N([H])C(=O)C1([H])N(C(=O)C([H])(N([H])C(=O)C([H])(N([H])C([H])([H])[H])C([H])([H])[H])C(C([H])([H])[H])(C([H])([H])[H])C([H])([H])[H])C([H])([H])c2c([H])c(OC([H])([H])C([H])(C(=O)N([H])[H])N(C(=O)C([H])([H])N3C(=O)c4c([H])c([H])c(C([H])([H])N([H])C(=O)N5C([H])([H])C([H])([H])C([H])([H])C([H])(n6nc(-c7c([H])c([H])c(Oc8c([H])c([H])c(F)c([H])c8F)c([H])c7[H])c(C(=O)N([H])[H])c6N([H])[H])C5([H])[H])c([H])c4C3([H])[H])C([H])([H])[H])c([H])c([H])c2C1([H])[H]

$$$$
4:0:0
     RDKit          3D

 91 99  0  0  1  0  0  0  0  0999 V2000
  -31.3410  -21.1560   21.0160 C   0  0  0  0  0  3  0  0  0  0  0  0
  -32.6610  -20.7530   21.2740 C   0  0  0  0  0  3  0  0  0  0  0  0
  -32.0330  -18.4540   20.7990 C   0  0  0  0  0  3  0  0  0  0  0  0
  -30.6850  -18.8010   20.5310 C   0  0  0  0  0  0  0  0  0  0  0  0
  -30.3170  -20.2440   20.6270 C   0  0  0  0  0  0  0  0  0  0  0  0
  -33.0070  -19.4010   21.1510 C   0  0  0  0  0  0  0  0  0  0  0  0
  -34.6380  -18.9040   21.4170 Cl  0  0  0  0  0  0  0  0  0  0  0  0
  -29.7970  -17.5550   20.0790 C   0  0  0  0  0  2  0  0  0  0  0  0
  -30.7320  -14.9840   20.3410 C   0  0  0  0  0  0  0  0  0  0  0  0
  -30.6090  -12.6480   19.4320 C   0  0  0  0  0  2  0  0  0  0  0  0
  -29.7060  -12.7090   18.1810 C   0  0  0  0  0  2  0  0  0  0  0  0
  -28.2310  -12.4900   18.5730 C   0  0  0  0  0  2  0  0  0  0  0  0
  -27.8140  -13.3680   19.7870 C   0  0  0  0  0  3  0  0  0  0  0  0
  -28.8590  -13.3410   20.9280 C   0  0  0  0  0  2  0  0  0  0  0  0
  -30.1600  -13.7200   20.3560 N   0  0  0  0  0  0  0  0  0  0  0  0
  -31.8850  -15.1130   19.9320 O   0  0  0  0  0  0  0  0  0  0  0  0
  -29.9260  -16.0890   20.6050 N   0  0  0  0  0  0  0  0  0  0  0  0
  -29.0620  -15.7910   21.0330 H   0  0  0  0  0  0  0  0  0  0  0  0
  -25.4180  -13.9110   20.5080 C   0  0  0  0  0  0  0  0  0  0  0  0
  -24.3630  -13.1210   20.8710 C   0  0  0  0  0  0  0  0  0  0  0  0
  -24.8410  -11.7760   20.8210 C   0  0  0  0  0  0  0  0  0  0  0  0
  -26.4730  -13.0490   20.2600 N   0  0  0  0  0  0  0  0  0  0  0  0
  -26.1340  -11.7560   20.5120 N   0  0  0  0  0  0  0  0  0  0  0  0
  -24.1240  -10.5020   20.9940 C   0  0  0  0  0  0  0  0  0  0  0  0
  -24.5260   -9.5620   21.9690 C   0  0  0  0  0  3  0  0  0  0  0  0
  -23.8180   -8.3550   22.1390 C   0  0  0  0  0  3  0  0  0  0  0  0
  -22.6860   -8.0800   21.3330 C   0  0  0  0  0  0  0  0  0  0  0  0
  -22.3000   -9.0080   20.3480 C   0  0  0  0  0  3  0  0  0  0  0  0
  -23.0120  -10.2070   20.1780 C   0  0  0  0  0  3  0  0  0  0  0  0
  -21.9490   -6.9210   21.4070 O   0  0  0  0  0  0  0  0  0  0  0  0
  -21.8060   -6.2260   22.5800 C   0  0  0  0  0  0  0  0  0  0  0  0
  -21.2200   -6.8090   23.7250 C   0  0  0  0  0  3  0  0  0  0  0  0
  -21.0350   -6.0400   24.8890 C   0  0  0  0  0  3  0  0  0  0  0  0
  -21.4200   -4.6860   24.9060 C   0  0  0  0  0  0  0  0  0  0  0  0
  -21.9980   -4.1010   23.7660 C   0  0  0  0  0  3  0  0  0  0  0  0
  -22.1870   -4.8680   22.6030 C   0  0  0  0  0  0  0  0  0  0  0  0
  -22.7250   -4.2950   21.4990 F   0  0  0  0  0  0  0  0  0  0  0  0
  -21.2350   -3.9450   26.0240 F   0  0  0  0  0  0  0  0  0  0  0  0
  -22.9580  -13.5770   21.1420 C   0  0  0  0  0  0  0  0  0  0  0  0
  -22.2300  -12.8600   21.9920 N   0  0  0  0  0  0  0  0  0  0  0  0
  -22.5110  -14.6010   20.6270 O   0  0  0  0  0  0  0  0  0  0  0  0
  -22.6030  -12.0330   22.4330 H   0  0  0  0  0  0  0  0  0  0  0  0
  -21.2840  -13.1400   22.2030 H   0  0  0  0  0  0  0  0  0  0  0  0
  -25.5660  -15.2870   20.3540 N   0  0  0  0  0  0  0  0  0  0  0  0
  -24.8010  -15.9330   20.5200 H   0  0  0  0  0  0  0  0  0  0  0  0
  -26.4170  -15.7440   20.0510 H   0  0  0  0  0  0  0  0  0  0  0  0
  -29.0730  -20.8600   20.3070 O   0  0  0  0  0  0  0  0  0  0  0  0
  -28.6670  -22.2350   20.8010 C   0  0  0  0  0  3  0  0  0  0  0  0
  -28.6980  -23.6440   19.9660 C   0  0  0  0  0  3  0  0  0  0  0  0
  -28.0050  -24.9770   20.6190 C   0  0  0  0  0  2  0  0  0  0  0  0
  -28.2110  -26.4230   20.1910 O   0  0  0  0  0  0  0  0  0  0  0  0
  -24.5700  -31.9860   23.2890 C   0  0  0  0  0  0  0  0  0  0  0  0
  -27.1190  -27.3310   20.2070 C   0  0  0  0  0  0  0  0  0  0  0  0
  -23.3470  -30.5820   21.6760 C   0  0  0  0  0  3  0  0  0  0  0  0
  -24.7730  -29.0050   20.2380 C   0  0  0  0  0  0  0  0  0  0  0  0
  -25.8980  -30.8540   21.4810 C   0  0  0  0  0  2  0  0  0  0  0  0
  -25.9640  -29.4770   20.8160 C   0  0  0  0  0  0  0  0  0  0  0  0
  -27.1390  -28.6560   20.7760 C   0  0  0  0  0  3  0  0  0  0  0  0
  -25.9060  -26.9320   19.6060 C   0  0  0  0  0  3  0  0  0  0  0  0
  -24.7500  -27.7390   19.6340 C   0  0  0  0  0  3  0  0  0  0  0  0
  -23.5490  -29.9070   20.2980 C   0  0  0  0  0  2  0  0  0  0  0  0
  -24.6260  -31.1620   22.2020 N   0  0  0  0  0  0  0  0  0  0  0  0
  -23.4910  -32.2730   23.8280 O   0  0  0  0  0  0  0  0  0  0  0  0
  -22.6880  -29.5710   22.6440 C   0  0  0  0  0  0  0  0  0  0  0  0
  -21.3740  -29.3400   22.4850 N   0  0  0  0  0  0  0  0  0  0  0  0
  -23.3590  -28.9970   23.5060 O   0  0  0  0  0  0  0  0  0  0  0  0
  -20.8890  -29.8560   21.7630 H   0  0  0  0  0  0  0  0  0  0  0  0
  -18.0390  -27.9880   22.8980 C   0  0  0  0  0  0  0  0  0  0  0  0
  -20.5670  -28.3960   23.2610 C   0  0  0  0  0  3  0  0  0  0  0  0
  -20.7660  -26.9460   22.7590 C   0  0  0  0  0  2  0  0  0  0  0  0
  -19.7250  -26.5170   21.7170 C   0  0  0  0  0  2  0  0  0  0  0  0
  -18.3110  -26.6200   22.2940 C   0  0  0  0  0  2  0  0  0  0  0  0
  -19.0970  -28.8280   23.3370 C   0  0  0  0  0  0  0  0  0  0  0  0
  -18.7890  -30.1050   23.8540 C   0  0  0  0  0  3  0  0  0  0  0  0
  -17.4520  -30.5400   23.9470 C   0  0  0  0  0  3  0  0  0  0  0  0
  -16.4100  -29.6980   23.5270 C   0  0  0  0  0  3  0  0  0  0  0  0
  -16.7010  -28.4260   23.0060 C   0  0  0  0  0  3  0  0  0  0  0  0
  -25.8550  -32.6260   23.8950 C   0  0  0  0  0  3  0  0  0  0  0  0
  -25.5550  -34.0330   24.2000 N   0  0  0  0  0  0  0  0  0  0  0  0
  -25.8990  -35.0730   23.4290 C   0  0  0  0  0  0  0  0  0  0  0  0
  -26.5760  -34.9500   22.4060 O   0  0  0  0  0  0  0  0  0  0  0  0
  -24.9580  -34.2060   24.9960 H   0  0  0  0  0  0  0  0  0  0  0  0
  -24.1950  -36.8820   23.0300 C   0  0  0  0  0  1  0  0  0  0  0  0
  -25.4170  -36.4700   23.8670 C   0  0  0  0  0  3  0  0  0  0  0  0
  -27.5430  -37.3380   24.7390 C   0  0  0  0  0  1  0  0  0  0  0  0
  -26.4620  -37.5140   23.7720 N   0  0  0  0  0  0  0  0  0  0  0  0
  -26.0600  -38.4370   23.9080 H   0  0  0  0  0  0  0  0  0  0  0  0
  -26.3670  -31.8860   25.1920 C   0  0  1  0  0  0  0  0  0  0  0  0
  -25.2660  -31.6560   26.2550 C   0  0  0  0  0  1  0  0  0  0  0  0
  -26.9760  -30.5110   24.8430 C   0  0  0  0  0  1  0  0  0  0  0  0
  -27.4960  -32.7150   25.8480 C   0  0  0  0  0  1  0  0  0  0  0  0
  1  2  1  0
  3  6  1  0
  4  5  1  0
  4  3  2  0
  5  1  2  0
  6  2  2  0
  6  7  1  0
  8  4  1  0
  8 17  1  0
  9 15  1  0
  9 17  1  0
 10 15  1  0
 11 12  1  0
 11 10  1  0
 13 12  1  0
 13 22  1  0
 13 14  1  0
 15 14  1  0
 16  9  2  0
 17 18  1  0
 19 20  2  0
 20 39  1  0
 21 20  1  0
 21 24  1  0
 22 19  1  0
 22 23  1  0
 23 21  2  0
 24 25  1  0
 25 26  2  0
 27 30  1  0
 27 26  1  0
 28 27  2  0
 29 28  1  0
 29 24  2  0
 30 31  1  0
 31 36  2  0
 31 32  1  0
 32 33  2  0
 33 34  1  0
 34 38  1  0
 35 34  2  0
 36 35  1  0
 37 36  1  0
 39 40  1  0
 40 43  1  0
 40 42  1  0
 41 39  2  0
 44 19  1  0
 44 45  1  0
 46 44  1  0
 47  5  1  0
 47 48  1  0
 49 50  1  0
 49 48  2  0
 51 53  1  0
 51 50  1  0
 52 63  2  0
 53 58  1  0
 54 62  1  0
 54 64  1  0
 55 61  1  0
 55 57  1  0
 56 62  1  0
 57 56  1  0
 58 57  2  0
 59 60  1  0
 59 53  2  0
 60 55  2  0
 61 54  1  0
 62 52  1  0
 64 66  2  0
 65 64  1  0
 67 65  1  0
 68 77  2  0
 68 73  1  0
 69 65  1  0
 69 73  1  0
 70 69  1  0
 71 72  1  0
 71 70  1  0
 72 68  1  0
 73 74  2  0
 74 75  1  0
 76 75  2  0
 77 76  1  0
 78 52  1  0
 78 79  1  0
 78 88  1  0
 79 82  1  0
 80 84  1  0
 80 79  1  0
 81 80  2  0
 84 83  1  0
 86 84  1  0
 86 87  1  0
 86 85  1  0
 88 91  1  1
 88 89  1  0
 90 88  1  0
M  ISO  4   9 100  17 100  50 101  51 101
M  END
>  <TORSDO>  (5) 
F 21

>  <SCORE>  (5) 
-13.289

>  <name>  (5) 
4

>  <ligand_id>  (5) 
4

>  <original_smiles>  (5) 
[H]c1c([H])c([H])c2c(c1[H])C([H])([H])C([H])([H])C([H])([H])C2([H])N([H])C(=O)C1([H])N(C(=O)C([H])(N([H])C(=O)C([H])(N([H])C([H])([H])[H])C([H])([H])[H])C(C([H])([H])[H])(C([H])([H])[H])C([H])([H])[H])C([H])([H])c2c([H])c(OC([H])([H])C([H])([H])C([H])([H])Oc3c([H])c([H])c(Cl)c([H])c3C([H])([H])N([H])C(=O)N3C([H])([H])C([H])([H])C([H])([H])C([H])(n4nc(-c5c([H])c([H])c(Oc6c([H])c([H])c(F)c([H])c6F)c([H])c5[H])c(C(=O)N([H])[H])c4N([H])[H])C3([H])[H])c([H])c([H])c2C1([H])[H]

>  <smiles>  (5) 
[H]c1c([H])c([H])c2c(c1[H])C([H])([H])C([H])([H])C([H])([H])C2([H])N([H])C(=O)C1([H])N(C(=O)C([H])(N([H])C(=O)C([H])(N([H])C([H])([H])[H])C([H])([H])[H])C(C([H])([H])[H])(C([H])([H])[H])C([H])([H])[H])C([H])([H])c2c([H])c(OC([H])([H])C([H])([H])C([H])([H])Oc3c([H])c([H])c(Cl)c([H])c3C([H])([H])N([H])C(=O)N3C([H])([H])C([H])([H])C([H])([H])C([H])(n4nc(-c5c([H])c([H])c(Oc6c([H])c([H])c(F)c([H])c6F)c([H])c5[H])c(C(=O)N([H])[H])c4N([H])[H])C3([H])[H])c([H])c([H])c2C1([H])[H]

$$$$
5:0:0
     RDKit          3D

108119  0  0  1  0  0  0  0  0999 V2000
  -29.1780  -20.1310   19.4070 C   0  0  0  0  0  3  0  0  0  0  0  0
  -29.8590  -19.2170   20.3370 C   0  0  0  0  0  0  0  0  0  0  0  0
  -30.4690  -20.1020   21.2100 C   0  0  0  0  0  0  0  0  0  0  0  0
  -29.3010  -21.4840   19.7880 C   0  0  0  0  0  0  0  0  0  0  0  0
  -30.0740  -21.4390   20.9530 N   0  0  0  0  0  0  0  0  0  0  0  0
  -31.2990  -15.5410   20.4360 C   0  0  0  0  0  0  0  0  0  0  0  0
  -31.2380  -13.1030   19.8340 C   0  0  0  0  0  2  0  0  0  0  0  0
  -30.4300  -12.8160   18.5520 C   0  0  0  0  0  2  0  0  0  0  0  0
  -28.9430  -12.6240   18.8830 C   0  0  0  0  0  2  0  0  0  0  0  0
  -28.3970  -13.7040   19.8550 C   0  0  0  0  0  3  0  0  0  0  0  0
  -29.3460  -13.9610   21.0430 C   0  0  0  0  0  2  0  0  0  0  0  0
  -30.6480  -14.3140   20.4670 N   0  0  0  0  0  0  0  0  0  0  0  0
  -32.5330  -15.4960   20.4050 O   0  0  0  0  0  0  0  0  0  0  0  0
  -29.9540  -17.6470   20.6340 C   0  0  0  0  0  0  0  0  0  0  0  0
  -30.7080  -16.7200   19.9090 N   0  0  0  0  0  0  0  0  0  0  0  0
  -29.3470  -17.2580   21.6370 O   0  0  0  0  0  0  0  0  0  0  0  0
  -25.9770  -14.2780   20.4530 C   0  0  0  0  0  0  0  0  0  0  0  0
  -24.8950  -13.5000   20.7550 C   0  0  0  0  0  0  0  0  0  0  0  0
  -25.3640  -12.1510   20.7600 C   0  0  0  0  0  0  0  0  0  0  0  0
  -27.0360  -13.4040   20.2830 N   0  0  0  0  0  0  0  0  0  0  0  0
  -26.6730  -12.1200   20.5350 N   0  0  0  0  0  0  0  0  0  0  0  0
  -24.6320  -10.8850   20.9050 C   0  0  0  0  0  0  0  0  0  0  0  0
  -25.0130   -9.9150   21.8590 C   0  0  0  0  0  3  0  0  0  0  0  0
  -24.2790   -8.7170   21.9950 C   0  0  0  0  0  3  0  0  0  0  0  0
  -23.1510   -8.4790   21.1730 C   0  0  0  0  0  0  0  0  0  0  0  0
  -22.7900   -9.4370   20.2100 C   0  0  0  0  0  3  0  0  0  0  0  0
  -23.5250  -10.6270   20.0730 C   0  0  0  0  0  3  0  0  0  0  0  0
  -22.3930   -7.3330   21.2170 O   0  0  0  0  0  0  0  0  0  0  0  0
  -22.2270   -6.6250   22.3800 C   0  0  0  0  0  0  0  0  0  0  0  0
  -21.7070   -7.2220   23.5490 C   0  0  0  0  0  3  0  0  0  0  0  0
  -21.4870   -6.4400   24.7010 C   0  0  0  0  0  3  0  0  0  0  0  0
  -21.7760   -5.0630   24.6830 C   0  0  0  0  0  0  0  0  0  0  0  0
  -22.2890   -4.4650   23.5180 C   0  0  0  0  0  3  0  0  0  0  0  0
  -22.5100   -5.2440   22.3690 C   0  0  0  0  0  0  0  0  0  0  0  0
  -22.9840   -4.6590   21.2430 F   0  0  0  0  0  0  0  0  0  0  0  0
  -21.5580   -4.3100   25.7870 F   0  0  0  0  0  0  0  0  0  0  0  0
  -23.4810  -13.9710   20.9320 C   0  0  0  0  0  0  0  0  0  0  0  0
  -22.7160  -13.3060   21.7890 N   0  0  0  0  0  0  0  0  0  0  0  0
  -23.0620  -14.9690   20.3460 O   0  0  0  0  0  0  0  0  0  0  0  0
  -23.0650  -12.4990   22.2850 H   0  0  0  0  0  0  0  0  0  0  0  0
  -21.7650  -13.6060   21.9520 H   0  0  0  0  0  0  0  0  0  0  0  0
  -26.1480  -15.6490   20.2800 N   0  0  0  0  0  0  0  0  0  0  0  0
  -25.3780  -16.3060   20.3520 H   0  0  0  0  0  0  0  0  0  0  0  0
  -27.0250  -16.0910   20.0380 H   0  0  0  0  0  0  0  0  0  0  0  0
  -31.8110  -16.5340   17.5610 C   0  0  0  0  0  2  0  0  0  0  0  0
  -30.6320  -17.4710   17.4720 C   0  0  0  0  0  2  0  0  0  0  0  0
  -31.3820  -17.3270   18.7810 C   0  0  0  0  0  3  0  0  0  0  0  0
  -28.9650  -23.9800   19.0980 C   0  0  0  0  0  0  0  0  0  0  0  0
  -27.2000  -22.3140   18.8900 C   0  0  0  0  0  1  0  0  0  0  0  0
  -28.5850  -22.6200   19.2800 N   0  0  0  0  0  0  0  0  0  0  0  0
  -30.1490  -24.3200   19.1780 O   0  0  0  0  0  0  0  0  0  0  0  0
  -27.8920  -25.1520   18.7080 C   0  0  0  0  0  2  0  0  0  0  0  0
  -28.2040  -26.6550   18.7600 O   0  0  0  0  0  0  0  0  0  0  0  0
  -24.6720  -31.7030   22.7310 C   0  0  0  0  0  0  0  0  0  0  0  0
  -27.1030  -27.5590   18.9110 C   0  0  0  0  0  0  0  0  0  0  0  0
  -23.3550  -30.4090   21.0980 C   0  0  0  0  0  3  0  0  0  0  0  0
  -24.6980  -29.1080   19.3450 C   0  0  0  0  0  0  0  0  0  0  0  0
  -25.8490  -30.8730   20.6690 C   0  0  0  0  0  2  0  0  0  0  0  0
  -25.9160  -29.5720   19.8610 C   0  0  0  0  0  0  0  0  0  0  0  0
  -27.1190  -28.8130   19.6320 C   0  0  0  0  0  3  0  0  0  0  0  0
  -25.8490  -27.1980   18.3630 C   0  0  0  0  0  3  0  0  0  0  0  0
  -24.6720  -27.9350   18.5840 C   0  0  0  0  0  3  0  0  0  0  0  0
  -23.4390  -29.9030   19.6360 C   0  0  0  0  0  2  0  0  0  0  0  0
  -24.6500  -31.0100   21.5530 N   0  0  0  0  0  0  0  0  0  0  0  0
  -23.6460  -31.8560   23.4110 O   0  0  0  0  0  0  0  0  0  0  0  0
  -22.8600  -29.2590   22.0100 C   0  0  0  0  0  0  0  0  0  0  0  0
  -21.5490  -28.9620   21.9620 N   0  0  0  0  0  0  0  0  0  0  0  0
  -23.6530  -28.6400   22.7230 O   0  0  0  0  0  0  0  0  0  0  0  0
  -20.9590  -29.5200   21.3610 H   0  0  0  0  0  0  0  0  0  0  0  0
  -18.3840  -27.2740   22.4570 C   0  0  0  0  0  0  0  0  0  0  0  0
  -20.8830  -27.8890   22.7050 C   0  0  0  0  0  3  0  0  0  0  0  0
  -21.1790  -26.5090   22.0740 C   0  0  0  0  0  2  0  0  0  0  0  0
  -20.1170  -26.0690   21.0610 C   0  0  0  0  0  2  0  0  0  0  0  0
  -18.7390  -25.9910   21.7260 C   0  0  0  0  0  2  0  0  0  0  0  0
  -19.3890  -28.1740   22.9020 C   0  0  0  0  0  0  0  0  0  0  0  0
  -19.0020  -29.3680   23.5450 C   0  0  0  0  0  3  0  0  0  0  0  0
  -17.6410  -29.6690   23.7480 C   0  0  0  0  0  3  0  0  0  0  0  0
  -16.6510  -28.7690   23.3180 C   0  0  0  0  0  3  0  0  0  0  0  0
  -17.0230  -27.5740   22.6770 C   0  0  0  0  0  3  0  0  0  0  0  0
  -25.9830  -32.3520   23.2700 C   0  0  0  0  0  3  0  0  0  0  0  0
  -26.7730  -31.4190   24.2650 C   0  0  1  0  0  0  0  0  0  0  0  0
  -25.9090  -30.8700   25.4250 C   0  0  0  0  0  1  0  0  0  0  0  0
  -27.3790  -30.2080   23.5200 C   0  0  0  0  0  1  0  0  0  0  0  0
  -27.9610  -32.1960   24.8800 C   0  0  0  0  0  1  0  0  0  0  0  0
  -25.6150  -33.6140   23.9310 N   0  0  0  0  0  0  0  0  0  0  0  0
  -25.8440  -34.8350   23.4290 C   0  0  0  0  0  0  0  0  0  0  0  0
  -26.4540  -35.0190   22.3730 O   0  0  0  0  0  0  0  0  0  0  0  0
  -25.0650  -33.5380   24.7750 H   0  0  0  0  0  0  0  0  0  0  0  0
  -24.0270  -36.5710   23.5620 C   0  0  0  0  0  1  0  0  0  0  0  0
  -25.3110  -36.0440   24.2230 C   0  0  0  0  0  3  0  0  0  0  0  0
  -27.4290  -36.8100   25.2030 C   0  0  0  0  0  1  0  0  0  0  0  0
  -26.2920  -37.1450   24.3490 N   0  0  0  0  0  0  0  0  0  0  0  0
  -25.8500  -37.9790   24.7240 H   0  0  0  0  0  0  0  0  0  0  0  0
  -32.7750  -20.3400   22.4700 C   0  0  0  0  0  2  0  0  0  0  0  0
  -32.5610  -18.8660   22.2480 C   0  0  0  0  0  2  0  0  0  0  0  0
  -31.3680  -19.7920   22.3820 C   0  0  0  0  0  3  0  0  0  0  0  0
  -30.3630  -22.5540   21.8590 C   0  0  0  0  0  2  0  0  0  0  0  0
  -29.1690  -22.8340   22.7920 C   0  0  0  0  0  2  0  0  0  0  0  0
  -28.6030  -24.2650   22.7000 C   0  0  0  0  0  2  0  0  0  0  0  0
  -29.6300  -25.3090   22.9320 N   0  0  0  0  0  4  0  0  0  0  0  0
  -30.5220  -24.8480   23.0220 H   0  0  0  0  0  0  0  0  0  0  0  0
  -29.6800  -25.9220   22.1330 H   0  0  0  0  0  0  0  0  0  0  0  0
  -28.4810  -28.5460   25.6220 C   0  0  0  0  0  2  0  0  0  0  0  0
  -29.9600  -28.3820   25.2370 C   0  0  0  0  0  2  0  0  0  0  0  0
  -27.8000  -27.1790   25.7960 C   0  0  0  0  0  2  0  0  0  0  0  0
  -30.1190  -27.5070   23.9830 C   0  0  0  0  0  2  0  0  0  0  0  0
  -27.9600  -26.3040   24.5400 C   0  0  0  0  0  2  0  0  0  0  0  0
  -29.4490  -26.1260   24.1570 C   0  0  0  0  0  3  0  0  0  0  0  0
  1  4  2  0
  1  2  1  0
  2 14  1  0
  2  3  2  0
  3 96  1  0
  4  5  1  0
  5  3  1  0
  5 97  1  0
  6 12  1  0
  7 12  1  0
  8  9  1  0
  8  7  1  0
 10  9  1  0
 10 20  1  0
 10 11  1  0
 12 11  1  0
 13  6  2  0
 14 16  2  0
 15  6  1  0
 15 14  1  0
 17 18  2  0
 18 19  1  0
 18 37  1  0
 19 22  1  0
 20 17  1  0
 20 21  1  0
 21 19  2  0
 22 23  1  0
 23 24  2  0
 25 28  1  0
 25 24  1  0
 26 25  2  0
 27 26  1  0
 27 22  2  0
 28 29  1  0
 29 30  1  0
 30 31  2  0
 32 31  1  0
 32 36  1  0
 33 32  2  0
 34 29  2  0
 34 33  1  0
 35 34  1  0
 37 38  1  0
 38 41  1  0
 38 40  1  0
 39 37  2  0
 42 43  1  0
 42 17  1  0
 44 42  1  0
 45 47  1  0
 46 45  1  0
 46 47  1  0
 47 15  1  0
 48 51  2  0
 48 50  1  0
 49 50  1  0
 50  4  1  0
 52 53  1  0
 52 48  1  0
 53 55  1  0
 54 65  2  0
 55 60  1  0
 56 64  1  0
 56 66  1  0
 57 63  1  0
 57 59  1  0
 58 64  1  0
 59 58  1  0
 60 59  2  0
 61 62  1  0
 61 55  2  0
 62 57  2  0
 63 56  1  0
 64 54  1  0
 66 68  2  0
 67 66  1  0
 69 67  1  0
 70 79  2  0
 70 75  1  0
 71 67  1  0
 71 75  1  0
 72 71  1  0
 73 74  1  0
 73 72  1  0
 74 70  1  0
 75 76  2  0
 76 77  1  0
 78 77  2  0
 79 78  1  0
 80 54  1  0
 80 85  1  0
 80 81  1  0
 81 84  1  1
 81 82  1  0
 83 81  1  0
 85 88  1  0
 86 85  1  0
 86 90  1  0
 87 86  2  0
 90 89  1  0
 90 92  1  0
 92 93  1  0
 92 91  1  0
 95 96  1  0
 95 94  1  0
 96 94  1  0
 97 98  1  0
 99 98  1  0
 99100  1  0
100101  1  0
100108  1  0
102100  1  0
103105  1  0
104103  1  0
106108  1  0
106104  1  0
107105  1  0
108107  1  0
M  ISO  4   6 100  15 100  52 101  53 101
M  END
>  <TORSDO>  (6) 
F 25

>  <SCORE>  (6) 
-10.064

>  <name>  (6) 
5

>  <ligand_id>  (6) 
5

>  <original_smiles>  (6) 
[H]c1c([H])c([H])c2c(c1[H])C([H])([H])C([H])([H])C([H])([H])C2([H])N([H])C(=O)C1([H])N(C(=O)C([H])(N([H])C(=O)C([H])(N([H])C([H])([H])[H])C([H])([H])[H])C(C([H])([H])[H])(C([H])([H])[H])C([H])([H])[H])C([H])([H])c2c([H])c(OC([H])([H])C(=O)N(c3c([H])c(C(=O)N(C(=O)N4C([H])([H])C([H])([H])C([H])([H])C([H])(n5nc(-c6c([H])c([H])c(Oc7c([H])c([H])c(F)c([H])c7F)c([H])c6[H])c(C(=O)N([H])[H])c5N([H])[H])C4([H])[H])C4([H])C([H])([H])C4([H])[H])c(C4([H])C([H])([H])C4([H])[H])n3C([H])([H])C([H])([H])C([H])([H])[N+]([H])([H])C3([H])C([H])([H])C([H])([H])C([H])([H])C([H])([H])C3([H])[H])C([H])([H])[H])c([H])c([H])c2C1([H])[H]

>  <smiles>  (6) 
[H]c1c([H])c([H])c2c(c1[H])C([H])([H])C([H])([H])C([H])([H])C2([H])N([H])C(=O)C1([H])N(C(=O)C([H])(N([H])C(=O)C([H])(N([H])C([H])([H])[H])C([H])([H])[H])C(C([H])([H])[H])(C([H])([H])[H])C([H])([H])[H])C([H])([H])c2c([H])c(OC([H])([H])C(=O)N(c3c([H])c(C(=O)N(C(=O)N4C([H])([H])C([H])([H])C([H])([H])C([H])(n5nc(-c6c([H])c([H])c(Oc7c([H])c([H])c(F)c([H])c7F)c([H])c6[H])c(C(=O)N([H])[H])c5N([H])[H])C4([H])[H])C4([H])C([H])([H])C4([H])[H])c(C4([H])C([H])([H])C4([H])[H])n3C([H])([H])C([H])([H])C([H])([H])[N+]([H])([H])C3([H])C([H])([H])C([H])([H])C([H])([H])C([H])([H])C3([H])[H])C([H])([H])[H])c([H])c([H])c2C1([H])[H]

$$$$
6:0:0
     RDKit          3D

109118  0  0  1  0  0  0  0  0999 V2000
  -29.4770  -22.4260   21.8720 C   0  0  0  0  0  3  0  0  0  0  0  0
  -29.6080  -21.0810   21.4890 C   0  0  0  0  0  3  0  0  0  0  0  0
  -30.8780  -23.0940   20.0070 C   0  0  0  0  0  3  0  0  0  0  0  0
  -30.9990  -21.7460   19.6020 C   0  0  0  0  0  0  0  0  0  0  0  0
  -30.1260  -23.4440   21.1490 C   0  0  0  0  0  0  0  0  0  0  0  0
  -30.3920  -20.7160   20.3690 C   0  0  0  0  0  0  0  0  0  0  0  0
  -30.6040  -19.3700   20.0180 N   0  0  0  0  0  0  0  0  0  0  0  0
  -30.5220  -19.1180   19.0360 H   0  0  0  0  0  0  0  0  0  0  0  0
  -30.5740  -14.4690   20.1660 C   0  0  0  0  0  0  0  0  0  0  0  0
  -30.1610  -12.3870   18.9060 C   0  0  0  0  0  2  0  0  0  0  0  0
  -29.1470  -12.6380   17.7720 C   0  0  0  0  0  2  0  0  0  0  0  0
  -27.7090  -12.4410   18.2850 C   0  0  0  0  0  2  0  0  0  0  0  0
  -27.4430  -13.2250   19.5930 C   0  0  0  0  0  3  0  0  0  0  0  0
  -28.5690  -12.9670   20.6280 C   0  0  0  0  0  2  0  0  0  0  0  0
  -29.8550  -13.3200   20.0050 N   0  0  0  0  0  0  0  0  0  0  0  0
  -31.5970  -14.6780   19.5050 O   0  0  0  0  0  0  0  0  0  0  0  0
  -31.6000  -17.3920   21.1050 C   0  0  0  0  0  2  0  0  0  0  0  0
  -31.3080  -16.0730   21.8650 C   0  0  0  0  0  2  0  0  0  0  0  0
  -29.0010  -16.0960   21.2180 C   0  0  0  0  0  2  0  0  0  0  0  0
  -30.3350  -18.2520   20.9260 C   0  0  0  0  0  3  0  0  0  0  0  0
  -29.1530  -17.4010   20.4110 C   0  0  0  0  0  3  0  0  0  0  0  0
  -30.2470  -15.3060   21.1890 N   0  0  0  0  0  0  0  0  0  0  0  0
  -29.3380  -17.1030   19.1220 F   0  0  0  0  0  0  0  0  0  0  0  0
  -25.0810  -13.7800   20.4560 C   0  0  0  0  0  0  0  0  0  0  0  0
  -24.0490  -12.9820   20.8710 C   0  0  0  0  0  0  0  0  0  0  0  0
  -24.5290  -11.6390   20.7820 C   0  0  0  0  0  0  0  0  0  0  0  0
  -26.1240  -12.9220   20.1430 N   0  0  0  0  0  0  0  0  0  0  0  0
  -25.7980  -11.6280   20.3960 N   0  0  0  0  0  0  0  0  0  0  0  0
  -23.8390  -10.3610   20.9850 C   0  0  0  0  0  0  0  0  0  0  0  0
  -24.3140   -9.4000   21.9050 C   0  0  0  0  0  3  0  0  0  0  0  0
  -23.6220   -8.1830   22.0890 C   0  0  0  0  0  3  0  0  0  0  0  0
  -22.4390   -7.9210   21.3570 C   0  0  0  0  0  0  0  0  0  0  0  0
  -21.9830   -8.8720   20.4280 C   0  0  0  0  0  3  0  0  0  0  0  0
  -22.6770  -10.0790   20.2390 C   0  0  0  0  0  3  0  0  0  0  0  0
  -21.7150   -6.7570   21.4550 O   0  0  0  0  0  0  0  0  0  0  0  0
  -21.6850   -6.0250   22.6150 C   0  0  0  0  0  0  0  0  0  0  0  0
  -21.2460   -6.5800   23.8360 C   0  0  0  0  0  3  0  0  0  0  0  0
  -21.1690   -5.7730   24.9900 C   0  0  0  0  0  3  0  0  0  0  0  0
  -21.5190   -4.4110   24.9210 C   0  0  0  0  0  0  0  0  0  0  0  0
  -21.9510   -3.8540   23.7050 C   0  0  0  0  0  3  0  0  0  0  0  0
  -22.0320   -4.6600   22.5540 C   0  0  0  0  0  0  0  0  0  0  0  0
  -22.4310   -4.1150   21.3790 F   0  0  0  0  0  0  0  0  0  0  0  0
  -21.4370   -3.6330   26.0260 F   0  0  0  0  0  0  0  0  0  0  0  0
  -22.6630  -13.4300   21.2370 C   0  0  0  0  0  0  0  0  0  0  0  0
  -21.9930  -12.6990   22.1210 N   0  0  0  0  0  0  0  0  0  0  0  0
  -22.1830  -14.4650   20.7750 O   0  0  0  0  0  0  0  0  0  0  0  0
  -22.3920  -11.8600   22.5160 H   0  0  0  0  0  0  0  0  0  0  0  0
  -21.0710  -12.9870   22.4130 H   0  0  0  0  0  0  0  0  0  0  0  0
  -25.2070  -15.1560   20.2960 N   0  0  0  0  0  0  0  0  0  0  0  0
  -24.4230  -15.7810   20.4500 H   0  0  0  0  0  0  0  0  0  0  0  0
  -26.0130  -15.6200   19.8980 H   0  0  0  0  0  0  0  0  0  0  0  0
  -29.9880  -24.7580   21.6110 N   0  0  0  0  0  0  0  0  0  0  0  0
  -29.3570  -24.9420   22.3860 H   0  0  0  0  0  0  0  0  0  0  0  0
  -30.5080  -25.9180   20.8890 C   0  0  0  0  0  2  0  0  0  0  0  0
  -29.5100  -27.0820   20.9180 C   0  0  0  0  0  2  0  0  0  0  0  0
  -28.4030  -26.7190   20.1010 O   0  0  0  0  0  0  0  0  0  0  0  0
  -24.5930  -31.8930   23.2310 C   0  0  0  0  0  0  0  0  0  0  0  0
  -27.2670  -27.4940   20.1560 C   0  0  0  0  0  0  0  0  0  0  0  0
  -23.3850  -30.4810   21.5940 C   0  0  0  0  0  3  0  0  0  0  0  0
  -24.8440  -28.9500   20.1700 C   0  0  0  0  0  0  0  0  0  0  0  0
  -25.9030  -30.8660   21.3830 C   0  0  0  0  0  2  0  0  0  0  0  0
  -25.9950  -29.4970   20.7500 C   0  0  0  0  0  0  0  0  0  0  0  0
  -27.2090  -28.7790   20.7440 C   0  0  0  0  0  3  0  0  0  0  0  0
  -26.1010  -26.9560   19.5750 C   0  0  0  0  0  3  0  0  0  0  0  0
  -24.8890  -27.6730   19.5820 C   0  0  0  0  0  3  0  0  0  0  0  0
  -23.5930  -29.7950   20.2170 C   0  0  0  0  0  2  0  0  0  0  0  0
  -24.6440  -31.0950   22.1280 N   0  0  0  0  0  0  0  0  0  0  0  0
  -23.5130  -32.1610   23.7760 O   0  0  0  0  0  0  0  0  0  0  0  0
  -22.7450  -29.4590   22.5600 C   0  0  0  0  0  0  0  0  0  0  0  0
  -21.4200  -29.2710   22.4390 N   0  0  0  0  0  0  0  0  0  0  0  0
  -23.4350  -28.8380   23.3730 O   0  0  0  0  0  0  0  0  0  0  0  0
  -20.9280  -29.8210   21.7480 H   0  0  0  0  0  0  0  0  0  0  0  0
  -18.0460  -28.0870   22.9570 C   0  0  0  0  0  0  0  0  0  0  0  0
  -20.6070  -28.3330   23.2120 C   0  0  0  0  0  3  0  0  0  0  0  0
  -20.6990  -26.9040   22.6300 C   0  0  0  0  0  2  0  0  0  0  0  0
  -19.5880  -26.5880   21.6240 C   0  0  0  0  0  2  0  0  0  0  0  0
  -18.2120  -26.7370   22.2770 C   0  0  0  0  0  2  0  0  0  0  0  0
  -19.1710  -28.8430   23.3800 C   0  0  0  0  0  0  0  0  0  0  0  0
  -18.9630  -30.1060   23.9750 C   0  0  0  0  0  3  0  0  0  0  0  0
  -17.6620  -30.6150   24.1480 C   0  0  0  0  0  3  0  0  0  0  0  0
  -16.5510  -29.8550   23.7430 C   0  0  0  0  0  3  0  0  0  0  0  0
  -16.7440  -28.5930   23.1540 C   0  0  0  0  0  3  0  0  0  0  0  0
  -25.8800  -32.5280   23.8470 C   0  0  0  0  0  3  0  0  0  0  0  0
  -25.5700  -33.9240   24.1750 N   0  0  0  0  0  0  0  0  0  0  0  0
  -25.9060  -34.9760   23.4160 C   0  0  0  0  0  0  0  0  0  0  0  0
  -26.5800  -34.8740   22.3880 O   0  0  0  0  0  0  0  0  0  0  0  0
  -24.9630  -34.0780   24.9670 H   0  0  0  0  0  0  0  0  0  0  0  0
  -24.1810  -36.7700   23.0470 C   0  0  0  0  0  1  0  0  0  0  0  0
  -25.4140  -36.3650   23.8700 C   0  0  0  0  0  3  0  0  0  0  0  0
  -27.5400  -37.2480   24.7190 C   0  0  0  0  0  1  0  0  0  0  0  0
  -26.4460  -37.4190   23.7670 N   0  0  0  0  0  0  0  0  0  0  0  0
  -26.0390  -38.3390   23.9070 H   0  0  0  0  0  0  0  0  0  0  0  0
  -26.4100  -31.7550   25.1170 C   0  0  1  0  0  0  0  0  0  0  0  0
  -25.3260  -31.5020   26.1910 C   0  0  0  0  0  1  0  0  0  0  0  0
  -26.9980  -30.3830   24.7130 C   0  0  0  0  0  1  0  0  0  0  0  0
  -27.5630  -32.5510   25.7720 C   0  0  0  0  0  1  0  0  0  0  0  0
  -31.8120  -21.4570   18.3440 C   0  0  0  0  0  2  0  0  0  0  0  0
  -33.2130  -21.1570   18.6860 N   0  0  0  0  0  4  0  0  0  0  0  0
  -33.2160  -20.3280   19.2600 H   0  0  0  0  0  0  0  0  0  0  0  0
  -33.5620  -21.9210   19.2400 H   0  0  0  0  0  0  0  0  0  0  0  0
  -34.0970  -20.9640   17.5170 C   0  0  0  0  0  2  0  0  0  0  0  0
  -35.5720  -20.8230   17.9330 C   0  0  0  0  0  2  0  0  0  0  0  0
  -36.5250  -20.6760   16.7320 C   0  0  0  0  0  2  0  0  0  0  0  0
  -38.0070  -20.6500   17.1570 C   0  0  0  0  0  2  0  0  0  0  0  0
  -38.9210  -20.6710   15.9950 N   0  0  0  0  0  4  0  0  0  0  0  0
  -38.8720  -19.7850   15.5190 H   0  0  0  0  0  0  0  0  0  0  0  0
  -38.6040  -21.3830   15.3580 H   0  0  0  0  0  0  0  0  0  0  0  0
  -41.2350  -21.0220   15.0990 C   0  0  0  0  0  1  0  0  0  0  0  0
  -40.3300  -20.9600   16.3410 C   0  0  0  0  0  2  0  0  0  0  0  0
  2  1  1  0
  3  5  1  0
  4  3  2  0
  4  6  1  0
  5 52  1  0
  5  1  2  0
  6  2  2  0
  7  6  1  0
  8  7  1  0
  9 22  1  0
 10 15  1  0
 11 12  1  0
 11 10  1  0
 13 12  1  0
 13 27  1  0
 13 14  1  0
 15  9  1  0
 15 14  1  0
 16  9  2  0
 17 18  1  0
 20  7  1  0
 20 17  1  0
 21 23  1  0
 21 20  1  0
 21 19  1  0
 22 19  1  0
 22 18  1  0
 24 25  2  0
 25 44  1  0
 26 25  1  0
 26 29  1  0
 27 28  1  0
 27 24  1  0
 28 26  2  0
 29 30  1  0
 30 31  2  0
 32 35  1  0
 32 31  1  0
 33 32  2  0
 34 33  1  0
 34 29  2  0
 35 36  1  0
 36 37  1  0
 37 38  2  0
 39 38  1  0
 39 43  1  0
 40 39  2  0
 41 36  2  0
 41 40  1  0
 42 41  1  0
 44 45  1  0
 45 48  1  0
 45 47  1  0
 46 44  2  0
 49 50  1  0
 49 24  1  0
 51 49  1  0
 52 53  1  0
 54 55  1  0
 54 52  1  0
 56 58  1  0
 56 55  1  0
 57 68  2  0
 58 63  1  0
 59 67  1  0
 59 69  1  0
 60 66  1  0
 60 62  1  0
 61 67  1  0
 62 61  1  0
 63 62  2  0
 64 65  1  0
 64 58  2  0
 65 60  2  0
 66 59  1  0
 67 57  1  0
 69 71  2  0
 70 69  1  0
 72 70  1  0
 73 82  2  0
 73 78  1  0
 74 70  1  0
 74 78  1  0
 75 74  1  0
 76 77  1  0
 76 75  1  0
 77 73  1  0
 78 79  2  0
 79 80  1  0
 81 80  2  0
 82 81  1  0
 83 57  1  0
 83 84  1  0
 83 93  1  0
 84 87  1  0
 85 89  1  0
 85 84  1  0
 86 85  2  0
 89 88  1  0
 91 89  1  0
 91 92  1  0
 91 90  1  0
 93 96  1  1
 93 94  1  0
 95 93  1  0
 97 98  1  0
 97  4  1  0
 98100  1  0
 98 99  1  0
101102  1  0
101 98  1  0
103104  1  0
103102  1  0
105109  1  0
105104  1  0
106105  1  0
107105  1  0
108109  1  0
M  ISO  4   9 100  22 100  55 101  56 101
M  END
>  <TORSDO>  (7) 
F 28

>  <SCORE>  (7) 
-11.524

>  <name>  (7) 
6

>  <ligand_id>  (7) 
6

>  <original_smiles>  (7) 
[H]c1c([H])c([H])c2c(c1[H])C([H])([H])C([H])([H])C([H])([H])C2([H])N([H])C(=O)C1([H])N(C(=O)C([H])(N([H])C(=O)C([H])(N([H])C([H])([H])[H])C([H])([H])[H])C(C([H])([H])[H])(C([H])([H])[H])C([H])([H])[H])C([H])([H])c2c([H])c(OC([H])([H])C([H])([H])N([H])c3c([H])c([H])c(N([H])C4([H])C([H])([H])C([H])([H])N(C(=O)N5C([H])([H])C([H])([H])C([H])([H])C([H])(n6nc(-c7c([H])c([H])c(Oc8c([H])c([H])c(F)c([H])c8F)c([H])c7[H])c(C(=O)N([H])[H])c6N([H])[H])C5([H])[H])C([H])([H])C4([H])F)c(C([H])([H])[N+]([H])([H])C([H])([H])C([H])([H])C([H])([H])C([H])([H])[N+]([H])([H])C([H])([H])C([H])([H])[H])c3[H])c([H])c([H])c2C1([H])[H]

>  <smiles>  (7) 
[H]c1c([H])c([H])c2c(c1[H])C([H])([H])C([H])([H])C([H])([H])C2([H])N([H])C(=O)C1([H])N(C(=O)C([H])(N([H])C(=O)C([H])(N([H])C([H])([H])[H])C([H])([H])[H])C(C([H])([H])[H])(C([H])([H])[H])C([H])([H])[H])C([H])([H])c2c([H])c(OC([H])([H])C([H])([H])N([H])c3c([H])c([H])c(N([H])C4([H])C([H])([H])C([H])([H])N(C(=O)N5C([H])([H])C([H])([H])C([H])([H])C([H])(n6nc(-c7c([H])c([H])c(Oc8c([H])c([H])c(F)c([H])c8F)c([H])c7[H])c(C(=O)N([H])[H])c6N([H])[H])C5([H])[H])C([H])([H])C4([H])F)c(C([H])([H])[N+]([H])([H])C([H])([H])C([H])([H])C([H])([H])C([H])([H])[N+]([H])([H])C([H])([H])C([H])([H])[H])c3[H])c([H])c([H])c2C1([H])[H]

$$$$
7:0:0
     RDKit          3D

 94100  0  0  1  0  0  0  0  0999 V2000
  -28.5670  -14.9880   22.6630 C   0  0  0  0  0  3  0  0  0  0  0  0
  -29.9320  -15.4460   22.4990 C   0  0  0  0  0  3  0  0  0  0  0  0
  -29.2580  -16.6060   20.6330 C   0  0  0  0  0  3  0  0  0  0  0  0
  -27.8110  -14.6380   21.4820 C   0  0  0  0  0  0  0  0  0  0  0  0
  -28.0930  -15.8000   20.3900 C   0  0  0  0  0  0  0  0  0  0  0  0
  -30.3410  -15.9560   21.2270 C   0  0  0  0  0  0  0  0  0  0  0  0
  -28.4030  -11.9210   19.6100 C   0  0  0  0  0 15  0  0  0  0  0  0
  -28.5900  -14.4620   18.0550 C   0  0  0  0  0  1  0  0  0  0  0  0
  -27.8350  -12.7630   21.3550 C   0  0  0  0  0  2  0  0  0  0  0  0
  -28.6010  -12.0480   22.5020 C   0  0  0  0  0  1  0  0  0  0  0  0
  -28.0740  -15.9610   18.8750 N   0  0  0  0  0  0  0  0  0  0  0  0
  -31.3240  -14.4660   19.1650 C   0  0  0  0  0  0  0  0  0  0  0  0
  -30.2210  -12.4010   17.7840 C   0  0  0  0  0  2  0  0  0  0  0  0
  -28.7100  -12.1880   16.9810 C   0  0  0  0  0  3  0  0  0  0  0  0
  -27.1150  -12.5950   17.5270 C   0  0  0  0  0  3  0  0  0  0  0  0
  -26.9310  -13.5670   19.0530 C   0  0  0  0  0  2  0  0  0  0  0  0
  -29.4570  -13.7990   19.9250 C   0  0  0  0  0  1  0  0  0  0  0  0
  -30.5140  -13.3620   19.0460 N   0  0  0  0  0  0  0  0  0  0  0  0
  -32.0080  -14.6720   18.1810 O   0  0  0  0  0  0  0  0  0  0  0  0
  -31.4000  -15.3440   20.3100 N   0  0  0  0  0  0  0  0  0  0  0  0
  -32.2090  -15.9420   20.2180 H   0  0  0  0  0  0  0  0  0  0  0  0
  -24.9140  -13.6570   20.3620 C   0  0  0  0  0  0  0  0  0  0  0  0
  -24.0510  -12.7720   20.8950 C   0  0  0  0  0  0  0  0  0  0  0  0
  -24.4890  -11.4510   20.5720 C   0  0  0  0  0  0  0  0  0  0  0  0
  -25.7830  -12.9070   19.6770 N   0  0  0  0  0  0  0  0  0  0  0  0
  -25.5400  -11.5430   19.7840 N   0  0  0  0  0  0  0  0  0  0  0  0
  -23.8730  -10.1500   20.8670 C   0  0  0  0  0  0  0  0  0  0  0  0
  -24.4340   -9.1930   21.7490 C   0  0  0  0  0  3  0  0  0  0  0  0
  -23.7400   -7.9910   22.0310 C   0  0  0  0  0  3  0  0  0  0  0  0
  -22.4810   -7.7420   21.4300 C   0  0  0  0  0  0  0  0  0  0  0  0
  -21.9510   -8.6830   20.5360 C   0  0  0  0  0  3  0  0  0  0  0  0
  -22.6390   -9.8710   20.2540 C   0  0  0  0  0  3  0  0  0  0  0  0
  -21.7370   -6.6020   21.6130 O   0  0  0  0  0  0  0  0  0  0  0  0
  -21.7010   -5.9420   22.8150 C   0  0  0  0  0  0  0  0  0  0  0  0
  -21.2810   -6.5760   24.0040 C   0  0  0  0  0  3  0  0  0  0  0  0
  -21.1910   -5.8370   25.2010 C   0  0  0  0  0  3  0  0  0  0  0  0
  -21.5100   -4.4650   25.2080 C   0  0  0  0  0  0  0  0  0  0  0  0
  -21.9200   -3.8310   24.0220 C   0  0  0  0  0  3  0  0  0  0  0  0
  -22.0110   -4.5680   22.8280 C   0  0  0  0  0  0  0  0  0  0  0  0
  -22.3860   -3.9480   21.6830 F   0  0  0  0  0  0  0  0  0  0  0  0
  -21.4190   -3.7550   26.3550 F   0  0  0  0  0  0  0  0  0  0  0  0
  -22.8130  -13.2020   21.5640 C   0  0  0  0  0  0  0  0  0  0  0  0
  -22.3680  -12.4470   22.5520 N   0  0  0  0  0  0  0  0  0  0  0  0
  -22.2760  -14.2590   21.2340 O   0  0  0  0  0  0  0  0  0  0  0  0
  -22.8450  -11.5970   22.8130 H   0  0  0  0  0  0  0  0  0  0  0  0
  -21.5390  -12.7200   23.0590 H   0  0  0  0  0  0  0  0  0  0  0  0
  -25.0280  -15.0440   20.3850 N   0  0  0  0  0  0  0  0  0  0  0  0
  -24.3530  -15.6410   20.8480 H   0  0  0  0  0  0  0  0  0  0  0  0
  -25.7740  -15.5550   19.9260 H   0  0  0  0  0  0  0  0  0  0  0  0
  -28.0080  -17.6380   18.3130 C   0  0  0  0  0  3  0  0  0  0  0  0
  -27.5990  -19.4510   18.9360 C   0  0  0  0  0  3  0  0  0  0  0  0
  -27.8320  -21.3420   18.4420 C   0  0  0  0  0  2  0  0  0  0  0  0
  -27.3240  -23.1800   18.9210 C   0  0  0  0  0  2  0  0  0  0  0  0
  -27.7790  -24.9000   18.8040 O   0  0  0  0  0  0  0  0  0  0  0  0
  -25.2140  -31.0900   22.8500 C   0  0  0  0  0  0  0  0  0  0  0  0
  -27.0100  -26.2290   19.0470 C   0  0  0  0  0  0  0  0  0  0  0  0
  -23.8110  -30.0040   21.1590 C   0  0  0  0  0  3  0  0  0  0  0  0
  -25.0020  -28.4630   19.4370 C   0  0  0  0  0  0  0  0  0  0  0  0
  -26.3810  -29.9530   20.8570 C   0  0  0  0  0  2  0  0  0  0  0  0
  -26.2670  -28.6170   20.0160 C   0  0  0  0  0  0  0  0  0  0  0  0
  -27.2690  -27.5290   19.7910 C   0  0  0  0  0  3  0  0  0  0  0  0
  -25.7430  -26.3110   18.4400 C   0  0  0  0  0  3  0  0  0  0  0  0
  -24.7820  -27.3410   18.6260 C   0  0  0  0  0  3  0  0  0  0  0  0
  -23.8980  -29.4940   19.6950 C   0  0  0  0  0  2  0  0  0  0  0  0
  -25.1670  -30.3740   21.6750 N   0  0  0  0  0  0  0  0  0  0  0  0
  -24.1830  -31.3990   23.4740 O   0  0  0  0  0  0  0  0  0  0  0  0
  -23.0930  -28.9510   22.0460 C   0  0  0  0  0  0  0  0  0  0  0  0
  -21.7480  -28.9000   22.0010 N   0  0  0  0  0  0  0  0  0  0  0  0
  -23.7540  -28.1860   22.7520 O   0  0  0  0  0  0  0  0  0  0  0  0
  -21.2650  -29.5670   21.4150 H   0  0  0  0  0  0  0  0  0  0  0  0
  -18.3210  -27.8480   22.5970 C   0  0  0  0  0  0  0  0  0  0  0  0
  -20.9050  -27.9300   22.7130 C   0  0  0  0  0  3  0  0  0  0  0  0
  -20.8740  -26.5730   21.9700 C   0  0  0  0  0  2  0  0  0  0  0  0
  -19.6930  -26.4420   21.0030 C   0  0  0  0  0  2  0  0  0  0  0  0
  -18.3650  -26.5860   21.7530 C   0  0  0  0  0  2  0  0  0  0  0  0
  -19.5120  -28.4870   23.0350 C   0  0  0  0  0  0  0  0  0  0  0  0
  -19.4110  -29.6730   23.7940 C   0  0  0  0  0  3  0  0  0  0  0  0
  -18.1530  -30.2180   24.1150 C   0  0  0  0  0  3  0  0  0  0  0  0
  -16.9780  -29.5740   23.6900 C   0  0  0  0  0  3  0  0  0  0  0  0
  -17.0640  -28.3900   22.9370 C   0  0  0  0  0  3  0  0  0  0  0  0
  -26.5600  -31.5710   23.4690 C   0  0  0  0  0  3  0  0  0  0  0  0
  -27.1370  -30.5650   24.5420 C   0  0  1  0  0  0  0  0  0  0  0  0
  -26.1250  -30.1830   25.6490 C   0  0  0  0  0  1  0  0  0  0  0  0
  -27.6130  -29.2550   23.8760 C   0  0  0  0  0  1  0  0  0  0  0  0
  -28.3810  -31.1860   25.2230 C   0  0  0  0  0  1  0  0  0  0  0  0
  -26.3350  -32.8900   24.0940 N   0  0  0  0  0  0  0  0  0  0  0  0
  -26.6890  -34.0670   23.5630 C   0  0  0  0  0  0  0  0  0  0  0  0
  -27.2960  -34.1550   22.4930 O   0  0  0  0  0  0  0  0  0  0  0  0
  -25.7930  -32.8960   24.9440 H   0  0  0  0  0  0  0  0  0  0  0  0
  -25.0670  -35.9920   23.7080 C   0  0  0  0  0  1  0  0  0  0  0  0
  -26.3150  -35.3510   24.3360 C   0  0  0  0  0  3  0  0  0  0  0  0
  -28.5360  -35.9290   25.2150 C   0  0  0  0  0  1  0  0  0  0  0  0
  -27.4070  -36.3500   24.3910 N   0  0  0  0  0  0  0  0  0  0  0  0
  -27.0650  -37.2370   24.7510 H   0  0  0  0  0  0  0  0  0  0  0  0
  2  1  1  0
  3  6  1  0
  4  1  2  0
  5  3  2  0
  5  4  1  0
  6  2  2  0
  8 11  1  0
  9  4  1  0
  9 10  1  0
 11  5  1  0
 12 20  1  0
 13 18  1  0
 14 15  2  0
 14 13  1  0
 15 16  1  0
 16 25  1  0
 18 12  1  0
 18 17  1  0
 19 12  2  0
 20  6  1  0
 21 20  1  0
 22 47  1  0
 22 23  2  0
 23 42  1  0
 24 27  1  0
 24 23  1  0
 25 26  1  0
 25 22  1  0
 26 24  2  0
 27 28  1  0
 28 29  2  0
 30 33  1  0
 30 29  1  0
 31 30  2  0
 32 31  1  0
 32 27  2  0
 33 34  1  0
 34 39  2  0
 34 35  1  0
 35 36  2  0
 36 37  1  0
 37 41  1  0
 38 37  2  0
 39 38  1  0
 40 39  1  0
 42 43  1  0
 43 45  1  0
 43 46  1  0
 44 42  2  0
 47 48  1  0
 49 47  1  0
 50 11  1  0
 50 51  2  0
 52 53  1  0
 52 51  1  0
 54 53  1  0
 54 56  1  0
 55 66  2  0
 56 61  1  0
 57 65  1  0
 57 67  1  0
 58 64  1  0
 58 60  1  0
 59 65  1  0
 60 59  1  0
 61 60  2  0
 62 63  1  0
 62 56  2  0
 63 58  2  0
 64 57  1  0
 65 55  1  0
 67 69  2  0
 68 67  1  0
 70 68  1  0
 71 80  2  0
 71 76  1  0
 72 68  1  0
 72 76  1  0
 73 72  1  0
 74 75  1  0
 74 73  1  0
 75 71  1  0
 76 77  2  0
 77 78  1  0
 79 78  2  0
 80 79  1  0
 81 55  1  0
 81 86  1  0
 81 82  1  0
 82 85  1  1
 82 83  1  0
 84 82  1  0
 86 89  1  0
 87 86  1  0
 87 91  1  0
 88 87  2  0
 91 90  1  0
 91 93  1  0
 93 94  1  0
 93 92  1  0
M  ISO  4  12 100  20 100  53 101  54 101
M  END
>  <TORSDO>  (8) 
F 20

>  <SCORE>  (8) 
-3.637

>  <name>  (8) 
7

>  <ligand_id>  (8) 
7

>  <original_smiles>  (8) 
[H]c1c([H])c([H])c2c(c1[H])C([H])([H])C([H])([H])C([H])([H])C2([H])N([H])C(=O)C1([H])N(C(=O)C([H])(N([H])C(=O)C([H])(N([H])C([H])([H])[H])C([H])([H])[H])C(C([H])([H])[H])(C([H])([H])[H])C([H])([H])[H])C([H])([H])c2c([H])c(OC([H])([H])C([H])([H])C([H])([H])C([H])([H])N3c4c([H])c(N([H])C(=O)N5C([H])([H])C([H])([H])C([H])([H])C([H])(n6nc(-c7c([H])c([H])c(Oc8c([H])c([H])c(F)c([H])c8F)c([H])c7[H])c(C(=O)N([H])[H])c6N([H])[H])C5([H])[H])c([H])c([H])c4C([H])(C([H])([H])[H])C([H])([H])C3([H])[H])c([H])c([H])c2C1([H])[H]

>  <smiles>  (8) 
[H]c1c([H])c([H])c2c(c1[H])C([H])([H])C([H])([H])C([H])([H])C2([H])N([H])C(=O)C1([H])N(C(=O)C([H])(N([H])C(=O)C([H])(N([H])C([H])([H])[H])C([H])([H])[H])C(C([H])([H])[H])(C([H])([H])[H])C([H])([H])[H])C([H])([H])c2c([H])c(OC([H])([H])C([H])([H])C([H])([H])C([H])([H])N3c4c([H])c(N([H])C(=O)N5C([H])([H])C([H])([H])C([H])([H])C([H])(n6nc(-c7c([H])c([H])c(Oc8c([H])c([H])c(F)c([H])c8F)c([H])c7[H])c(C(=O)N([H])[H])c6N([H])[H])C5([H])[H])c([H])c([H])c4C([H])(C([H])([H])[H])C([H])([H])C3([H])[H])c([H])c([H])c2C1([H])[H]

$$$$
8:0:0
     RDKit          3D

 97106  0  0  1  0  0  0  0  0999 V2000
  -30.5300  -15.6870   20.9510 C   0  0  0  0  0  0  0  0  0  0  0  0
  -30.6270  -13.2600   19.9450 C   0  0  0  0  0  2  0  0  0  0  0  0
  -29.7990  -12.9770   18.6640 C   0  0  0  0  0  2  0  0  0  0  0  0
  -28.3500  -12.5970   19.0160 C   0  0  0  0  0  2  0  0  0  0  0  0
  -27.7710  -13.5240   20.1010 C   0  0  0  0  0  3  0  0  0  0  0  0
  -28.7400  -13.7660   21.2880 C   0  0  0  0  0  2  0  0  0  0  0  0
  -29.9740  -14.3720   20.7460 N   0  0  0  0  0  0  0  0  0  0  0  0
  -31.7690  -15.6370   20.9360 O   0  0  0  0  0  0  0  0  0  0  0  0
  -32.1180  -19.5140   19.6550 C   0  0  0  0  0  3  0  0  0  0  0  0
  -31.2930  -20.6040   21.6600 C   0  0  0  0  0  3  0  0  0  0  0  0
  -30.9640  -18.6980   19.5820 C   0  0  0  0  0  0  0  0  0  0  0  0
  -30.2300  -18.5900   20.7930 C   0  0  0  0  0  0  0  0  0  0  0  0
  -30.0230  -20.0370   21.4200 C   0  0  0  0  0  0  0  0  0  0  0  0
  -32.3550  -20.3280   20.7790 C   0  0  0  0  0  0  0  0  0  0  0  0
  -29.3340  -17.0290   18.5570 C   0  0  0  0  0  0  0  0  0  0  0  0
  -28.6910  -17.0120   19.9580 C   0  0  0  0  0  2  0  0  0  0  0  0
  -30.4430  -18.0890   18.2760 C   0  0  0  0  0  3  0  0  0  0  0  0
  -29.7870  -17.0300   20.9150 N   0  0  0  0  0  0  0  0  0  0  0  0
  -28.9750  -16.2120   17.7090 O   0  0  0  0  0  0  0  0  0  0  0  0
  -33.8420  -21.1930   20.9200 Cl  0  0  0  0  0  0  0  0  0  0  0  0
  -25.3530  -14.0310   20.7320 C   0  0  0  0  0  0  0  0  0  0  0  0
  -24.2860  -13.2240   21.0010 C   0  0  0  0  0  0  0  0  0  0  0  0
  -24.7880  -11.8860   20.9650 C   0  0  0  0  0  0  0  0  0  0  0  0
  -26.4280  -13.1790   20.5320 N   0  0  0  0  0  0  0  0  0  0  0  0
  -26.0970  -11.8840   20.7450 N   0  0  0  0  0  0  0  0  0  0  0  0
  -24.0850  -10.6040   21.0600 C   0  0  0  0  0  0  0  0  0  0  0  0
  -24.3550   -9.6940   22.1060 C   0  0  0  0  0  3  0  0  0  0  0  0
  -23.6520   -8.4730   22.1880 C   0  0  0  0  0  3  0  0  0  0  0  0
  -22.6670   -8.1560   21.2220 C   0  0  0  0  0  0  0  0  0  0  0  0
  -22.4200   -9.0550   20.1700 C   0  0  0  0  0  3  0  0  0  0  0  0
  -23.1240  -10.2680   20.0860 C   0  0  0  0  0  3  0  0  0  0  0  0
  -21.9520   -6.9840   21.2090 O   0  0  0  0  0  0  0  0  0  0  0  0
  -21.5060   -6.4020   22.3680 C   0  0  0  0  0  0  0  0  0  0  0  0
  -20.6090   -7.0620   23.2380 C   0  0  0  0  0  3  0  0  0  0  0  0
  -20.1230   -6.3990   24.3820 C   0  0  0  0  0  3  0  0  0  0  0  0
  -20.5220   -5.0770   24.6530 C   0  0  0  0  0  0  0  0  0  0  0  0
  -21.4110   -4.4170   23.7870 C   0  0  0  0  0  3  0  0  0  0  0  0
  -21.8990   -5.0770   22.6460 C   0  0  0  0  0  0  0  0  0  0  0  0
  -22.7390   -4.4300   21.8020 F   0  0  0  0  0  0  0  0  0  0  0  0
  -20.0480   -4.4370   25.7480 F   0  0  0  0  0  0  0  0  0  0  0  0
  -22.8610  -13.6610   21.1770 C   0  0  0  0  0  0  0  0  0  0  0  0
  -22.0900  -12.9280   21.9720 N   0  0  0  0  0  0  0  0  0  0  0  0
  -22.4370  -14.6860   20.6460 O   0  0  0  0  0  0  0  0  0  0  0  0
  -22.4470  -12.1000   22.4250 H   0  0  0  0  0  0  0  0  0  0  0  0
  -21.1310  -13.2000   22.1330 H   0  0  0  0  0  0  0  0  0  0  0  0
  -25.4860  -15.4110   20.6110 N   0  0  0  0  0  0  0  0  0  0  0  0
  -24.6910  -16.0340   20.7050 H   0  0  0  0  0  0  0  0  0  0  0  0
  -26.3430  -15.8950   20.3900 H   0  0  0  0  0  0  0  0  0  0  0  0
  -31.8710  -18.4140   16.2640 C   0  0  0  0  0  1  0  0  0  0  0  0
  -32.5060  -16.6610   17.8880 C   0  0  0  0  0  1  0  0  0  0  0  0
  -31.4060  -17.4750   17.3130 N   0  0  1  0  0  4  0  0  0  0  0  0
  -30.8170  -16.8140   16.8210 H   0  0  0  0  0  0  0  0  0  0  0  0
  -29.0240  -21.2400   21.3570 N   0  0  0  0  0  0  0  0  0  0  0  0
  -28.0430  -20.9700   21.3330 H   0  0  0  0  0  0  0  0  0  0  0  0
  -29.2530  -22.8880   21.1730 C   0  0  0  0  0  3  0  0  0  0  0  0
  -28.1650  -24.3250   20.8310 C   0  0  0  0  0  3  0  0  0  0  0  0
  -28.3730  -25.9810   20.7100 O   0  0  0  0  0  0  0  0  0  0  0  0
  -24.7580  -32.0500   23.4890 C   0  0  0  0  0  0  0  0  0  0  0  0
  -27.3540  -27.0830   20.6110 C   0  0  0  0  0  0  0  0  0  0  0  0
  -23.5870  -30.6290   21.8540 C   0  0  0  0  0  3  0  0  0  0  0  0
  -25.0570  -28.9880   20.4870 C   0  0  0  0  0  0  0  0  0  0  0  0
  -26.1580  -30.8210   21.7520 C   0  0  0  0  0  2  0  0  0  0  0  0
  -26.2360  -29.3970   21.1220 C   0  0  0  0  0  0  0  0  0  0  0  0
  -27.3760  -28.4680   21.1530 C   0  0  0  0  0  3  0  0  0  0  0  0
  -26.1420  -26.8310   19.9270 C   0  0  0  0  0  3  0  0  0  0  0  0
  -25.0360  -27.7250   19.8700 C   0  0  0  0  0  3  0  0  0  0  0  0
  -23.8420  -29.9180   20.4950 C   0  0  0  0  0  2  0  0  0  0  0  0
  -24.8560  -31.1960   22.4180 N   0  0  0  0  0  0  0  0  0  0  0  0
  -23.6600  -32.3530   23.9850 O   0  0  0  0  0  0  0  0  0  0  0  0
  -22.8690  -29.6570   22.8250 C   0  0  0  0  0  0  0  0  0  0  0  0
  -21.5810  -29.3610   22.5720 N   0  0  0  0  0  0  0  0  0  0  0  0
  -23.4820  -29.1670   23.7770 O   0  0  0  0  0  0  0  0  0  0  0  0
  -21.1350  -29.8080   21.7840 H   0  0  0  0  0  0  0  0  0  0  0  0
  -18.2630  -27.9150   22.8490 C   0  0  0  0  0  0  0  0  0  0  0  0
  -20.7550  -28.4150   23.3330 C   0  0  0  0  0  3  0  0  0  0  0  0
  -21.0240  -26.9590   22.8860 C   0  0  0  0  0  2  0  0  0  0  0  0
  -20.0590  -26.4740   21.7990 C   0  0  0  0  0  2  0  0  0  0  0  0
  -18.6130  -26.5430   22.2960 C   0  0  0  0  0  2  0  0  0  0  0  0
  -19.2700  -28.7990   23.3210 C   0  0  0  0  0  0  0  0  0  0  0  0
  -18.8910  -30.0730   23.7970 C   0  0  0  0  0  3  0  0  0  0  0  0
  -17.5380  -30.4660   23.8070 C   0  0  0  0  0  3  0  0  0  0  0  0
  -16.5470  -29.5820   23.3500 C   0  0  0  0  0  3  0  0  0  0  0  0
  -16.9080  -28.3080   22.8770 C   0  0  0  0  0  3  0  0  0  0  0  0
  -26.0190  -32.7000   24.1340 C   0  0  0  0  0  3  0  0  0  0  0  0
  -26.4980  -31.9560   25.4420 C   0  0  1  0  0  0  0  0  0  0  0  0
  -25.3530  -31.6370   26.4330 C   0  0  0  0  0  1  0  0  0  0  0  0
  -27.1970  -30.6230   25.0960 C   0  0  0  0  0  1  0  0  0  0  0  0
  -27.5460  -32.8200   26.1810 C   0  0  0  0  0  1  0  0  0  0  0  0
  -25.6990  -34.1060   24.4410 N   0  0  0  0  0  0  0  0  0  0  0  0
  -25.9730  -35.1480   23.6450 C   0  0  0  0  0  0  0  0  0  0  0  0
  -26.5820  -35.0290   22.5790 O   0  0  0  0  0  0  0  0  0  0  0  0
  -25.1480  -34.2710   25.2700 H   0  0  0  0  0  0  0  0  0  0  0  0
  -24.1730  -36.8940   23.4050 C   0  0  0  0  0  1  0  0  0  0  0  0
  -25.4980  -36.5440   24.1010 C   0  0  0  0  0  3  0  0  0  0  0  0
  -27.6690  -37.5250   24.7000 C   0  0  0  0  0  1  0  0  0  0  0  0
  -26.4870  -37.6160   23.8480 N   0  0  0  0  0  0  0  0  0  0  0  0
  -26.0680  -38.5330   23.9830 H   0  0  0  0  0  0  0  0  0  0  0  0
  2  7  1  0
  3  4  1  0
  3  2  1  0
  5  4  1  0
  5 24  1  0
  5  6  1  0
  7  1  1  0
  7  6  1  0
  8  1  2  0
  9 14  1  0
 11  9  2  0
 11 12  1  0
 12 18  1  0
 12 13  2  3
 13 10  1  0
 14 20  1  0
 14 10  2  0
 15 16  1  0
 16 18  1  0
 17 51  1  0
 17 15  1  0
 17 11  1  0
 18  1  1  0
 19 15  2  0
 21 22  2  0
 22 41  1  0
 23 22  1  0
 23 26  1  0
 24 21  1  0
 24 25  1  0
 25 23  2  0
 26 27  1  0
 27 28  2  0
 29 28  1  0
 30 29  2  0
 31 30  1  0
 31 26  2  0
 32 29  1  0
 32 33  1  0
 33 38  2  0
 33 34  1  0
 34 35  2  0
 35 36  1  0
 36 40  1  0
 37 36  2  0
 38 37  1  0
 39 38  1  0
 41 42  1  0
 42 45  1  0
 42 44  1  0
 43 41  2  0
 46 47  1  0
 46 21  1  0
 48 46  1  0
 49 51  1  0
 51 50  1  0
 51 52  1  6
 53 13  1  0
 54 53  1  0
 55 53  1  0
 56 55  2  0
 57 56  1  0
 58 69  2  0
 59 57  1  0
 59 64  1  0
 60 68  1  0
 60 70  1  0
 61 67  1  0
 61 63  1  0
 62 68  1  0
 63 64  2  0
 63 62  1  0
 65 59  2  0
 66 65  1  0
 66 61  2  0
 67 60  1  0
 68 58  1  0
 70 72  2  0
 71 70  1  0
 73 71  1  0
 74 83  2  0
 74 79  1  0
 75 71  1  0
 76 75  1  0
 77 78  1  0
 77 76  1  0
 78 74  1  0
 79 75  1  0
 79 80  2  0
 80 81  1  0
 82 81  2  0
 83 82  1  0
 84 58  1  0
 84 89  1  0
 84 85  1  0
 85 88  1  1
 85 86  1  0
 87 85  1  0
 89 92  1  0
 90 94  1  0
 90 89  1  0
 91 90  2  0
 94 93  1  0
 96 97  1  0
 96 94  1  0
 96 95  1  0
M  ISO  4   1 100  18 100  56 101  57 101
M  END
>  <TORSDO>  (9) 
F 19

>  <SCORE>  (9) 
-13.813

>  <name>  (9) 
8

>  <ligand_id>  (9) 
8

>  <original_smiles>  (9) 
[H]c1c([H])c([H])c2c(c1[H])C([H])([H])C([H])([H])C([H])([H])C2([H])N([H])C(=O)C1([H])N(C(=O)C([H])(N([H])C(=O)C([H])(N([H])C([H])([H])[H])C([H])([H])[H])C(C([H])([H])[H])(C([H])([H])[H])C([H])([H])[H])C([H])([H])c2c([H])c(OC([H])([H])C([H])([H])N([H])c3c([H])c(Cl)c([H])c4c3N(C(=O)N3C([H])([H])C([H])([H])C([H])([H])C([H])(n5nc(-c6c([H])c([H])c(Oc7c([H])c([H])c(F)c([H])c7F)c([H])c6[H])c(C(=O)N([H])[H])c5N([H])[H])C3([H])[H])C([H])([H])C(=O)C4([H])[N+]([H])(C([H])([H])[H])C([H])([H])[H])c([H])c([H])c2C1([H])[H]

>  <smiles>  (9) 
[H]c1c([H])c([H])c2c(c1[H])C([H])([H])C([H])([H])C([H])([H])C2([H])N([H])C(=O)C1([H])N(C(=O)C([H])(N([H])C(=O)C([H])(N([H])C([H])([H])[H])C([H])([H])[H])C(C([H])([H])[H])(C([H])([H])[H])C([H])([H])[H])C([H])([H])c2c([H])c(OC([H])([H])C([H])([H])N([H])c3c([H])c(Cl)c([H])c4c3N(C(=O)N3C([H])([H])C([H])([H])C([H])([H])C([H])(n5nc(-c6c([H])c([H])c(Oc7c([H])c([H])c(F)c([H])c7F)c([H])c6[H])c(C(=O)N([H])[H])c5N([H])[H])C3([H])[H])C([H])([H])C(=O)C4([H])[N+]([H])(C([H])([H])[H])C([H])([H])[H])c([H])c([H])c2C1([H])[H]

$$$$
9:0:0
     RDKit          3D

 91 99  0  0  1  0  0  0  0  0999 V2000
  -30.3270  -20.5240   19.0140 C   0  0  0  0  0  3  0  0  0  0  0  0
  -30.4980  -19.0460   19.0560 C   0  0  0  0  0  3  0  0  0  0  0  0
  -29.7970  -21.4050   20.0510 C   0  0  0  0  0  0  0  0  0  0  0  0
  -30.1540  -18.1650   20.1590 C   0  0  0  0  0  0  0  0  0  0  0  0
  -29.4750  -20.5280   21.1640 C   0  0  0  0  0  0  0  0  0  0  0  0
  -29.6020  -19.0390   21.1880 C   0  0  0  0  0  0  0  0  0  0  0  0
  -29.1590  -18.3980   22.2970 F   0  0  0  0  0  0  0  0  0  0  0  0
  -31.0100  -15.3650   20.1260 C   0  0  0  0  0  0  0  0  0  0  0  0
  -30.9940  -12.9100   19.3250 C   0  0  0  0  0  2  0  0  0  0  0  0
  -30.0600  -12.7000   18.1060 C   0  0  0  0  0  2  0  0  0  0  0  0
  -28.6050  -12.4650   18.5540 C   0  0  0  0  0  2  0  0  0  0  0  0
  -28.1720  -13.4570   19.6600 C   0  0  0  0  0  3  0  0  0  0  0  0
  -29.2250  -13.5900   20.7820 C   0  0  0  0  0  2  0  0  0  0  0  0
  -30.4690  -14.0550   20.1480 N   0  0  0  0  0  0  0  0  0  0  0  0
  -32.2110  -15.4110   19.8240 O   0  0  0  0  0  0  0  0  0  0  0  0
  -30.1870  -16.5650   20.3100 N   0  0  0  0  0  0  0  0  0  0  0  0
  -29.3090  -16.2570   20.7000 H   0  0  0  0  0  0  0  0  0  0  0  0
  -25.8170  -14.0590   20.4440 C   0  0  0  0  0  0  0  0  0  0  0  0
  -24.7420  -13.2990   20.8120 C   0  0  0  0  0  0  0  0  0  0  0  0
  -25.1800  -11.9400   20.7540 C   0  0  0  0  0  0  0  0  0  0  0  0
  -26.8380  -13.1660   20.1750 N   0  0  0  0  0  0  0  0  0  0  0  0
  -26.4670  -11.8850   20.4290 N   0  0  0  0  0  0  0  0  0  0  0  0
  -24.4280  -10.6890   20.9290 C   0  0  0  0  0  0  0  0  0  0  0  0
  -24.8000   -9.7310   21.8980 C   0  0  0  0  0  3  0  0  0  0  0  0
  -24.0470   -8.5480   22.0610 C   0  0  0  0  0  3  0  0  0  0  0  0
  -22.9060   -8.3150   21.2560 C   0  0  0  0  0  0  0  0  0  0  0  0
  -22.5520   -9.2620   20.2780 C   0  0  0  0  0  3  0  0  0  0  0  0
  -23.3070  -10.4360   20.1120 C   0  0  0  0  0  3  0  0  0  0  0  0
  -22.1300   -7.1830   21.3270 O   0  0  0  0  0  0  0  0  0  0  0  0
  -21.9340   -6.5180   22.5110 C   0  0  0  0  0  0  0  0  0  0  0  0
  -21.3720   -7.1550   23.6380 C   0  0  0  0  0  3  0  0  0  0  0  0
  -21.1240   -6.4160   24.8140 C   0  0  0  0  0  3  0  0  0  0  0  0
  -21.4260   -5.0430   24.8600 C   0  0  0  0  0  0  0  0  0  0  0  0
  -21.9810   -4.4060   23.7360 C   0  0  0  0  0  3  0  0  0  0  0  0
  -22.2310   -5.1410   22.5630 C   0  0  0  0  0  0  0  0  0  0  0  0
  -22.7460   -4.5170   21.4760 F   0  0  0  0  0  0  0  0  0  0  0  0
  -21.1800   -4.3310   25.9840 F   0  0  0  0  0  0  0  0  0  0  0  0
  -23.3570  -13.8000   21.1010 C   0  0  0  0  0  0  0  0  0  0  0  0
  -22.6280  -13.1200   21.9780 N   0  0  0  0  0  0  0  0  0  0  0  0
  -22.9310  -14.8310   20.5820 O   0  0  0  0  0  0  0  0  0  0  0  0
  -22.9850  -12.2850   22.4190 H   0  0  0  0  0  0  0  0  0  0  0  0
  -21.7010  -13.4420   22.2150 H   0  0  0  0  0  0  0  0  0  0  0  0
  -26.0060  -15.4290   20.2870 N   0  0  0  0  0  0  0  0  0  0  0  0
  -25.2570  -16.0970   20.4370 H   0  0  0  0  0  0  0  0  0  0  0  0
  -26.8430  -15.8540   19.9120 H   0  0  0  0  0  0  0  0  0  0  0  0
  -29.9030  -23.1410   20.0630 C   0  0  0  0  0  3  0  0  0  0  0  0
  -28.8160  -24.5380   19.9580 C   0  0  0  0  0  3  0  0  0  0  0  0
  -29.0690  -26.1290   20.2180 O   0  0  0  0  0  0  0  0  0  0  0  0
  -25.5300  -31.6910   23.8140 C   0  0  0  0  0  0  0  0  0  0  0  0
  -28.0630  -27.2160   20.2600 C   0  0  0  0  0  0  0  0  0  0  0  0
  -24.3510  -30.5570   21.9740 C   0  0  0  0  0  3  0  0  0  0  0  0
  -25.8000  -29.1120   20.3960 C   0  0  0  0  0  0  0  0  0  0  0  0
  -26.9220  -30.7240   21.9240 C   0  0  0  0  0  2  0  0  0  0  0  0
  -26.9780  -29.4140   21.0920 C   0  0  0  0  0  0  0  0  0  0  0  0
  -28.1070  -28.4910   20.9990 C   0  0  0  0  0  3  0  0  0  0  0  0
  -26.8590  -27.0550   19.5380 C   0  0  0  0  0  3  0  0  0  0  0  0
  -25.7630  -27.9540   19.6030 C   0  0  0  0  0  3  0  0  0  0  0  0
  -24.6020  -30.0490   20.5280 C   0  0  0  0  0  2  0  0  0  0  0  0
  -25.6210  -31.0100   22.6280 N   0  0  0  0  0  0  0  0  0  0  0  0
  -24.4350  -31.9420   24.3420 O   0  0  0  0  0  0  0  0  0  0  0  0
  -23.6010  -29.4660   22.7830 C   0  0  0  0  0  0  0  0  0  0  0  0
  -22.2810  -29.3250   22.5630 N   0  0  0  0  0  0  0  0  0  0  0  0
  -24.2170  -28.7470   23.5730 O   0  0  0  0  0  0  0  0  0  0  0  0
  -21.8400  -29.9570   21.9090 H   0  0  0  0  0  0  0  0  0  0  0  0
  -18.8810  -28.0710   22.7100 C   0  0  0  0  0  0  0  0  0  0  0  0
  -21.4140  -28.3160   23.1780 C   0  0  0  0  0  3  0  0  0  0  0  0
  -21.5670  -26.9470   22.4740 C   0  0  0  0  0  2  0  0  0  0  0  0
  -20.5420  -26.7240   21.3570 C   0  0  0  0  0  2  0  0  0  0  0  0
  -19.1170  -26.7980   21.9140 C   0  0  0  0  0  2  0  0  0  0  0  0
  -19.9600  -28.7910   23.2890 C   0  0  0  0  0  0  0  0  0  0  0  0
  -19.6850  -29.9840   23.9940 C   0  0  0  0  0  3  0  0  0  0  0  0
  -18.3660  -30.4570   24.1220 C   0  0  0  0  0  3  0  0  0  0  0  0
  -17.3000  -29.7350   23.5570 C   0  0  0  0  0  3  0  0  0  0  0  0
  -17.5600  -28.5420   22.8570 C   0  0  0  0  0  3  0  0  0  0  0  0
  -26.7990  -32.2060   24.5600 C   0  0  0  0  0  3  0  0  0  0  0  0
  -27.1880  -31.3190   25.8070 C   0  0  1  0  0  0  0  0  0  0  0  0
  -26.0200  -31.0810   26.7930 C   0  0  0  0  0  1  0  0  0  0  0  0
  -27.7070  -29.9340   25.3600 C   0  0  0  0  0  1  0  0  0  0  0  0
  -28.3450  -31.9900   26.5870 C   0  0  0  0  0  1  0  0  0  0  0  0
  -26.5420  -33.5930   24.9870 N   0  0  0  0  0  0  0  0  0  0  0  0
  -26.9680  -34.6850   24.3400 C   0  0  0  0  0  0  0  0  0  0  0  0
  -27.6800  -34.6290   23.3340 O   0  0  0  0  0  0  0  0  0  0  0  0
  -25.9180  -33.7140   25.7700 H   0  0  0  0  0  0  0  0  0  0  0  0
  -25.3630  -36.6070   24.0690 C   0  0  0  0  0  1  0  0  0  0  0  0
  -26.5380  -36.0600   24.8950 C   0  0  0  0  0  3  0  0  0  0  0  0
  -28.6740  -36.7500   25.8930 C   0  0  0  0  0  1  0  0  0  0  0  0
  -27.6320  -37.0560   24.9170 N   0  0  0  0  0  0  0  0  0  0  0  0
  -27.2700  -37.9830   25.1210 H   0  0  0  0  0  0  0  0  0  0  0  0
  -29.0550  -21.1990   22.2890 O   0  0  0  0  0  0  0  0  0  0  0  0
  -30.2050  -22.6740   23.7910 C   0  0  0  0  0  1  0  0  0  0  0  0
  -29.9780  -21.2190   23.3730 C   0  0  0  0  0  2  0  0  0  0  0  0
  1  2  2  0
  1  3  1  0
  2  4  1  0
  3 46  1  0
  3  5  2  0
  4 16  1  0
  4  6  2  0
  5  6  1  0
  5 89  1  0
  6  7  1  0
  8 14  1  0
  8 16  1  0
  9 14  1  0
 10 11  1  0
 10  9  1  0
 12 11  1  0
 12 21  1  0
 12 13  1  0
 14 13  1  0
 15  8  2  0
 16 17  1  0
 18 19  2  0
 19 38  1  0
 20 19  1  0
 20 23  1  0
 21 22  1  0
 21 18  1  0
 22 20  2  0
 23 24  1  0
 24 25  2  0
 26 29  1  0
 26 25  1  0
 27 26  2  0
 28 27  1  0
 28 23  2  0
 29 30  1  0
 30 35  2  0
 30 31  1  0
 31 32  2  0
 32 33  1  0
 33 37  1  0
 34 33  2  0
 35 34  1  0
 36 35  1  0
 38 39  1  0
 39 42  1  0
 39 41  1  0
 40 38  2  0
 43 44  1  0
 43 18  1  0
 45 43  1  0
 47 46  2  0
 47 48  1  0
 48 50  1  0
 49 60  2  0
 50 55  1  0
 51 59  1  0
 51 61  1  0
 52 58  1  0
 52 54  1  0
 53 59  1  0
 54 53  1  0
 55 54  2  0
 56 57  1  0
 56 50  2  0
 57 52  2  0
 58 51  1  0
 59 49  1  0
 61 63  2  0
 62 61  1  0
 64 62  1  0
 65 74  2  0
 65 70  1  0
 66 62  1  0
 66 70  1  0
 67 66  1  0
 68 69  1  0
 68 67  1  0
 69 65  1  0
 70 71  2  0
 71 72  1  0
 73 72  2  0
 74 73  1  0
 75 49  1  0
 75 80  1  0
 75 76  1  0
 76 79  1  1
 76 77  1  0
 78 76  1  0
 80 83  1  0
 81 85  1  0
 81 80  1  0
 82 81  2  0
 85 84  1  0
 85 87  1  0
 87 88  1  0
 87 86  1  0
 89 91  1  0
 91 90  1  0
M  ISO  4   8 100  16 100  47 101  48 101
M  END
>  <TORSDO>  (10) 
F 20

>  <SCORE>  (10) 
-11.269

>  <name>  (10) 
9

>  <ligand_id>  (10) 
9

>  <original_smiles>  (10) 
[H]c1c([H])c([H])c2c(c1[H])C([H])([H])C([H])([H])C([H])([H])C2([H])N([H])C(=O)C1([H])N(C(=O)C([H])(N([H])C(=O)C([H])(N([H])C([H])([H])[H])C([H])([H])[H])C(C([H])([H])[H])(C([H])([H])[H])C([H])([H])[H])C([H])([H])c2c([H])c(OC([H])([H])C([H])([H])c3c([H])c([H])c(N([H])C(=O)N4C([H])([H])C([H])([H])C([H])([H])C([H])(n5nc(-c6c([H])c([H])c(Oc7c([H])c([H])c(F)c([H])c7F)c([H])c6[H])c(C(=O)N([H])[H])c5N([H])[H])C4([H])[H])c(F)c3OC([H])([H])C([H])([H])[H])c([H])c([H])c2C1([H])[H]

>  <smiles>  (10) 
[H]c1c([H])c([H])c2c(c1[H])C([H])([H])C([H])([H])C([H])([H])C2([H])N([H])C(=O)C1([H])N(C(=O)C([H])(N([H])C(=O)C([H])(N([H])C([H])([H])[H])C([H])([H])[H])C(C([H])([H])[H])(C([H])([H])[H])C([H])([H])[H])C([H])([H])c2c([H])c(OC([H])([H])C([H])([H])c3c([H])c([H])c(N([H])C(=O)N4C([H])([H])C([H])([H])C([H])([H])C([H])(n5nc(-c6c([H])c([H])c(Oc7c([H])c([H])c(F)c([H])c7F)c([H])c6[H])c(C(=O)N([H])[H])c5N([H])[H])C4([H])[H])c(F)c3OC([H])([H])C([H])([H])[H])c([H])c([H])c2C1([H])[H]

$$$$
10:0:0
     RDKit          3D

 93101  0  0  1  0  0  0  0  0999 V2000
  -28.8630  -21.8110   20.3140 C   0  0  0  0  0  2  0  0  0  0  0  0
  -31.1180  -19.6170   22.5400 C   0  0  0  0  0  3  0  0  0  0  0  0
  -30.9610  -18.3320   21.9880 C   0  0  0  0  0  3  0  0  0  0  0  0
  -30.4030  -20.7140   22.0230 C   0  0  0  0  0  3  0  0  0  0  0  0
  -30.0550  -18.0940   20.9410 C   0  0  0  0  0  0  0  0  0  0  0  0
  -29.4780  -20.5380   20.9680 C   0  0  0  0  0  0  0  0  0  0  0  0
  -29.2730  -19.2060   20.4660 C   0  0  0  0  0  0  0  0  0  0  0  0
  -28.3400  -18.9990   19.5050 F   0  0  0  0  0  0  0  0  0  0  0  0
  -29.9300  -16.6280   20.4290 C   0  0  0  0  0  2  0  0  0  0  0  0
  -31.4980  -14.6580   20.0670 C   0  0  0  0  0  0  0  0  0  0  0  0
  -31.0510  -12.4760   18.9660 C   0  0  0  0  0  2  0  0  0  0  0  0
  -30.1170  -12.7010   17.7590 C   0  0  0  0  0  2  0  0  0  0  0  0
  -28.6410  -12.6280   18.2110 C   0  0  0  0  0  2  0  0  0  0  0  0
  -28.3580  -13.5000   19.4700 C   0  0  0  0  0  3  0  0  0  0  0  0
  -29.4300  -13.2830   20.5680 C   0  0  0  0  0  2  0  0  0  0  0  0
  -30.7480  -13.5200   19.9650 N   0  0  0  0  0  0  0  0  0  0  0  0
  -32.6080  -14.7450   19.5380 O   0  0  0  0  0  0  0  0  0  0  0  0
  -31.0410  -15.6990   20.8060 N   0  0  0  0  0  0  0  0  0  0  0  0
  -31.8270  -16.2280   21.1640 H   0  0  0  0  0  0  0  0  0  0  0  0
  -26.0150  -14.2210   20.2440 C   0  0  0  0  0  0  0  0  0  0  0  0
  -24.9210  -13.5100   20.6450 C   0  0  0  0  0  0  0  0  0  0  0  0
  -25.3070  -12.1340   20.6070 C   0  0  0  0  0  0  0  0  0  0  0  0
  -27.0090  -13.2870   19.9880 N   0  0  0  0  0  0  0  0  0  0  0  0
  -26.5880  -12.0280   20.2650 N   0  0  0  0  0  0  0  0  0  0  0  0
  -24.5160  -10.9150   20.8180 C   0  0  0  0  0  0  0  0  0  0  0  0
  -24.8710   -9.9660   21.8020 C   0  0  0  0  0  3  0  0  0  0  0  0
  -24.0830   -8.8110   22.0010 C   0  0  0  0  0  3  0  0  0  0  0  0
  -22.9260   -8.5940   21.2150 C   0  0  0  0  0  0  0  0  0  0  0  0
  -22.5890   -9.5330   20.2220 C   0  0  0  0  0  3  0  0  0  0  0  0
  -23.3760  -10.6800   20.0220 C   0  0  0  0  0  3  0  0  0  0  0  0
  -22.1160   -7.4910   21.3220 O   0  0  0  0  0  0  0  0  0  0  0  0
  -21.9290   -6.8460   22.5200 C   0  0  0  0  0  0  0  0  0  0  0  0
  -21.4230   -7.5180   23.6570 C   0  0  0  0  0  3  0  0  0  0  0  0
  -21.1720   -6.8020   24.8430 C   0  0  0  0  0  3  0  0  0  0  0  0
  -21.4230   -5.4170   24.8950 C   0  0  0  0  0  0  0  0  0  0  0  0
  -21.9240   -4.7470   23.7660 C   0  0  0  0  0  3  0  0  0  0  0  0
  -22.1730   -5.4600   22.5800 C   0  0  0  0  0  0  0  0  0  0  0  0
  -22.6330   -4.8070   21.4860 F   0  0  0  0  0  0  0  0  0  0  0  0
  -21.1790   -4.7250   26.0330 F   0  0  0  0  0  0  0  0  0  0  0  0
  -23.5560  -14.0680   20.9420 C   0  0  0  0  0  0  0  0  0  0  0  0
  -22.8100  -13.4500   21.8480 N   0  0  0  0  0  0  0  0  0  0  0  0
  -23.1630  -15.0990   20.3950 O   0  0  0  0  0  0  0  0  0  0  0  0
  -23.1450  -12.6380   22.3470 H   0  0  0  0  0  0  0  0  0  0  0  0
  -21.8910  -13.8150   22.0610 H   0  0  0  0  0  0  0  0  0  0  0  0
  -26.2300  -15.5820   20.0460 N   0  0  0  0  0  0  0  0  0  0  0  0
  -25.4520  -16.2260   20.1170 H   0  0  0  0  0  0  0  0  0  0  0  0
  -27.0510  -15.9900   19.6190 H   0  0  0  0  0  0  0  0  0  0  0  0
  -26.4340  -22.1780   20.7530 C   0  0  0  0  0  1  0  0  0  0  0  0
  -27.8270  -22.5630   21.1070 N   0  0  2  0  0  4  0  0  0  0  0  0
  -27.9480  -22.1750   22.0310 H   0  0  0  0  0  0  0  0  0  0  0  0
  -28.0100  -24.0610   21.3390 C   0  0  0  0  0  3  0  0  0  0  0  0
  -28.3220  -25.0060   20.1090 C   0  0  0  0  0  3  0  0  0  0  0  0
  -28.4040  -26.4670   20.3340 O   0  0  0  0  0  0  0  0  0  0  0  0
  -24.6240  -31.8510   23.2160 C   0  0  0  0  0  0  0  0  0  0  0  0
  -27.2800  -27.2880   20.2320 C   0  0  0  0  0  0  0  0  0  0  0  0
  -23.4600  -30.4310   21.5680 C   0  0  0  0  0  3  0  0  0  0  0  0
  -24.9380  -28.9050   20.1560 C   0  0  0  0  0  0  0  0  0  0  0  0
  -26.0050  -30.7540   21.4540 C   0  0  0  0  0  2  0  0  0  0  0  0
  -26.0880  -29.3880   20.7880 C   0  0  0  0  0  0  0  0  0  0  0  0
  -27.2650  -28.5870   20.8170 C   0  0  0  0  0  3  0  0  0  0  0  0
  -26.1170  -26.8630   19.5500 C   0  0  0  0  0  3  0  0  0  0  0  0
  -24.9580  -27.6570   19.5160 C   0  0  0  0  0  3  0  0  0  0  0  0
  -23.6960  -29.7610   20.1900 C   0  0  0  0  0  2  0  0  0  0  0  0
  -24.7100  -31.0330   22.1290 N   0  0  0  0  0  0  0  0  0  0  0  0
  -23.5320  -32.1270   23.7320 O   0  0  0  0  0  0  0  0  0  0  0  0
  -22.7900  -29.4110   22.5220 C   0  0  0  0  0  0  0  0  0  0  0  0
  -21.4700  -29.2120   22.3660 N   0  0  0  0  0  0  0  0  0  0  0  0
  -23.4590  -28.8040   23.3630 O   0  0  0  0  0  0  0  0  0  0  0  0
  -20.9910  -29.7550   21.6600 H   0  0  0  0  0  0  0  0  0  0  0  0
  -18.1040  -27.9510   22.7830 C   0  0  0  0  0  0  0  0  0  0  0  0
  -20.6450  -28.2750   23.1290 C   0  0  0  0  0  3  0  0  0  0  0  0
  -20.8000  -26.8360   22.5890 C   0  0  0  0  0  2  0  0  0  0  0  0
  -19.7400  -26.4650   21.5480 C   0  0  0  0  0  2  0  0  0  0  0  0
  -18.3340  -26.5910   22.1440 C   0  0  0  0  0  2  0  0  0  0  0  0
  -19.1910  -28.7470   23.2300 C   0  0  0  0  0  0  0  0  0  0  0  0
  -18.9290  -30.0150   23.7930 C   0  0  0  0  0  3  0  0  0  0  0  0
  -17.6100  -30.4910   23.9130 C   0  0  0  0  0  3  0  0  0  0  0  0
  -16.5340  -29.6920   23.4860 C   0  0  0  0  0  3  0  0  0  0  0  0
  -16.7820  -28.4240   22.9260 C   0  0  0  0  0  3  0  0  0  0  0  0
  -25.8960  -32.4960   23.8470 C   0  0  0  0  0  3  0  0  0  0  0  0
  -25.5720  -33.8930   24.1620 N   0  0  0  0  0  0  0  0  0  0  0  0
  -25.9180  -34.9470   23.4120 C   0  0  0  0  0  0  0  0  0  0  0  0
  -26.6080  -34.8500   22.3950 O   0  0  0  0  0  0  0  0  0  0  0  0
  -24.9500  -34.0480   24.9420 H   0  0  0  0  0  0  0  0  0  0  0  0
  -24.1770  -36.7220   23.0430 C   0  0  0  0  0  1  0  0  0  0  0  0
  -25.4120  -36.3300   23.8660 C   0  0  0  0  0  3  0  0  0  0  0  0
  -27.5220  -37.2350   24.7230 C   0  0  0  0  0  1  0  0  0  0  0  0
  -26.4330  -37.3940   23.7650 N   0  0  0  0  0  0  0  0  0  0  0  0
  -26.0120  -38.3060   23.9260 H   0  0  0  0  0  0  0  0  0  0  0  0
  -26.4020  -31.7420   25.1390 C   0  0  1  0  0  0  0  0  0  0  0  0
  -25.2890  -31.5080   26.1840 C   0  0  0  0  0  1  0  0  0  0  0  0
  -27.0030  -30.3610   24.7870 C   0  0  0  0  0  1  0  0  0  0  0  0
  -27.5270  -32.5670   25.8110 C   0  0  0  0  0  1  0  0  0  0  0  0
  1  6  1  0
  1 49  1  0
  3  2  2  0
  4  2  1  0
  5  3  1  0
  6  4  2  0
  7  5  2  0
  7  6  1  0
  8  7  1  0
  9 18  1  0
  9  5  1  0
 10 18  1  0
 11 16  1  0
 12 13  1  0
 12 11  1  0
 14 13  1  0
 14 23  1  0
 14 15  1  0
 16 10  1  0
 16 15  1  0
 17 10  2  0
 18 19  1  0
 20 21  2  0
 21 40  1  0
 22 21  1  0
 22 25  1  0
 23 20  1  0
 23 24  1  0
 24 22  2  0
 25 26  1  0
 26 27  2  0
 28 31  1  0
 28 27  1  0
 29 28  2  0
 30 29  1  0
 30 25  2  0
 31 32  1  0
 32 37  2  0
 32 33  1  0
 33 34  2  0
 34 35  1  0
 35 39  1  0
 36 35  2  0
 37 36  1  0
 38 37  1  0
 40 41  1  0
 41 44  1  0
 41 43  1  0
 42 40  2  0
 45 46  1  0
 45 20  1  0
 47 45  1  0
 48 49  1  0
 49 51  1  0
 49 50  1  1
 52 53  1  0
 52 51  2  0
 54 65  2  0
 55 53  1  0
 55 60  1  0
 56 64  1  0
 56 66  1  0
 57 63  1  0
 57 59  1  0
 58 64  1  0
 59 60  2  0
 59 58  1  0
 61 55  2  0
 62 61  1  0
 62 57  2  0
 63 56  1  0
 64 54  1  0
 66 68  2  0
 67 66  1  0
 69 67  1  0
 70 79  2  0
 70 75  1  0
 71 67  1  0
 71 75  1  0
 72 71  1  0
 73 74  1  0
 73 72  1  0
 74 70  1  0
 75 76  2  0
 76 77  1  0
 78 77  2  0
 79 78  1  0
 80 54  1  0
 80 81  1  0
 80 90  1  0
 81 84  1  0
 82 86  1  0
 82 81  1  0
 83 82  2  0
 86 85  1  0
 88 86  1  0
 88 89  1  0
 88 87  1  0
 90 93  1  1
 90 91  1  0
 92 90  1  0
M  ISO  4  10 100  18 100  52 101  53 101
M  END
>  <TORSDO>  (11) 
F 21

>  <SCORE>  (11) 
-12.402

>  <name>  (11) 
10

>  <ligand_id>  (11) 
10

>  <original_smiles>  (11) 
[H]c1c([H])c([H])c2c(c1[H])C([H])([H])C([H])([H])C([H])([H])C2([H])N([H])C(=O)C1([H])N(C(=O)C([H])(N([H])C(=O)C([H])(N([H])C([H])([H])[H])C([H])([H])[H])C(C([H])([H])[H])(C([H])([H])[H])C([H])([H])[H])C([H])([H])c2c([H])c(OC([H])([H])C([H])([H])[N+]([H])(C([H])([H])[H])C([H])([H])c3c([H])c([H])c([H])c(C([H])([H])N([H])C(=O)N4C([H])([H])C([H])([H])C([H])([H])C([H])(n5nc(-c6c([H])c([H])c(Oc7c([H])c([H])c(F)c([H])c7F)c([H])c6[H])c(C(=O)N([H])[H])c5N([H])[H])C4([H])[H])c3F)c([H])c([H])c2C1([H])[H]

>  <smiles>  (11) 
[H]c1c([H])c([H])c2c(c1[H])C([H])([H])C([H])([H])C([H])([H])C2([H])N([H])C(=O)C1([H])N(C(=O)C([H])(N([H])C(=O)C([H])(N([H])C([H])([H])[H])C([H])([H])[H])C(C([H])([H])[H])(C([H])([H])[H])C([H])([H])[H])C([H])([H])c2c([H])c(OC([H])([H])C([H])([H])[N+]([H])(C([H])([H])[H])C([H])([H])c3c([H])c([H])c([H])c(C([H])([H])N([H])C(=O)N4C([H])([H])C([H])([H])C([H])([H])C([H])(n5nc(-c6c([H])c([H])c(Oc7c([H])c([H])c(F)c([H])c7F)c([H])c6[H])c(C(=O)N([H])[H])c5N([H])[H])C4([H])[H])c3F)c([H])c([H])c2C1([H])[H]

$$$$
11:0:0
     RDKit          3D

100109  0  0  1  0  0  0  0  0999 V2000
  -27.9020  -24.4870   20.4760 C   0  0  0  0  0  3  0  0  0  0  0  0
  -27.9480  -25.8140   20.8160 N   0  0  0  0  0  0  0  0  0  0  0  0
  -28.9810  -23.7940   20.0020 N   0  0  0  0  0  0  0  0  0  0  0  0
  -27.2760  -26.1590   21.4870 H   0  0  0  0  0  0  0  0  0  0  0  0
  -29.8350  -24.3300   19.9210 H   0  0  0  0  0  0  0  0  0  0  0  0
  -28.2730  -26.8290   19.8990 O   0  0  0  0  0  0  0  0  0  0  0  0
  -24.6230  -31.9660   23.3040 C   0  0  0  0  0  0  0  0  0  0  0  0
  -27.2010  -27.7060   19.8820 C   0  0  0  0  0  0  0  0  0  0  0  0
  -23.3940  -30.6790   21.5870 C   0  0  0  0  0  3  0  0  0  0  0  0
  -24.8280  -29.2530   20.0260 C   0  0  0  0  0  0  0  0  0  0  0  0
  -25.9210  -31.0400   21.3820 C   0  0  0  0  0  2  0  0  0  0  0  0
  -25.9990  -29.7150   20.6430 C   0  0  0  0  0  0  0  0  0  0  0  0
  -27.1900  -28.9440   20.5800 C   0  0  0  0  0  3  0  0  0  0  0  0
  -26.0240  -27.2990   19.2180 C   0  0  0  0  0  3  0  0  0  0  0  0
  -24.8370  -28.0460   19.3090 C   0  0  0  0  0  3  0  0  0  0  0  0
  -23.5860  -30.1050   20.1590 C   0  0  0  0  0  2  0  0  0  0  0  0
  -24.6650  -31.2390   22.1500 N   0  0  0  0  0  0  0  0  0  0  0  0
  -23.5490  -32.1990   23.8750 O   0  0  0  0  0  0  0  0  0  0  0  0
  -22.7560  -29.5920   22.4830 C   0  0  0  0  0  0  0  0  0  0  0  0
  -21.4370  -29.3860   22.3360 N   0  0  0  0  0  0  0  0  0  0  0  0
  -23.4460  -28.9370   23.2690 O   0  0  0  0  0  0  0  0  0  0  0  0
  -20.9380  -29.9710   21.6790 H   0  0  0  0  0  0  0  0  0  0  0  0
  -18.0770  -28.1260   22.7810 C   0  0  0  0  0  0  0  0  0  0  0  0
  -20.6360  -28.3900   23.0480 C   0  0  0  0  0  3  0  0  0  0  0  0
  -20.7460  -27.0020   22.3740 C   0  0  0  0  0  2  0  0  0  0  0  0
  -19.6380  -26.7410   21.3500 C   0  0  0  0  0  2  0  0  0  0  0  0
  -18.2600  -26.8290   22.0140 C   0  0  0  0  0  2  0  0  0  0  0  0
  -19.1930  -28.8670   23.2530 C   0  0  0  0  0  0  0  0  0  0  0  0
  -18.9700  -30.0850   23.9320 C   0  0  0  0  0  3  0  0  0  0  0  0
  -17.6630  -30.5620   24.1430 C   0  0  0  0  0  3  0  0  0  0  0  0
  -16.5610  -29.8160   23.6900 C   0  0  0  0  0  3  0  0  0  0  0  0
  -16.7680  -28.5990   23.0150 C   0  0  0  0  0  3  0  0  0  0  0  0
  -25.9170  -32.5560   23.9450 C   0  0  0  0  0  3  0  0  0  0  0  0
  -25.6330  -33.9490   24.3200 N   0  0  0  0  0  0  0  0  0  0  0  0
  -25.9740  -35.0180   23.5880 C   0  0  0  0  0  0  0  0  0  0  0  0
  -26.6330  -34.9360   22.5470 O   0  0  0  0  0  0  0  0  0  0  0  0
  -25.0520  -34.0890   25.1330 H   0  0  0  0  0  0  0  0  0  0  0  0
  -24.2600  -36.8370   23.3080 C   0  0  0  0  0  1  0  0  0  0  0  0
  -25.5100  -36.4000   24.0880 C   0  0  0  0  0  3  0  0  0  0  0  0
  -27.6700  -37.2350   24.9010 C   0  0  0  0  0  1  0  0  0  0  0  0
  -26.5530  -37.4430   23.9840 N   0  0  0  0  0  0  0  0  0  0  0  0
  -26.1610  -38.3640   24.1680 H   0  0  0  0  0  0  0  0  0  0  0  0
  -26.4230  -31.7370   25.1950 C   0  0  1  0  0  0  0  0  0  0  0  0
  -25.3230  -31.4710   26.2490 C   0  0  0  0  0  1  0  0  0  0  0  0
  -26.9970  -30.3710   24.7560 C   0  0  0  0  0  1  0  0  0  0  0  0
  -27.5770  -32.4980   25.8900 C   0  0  0  0  0  1  0  0  0  0  0  0
  -29.0980  -22.3820   19.4770 C   0  0  0  0  0  2  0  0  0  0  0  0
  -30.6940  -18.9580   21.7900 C   0  0  0  0  0  3  0  0  0  0  0  0
  -30.5710  -20.2290   22.3920 C   0  0  0  0  0  3  0  0  0  0  0  0
  -29.8220  -19.9080   19.7270 C   0  0  0  0  0  3  0  0  0  0  0  0
  -30.3310  -18.7760   20.4410 C   0  0  0  0  0  0  0  0  0  0  0  0
  -29.6800  -21.2030   20.3190 C   0  0  0  0  0  0  0  0  0  0  0  0
  -30.0830  -21.3390   21.6670 C   0  0  0  0  0  0  0  0  0  0  0  0
  -29.9940  -22.5350   22.2910 F   0  0  0  0  0  0  0  0  0  0  0  0
  -30.5570  -17.4190   19.7190 C   0  0  0  0  0  2  0  0  0  0  0  0
  -31.0650  -15.0250   20.3010 C   0  0  0  0  0  0  0  0  0  0  0  0
  -30.8670  -12.7300   19.4170 C   0  0  0  0  0  2  0  0  0  0  0  0
  -29.9730  -12.7820   18.1600 C   0  0  0  0  0  2  0  0  0  0  0  0
  -28.4880  -12.6400   18.5460 C   0  0  0  0  0  2  0  0  0  0  0  0
  -28.0790  -13.5850   19.7080 C   0  0  0  0  0  3  0  0  0  0  0  0
  -29.0990  -13.5370   20.8690 C   0  0  0  0  0  2  0  0  0  0  0  0
  -30.4300  -13.8160   20.3130 N   0  0  0  0  0  0  0  0  0  0  0  0
  -32.2400  -15.1320   19.9430 O   0  0  0  0  0  0  0  0  0  0  0  0
  -30.2810  -16.1310   20.4220 N   0  0  0  0  0  0  0  0  0  0  0  0
  -29.3320  -15.9770   20.7270 H   0  0  0  0  0  0  0  0  0  0  0  0
  -25.6730  -14.2060   20.3620 C   0  0  0  0  0  0  0  0  0  0  0  0
  -24.5940  -13.4430   20.7180 C   0  0  0  0  0  0  0  0  0  0  0  0
  -25.0490  -12.0890   20.7170 C   0  0  0  0  0  0  0  0  0  0  0  0
  -26.7190  -13.3180   20.1650 N   0  0  0  0  0  0  0  0  0  0  0  0
  -26.3470  -12.0400   20.4390 N   0  0  0  0  0  0  0  0  0  0  0  0
  -24.3120  -10.8330   20.9070 C   0  0  0  0  0  0  0  0  0  0  0  0
  -24.6760   -9.9080   21.9110 C   0  0  0  0  0  3  0  0  0  0  0  0
  -23.9390   -8.7170   22.0870 C   0  0  0  0  0  3  0  0  0  0  0  0
  -22.8250   -8.4410   21.2570 C   0  0  0  0  0  0  0  0  0  0  0  0
  -22.4820   -9.3540   20.2440 C   0  0  0  0  0  3  0  0  0  0  0  0
  -23.2200  -10.5370   20.0670 C   0  0  0  0  0  3  0  0  0  0  0  0
  -22.0670   -7.2990   21.3370 O   0  0  0  0  0  0  0  0  0  0  0  0
  -21.8650   -6.6510   22.5300 C   0  0  0  0  0  0  0  0  0  0  0  0
  -21.2960   -7.3030   23.6450 C   0  0  0  0  0  3  0  0  0  0  0  0
  -21.0430   -6.5820   24.8290 C   0  0  0  0  0  3  0  0  0  0  0  0
  -21.3490   -5.2100   24.8980 C   0  0  0  0  0  0  0  0  0  0  0  0
  -21.9100   -4.5570   23.7860 C   0  0  0  0  0  3  0  0  0  0  0  0
  -22.1650   -5.2760   22.6050 C   0  0  0  0  0  0  0  0  0  0  0  0
  -22.6870   -4.6370   21.5300 F   0  0  0  0  0  0  0  0  0  0  0  0
  -21.0980   -4.5150   26.0320 F   0  0  0  0  0  0  0  0  0  0  0  0
  -23.1930  -13.9300   20.9500 C   0  0  0  0  0  0  0  0  0  0  0  0
  -22.4510  -13.2690   21.8320 N   0  0  0  0  0  0  0  0  0  0  0  0
  -22.7630  -14.9340   20.3830 O   0  0  0  0  0  0  0  0  0  0  0  0
  -22.8100  -12.4580   22.3130 H   0  0  0  0  0  0  0  0  0  0  0  0
  -21.5100  -13.5790   22.0290 H   0  0  0  0  0  0  0  0  0  0  0  0
  -25.8450  -15.5730   20.1650 N   0  0  0  0  0  0  0  0  0  0  0  0
  -25.0710  -16.2250   20.2280 H   0  0  0  0  0  0  0  0  0  0  0  0
  -26.6940  -16.0010   19.8180 H   0  0  0  0  0  0  0  0  0  0  0  0
  -26.5670  -23.7930   20.6420 C   0  0  0  0  0  2  0  0  0  0  0  0
  -23.7820  -24.2050   23.1330 C   0  0  0  0  0  2  0  0  0  0  0  0
  -24.2530  -25.6550   22.9550 C   0  0  0  0  0  2  0  0  0  0  0  0
  -24.6880  -23.3620   22.2250 C   0  0  0  0  0  2  0  0  0  0  0  0
  -25.2690  -25.6090   21.8100 C   0  0  0  0  0  2  0  0  0  0  0  0
  -25.8180  -24.2380   21.8440 N   0  0  2  0  0  4  0  0  0  0  0  0
  -26.4730  -24.2290   22.6220 H   0  0  0  0  0  0  0  0  0  0  0  0
  1 94  1  0
  1  2  1  0
  2  4  1  0
  3  1  1  0
  5  3  1  0
  6  2  1  0
  7 18  2  0
  8  6  1  0
  8 13  1  0
  9 17  1  0
  9 19  1  0
 10 16  1  0
 10 12  1  0
 11 17  1  0
 12 11  1  0
 13 12  2  0
 14 15  1  0
 14  8  2  0
 15 10  2  0
 16  9  1  0
 17  7  1  0
 19 21  2  0
 20 19  1  0
 22 20  1  0
 23 32  2  0
 23 28  1  0
 24 20  1  0
 24 28  1  0
 25 24  1  0
 26 27  1  0
 26 25  1  0
 27 23  1  0
 28 29  2  0
 29 30  1  0
 31 30  2  0
 32 31  1  0
 33  7  1  0
 33 34  1  0
 33 43  1  0
 34 37  1  0
 35 39  1  0
 35 34  1  0
 36 35  2  0
 39 38  1  0
 41 39  1  0
 41 42  1  0
 41 40  1  0
 43 46  1  1
 43 44  1  0
 45 43  1  0
 47  3  1  0
 47 52  1  0
 48 49  1  0
 50 52  2  0
 50 51  1  0
 51 48  2  0
 52 53  1  0
 53 54  1  0
 53 49  2  0
 55 64  1  0
 55 51  1  0
 56 62  1  0
 56 64  1  0
 57 62  1  0
 58 59  1  0
 58 57  1  0
 60 59  1  0
 60 69  1  0
 60 61  1  0
 62 61  1  0
 63 56  2  0
 64 65  1  0
 66 67  2  0
 67 86  1  0
 68 67  1  0
 68 71  1  0
 69 66  1  0
 69 70  1  0
 70 68  2  0
 71 72  1  0
 72 73  2  0
 74 77  1  0
 74 73  1  0
 75 74  2  0
 76 75  1  0
 76 71  2  0
 77 78  1  0
 78 83  2  0
 78 79  1  0
 79 80  2  0
 80 81  1  0
 81 85  1  0
 82 81  2  0
 83 82  1  0
 84 83  1  0
 86 87  1  0
 87 90  1  0
 87 89  1  0
 88 86  2  0
 91 92  1  0
 91 66  1  0
 93 91  1  0
 94 99  1  0
 96 95  1  0
 97 95  1  0
 98 99  1  0
 98 96  1  0
 99 97  1  0
 99100  1  1
M  ISO  4   2 101   6 101  56 100  64 100
M  END
>  <TORSDO>  (12) 
F 21

>  <SCORE>  (12) 
-13.159

>  <name>  (12) 
11

>  <ligand_id>  (12) 
11

>  <original_smiles>  (12) 
[H]c1c([H])c([H])c2c(c1[H])C([H])([H])C([H])([H])C([H])([H])C2([H])N([H])C(=O)C1([H])N(C(=O)C([H])(N([H])C(=O)C([H])(N([H])C([H])([H])[H])C([H])([H])[H])C(C([H])([H])[H])(C([H])([H])[H])C([H])([H])[H])C([H])([H])c2c([H])c(ON([H])C(=[N+]([H])C([H])([H])c3c([H])c(C([H])([H])N([H])C(=O)N4C([H])([H])C([H])([H])C([H])([H])C([H])(n5nc(-c6c([H])c([H])c(Oc7c([H])c([H])c(F)c([H])c7F)c([H])c6[H])c(C(=O)N([H])[H])c5N([H])[H])C4([H])[H])c([H])c([H])c3F)C([H])([H])[N+]3([H])C([H])([H])C([H])([H])C([H])([H])C3([H])[H])c([H])c([H])c2C1([H])[H]

>  <smiles>  (12) 
[H]c1c([H])c([H])c2c(c1[H])C([H])([H])C([H])([H])C([H])([H])C2([H])N([H])C(=O)C1([H])N(C(=O)C([H])(N([H])C(=O)C([H])(N([H])C([H])([H])[H])C([H])([H])[H])C(C([H])([H])[H])(C([H])([H])[H])C([H])([H])[H])C([H])([H])c2c([H])c(ON([H])C(=[N+]([H])C([H])([H])c3c([H])c(C([H])([H])N([H])C(=O)N4C([H])([H])C([H])([H])C([H])([H])C([H])(n5nc(-c6c([H])c([H])c(Oc7c([H])c([H])c(F)c([H])c7F)c([H])c6[H])c(C(=O)N([H])[H])c5N([H])[H])C4([H])[H])c([H])c([H])c3F)C([H])([H])[N+]3([H])C([H])([H])C([H])([H])C([H])([H])C3([H])[H])c([H])c([H])c2C1([H])[H]

$$$$
12:0:0
     RDKit          3D

 91 99  0  0  1  0  0  0  0  0999 V2000
  -29.9210  -21.5280   20.5150 N   0  0  0  0  0  0  0  0  0  0  0  0
  -30.8700  -21.8920   20.4630 H   0  0  0  0  0  0  0  0  0  0  0  0
  -28.6440  -17.9250   20.5540 C   0  0  0  0  0  3  0  0  0  0  0  0
  -28.6320  -19.3530   20.5230 C   0  0  0  0  0  3  0  0  0  0  0  0
  -31.0480  -17.9130   20.4490 C   0  0  0  0  0  3  0  0  0  0  0  0
  -29.8460  -17.1630   20.5210 C   0  0  0  0  0  0  0  0  0  0  0  0
  -29.8360  -20.0970   20.4830 C   0  0  0  0  0  0  0  0  0  0  0  0
  -31.0390  -19.3400   20.4380 C   0  0  0  0  0  0  0  0  0  0  0  0
  -32.2200  -20.0020   20.3870 F   0  0  0  0  0  0  0  0  0  0  0  0
  -30.5840  -14.6810   20.2080 C   0  0  0  0  0  0  0  0  0  0  0  0
  -30.3520  -12.4680   19.1010 C   0  0  0  0  0  2  0  0  0  0  0  0
  -29.3610  -12.6350   17.9260 C   0  0  0  0  0  2  0  0  0  0  0  0
  -27.9010  -12.4740   18.4040 C   0  0  0  0  0  2  0  0  0  0  0  0
  -27.5940  -13.3030   19.6790 C   0  0  0  0  0  3  0  0  0  0  0  0
  -28.6920  -13.0980   20.7460 C   0  0  0  0  0  2  0  0  0  0  0  0
  -29.9810  -13.4550   20.1330 N   0  0  0  0  0  0  0  0  0  0  0  0
  -31.7320  -14.8630   19.7900 O   0  0  0  0  0  0  0  0  0  0  0  0
  -29.7560  -15.7070   20.5930 N   0  0  0  0  0  0  0  0  0  0  0  0
  -28.8540  -15.3640   20.8800 H   0  0  0  0  0  0  0  0  0  0  0  0
  -25.2340  -13.9010   20.5030 C   0  0  0  0  0  0  0  0  0  0  0  0
  -24.1770  -13.1260   20.8990 C   0  0  0  0  0  0  0  0  0  0  0  0
  -24.6290  -11.7730   20.8170 C   0  0  0  0  0  0  0  0  0  0  0  0
  -26.2620  -13.0200   20.2060 N   0  0  0  0  0  0  0  0  0  0  0  0
  -25.9050  -11.7330   20.4500 N   0  0  0  0  0  0  0  0  0  0  0  0
  -23.9020  -10.5110   21.0020 C   0  0  0  0  0  0  0  0  0  0  0  0
  -24.3340   -9.5410   21.9330 C   0  0  0  0  0  3  0  0  0  0  0  0
  -23.6090   -8.3420   22.1080 C   0  0  0  0  0  3  0  0  0  0  0  0
  -22.4370   -8.1060   21.3500 C   0  0  0  0  0  0  0  0  0  0  0  0
  -22.0240   -9.0650   20.4080 C   0  0  0  0  0  3  0  0  0  0  0  0
  -22.7510  -10.2530   20.2330 C   0  0  0  0  0  3  0  0  0  0  0  0
  -21.6840   -6.9590   21.4320 O   0  0  0  0  0  0  0  0  0  0  0  0
  -21.5870   -6.2450   22.5980 C   0  0  0  0  0  0  0  0  0  0  0  0
  -21.0730   -6.8160   23.7840 C   0  0  0  0  0  3  0  0  0  0  0  0
  -20.9300   -6.0240   24.9410 C   0  0  0  0  0  3  0  0  0  0  0  0
  -21.2870   -4.6640   24.9140 C   0  0  0  0  0  0  0  0  0  0  0  0
  -21.7950   -4.0920   23.7340 C   0  0  0  0  0  3  0  0  0  0  0  0
  -21.9420   -4.8810   22.5790 C   0  0  0  0  0  0  0  0  0  0  0  0
  -22.4120   -4.3210   21.4390 F   0  0  0  0  0  0  0  0  0  0  0  0
  -21.1410   -3.9010   26.0230 F   0  0  0  0  0  0  0  0  0  0  0  0
  -22.7950  -13.6040   21.2350 C   0  0  0  0  0  0  0  0  0  0  0  0
  -22.0950  -12.8940   22.1130 N   0  0  0  0  0  0  0  0  0  0  0  0
  -22.3440  -14.6430   20.7560 O   0  0  0  0  0  0  0  0  0  0  0  0
  -22.4710  -12.0540   22.5270 H   0  0  0  0  0  0  0  0  0  0  0  0
  -21.1680  -13.1960   22.3760 H   0  0  0  0  0  0  0  0  0  0  0  0
  -25.3960  -15.2750   20.3510 N   0  0  0  0  0  0  0  0  0  0  0  0
  -24.6200  -15.9140   20.4890 H   0  0  0  0  0  0  0  0  0  0  0  0
  -26.1950  -15.7140   19.9140 H   0  0  0  0  0  0  0  0  0  0  0  0
  -28.8190  -22.5000   20.2830 C   0  0  0  0  0  2  0  0  0  0  0  0
  -29.2120  -24.0390   20.4150 C   0  0  0  0  0  3  0  0  0  0  0  0
  -28.0780  -25.0890   20.0710 C   0  0  0  0  0  3  0  0  0  0  0  0
  -28.3220  -26.5390   20.2230 O   0  0  0  0  0  0  0  0  0  0  0  0
  -24.5630  -31.8870   23.2470 C   0  0  0  0  0  0  0  0  0  0  0  0
  -27.2010  -27.3810   20.1620 C   0  0  0  0  0  0  0  0  0  0  0  0
  -23.3680  -30.5020   21.5870 C   0  0  0  0  0  3  0  0  0  0  0  0
  -24.8300  -28.9750   20.1500 C   0  0  0  0  0  0  0  0  0  0  0  0
  -25.9060  -30.8330   21.4170 C   0  0  0  0  0  2  0  0  0  0  0  0
  -25.9930  -29.4640   20.7580 C   0  0  0  0  0  0  0  0  0  0  0  0
  -27.1820  -28.6780   20.7560 C   0  0  0  0  0  3  0  0  0  0  0  0
  -26.0150  -26.9470   19.5220 C   0  0  0  0  0  3  0  0  0  0  0  0
  -24.8420  -27.7220   19.5230 C   0  0  0  0  0  3  0  0  0  0  0  0
  -23.5890  -29.8420   20.2000 C   0  0  0  0  0  2  0  0  0  0  0  0
  -24.6310  -31.0900   22.1400 N   0  0  0  0  0  0  0  0  0  0  0  0
  -23.4780  -32.1570   23.7790 O   0  0  0  0  0  0  0  0  0  0  0  0
  -22.7070  -29.4720   22.5330 C   0  0  0  0  0  0  0  0  0  0  0  0
  -21.3810  -29.2960   22.4020 N   0  0  0  0  0  0  0  0  0  0  0  0
  -23.3850  -28.8360   23.3440 O   0  0  0  0  0  0  0  0  0  0  0  0
  -20.8950  -29.8650   21.7230 H   0  0  0  0  0  0  0  0  0  0  0  0
  -17.9960  -28.1290   22.9080 C   0  0  0  0  0  0  0  0  0  0  0  0
  -20.5590  -28.3530   23.1600 C   0  0  0  0  0  3  0  0  0  0  0  0
  -20.6390  -26.9320   22.5550 C   0  0  0  0  0  2  0  0  0  0  0  0
  -19.5240  -26.6430   21.5440 C   0  0  0  0  0  2  0  0  0  0  0  0
  -18.1500  -26.7910   22.2040 C   0  0  0  0  0  2  0  0  0  0  0  0
  -19.1280  -28.8690   23.3430 C   0  0  0  0  0  0  0  0  0  0  0  0
  -18.9290  -30.1230   23.9630 C   0  0  0  0  0  3  0  0  0  0  0  0
  -17.6320  -30.6340   24.1510 C   0  0  0  0  0  3  0  0  0  0  0  0
  -16.5150  -29.8910   23.7330 C   0  0  0  0  0  3  0  0  0  0  0  0
  -16.6980  -28.6400   23.1160 C   0  0  0  0  0  3  0  0  0  0  0  0
  -25.8440  -32.5140   23.8800 C   0  0  0  0  0  3  0  0  0  0  0  0
  -26.3460  -31.7420   25.1610 C   0  0  1  0  0  0  0  0  0  0  0  0
  -25.2400  -31.5040   26.2150 C   0  0  0  0  0  1  0  0  0  0  0  0
  -26.9360  -30.3660   24.7750 C   0  0  0  0  0  1  0  0  0  0  0  0
  -27.4860  -32.5380   25.8400 C   0  0  0  0  0  1  0  0  0  0  0  0
  -25.5370  -33.9140   24.2060 N   0  0  0  0  0  0  0  0  0  0  0  0
  -25.8530  -34.9630   23.4330 C   0  0  0  0  0  0  0  0  0  0  0  0
  -26.5060  -34.8540   22.3910 O   0  0  0  0  0  0  0  0  0  0  0  0
  -24.9580  -34.0710   25.0180 H   0  0  0  0  0  0  0  0  0  0  0  0
  -24.1080  -36.7450   23.1080 C   0  0  0  0  0  1  0  0  0  0  0  0
  -25.3700  -36.3520   23.8920 C   0  0  0  0  0  3  0  0  0  0  0  0
  -27.5150  -37.2600   24.6700 C   0  0  0  0  0  1  0  0  0  0  0  0
  -26.3940  -37.4100   23.7460 N   0  0  0  0  0  0  0  0  0  0  0  0
  -25.9850  -38.3290   23.8890 H   0  0  0  0  0  0  0  0  0  0  0  0
  2  1  1  0
  4  3  1  0
  5  6  1  0
  6  3  2  0
  6 18  1  0
  7  1  1  0
  7  4  2  0
  8  5  2  0
  8  7  1  0
  9  8  1  0
 10 18  1  0
 11 16  1  0
 12 13  1  0
 12 11  1  0
 14 13  1  0
 14 23  1  0
 14 15  1  0
 16 10  1  0
 16 15  1  0
 17 10  2  0
 18 19  1  0
 20 21  2  0
 21 40  1  0
 22 21  1  0
 22 25  1  0
 23 24  1  0
 23 20  1  0
 24 22  2  0
 25 26  1  0
 26 27  2  0
 28 31  1  0
 28 27  1  0
 29 28  2  0
 30 29  1  0
 30 25  2  0
 31 32  1  0
 32 33  1  0
 33 34  2  0
 35 34  1  0
 35 39  1  0
 36 35  2  0
 37 32  2  0
 37 36  1  0
 38 37  1  0
 40 41  1  0
 41 44  1  0
 41 43  1  0
 42 40  2  0
 45 46  1  0
 45 20  1  0
 47 45  1  0
 48 49  1  0
 48  1  1  0
 50 51  1  0
 50 49  2  0
 52 63  2  0
 53 51  1  0
 53 58  1  0
 54 62  1  0
 54 64  1  0
 55 61  1  0
 55 57  1  0
 56 62  1  0
 57 56  1  0
 58 57  2  0
 59 60  1  0
 59 53  2  0
 60 55  2  0
 61 54  1  0
 62 52  1  0
 64 66  2  0
 65 64  1  0
 67 65  1  0
 68 77  2  0
 68 73  1  0
 69 65  1  0
 69 73  1  0
 70 69  1  0
 71 72  1  0
 71 70  1  0
 72 68  1  0
 73 74  2  0
 74 75  1  0
 76 75  2  0
 77 76  1  0
 78 52  1  0
 78 83  1  0
 78 79  1  0
 79 82  1  1
 79 80  1  0
 81 79  1  0
 83 86  1  0
 84 88  1  0
 84 83  1  0
 85 84  2  0
 88 87  1  0
 90 91  1  0
 90 88  1  0
 90 89  1  0
M  ISO  4  10 100  18 100  50 101  51 101
M  END
>  <TORSDO>  (13) 
F 20

>  <SCORE>  (13) 
-13.925

>  <name>  (13) 
12

>  <ligand_id>  (13) 
12

>  <original_smiles>  (13) 
[H]c1c([H])c([H])c2c(c1[H])C([H])([H])C([H])([H])C([H])([H])C2([H])N([H])C(=O)C1([H])N(C(=O)C([H])(N([H])C(=O)C([H])(N([H])C([H])([H])[H])C([H])([H])[H])C(C([H])([H])[H])(C([H])([H])[H])C([H])([H])[H])C([H])([H])c2c([H])c(OC([H])([H])C([H])([H])C([H])([H])N([H])c3c([H])c([H])c(N([H])C(=O)N4C([H])([H])C([H])([H])C([H])([H])C([H])(n5nc(-c6c([H])c([H])c(Oc7c([H])c([H])c(F)c([H])c7F)c([H])c6[H])c(C(=O)N([H])[H])c5N([H])[H])C4([H])[H])c([H])c3F)c([H])c([H])c2C1([H])[H]

>  <smiles>  (13) 
[H]c1c([H])c([H])c2c(c1[H])C([H])([H])C([H])([H])C([H])([H])C2([H])N([H])C(=O)C1([H])N(C(=O)C([H])(N([H])C(=O)C([H])(N([H])C([H])([H])[H])C([H])([H])[H])C(C([H])([H])[H])(C([H])([H])[H])C([H])([H])[H])C([H])([H])c2c([H])c(OC([H])([H])C([H])([H])C([H])([H])N([H])c3c([H])c([H])c(N([H])C(=O)N4C([H])([H])C([H])([H])C([H])([H])C([H])(n5nc(-c6c([H])c([H])c(Oc7c([H])c([H])c(F)c([H])c7F)c([H])c6[H])c(C(=O)N([H])[H])c5N([H])[H])C4([H])[H])c([H])c3F)c([H])c([H])c2C1([H])[H]

$$$$
13:0:0
     RDKit          3D

102111  0  0  1  0  0  0  0  0999 V2000
  -30.6710  -18.4610   18.5250 C   0  0  0  0  0  3  0  0  0  0  0  0
  -29.1060  -18.9630   20.3040 C   0  0  0  0  0  3  0  0  0  0  0  0
  -29.9340  -19.4080   19.2560 C   0  0  0  0  0  0  0  0  0  0  0  0
  -30.6050  -17.0880   18.8310 C   0  0  0  0  0  0  0  0  0  0  0  0
  -29.0110  -17.5880   20.6220 C   0  0  0  0  0  0  0  0  0  0  0  0
  -29.8110  -16.6350   19.9260 C   0  0  0  0  0  0  0  0  0  0  0  0
  -31.3410  -16.1410   17.8950 C   0  0  0  0  0  1  0  0  0  0  0  0
  -30.5650  -14.2530   19.9450 C   0  0  0  0  0  0  0  0  0  0  0  0
  -30.4050  -12.0580   18.8540 C   0  0  0  0  0  2  0  0  0  0  0  0
  -29.4770  -12.2030   17.6280 C   0  0  0  0  0  2  0  0  0  0  0  0
  -27.9920  -12.0570   18.0260 C   0  0  0  0  0  2  0  0  0  0  0  0
  -27.6050  -12.8840   19.2810 C   0  0  0  0  0  3  0  0  0  0  0  0
  -28.6480  -12.6970   20.4070 C   0  0  0  0  0  2  0  0  0  0  0  0
  -29.9710  -13.0360   19.8590 N   0  0  0  0  0  0  0  0  0  0  0  0
  -31.7290  -14.4690   19.5910 O   0  0  0  0  0  0  0  0  0  0  0  0
  -29.7110  -15.2470   20.2600 N   0  0  0  0  0  0  0  0  0  0  0  0
  -28.8210  -14.9200   20.5940 H   0  0  0  0  0  0  0  0  0  0  0  0
  -25.1450  -13.3990   19.8390 C   0  0  0  0  0  0  0  0  0  0  0  0
  -24.1170  -12.5990   20.2620 C   0  0  0  0  0  0  0  0  0  0  0  0
  -24.6680  -11.2870   20.3960 C   0  0  0  0  0  0  0  0  0  0  0  0
  -26.2530  -12.5720   19.7390 N   0  0  0  0  0  0  0  0  0  0  0  0
  -25.9670  -11.3040   20.1330 N   0  0  0  0  0  0  0  0  0  0  0  0
  -24.0210  -10.0040   20.7030 C   0  0  0  0  0  0  0  0  0  0  0  0
  -24.4590   -9.1950   21.7740 C   0  0  0  0  0  3  0  0  0  0  0  0
  -23.8120   -7.9740   22.0610 C   0  0  0  0  0  3  0  0  0  0  0  0
  -22.7120   -7.5520   21.2760 C   0  0  0  0  0  0  0  0  0  0  0  0
  -22.2960   -8.3500   20.1960 C   0  0  0  0  0  3  0  0  0  0  0  0
  -22.9450   -9.5620   19.9080 C   0  0  0  0  0  3  0  0  0  0  0  0
  -22.0370   -6.3710   21.4650 O   0  0  0  0  0  0  0  0  0  0  0  0
  -21.9140   -5.8040   22.7080 C   0  0  0  0  0  0  0  0  0  0  0  0
  -21.3170   -6.4920   23.7860 C   0  0  0  0  0  3  0  0  0  0  0  0
  -21.1490   -5.8450   25.0270 C   0  0  0  0  0  3  0  0  0  0  0  0
  -21.5670   -4.5100   25.1890 C   0  0  0  0  0  0  0  0  0  0  0  0
  -22.1570   -3.8220   24.1150 C   0  0  0  0  0  3  0  0  0  0  0  0
  -22.3270   -4.4660   22.8770 C   0  0  0  0  0  0  0  0  0  0  0  0
  -22.8780   -3.7910   21.8390 F   0  0  0  0  0  0  0  0  0  0  0  0
  -21.3980   -3.8860   26.3780 F   0  0  0  0  0  0  0  0  0  0  0  0
  -22.6800  -13.0010   20.4310 C   0  0  0  0  0  0  0  0  0  0  0  0
  -21.9640  -12.3550   21.3460 N   0  0  0  0  0  0  0  0  0  0  0  0
  -22.1950  -13.9250   19.7810 O   0  0  0  0  0  0  0  0  0  0  0  0
  -22.3650  -11.6090   21.8940 H   0  0  0  0  0  0  0  0  0  0  0  0
  -20.9990  -12.6100   21.5000 H   0  0  0  0  0  0  0  0  0  0  0  0
  -25.2320  -14.7500   19.5120 N   0  0  0  0  0  0  0  0  0  0  0  0
  -24.3740  -15.2780   19.3960 H   0  0  0  0  0  0  0  0  0  0  0  0
  -25.9750  -15.0830   18.9110 H   0  0  0  0  0  0  0  0  0  0  0  0
  -28.6490  -21.3890   18.3300 C   0  0  0  0  0  2  0  0  0  0  0  0
  -30.5120  -21.8450   19.9050 C   0  0  0  0  0  2  0  0  0  0  0  0
  -28.7990  -22.8010   17.7310 C   0  0  0  0  0  2  0  0  0  0  0  0
  -30.6610  -23.2600   19.3070 C   0  0  0  0  0  2  0  0  0  0  0  0
  -30.0010  -20.8720   18.8320 C   0  0  0  0  0  3  0  0  0  0  0  0
  -29.4070  -23.7780   18.6850 N   0  0  1  0  0  4  0  0  0  0  0  0
  -28.7440  -23.9170   19.4360 H   0  0  0  0  0  0  0  0  0  0  0  0
  -29.6540  -25.1190   18.0730 C   0  0  0  0  0  2  0  0  0  0  0  0
  -28.4280  -26.0520   18.0200 C   0  0  0  0  0  2  0  0  0  0  0  0
  -28.1300  -26.5270   19.3320 O   0  0  0  0  0  0  0  0  0  0  0  0
  -24.7100  -31.5780   22.9890 C   0  0  0  0  0  0  0  0  0  0  0  0
  -26.9790  -27.2710   19.4550 C   0  0  0  0  0  0  0  0  0  0  0  0
  -23.3440  -30.3260   21.3490 C   0  0  0  0  0  3  0  0  0  0  0  0
  -24.6400  -28.8290   19.7420 C   0  0  0  0  0  0  0  0  0  0  0  0
  -25.8630  -30.6080   21.0060 C   0  0  0  0  0  2  0  0  0  0  0  0
  -25.8510  -29.2780   20.2840 C   0  0  0  0  0  0  0  0  0  0  0  0
  -27.0210  -28.4990   20.1490 C   0  0  0  0  0  3  0  0  0  0  0  0
  -25.7460  -26.8200   18.9320 C   0  0  0  0  0  3  0  0  0  0  0  0
  -24.5800  -27.5950   19.0720 C   0  0  0  0  0  3  0  0  0  0  0  0
  -23.4360  -29.7250   19.9210 C   0  0  0  0  0  2  0  0  0  0  0  0
  -24.6610  -30.8480   21.8390 N   0  0  0  0  0  0  0  0  0  0  0  0
  -23.6780  -31.8550   23.6160 O   0  0  0  0  0  0  0  0  0  0  0  0
  -22.7160  -29.2700   22.2870 C   0  0  0  0  0  0  0  0  0  0  0  0
  -21.3840  -29.1200   22.2130 N   0  0  0  0  0  0  0  0  0  0  0  0
  -23.4240  -28.5910   23.0370 O   0  0  0  0  0  0  0  0  0  0  0  0
  -20.8770  -29.7220   21.5790 H   0  0  0  0  0  0  0  0  0  0  0  0
  -18.0120  -27.9520   22.7810 C   0  0  0  0  0  0  0  0  0  0  0  0
  -20.5810  -28.1620   22.9730 C   0  0  0  0  0  3  0  0  0  0  0  0
  -20.6420  -26.7560   22.3360 C   0  0  0  0  0  2  0  0  0  0  0  0
  -19.5010  -26.4900   21.3480 C   0  0  0  0  0  2  0  0  0  0  0  0
  -18.1450  -26.6290   22.0450 C   0  0  0  0  0  2  0  0  0  0  0  0
  -19.1570  -28.6790   23.2020 C   0  0  0  0  0  0  0  0  0  0  0  0
  -18.9800  -29.9210   23.8510 C   0  0  0  0  0  3  0  0  0  0  0  0
  -17.6900  -30.4350   24.0820 C   0  0  0  0  0  3  0  0  0  0  0  0
  -16.5600  -29.7020   23.6780 C   0  0  0  0  0  3  0  0  0  0  0  0
  -16.7220  -28.4630   23.0320 C   0  0  0  0  0  3  0  0  0  0  0  0
  -26.0590  -32.1200   23.5580 C   0  0  0  0  0  3  0  0  0  0  0  0
  -25.8200  -33.4880   24.0360 N   0  0  0  0  0  0  0  0  0  0  0  0
  -26.1430  -34.5970   23.3560 C   0  0  0  0  0  0  0  0  0  0  0  0
  -26.7460  -34.5710   22.2810 O   0  0  0  0  0  0  0  0  0  0  0  0
  -25.2770  -33.5820   24.8800 H   0  0  0  0  0  0  0  0  0  0  0  0
  -24.4600  -36.4620   23.2730 C   0  0  0  0  0  1  0  0  0  0  0  0
  -25.7300  -35.9480   23.9680 C   0  0  0  0  0  3  0  0  0  0  0  0
  -27.9370  -36.6870   24.7530 C   0  0  0  0  0  1  0  0  0  0  0  0
  -26.7910  -36.9760   23.8940 N   0  0  0  0  0  0  0  0  0  0  0  0
  -26.4260  -37.8890   24.1460 H   0  0  0  0  0  0  0  0  0  0  0  0
  -26.6540  -31.2210   24.7110 C   0  0  1  0  0  0  0  0  0  0  0  0
  -25.6440  -30.9060   25.8380 C   0  0  0  0  0  1  0  0  0  0  0  0
  -27.1680  -29.8750   24.1470 C   0  0  0  0  0  1  0  0  0  0  0  0
  -27.8750  -31.9260   25.3490 C   0  0  0  0  0  1  0  0  0  0  0  0
  -28.0070  -17.1760   21.6990 C   0  0  0  0  0  2  0  0  0  0  0  0
  -26.1830  -17.0680   20.0100 C   0  0  0  0  0  1  0  0  0  0  0  0
  -26.8610  -16.3970   21.1490 N   0  0  2  0  0  4  0  0  0  0  0  0
  -27.2520  -15.5460   20.7760 H   0  0  0  0  0  0  0  0  0  0  0  0
  -25.9060  -15.9770   22.2070 C   0  0  0  0  0  2  0  0  0  0  0  0
  -24.1980  -14.2340   22.9620 C   0  0  0  0  0  1  0  0  0  0  0  0
  -25.1300  -14.6980   21.8350 C   0  0  0  0  0  2  0  0  0  0  0  0
  1  4  2  0
  1  3  1  0
  2  5  1  0
  3  2  2  0
  4  6  1  0
  5 96  1  0
  6 16  1  0
  6  5  2  0
  7  4  1  0
  8 16  1  0
  9 14  1  0
 10 11  1  0
 10  9  1  0
 12 11  1  0
 12 21  1  0
 12 13  1  0
 14  8  1  0
 14 13  1  0
 15  8  2  0
 16 17  1  0
 18 19  2  0
 19 20  1  0
 19 38  1  0
 20 23  1  0
 21 18  1  0
 21 22  1  0
 22 20  2  0
 23 24  1  0
 24 25  2  0
 26 29  1  0
 26 25  1  0
 27 26  2  0
 28 27  1  0
 28 23  2  0
 29 30  1  0
 30 35  2  0
 30 31  1  0
 31 32  2  0
 32 33  1  0
 33 37  1  0
 34 33  2  0
 35 34  1  0
 36 35  1  0
 38 39  1  0
 39 42  1  0
 39 41  1  0
 40 38  2  0
 43 18  1  0
 44 43  1  0
 45 43  1  0
 46 50  1  0
 48 46  1  0
 48 51  1  0
 49 47  1  0
 50  3  1  0
 50 47  1  0
 51 49  1  0
 51 52  1  1
 53 51  1  0
 54 53  1  0
 54 55  1  0
 55 57  1  0
 56 67  2  0
 57 62  1  0
 58 66  1  0
 58 68  1  0
 59 65  1  0
 59 61  1  0
 60 66  1  0
 61 60  1  0
 62 61  2  0
 63 64  1  0
 63 57  2  0
 64 59  2  0
 65 58  1  0
 66 56  1  0
 68 70  2  0
 69 68  1  0
 71 69  1  0
 72 81  2  0
 72 77  1  0
 73 69  1  0
 73 77  1  0
 74 73  1  0
 75 76  1  0
 75 74  1  0
 76 72  1  0
 77 78  2  0
 78 79  1  0
 80 79  2  0
 81 80  1  0
 82 56  1  0
 82 83  1  0
 82 92  1  0
 83 86  1  0
 84 88  1  0
 84 83  1  0
 85 84  2  0
 88 87  1  0
 90 88  1  0
 90 91  1  0
 90 89  1  0
 92 95  1  1
 92 93  1  0
 94 92  1  0
 97 98  1  0
 98 96  1  0
 98100  1  0
 98 99  1  6
102100  1  0
102101  1  0
M  ISO  4   8 100  16 100  54 101  55 101
M  END
>  <TORSDO>  (14) 
F 23

>  <SCORE>  (14) 
-3.342

>  <name>  (14) 
13

>  <ligand_id>  (14) 
13

>  <original_smiles>  (14) 
[H]c1c([H])c([H])c2c(c1[H])C([H])([H])C([H])([H])C([H])([H])C2([H])N([H])C(=O)C1([H])N(C(=O)C([H])(N([H])C(=O)C([H])(N([H])C([H])([H])[H])C([H])([H])[H])C(C([H])([H])[H])(C([H])([H])[H])C([H])([H])[H])C([H])([H])c2c([H])c(OC([H])([H])C([H])([H])[N+]3([H])C([H])([H])C([H])([H])C([H])(c4c([H])c(C([H])([H])[H])c(N([H])C(=O)N5C([H])([H])C([H])([H])C([H])([H])C([H])(n6nc(-c7c([H])c([H])c(Oc8c([H])c([H])c(F)c([H])c8F)c([H])c7[H])c(C(=O)N([H])[H])c6N([H])[H])C5([H])[H])c(C([H])([H])[N+]([H])(C([H])([H])[H])C([H])([H])C([H])([H])C([H])([H])[H])c4[H])C([H])([H])C3([H])[H])c([H])c([H])c2C1([H])[H]

>  <smiles>  (14) 
[H]c1c([H])c([H])c2c(c1[H])C([H])([H])C([H])([H])C([H])([H])C2([H])N([H])C(=O)C1([H])N(C(=O)C([H])(N([H])C(=O)C([H])(N([H])C([H])([H])[H])C([H])([H])[H])C(C([H])([H])[H])(C([H])([H])[H])C([H])([H])[H])C([H])([H])c2c([H])c(OC([H])([H])C([H])([H])[N+]3([H])C([H])([H])C([H])([H])C([H])(c4c([H])c(C([H])([H])[H])c(N([H])C(=O)N5C([H])([H])C([H])([H])C([H])([H])C([H])(n6nc(-c7c([H])c([H])c(Oc8c([H])c([H])c(F)c([H])c8F)c([H])c7[H])c(C(=O)N([H])[H])c6N([H])[H])C5([H])[H])c(C([H])([H])[N+]([H])(C([H])([H])[H])C([H])([H])C([H])([H])C([H])([H])[H])c4[H])C([H])([H])C3([H])[H])c([H])c([H])c2C1([H])[H]

$$$$
15:0:0
     RDKit          3D

 89 97  0  0  1  0  0  0  0  0999 V2000
  -30.5170  -18.6160   19.0210 C   0  0  0  0  0  3  0  0  0  0  0  0
  -30.6570  -19.9230   18.4770 C   0  0  0  0  0  3  0  0  0  0  0  0
  -29.0180  -19.6490   20.6030 C   0  0  0  0  0  3  0  0  0  0  0  0
  -29.1440  -21.1220   20.0680 C   0  0  0  0  0  0  0  0  0  0  0  0
  -29.6850  -18.3120   20.1200 C   0  0  0  0  0  0  0  0  0  0  0  0
  -30.0200  -21.1030   18.9570 C   0  0  0  0  0  0  0  0  0  0  0  0
  -30.3030  -22.2700   18.3330 F   0  0  0  0  0  0  0  0  0  0  0  0
  -30.3480  -15.4130   20.3200 C   0  0  0  0  0  0  0  0  0  0  0  0
  -30.3850  -12.9190   19.5160 C   0  0  0  0  0  2  0  0  0  0  0  0
  -29.5010  -12.6530   18.2680 C   0  0  0  0  0  2  0  0  0  0  0  0
  -28.0490  -12.3620   18.6820 C   0  0  0  0  0  2  0  0  0  0  0  0
  -27.5590  -13.3420   19.7740 C   0  0  0  0  0  3  0  0  0  0  0  0
  -28.5770  -13.5470   20.9190 C   0  0  0  0  0  2  0  0  0  0  0  0
  -29.8090  -14.0800   20.3100 N   0  0  0  0  0  0  0  0  0  0  0  0
  -31.5620  -15.3990   20.0560 O   0  0  0  0  0  0  0  0  0  0  0  0
  -29.5890  -16.7070   20.5060 N   0  0  0  0  0  0  0  0  0  0  0  0
  -28.6950  -16.4910   20.9220 H   0  0  0  0  0  0  0  0  0  0  0  0
  -25.1740  -13.8910   20.4730 C   0  0  0  0  0  0  0  0  0  0  0  0
  -24.1090  -13.1140   20.8300 C   0  0  0  0  0  0  0  0  0  0  0  0
  -24.5830  -11.7650   20.8270 C   0  0  0  0  0  0  0  0  0  0  0  0
  -26.2250  -13.0190   20.2610 N   0  0  0  0  0  0  0  0  0  0  0  0
  -25.8820  -11.7340   20.5420 N   0  0  0  0  0  0  0  0  0  0  0  0
  -23.8570  -10.5030   21.0170 C   0  0  0  0  0  0  0  0  0  0  0  0
  -24.2760   -9.5430   21.9650 C   0  0  0  0  0  3  0  0  0  0  0  0
  -23.5460   -8.3480   22.1450 C   0  0  0  0  0  3  0  0  0  0  0  0
  -22.3830   -8.1040   21.3770 C   0  0  0  0  0  0  0  0  0  0  0  0
  -21.9830   -9.0510   20.4180 C   0  0  0  0  0  3  0  0  0  0  0  0
  -22.7140  -10.2370   20.2370 C   0  0  0  0  0  3  0  0  0  0  0  0
  -21.6270   -6.9590   21.4660 O   0  0  0  0  0  0  0  0  0  0  0  0
  -21.5680   -6.2230   22.6220 C   0  0  0  0  0  0  0  0  0  0  0  0
  -21.1400   -6.7860   23.8430 C   0  0  0  0  0  3  0  0  0  0  0  0
  -21.0280   -5.9760   24.9910 C   0  0  0  0  0  3  0  0  0  0  0  0
  -21.3340   -4.6040   24.9180 C   0  0  0  0  0  0  0  0  0  0  0  0
  -21.7560   -4.0400   23.7010 C   0  0  0  0  0  3  0  0  0  0  0  0
  -21.8680   -4.8480   22.5550 C   0  0  0  0  0  0  0  0  0  0  0  0
  -22.2550   -4.2940   21.3800 F   0  0  0  0  0  0  0  0  0  0  0  0
  -21.2200   -3.8240   26.0190 F   0  0  0  0  0  0  0  0  0  0  0  0
  -22.7040  -13.5880   21.0600 C   0  0  0  0  0  0  0  0  0  0  0  0
  -21.9590  -12.9020   21.9180 N   0  0  0  0  0  0  0  0  0  0  0  0
  -22.2770  -14.6040   20.5140 O   0  0  0  0  0  0  0  0  0  0  0  0
  -22.3190  -12.0810   22.3820 H   0  0  0  0  0  0  0  0  0  0  0  0
  -21.0150  -13.2030   22.1150 H   0  0  0  0  0  0  0  0  0  0  0  0
  -25.3320  -15.2610   20.2800 N   0  0  0  0  0  0  0  0  0  0  0  0
  -24.5550  -15.9080   20.3600 H   0  0  0  0  0  0  0  0  0  0  0  0
  -26.1750  -15.6960   19.9270 H   0  0  0  0  0  0  0  0  0  0  0  0
  -28.6400  -22.7600   20.6020 C   0  0  0  0  0  2  0  0  0  0  0  0
  -27.9880  -24.1040   19.8560 N   0  0  0  0  0  0  0  0  0  0  0  0
  -26.9820  -23.9790   19.9030 H   0  0  0  0  0  0  0  0  0  0  0  0
  -28.2190  -25.7700   20.3090 O   0  0  0  0  0  0  0  0  0  0  0  0
  -24.6420  -31.8330   23.1910 C   0  0  0  0  0  0  0  0  0  0  0  0
  -27.2020  -26.8860   20.2010 C   0  0  0  0  0  0  0  0  0  0  0  0
  -23.4520  -30.4260   21.5580 C   0  0  0  0  0  3  0  0  0  0  0  0
  -24.9050  -28.8060   20.1400 C   0  0  0  0  0  0  0  0  0  0  0  0
  -26.0210  -30.6200   21.4210 C   0  0  0  0  0  2  0  0  0  0  0  0
  -26.0900  -29.2010   20.7710 C   0  0  0  0  0  0  0  0  0  0  0  0
  -27.2240  -28.2600   20.7820 C   0  0  0  0  0  3  0  0  0  0  0  0
  -25.9910  -26.6640   19.5040 C   0  0  0  0  0  3  0  0  0  0  0  0
  -24.8850  -27.5600   19.4860 C   0  0  0  0  0  3  0  0  0  0  0  0
  -23.6860  -29.7330   20.1850 C   0  0  0  0  0  2  0  0  0  0  0  0
  -24.7270  -30.9910   22.1090 N   0  0  0  0  0  0  0  0  0  0  0  0
  -23.5520  -32.1260   23.7080 O   0  0  0  0  0  0  0  0  0  0  0  0
  -22.7540  -29.4400   22.5300 C   0  0  0  0  0  0  0  0  0  0  0  0
  -21.4230  -29.2830   22.4140 N   0  0  0  0  0  0  0  0  0  0  0  0
  -23.4200  -28.8140   23.3600 O   0  0  0  0  0  0  0  0  0  0  0  0
  -20.9380  -29.8370   21.7230 H   0  0  0  0  0  0  0  0  0  0  0  0
  -18.0380  -28.0800   22.9430 C   0  0  0  0  0  0  0  0  0  0  0  0
  -20.6000  -28.3480   23.1910 C   0  0  0  0  0  3  0  0  0  0  0  0
  -20.6980  -26.9140   22.6200 C   0  0  0  0  0  2  0  0  0  0  0  0
  -19.5910  -26.5900   21.6110 C   0  0  0  0  0  2  0  0  0  0  0  0
  -18.2120  -26.7320   22.2630 C   0  0  0  0  0  2  0  0  0  0  0  0
  -19.1590  -28.8460   23.3640 C   0  0  0  0  0  0  0  0  0  0  0  0
  -18.9400  -30.1040   23.9650 C   0  0  0  0  0  3  0  0  0  0  0  0
  -17.6340  -30.5990   24.1450 C   0  0  0  0  0  3  0  0  0  0  0  0
  -16.5290  -29.8320   23.7360 C   0  0  0  0  0  3  0  0  0  0  0  0
  -16.7330  -28.5740   23.1420 C   0  0  0  0  0  3  0  0  0  0  0  0
  -25.9100  -32.4840   23.8230 C   0  0  0  0  0  3  0  0  0  0  0  0
  -25.5830  -33.8800   24.1660 N   0  0  0  0  0  0  0  0  0  0  0  0
  -25.9080  -34.9510   23.4300 C   0  0  0  0  0  0  0  0  0  0  0  0
  -26.5750  -34.8680   22.3950 O   0  0  0  0  0  0  0  0  0  0  0  0
  -24.9870  -34.0170   24.9700 H   0  0  0  0  0  0  0  0  0  0  0  0
  -24.1680  -36.7480   23.1210 C   0  0  0  0  0  1  0  0  0  0  0  0
  -25.4190  -36.3330   23.9130 C   0  0  0  0  0  3  0  0  0  0  0  0
  -27.5570  -37.2210   24.7370 C   0  0  0  0  0  1  0  0  0  0  0  0
  -26.4450  -37.3940   23.8060 N   0  0  0  0  0  0  0  0  0  0  0  0
  -26.0350  -38.3100   23.9680 H   0  0  0  0  0  0  0  0  0  0  0  0
  -26.4230  -31.7200   25.1070 C   0  0  1  0  0  0  0  0  0  0  0  0
  -25.3270  -31.4860   26.1740 C   0  0  0  0  0  1  0  0  0  0  0  0
  -27.0100  -30.3410   24.7340 C   0  0  0  0  0  1  0  0  0  0  0  0
  -27.5700  -32.5200   25.7690 C   0  0  0  0  0  1  0  0  0  0  0  0
  1  5  1  0
  2  6  1  0
  2  1  2  0
  4 46  1  0
  4  3  1  0
  5 16  1  0
  5  3  2  0
  6  4  2  0
  7  6  1  0
  8 16  1  0
  9 14  1  0
 10 11  1  0
 10  9  1  0
 12 11  1  0
 12 21  1  0
 12 13  1  0
 14  8  1  0
 14 13  1  0
 15  8  2  0
 16 17  1  0
 18 19  2  0
 19 38  1  0
 20 19  1  0
 20 23  1  0
 21 18  1  0
 21 22  1  0
 22 20  2  0
 23 24  1  0
 24 25  2  0
 26 29  1  0
 26 25  1  0
 27 26  2  0
 28 27  1  0
 28 23  2  0
 29 30  1  0
 30 31  1  0
 31 32  2  0
 33 32  1  0
 33 37  1  0
 34 33  2  0
 35 30  2  0
 35 34  1  0
 36 35  1  0
 38 39  1  0
 39 42  1  0
 39 41  1  0
 40 38  2  0
 43 44  1  0
 43 18  1  0
 45 43  1  0
 47 48  1  0
 47 49  1  0
 47 46  1  0
 50 61  2  0
 51 49  1  0
 51 56  1  0
 52 60  1  0
 52 62  1  0
 53 59  1  0
 53 55  1  0
 54 60  1  0
 55 56  2  0
 55 54  1  0
 57 51  2  0
 58 57  1  0
 58 53  2  0
 59 52  1  0
 60 50  1  0
 62 64  2  0
 63 62  1  0
 65 63  1  0
 66 75  2  0
 66 71  1  0
 67 63  1  0
 67 71  1  0
 68 67  1  0
 69 70  1  0
 69 68  1  0
 70 66  1  0
 71 72  2  0
 72 73  1  0
 74 73  2  0
 75 74  1  0
 76 50  1  0
 76 77  1  0
 76 86  1  0
 77 80  1  0
 78 82  1  0
 78 77  1  0
 79 78  2  0
 82 81  1  0
 84 82  1  0
 84 85  1  0
 84 83  1  0
 86 89  1  1
 86 87  1  0
 88 86  1  0
M  ISO  4   8 100  16 100  47 101  49 101
M  END
>  <TORSDO>  (15) 
F 18

>  <SCORE>  (15) 
-15.921

>  <name>  (15) 
15

>  <ligand_id>  (15) 
15

>  <original_smiles>  (15) 
[H]c1c([H])c([H])c2c(c1[H])C([H])([H])C([H])([H])C([H])([H])C2([H])N([H])C(=O)C1([H])N(C(=O)C([H])(N([H])C(=O)C([H])(N([H])C([H])([H])[H])C([H])([H])[H])C(C([H])([H])[H])(C([H])([H])[H])C([H])([H])[H])C([H])([H])c2c([H])c(ON([H])C([H])([H])c3c([H])c(N([H])C(=O)N4C([H])([H])C([H])([H])C([H])([H])C([H])(n5nc(-c6c([H])c([H])c(Oc7c([H])c([H])c(F)c([H])c7F)c([H])c6[H])c(C(=O)N([H])[H])c5N([H])[H])C4([H])[H])c([H])c([H])c3F)c([H])c([H])c2C1([H])[H]

>  <smiles>  (15) 
[H]c1c([H])c([H])c2c(c1[H])C([H])([H])C([H])([H])C([H])([H])C2([H])N([H])C(=O)C1([H])N(C(=O)C([H])(N([H])C(=O)C([H])(N([H])C([H])([H])[H])C([H])([H])[H])C(C([H])([H])[H])(C([H])([H])[H])C([H])([H])[H])C([H])([H])c2c([H])c(ON([H])C([H])([H])c3c([H])c(N([H])C(=O)N4C([H])([H])C([H])([H])C([H])([H])C([H])(n5nc(-c6c([H])c([H])c(Oc7c([H])c([H])c(F)c([H])c7F)c([H])c6[H])c(C(=O)N([H])[H])c5N([H])[H])C4([H])[H])c([H])c([H])c3F)c([H])c([H])c2C1([H])[H]

$$$$
16:0:0
     RDKit          3D

102104  0  0  1  0  0  0  0  0999 V2000
  -19.3310  -28.6760   22.0200 C   0  0  0  0  0  1  0  0  0  0  0  0
  -19.9480  -28.4100   23.3310 C   0  0  0  0  0  3  0  0  0  0  0  0
  -21.2580  -29.4600   19.6030 C   0  0  0  0  0 15  0  0  0  0  0  0
  -21.6520  -28.4730   23.7190 C   0  0  0  0  0  3  0  0  0  0  0  0
  -23.2260  -28.8420   20.0880 C   0  0  0  0  0 15  0  0  0  0  0  0
  -23.1280  -28.9390   22.6710 C   0  0  0  0  0  2  0  0  0  0  0  0
  -24.6540  -27.2630   18.9410 C   0  0  0  0  0  2  0  0  0  0  0  0
  -26.1160  -26.1600   18.9430 N   0  0  0  0  0  2  0  0  0  0  0  0
  -24.1900  -27.1860   17.8050 O   0  0  0  0  0  1  0  0  0  0  0  0
  -25.9030  -26.2240   17.9560 H   0  0  0  0  0  0  0  0  0  0  0  0
  -28.6490  -24.3230   17.2780 C   0  0  0  0  0  3  0  0  0  0  0  0
  -28.6640  -23.7740   19.1700 C   0  0  0  0  0  3  0  0  0  0  0  0
  -27.6700  -24.8400   18.4690 C   0  0  0  0  0  3  0  0  0  0  0  0
  -30.9030  -22.2160   17.6820 C   0  0  0  0  0  3  0  0  0  0  0  0
  -29.9380  -23.2890   16.9430 C   0  0  0  0  0  0  0  0  0  0  0  0
  -29.9320  -22.7160   18.8740 C   0  0  0  0  0  0  0  0  0  0  0  0
  -30.2620  -23.3650   15.6280 F   0  0  0  0  0  0  0  0  0  0  0  0
  -30.2550  -22.0640   20.0180 F   0  0  0  0  0  0  0  0  0  0  0  0
  -33.9160  -19.9290   16.8550 C   0  0  0  0  0  0  0  0  0  0  0  0
  -35.5250  -17.6490   15.9230 C   0  0  0  0  0  2  0  0  0  0  0  0
  -34.9490  -16.3820   15.1610 C   0  0  0  0  0  2  0  0  0  0  0  0
  -34.1590  -15.4730   16.1060 C   0  0  0  0  0  2  0  0  0  0  0  0
  -33.4740  -16.3790   17.1350 C   0  0  0  0  0  3  0  0  0  0  0  0
  -34.3780  -17.3850   17.8520 C   0  0  0  0  0  2  0  0  0  0  0  0
  -34.4970  -18.4680   16.8670 N   0  0  0  0  0  0  0  0  0  0  0  0
  -34.9550  -20.3510   16.2120 O   0  0  0  0  0  0  0  0  0  0  0  0
  -32.4020  -20.7880   17.4020 N   0  0  0  0  0  2  0  0  0  0  0  0
  -32.0580  -20.0340   17.9830 H   0  0  0  0  0  0  0  0  0  0  0  0
  -31.3750  -16.1650   18.4140 C   0  0  0  0  0  0  0  0  0  0  0  0
  -30.9350  -15.2540   19.3180 C   0  0  0  0  0  0  0  0  0  0  0  0
  -32.0110  -14.3320   19.5120 C   0  0  0  0  0  0  0  0  0  0  0  0
  -32.6460  -15.7490   18.0940 N   0  0  0  0  0  0  0  0  0  0  0  0
  -33.0770  -14.6910   18.8110 N   0  0  0  0  0  0  0  0  0  0  0  0
  -32.0600  -13.0800   20.2610 C   0  0  0  0  0  0  0  0  0  0  0  0
  -33.2070  -12.2580   20.2480 C   0  0  0  0  0  3  0  0  0  0  0  0
  -33.2300  -11.0650   21.0000 C   0  0  0  0  0  3  0  0  0  0  0  0
  -32.1040  -10.6920   21.7720 C   0  0  0  0  0  0  0  0  0  0  0  0
  -30.9560  -11.5040   21.7560 C   0  0  0  0  0  3  0  0  0  0  0  0
  -30.9310  -12.6870   21.0040 C   0  0  0  0  0  3  0  0  0  0  0  0
  -32.0280   -9.5420   22.5180 O   0  0  0  0  0  0  0  0  0  0  0  0
  -32.6360   -8.3840   22.1080 C   0  0  0  0  0  0  0  0  0  0  0  0
  -33.5330   -8.3560   21.0190 C   0  0  0  0  0  3  0  0  0  0  0  0
  -34.1870   -7.1560   20.6780 C   0  0  0  0  0  3  0  0  0  0  0  0
  -33.9540   -5.9880   21.4300 C   0  0  0  0  0  0  0  0  0  0  0  0
  -33.0650   -6.0160   22.5190 C   0  0  0  0  0  3  0  0  0  0  0  0
  -32.4090   -7.2120   22.8570 C   0  0  0  0  0  0  0  0  0  0  0  0
  -31.5680   -7.2400   23.9200 F   0  0  0  0  0  0  0  0  0  0  0  0
  -34.5900   -4.8370   21.1100 F   0  0  0  0  0  0  0  0  0  0  0  0
  -29.5450  -15.1820   19.8630 C   0  0  0  0  0  0  0  0  0  0  0  0
  -29.3920  -14.6830   21.0810 N   0  0  0  0  0  0  0  0  0  0  0  0
  -28.5920  -15.6210   19.2190 O   0  0  0  0  0  0  0  0  0  0  0  0
  -30.1810  -14.3450   21.6120 H   0  0  0  0  0  0  0  0  0  0  0  0
  -28.4700  -14.6410   21.4920 H   0  0  0  0  0  0  0  0  0  0  0  0
  -30.8020  -17.2800   17.8000 N   0  0  0  0  0  0  0  0  0  0  0  0
  -29.8000  -17.3880   17.9210 H   0  0  0  0  0  0  0  0  0  0  0  0
  -31.0860  -17.4660   16.8480 H   0  0  0  0  0  0  0  0  0  0  0  0
  -24.2930  -28.3140   23.8380 N   0  0  0  0  0  4  0  0  0  0  0  0
  -23.7160  -28.3450   24.6660 H   0  0  0  0  0  0  0  0  0  0  0  0
  -24.9290  -29.0920   23.9660 H   0  0  0  0  0  0  0  0  0  0  0  0
  -25.1860  -26.8500   24.1250 C   0  0  0  0  0  2  0  0  0  0  0  0
  -26.9750  -26.3990   24.4100 C   0  0  0  0  0  2  0  0  0  0  0  0
  -28.1600  -25.2700   24.0210 O   0  0  0  0  0  0  0  0  0  0  0  0
  -26.6000  -30.2740   23.1780 C   0  0  0  0  0  0  0  0  0  0  0  0
  -29.2430  -25.5470   23.1830 C   0  0  0  0  0  3  0  0  0  0  0  0
  -26.7280  -28.4400   21.2360 C   0  0  0  0  0  3  0  0  0  0  0  0
  -28.8630  -27.2290   21.1110 C   0  0  0  0  0  0  0  0  0  0  0  0
  -28.6840  -29.0770   22.7900 C   0  0  0  0  0  2  0  0  0  0  0  0
  -29.1760  -27.7150   22.3870 C   0  0  0  0  0  0  0  0  0  0  0  0
  -29.6620  -26.8500   23.3670 C   0  0  0  0  0  2  0  0  0  0  0  0
  -29.2540  -24.9770   21.8800 C   0  0  0  0  0  3  0  0  0  0  0  0
  -29.0500  -25.8620   20.7970 C   0  0  0  0  0  3  0  0  0  0  0  0
  -27.9410  -28.1070   20.3250 C   0  0  0  0  0  2  0  0  0  0  0  0
  -27.2520  -29.2670   22.4670 N   0  0  0  0  0  0  0  0  0  0  0  0
  -25.5400  -30.7620   22.7850 O   0  0  0  0  0  0  0  0  0  0  0  0
  -26.0160  -26.9110   21.5070 C   0  0  0  0  0  0  0  0  0  0  0  0
  -24.6650  -26.2240   21.4270 N   0  0  0  0  0  0  0  0  0  0  0  0
  -26.5890  -26.1050   22.0420 O   0  0  0  0  0  0  0  0  0  0  0  0
  -24.7700  -25.3280   21.8860 H   0  0  0  0  0  0  0  0  0  0  0  0
  -20.8090  -24.8130   19.8430 C   0  0  0  0  0  3  0  0  0  0  0  0
  -23.1320  -26.3000   20.7180 C   0  0  0  0  0  3  0  0  0  0  0  0
  -22.1500  -26.1870   21.8660 C   0  0  0  0  0  2  0  0  0  0  0  0
  -21.3380  -24.8800   22.1720 C   0  0  0  0  0  2  0  0  0  0  0  0
  -20.2140  -24.8000   21.1900 C   0  0  0  0  0  2  0  0  0  0  0  0
  -22.4630  -25.2890   19.5790 C   0  0  0  0  0  2  0  0  0  0  0  0
  -23.3260  -24.0830   18.1840 C   0  0  0  0  0  1  0  0  0  0  0  0
  -22.3820  -22.9690   17.4450 C   0  0  0  0  0  2  0  0  0  0  0  0
  -20.8660  -22.7730   17.8610 C   0  0  0  0  0  3  0  0  0  0  0  0
  -20.1270  -23.6130   18.9780 C   0  0  0  0  0  3  0  0  0  0  0  0
  -27.0770  -30.8610   24.5680 C   0  0  0  0  0  3  0  0  0  0  0  0
  -26.8410  -32.3150   24.5520 N   0  0  0  0  0  0  0  0  0  0  0  0
  -27.7700  -33.2480   24.7900 C   0  0  0  0  0  0  0  0  0  0  0  0
  -28.9470  -32.9680   25.0300 O   0  0  0  0  0  0  0  0  0  0  0  0
  -25.9170  -32.6220   24.2830 H   0  0  0  0  0  0  0  0  0  0  0  0
  -27.6900  -35.3260   23.3810 C   0  0  0  0  0  1  0  0  0  0  0  0
  -27.3250  -34.7220   24.7450 C   0  0  0  0  0  3  0  0  0  0  0  0
  -27.4800  -35.1390   27.1630 C   0  0  0  0  0  1  0  0  0  0  0  0
  -27.9050  -35.5490   25.8280 N   0  0  0  0  0  0  0  0  0  0  0  0
  -27.6580  -36.5270   25.7030 H   0  0  0  0  0  0  0  0  0  0  0  0
  -26.3610  -30.2660   25.8620 C   0  0  1  0  0  0  0  0  0  0  0  0
  -24.8120  -30.2620   25.8070 C   0  0  0  0  0  1  0  0  0  0  0  0
  -26.8870  -28.8760   26.2380 C   0  0  0  0  0  1  0  0  0  0  0  0
  -26.7280  -31.0890   27.1140 C   0  0  0  0  0  1  0  0  0  0  0  0
  1  2  1  0
  2  4  2  0
  6  4  1  0
  6 57  1  0
  7  8  1  0
  9  7  1  0
 10  8  1  0
 11 13  1  0
 13 12  2  0
 14 16  2  0
 15 11  2  0
 15 14  1  0
 16 12  1  0
 16 18  1  0
 17 15  1  0
 19 25  1  0
 19 27  1  0
 20 25  1  0
 21 20  1  0
 21 22  1  0
 23 22  1  0
 23 24  1  0
 23 32  1  0
 25 24  1  0
 26 19  2  0
 27 28  1  0
 29 30  2  0
 30 31  1  0
 30 49  1  0
 31 34  1  0
 32 29  1  0
 32 33  1  0
 33 31  2  0
 34 39  1  0
 35 34  2  0
 35 36  1  0
 36 37  2  0
 37 40  1  0
 38 37  1  0
 39 38  2  0
 41 40  1  0
 41 46  1  0
 42 41  2  0
 43 42  1  0
 43 44  2  0
 44 45  1  0
 45 46  2  0
 46 47  1  0
 48 44  1  0
 49 50  1  0
 50 53  1  0
 50 52  1  0
 51 49  2  0
 54 55  1  0
 54 29  1  0
 56 54  1  0
 57 59  1  0
 57 60  1  0
 57 58  1  0
 60 61  1  0
 62 61  1  0
 64 69  1  0
 64 62  1  0
 65 75  1  0
 65 73  1  0
 66 68  2  0
 68 67  1  0
 68 69  1  0
 70 64  1  0
 71 66  1  0
 71 70  2  0
 72 66  1  0
 72 65  1  0
 73 67  1  0
 73 63  1  0
 74 63  2  0
 75 77  2  0
 76 75  1  0
 76 78  1  0
 79 88  1  0
 79 83  1  0
 80 76  1  0
 80 81  1  0
 81 82  1  0
 83 82  1  0
 84 79  1  0
 84 80  1  0
 86 87  1  0
 86 85  1  0
 87 88  2  0
 89 63  1  0
 89 99  1  0
 90 89  1  0
 90 91  1  0
 91 92  2  0
 93 90  1  0
 95 94  1  0
 95 91  1  0
 95 97  1  0
 97 96  1  0
 98 97  1  0
 99101  1  1
 99102  1  0
100 99  1  0
M  ISO  4  19 100  27 100  61 101  62 101
M  END
>  <TORSDO>  (16) 
F 21

>  <SCORE>  (16) 
-6.223

>  <name>  (16) 
16

>  <ligand_id>  (16) 
16

>  <original_smiles>  (16) 
[H]C1=C([H])C([H])([H])C([H])([N+]([H])([H])C([H])([H])C([H])([H])Oc2c([H])c([H])c3c(c2[H])C([H])([H])N(C(=O)C([H])(N([H])C(=O)C([H])(N([H])C([H])([H])[H])C([H])([H])[H])C(C([H])([H])[H])(C([H])([H])[H])C([H])([H])[H])C([H])(C(=O)N([H])C2([H])c4c([H])c([H])c([H])c([H])c4C([H])([H])C([H])([H])C2([H])[H])C3([H])[H])C([H])(C(=O)N([H])c2c([H])c(F)c(N([H])C(=O)N3C([H])([H])C([H])([H])C([H])([H])C([H])(n4nc(-c5c([H])c([H])c(Oc6c([H])c([H])c(F)c([H])c6F)c([H])c5[H])c(C(=O)N([H])[H])c4N([H])[H])C3([H])[H])c(F)c2[H])C1([H])[H]

>  <smiles>  (16) 
[H]C1=C([H])C([H])([H])C([H])([N+]([H])([H])C([H])([H])C([H])([H])Oc2c([H])c([H])c3c(c2[H])C([H])([H])N(C(=O)C([H])(N([H])C(=O)C([H])(N([H])C([H])([H])[H])C([H])([H])[H])C(C([H])([H])[H])(C([H])([H])[H])C([H])([H])[H])C([H])(C(=O)N([H])C2([H])c4c([H])c([H])c([H])c([H])c4C([H])([H])C([H])([H])C2([H])[H])C3([H])[H])C([H])(C(=O)N([H])c2c([H])c(F)c(N([H])C(=O)N3C([H])([H])C([H])([H])C([H])([H])C([H])(n4nc(-c5c([H])c([H])c(Oc6c([H])c([H])c(F)c([H])c6F)c([H])c5[H])c(C(=O)N([H])[H])c4N([H])[H])C3([H])[H])c(F)c2[H])C1([H])[H]

$$$$
17:0:0
     RDKit          3D

 94102  0  0  1  0  0  0  0  0999 V2000
  -30.3680  -19.3710   21.7870 C   0  0  0  0  0  3  0  0  0  0  0  0
  -28.8600  -18.5620   20.0700 C   0  0  0  0  0  3  0  0  0  0  0  0
  -29.7970  -20.6610   21.6890 C   0  0  0  0  0  3  0  0  0  0  0  0
  -28.2850  -19.8540   19.9800 C   0  0  0  0  0  3  0  0  0  0  0  0
  -29.9310  -18.3060   20.9550 C   0  0  0  0  0  0  0  0  0  0  0  0
  -28.7610  -20.9290   20.7630 C   0  0  0  0  0  0  0  0  0  0  0  0
  -30.7590  -14.5740   20.3350 C   0  0  0  0  0  0  0  0  0  0  0  0
  -30.4000  -12.4230   19.1920 C   0  0  0  0  0  2  0  0  0  0  0  0
  -29.4520  -12.6000   17.9900 C   0  0  0  0  0  2  0  0  0  0  0  0
  -27.9890  -12.4470   18.4420 C   0  0  0  0  0  2  0  0  0  0  0  0
  -27.6500  -13.3080   19.6880 C   0  0  0  0  0  3  0  0  0  0  0  0
  -28.7180  -13.1510   20.7950 C   0  0  0  0  0  2  0  0  0  0  0  0
  -30.0280  -13.4340   20.2000 N   0  0  0  0  0  0  0  0  0  0  0  0
  -31.9200  -14.6490   19.9160 O   0  0  0  0  0  0  0  0  0  0  0  0
  -30.6870  -17.0250   20.9050 C   0  0  0  0  0  0  0  0  0  0  0  0
  -30.0950  -15.7990   20.7620 N   0  0  0  0  0  0  0  0  0  0  0  0
  -32.0220  -17.1460   20.9490 N   0  0  0  0  0  4  0  0  0  0  0  0
  -29.1140  -15.8260   20.9820 H   0  0  0  0  0  0  0  0  0  0  0  0
  -32.4590  -18.0540   20.9340 H   0  0  0  0  0  0  0  0  0  0  0  0
  -32.5720  -16.3220   20.7360 H   0  0  0  0  0  0  0  0  0  0  0  0
  -25.2630  -13.8950   20.4350 C   0  0  0  0  0  0  0  0  0  0  0  0
  -24.2070  -13.1200   20.8260 C   0  0  0  0  0  0  0  0  0  0  0  0
  -24.6730  -11.7690   20.7870 C   0  0  0  0  0  0  0  0  0  0  0  0
  -26.3090  -13.0200   20.1870 N   0  0  0  0  0  0  0  0  0  0  0  0
  -25.9590  -11.7360   20.4580 N   0  0  0  0  0  0  0  0  0  0  0  0
  -23.9510  -10.5060   20.9820 C   0  0  0  0  0  0  0  0  0  0  0  0
  -24.3890   -9.5450   21.9190 C   0  0  0  0  0  3  0  0  0  0  0  0
  -23.6700   -8.3440   22.1020 C   0  0  0  0  0  3  0  0  0  0  0  0
  -22.4980   -8.0970   21.3480 C   0  0  0  0  0  0  0  0  0  0  0  0
  -22.0780   -9.0470   20.4000 C   0  0  0  0  0  3  0  0  0  0  0  0
  -22.7980  -10.2380   20.2150 C   0  0  0  0  0  3  0  0  0  0  0  0
  -21.7490   -6.9480   21.4410 O   0  0  0  0  0  0  0  0  0  0  0  0
  -21.7000   -6.2130   22.5990 C   0  0  0  0  0  0  0  0  0  0  0  0
  -21.2470   -6.7690   23.8150 C   0  0  0  0  0  3  0  0  0  0  0  0
  -21.1470   -5.9600   24.9650 C   0  0  0  0  0  3  0  0  0  0  0  0
  -21.4880   -4.5960   24.8970 C   0  0  0  0  0  0  0  0  0  0  0  0
  -21.9330   -4.0390   23.6860 C   0  0  0  0  0  3  0  0  0  0  0  0
  -22.0360   -4.8450   22.5390 C   0  0  0  0  0  0  0  0  0  0  0  0
  -22.4440   -4.3010   21.3670 F   0  0  0  0  0  0  0  0  0  0  0  0
  -21.3830   -3.8150   25.9980 F   0  0  0  0  0  0  0  0  0  0  0  0
  -22.8120  -13.5930   21.1150 C   0  0  0  0  0  0  0  0  0  0  0  0
  -22.0900  -12.8920   21.9840 N   0  0  0  0  0  0  0  0  0  0  0  0
  -22.3690  -14.6200   20.6040 O   0  0  0  0  0  0  0  0  0  0  0  0
  -22.4590  -12.0620   22.4230 H   0  0  0  0  0  0  0  0  0  0  0  0
  -21.1540  -13.1960   22.2130 H   0  0  0  0  0  0  0  0  0  0  0  0
  -25.4110  -15.2650   20.2390 N   0  0  0  0  0  0  0  0  0  0  0  0
  -24.5870  -15.8600   20.2500 H   0  0  0  0  0  0  0  0  0  0  0  0
  -26.1720  -15.6580   19.7030 H   0  0  0  0  0  0  0  0  0  0  0  0
  -28.2160  -22.2140   20.5660 N   0  0  0  0  0  0  0  0  0  0  0  0
  -27.4200  -22.2990   19.9410 H   0  0  0  0  0  0  0  0  0  0  0  0
  -28.4290  -23.2810   21.5460 C   0  0  0  0  0  2  0  0  0  0  0  0
  -27.8080  -24.6430   21.1510 C   0  0  0  0  0  2  0  0  0  0  0  0
  -28.4990  -25.3950   19.9850 C   0  0  0  0  0  2  0  0  0  0  0  0
  -28.4780  -26.8200   20.1580 O   0  0  0  0  0  0  0  0  0  0  0  0
  -24.6290  -31.9370   23.2330 C   0  0  0  0  0  0  0  0  0  0  0  0
  -27.2800  -27.5040   20.1420 C   0  0  0  0  0  0  0  0  0  0  0  0
  -23.4240  -30.5310   21.5920 C   0  0  0  0  0  3  0  0  0  0  0  0
  -24.8760  -29.0000   20.1630 C   0  0  0  0  0  0  0  0  0  0  0  0
  -25.9460  -30.9010   21.3860 C   0  0  0  0  0  2  0  0  0  0  0  0
  -26.0330  -29.5300   20.7480 C   0  0  0  0  0  0  0  0  0  0  0  0
  -27.2360  -28.7900   20.7310 C   0  0  0  0  0  3  0  0  0  0  0  0
  -26.1010  -26.9860   19.5580 C   0  0  0  0  0  3  0  0  0  0  0  0
  -24.9040  -27.7260   19.5690 C   0  0  0  0  0  3  0  0  0  0  0  0
  -23.6320  -29.8570   20.2090 C   0  0  0  0  0  2  0  0  0  0  0  0
  -24.6850  -31.1390   22.1300 N   0  0  0  0  0  0  0  0  0  0  0  0
  -23.5480  -32.2020   23.7780 O   0  0  0  0  0  0  0  0  0  0  0  0
  -22.7810  -29.5040   22.5530 C   0  0  0  0  0  0  0  0  0  0  0  0
  -21.4580  -29.3200   22.4270 N   0  0  0  0  0  0  0  0  0  0  0  0
  -23.4690  -28.8760   23.3610 O   0  0  0  0  0  0  0  0  0  0  0  0
  -20.9640  -29.8800   21.7450 H   0  0  0  0  0  0  0  0  0  0  0  0
  -18.0870  -28.1320   22.9400 C   0  0  0  0  0  0  0  0  0  0  0  0
  -20.6460  -28.3780   23.1960 C   0  0  0  0  0  3  0  0  0  0  0  0
  -20.7400  -26.9520   22.6070 C   0  0  0  0  0  2  0  0  0  0  0  0
  -19.6300  -26.6380   21.5990 C   0  0  0  0  0  2  0  0  0  0  0  0
  -18.2540  -26.7870   22.2550 C   0  0  0  0  0  2  0  0  0  0  0  0
  -19.2100  -28.8860   23.3680 C   0  0  0  0  0  0  0  0  0  0  0  0
  -19.0020  -30.1450   23.9710 C   0  0  0  0  0  3  0  0  0  0  0  0
  -17.7000  -30.6510   24.1490 C   0  0  0  0  0  3  0  0  0  0  0  0
  -16.5900  -29.8940   23.7370 C   0  0  0  0  0  3  0  0  0  0  0  0
  -16.7830  -28.6360   23.1390 C   0  0  0  0  0  3  0  0  0  0  0  0
  -25.9130  -32.5730   23.8520 C   0  0  0  0  0  3  0  0  0  0  0  0
  -26.4380  -31.8010   25.1260 C   0  0  1  0  0  0  0  0  0  0  0  0
  -25.3480  -31.5540   26.1960 C   0  0  0  0  0  1  0  0  0  0  0  0
  -27.0270  -30.4290   24.7280 C   0  0  0  0  0  1  0  0  0  0  0  0
  -27.5880  -32.6000   25.7850 C   0  0  0  0  0  1  0  0  0  0  0  0
  -25.6030  -33.9700   24.1800 N   0  0  0  0  0  0  0  0  0  0  0  0
  -25.9340  -35.0200   23.4160 C   0  0  0  0  0  0  0  0  0  0  0  0
  -26.6040  -34.9150   22.3850 O   0  0  0  0  0  0  0  0  0  0  0  0
  -25.0110  -34.1270   24.9830 H   0  0  0  0  0  0  0  0  0  0  0  0
  -24.2060  -36.8080   23.0420 C   0  0  0  0  0  1  0  0  0  0  0  0
  -25.4410  -36.4090   23.8650 C   0  0  0  0  0  3  0  0  0  0  0  0
  -27.5680  -37.2930   24.7150 C   0  0  0  0  0  1  0  0  0  0  0  0
  -26.4750  -37.4620   23.7620 N   0  0  0  0  0  0  0  0  0  0  0  0
  -26.0660  -38.3810   23.9090 H   0  0  0  0  0  0  0  0  0  0  0  0
  2  5  1  0
  3  1  1  0
  4  2  2  0
  4  6  1  0
  5  1  2  0
  6  3  2  0
  7 16  1  0
  8 13  1  0
  9 10  1  0
  9  8  1  0
 11 10  1  0
 11 24  1  0
 11 12  1  0
 13  7  1  0
 13 12  1  0
 14  7  2  0
 15 17  2  0
 15  5  1  0
 16 15  1  0
 16 18  1  0
 19 17  1  0
 20 17  1  0
 21 22  2  0
 22 41  1  0
 23 22  1  0
 23 26  1  0
 24 21  1  0
 24 25  1  0
 25 23  2  0
 26 27  1  0
 27 28  2  0
 29 32  1  0
 29 28  1  0
 30 29  2  0
 31 30  1  0
 31 26  2  0
 32 33  1  0
 33 34  1  0
 34 35  2  0
 36 35  1  0
 36 40  1  0
 37 36  2  0
 38 33  2  0
 38 37  1  0
 39 38  1  0
 41 42  1  0
 42 45  1  0
 42 44  1  0
 43 41  2  0
 46 47  1  0
 46 21  1  0
 48 46  1  0
 49  6  1  0
 49 51  1  0
 50 49  1  0
 52 51  1  0
 53 54  1  0
 53 52  1  0
 55 66  2  0
 56 54  1  0
 56 61  1  0
 57 65  1  0
 57 67  1  0
 58 64  1  0
 58 60  1  0
 59 65  1  0
 60 59  1  0
 61 60  2  0
 62 63  1  0
 62 56  2  0
 63 58  2  0
 64 57  1  0
 65 55  1  0
 67 69  2  0
 68 67  1  0
 70 68  1  0
 71 80  2  0
 71 76  1  0
 72 68  1  0
 72 76  1  0
 73 72  1  0
 74 75  1  0
 74 73  1  0
 75 71  1  0
 76 77  2  0
 77 78  1  0
 79 78  2  0
 80 79  1  0
 81 55  1  0
 81 86  1  0
 81 82  1  0
 82 85  1  1
 82 83  1  0
 84 82  1  0
 86 89  1  0
 87 91  1  0
 87 86  1  0
 88 87  2  0
 91 90  1  0
 93 91  1  0
 93 94  1  0
 93 92  1  0
M  ISO  4   7 100  16 100  53 101  54 101
M  END
>  <TORSDO>  (17) 
F 20

>  <SCORE>  (17) 
-13.883

>  <name>  (17) 
17

>  <ligand_id>  (17) 
17

>  <original_smiles>  (17) 
[H]c1c([H])c([H])c2c(c1[H])C([H])([H])C([H])([H])C([H])([H])C2([H])N([H])C(=O)C1([H])N(C(=O)C([H])(N([H])C(=O)C([H])(N([H])C([H])([H])[H])C([H])([H])[H])C(C([H])([H])[H])(C([H])([H])[H])C([H])([H])[H])C([H])([H])c2c([H])c(OC([H])([H])C([H])([H])C([H])([H])N([H])c3c([H])c([H])c(C(N([H])C(=O)N4C([H])([H])C([H])([H])C([H])([H])C([H])(n5nc(-c6c([H])c([H])c(Oc7c([H])c([H])c(F)c([H])c7F)c([H])c6[H])c(C(=O)N([H])[H])c5N([H])[H])C4([H])[H])=[N+]([H])[H])c([H])c3[H])c([H])c([H])c2C1([H])[H]

>  <smiles>  (17) 
[H]c1c([H])c([H])c2c(c1[H])C([H])([H])C([H])([H])C([H])([H])C2([H])N([H])C(=O)C1([H])N(C(=O)C([H])(N([H])C(=O)C([H])(N([H])C([H])([H])[H])C([H])([H])[H])C(C([H])([H])[H])(C([H])([H])[H])C([H])([H])[H])C([H])([H])c2c([H])c(OC([H])([H])C([H])([H])C([H])([H])N([H])c3c([H])c([H])c(C(N([H])C(=O)N4C([H])([H])C([H])([H])C([H])([H])C([H])(n5nc(-c6c([H])c([H])c(Oc7c([H])c([H])c(F)c([H])c7F)c([H])c6[H])c(C(=O)N([H])[H])c5N([H])[H])C4([H])[H])=[N+]([H])[H])c([H])c3[H])c([H])c([H])c2C1([H])[H]

$$$$
18:0:0
     RDKit          3D

 99109  0  0  1  0  0  0  0  0999 V2000
  -26.3610  -17.0700   20.6250 C   0  0  0  0  0  3  0  0  0  0  0  0
  -26.4360  -18.2720   19.9020 C   0  0  0  0  0  3  0  0  0  0  0  0
  -27.5030  -16.2580   20.7570 C   0  0  0  0  0  3  0  0  0  0  0  0
  -27.6520  -18.6540   19.3060 C   0  0  0  0  0  3  0  0  0  0  0  0
  -33.6790  -16.3150   20.1100 C   0  0  0  0  0  3  0  0  0  0  0  0
  -33.7190  -17.6630   19.5590 C   0  0  0  0  0  3  0  0  0  0  0  0
  -28.7350  -16.6410   20.1710 C   0  0  0  0  0  0  0  0  0  0  0  0
  -28.8050  -17.8430   19.4370 C   0  0  0  0  0  0  0  0  0  0  0  0
  -31.2920  -16.3320   19.9670 C   0  0  0  0  0  0  0  0  0  0  0  0
  -31.3480  -17.6480   19.3030 C   0  0  0  0  0  0  0  0  0  0  0  0
  -32.4780  -15.5580   20.3260 C   0  0  0  0  0  0  0  0  0  0  0  0
  -32.5760  -18.3970   19.0910 C   0  0  0  0  0  0  0  0  0  0  0  0
  -29.9250  -15.7590   20.3140 C   0  0  0  0  0  0  0  0  0  0  0  0
  -30.0630  -18.2390   18.7650 C   0  0  0  0  0  0  0  0  0  0  0  0
  -29.7670  -14.6190   20.7570 O   0  0  0  0  0  0  0  0  0  0  0  0
  -30.0200  -19.0180   17.8040 O   0  0  0  0  0  0  0  0  0  0  0  0
  -33.0820  -12.8870   20.9320 C   0  0  0  0  0  0  0  0  0  0  0  0
  -32.7870  -10.3910   20.5870 C   0  0  0  0  0  2  0  0  0  0  0  0
  -32.0940  -10.1470   19.2240 C   0  0  0  0  0  2  0  0  0  0  0  0
  -30.5600  -10.2420   19.3530 C   0  0  0  0  0  2  0  0  0  0  0  0
  -30.1150  -11.4870   20.1670 C   0  0  0  0  0  3  0  0  0  0  0  0
  -30.9250  -11.6220   21.4750 C   0  0  0  0  0  2  0  0  0  0  0  0
  -32.3450  -11.7170   21.1000 N   0  0  0  0  0  0  0  0  0  0  0  0
  -34.3070  -12.7920   20.7960 O   0  0  0  0  0  0  0  0  0  0  0  0
  -32.3670  -14.1000   20.8110 N   0  0  0  0  0  0  0  0  0  0  0  0
  -31.4240  -13.9180   21.1330 H   0  0  0  0  0  0  0  0  0  0  0  0
  -27.7660  -12.5120   20.1330 C   0  0  0  0  0  0  0  0  0  0  0  0
  -26.5380  -12.0110   20.4640 C   0  0  0  0  0  0  0  0  0  0  0  0
  -26.7660  -10.6770   20.9180 C   0  0  0  0  0  0  0  0  0  0  0  0
  -28.6750  -11.5020   20.4030 N   0  0  0  0  0  0  0  0  0  0  0  0
  -28.0670  -10.4100   20.9340 N   0  0  0  0  0  0  0  0  0  0  0  0
  -25.8130   -9.6190   21.2830 C   0  0  0  0  0  0  0  0  0  0  0  0
  -25.5870   -9.2600   22.6300 C   0  0  0  0  0  3  0  0  0  0  0  0
  -24.6520   -8.2540   22.9560 C   0  0  0  0  0  3  0  0  0  0  0  0
  -23.9300   -7.5980   21.9300 C   0  0  0  0  0  0  0  0  0  0  0  0
  -24.1770   -7.9420   20.5890 C   0  0  0  0  0  3  0  0  0  0  0  0
  -25.1120   -8.9390   20.2670 C   0  0  0  0  0  3  0  0  0  0  0  0
  -23.0220   -6.5910   22.1510 O   0  0  0  0  0  0  0  0  0  0  0  0
  -22.1790   -6.6070   23.2340 C   0  0  0  0  0  0  0  0  0  0  0  0
  -21.1720   -7.5860   23.3800 C   0  0  0  0  0  3  0  0  0  0  0  0
  -20.2830   -7.5240   24.4700 C   0  0  0  0  0  3  0  0  0  0  0  0
  -20.3920   -6.4810   25.4100 C   0  0  0  0  0  0  0  0  0  0  0  0
  -21.3900   -5.5020   25.2630 C   0  0  0  0  0  3  0  0  0  0  0  0
  -22.2780   -5.5630   24.1760 C   0  0  0  0  0  0  0  0  0  0  0  0
  -23.2250   -4.6040   24.0270 F   0  0  0  0  0  0  0  0  0  0  0  0
  -19.5330   -6.4160   26.4540 F   0  0  0  0  0  0  0  0  0  0  0  0
  -25.2160  -12.6940   20.2670 C   0  0  0  0  0  0  0  0  0  0  0  0
  -24.2510  -12.4270   21.1400 N   0  0  0  0  0  0  0  0  0  0  0  0
  -25.0470  -13.5100   19.3620 O   0  0  0  0  0  0  0  0  0  0  0  0
  -24.3970  -11.7730   21.8950 H   0  0  0  0  0  0  0  0  0  0  0  0
  -23.3550  -12.8850   21.0530 H   0  0  0  0  0  0  0  0  0  0  0  0
  -28.1800  -13.7270   19.5950 N   0  0  0  0  0  0  0  0  0  0  0  0
  -27.5120  -14.4320   19.3060 H   0  0  0  0  0  0  0  0  0  0  0  0
  -29.1210  -13.9070   19.2740 H   0  0  0  0  0  0  0  0  0  0  0  0
  -32.6220  -19.6690   18.3170 N   0  0  0  0  0  0  0  0  0  0  0  0
  -31.8070  -19.7020   17.7000 H   0  0  0  0  0  0  0  0  0  0  0  0
  -33.0980  -21.1310   18.5290 C   0  0  0  0  0  3  0  0  0  0  0  0
  -32.1410  -22.3990   17.9760 C   0  0  0  0  0  3  0  0  0  0  0  0
  -32.1630  -23.8980   18.3670 O   0  0  0  0  0  0  0  0  0  0  0  0
  -26.6220  -27.6100   21.4700 C   0  0  0  0  0  0  0  0  0  0  0  0
  -30.9880  -24.7220   18.2340 C   0  0  0  0  0  0  0  0  0  0  0  0
  -26.3310  -26.8730   19.1360 C   0  0  0  0  0  3  0  0  0  0  0  0
  -28.4600  -26.1170   17.9160 C   0  0  0  0  0  0  0  0  0  0  0  0
  -28.6820  -27.4070   20.0340 C   0  0  0  0  0  2  0  0  0  0  0  0
  -29.2600  -26.3940   19.0320 C   0  0  0  0  0  0  0  0  0  0  0  0
  -30.5270  -25.7180   19.1810 C   0  0  0  0  0  3  0  0  0  0  0  0
  -30.1510  -24.5440   17.1080 C   0  0  0  0  0  3  0  0  0  0  0  0
  -28.9180  -25.2100   16.9510 C   0  0  0  0  0  3  0  0  0  0  0  0
  -27.1140  -26.8140   17.7990 C   0  0  0  0  0  2  0  0  0  0  0  0
  -27.2080  -27.2960   20.2750 N   0  0  0  0  0  0  0  0  0  0  0  0
  -25.3900  -27.5710   21.6190 O   0  0  0  0  0  0  0  0  0  0  0  0
  -25.6270  -25.5150   19.3770 C   0  0  0  0  0  0  0  0  0  0  0  0
  -24.5850  -25.2150   18.5810 N   0  0  0  0  0  0  0  0  0  0  0  0
  -26.0350  -24.7450   20.2500 O   0  0  0  0  0  0  0  0  0  0  0  0
  -24.3000  -25.9000   17.8950 H   0  0  0  0  0  0  0  0  0  0  0  0
  -21.9360  -23.3760   16.9330 C   0  0  0  0  0  0  0  0  0  0  0  0
  -23.8140  -23.9690   18.6090 C   0  0  0  0  0  3  0  0  0  0  0  0
  -24.6110  -22.8080   17.9680 C   0  0  0  0  0  2  0  0  0  0  0  0
  -24.3080  -22.6190   16.4770 C   0  0  0  0  0  2  0  0  0  0  0  0
  -22.8180  -22.3350   16.2640 C   0  0  0  0  0  2  0  0  0  0  0  0
  -22.4080  -24.1520   18.0240 C   0  0  0  0  0  0  0  0  0  0  0  0
  -21.5570  -25.1260   18.5900 C   0  0  0  0  0  3  0  0  0  0  0  0
  -20.2590  -25.3290   18.0850 C   0  0  0  0  0  3  0  0  0  0  0  0
  -19.7920  -24.5470   17.0140 C   0  0  0  0  0  3  0  0  0  0  0  0
  -20.6270  -23.5700   16.4430 C   0  0  0  0  0  3  0  0  0  0  0  0
  -27.4680  -28.0560   22.7010 C   0  0  0  0  0  3  0  0  0  0  0  0
  -27.5750  -26.9430   23.8160 C   0  0  1  0  0  0  0  0  0  0  0  0
  -26.2040  -26.4020   24.2880 C   0  0  0  0  0  1  0  0  0  0  0  0
  -28.4070  -25.7400   23.3150 C   0  0  0  0  0  1  0  0  0  0  0  0
  -28.3150  -27.5070   25.0510 C   0  0  0  0  0  1  0  0  0  0  0  0
  -26.8550  -29.2740   23.2510 N   0  0  0  0  0  0  0  0  0  0  0  0
  -27.3120  -30.5170   23.0490 C   0  0  0  0  0  0  0  0  0  0  0  0
  -28.3500  -30.7540   22.4250 O   0  0  0  0  0  0  0  0  0  0  0  0
  -25.9720  -29.1610   23.7270 H   0  0  0  0  0  0  0  0  0  0  0  0
  -25.6180  -32.3050   22.5310 C   0  0  0  0  0  1  0  0  0  0  0  0
  -26.4900  -31.6840   23.6340 C   0  0  0  0  0  3  0  0  0  0  0  0
  -27.9430  -32.3120   25.5120 C   0  0  0  0  0  1  0  0  0  0  0  0
  -27.3220  -32.7360   24.2600 N   0  0  0  0  0  0  0  0  0  0  0  0
  -26.7700  -33.5680   24.4450 H   0  0  0  0  0  0  0  0  0  0  0  0
  1  3  1  0
  2  1  2  0
  4  8  2  0
  4  2  1  0
  5 11  1  0
  6  5  2  0
  7 13  1  0
  7  3  2  0
  8  7  1  0
  9 13  1  0
  9 11  2  0
 10  9  1  0
 11 25  1  0
 12 10  2  0
 12  6  1  0
 13 15  2  0
 14 10  1  0
 14  8  1  0
 16 14  2  0
 17 23  1  0
 18 23  1  0
 19 20  1  0
 19 18  1  0
 21 20  1  0
 21 30  1  0
 21 22  1  0
 23 22  1  0
 24 17  2  0
 25 17  1  0
 25 26  1  0
 27 30  1  0
 27 28  2  0
 28 29  1  0
 29 31  2  0
 29 32  1  0
 30 31  1  0
 32 33  1  0
 33 34  2  0
 35 38  1  0
 35 34  1  0
 36 35  2  0
 37 36  1  0
 37 32  2  0
 38 39  1  0
 39 40  2  0
 39 44  1  0
 40 41  1  0
 41 42  2  0
 42 46  1  0
 43 42  1  0
 44 43  2  0
 45 44  1  0
 47 28  1  0
 47 48  1  0
 48 50  1  0
 49 47  2  0
 51 48  1  0
 52 27  1  0
 53 52  1  0
 54 52  1  0
 55 57  1  0
 55 12  1  0
 56 55  1  0
 58 59  1  0
 58 57  2  0
 60 71  2  0
 61 59  1  0
 61 66  1  0
 62 72  1  0
 62 70  1  0
 63 65  1  0
 64 70  1  0
 65 66  2  0
 65 64  1  0
 67 61  2  0
 68 67  1  0
 68 63  2  0
 69 63  1  0
 69 62  1  0
 70 60  1  0
 72 74  2  0
 73 72  1  0
 75 73  1  0
 76 81  1  0
 77 73  1  0
 78 77  1  0
 79 78  1  0
 80 79  1  0
 80 76  1  0
 81 82  2  0
 81 77  1  0
 83 82  1  0
 84 83  2  0
 85 76  2  0
 85 84  1  0
 86 60  1  0
 86 91  1  0
 86 87  1  0
 87 88  1  1
 87 90  1  0
 89 87  1  0
 91 94  1  0
 92 91  1  0
 92 96  1  0
 93 92  2  0
 96 95  1  0
 96 98  1  0
 98 99  1  0
 98 97  1  0
M  ISO  4  17 100  25 100  58 101  59 101
M  END
>  <TORSDO>  (18) 
F 19

>  <SCORE>  (18) 
-4.508

>  <name>  (18) 
18

>  <ligand_id>  (18) 
18

>  <original_smiles>  (18) 
[H]c1c([H])c([H])c2c(c1[H])C(=O)c1c(c(N([H])C([H])([H])C([H])([H])Oc3c([H])c([H])c4c(c3[H])C([H])([H])N(C(=O)C([H])(N([H])C(=O)C([H])(N([H])C([H])([H])[H])C([H])([H])[H])C(C([H])([H])[H])(C([H])([H])[H])C([H])([H])[H])C([H])(C(=O)N([H])C3([H])c5c([H])c([H])c([H])c([H])c5C([H])([H])C([H])([H])C3([H])[H])C4([H])[H])c([H])c([H])c1N([H])C(=O)N1C([H])([H])C([H])([H])C([H])([H])C([H])(n3nc(-c4c([H])c([H])c(Oc5c([H])c([H])c(F)c([H])c5F)c([H])c4[H])c(C(=O)N([H])[H])c3N([H])[H])C1([H])[H])C2=O

>  <smiles>  (18) 
[H]c1c([H])c([H])c2c(c1[H])C(=O)c1c(c(N([H])C([H])([H])C([H])([H])Oc3c([H])c([H])c4c(c3[H])C([H])([H])N(C(=O)C([H])(N([H])C(=O)C([H])(N([H])C([H])([H])[H])C([H])([H])[H])C(C([H])([H])[H])(C([H])([H])[H])C([H])([H])[H])C([H])(C(=O)N([H])C3([H])c5c([H])c([H])c([H])c([H])c5C([H])([H])C([H])([H])C3([H])[H])C4([H])[H])c([H])c([H])c1N([H])C(=O)N1C([H])([H])C([H])([H])C([H])([H])C([H])(n3nc(-c4c([H])c([H])c(Oc5c([H])c([H])c(F)c([H])c5F)c([H])c4[H])c(C(=O)N([H])[H])c3N([H])[H])C1([H])[H])C2=O

$$$$
19:0:0
     RDKit          3D

 96105  0  0  1  0  0  0  0  0999 V2000
  -27.7430  -20.2450   20.7690 C   0  0  0  0  0  2  0  0  0  0  0  0
  -27.4040  -19.4550   18.3820 C   0  0  0  0  0  2  0  0  0  0  0  0
  -27.0260  -21.4850   20.2020 C   0  0  0  0  0  2  0  0  0  0  0  0
  -28.1390  -20.7840   18.0890 C   0  0  0  0  0  2  0  0  0  0  0  0
  -27.5790  -18.9980   19.8620 C   0  0  0  0  0  3  0  0  0  0  0  0
  -27.6070  -21.9190   18.8960 N   0  0  2  0  0  4  0  0  0  0  0  0
  -26.8090  -22.2600   18.3790 H   0  0  0  0  0  0  0  0  0  0  0  0
  -28.5810  -17.7870   19.9820 C   0  0  0  0  0  2  0  0  0  0  0  0
  -31.1690  -18.4220   22.8610 C   0  0  0  0  0  3  0  0  0  0  0  0
  -32.1250  -17.4390   22.5720 C   0  0  0  0  0  3  0  0  0  0  0  0
  -30.0130  -18.5350   22.0640 C   0  0  0  0  0  3  0  0  0  0  0  0
  -31.9050  -16.5270   21.5290 C   0  0  0  0  0  3  0  0  0  0  0  0
  -29.7830  -17.6630   20.9620 C   0  0  0  0  0  0  0  0  0  0  0  0
  -30.7260  -16.6060   20.7440 C   0  0  0  0  0  0  0  0  0  0  0  0
  -31.1610  -14.4810   19.4700 C   0  0  0  0  0  0  0  0  0  0  0  0
  -30.7490  -12.2770   18.4300 C   0  0  0  0  0  2  0  0  0  0  0  0
  -29.6950  -12.4420   17.3200 C   0  0  0  0  0  2  0  0  0  0  0  0
  -28.2660  -12.3570   17.9170 C   0  0  0  0  0  2  0  0  0  0  0  0
  -28.0630  -13.2780   19.1540 C   0  0  0  0  0  3  0  0  0  0  0  0
  -29.2170  -13.0450   20.1570 C   0  0  0  0  0  2  0  0  0  0  0  0
  -30.4780  -13.3110   19.4370 N   0  0  0  0  0  0  0  0  0  0  0  0
  -32.2770  -14.6220   18.9500 O   0  0  0  0  0  0  0  0  0  0  0  0
  -30.4080  -15.5350   19.8520 N   0  0  0  0  0  0  0  0  0  0  0  0
  -29.4200  -15.3540   19.7690 H   0  0  0  0  0  0  0  0  0  0  0  0
  -25.8070  -14.0150   20.1650 C   0  0  0  0  0  0  0  0  0  0  0  0
  -24.7450  -13.3040   20.6480 C   0  0  0  0  0  0  0  0  0  0  0  0
  -25.1020  -11.9280   20.5200 C   0  0  0  0  0  0  0  0  0  0  0  0
  -26.7550  -13.0790   19.7790 N   0  0  0  0  0  0  0  0  0  0  0  0
  -26.3390  -11.8160   20.0510 N   0  0  0  0  0  0  0  0  0  0  0  0
  -24.3210  -10.7120   20.7580 C   0  0  0  0  0  0  0  0  0  0  0  0
  -24.7560   -9.7280   21.6730 C   0  0  0  0  0  3  0  0  0  0  0  0
  -23.9830   -8.5710   21.8970 C   0  0  0  0  0  3  0  0  0  0  0  0
  -22.7610   -8.3900   21.2080 C   0  0  0  0  0  0  0  0  0  0  0  0
  -22.3440   -9.3620   20.2830 C   0  0  0  0  0  3  0  0  0  0  0  0
  -23.1150  -10.5130   20.0550 C   0  0  0  0  0  3  0  0  0  0  0  0
  -21.9590   -7.2830   21.3430 O   0  0  0  0  0  0  0  0  0  0  0  0
  -21.8790   -6.5920   22.5270 C   0  0  0  0  0  0  0  0  0  0  0  0
  -21.4800   -7.2170   23.7280 C   0  0  0  0  0  3  0  0  0  0  0  0
  -21.3430   -6.4570   24.9070 C   0  0  0  0  0  3  0  0  0  0  0  0
  -21.5910   -5.0730   24.8850 C   0  0  0  0  0  0  0  0  0  0  0  0
  -21.9830   -4.4460   23.6910 C   0  0  0  0  0  3  0  0  0  0  0  0
  -22.1230   -5.2030   22.5130 C   0  0  0  0  0  0  0  0  0  0  0  0
  -22.4780   -4.5900   21.3580 F   0  0  0  0  0  0  0  0  0  0  0  0
  -21.4550   -4.3420   26.0170 F   0  0  0  0  0  0  0  0  0  0  0  0
  -23.4300  -13.8600   21.1100 C   0  0  0  0  0  0  0  0  0  0  0  0
  -22.7770  -13.1970   22.0600 N   0  0  0  0  0  0  0  0  0  0  0  0
  -22.9920  -14.9200   20.6630 O   0  0  0  0  0  0  0  0  0  0  0  0
  -23.1500  -12.3430   22.4510 H   0  0  0  0  0  0  0  0  0  0  0  0
  -21.8900  -13.5540   22.3950 H   0  0  0  0  0  0  0  0  0  0  0  0
  -26.0320  -15.3760   19.9960 N   0  0  0  0  0  0  0  0  0  0  0  0
  -25.3160  -16.0650   20.1990 H   0  0  0  0  0  0  0  0  0  0  0  0
  -26.7930  -15.7500   19.4500 H   0  0  0  0  0  0  0  0  0  0  0  0
  -28.5750  -23.0610   18.9440 C   0  0  0  0  0  2  0  0  0  0  0  0
  -28.0900  -24.3480   19.6600 C   0  0  0  0  0  2  0  0  0  0  0  0
  -28.6740  -25.6350   19.0220 C   0  0  0  0  0  2  0  0  0  0  0  0
  -28.5480  -26.8070   19.8410 O   0  0  0  0  0  0  0  0  0  0  0  0
  -24.6870  -31.7370   23.2220 C   0  0  0  0  0  0  0  0  0  0  0  0
  -27.3430  -27.4760   19.8890 C   0  0  0  0  0  0  0  0  0  0  0  0
  -23.4770  -30.3740   21.5550 C   0  0  0  0  0  3  0  0  0  0  0  0
  -24.9230  -28.9330   20.0350 C   0  0  0  0  0  0  0  0  0  0  0  0
  -25.9930  -30.7840   21.3280 C   0  0  0  0  0  2  0  0  0  0  0  0
  -26.0850  -29.4490   20.6210 C   0  0  0  0  0  0  0  0  0  0  0  0
  -27.2960  -28.7260   20.5510 C   0  0  0  0  0  3  0  0  0  0  0  0
  -26.1570  -26.9780   19.3020 C   0  0  0  0  0  3  0  0  0  0  0  0
  -24.9510  -27.6930   19.3780 C   0  0  0  0  0  3  0  0  0  0  0  0
  -23.6640  -29.7630   20.1440 C   0  0  0  0  0  2  0  0  0  0  0  0
  -24.7390  -30.9790   22.0880 N   0  0  0  0  0  0  0  0  0  0  0  0
  -23.6120  -31.9610   23.7980 O   0  0  0  0  0  0  0  0  0  0  0  0
  -22.8770  -29.2950   22.4810 C   0  0  0  0  0  0  0  0  0  0  0  0
  -21.5740  -29.0220   22.3070 N   0  0  0  0  0  0  0  0  0  0  0  0
  -23.5780  -28.7080   23.3100 O   0  0  0  0  0  0  0  0  0  0  0  0
  -21.0710  -29.5540   21.6120 H   0  0  0  0  0  0  0  0  0  0  0  0
  -18.3020  -27.5120   22.6120 C   0  0  0  0  0  0  0  0  0  0  0  0
  -20.7960  -28.0240   23.0430 C   0  0  0  0  0  3  0  0  0  0  0  0
  -21.0760  -26.5990   22.5160 C   0  0  0  0  0  2  0  0  0  0  0  0
  -20.0850  -26.1480   21.4440 C   0  0  0  0  0  2  0  0  0  0  0  0
  -18.6510  -26.1760   21.9750 C   0  0  0  0  0  2  0  0  0  0  0  0
  -19.3100  -28.3890   23.0960 C   0  0  0  0  0  0  0  0  0  0  0  0
  -18.9320  -29.6340   23.6400 C   0  0  0  0  0  3  0  0  0  0  0  0
  -17.5790  -30.0080   23.7020 C   0  0  0  0  0  3  0  0  0  0  0  0
  -16.5840  -29.1300   23.2420 C   0  0  0  0  0  3  0  0  0  0  0  0
  -16.9450  -27.8850   22.6980 C   0  0  0  0  0  3  0  0  0  0  0  0
  -25.9730  -32.3720   23.8350 C   0  0  0  0  0  3  0  0  0  0  0  0
  -25.6570  -33.7630   24.1760 N   0  0  0  0  0  0  0  0  0  0  0  0
  -25.9770  -34.8230   23.4200 C   0  0  0  0  0  0  0  0  0  0  0  0
  -26.6450  -34.7310   22.3860 O   0  0  0  0  0  0  0  0  0  0  0  0
  -25.0630  -33.9100   24.9790 H   0  0  0  0  0  0  0  0  0  0  0  0
  -24.2270  -36.5950   23.0820 C   0  0  0  0  0  1  0  0  0  0  0  0
  -25.4760  -36.2020   23.8850 C   0  0  0  0  0  3  0  0  0  0  0  0
  -27.6060  -37.0990   24.7140 C   0  0  0  0  0  1  0  0  0  0  0  0
  -26.5010  -37.2650   23.7730 N   0  0  0  0  0  0  0  0  0  0  0  0
  -26.0880  -38.1830   23.9270 H   0  0  0  0  0  0  0  0  0  0  0  0
  -26.5090  -31.5940   25.1000 C   0  0  1  0  0  0  0  0  0  0  0  0
  -25.4170  -31.3140   26.1600 C   0  0  0  0  0  1  0  0  0  0  0  0
  -27.1230  -30.2360   24.6890 C   0  0  0  0  0  1  0  0  0  0  0  0
  -27.6440  -32.4040   25.7690 C   0  0  0  0  0  1  0  0  0  0  0  0
  2  5  1  0
  3  1  1  0
  4  2  1  0
  4  6  1  0
  5  8  1  0
  5  1  1  0
  6 53  1  0
  6  3  1  0
  6  7  1  6
  8 13  1  0
 10  9  1  0
 11  9  2  0
 12 10  2  0
 13 11  1  0
 14 13  2  0
 14 12  1  0
 15 23  1  0
 16 21  1  0
 17 18  1  0
 17 16  1  0
 19 18  1  0
 19 28  1  0
 19 20  1  0
 21 15  1  0
 21 20  1  0
 22 15  2  0
 23 14  1  0
 24 23  1  0
 25 26  2  0
 26 45  1  0
 27 26  1  0
 27 30  1  0
 28 29  1  0
 28 25  1  0
 29 27  2  0
 30 31  1  0
 31 32  2  0
 33 36  1  0
 33 32  1  0
 34 33  2  0
 35 34  1  0
 35 30  2  0
 36 37  1  0
 37 38  1  0
 38 39  2  0
 40 39  1  0
 40 44  1  0
 41 40  2  0
 42 37  2  0
 42 41  1  0
 43 42  1  0
 45 46  1  0
 46 49  1  0
 46 48  1  0
 47 45  2  0
 50 25  1  0
 50 51  1  0
 52 50  1  0
 53 54  1  0
 55 54  1  0
 55 56  1  0
 56 58  1  0
 57 68  2  0
 58 63  1  0
 59 67  1  0
 59 69  1  0
 60 66  1  0
 60 62  1  0
 61 67  1  0
 62 61  1  0
 63 62  2  0
 64 65  1  0
 64 58  2  0
 65 60  2  0
 66 59  1  0
 67 57  1  0
 69 71  2  0
 70 69  1  0
 72 70  1  0
 73 82  2  0
 73 78  1  0
 74 70  1  0
 74 78  1  0
 75 74  1  0
 76 77  1  0
 76 75  1  0
 77 73  1  0
 78 79  2  0
 79 80  1  0
 81 80  2  0
 82 81  1  0
 83 57  1  0
 83 84  1  0
 83 93  1  0
 84 87  1  0
 85 89  1  0
 85 84  1  0
 86 85  2  0
 89 88  1  0
 91 89  1  0
 91 92  1  0
 91 90  1  0
 93 96  1  1
 93 94  1  0
 95 93  1  0
M  ISO  4  15 100  23 100  55 101  56 101
M  END
>  <TORSDO>  (19) 
F 21

>  <SCORE>  (19) 
-8.867

>  <name>  (19) 
19

>  <ligand_id>  (19) 
19

>  <original_smiles>  (19) 
[H]c1c([H])c([H])c(C([H])([H])C2([H])C([H])([H])C([H])([H])[N+]([H])(C([H])([H])C([H])([H])C([H])([H])Oc3c([H])c([H])c4c(c3[H])C([H])([H])N(C(=O)C([H])(N([H])C(=O)C([H])(N([H])C([H])([H])[H])C([H])([H])[H])C(C([H])([H])[H])(C([H])([H])[H])C([H])([H])[H])C([H])(C(=O)N([H])C3([H])c5c([H])c([H])c([H])c([H])c5C([H])([H])C([H])([H])C3([H])[H])C4([H])[H])C([H])([H])C2([H])[H])c(N([H])C(=O)N2C([H])([H])C([H])([H])C([H])([H])C([H])(n3nc(-c4c([H])c([H])c(Oc5c([H])c([H])c(F)c([H])c5F)c([H])c4[H])c(C(=O)N([H])[H])c3N([H])[H])C2([H])[H])c1[H]

>  <smiles>  (19) 
[H]c1c([H])c([H])c(C([H])([H])C2([H])C([H])([H])C([H])([H])[N+]([H])(C([H])([H])C([H])([H])C([H])([H])Oc3c([H])c([H])c4c(c3[H])C([H])([H])N(C(=O)C([H])(N([H])C(=O)C([H])(N([H])C([H])([H])[H])C([H])([H])[H])C(C([H])([H])[H])(C([H])([H])[H])C([H])([H])[H])C([H])(C(=O)N([H])C3([H])c5c([H])c([H])c([H])c([H])c5C([H])([H])C([H])([H])C3([H])[H])C4([H])[H])C([H])([H])C2([H])[H])c(N([H])C(=O)N2C([H])([H])C([H])([H])C([H])([H])C([H])(n3nc(-c4c([H])c([H])c(Oc5c([H])c([H])c(F)c([H])c5F)c([H])c4[H])c(C(=O)N([H])[H])c3N([H])[H])C2([H])[H])c1[H]

$$$$
20:0:0
     RDKit          3D

106116  0  0  1  0  0  0  0  0999 V2000
  -30.5650  -24.5640   18.3240 C   0  0  0  0  0  0  0  0  0  0  0  0
  -33.2740  -25.6200   18.4610 C   0  0  0  0  0  2  0  0  0  0  0  0
  -33.0890  -24.1890   17.9750 C   0  0  0  0  0  2  0  0  0  0  0  0
  -31.5370  -22.2920   17.5790 C   0  0  0  0  0  2  0  0  0  0  0  0
  -31.9090  -23.1450   19.9580 C   0  0  0  0  0  2  0  0  0  0  0  0
  -32.1430  -26.4650   17.8810 C   0  0  0  0  0  2  0  0  0  0  0  0
  -30.5880  -21.2310   18.1610 C   0  0  0  0  0  2  0  0  0  0  0  0
  -30.9250  -22.0580   20.4340 C   0  0  0  0  0  2  0  0  0  0  0  0
  -31.7560  -23.5600   18.4600 C   0  0  2  0  0  0  0  0  0  0  0  0
  -30.9840  -20.9150   19.5290 N   0  0  0  0  0  0  0  0  0  0  0  0
  -30.8110  -25.8850   18.1110 N   0  0  0  0  0  0  0  0  0  0  0  0
  -29.4120  -24.1380   18.4330 O   0  0  0  0  0  0  0  0  0  0  0  0
  -29.5950  -18.9110   19.5830 C   0  0  0  0  0  3  0  0  0  0  0  0
  -29.3600  -17.5770   19.9570 C   0  0  0  0  0  3  0  0  0  0  0  0
  -31.3850  -17.6090   21.3040 C   0  0  0  0  0  3  0  0  0  0  0  0
  -31.6260  -18.9570   20.9460 C   0  0  0  0  0  0  0  0  0  0  0  0
  -30.7380  -19.6150   20.0350 C   0  0  0  0  0  0  0  0  0  0  0  0
  -30.2820  -16.9060   20.7820 C   0  0  0  0  0  0  0  0  0  0  0  0
  -30.7540  -14.5650   20.3950 C   0  0  0  0  0  0  0  0  0  0  0  0
  -30.4240  -12.4400   19.1950 C   0  0  0  0  0  2  0  0  0  0  0  0
  -29.4510  -12.6760   18.0210 C   0  0  0  0  0  2  0  0  0  0  0  0
  -27.9900  -12.5180   18.4860 C   0  0  0  0  0  2  0  0  0  0  0  0
  -27.6820  -13.3320   19.7720 C   0  0  0  0  0  3  0  0  0  0  0  0
  -28.7630  -13.0830   20.8480 C   0  0  0  0  0  2  0  0  0  0  0  0
  -30.0790  -13.3930   20.2590 N   0  0  0  0  0  0  0  0  0  0  0  0
  -31.8470  -14.7800   19.8620 O   0  0  0  0  0  0  0  0  0  0  0  0
  -30.0980  -15.5300   21.0580 N   0  0  0  0  0  0  0  0  0  0  0  0
  -29.1940  -15.2550   21.4170 H   0  0  0  0  0  0  0  0  0  0  0  0
  -25.2980  -13.9180   20.5510 C   0  0  0  0  0  0  0  0  0  0  0  0
  -24.2430  -13.1350   20.9360 C   0  0  0  0  0  0  0  0  0  0  0  0
  -24.7090  -11.7860   20.8660 C   0  0  0  0  0  0  0  0  0  0  0  0
  -26.3410  -13.0460   20.2770 N   0  0  0  0  0  0  0  0  0  0  0  0
  -25.9890  -11.7570   20.5180 N   0  0  0  0  0  0  0  0  0  0  0  0
  -23.9940  -10.5180   21.0520 C   0  0  0  0  0  0  0  0  0  0  0  0
  -24.4270   -9.5550   21.9890 C   0  0  0  0  0  3  0  0  0  0  0  0
  -23.7120   -8.3500   22.1620 C   0  0  0  0  0  3  0  0  0  0  0  0
  -22.5490   -8.1010   21.3960 C   0  0  0  0  0  0  0  0  0  0  0  0
  -22.1340   -9.0510   20.4460 C   0  0  0  0  0  3  0  0  0  0  0  0
  -22.8510  -10.2480   20.2730 C   0  0  0  0  0  3  0  0  0  0  0  0
  -21.8060   -6.9470   21.4770 O   0  0  0  0  0  0  0  0  0  0  0  0
  -21.7350   -6.2180   22.6360 C   0  0  0  0  0  0  0  0  0  0  0  0
  -21.2180   -6.7630   23.8300 C   0  0  0  0  0  3  0  0  0  0  0  0
  -21.0980   -5.9570   24.9800 C   0  0  0  0  0  3  0  0  0  0  0  0
  -21.4840   -4.6040   24.9360 C   0  0  0  0  0  0  0  0  0  0  0  0
  -21.9940   -4.0580   23.7450 C   0  0  0  0  0  3  0  0  0  0  0  0
  -22.1170   -4.8600   22.5980 C   0  0  0  0  0  0  0  0  0  0  0  0
  -22.5900   -4.3230   21.4490 F   0  0  0  0  0  0  0  0  0  0  0  0
  -21.3610   -3.8280   26.0370 F   0  0  0  0  0  0  0  0  0  0  0  0
  -22.8510  -13.6020   21.2540 C   0  0  0  0  0  0  0  0  0  0  0  0
  -22.1410  -12.8760   22.1100 N   0  0  0  0  0  0  0  0  0  0  0  0
  -22.4030  -14.6450   20.7820 O   0  0  0  0  0  0  0  0  0  0  0  0
  -22.5170  -12.0320   22.5180 H   0  0  0  0  0  0  0  0  0  0  0  0
  -21.2090  -13.1710   22.3650 H   0  0  0  0  0  0  0  0  0  0  0  0
  -25.4520  -15.2920   20.3940 N   0  0  0  0  0  0  0  0  0  0  0  0
  -24.6780  -15.9340   20.5240 H   0  0  0  0  0  0  0  0  0  0  0  0
  -26.2780  -15.7430   20.0270 H   0  0  0  0  0  0  0  0  0  0  0  0
  -32.8410  -19.5630   21.5160 C   0  0  0  0  0  0  0  0  0  0  0  0
  -35.0690  -20.6910   21.1090 C   0  0  0  0  0  1  0  0  0  0  0  0
  -33.0110  -19.6230   22.8380 N   0  0  0  0  0  4  0  0  0  0  0  0
  -33.8030  -20.0460   20.7200 N   0  0  0  0  0  0  0  0  0  0  0  0
  -32.2590  -19.3360   23.4470 H   0  0  0  0  0  0  0  0  0  0  0  0
  -33.8450  -20.0030   23.2550 H   0  0  0  0  0  0  0  0  0  0  0  0
  -33.5330  -20.1030   19.7420 H   0  0  0  0  0  0  0  0  0  0  0  0
  -29.7330  -26.8780   18.0110 C   0  0  0  0  0  2  0  0  0  0  0  0
  -29.4440  -27.5440   19.3680 C   0  0  0  0  0  2  0  0  0  0  0  0
  -28.3590  -26.8820   20.0120 O   0  0  0  0  0  0  0  0  0  0  0  0
  -24.5240  -31.9500   23.2560 C   0  0  0  0  0  0  0  0  0  0  0  0
  -27.1950  -27.6060   20.0900 C   0  0  0  0  0  0  0  0  0  0  0  0
  -23.3170  -30.5590   21.6030 C   0  0  0  0  0  3  0  0  0  0  0  0
  -24.7750  -29.0480   20.1560 C   0  0  0  0  0  0  0  0  0  0  0  0
  -25.8330  -30.9520   21.3890 C   0  0  0  0  0  2  0  0  0  0  0  0
  -25.9280  -29.5890   20.7390 C   0  0  0  0  0  0  0  0  0  0  0  0
  -27.1400  -28.8720   20.7120 C   0  0  0  0  0  3  0  0  0  0  0  0
  -26.0250  -27.0550   19.5350 C   0  0  0  0  0  3  0  0  0  0  0  0
  -24.8150  -27.7750   19.5570 C   0  0  0  0  0  3  0  0  0  0  0  0
  -23.5220  -29.8920   20.2150 C   0  0  0  0  0  2  0  0  0  0  0  0
  -24.5770  -31.1670   22.1420 N   0  0  0  0  0  0  0  0  0  0  0  0
  -23.4460  -32.2060   23.8090 O   0  0  0  0  0  0  0  0  0  0  0  0
  -22.6820  -29.5220   22.5570 C   0  0  0  0  0  0  0  0  0  0  0  0
  -21.3620  -29.3170   22.4230 N   0  0  0  0  0  0  0  0  0  0  0  0
  -23.3740  -28.9020   23.3690 O   0  0  0  0  0  0  0  0  0  0  0  0
  -20.8650  -29.8710   21.7380 H   0  0  0  0  0  0  0  0  0  0  0  0
  -18.0040  -28.0770   22.9030 C   0  0  0  0  0  0  0  0  0  0  0  0
  -20.5580  -28.3620   23.1830 C   0  0  0  0  0  3  0  0  0  0  0  0
  -20.6790  -26.9380   22.5930 C   0  0  0  0  0  2  0  0  0  0  0  0
  -19.5830  -26.6130   21.5740 C   0  0  0  0  0  2  0  0  0  0  0  0
  -18.1980  -26.7350   22.2170 C   0  0  0  0  0  2  0  0  0  0  0  0
  -19.1130  -28.8470   23.3420 C   0  0  0  0  0  0  0  0  0  0  0  0
  -18.8780  -30.1040   23.9430 C   0  0  0  0  0  3  0  0  0  0  0  0
  -17.5670  -30.5880   24.1090 C   0  0  0  0  0  3  0  0  0  0  0  0
  -16.4730  -29.8140   23.6860 C   0  0  0  0  0  3  0  0  0  0  0  0
  -16.6920  -28.5600   23.0900 C   0  0  0  0  0  3  0  0  0  0  0  0
  -25.8110  -32.5810   23.8740 C   0  0  0  0  0  3  0  0  0  0  0  0
  -26.3280  -31.8150   25.1540 C   0  0  1  0  0  0  0  0  0  0  0  0
  -25.2340  -31.5790   26.2210 C   0  0  0  0  0  1  0  0  0  0  0  0
  -26.9130  -30.4380   24.7640 C   0  0  0  0  0  1  0  0  0  0  0  0
  -27.4770  -32.6120   25.8150 C   0  0  0  0  0  1  0  0  0  0  0  0
  -25.5070  -33.9820   24.1940 N   0  0  0  0  0  0  0  0  0  0  0  0
  -25.8580  -35.0280   23.4340 C   0  0  0  0  0  0  0  0  0  0  0  0
  -26.5450  -34.9150   22.4140 O   0  0  0  0  0  0  0  0  0  0  0  0
  -24.8990  -34.1440   24.9830 H   0  0  0  0  0  0  0  0  0  0  0  0
  -24.1640  -36.8380   23.0190 C   0  0  0  0  0  1  0  0  0  0  0  0
  -25.3710  -36.4210   23.8740 C   0  0  0  0  0  3  0  0  0  0  0  0
  -27.4820  -37.2850   24.7840 C   0  0  0  0  0  1  0  0  0  0  0  0
  -26.4180  -37.4620   23.7980 N   0  0  0  0  0  0  0  0  0  0  0  0
  -26.0170  -38.3870   23.9280 H   0  0  0  0  0  0  0  0  0  0  0  0
  1 12  2  0
  1  9  1  0
  9  3  1  6
  3  2  1  0
  4  7  1  0
  5  8  1  0
  6 11  1  0
  6  2  1  0
  7 10  1  0
  9  4  1  0
  9  5  1  0
 10 17  1  0
 10  8  1  0
 11  1  1  0
 13 14  2  0
 13 17  1  0
 14 18  1  0
 16 15  1  0
 16 57  1  0
 17 16  2  0
 18 27  1  0
 18 15  2  0
 19 27  1  0
 20 25  1  0
 21 22  1  0
 21 20  1  0
 23 22  1  0
 23 32  1  0
 23 24  1  0
 25 19  1  0
 25 24  1  0
 26 19  2  0
 27 28  1  0
 29 30  2  0
 30 49  1  0
 31 30  1  0
 31 34  1  0
 32 33  1  0
 32 29  1  0
 33 31  2  0
 34 35  1  0
 35 36  2  0
 37 40  1  0
 37 36  1  0
 38 37  2  0
 39 38  1  0
 39 34  2  0
 40 41  1  0
 41 42  1  0
 42 43  2  0
 44 43  1  0
 44 48  1  0
 45 44  2  0
 46 41  2  0
 46 45  1  0
 47 46  1  0
 49 50  1  0
 50 53  1  0
 50 52  1  0
 51 49  2  0
 54 55  1  0
 54 29  1  0
 56 54  1  0
 57 59  2  0
 59 62  1  0
 59 61  1  0
 60 58  1  0
 60 57  1  0
 63 60  1  0
 64 11  1  0
 64 65  1  0
 65 66  1  0
 66 68  1  0
 67 78  2  0
 68 73  1  0
 69 77  1  0
 69 79  1  0
 70 76  1  0
 70 72  1  0
 71 77  1  0
 72 71  1  0
 73 72  2  0
 74 75  1  0
 74 68  2  0
 75 70  2  0
 76 69  1  0
 77 67  1  0
 79 81  2  0
 80 79  1  0
 82 80  1  0
 83 92  2  0
 83 88  1  0
 84 80  1  0
 84 88  1  0
 85 84  1  0
 86 87  1  0
 86 85  1  0
 87 83  1  0
 88 89  2  0
 89 90  1  0
 91 90  2  0
 92 91  1  0
 93 67  1  0
 93 98  1  0
 93 94  1  0
 94 97  1  1
 94 95  1  0
 96 94  1  0
 98101  1  0
 99103  1  0
 99 98  1  0
100 99  2  0
103102  1  0
105103  1  0
105106  1  0
105104  1  0
M  ISO  4  19 100  27 100  65 101  66 101
M  END
>  <TORSDO>  (20) 
F 20

>  <SCORE>  (20) 
-14.176

>  <name>  (20) 
20

>  <ligand_id>  (20) 
20

>  <original_smiles>  (20) 
[H]c1c([H])c([H])c2c(c1[H])C([H])([H])C([H])([H])C([H])([H])C2([H])N([H])C(=O)C1([H])N(C(=O)C([H])(N([H])C(=O)C([H])(N([H])C([H])([H])[H])C([H])([H])[H])C(C([H])([H])[H])(C([H])([H])[H])C([H])([H])[H])C([H])([H])c2c([H])c(OC([H])([H])C([H])([H])N3C(=O)C4(C([H])([H])C([H])([H])N(c5c([H])c([H])c(N([H])C(=O)N6C([H])([H])C([H])([H])C([H])([H])C([H])(n7nc(-c8c([H])c([H])c(Oc9c([H])c([H])c(F)c([H])c9F)c([H])c8[H])c(C(=O)N([H])[H])c7N([H])[H])C6([H])[H])c([H])c5C(N([H])[H])=[N+]([H])C([H])([H])[H])C([H])([H])C4([H])[H])C([H])([H])C([H])([H])C3([H])[H])c([H])c([H])c2C1([H])[H]

>  <smiles>  (20) 
[H]c1c([H])c([H])c2c(c1[H])C([H])([H])C([H])([H])C([H])([H])C2([H])N([H])C(=O)C1([H])N(C(=O)C([H])(N([H])C(=O)C([H])(N([H])C([H])([H])[H])C([H])([H])[H])C(C([H])([H])[H])(C([H])([H])[H])C([H])([H])[H])C([H])([H])c2c([H])c(OC([H])([H])C([H])([H])N3C(=O)C4(C([H])([H])C([H])([H])N(c5c([H])c([H])c(N([H])C(=O)N6C([H])([H])C([H])([H])C([H])([H])C([H])(n7nc(-c8c([H])c([H])c(Oc9c([H])c([H])c(F)c([H])c9F)c([H])c8[H])c(C(=O)N([H])[H])c7N([H])[H])C6([H])[H])c([H])c5C(N([H])[H])=[N+]([H])C([H])([H])[H])C([H])([H])C4([H])[H])C([H])([H])C([H])([H])C3([H])[H])c([H])c([H])c2C1([H])[H]

$$$$
21:0:0
     RDKit          3D

 92100  0  0  1  0  0  0  0  0999 V2000
  -30.3060  -21.6570   20.1800 C   0  0  0  0  0  2  0  0  0  0  0  0
  -31.2550  -19.2750   19.7270 C   0  0  0  0  0  3  0  0  0  0  0  0
  -31.2370  -17.8500   19.8290 C   0  0  0  0  0  3  0  0  0  0  0  0
  -29.0130  -19.3910   20.5940 C   0  0  0  0  0  3  0  0  0  0  0  0
  -30.1530  -20.0900   20.1170 C   0  0  0  0  0  0  0  0  0  0  0  0
  -30.0990  -17.1590   20.3240 C   0  0  0  0  0  0  0  0  0  0  0  0
  -28.9880  -17.9680   20.6890 C   0  0  0  0  0  0  0  0  0  0  0  0
  -27.8750  -17.3570   21.1620 F   0  0  0  0  0  0  0  0  0  0  0  0
  -30.7000  -14.6510   20.0190 C   0  0  0  0  0  0  0  0  0  0  0  0
  -30.3750  -12.4490   18.9200 C   0  0  0  0  0  2  0  0  0  0  0  0
  -29.3660  -12.6370   17.7670 C   0  0  0  0  0  2  0  0  0  0  0  0
  -27.9200  -12.4820   18.2780 C   0  0  0  0  0  2  0  0  0  0  0  0
  -27.6460  -13.3110   19.5600 C   0  0  0  0  0  3  0  0  0  0  0  0
  -28.7690  -13.1150   20.6070 C   0  0  0  0  0  2  0  0  0  0  0  0
  -30.0500  -13.4450   19.9600 N   0  0  0  0  0  0  0  0  0  0  0  0
  -31.8350  -14.7910   19.5620 O   0  0  0  0  0  0  0  0  0  0  0  0
  -29.9580  -15.7090   20.4610 N   0  0  0  0  0  0  0  0  0  0  0  0
  -29.0880  -15.4370   20.8910 H   0  0  0  0  0  0  0  0  0  0  0  0
  -25.3010  -13.9090   20.4290 C   0  0  0  0  0  0  0  0  0  0  0  0
  -24.2480  -13.1350   20.8370 C   0  0  0  0  0  0  0  0  0  0  0  0
  -24.6970  -11.7810   20.7460 C   0  0  0  0  0  0  0  0  0  0  0  0
  -26.3240  -13.0280   20.1180 N   0  0  0  0  0  0  0  0  0  0  0  0
  -25.9680  -11.7400   20.3650 N   0  0  0  0  0  0  0  0  0  0  0  0
  -23.9690  -10.5190   20.9420 C   0  0  0  0  0  0  0  0  0  0  0  0
  -24.4080   -9.5500   21.8700 C   0  0  0  0  0  3  0  0  0  0  0  0
  -23.6830   -8.3540   22.0540 C   0  0  0  0  0  3  0  0  0  0  0  0
  -22.5020   -8.1180   21.3110 C   0  0  0  0  0  0  0  0  0  0  0  0
  -22.0810   -9.0750   20.3710 C   0  0  0  0  0  3  0  0  0  0  0  0
  -22.8080  -10.2630   20.1850 C   0  0  0  0  0  3  0  0  0  0  0  0
  -21.7470   -6.9740   21.4050 O   0  0  0  0  0  0  0  0  0  0  0  0
  -21.6550   -6.2670   22.5770 C   0  0  0  0  0  0  0  0  0  0  0  0
  -21.1710   -6.8540   23.7660 C   0  0  0  0  0  3  0  0  0  0  0  0
  -21.0280   -6.0720   24.9300 C   0  0  0  0  0  3  0  0  0  0  0  0
  -21.3580   -4.7040   24.9040 C   0  0  0  0  0  0  0  0  0  0  0  0
  -21.8350   -4.1170   23.7190 C   0  0  0  0  0  3  0  0  0  0  0  0
  -21.9800   -4.8950   22.5580 C   0  0  0  0  0  0  0  0  0  0  0  0
  -22.4200   -4.3190   21.4140 F   0  0  0  0  0  0  0  0  0  0  0  0
  -21.2130   -3.9510   26.0200 F   0  0  0  0  0  0  0  0  0  0  0  0
  -22.8730  -13.6150   21.2010 C   0  0  0  0  0  0  0  0  0  0  0  0
  -22.1920  -12.9060   22.0960 N   0  0  0  0  0  0  0  0  0  0  0  0
  -22.4110  -14.6520   20.7260 O   0  0  0  0  0  0  0  0  0  0  0  0
  -22.5790  -12.0670   22.5000 H   0  0  0  0  0  0  0  0  0  0  0  0
  -21.2730  -13.2100   22.3810 H   0  0  0  0  0  0  0  0  0  0  0  0
  -25.4680  -15.2820   20.2810 N   0  0  0  0  0  0  0  0  0  0  0  0
  -24.7190  -15.9410   20.4660 H   0  0  0  0  0  0  0  0  0  0  0  0
  -26.3130  -15.7310   19.9520 H   0  0  0  0  0  0  0  0  0  0  0  0
  -29.1810  -22.5840   19.7810 N   0  0  0  0  0  4  0  0  0  0  0  0
  -28.3470  -22.2880   20.2600 H   0  0  0  0  0  0  0  0  0  0  0  0
  -29.0150  -22.4550   18.7940 H   0  0  0  0  0  0  0  0  0  0  0  0
  -29.4020  -24.0660   20.0700 C   0  0  0  0  0  3  0  0  0  0  0  0
  -28.2030  -25.0530   19.7380 C   0  0  0  0  0  3  0  0  0  0  0  0
  -28.3420  -26.4920   20.0560 O   0  0  0  0  0  0  0  0  0  0  0  0
  -24.4450  -31.7110   23.1730 C   0  0  0  0  0  0  0  0  0  0  0  0
  -27.1880  -27.2910   20.0330 C   0  0  0  0  0  0  0  0  0  0  0  0
  -23.2870  -30.3180   21.4980 C   0  0  0  0  0  3  0  0  0  0  0  0
  -24.7810  -28.8350   20.0540 C   0  0  0  0  0  0  0  0  0  0  0  0
  -25.8210  -30.7000   21.3400 C   0  0  0  0  0  2  0  0  0  0  0  0
  -25.9350  -29.3390   20.6650 C   0  0  0  0  0  0  0  0  0  0  0  0
  -27.1390  -28.5780   20.6510 C   0  0  0  0  0  3  0  0  0  0  0  0
  -26.0010  -26.8330   19.4070 C   0  0  0  0  0  3  0  0  0  0  0  0
  -24.8150  -27.5860   19.4200 C   0  0  0  0  0  3  0  0  0  0  0  0
  -23.5260  -29.6780   20.1070 C   0  0  0  0  0  2  0  0  0  0  0  0
  -24.5370  -30.9240   22.0620 N   0  0  0  0  0  0  0  0  0  0  0  0
  -23.3520  -31.9530   23.7030 O   0  0  0  0  0  0  0  0  0  0  0  0
  -22.6450  -29.2650   22.4340 C   0  0  0  0  0  0  0  0  0  0  0  0
  -21.3260  -29.0500   22.2870 N   0  0  0  0  0  0  0  0  0  0  0  0
  -23.3330  -28.6430   23.2470 O   0  0  0  0  0  0  0  0  0  0  0  0
  -20.8290  -29.6060   21.6050 H   0  0  0  0  0  0  0  0  0  0  0  0
  -17.9760  -27.7610   22.7330 C   0  0  0  0  0  0  0  0  0  0  0  0
  -20.5240  -28.0810   23.0360 C   0  0  0  0  0  3  0  0  0  0  0  0
  -20.6690  -26.6610   22.4410 C   0  0  0  0  0  2  0  0  0  0  0  0
  -19.5870  -26.3260   21.4100 C   0  0  0  0  0  2  0  0  0  0  0  0
  -18.1950  -26.4270   22.0410 C   0  0  0  0  0  2  0  0  0  0  0  0
  -19.0700  -28.5450   23.1870 C   0  0  0  0  0  0  0  0  0  0  0  0
  -18.8110  -29.7930   23.7940 C   0  0  0  0  0  3  0  0  0  0  0  0
  -17.4920  -30.2570   23.9530 C   0  0  0  0  0  3  0  0  0  0  0  0
  -16.4140  -29.4710   23.5140 C   0  0  0  0  0  3  0  0  0  0  0  0
  -16.6560  -28.2240   22.9100 C   0  0  0  0  0  3  0  0  0  0  0  0
  -25.7090  -32.3630   23.8110 C   0  0  0  0  0  3  0  0  0  0  0  0
  -26.2240  -31.5940   25.0890 C   0  0  1  0  0  0  0  0  0  0  0  0
  -25.1200  -31.3260   26.1410 C   0  0  0  0  0  1  0  0  0  0  0  0
  -26.8380  -30.2310   24.6960 C   0  0  0  0  0  1  0  0  0  0  0  0
  -27.3510  -32.4050   25.7720 C   0  0  0  0  0  1  0  0  0  0  0  0
  -25.3730  -33.7540   24.1470 N   0  0  0  0  0  0  0  0  0  0  0  0
  -25.6720  -34.8150   23.3850 C   0  0  0  0  0  0  0  0  0  0  0  0
  -26.3330  -34.7260   22.3480 O   0  0  0  0  0  0  0  0  0  0  0  0
  -24.7860  -33.8940   24.9560 H   0  0  0  0  0  0  0  0  0  0  0  0
  -23.8910  -36.5570   23.0620 C   0  0  0  0  0  1  0  0  0  0  0  0
  -25.1610  -36.1920   23.8480 C   0  0  0  0  0  3  0  0  0  0  0  0
  -27.2850  -37.1400   24.6300 C   0  0  0  0  0  1  0  0  0  0  0  0
  -26.1630  -37.2720   23.7050 N   0  0  0  0  0  0  0  0  0  0  0  0
  -25.7370  -38.1830   23.8500 H   0  0  0  0  0  0  0  0  0  0  0  0
  2  3  2  0
  2  5  1  0
  3  6  1  0
  4  7  1  0
  5  1  1  0
  5  4  2  0
  6 17  1  0
  6  7  2  0
  7  8  1  0
  9 17  1  0
 10 15  1  0
 11 12  1  0
 11 10  1  0
 13 12  1  0
 13 22  1  0
 13 14  1  0
 15  9  1  0
 15 14  1  0
 16  9  2  0
 17 18  1  0
 19 20  2  0
 20 39  1  0
 21 20  1  0
 21 24  1  0
 22 23  1  0
 22 19  1  0
 23 21  2  0
 24 25  1  0
 25 26  2  0
 27 30  1  0
 27 26  1  0
 28 27  2  0
 29 28  1  0
 29 24  2  0
 30 31  1  0
 31 32  1  0
 32 33  2  0
 34 33  1  0
 34 38  1  0
 35 34  2  0
 36 31  2  0
 36 35  1  0
 37 36  1  0
 39 40  1  0
 40 43  1  0
 40 42  1  0
 41 39  2  0
 44 19  1  0
 44 45  1  0
 46 44  1  0
 47 50  1  0
 47  1  1  0
 47 48  1  0
 49 47  1  0
 51 52  1  0
 51 50  2  0
 53 64  2  0
 54 52  1  0
 54 59  1  0
 55 63  1  0
 55 65  1  0
 56 62  1  0
 56 58  1  0
 57 63  1  0
 58 57  1  0
 59 58  2  0
 60 61  1  0
 60 54  2  0
 61 56  2  0
 62 55  1  0
 63 53  1  0
 65 67  2  0
 66 65  1  0
 68 66  1  0
 69 78  2  0
 69 74  1  0
 70 66  1  0
 70 74  1  0
 71 70  1  0
 72 73  1  0
 72 71  1  0
 73 69  1  0
 74 75  2  0
 75 76  1  0
 77 76  2  0
 78 77  1  0
 79 53  1  0
 79 84  1  0
 79 80  1  0
 80 83  1  1
 80 81  1  0
 82 80  1  0
 84 87  1  0
 85 89  1  0
 85 84  1  0
 86 85  2  0
 89 88  1  0
 91 89  1  0
 91 92  1  0
 91 90  1  0
M  ISO  4   9 100  17 100  51 101  52 101
M  END
>  <TORSDO>  (21) 
F 20

>  <SCORE>  (21) 
-13.340

>  <name>  (21) 
21

>  <ligand_id>  (21) 
21

>  <original_smiles>  (21) 
[H]c1c([H])c([H])c2c(c1[H])C([H])([H])C([H])([H])C([H])([H])C2([H])N([H])C(=O)C1([H])N(C(=O)C([H])(N([H])C(=O)C([H])(N([H])C([H])([H])[H])C([H])([H])[H])C(C([H])([H])[H])(C([H])([H])[H])C([H])([H])[H])C([H])([H])c2c([H])c(OC([H])([H])C([H])([H])[N+]([H])([H])C([H])([H])c3c([H])c([H])c(N([H])C(=O)N4C([H])([H])C([H])([H])C([H])([H])C([H])(n5nc(-c6c([H])c([H])c(Oc7c([H])c([H])c(F)c([H])c7F)c([H])c6[H])c(C(=O)N([H])[H])c5N([H])[H])C4([H])[H])c(F)c3[H])c([H])c([H])c2C1([H])[H]

>  <smiles>  (21) 
[H]c1c([H])c([H])c2c(c1[H])C([H])([H])C([H])([H])C([H])([H])C2([H])N([H])C(=O)C1([H])N(C(=O)C([H])(N([H])C(=O)C([H])(N([H])C([H])([H])[H])C([H])([H])[H])C(C([H])([H])[H])(C([H])([H])[H])C([H])([H])[H])C([H])([H])c2c([H])c(OC([H])([H])C([H])([H])[N+]([H])([H])C([H])([H])c3c([H])c([H])c(N([H])C(=O)N4C([H])([H])C([H])([H])C([H])([H])C([H])(n5nc(-c6c([H])c([H])c(Oc7c([H])c([H])c(F)c([H])c7F)c([H])c6[H])c(C(=O)N([H])[H])c5N([H])[H])C4([H])[H])c(F)c3[H])c([H])c([H])c2C1([H])[H]

$$$$
22:0:0
     RDKit          3D

 99109  0  0  1  0  0  0  0  0999 V2000
  -29.4140  -24.0190   24.3550 C   0  0  0  0  0  3  0  0  0  0  0  0
  -30.0360  -22.9520   25.0310 C   0  0  0  0  0  3  0  0  0  0  0  0
  -29.0790  -23.8980   22.9900 C   0  0  0  0  0  3  0  0  0  0  0  0
  -30.3240  -21.7580   24.3410 C   0  0  0  0  0  3  0  0  0  0  0  0
  -29.3980  -21.2970   20.3040 C   0  0  0  0  0  3  0  0  0  0  0  0
  -29.3660  -22.7040   22.2880 C   0  0  0  0  0  0  0  0  0  0  0  0
  -29.9910  -21.6370   22.9800 C   0  0  0  0  0  3  0  0  0  0  0  0
  -29.0650  -22.5350   20.9130 C   0  0  0  0  0  0  0  0  0  0  0  0
  -30.0160  -20.2320   21.0230 C   0  0  0  0  0  0  0  0  0  0  0  0
  -31.1760  -17.8910   20.8390 C   0  0  0  0  0  0  0  0  0  0  0  0
  -29.2940  -18.0900   20.0370 C   0  0  0  0  0  2  0  0  0  0  0  0
  -30.4020  -17.0290   19.8130 C   0  0  0  0  0  3  0  0  0  0  0  0
  -30.2790  -20.4920   22.3320 N   0  0  0  0  0  0  0  0  0  0  0  0
  -30.3820  -18.9710   20.4450 N   0  0  0  0  0  0  0  0  0  0  0  0
  -31.9950  -17.7180   21.7230 O   0  0  0  0  0  0  0  0  0  0  0  0
  -30.7410  -19.7580   22.8750 H   0  0  0  0  0  0  0  0  0  0  0  0
  -30.8150  -14.5850   19.9320 C   0  0  0  0  0  0  0  0  0  0  0  0
  -30.4910  -12.3690   18.9180 C   0  0  0  0  0  2  0  0  0  0  0  0
  -29.4910  -12.5170   17.7520 C   0  0  0  0  0  2  0  0  0  0  0  0
  -28.0410  -12.3840   18.2590 C   0  0  0  0  0  2  0  0  0  0  0  0
  -27.7540  -13.2700   19.5000 C   0  0  0  0  0  3  0  0  0  0  0  0
  -28.8660  -13.1160   20.5660 C   0  0  0  0  0  2  0  0  0  0  0  0
  -30.1580  -13.3950   19.9180 N   0  0  0  0  0  0  0  0  0  0  0  0
  -31.9400  -14.7370   19.4530 O   0  0  0  0  0  0  0  0  0  0  0  0
  -30.0650  -15.6570   20.2520 N   0  0  0  0  0  0  0  0  0  0  0  0
  -29.1490  -15.4870   20.6370 H   0  0  0  0  0  0  0  0  0  0  0  0
  -25.4240  -13.8960   20.3940 C   0  0  0  0  0  0  0  0  0  0  0  0
  -24.3650  -13.1300   20.8020 C   0  0  0  0  0  0  0  0  0  0  0  0
  -24.7910  -11.7710   20.6810 C   0  0  0  0  0  0  0  0  0  0  0  0
  -26.4310  -13.0030   20.0570 N   0  0  0  0  0  0  0  0  0  0  0  0
  -26.0570  -11.7190   20.2870 N   0  0  0  0  0  0  0  0  0  0  0  0
  -24.0490  -10.5170   20.8620 C   0  0  0  0  0  0  0  0  0  0  0  0
  -24.4470   -9.5550   21.8170 C   0  0  0  0  0  3  0  0  0  0  0  0
  -23.7060   -8.3650   21.9850 C   0  0  0  0  0  3  0  0  0  0  0  0
  -22.5530   -8.1300   21.1980 C   0  0  0  0  0  0  0  0  0  0  0  0
  -22.1760   -9.0800   20.2330 C   0  0  0  0  0  3  0  0  0  0  0  0
  -22.9170  -10.2610   20.0640 C   0  0  0  0  0  3  0  0  0  0  0  0
  -21.7880   -6.9910   21.2740 O   0  0  0  0  0  0  0  0  0  0  0  0
  -21.5970   -6.3300   22.4610 C   0  0  0  0  0  0  0  0  0  0  0  0
  -21.0010   -6.9580   23.5760 C   0  0  0  0  0  3  0  0  0  0  0  0
  -20.7610   -6.2210   24.7530 C   0  0  0  0  0  3  0  0  0  0  0  0
  -21.1070   -4.8590   24.8150 C   0  0  0  0  0  0  0  0  0  0  0  0
  -21.6950   -4.2310   23.7030 C   0  0  0  0  0  3  0  0  0  0  0  0
  -21.9370   -4.9640   22.5280 C   0  0  0  0  0  0  0  0  0  0  0  0
  -22.4850   -4.3490   21.4530 F   0  0  0  0  0  0  0  0  0  0  0  0
  -20.8690   -4.1480   25.9420 F   0  0  0  0  0  0  0  0  0  0  0  0
  -23.0010  -13.6230   21.1850 C   0  0  0  0  0  0  0  0  0  0  0  0
  -22.3210  -12.9130   22.0790 N   0  0  0  0  0  0  0  0  0  0  0  0
  -22.5480  -14.6730   20.7290 O   0  0  0  0  0  0  0  0  0  0  0  0
  -22.7010  -12.0630   22.4680 H   0  0  0  0  0  0  0  0  0  0  0  0
  -21.4090  -13.2240   22.3800 H   0  0  0  0  0  0  0  0  0  0  0  0
  -25.6100  -15.2680   20.2610 N   0  0  0  0  0  0  0  0  0  0  0  0
  -24.8560  -15.9280   20.4220 H   0  0  0  0  0  0  0  0  0  0  0  0
  -26.4190  -15.6950   19.8290 H   0  0  0  0  0  0  0  0  0  0  0  0
  -28.4480  -23.5660   20.1660 N   0  0  0  0  0  0  0  0  0  0  0  0
  -27.7920  -24.0990   20.7280 H   0  0  0  0  0  0  0  0  0  0  0  0
  -29.3960  -24.4610   19.4970 C   0  0  0  0  0  2  0  0  0  0  0  0
  -28.7300  -25.6670   18.7810 C   0  0  0  0  0  2  0  0  0  0  0  0
  -28.4830  -26.7710   19.6710 O   0  0  0  0  0  0  0  0  0  0  0  0
  -24.5560  -31.5980   23.1240 C   0  0  0  0  0  0  0  0  0  0  0  0
  -27.2660  -27.4350   19.6970 C   0  0  0  0  0  0  0  0  0  0  0  0
  -23.3530  -30.2560   21.4300 C   0  0  0  0  0  3  0  0  0  0  0  0
  -24.8160  -28.8630   19.8740 C   0  0  0  0  0  0  0  0  0  0  0  0
  -25.8610  -30.7120   21.1910 C   0  0  0  0  0  2  0  0  0  0  0  0
  -25.9730  -29.3860   20.4630 C   0  0  0  0  0  0  0  0  0  0  0  0
  -27.1940  -28.6780   20.3750 C   0  0  0  0  0  3  0  0  0  0  0  0
  -26.0780  -26.9220   19.1200 C   0  0  0  0  0  3  0  0  0  0  0  0
  -24.8640  -27.6300   19.2040 C   0  0  0  0  0  3  0  0  0  0  0  0
  -23.5450  -29.6720   20.0060 C   0  0  0  0  0  2  0  0  0  0  0  0
  -24.6100  -30.8680   21.9730 N   0  0  0  0  0  0  0  0  0  0  0  0
  -23.4810  -31.7980   23.7070 O   0  0  0  0  0  0  0  0  0  0  0  0
  -22.7660  -29.1550   22.3420 C   0  0  0  0  0  0  0  0  0  0  0  0
  -21.4590  -28.8860   22.1920 N   0  0  0  0  0  0  0  0  0  0  0  0
  -23.4840  -28.5460   23.1400 O   0  0  0  0  0  0  0  0  0  0  0  0
  -20.9380  -29.4330   21.5200 H   0  0  0  0  0  0  0  0  0  0  0  0
  -18.1870  -27.3960   22.5480 C   0  0  0  0  0  0  0  0  0  0  0  0
  -20.7020  -27.8650   22.9140 C   0  0  0  0  0  3  0  0  0  0  0  0
  -20.9470  -26.4610   22.3130 C   0  0  0  0  0  2  0  0  0  0  0  0
  -19.9110  -26.0700   21.2550 C   0  0  0  0  0  2  0  0  0  0  0  0
  -18.5020  -26.0820   21.8530 C   0  0  0  0  0  2  0  0  0  0  0  0
  -19.2210  -28.2400   23.0320 C   0  0  0  0  0  0  0  0  0  0  0  0
  -18.8750  -29.4680   23.6390 C   0  0  0  0  0  3  0  0  0  0  0  0
  -17.5270  -29.8530   23.7680 C   0  0  0  0  0  3  0  0  0  0  0  0
  -16.5070  -29.0050   23.3010 C   0  0  0  0  0  3  0  0  0  0  0  0
  -16.8380  -27.7780   22.6970 C   0  0  0  0  0  3  0  0  0  0  0  0
  -25.8370  -32.2370   23.7460 C   0  0  0  0  0  3  0  0  0  0  0  0
  -26.3680  -31.4570   25.0110 C   0  0  1  0  0  0  0  0  0  0  0  0
  -25.2800  -31.1840   26.0760 C   0  0  0  0  0  1  0  0  0  0  0  0
  -26.9770  -30.0970   24.5990 C   0  0  0  0  0  1  0  0  0  0  0  0
  -27.5030  -32.2640   25.6860 C   0  0  0  0  0  1  0  0  0  0  0  0
  -25.5130  -33.6270   24.0930 N   0  0  0  0  0  0  0  0  0  0  0  0
  -25.8390  -34.6920   23.3470 C   0  0  0  0  0  0  0  0  0  0  0  0
  -26.5140  -34.6080   22.3180 O   0  0  0  0  0  0  0  0  0  0  0  0
  -24.9150  -33.7660   24.8950 H   0  0  0  0  0  0  0  0  0  0  0  0
  -24.1010  -36.4740   22.9950 C   0  0  0  0  0  1  0  0  0  0  0  0
  -25.3350  -36.0700   23.8180 C   0  0  0  0  0  3  0  0  0  0  0  0
  -27.4440  -36.9650   24.6980 C   0  0  0  0  0  1  0  0  0  0  0  0
  -26.3610  -37.1310   23.7340 N   0  0  0  0  0  0  0  0  0  0  0  0
  -25.9460  -38.0480   23.8790 H   0  0  0  0  0  0  0  0  0  0  0  0
  1  2  1  0
  3  1  2  0
  4  2  2  0
  5  8  1  0
  5  9  2  0
  6  7  1  0
  6  3  1  0
  7  4  1  0
  8  6  2  0
  9 13  1  0
 10 15  2  0
 11 14  1  0
 12 11  1  0
 12 25  1  0
 12 10  1  0
 13 16  1  0
 13  7  1  0
 14 10  1  0
 14  9  1  0
 17 25  1  0
 18 23  1  0
 19 20  1  0
 19 18  1  0
 21 20  1  0
 21 30  1  0
 21 22  1  0
 23 17  1  0
 23 22  1  0
 24 17  2  0
 25 26  1  0
 27 28  2  0
 28 47  1  0
 29 28  1  0
 29 32  1  0
 30 31  1  0
 30 27  1  0
 31 29  2  0
 32 33  1  0
 33 34  2  0
 35 38  1  0
 35 34  1  0
 36 35  2  0
 37 36  1  0
 37 32  2  0
 38 39  1  0
 39 44  2  0
 39 40  1  0
 40 41  2  0
 41 42  1  0
 42 46  1  0
 43 42  2  0
 44 43  1  0
 45 44  1  0
 47 48  1  0
 48 51  1  0
 48 50  1  0
 49 47  2  0
 52 27  1  0
 52 53  1  0
 54 52  1  0
 55 56  1  0
 55  8  1  0
 57 55  1  0
 58 57  1  0
 58 59  1  0
 59 61  1  0
 60 71  2  0
 61 66  1  0
 62 70  1  0
 62 72  1  0
 63 69  1  0
 63 65  1  0
 64 70  1  0
 65 64  1  0
 66 65  2  0
 67 68  1  0
 67 61  2  0
 68 63  2  0
 69 62  1  0
 70 60  1  0
 72 74  2  0
 73 72  1  0
 75 73  1  0
 76 85  2  0
 76 81  1  0
 77 73  1  0
 77 81  1  0
 78 77  1  0
 79 80  1  0
 79 78  1  0
 80 76  1  0
 81 82  2  0
 82 83  1  0
 84 83  2  0
 85 84  1  0
 86 60  1  0
 86 91  1  0
 86 87  1  0
 87 90  1  1
 87 88  1  0
 89 87  1  0
 91 94  1  0
 92 96  1  0
 92 91  1  0
 93 92  2  0
 96 95  1  0
 98 96  1  0
 98 99  1  0
 98 97  1  0
M  ISO  4  17 100  25 100  58 101  59 101
M  END
>  <TORSDO>  (22) 
F 19

>  <SCORE>  (22) 
-12.691

>  <name>  (22) 
22

>  <ligand_id>  (22) 
22

>  <original_smiles>  (22) 
[H]c1c([H])c([H])c2c(c1[H])C([H])([H])C([H])([H])C([H])([H])C2([H])N([H])C(=O)C1([H])N(C(=O)C([H])(N([H])C(=O)C([H])(N([H])C([H])([H])[H])C([H])([H])[H])C(C([H])([H])[H])(C([H])([H])[H])C([H])([H])[H])C([H])([H])c2c([H])c(OC([H])([H])C([H])([H])N([H])c3c([H])c(N4C(=O)C([H])(N([H])C(=O)N5C([H])([H])C([H])([H])C([H])([H])C([H])(n6nc(-c7c([H])c([H])c(Oc8c([H])c([H])c(F)c([H])c8F)c([H])c7[H])c(C(=O)N([H])[H])c6N([H])[H])C5([H])[H])C4([H])[H])[n+]([H])c4c([H])c([H])c([H])c([H])c34)c([H])c([H])c2C1([H])[H]

>  <smiles>  (22) 
[H]c1c([H])c([H])c2c(c1[H])C([H])([H])C([H])([H])C([H])([H])C2([H])N([H])C(=O)C1([H])N(C(=O)C([H])(N([H])C(=O)C([H])(N([H])C([H])([H])[H])C([H])([H])[H])C(C([H])([H])[H])(C([H])([H])[H])C([H])([H])[H])C([H])([H])c2c([H])c(OC([H])([H])C([H])([H])N([H])c3c([H])c(N4C(=O)C([H])(N([H])C(=O)N5C([H])([H])C([H])([H])C([H])([H])C([H])(n6nc(-c7c([H])c([H])c(Oc8c([H])c([H])c(F)c([H])c8F)c([H])c7[H])c(C(=O)N([H])[H])c6N([H])[H])C5([H])[H])C4([H])[H])[n+]([H])c4c([H])c([H])c([H])c([H])c34)c([H])c([H])c2C1([H])[H]

$$$$
23:0:0
     RDKit          3D

 96105  0  0  1  0  0  0  0  0999 V2000
  -30.9300  -19.3150   19.8760 C   0  0  0  0  0  3  0  0  0  0  0  0
  -30.8960  -17.9170   20.0230 C   0  0  0  0  0  3  0  0  0  0  0  0
  -30.6900  -19.6000   22.2910 C   0  0  0  0  0  0  0  0  0  0  0  0
  -30.6360  -18.1770   22.4350 C   0  0  0  0  0  0  0  0  0  0  0  0
  -30.8430  -20.1730   20.9940 C   0  0  0  0  0  0  0  0  0  0  0  0
  -30.7680  -17.3300   21.3020 C   0  0  0  0  0  0  0  0  0  0  0  0
  -30.5760  -20.5050   23.5230 C   0  0  0  0  0  2  0  0  0  0  0  0
  -30.4900  -17.5320   23.8190 C   0  0  0  0  0  2  0  0  0  0  0  0
  -30.8270  -19.7960   24.8560 C   0  0  0  0  0  2  0  0  0  0  0  0
  -30.0460  -18.4900   24.9280 C   0  0  0  0  0  2  0  0  0  0  0  0
  -31.4500  -14.9210   20.9640 C   0  0  0  0  0  0  0  0  0  0  0  0
  -31.3690  -12.5990   20.1260 C   0  0  0  0  0  2  0  0  0  0  0  0
  -30.5680  -12.5660   18.8070 C   0  0  0  0  0  2  0  0  0  0  0  0
  -29.0590  -12.4250   19.0850 C   0  0  0  0  0  2  0  0  0  0  0  0
  -28.5510  -13.4360   20.1470 C   0  0  0  0  0  3  0  0  0  0  0  0
  -29.4670  -13.4210   21.3900 C   0  0  0  0  0  2  0  0  0  0  0  0
  -30.8480  -13.7000   20.9490 N   0  0  0  0  0  0  0  0  0  0  0  0
  -32.5840  -15.1130   20.5100 O   0  0  0  0  0  0  0  0  0  0  0  0
  -30.6940  -15.9100   21.4820 N   0  0  0  0  0  0  0  0  0  0  0  0
  -29.8820  -15.5810   21.9770 H   0  0  0  0  0  0  0  0  0  0  0  0
  -26.1120  -14.0860   20.6590 C   0  0  0  0  0  0  0  0  0  0  0  0
  -25.0010  -13.3290   20.9220 C   0  0  0  0  0  0  0  0  0  0  0  0
  -25.4360  -11.9690   20.9040 C   0  0  0  0  0  0  0  0  0  0  0  0
  -27.1550  -13.1850   20.5000 N   0  0  0  0  0  0  0  0  0  0  0  0
  -26.7460  -11.9070   20.7030 N   0  0  0  0  0  0  0  0  0  0  0  0
  -24.6720  -10.7190   21.0100 C   0  0  0  0  0  0  0  0  0  0  0  0
  -25.0390   -9.7050   21.9210 C   0  0  0  0  0  3  0  0  0  0  0  0
  -24.2790   -8.5190   22.0170 C   0  0  0  0  0  3  0  0  0  0  0  0
  -23.1380   -8.3410   21.2000 C   0  0  0  0  0  0  0  0  0  0  0  0
  -22.7900   -9.3430   20.2760 C   0  0  0  0  0  3  0  0  0  0  0  0
  -23.5510  -10.5200   20.1790 C   0  0  0  0  0  3  0  0  0  0  0  0
  -22.3550   -7.2120   21.2040 O   0  0  0  0  0  0  0  0  0  0  0  0
  -22.2190   -6.4340   22.3260 C   0  0  0  0  0  0  0  0  0  0  0  0
  -21.7280   -6.9590   23.5420 C   0  0  0  0  0  3  0  0  0  0  0  0
  -21.5400   -6.1110   24.6510 C   0  0  0  0  0  3  0  0  0  0  0  0
  -21.8330   -4.7370   24.5440 C   0  0  0  0  0  0  0  0  0  0  0  0
  -22.3160   -4.2120   23.3340 C   0  0  0  0  0  3  0  0  0  0  0  0
  -22.5060   -5.0580   22.2270 C   0  0  0  0  0  0  0  0  0  0  0  0
  -22.9520   -4.5430   21.0560 F   0  0  0  0  0  0  0  0  0  0  0  0
  -21.6440   -3.9200   25.6070 F   0  0  0  0  0  0  0  0  0  0  0  0
  -23.5950  -13.8310   21.0890 C   0  0  0  0  0  0  0  0  0  0  0  0
  -22.7940  -13.1500   21.9000 N   0  0  0  0  0  0  0  0  0  0  0  0
  -23.2150  -14.8620   20.5360 O   0  0  0  0  0  0  0  0  0  0  0  0
  -23.1120  -12.3150   22.3700 H   0  0  0  0  0  0  0  0  0  0  0  0
  -21.8480  -13.4680   22.0560 H   0  0  0  0  0  0  0  0  0  0  0  0
  -26.3190  -15.4550   20.5230 N   0  0  0  0  0  0  0  0  0  0  0  0
  -25.5590  -16.1250   20.5800 H   0  0  0  0  0  0  0  0  0  0  0  0
  -27.2080  -15.8840   20.2940 H   0  0  0  0  0  0  0  0  0  0  0  0
  -30.9950  -21.6860   20.7590 C   0  0  0  0  0  2  0  0  0  0  0  0
  -29.7240  -22.4210   20.5490 N   0  0  0  0  0  4  0  0  0  0  0  0
  -28.9980  -21.9860   21.0950 H   0  0  0  0  0  0  0  0  0  0  0  0
  -29.4740  -22.3240   19.5790 H   0  0  0  0  0  0  0  0  0  0  0  0
  -29.8150  -23.8630   20.9090 C   0  0  0  0  0  2  0  0  0  0  0  0
  -28.7660  -24.7730   20.2230 C   0  0  0  0  0  2  0  0  0  0  0  0
  -28.8390  -26.2400   20.7150 C   0  0  0  0  0  2  0  0  0  0  0  0
  -28.4820  -27.1600   19.6850 O   0  0  0  0  0  0  0  0  0  0  0  0
  -24.4880  -31.9450   23.1810 C   0  0  0  0  0  0  0  0  0  0  0  0
  -27.2830  -27.8130   19.8280 C   0  0  0  0  0  0  0  0  0  0  0  0
  -23.3290  -30.6170   21.4430 C   0  0  0  0  0  3  0  0  0  0  0  0
  -24.8370  -29.2160   19.9350 C   0  0  0  0  0  0  0  0  0  0  0  0
  -25.8410  -31.0690   21.2820 C   0  0  0  0  0  2  0  0  0  0  0  0
  -25.9720  -29.7430   20.5620 C   0  0  0  0  0  0  0  0  0  0  0  0
  -27.2020  -29.0470   20.5110 C   0  0  0  0  0  3  0  0  0  0  0  0
  -26.1360  -27.2900   19.2030 C   0  0  0  0  0  3  0  0  0  0  0  0
  -24.9100  -27.9840   19.2570 C   0  0  0  0  0  3  0  0  0  0  0  0
  -23.5640  -30.0290   20.0270 C   0  0  0  0  0  2  0  0  0  0  0  0
  -24.5700  -31.2220   22.0290 N   0  0  0  0  0  0  0  0  0  0  0  0
  -23.3990  -32.1490   23.7350 O   0  0  0  0  0  0  0  0  0  0  0  0
  -22.7070  -29.5170   22.3320 C   0  0  0  0  0  0  0  0  0  0  0  0
  -21.3790  -29.3500   22.2350 N   0  0  0  0  0  0  0  0  0  0  0  0
  -23.4150  -28.8190   23.0640 O   0  0  0  0  0  0  0  0  0  0  0  0
  -20.8700  -29.9650   21.6150 H   0  0  0  0  0  0  0  0  0  0  0  0
  -18.0120  -28.1460   22.7610 C   0  0  0  0  0  0  0  0  0  0  0  0
  -20.5830  -28.3510   22.9440 C   0  0  0  0  0  3  0  0  0  0  0  0
  -20.6400  -26.9810   22.2280 C   0  0  0  0  0  2  0  0  0  0  0  0
  -19.4920  -26.7710   21.2350 C   0  0  0  0  0  2  0  0  0  0  0  0
  -18.1400  -26.8670   21.9490 C   0  0  0  0  0  2  0  0  0  0  0  0
  -19.1590  -28.8500   23.2130 C   0  0  0  0  0  0  0  0  0  0  0  0
  -18.9870  -30.0520   23.9340 C   0  0  0  0  0  3  0  0  0  0  0  0
  -17.6980  -30.5500   24.2050 C   0  0  0  0  0  3  0  0  0  0  0  0
  -16.5650  -29.8410   23.7670 C   0  0  0  0  0  3  0  0  0  0  0  0
  -16.7230  -28.6400   23.0530 C   0  0  0  0  0  3  0  0  0  0  0  0
  -25.7540  -32.5690   23.8470 C   0  0  0  0  0  3  0  0  0  0  0  0
  -25.4190  -33.9490   24.2260 N   0  0  0  0  0  0  0  0  0  0  0  0
  -25.7450  -35.0340   23.5100 C   0  0  0  0  0  0  0  0  0  0  0  0
  -26.4320  -34.9790   22.4860 O   0  0  0  0  0  0  0  0  0  0  0  0
  -24.8060  -34.0640   25.0200 H   0  0  0  0  0  0  0  0  0  0  0  0
  -23.9870  -36.8060   23.1970 C   0  0  0  0  0  1  0  0  0  0  0  0
  -25.2260  -36.3970   24.0090 C   0  0  0  0  0  3  0  0  0  0  0  0
  -27.3380  -37.2860   24.8930 C   0  0  0  0  0  1  0  0  0  0  0  0
  -26.2410  -37.4720   23.9480 N   0  0  0  0  0  0  0  0  0  0  0  0
  -25.8150  -38.3780   24.1290 H   0  0  0  0  0  0  0  0  0  0  0  0
  -26.2670  -31.7550   25.0980 C   0  0  1  0  0  0  0  0  0  0  0  0
  -25.1660  -31.4630   26.1440 C   0  0  0  0  0  1  0  0  0  0  0  0
  -26.8660  -30.3990   24.6570 C   0  0  0  0  0  1  0  0  0  0  0  0
  -27.4040  -32.5330   25.8010 C   0  0  0  0  0  1  0  0  0  0  0  0
  1  2  2  0
  1  5  1  0
  2  6  1  0
  3  4  1  0
  3  7  1  0
  4  8  1  0
  5  3  2  0
  6 19  1  0
  6  4  2  0
  7  9  1  0
  8 10  1  0
  9 10  1  0
 11 19  1  0
 12 17  1  0
 13 14  1  0
 13 12  1  0
 15 14  1  0
 15 24  1  0
 15 16  1  0
 17 11  1  0
 17 16  1  0
 18 11  2  0
 19 20  1  0
 21 22  2  0
 22 41  1  0
 23 22  1  0
 23 26  1  0
 24 21  1  0
 24 25  1  0
 25 23  2  0
 26 27  1  0
 27 28  2  0
 29 32  1  0
 29 28  1  0
 30 29  2  0
 31 30  1  0
 31 26  2  0
 32 33  1  0
 33 34  1  0
 34 35  2  0
 36 35  1  0
 36 40  1  0
 37 36  2  0
 38 33  2  0
 38 37  1  0
 39 38  1  0
 41 42  1  0
 42 45  1  0
 42 44  1  0
 43 41  2  0
 46 47  1  0
 46 21  1  0
 48 46  1  0
 49  5  1  0
 50 49  1  0
 50 53  1  0
 50 51  1  0
 52 50  1  0
 54 55  1  0
 54 53  1  0
 56 58  1  0
 56 55  1  0
 57 68  2  0
 58 63  1  0
 59 67  1  0
 59 69  1  0
 60 66  1  0
 60 62  1  0
 61 67  1  0
 62 61  1  0
 63 62  2  0
 64 65  1  0
 64 58  2  0
 65 60  2  0
 66 59  1  0
 67 57  1  0
 69 71  2  0
 70 69  1  0
 72 70  1  0
 73 82  2  0
 73 78  1  0
 74 70  1  0
 74 78  1  0
 75 74  1  0
 76 77  1  0
 76 75  1  0
 77 73  1  0
 78 79  2  0
 79 80  1  0
 81 80  2  0
 82 81  1  0
 83 57  1  0
 83 84  1  0
 83 93  1  0
 84 87  1  0
 85 89  1  0
 85 84  1  0
 86 85  2  0
 89 88  1  0
 91 89  1  0
 91 92  1  0
 91 90  1  0
 93 96  1  1
 93 94  1  0
 95 93  1  0
M  ISO  4  11 100  19 100  55 101  56 101
M  END
>  <TORSDO>  (23) 
F 21

>  <SCORE>  (23) 
-8.888

>  <name>  (23) 
23

>  <ligand_id>  (23) 
23

>  <original_smiles>  (23) 
[H]c1c([H])c([H])c2c(c1[H])C([H])([H])C([H])([H])C([H])([H])C2([H])N([H])C(=O)C1([H])N(C(=O)C([H])(N([H])C(=O)C([H])(N([H])C([H])([H])[H])C([H])([H])[H])C(C([H])([H])[H])(C([H])([H])[H])C([H])([H])[H])C([H])([H])c2c([H])c(OC([H])([H])C([H])([H])C([H])([H])[N+]([H])([H])C([H])([H])c3c([H])c([H])c(N([H])C(=O)N4C([H])([H])C([H])([H])C([H])([H])C([H])(n5nc(-c6c([H])c([H])c(Oc7c([H])c([H])c(F)c([H])c7F)c([H])c6[H])c(C(=O)N([H])[H])c5N([H])[H])C4([H])[H])c4c3C([H])([H])C([H])([H])C([H])([H])C4([H])[H])c([H])c([H])c2C1([H])[H]

>  <smiles>  (23) 
[H]c1c([H])c([H])c2c(c1[H])C([H])([H])C([H])([H])C([H])([H])C2([H])N([H])C(=O)C1([H])N(C(=O)C([H])(N([H])C(=O)C([H])(N([H])C([H])([H])[H])C([H])([H])[H])C(C([H])([H])[H])(C([H])([H])[H])C([H])([H])[H])C([H])([H])c2c([H])c(OC([H])([H])C([H])([H])C([H])([H])[N+]([H])([H])C([H])([H])c3c([H])c([H])c(N([H])C(=O)N4C([H])([H])C([H])([H])C([H])([H])C([H])(n5nc(-c6c([H])c([H])c(Oc7c([H])c([H])c(F)c([H])c7F)c([H])c6[H])c(C(=O)N([H])[H])c5N([H])[H])C4([H])[H])c4c3C([H])([H])C([H])([H])C([H])([H])C4([H])[H])c([H])c([H])c2C1([H])[H]

$$$$
24:0:0
     RDKit          3D

 94102  0  0  1  0  0  0  0  0999 V2000
  -33.4320  -17.8300   16.2180 C   0  0  0  0  0  3  0  0  0  0  0  0
  -35.2600  -18.0710   18.3220 C   0  0  0  0  0  3  0  0  0  0  0  0
  -34.1550  -16.6910   16.6850 C   0  0  0  0  0  0  0  0  0  0  0  0
  -34.5470  -19.2230   17.8550 C   0  0  0  0  0  0  0  0  0  0  0  0
  -35.0890  -16.7840   17.7560 C   0  0  0  0  0  0  0  0  0  0  0  0
  -33.6080  -19.1210   16.7770 C   0  0  0  0  0  0  0  0  0  0  0  0
  -33.9120  -15.3570   15.9970 C   0  0  0  0  0  1  0  0  0  0  0  0
  -31.6550  -20.5680   15.8520 C   0  0  0  0  0  0  0  0  0  0  0  0
  -30.4300  -21.6500   13.9800 C   0  0  0  0  0  2  0  0  0  0  0  0
  -31.0140  -21.1250   12.6510 C   0  0  0  0  0  2  0  0  0  0  0  0
  -32.2480  -21.9430   12.2230 C   0  0  0  0  0  2  0  0  0  0  0  0
  -33.2580  -22.1600   13.3820 C   0  0  0  0  0  3  0  0  0  0  0  0
  -32.5380  -22.6250   14.6670 C   0  0  0  0  0  2  0  0  0  0  0  0
  -31.5070  -21.6240   14.9900 N   0  0  0  0  0  0  0  0  0  0  0  0
  -30.7060  -19.8310   16.1380 O   0  0  0  0  0  0  0  0  0  0  0  0
  -32.9330  -20.3180   16.2690 N   0  0  0  0  0  0  0  0  0  0  0  0
  -33.5520  -21.0890   16.0760 H   0  0  0  0  0  0  0  0  0  0  0  0
  -35.6890  -22.8150   12.8570 C   0  0  0  0  0  0  0  0  0  0  0  0
  -36.2470  -23.9810   12.4100 C   0  0  0  0  0  0  0  0  0  0  0  0
  -35.1710  -24.9140   12.2900 C   0  0  0  0  0  0  0  0  0  0  0  0
  -34.3330  -23.0710   12.9970 N   0  0  0  0  0  0  0  0  0  0  0  0
  -34.0370  -24.3630   12.7060 N   0  0  0  0  0  0  0  0  0  0  0  0
  -35.1460  -26.2810   11.7540 C   0  0  0  0  0  0  0  0  0  0  0  0
  -35.1910  -27.4080   12.6040 C   0  0  0  0  0  3  0  0  0  0  0  0
  -35.1830  -28.7130   12.0640 C   0  0  0  0  0  3  0  0  0  0  0  0
  -35.1350  -28.9010   10.6620 C   0  0  0  0  0  0  0  0  0  0  0  0
  -35.0680  -27.7740    9.8220 C   0  0  0  0  0  3  0  0  0  0  0  0
  -35.0700  -26.4770   10.3610 C   0  0  0  0  0  3  0  0  0  0  0  0
  -35.0970  -30.1290   10.0490 O   0  0  0  0  0  0  0  0  0  0  0  0
  -36.1370  -31.0180   10.1540 C   0  0  0  0  0  0  0  0  0  0  0  0
  -37.3900  -30.7730    9.5500 C   0  0  0  0  0  3  0  0  0  0  0  0
  -38.4080  -31.7450    9.6230 C   0  0  0  0  0  3  0  0  0  0  0  0
  -38.1750  -32.9620   10.2900 C   0  0  0  0  0  0  0  0  0  0  0  0
  -36.9270  -33.2080   10.8890 C   0  0  0  0  0  3  0  0  0  0  0  0
  -35.9100  -32.2400   10.8190 C   0  0  0  0  0  0  0  0  0  0  0  0
  -34.7020  -32.4920   11.3770 F   0  0  0  0  0  0  0  0  0  0  0  0
  -39.1500  -33.8990   10.3560 F   0  0  0  0  0  0  0  0  0  0  0  0
  -37.6820  -24.1950   12.0200 C   0  0  0  0  0  0  0  0  0  0  0  0
  -38.2520  -25.3400   12.3790 N   0  0  0  0  0  0  0  0  0  0  0  0
  -38.3210  -23.3230   11.4320 O   0  0  0  0  0  0  0  0  0  0  0  0
  -37.7330  -26.0460   12.8810 H   0  0  0  0  0  0  0  0  0  0  0  0
  -39.2220  -25.5110   12.1530 H   0  0  0  0  0  0  0  0  0  0  0  0
  -36.2100  -21.5560   13.1380 N   0  0  0  0  0  0  0  0  0  0  0  0
  -37.1880  -21.3310   12.9920 H   0  0  0  0  0  0  0  0  0  0  0  0
  -35.6540  -20.7500   13.3890 H   0  0  0  0  0  0  0  0  0  0  0  0
  -35.9450  -21.4020   18.0780 C   0  0  0  0  0  1  0  0  0  0  0  0
  -34.8300  -20.3560   20.0850 C   0  0  0  0  0  1  0  0  0  0  0  0
  -34.7410  -20.5730   18.5670 C   0  0  0  0  0  3  0  0  0  0  0  0
  -35.7410  -15.6050   18.2490 N   0  0  0  0  0  0  0  0  0  0  0  0
  -36.1850  -15.0530   17.5190 H   0  0  0  0  0  0  0  0  0  0  0  0
  -36.3630  -15.4260   19.5940 C   0  0  0  0  0  2  0  0  0  0  0  0
  -36.9400  -13.9710   19.9120 C   0  0  0  0  0  2  0  0  0  0  0  0
  -36.6630  -13.3770   21.3600 C   0  0  0  0  0  2  0  0  0  0  0  0
  -37.5020  -12.2870   21.9120 O   0  0  0  0  0  0  0  0  0  0  0  0
  -38.5150   -5.2120   22.9190 C   0  0  0  0  0  0  0  0  0  0  0  0
  -36.9370  -11.0020   21.9710 C   0  0  0  0  0  0  0  0  0  0  0  0
  -36.4280   -5.8820   21.7810 C   0  0  0  0  0  3  0  0  0  0  0  0
  -35.8320   -8.3620   21.9110 C   0  0  0  0  0  0  0  0  0  0  0  0
  -37.5450   -7.4510   23.4770 C   0  0  0  0  0  2  0  0  0  0  0  0
  -36.9540   -8.6270   22.7060 C   0  0  0  0  0  0  0  0  0  0  0  0
  -37.5000   -9.9450   22.7540 C   0  0  0  0  0  3  0  0  0  0  0  0
  -35.7810  -10.6930   21.2130 C   0  0  0  0  0  3  0  0  0  0  0  0
  -35.2380   -9.3970   21.1760 C   0  0  0  0  0  3  0  0  0  0  0  0
  -35.3020   -6.9440   21.8800 C   0  0  0  0  0  2  0  0  0  0  0  0
  -37.5560   -6.1630   22.7290 N   0  0  0  0  0  0  0  0  0  0  0  0
  -38.4540   -4.1150   22.3470 O   0  0  0  0  0  0  0  0  0  0  0  0
  -36.8810   -5.7630   20.3070 C   0  0  0  0  0  0  0  0  0  0  0  0
  -35.9940   -5.2440   19.4420 N   0  0  0  0  0  0  0  0  0  0  0  0
  -37.9980   -6.1550   19.9600 O   0  0  0  0  0  0  0  0  0  0  0  0
  -35.1010   -4.9440   19.8040 H   0  0  0  0  0  0  0  0  0  0  0  0
  -34.3470   -4.3380   16.3520 C   0  0  0  0  0  0  0  0  0  0  0  0
  -36.1970   -5.0750   18.0020 C   0  0  0  0  0  3  0  0  0  0  0  0
  -36.1630   -6.4380   17.2720 C   0  0  0  0  0  2  0  0  0  0  0  0
  -34.7730   -6.8020   16.7430 C   0  0  0  0  0  2  0  0  0  0  0  0
  -34.2750   -5.7370   15.7620 C   0  0  0  0  0  2  0  0  0  0  0  0
  -35.2390   -4.0310   17.4140 C   0  0  0  0  0  0  0  0  0  0  0  0
  -35.2430   -2.7250   17.9490 C   0  0  0  0  0  3  0  0  0  0  0  0
  -34.3820   -1.7360   17.4380 C   0  0  0  0  0  3  0  0  0  0  0  0
  -33.5140   -2.0400   16.3750 C   0  0  0  0  0  3  0  0  0  0  0  0
  -33.4990   -3.3380   15.8330 C   0  0  0  0  0  3  0  0  0  0  0  0
  -39.7210   -5.4510   23.8780 C   0  0  0  0  0  3  0  0  0  0  0  0
  -39.6840   -4.4010   24.9060 N   0  0  0  0  0  0  0  0  0  0  0  0
  -39.5410   -4.6250   26.2190 C   0  0  0  0  0  0  0  0  0  0  0  0
  -39.4940   -5.7590   26.7030 O   0  0  0  0  0  0  0  0  0  0  0  0
  -39.6590   -3.4470   24.5760 H   0  0  0  0  0  0  0  0  0  0  0  0
  -38.0500   -3.3770   27.8150 C   0  0  0  0  0  1  0  0  0  0  0  0
  -39.4320   -3.3960   27.1420 C   0  0  0  0  0  3  0  0  0  0  0  0
  -41.7880   -2.9280   27.6520 C   0  0  0  0  0  1  0  0  0  0  0  0
  -40.4890   -3.3400   28.1750 N   0  0  0  0  0  0  0  0  0  0  0  0
  -40.2310   -2.6990   28.9200 H   0  0  0  0  0  0  0  0  0  0  0  0
  -41.1140   -5.4540   23.1370 C   0  0  1  0  0  0  0  0  0  0  0  0
  -41.5400   -4.0650   22.6090 C   0  0  0  0  0  1  0  0  0  0  0  0
  -41.0950   -6.4310   21.9390 C   0  0  0  0  0  1  0  0  0  0  0  0
  -42.2170   -5.9600   24.0990 C   0  0  0  0  0  1  0  0  0  0  0  0
  1  3  2  0
  1  6  1  0
  3  5  1  0
  4  2  1  0
  4 48  1  0
  5 49  1  0
  5  2  2  0
  6  4  2  0
  7  3  1  0
  8 15  2  0
  8 16  1  0
  9 14  1  0
 10  9  1  0
 11 10  1  0
 12 11  1  0
 12 13  1  0
 13 14  1  0
 14  8  1  0
 16  6  1  0
 17 16  1  0
 18 21  1  0
 18 43  1  0
 19 18  2  0
 20 19  1  0
 20 22  2  0
 21 12  1  0
 22 21  1  0
 23 20  1  0
 23 24  1  0
 25 24  2  0
 26 25  1  0
 27 28  1  0
 27 26  2  0
 28 23  2  0
 29 30  1  0
 29 26  1  0
 30 35  1  0
 31 32  1  0
 31 30  2  0
 32 33  2  0
 33 37  1  0
 33 34  1  0
 35 34  2  0
 35 36  1  0
 38 39  1  0
 38 19  1  0
 39 41  1  0
 40 38  2  0
 42 39  1  0
 43 45  1  0
 44 43  1  0
 46 48  1  0
 48 47  1  0
 49 51  1  0
 50 49  1  0
 51 52  1  0
 52 53  1  0
 53 54  1  0
 54 56  1  0
 56 61  1  0
 57 67  1  0
 57 64  1  0
 57 65  1  0
 58 60  1  0
 60 61  2  0
 60 59  1  0
 62 56  2  0
 63 62  1  0
 63 58  2  0
 64 58  1  0
 65 55  1  0
 65 59  1  0
 66 55  2  0
 68 70  1  0
 68 67  1  0
 69 67  2  0
 71 76  1  0
 72 68  1  0
 73 72  1  0
 74 73  1  0
 75 71  1  0
 75 74  1  0
 76 77  2  0
 76 72  1  0
 78 77  1  0
 79 78  2  0
 80 71  2  0
 80 79  1  0
 81 55  1  0
 81 82  1  0
 82 83  1  0
 83 84  2  0
 83 87  1  0
 85 82  1  0
 87 86  1  0
 87 89  1  0
 88 89  1  0
 89 90  1  0
 91 81  1  0
 91 94  1  1
 92 91  1  0
 93 91  1  0
M  ISO  4   8 100  16 100  53 101  54 101
M  END
>  <TORSDO>  (24) 
F 21

>  <SCORE>  (24) 
-3.381

>  <name>  (24) 
24

>  <ligand_id>  (24) 
24

>  <original_smiles>  (24) 
[H]c1c([H])c([H])c2c(c1[H])C([H])([H])C([H])([H])C([H])([H])C2([H])N([H])C(=O)C1([H])N(C(=O)C([H])(N([H])C(=O)C([H])(N([H])C([H])([H])[H])C([H])([H])[H])C(C([H])([H])[H])(C([H])([H])[H])C([H])([H])[H])C([H])([H])c2c([H])c(OC([H])([H])C([H])([H])C([H])([H])N([H])c3c([H])c(C([H])(C([H])([H])[H])C([H])([H])[H])c(N([H])C(=O)N4C([H])([H])C([H])([H])C([H])([H])C([H])(n5nc(-c6c([H])c([H])c(Oc7c([H])c([H])c(F)c([H])c7F)c([H])c6[H])c(C(=O)N([H])[H])c5N([H])[H])C4([H])[H])c([H])c3C([H])([H])[H])c([H])c([H])c2C1([H])[H]

>  <smiles>  (24) 
[H]c1c([H])c([H])c2c(c1[H])C([H])([H])C([H])([H])C([H])([H])C2([H])N([H])C(=O)C1([H])N(C(=O)C([H])(N([H])C(=O)C([H])(N([H])C([H])([H])[H])C([H])([H])[H])C(C([H])([H])[H])(C([H])([H])[H])C([H])([H])[H])C([H])([H])c2c([H])c(OC([H])([H])C([H])([H])C([H])([H])N([H])c3c([H])c(C([H])(C([H])([H])[H])C([H])([H])[H])c(N([H])C(=O)N4C([H])([H])C([H])([H])C([H])([H])C([H])(n5nc(-c6c([H])c([H])c(Oc7c([H])c([H])c(F)c([H])c7F)c([H])c6[H])c(C(=O)N([H])[H])c5N([H])[H])C4([H])[H])c([H])c3C([H])([H])[H])c([H])c([H])c2C1([H])[H]

$$$$
25:0:0
     RDKit          3D

 99108  0  0  1  0  0  0  0  0999 V2000
  -27.7840  -20.4010   19.3280 C   0  0  0  0  0  2  0  0  0  0  0  0
  -27.8070  -20.3950   20.8570 C   0  0  0  0  0  2  0  0  0  0  0  0
  -27.6130  -21.8850   19.0030 C   0  0  0  0  0  2  0  0  0  0  0  0
  -28.4340  -21.7510   21.2470 C   0  0  0  0  0  3  0  0  0  0  0  0
  -28.3730  -22.6160   20.0430 N   0  0  2  0  0  4  0  0  0  0  0  0
  -29.3320  -22.6790   19.7330 H   0  0  0  0  0  0  0  0  0  0  0  0
  -29.8850  -21.6420   21.7480 C   0  0  0  0  0  0  0  0  0  0  0  0
  -30.6640  -20.7050   21.1940 N   0  0  0  0  0  0  0  0  0  0  0  0
  -30.3090  -22.4310   22.5940 O   0  0  0  0  0  0  0  0  0  0  0  0
  -30.2520  -20.0490   20.5480 H   0  0  0  0  0  0  0  0  0  0  0  0
  -32.0730  -20.5040   21.4950 C   0  0  0  0  0  2  0  0  0  0  0  0
  -34.1510  -18.6480   18.8650 C   0  0  0  0  0  3  0  0  0  0  0  0
  -33.6420  -19.6850   19.6710 C   0  0  0  0  0  3  0  0  0  0  0  0
  -33.6730  -17.3300   19.0140 C   0  0  0  0  0  3  0  0  0  0  0  0
  -32.1730  -18.0830   20.7790 C   0  0  0  0  0  3  0  0  0  0  0  0
  -32.6470  -19.4020   20.6300 C   0  0  0  0  0  0  0  0  0  0  0  0
  -32.6700  -17.0430   19.9700 C   0  0  0  0  0  0  0  0  0  0  0  0
  -32.7700  -14.5490   19.9910 C   0  0  0  0  0  0  0  0  0  0  0  0
  -32.5870  -12.1180   20.3870 C   0  0  0  0  0  2  0  0  0  0  0  0
  -31.7500  -11.4020   19.3090 C   0  0  0  0  0  2  0  0  0  0  0  0
  -30.2500  -11.4510   19.6490 C   0  0  0  0  0  2  0  0  0  0  0  0
  -29.7760  -12.8840   19.9940 C   0  0  0  0  0  3  0  0  0  0  0  0
  -30.7120  -13.5240   21.0420 C   0  0  0  0  0  2  0  0  0  0  0  0
  -32.0930  -13.4940   20.5140 N   0  0  0  0  0  0  0  0  0  0  0  0
  -33.8320  -14.4300   19.3700 O   0  0  0  0  0  0  0  0  0  0  0  0
  -32.1920  -15.7350   20.2290 N   0  0  0  0  0  0  0  0  0  0  0  0
  -31.2730  -15.6760   20.6400 H   0  0  0  0  0  0  0  0  0  0  0  0
  -27.5490  -13.9670   20.7080 C   0  0  0  0  0  0  0  0  0  0  0  0
  -26.3300  -13.4280   21.0160 C   0  0  0  0  0  0  0  0  0  0  0  0
  -26.4860  -12.0110   20.9080 C   0  0  0  0  0  0  0  0  0  0  0  0
  -28.3820  -12.8910   20.4370 N   0  0  0  0  0  0  0  0  0  0  0  0
  -27.7420  -11.7060   20.6110 N   0  0  0  0  0  0  0  0  0  0  0  0
  -25.4980  -10.9300   21.0120 C   0  0  0  0  0  0  0  0  0  0  0  0
  -25.6580   -9.8680   21.9300 C   0  0  0  0  0  3  0  0  0  0  0  0
  -24.6860   -8.8500   22.0220 C   0  0  0  0  0  3  0  0  0  0  0  0
  -23.5380   -8.8890   21.1960 C   0  0  0  0  0  0  0  0  0  0  0  0
  -23.3950   -9.9360   20.2670 C   0  0  0  0  0  3  0  0  0  0  0  0
  -24.3680  -10.9450   20.1720 C   0  0  0  0  0  3  0  0  0  0  0  0
  -22.5530   -7.9310   21.2010 O   0  0  0  0  0  0  0  0  0  0  0  0
  -22.1470   -7.3200   22.3610 C   0  0  0  0  0  0  0  0  0  0  0  0
  -21.6360   -8.0570   23.4520 C   0  0  0  0  0  3  0  0  0  0  0  0
  -21.1660   -7.3850   24.5970 C   0  0  0  0  0  3  0  0  0  0  0  0
  -21.1980   -5.9790   24.6530 C   0  0  0  0  0  0  0  0  0  0  0  0
  -21.7030   -5.2440   23.5650 C   0  0  0  0  0  3  0  0  0  0  0  0
  -22.1750   -5.9130   22.4220 C   0  0  0  0  0  0  0  0  0  0  0  0
  -22.6400   -5.1990   21.3700 F   0  0  0  0  0  0  0  0  0  0  0  0
  -20.7380   -5.3320   25.7480 F   0  0  0  0  0  0  0  0  0  0  0  0
  -25.0640  -14.1830   21.3020 C   0  0  0  0  0  0  0  0  0  0  0  0
  -24.2400  -13.6750   22.2120 N   0  0  0  0  0  0  0  0  0  0  0  0
  -24.8230  -15.2580   20.7550 O   0  0  0  0  0  0  0  0  0  0  0  0
  -24.4460  -12.8020   22.6760 H   0  0  0  0  0  0  0  0  0  0  0  0
  -23.3890  -14.1650   22.4450 H   0  0  0  0  0  0  0  0  0  0  0  0
  -28.0140  -15.2770   20.6160 N   0  0  0  0  0  0  0  0  0  0  0  0
  -28.9600  -15.5310   20.3550 H   0  0  0  0  0  0  0  0  0  0  0  0
  -27.4090  -16.0800   20.7440 H   0  0  0  0  0  0  0  0  0  0  0  0
  -27.9030  -23.9990   20.3150 C   0  0  0  0  0  2  0  0  0  0  0  0
  -28.3260  -25.0140   19.2320 C   0  0  0  0  0  2  0  0  0  0  0  0
  -28.2040  -26.4760   19.7030 C   0  0  0  0  0  2  0  0  0  0  0  0
  -27.6680  -27.2840   18.6610 O   0  0  0  0  0  0  0  0  0  0  0  0
  -24.5160  -31.6790   23.2900 C   0  0  0  0  0  0  0  0  0  0  0  0
  -26.5460  -27.9820   19.0180 C   0  0  0  0  0  0  0  0  0  0  0  0
  -23.0440  -30.6580   21.5830 C   0  0  0  0  0  3  0  0  0  0  0  0
  -24.2290  -29.4340   19.6830 C   0  0  0  0  0  0  0  0  0  0  0  0
  -25.5250  -31.0370   21.1050 C   0  0  0  0  0  2  0  0  0  0  0  0
  -25.4720  -29.8250   20.2000 C   0  0  0  0  0  0  0  0  0  0  0  0
  -26.6360  -29.1020   19.8700 C   0  0  0  0  0  3  0  0  0  0  0  0
  -25.2950  -27.5920   18.5020 C   0  0  0  0  0  3  0  0  0  0  0  0
  -24.1320  -28.3160   18.8350 C   0  0  0  0  0  3  0  0  0  0  0  0
  -23.0360  -30.2730   20.0790 C   0  0  0  0  0  2  0  0  0  0  0  0
  -24.3890  -31.1260   22.0510 N   0  0  0  0  0  0  0  0  0  0  0  0
  -23.5310  -31.8440   24.0220 O   0  0  0  0  0  0  0  0  0  0  0  0
  -22.4900  -29.4670   22.3990 C   0  0  0  0  0  0  0  0  0  0  0  0
  -21.1690  -29.2450   22.3080 N   0  0  0  0  0  0  0  0  0  0  0  0
  -23.2420  -28.7550   23.0700 O   0  0  0  0  0  0  0  0  0  0  0  0
  -20.6220  -29.8840   21.7500 H   0  0  0  0  0  0  0  0  0  0  0  0
  -17.9370  -27.6390   22.5140 C   0  0  0  0  0  0  0  0  0  0  0  0
  -20.4310  -28.1580   22.9520 C   0  0  0  0  0  3  0  0  0  0  0  0
  -20.7260  -26.8020   22.2720 C   0  0  0  0  0  2  0  0  0  0  0  0
  -19.7190  -26.4450   21.1730 C   0  0  0  0  0  2  0  0  0  0  0  0
  -18.3020  -26.3790   21.7480 C   0  0  0  0  0  2  0  0  0  0  0  0
  -18.9370  -28.4830   23.0660 C   0  0  0  0  0  0  0  0  0  0  0  0
  -18.5460  -29.6610   23.7380 C   0  0  0  0  0  3  0  0  0  0  0  0
  -17.1850  -29.9970   23.8680 C   0  0  0  0  0  3  0  0  0  0  0  0
  -16.1980  -29.1510   23.3320 C   0  0  0  0  0  3  0  0  0  0  0  0
  -16.5750  -27.9740   22.6610 C   0  0  0  0  0  3  0  0  0  0  0  0
  -25.8990  -32.1530   23.8370 C   0  0  0  0  0  3  0  0  0  0  0  0
  -25.7300  -33.5240   24.3340 N   0  0  0  0  0  0  0  0  0  0  0  0
  -26.2090  -34.6180   23.7230 C   0  0  0  0  0  0  0  0  0  0  0  0
  -26.9050  -34.5660   22.7040 O   0  0  0  0  0  0  0  0  0  0  0  0
  -25.1180  -33.6480   25.1280 H   0  0  0  0  0  0  0  0  0  0  0  0
  -24.7720  -36.6690   23.4900 C   0  0  0  0  0  1  0  0  0  0  0  0
  -25.8580  -35.9860   24.3370 C   0  0  0  0  0  3  0  0  0  0  0  0
  -27.9880  -36.4390   25.4720 C   0  0  0  0  0  1  0  0  0  0  0  0
  -27.0240  -36.8860   24.4700 N   0  0  0  0  0  0  0  0  0  0  0  0
  -26.7280  -37.8280   24.7110 H   0  0  0  0  0  0  0  0  0  0  0  0
  -26.4740  -31.2130   24.9660 C   0  0  1  0  0  0  0  0  0  0  0  0
  -25.4710  -30.9240   26.1080 C   0  0  0  0  0  1  0  0  0  0  0  0
  -26.9130  -29.8550   24.3690 C   0  0  0  0  0  1  0  0  0  0  0  0
  -27.7390  -31.8530   25.5860 C   0  0  0  0  0  1  0  0  0  0  0  0
  1  2  1  0
  2  4  1  0
  3  1  1  0
  3  5  1  0
  4  7  1  0
  5 56  1  0
  5  4  1  0
  5  6  1  6
  7  9  2  0
  8 11  1  0
  8  7  1  0
 10  8  1  0
 12 14  2  0
 12 13  1  0
 13 16  2  0
 14 17  1  0
 16 15  1  0
 16 11  1  0
 17 26  1  0
 17 15  2  0
 18 26  1  0
 18 24  1  0
 19 24  1  0
 20 21  1  0
 20 19  1  0
 22 21  1  0
 22 31  1  0
 22 23  1  0
 24 23  1  0
 25 18  2  0
 26 27  1  0
 28 29  2  0
 29 48  1  0
 30 33  1  0
 30 29  1  0
 31 32  1  0
 31 28  1  0
 32 30  2  0
 33 34  1  0
 34 35  2  0
 36 39  1  0
 36 35  1  0
 37 36  2  0
 38 37  1  0
 38 33  2  0
 39 40  1  0
 40 45  2  0
 40 41  1  0
 41 42  2  0
 42 43  1  0
 43 47  1  0
 44 43  2  0
 45 44  1  0
 46 45  1  0
 48 49  1  0
 49 52  1  0
 49 51  1  0
 50 48  2  0
 53 28  1  0
 53 55  1  0
 54 53  1  0
 57 58  1  0
 57 56  1  0
 59 61  1  0
 59 58  1  0
 60 71  2  0
 61 66  1  0
 62 70  1  0
 62 72  1  0
 63 69  1  0
 63 65  1  0
 64 70  1  0
 65 64  1  0
 66 65  2  0
 67 68  1  0
 67 61  2  0
 68 63  2  0
 69 62  1  0
 70 60  1  0
 72 74  2  0
 73 72  1  0
 75 73  1  0
 76 85  2  0
 76 81  1  0
 77 73  1  0
 77 81  1  0
 78 77  1  0
 79 80  1  0
 79 78  1  0
 80 76  1  0
 81 82  2  0
 82 83  1  0
 84 83  2  0
 85 84  1  0
 86 60  1  0
 86 87  1  0
 86 96  1  0
 87 90  1  0
 88 87  1  0
 88 92  1  0
 89 88  2  0
 92 91  1  0
 92 94  1  0
 94 95  1  0
 94 93  1  0
 96 99  1  1
 96 97  1  0
 98 96  1  0
M  ISO  4  18 100  26 100  58 101  59 101
M  END
>  <TORSDO>  (25) 
F 22

>  <SCORE>  (25) 
-10.443

>  <name>  (25) 
25

>  <ligand_id>  (25) 
25

>  <original_smiles>  (25) 
[H]c1c([H])c(N([H])C(=O)N2C([H])([H])C([H])([H])C([H])([H])C([H])(n3nc(-c4c([H])c([H])c(Oc5c([H])c([H])c(F)c([H])c5F)c([H])c4[H])c(C(=O)N([H])[H])c3N([H])[H])C2([H])[H])c([H])c(C([H])([H])N([H])C(=O)C2([H])C([H])([H])C([H])([H])C([H])([H])[N+]2([H])C([H])([H])C([H])([H])C([H])([H])Oc2c([H])c([H])c3c(c2[H])C([H])([H])N(C(=O)C([H])(N([H])C(=O)C([H])(N([H])C([H])([H])[H])C([H])([H])[H])C(C([H])([H])[H])(C([H])([H])[H])C([H])([H])[H])C([H])(C(=O)N([H])C2([H])c4c([H])c([H])c([H])c([H])c4C([H])([H])C([H])([H])C2([H])[H])C3([H])[H])c1[H]

>  <smiles>  (25) 
[H]c1c([H])c(N([H])C(=O)N2C([H])([H])C([H])([H])C([H])([H])C([H])(n3nc(-c4c([H])c([H])c(Oc5c([H])c([H])c(F)c([H])c5F)c([H])c4[H])c(C(=O)N([H])[H])c3N([H])[H])C2([H])[H])c([H])c(C([H])([H])N([H])C(=O)C2([H])C([H])([H])C([H])([H])C([H])([H])[N+]2([H])C([H])([H])C([H])([H])C([H])([H])Oc2c([H])c([H])c3c(c2[H])C([H])([H])N(C(=O)C([H])(N([H])C(=O)C([H])(N([H])C([H])([H])[H])C([H])([H])[H])C(C([H])([H])[H])(C([H])([H])[H])C([H])([H])[H])C([H])(C(=O)N([H])C2([H])c4c([H])c([H])c([H])c([H])c4C([H])([H])C([H])([H])C2([H])[H])C3([H])[H])c1[H]

$$$$
26:0:0
     RDKit          3D

 92101  0  0  1  0  0  0  0  0999 V2000
  -30.5410  -19.9660   20.1190 C   0  0  0  0  0  3  0  0  0  0  0  0
  -30.7470  -18.5230   20.2190 C   0  0  0  0  0  3  0  0  0  0  0  0
  -28.4360  -18.2080   19.8830 C   0  0  0  0  0  3  0  0  0  0  0  0
  -26.9900  -20.3930   19.5190 C   0  0  0  0  0  3  0  0  0  0  0  0
  -28.1870  -19.6370   19.7560 C   0  0  0  0  0  0  0  0  0  0  0  0
  -29.2620  -20.5850   19.8880 C   0  0  0  0  0  0  0  0  0  0  0  0
  -29.6980  -17.5600   20.1020 C   0  0  0  0  0  0  0  0  0  0  0  0
  -27.3180  -21.7290   19.4750 C   0  0  0  0  0  0  0  0  0  0  0  0
  -28.6820  -21.9570   19.7480 N   0  0  0  0  0  0  0  0  0  0  0  0
  -30.5980  -14.9570   19.9260 C   0  0  0  0  0  0  0  0  0  0  0  0
  -30.4330  -12.6290   18.9600 C   0  0  0  0  0  2  0  0  0  0  0  0
  -29.4230  -12.6410   17.7860 C   0  0  0  0  0  2  0  0  0  0  0  0
  -27.9790  -12.4630   18.2950 C   0  0  0  0  0  2  0  0  0  0  0  0
  -27.6650  -13.3760   19.5090 C   0  0  0  0  0  3  0  0  0  0  0  0
  -28.7760  -13.3000   20.5800 C   0  0  0  0  0  2  0  0  0  0  0  0
  -30.0300  -13.6890   19.9180 N   0  0  0  0  0  0  0  0  0  0  0  0
  -31.7620  -15.0910   19.5230 O   0  0  0  0  0  0  0  0  0  0  0  0
  -29.7450  -16.0370   20.2140 N   0  0  0  0  0  0  0  0  0  0  0  0
  -28.8600  -15.6630   20.5160 H   0  0  0  0  0  0  0  0  0  0  0  0
  -25.3490  -14.0260   20.3900 C   0  0  0  0  0  0  0  0  0  0  0  0
  -24.2830  -13.2790   20.8070 C   0  0  0  0  0  0  0  0  0  0  0  0
  -24.6980  -11.9150   20.7180 C   0  0  0  0  0  0  0  0  0  0  0  0
  -26.3460  -13.1180   20.0690 N   0  0  0  0  0  0  0  0  0  0  0  0
  -25.9660  -11.8420   20.3320 N   0  0  0  0  0  0  0  0  0  0  0  0
  -23.9400  -10.6750   20.9240 C   0  0  0  0  0  0  0  0  0  0  0  0
  -24.3890   -9.6750   21.8140 C   0  0  0  0  0  3  0  0  0  0  0  0
  -23.6320   -8.4980   22.0060 C   0  0  0  0  0  3  0  0  0  0  0  0
  -22.4140   -8.3140   21.3100 C   0  0  0  0  0  0  0  0  0  0  0  0
  -21.9870   -9.3050   20.4080 C   0  0  0  0  0  3  0  0  0  0  0  0
  -22.7410  -10.4710   20.2150 C   0  0  0  0  0  3  0  0  0  0  0  0
  -21.6280   -7.1920   21.4140 O   0  0  0  0  0  0  0  0  0  0  0  0
  -21.6170   -6.4280   22.5530 C   0  0  0  0  0  0  0  0  0  0  0  0
  -21.2600   -6.9650   23.8100 C   0  0  0  0  0  3  0  0  0  0  0  0
  -21.1930   -6.1270   24.9380 C   0  0  0  0  0  3  0  0  0  0  0  0
  -21.4730   -4.7530   24.8140 C   0  0  0  0  0  0  0  0  0  0  0  0
  -21.8190   -4.2140   23.5630 C   0  0  0  0  0  3  0  0  0  0  0  0
  -21.8890   -5.0490   22.4340 C   0  0  0  0  0  0  0  0  0  0  0  0
  -22.2050   -4.5240   21.2290 F   0  0  0  0  0  0  0  0  0  0  0  0
  -21.3980   -3.9460   25.8990 F   0  0  0  0  0  0  0  0  0  0  0  0
  -22.9220  -13.7960   21.1690 C   0  0  0  0  0  0  0  0  0  0  0  0
  -22.2300  -13.1190   22.0780 N   0  0  0  0  0  0  0  0  0  0  0  0
  -22.4880  -14.8430   20.6840 O   0  0  0  0  0  0  0  0  0  0  0  0
  -22.5990  -12.2720   22.4870 H   0  0  0  0  0  0  0  0  0  0  0  0
  -21.3210  -13.4510   22.3650 H   0  0  0  0  0  0  0  0  0  0  0  0
  -25.5510  -15.3930   20.2230 N   0  0  0  0  0  0  0  0  0  0  0  0
  -24.7810  -16.0470   20.3310 H   0  0  0  0  0  0  0  0  0  0  0  0
  -26.3290  -15.7840   19.7080 H   0  0  0  0  0  0  0  0  0  0  0  0
  -26.5370  -22.8140   19.2180 O   0  0  0  0  0  0  0  0  0  0  0  0
  -25.6270  -22.5410   19.2070 H   0  0  0  0  0  0  0  0  0  0  0  0
  -29.2970  -23.4310   19.7520 C   0  0  0  0  0  2  0  0  0  0  0  0
  -28.6400  -24.8500   20.4350 C   0  0  0  0  0  2  0  0  0  0  0  0
  -28.5430  -26.2810   19.8140 O   0  0  0  0  0  0  0  0  0  0  0  0
  -24.6030  -31.6320   23.0270 C   0  0  0  0  0  0  0  0  0  0  0  0
  -27.3780  -27.1330   19.8700 C   0  0  0  0  0  0  0  0  0  0  0  0
  -23.4720  -30.2680   21.3190 C   0  0  0  0  0  3  0  0  0  0  0  0
  -24.9790  -28.7760   19.8680 C   0  0  0  0  0  0  0  0  0  0  0  0
  -26.0130  -30.6230   21.1830 C   0  0  0  0  0  2  0  0  0  0  0  0
  -26.1390  -29.2560   20.4830 C   0  0  0  0  0  0  0  0  0  0  0  0
  -27.3390  -28.4510   20.4470 C   0  0  0  0  0  3  0  0  0  0  0  0
  -26.1870  -26.7420   19.2130 C   0  0  0  0  0  3  0  0  0  0  0  0
  -25.0110  -27.5410   19.2160 C   0  0  0  0  0  3  0  0  0  0  0  0
  -23.7300  -29.6390   19.9270 C   0  0  0  0  0  2  0  0  0  0  0  0
  -24.7180  -30.8600   21.9050 N   0  0  0  0  0  0  0  0  0  0  0  0
  -23.5000  -31.8500   23.5600 O   0  0  0  0  0  0  0  0  0  0  0  0
  -22.8220  -29.1980   22.2340 C   0  0  0  0  0  0  0  0  0  0  0  0
  -21.4930  -29.0100   22.1230 N   0  0  0  0  0  0  0  0  0  0  0  0
  -23.5160  -28.5430   23.0150 O   0  0  0  0  0  0  0  0  0  0  0  0
  -20.9840  -29.6040   21.4850 H   0  0  0  0  0  0  0  0  0  0  0  0
  -18.1350  -27.7550   22.6300 C   0  0  0  0  0  0  0  0  0  0  0  0
  -20.6990  -28.0180   22.8540 C   0  0  0  0  0  3  0  0  0  0  0  0
  -20.7910  -26.6250   22.1890 C   0  0  0  0  0  2  0  0  0  0  0  0
  -19.6690  -26.3590   21.1830 C   0  0  0  0  0  2  0  0  0  0  0  0
  -18.3020  -26.4540   21.8670 C   0  0  0  0  0  2  0  0  0  0  0  0
  -19.2580  -28.4960   23.0830 C   0  0  0  0  0  0  0  0  0  0  0  0
  -19.0470  -29.7160   23.7650 C   0  0  0  0  0  3  0  0  0  0  0  0
  -17.7430  -30.1970   23.9960 C   0  0  0  0  0  3  0  0  0  0  0  0
  -16.6350  -29.4460   23.5670 C   0  0  0  0  0  3  0  0  0  0  0  0
  -16.8290  -28.2290   22.8890 C   0  0  0  0  0  3  0  0  0  0  0  0
  -25.8490  -32.2990   23.6920 C   0  0  0  0  0  3  0  0  0  0  0  0
  -26.3620  -31.5160   24.9620 C   0  0  1  0  0  0  0  0  0  0  0  0
  -25.2600  -31.2270   26.0080 C   0  0  0  0  0  1  0  0  0  0  0  0
  -26.9900  -30.1650   24.5520 C   0  0  0  0  0  1  0  0  0  0  0  0
  -27.4800  -32.3230   25.6630 C   0  0  0  0  0  1  0  0  0  0  0  0
  -25.4880  -33.6780   24.0590 N   0  0  0  0  0  0  0  0  0  0  0  0
  -25.7810  -34.7650   23.3370 C   0  0  0  0  0  0  0  0  0  0  0  0
  -26.4670  -34.7140   22.3120 O   0  0  0  0  0  0  0  0  0  0  0  0
  -24.8860  -33.7800   24.8640 H   0  0  0  0  0  0  0  0  0  0  0  0
  -24.0010  -36.5120   23.0430 C   0  0  0  0  0  1  0  0  0  0  0  0
  -25.2530  -36.1220   23.8390 C   0  0  0  0  0  3  0  0  0  0  0  0
  -27.3550  -37.0700   24.6920 C   0  0  0  0  0  1  0  0  0  0  0  0
  -26.2480  -37.2170   23.7490 N   0  0  0  0  0  0  0  0  0  0  0  0
  -25.8040  -38.1160   23.9200 H   0  0  0  0  0  0  0  0  0  0  0  0
  1  2  1  0
  3  7  1  0
  4  5  1  0
  5  3  2  0
  5  6  1  0
  6  1  2  0
  7 18  1  0
  7  2  2  0
  8  4  2  0
  8  9  1  0
  9 50  1  0
  9  6  1  0
 10 18  1  0
 11 16  1  0
 12 13  1  0
 12 11  1  0
 14 13  1  0
 14 23  1  0
 14 15  1  0
 16 10  1  0
 16 15  1  0
 17 10  2  0
 18 19  1  0
 20 21  2  0
 21 40  1  0
 22 21  1  0
 22 25  1  0
 23 24  1  0
 23 20  1  0
 24 22  2  0
 25 26  1  0
 26 27  2  0
 28 31  1  0
 28 27  1  0
 29 28  2  0
 30 29  1  0
 30 25  2  0
 31 32  1  0
 32 33  1  0
 33 34  2  0
 35 34  1  0
 35 39  1  0
 36 35  2  0
 37 32  2  0
 37 36  1  0
 38 37  1  0
 40 41  1  0
 41 44  1  0
 41 43  1  0
 42 40  2  0
 45 46  1  0
 45 20  1  0
 47 45  1  0
 48  8  1  0
 49 48  1  0
 50 51  1  0
 52 54  1  0
 52 51  1  0
 53 64  2  0
 54 59  1  0
 55 63  1  0
 55 65  1  0
 56 62  1  0
 56 58  1  0
 57 63  1  0
 58 57  1  0
 59 58  2  0
 60 61  1  0
 60 54  2  0
 61 56  2  0
 62 55  1  0
 63 53  1  0
 65 67  2  0
 66 65  1  0
 68 66  1  0
 69 78  2  0
 69 74  1  0
 70 66  1  0
 70 74  1  0
 71 70  1  0
 72 73  1  0
 72 71  1  0
 73 69  1  0
 74 75  2  0
 75 76  1  0
 77 76  2  0
 78 77  1  0
 79 53  1  0
 79 84  1  0
 79 80  1  0
 80 83  1  1
 80 81  1  0
 82 80  1  0
 84 87  1  0
 85 89  1  0
 85 84  1  0
 86 85  2  0
 89 88  1  0
 91 89  1  0
 91 92  1  0
 91 90  1  0
M  ISO  4  10 100  18 100  51 101  52 101
M  END
>  <TORSDO>  (26) 
F 19

>  <SCORE>  (26) 
-14.495

>  <name>  (26) 
26

>  <ligand_id>  (26) 
26

>  <original_smiles>  (26) 
[H]Oc1c([H])c2c([H])c(N([H])C(=O)N3C([H])([H])C([H])([H])C([H])([H])C([H])(n4nc(-c5c([H])c([H])c(Oc6c([H])c([H])c(F)c([H])c6F)c([H])c5[H])c(C(=O)N([H])[H])c4N([H])[H])C3([H])[H])c([H])c([H])c2n1C([H])([H])C([H])([H])Oc1c([H])c([H])c2c(c1[H])C([H])([H])N(C(=O)C([H])(N([H])C(=O)C([H])(N([H])C([H])([H])[H])C([H])([H])[H])C(C([H])([H])[H])(C([H])([H])[H])C([H])([H])[H])C([H])(C(=O)N([H])C1([H])c3c([H])c([H])c([H])c([H])c3C([H])([H])C([H])([H])C1([H])[H])C2([H])[H]

>  <smiles>  (26) 
[H]Oc1c([H])c2c([H])c(N([H])C(=O)N3C([H])([H])C([H])([H])C([H])([H])C([H])(n4nc(-c5c([H])c([H])c(Oc6c([H])c([H])c(F)c([H])c6F)c([H])c5[H])c(C(=O)N([H])[H])c4N([H])[H])C3([H])[H])c([H])c([H])c2n1C([H])([H])C([H])([H])Oc1c([H])c([H])c2c(c1[H])C([H])([H])N(C(=O)C([H])(N([H])C(=O)C([H])(N([H])C([H])([H])[H])C([H])([H])[H])C(C([H])([H])[H])(C([H])([H])[H])C([H])([H])[H])C([H])(C(=O)N([H])C1([H])c3c([H])c([H])c([H])c([H])c3C([H])([H])C([H])([H])C1([H])[H])C2([H])[H]

$$$$
27:0:0
     RDKit          3D

 95104  0  0  1  0  0  0  0  0999 V2000
  -30.8170  -21.8900   21.2050 C   0  0  0  0  0  2  0  0  0  0  0  0
  -28.8400  -21.6010   19.7510 C   0  0  0  0  0  2  0  0  0  0  0  0
  -31.1610  -23.2030   20.4650 C   0  0  0  0  0  2  0  0  0  0  0  0
  -29.1960  -22.9000   18.9990 C   0  0  0  0  0  2  0  0  0  0  0  0
  -30.0250  -20.9980   20.3580 N   0  0  0  0  0  0  0  0  0  0  0  0
  -29.9740  -23.8580   19.8380 N   0  0  2  0  0  4  0  0  0  0  0  0
  -29.3690  -24.1280   20.6010 H   0  0  0  0  0  0  0  0  0  0  0  0
  -31.3250  -18.9480   20.6380 C   0  0  0  0  0  3  0  0  0  0  0  0
  -31.4180  -17.5470   20.7800 C   0  0  0  0  0  3  0  0  0  0  0  0
  -28.9980  -17.4100   20.9110 C   0  0  0  0  0  3  0  0  0  0  0  0
  -30.0700  -19.6010   20.5960 C   0  0  0  0  0  0  0  0  0  0  0  0
  -30.2490  -16.7580   20.8840 C   0  0  0  0  0  0  0  0  0  0  0  0
  -28.9030  -18.8100   20.7640 C   0  0  0  0  0  0  0  0  0  0  0  0
  -27.6710  -19.3770   20.7900 F   0  0  0  0  0  0  0  0  0  0  0  0
  -30.8450  -14.4490   20.1500 C   0  0  0  0  0  0  0  0  0  0  0  0
  -30.4690  -12.3500   18.9050 C   0  0  0  0  0  2  0  0  0  0  0  0
  -29.4530  -12.6120   17.7730 C   0  0  0  0  0  2  0  0  0  0  0  0
  -28.0080  -12.4580   18.2840 C   0  0  0  0  0  2  0  0  0  0  0  0
  -27.7540  -13.2430   19.5980 C   0  0  0  0  0  3  0  0  0  0  0  0
  -28.8690  -12.9520   20.6280 C   0  0  0  0  0  2  0  0  0  0  0  0
  -30.1690  -13.2770   20.0060 N   0  0  0  0  0  0  0  0  0  0  0  0
  -31.8890  -14.6970   19.5370 O   0  0  0  0  0  0  0  0  0  0  0  0
  -30.2570  -15.3330   20.9780 N   0  0  0  0  0  0  0  0  0  0  0  0
  -29.4730  -14.9330   21.4710 H   0  0  0  0  0  0  0  0  0  0  0  0
  -25.4010  -13.8380   20.4610 C   0  0  0  0  0  0  0  0  0  0  0  0
  -24.3540  -13.0590   20.8720 C   0  0  0  0  0  0  0  0  0  0  0  0
  -24.8070  -11.7070   20.7760 C   0  0  0  0  0  0  0  0  0  0  0  0
  -26.4280  -12.9610   20.1440 N   0  0  0  0  0  0  0  0  0  0  0  0
  -26.0760  -11.6740   20.3880 N   0  0  0  0  0  0  0  0  0  0  0  0
  -24.0890  -10.4410   20.9770 C   0  0  0  0  0  0  0  0  0  0  0  0
  -24.5400   -9.4760   21.9030 C   0  0  0  0  0  3  0  0  0  0  0  0
  -23.8250   -8.2740   22.0900 C   0  0  0  0  0  3  0  0  0  0  0  0
  -22.6420   -8.0290   21.3500 C   0  0  0  0  0  0  0  0  0  0  0  0
  -22.2100   -8.9830   20.4110 C   0  0  0  0  0  3  0  0  0  0  0  0
  -22.9270  -10.1770   20.2240 C   0  0  0  0  0  3  0  0  0  0  0  0
  -21.8950   -6.8810   21.4470 O   0  0  0  0  0  0  0  0  0  0  0  0
  -21.8140   -6.1730   22.6190 C   0  0  0  0  0  0  0  0  0  0  0  0
  -21.3450   -6.7610   23.8150 C   0  0  0  0  0  3  0  0  0  0  0  0
  -21.2120   -5.9780   24.9790 C   0  0  0  0  0  3  0  0  0  0  0  0
  -21.5360   -4.6080   24.9480 C   0  0  0  0  0  0  0  0  0  0  0  0
  -21.9960   -4.0190   23.7570 C   0  0  0  0  0  3  0  0  0  0  0  0
  -22.1320   -4.8000   22.5960 C   0  0  0  0  0  0  0  0  0  0  0  0
  -22.5560   -4.2230   21.4460 F   0  0  0  0  0  0  0  0  0  0  0  0
  -21.3990   -3.8540   26.0640 F   0  0  0  0  0  0  0  0  0  0  0  0
  -22.9780  -13.5310   21.2440 C   0  0  0  0  0  0  0  0  0  0  0  0
  -22.3050  -12.8170   22.1390 N   0  0  0  0  0  0  0  0  0  0  0  0
  -22.5100  -14.5680   20.7770 O   0  0  0  0  0  0  0  0  0  0  0  0
  -22.6960  -11.9770   22.5410 H   0  0  0  0  0  0  0  0  0  0  0  0
  -21.3840  -13.1140   22.4290 H   0  0  0  0  0  0  0  0  0  0  0  0
  -25.5620  -15.2120   20.3110 N   0  0  0  0  0  0  0  0  0  0  0  0
  -24.8040  -15.8660   20.4750 H   0  0  0  0  0  0  0  0  0  0  0  0
  -26.3850  -15.6510   19.9170 H   0  0  0  0  0  0  0  0  0  0  0  0
  -30.3710  -25.1100   19.1190 C   0  0  0  0  0  2  0  0  0  0  0  0
  -29.2170  -26.0790   18.7740 C   0  0  0  0  0  2  0  0  0  0  0  0
  -28.7970  -26.7870   19.9430 O   0  0  0  0  0  0  0  0  0  0  0  0
  -24.6830  -31.6600   23.0850 C   0  0  0  0  0  0  0  0  0  0  0  0
  -27.5840  -27.4440   19.9110 C   0  0  0  0  0  0  0  0  0  0  0  0
  -23.5720  -30.2640   21.3720 C   0  0  0  0  0  3  0  0  0  0  0  0
  -25.1180  -28.8350   19.9330 C   0  0  0  0  0  0  0  0  0  0  0  0
  -26.0820  -30.7320   21.2430 C   0  0  0  0  0  2  0  0  0  0  0  0
  -26.2380  -29.3860   20.5670 C   0  0  0  0  0  0  0  0  0  0  0  0
  -27.4670  -28.6900   20.5670 C   0  0  0  0  0  3  0  0  0  0  0  0
  -26.4380  -26.8970   19.2860 C   0  0  0  0  0  3  0  0  0  0  0  0
  -25.2110  -27.5870   19.2950 C   0  0  0  0  0  3  0  0  0  0  0  0
  -23.8380  -29.6380   19.9770 C   0  0  0  0  0  2  0  0  0  0  0  0
  -24.7960  -30.9000   21.9600 N   0  0  0  0  0  0  0  0  0  0  0  0
  -23.5800  -31.8710   23.6090 O   0  0  0  0  0  0  0  0  0  0  0  0
  -22.9440  -29.1860   22.2850 C   0  0  0  0  0  0  0  0  0  0  0  0
  -21.6230  -28.9830   22.1500 N   0  0  0  0  0  0  0  0  0  0  0  0
  -23.6420  -28.5370   23.0700 O   0  0  0  0  0  0  0  0  0  0  0  0
  -21.1210  -29.5610   21.4900 H   0  0  0  0  0  0  0  0  0  0  0  0
  -18.2650  -27.7420   22.6380 C   0  0  0  0  0  0  0  0  0  0  0  0
  -20.8270  -27.9950   22.8760 C   0  0  0  0  0  3  0  0  0  0  0  0
  -20.9240  -26.6040   22.2120 C   0  0  0  0  0  2  0  0  0  0  0  0
  -19.8040  -26.3380   21.2000 C   0  0  0  0  0  2  0  0  0  0  0  0
  -18.4340  -26.4370   21.8780 C   0  0  0  0  0  2  0  0  0  0  0  0
  -19.3890  -28.4810   23.0930 C   0  0  0  0  0  0  0  0  0  0  0  0
  -19.1780  -29.7050   23.7650 C   0  0  0  0  0  3  0  0  0  0  0  0
  -17.8740  -30.1890   23.9850 C   0  0  0  0  0  3  0  0  0  0  0  0
  -16.7650  -29.4460   23.5450 C   0  0  0  0  0  3  0  0  0  0  0  0
  -16.9620  -28.2230   22.8780 C   0  0  0  0  0  3  0  0  0  0  0  0
  -25.9290  -32.3220   23.7530 C   0  0  0  0  0  3  0  0  0  0  0  0
  -26.4460  -31.5370   25.0220 C   0  0  1  0  0  0  0  0  0  0  0  0
  -25.3370  -31.2300   26.0560 C   0  0  0  0  0  1  0  0  0  0  0  0
  -27.0890  -30.1930   24.6090 C   0  0  0  0  0  1  0  0  0  0  0  0
  -27.5500  -32.3550   25.7320 C   0  0  0  0  0  1  0  0  0  0  0  0
  -25.5620  -33.6980   24.1060 N   0  0  0  0  0  0  0  0  0  0  0  0
  -25.8820  -34.7800   23.3820 C   0  0  0  0  0  0  0  0  0  0  0  0
  -26.5890  -34.7230   22.3710 O   0  0  0  0  0  0  0  0  0  0  0  0
  -24.9350  -33.8150   24.8890 H   0  0  0  0  0  0  0  0  0  0  0  0
  -24.1070  -36.5220   23.0040 C   0  0  0  0  0  1  0  0  0  0  0  0
  -25.3290  -36.1380   23.8530 C   0  0  0  0  0  3  0  0  0  0  0  0
  -27.4010  -37.0730   24.7850 C   0  0  0  0  0  1  0  0  0  0  0  0
  -26.3290  -37.2270   23.8040 N   0  0  0  0  0  0  0  0  0  0  0  0
  -25.8880  -38.1300   23.9570 H   0  0  0  0  0  0  0  0  0  0  0  0
  2  5  1  0
  3  1  1  0
  4  2  1  0
  4  6  1  0
  5 11  1  0
  5  1  1  0
  6  3  1  0
  6  7  1  1
  8  9  1  0
  9 12  2  0
 11  8  2  0
 11 13  1  0
 12 10  1  0
 12 23  1  0
 13 14  1  0
 13 10  2  0
 15 23  1  0
 16 21  1  0
 17 18  1  0
 17 16  1  0
 19 18  1  0
 19 28  1  0
 19 20  1  0
 21 15  1  0
 21 20  1  0
 22 15  2  0
 23 24  1  0
 25 26  2  0
 26 45  1  0
 27 26  1  0
 27 30  1  0
 28 29  1  0
 28 25  1  0
 29 27  2  0
 30 31  1  0
 31 32  2  0
 33 36  1  0
 33 32  1  0
 34 33  2  0
 35 34  1  0
 35 30  2  0
 36 37  1  0
 37 38  1  0
 38 39  2  0
 40 39  1  0
 40 44  1  0
 41 40  2  0
 42 37  2  0
 42 41  1  0
 43 42  1  0
 45 46  1  0
 46 49  1  0
 46 48  1  0
 47 45  2  0
 50 25  1  0
 50 51  1  0
 52 50  1  0
 53  6  1  0
 54 53  1  0
 54 55  1  0
 56 67  2  0
 57 55  1  0
 57 62  1  0
 58 66  1  0
 58 68  1  0
 59 65  1  0
 59 61  1  0
 60 66  1  0
 61 62  2  0
 61 60  1  0
 63 64  1  0
 63 57  2  0
 64 59  2  0
 65 58  1  0
 66 56  1  0
 68 70  2  0
 69 68  1  0
 71 69  1  0
 72 81  2  0
 72 77  1  0
 73 69  1  0
 73 77  1  0
 74 73  1  0
 75 76  1  0
 75 74  1  0
 76 72  1  0
 77 78  2  0
 78 79  1  0
 80 79  2  0
 81 80  1  0
 82 56  1  0
 82 87  1  0
 82 83  1  0
 83 86  1  1
 83 84  1  0
 85 83  1  0
 87 90  1  0
 88 92  1  0
 88 87  1  0
 89 88  2  0
 92 91  1  0
 94 92  1  0
 94 95  1  0
 94 93  1  0
M  ISO  4  15 100  23 100  54 101  55 101
M  END
>  <TORSDO>  (27) 
F 19

>  <SCORE>  (27) 
-13.763

>  <name>  (27) 
27

>  <ligand_id>  (27) 
27

>  <original_smiles>  (27) 
[H]c1c([H])c([H])c2c(c1[H])C([H])([H])C([H])([H])C([H])([H])C2([H])N([H])C(=O)C1([H])N(C(=O)C([H])(N([H])C(=O)C([H])(N([H])C([H])([H])[H])C([H])([H])[H])C(C([H])([H])[H])(C([H])([H])[H])C([H])([H])[H])C([H])([H])c2c([H])c(OC([H])([H])C([H])([H])[N+]3([H])C([H])([H])C([H])([H])N(c4c([H])c([H])c(N([H])C(=O)N5C([H])([H])C([H])([H])C([H])([H])C([H])(n6nc(-c7c([H])c([H])c(Oc8c([H])c([H])c(F)c([H])c8F)c([H])c7[H])c(C(=O)N([H])[H])c6N([H])[H])C5([H])[H])c([H])c4F)C([H])([H])C3([H])[H])c([H])c([H])c2C1([H])[H]

>  <smiles>  (27) 
[H]c1c([H])c([H])c2c(c1[H])C([H])([H])C([H])([H])C([H])([H])C2([H])N([H])C(=O)C1([H])N(C(=O)C([H])(N([H])C(=O)C([H])(N([H])C([H])([H])[H])C([H])([H])[H])C(C([H])([H])[H])(C([H])([H])[H])C([H])([H])[H])C([H])([H])c2c([H])c(OC([H])([H])C([H])([H])[N+]3([H])C([H])([H])C([H])([H])N(c4c([H])c([H])c(N([H])C(=O)N5C([H])([H])C([H])([H])C([H])([H])C([H])(n6nc(-c7c([H])c([H])c(Oc8c([H])c([H])c(F)c([H])c8F)c([H])c7[H])c(C(=O)N([H])[H])c6N([H])[H])C5([H])[H])c([H])c4F)C([H])([H])C3([H])[H])c([H])c([H])c2C1([H])[H]

$$$$
28:0:0
     RDKit          3D

 89 97  0  0  1  0  0  0  0  0999 V2000
  -31.4070  -19.5610   18.3750 C   0  0  0  0  0  2  0  0  0  0  0  0
  -30.8080  -20.9890   18.4300 C   0  0  0  0  0  2  0  0  0  0  0  0
  -31.2170  -18.6040   19.5810 C   0  0  0  0  0  2  0  0  0  0  0  0
  -29.2740  -21.1130   18.5010 C   0  0  0  0  0  2  0  0  0  0  0  0
  -29.1010  -19.7450   20.6360 C   0  0  0  0  0  2  0  0  0  0  0  0
  -29.7550  -18.2290   19.9240 C   0  0  0  0  0  3  0  0  0  0  0  0
  -28.7920  -21.2050   19.8940 N   0  0  1  0  0  4  0  0  0  0  0  0
  -27.7880  -21.1300   19.7960 H   0  0  0  0  0  0  0  0  0  0  0  0
  -30.4030  -15.3230   20.2970 C   0  0  0  0  0  0  0  0  0  0  0  0
  -30.3560  -12.8620   19.4740 C   0  0  0  0  0  2  0  0  0  0  0  0
  -29.4510  -12.6440   18.2340 C   0  0  0  0  0  2  0  0  0  0  0  0
  -28.0020  -12.3760   18.6760 C   0  0  0  0  0  2  0  0  0  0  0  0
  -27.5400  -13.3530   19.7850 C   0  0  0  0  0  3  0  0  0  0  0  0
  -28.5810  -13.5440   20.9120 C   0  0  0  0  0  2  0  0  0  0  0  0
  -29.8210  -14.0250   20.2780 N   0  0  0  0  0  0  0  0  0  0  0  0
  -31.6160  -15.2920   20.0400 O   0  0  0  0  0  0  0  0  0  0  0  0
  -29.6620  -16.6120   20.4050 N   0  0  0  0  0  0  0  0  0  0  0  0
  -28.7150  -16.4020   20.6930 H   0  0  0  0  0  0  0  0  0  0  0  0
  -25.1710  -13.9090   20.5420 C   0  0  0  0  0  0  0  0  0  0  0  0
  -24.1050  -13.1370   20.9090 C   0  0  0  0  0  0  0  0  0  0  0  0
  -24.5670  -11.7850   20.8740 C   0  0  0  0  0  0  0  0  0  0  0  0
  -26.2120  -13.0350   20.2950 N   0  0  0  0  0  0  0  0  0  0  0  0
  -25.8600  -11.7480   20.5630 N   0  0  0  0  0  0  0  0  0  0  0  0
  -23.8320  -10.5250   21.0580 C   0  0  0  0  0  0  0  0  0  0  0  0
  -24.2560   -9.5520   21.9890 C   0  0  0  0  0  3  0  0  0  0  0  0
  -23.5170   -8.3610   22.1650 C   0  0  0  0  0  3  0  0  0  0  0  0
  -22.3420   -8.1360   21.4090 C   0  0  0  0  0  0  0  0  0  0  0  0
  -21.9380   -9.0960   20.4650 C   0  0  0  0  0  3  0  0  0  0  0  0
  -22.6780  -10.2780   20.2870 C   0  0  0  0  0  3  0  0  0  0  0  0
  -21.5790   -6.9960   21.4930 O   0  0  0  0  0  0  0  0  0  0  0  0
  -21.5230   -6.2500   22.6430 C   0  0  0  0  0  0  0  0  0  0  0  0
  -21.0990   -6.8030   23.8710 C   0  0  0  0  0  3  0  0  0  0  0  0
  -20.9880   -5.9840   25.0110 C   0  0  0  0  0  3  0  0  0  0  0  0
  -21.2940   -4.6120   24.9280 C   0  0  0  0  0  0  0  0  0  0  0  0
  -21.7150   -4.0600   23.7060 C   0  0  0  0  0  3  0  0  0  0  0  0
  -21.8250   -4.8760   22.5660 C   0  0  0  0  0  0  0  0  0  0  0  0
  -22.2100   -4.3330   21.3850 F   0  0  0  0  0  0  0  0  0  0  0  0
  -21.1810   -3.8220   26.0220 F   0  0  0  0  0  0  0  0  0  0  0  0
  -22.7110  -13.6210   21.1730 C   0  0  0  0  0  0  0  0  0  0  0  0
  -21.9710  -12.9280   22.0290 N   0  0  0  0  0  0  0  0  0  0  0  0
  -22.2860  -14.6540   20.6550 O   0  0  0  0  0  0  0  0  0  0  0  0
  -22.3300  -12.0960   22.4740 H   0  0  0  0  0  0  0  0  0  0  0  0
  -21.0340  -13.2370   22.2470 H   0  0  0  0  0  0  0  0  0  0  0  0
  -25.3320  -15.2810   20.3720 N   0  0  0  0  0  0  0  0  0  0  0  0
  -24.5480  -15.9200   20.4620 H   0  0  0  0  0  0  0  0  0  0  0  0
  -26.1620  -15.7260   20.0050 H   0  0  0  0  0  0  0  0  0  0  0  0
  -28.9030  -22.7810   20.4550 C   0  0  0  0  0  3  0  0  0  0  0  0
  -28.0310  -24.2770   19.9490 C   0  0  0  0  0  3  0  0  0  0  0  0
  -28.1980  -25.8880   20.2730 O   0  0  0  0  0  0  0  0  0  0  0  0
  -24.6510  -31.8540   23.2170 C   0  0  0  0  0  0  0  0  0  0  0  0
  -27.1870  -26.9780   20.1900 C   0  0  0  0  0  0  0  0  0  0  0  0
  -23.4490  -30.4560   21.5840 C   0  0  0  0  0  3  0  0  0  0  0  0
  -24.8920  -28.8550   20.1520 C   0  0  0  0  0  0  0  0  0  0  0  0
  -26.0160  -30.6680   21.4310 C   0  0  0  0  0  2  0  0  0  0  0  0
  -26.0810  -29.2600   20.7700 C   0  0  0  0  0  0  0  0  0  0  0  0
  -27.2210  -28.3420   20.7660 C   0  0  0  0  0  3  0  0  0  0  0  0
  -25.9680  -26.7220   19.5230 C   0  0  0  0  0  3  0  0  0  0  0  0
  -24.8610  -27.6090   19.5060 C   0  0  0  0  0  3  0  0  0  0  0  0
  -23.6730  -29.7760   20.2040 C   0  0  0  0  0  2  0  0  0  0  0  0
  -24.7270  -31.0200   22.1300 N   0  0  0  0  0  0  0  0  0  0  0  0
  -23.5640  -32.1450   23.7410 O   0  0  0  0  0  0  0  0  0  0  0  0
  -22.7580  -29.4610   22.5530 C   0  0  0  0  0  0  0  0  0  0  0  0
  -21.4280  -29.2960   22.4350 N   0  0  0  0  0  0  0  0  0  0  0  0
  -23.4280  -28.8380   23.3820 O   0  0  0  0  0  0  0  0  0  0  0  0
  -20.9400  -29.8480   21.7440 H   0  0  0  0  0  0  0  0  0  0  0  0
  -18.0470  -28.0810   22.9530 C   0  0  0  0  0  0  0  0  0  0  0  0
  -20.6070  -28.3610   23.2140 C   0  0  0  0  0  3  0  0  0  0  0  0
  -20.7140  -26.9240   22.6490 C   0  0  0  0  0  2  0  0  0  0  0  0
  -19.6140  -26.5910   21.6370 C   0  0  0  0  0  2  0  0  0  0  0  0
  -18.2310  -26.7320   22.2800 C   0  0  0  0  0  2  0  0  0  0  0  0
  -19.1630  -28.8540   23.3770 C   0  0  0  0  0  0  0  0  0  0  0  0
  -18.9330  -30.1140   23.9690 C   0  0  0  0  0  3  0  0  0  0  0  0
  -17.6240  -30.6050   24.1390 C   0  0  0  0  0  3  0  0  0  0  0  0
  -16.5240  -29.8300   23.7280 C   0  0  0  0  0  3  0  0  0  0  0  0
  -16.7390  -28.5700   23.1410 C   0  0  0  0  0  3  0  0  0  0  0  0
  -25.9260  -32.4960   23.8430 C   0  0  0  0  0  3  0  0  0  0  0  0
  -25.6160  -33.9010   24.1620 N   0  0  0  0  0  0  0  0  0  0  0  0
  -25.9520  -34.9530   23.4020 C   0  0  0  0  0  0  0  0  0  0  0  0
  -26.6180  -34.8430   22.3710 O   0  0  0  0  0  0  0  0  0  0  0  0
  -25.0250  -34.0600   24.9640 H   0  0  0  0  0  0  0  0  0  0  0  0
  -24.2340  -36.7610   23.0580 C   0  0  0  0  0  1  0  0  0  0  0  0
  -25.4770  -36.3480   23.8610 C   0  0  0  0  0  3  0  0  0  0  0  0
  -27.6210  -37.2270   24.6760 C   0  0  0  0  0  1  0  0  0  0  0  0
  -26.5160  -37.3940   23.7370 N   0  0  0  0  0  0  0  0  0  0  0  0
  -26.1150  -38.3170   23.8810 H   0  0  0  0  0  0  0  0  0  0  0  0
  -26.4240  -31.7440   25.1380 C   0  0  1  0  0  0  0  0  0  0  0  0
  -25.3210  -31.5380   26.2030 C   0  0  0  0  0  1  0  0  0  0  0  0
  -26.9990  -30.3530   24.7870 C   0  0  0  0  0  1  0  0  0  0  0  0
  -27.5800  -32.5400   25.7930 C   0  0  0  0  0  1  0  0  0  0  0  0
  1  2  1  0
  1  3  1  0
  2  4  1  0
  3  6  1  0
  4  7  1  0
  6 17  1  0
  6  5  1  0
  7 47  1  0
  7  5  1  0
  7  8  1  6
  9 17  1  0
 10 15  1  0
 11 12  1  0
 11 10  1  0
 13 12  1  0
 13 22  1  0
 13 14  1  0
 15  9  1  0
 15 14  1  0
 16  9  2  0
 17 18  1  0
 19 20  2  0
 20 39  1  0
 21 20  1  0
 21 24  1  0
 22 19  1  0
 22 23  1  0
 23 21  2  0
 24 25  1  0
 25 26  2  0
 27 30  1  0
 27 26  1  0
 28 27  2  0
 29 28  1  0
 29 24  2  0
 30 31  1  0
 31 32  1  0
 32 33  2  0
 34 33  1  0
 34 38  1  0
 35 34  2  0
 36 31  2  0
 36 35  1  0
 37 36  1  0
 39 40  1  0
 40 43  1  0
 40 42  1  0
 41 39  2  0
 44 45  1  0
 44 19  1  0
 46 44  1  0
 48 49  1  0
 48 47  2  0
 50 61  2  0
 51 49  1  0
 51 56  1  0
 52 60  1  0
 52 62  1  0
 53 59  1  0
 53 55  1  0
 54 60  1  0
 55 54  1  0
 56 55  2  0
 57 51  2  0
 58 57  1  0
 58 53  2  0
 59 52  1  0
 60 50  1  0
 62 64  2  0
 63 62  1  0
 65 63  1  0
 66 75  2  0
 66 71  1  0
 67 63  1  0
 67 71  1  0
 68 67  1  0
 69 70  1  0
 69 68  1  0
 70 66  1  0
 71 72  2  0
 72 73  1  0
 74 73  2  0
 75 74  1  0
 76 50  1  0
 76 77  1  0
 76 86  1  0
 77 80  1  0
 78 82  1  0
 78 77  1  0
 79 78  2  0
 82 81  1  0
 84 82  1  0
 84 85  1  0
 84 83  1  0
 86 89  1  1
 86 87  1  0
 88 86  1  0
M  ISO  4   9 100  17 100  48 101  49 101
M  END
>  <TORSDO>  (28) 
F 18

>  <SCORE>  (28) 
-16.452

>  <name>  (28) 
28

>  <ligand_id>  (28) 
28

>  <original_smiles>  (28) 
[H]c1c([H])c([H])c2c(c1[H])C([H])([H])C([H])([H])C([H])([H])C2([H])N([H])C(=O)C1([H])N(C(=O)C([H])(N([H])C(=O)C([H])(N([H])C([H])([H])[H])C([H])([H])[H])C(C([H])([H])[H])(C([H])([H])[H])C([H])([H])[H])C([H])([H])c2c([H])c(OC([H])([H])C([H])([H])[N+]3([H])C([H])([H])C([H])([H])C([H])([H])C([H])([H])C([H])(N([H])C(=O)N4C([H])([H])C([H])([H])C([H])([H])C([H])(n5nc(-c6c([H])c([H])c(Oc7c([H])c([H])c(F)c([H])c7F)c([H])c6[H])c(C(=O)N([H])[H])c5N([H])[H])C4([H])[H])C3([H])[H])c([H])c([H])c2C1([H])[H]

>  <smiles>  (28) 
[H]c1c([H])c([H])c2c(c1[H])C([H])([H])C([H])([H])C([H])([H])C2([H])N([H])C(=O)C1([H])N(C(=O)C([H])(N([H])C(=O)C([H])(N([H])C([H])([H])[H])C([H])([H])[H])C(C([H])([H])[H])(C([H])([H])[H])C([H])([H])[H])C([H])([H])c2c([H])c(OC([H])([H])C([H])([H])[N+]3([H])C([H])([H])C([H])([H])C([H])([H])C([H])([H])C([H])(N([H])C(=O)N4C([H])([H])C([H])([H])C([H])([H])C([H])(n5nc(-c6c([H])c([H])c(Oc7c([H])c([H])c(F)c([H])c7F)c([H])c6[H])c(C(=O)N([H])[H])c5N([H])[H])C4([H])[H])C3([H])[H])c([H])c([H])c2C1([H])[H]

$$$$
29:0:0
     RDKit          3D

 90 98  0  0  1  0  0  0  0  0999 V2000
  -30.4010  -15.4490   20.3170 C   0  0  0  0  0  0  0  0  0  0  0  0
  -30.4120  -12.9380   19.5370 C   0  0  0  0  0  2  0  0  0  0  0  0
  -29.5480  -12.5960   18.2980 C   0  0  0  0  0  2  0  0  0  0  0  0
  -28.0880  -12.3190   18.7060 C   0  0  0  0  0  2  0  0  0  0  0  0
  -27.5830  -13.3320   19.7650 C   0  0  0  0  0  3  0  0  0  0  0  0
  -28.5970  -13.6010   20.8970 C   0  0  0  0  0  2  0  0  0  0  0  0
  -29.8090  -14.1380   20.2490 N   0  0  0  0  0  0  0  0  0  0  0  0
  -31.6380  -15.3480   20.2380 O   0  0  0  0  0  0  0  0  0  0  0  0
  -30.2020  -18.1760   20.9370 C   0  0  0  0  0  0  0  0  0  0  0  0
  -30.7750  -18.1400   22.1810 C   0  0  0  0  0  0  0  0  0  0  0  0
  -30.0960  -19.7270   20.1850 C   0  0  0  0  0  2  0  0  0  0  0  0
  -27.5880  -18.4490   20.3770 C   0  0  0  0  0  2  0  0  0  0  0  0
  -28.4630  -17.2610   19.6640 C   0  0  0  0  0  2  0  0  0  0  0  0
  -27.6120  -20.0630   20.1120 C   0  0  0  0  0  2  0  0  0  0  0  0
  -30.9690  -16.8770   23.0140 C   0  0  0  0  0  1  0  0  0  0  0  0
  -31.2940  -19.3820   22.9010 C   0  0  0  0  0  1  0  0  0  0  0  0
  -29.7340  -16.8300   20.3560 N   0  0  0  0  0  0  0  0  0  0  0  0
  -28.9090  -20.8380   20.0410 N   0  0  1  0  0  4  0  0  0  0  0  0
  -28.9650  -20.9160   19.0340 H   0  0  0  0  0  0  0  0  0  0  0  0
  -25.2160  -13.9200   20.4780 C   0  0  0  0  0  0  0  0  0  0  0  0
  -24.1380  -13.1590   20.8300 C   0  0  0  0  0  0  0  0  0  0  0  0
  -24.5920  -11.8050   20.8320 C   0  0  0  0  0  0  0  0  0  0  0  0
  -26.2520  -13.0290   20.2630 N   0  0  0  0  0  0  0  0  0  0  0  0
  -25.8920  -11.7510   20.5490 N   0  0  0  0  0  0  0  0  0  0  0  0
  -23.8410  -10.5590   21.0230 C   0  0  0  0  0  0  0  0  0  0  0  0
  -24.2500   -9.5890   21.9640 C   0  0  0  0  0  3  0  0  0  0  0  0
  -23.5000   -8.4080   22.1480 C   0  0  0  0  0  3  0  0  0  0  0  0
  -22.3220   -8.1880   21.3950 C   0  0  0  0  0  0  0  0  0  0  0  0
  -21.9280   -9.1510   20.4460 C   0  0  0  0  0  3  0  0  0  0  0  0
  -22.6800  -10.3230   20.2590 C   0  0  0  0  0  3  0  0  0  0  0  0
  -21.5450   -7.0590   21.4870 O   0  0  0  0  0  0  0  0  0  0  0  0
  -21.5030   -6.3060   22.6340 C   0  0  0  0  0  0  0  0  0  0  0  0
  -21.1420   -6.8630   23.8800 C   0  0  0  0  0  3  0  0  0  0  0  0
  -21.0450   -6.0380   25.0180 C   0  0  0  0  0  3  0  0  0  0  0  0
  -21.2980   -4.6580   24.9120 C   0  0  0  0  0  0  0  0  0  0  0  0
  -21.6520   -4.1000   23.6720 C   0  0  0  0  0  3  0  0  0  0  0  0
  -21.7520   -4.9220   22.5340 C   0  0  0  0  0  0  0  0  0  0  0  0
  -22.0720   -4.3740   21.3390 F   0  0  0  0  0  0  0  0  0  0  0  0
  -21.1960   -3.8660   26.0040 F   0  0  0  0  0  0  0  0  0  0  0  0
  -22.7380  -13.6610   21.0470 C   0  0  0  0  0  0  0  0  0  0  0  0
  -21.9710  -13.0120   21.9120 N   0  0  0  0  0  0  0  0  0  0  0  0
  -22.3330  -14.6760   20.4800 O   0  0  0  0  0  0  0  0  0  0  0  0
  -22.2960  -12.1990   22.4160 H   0  0  0  0  0  0  0  0  0  0  0  0
  -21.0340  -13.3470   22.0870 H   0  0  0  0  0  0  0  0  0  0  0  0
  -25.3920  -15.2870   20.2910 N   0  0  0  0  0  0  0  0  0  0  0  0
  -24.6150  -15.9370   20.3750 H   0  0  0  0  0  0  0  0  0  0  0  0
  -26.2540  -15.7300   20.0080 H   0  0  0  0  0  0  0  0  0  0  0  0
  -28.9880  -22.5250   20.3590 C   0  0  0  0  0  3  0  0  0  0  0  0
  -28.0690  -24.0500   19.8270 C   0  0  0  0  0  3  0  0  0  0  0  0
  -28.2410  -25.7300   20.0070 O   0  0  0  0  0  0  0  0  0  0  0  0
  -24.6920  -31.7570   23.0100 C   0  0  0  0  0  0  0  0  0  0  0  0
  -27.2350  -26.8620   19.9310 C   0  0  0  0  0  0  0  0  0  0  0  0
  -23.4920  -30.3670   21.3750 C   0  0  0  0  0  3  0  0  0  0  0  0
  -24.9340  -28.7770   19.9180 C   0  0  0  0  0  0  0  0  0  0  0  0
  -26.0580  -30.5830   21.2010 C   0  0  0  0  0  2  0  0  0  0  0  0
  -26.1280  -29.1740   20.5320 C   0  0  0  0  0  0  0  0  0  0  0  0
  -27.2690  -28.2380   20.5110 C   0  0  0  0  0  3  0  0  0  0  0  0
  -26.0100  -26.6410   19.2590 C   0  0  0  0  0  3  0  0  0  0  0  0
  -24.9030  -27.5380   19.2580 C   0  0  0  0  0  3  0  0  0  0  0  0
  -23.7090  -29.6930   19.9910 C   0  0  0  0  0  2  0  0  0  0  0  0
  -24.7720  -30.9300   21.9150 N   0  0  0  0  0  0  0  0  0  0  0  0
  -23.6100  -32.0330   23.5510 O   0  0  0  0  0  0  0  0  0  0  0  0
  -22.8150  -29.3600   22.3430 C   0  0  0  0  0  0  0  0  0  0  0  0
  -21.4810  -29.2030   22.2530 N   0  0  0  0  0  0  0  0  0  0  0  0
  -23.5000  -28.7180   23.1400 O   0  0  0  0  0  0  0  0  0  0  0  0
  -20.9770  -29.7700   21.5850 H   0  0  0  0  0  0  0  0  0  0  0  0
  -18.1120  -27.9880   22.8440 C   0  0  0  0  0  0  0  0  0  0  0  0
  -20.6810  -28.2510   23.0320 C   0  0  0  0  0  3  0  0  0  0  0  0
  -20.7650  -26.8280   22.4290 C   0  0  0  0  0  2  0  0  0  0  0  0
  -19.6310  -26.5260   21.4420 C   0  0  0  0  0  2  0  0  0  0  0  0
  -18.2700  -26.6560   22.1300 C   0  0  0  0  0  2  0  0  0  0  0  0
  -19.2440  -28.7440   23.2540 C   0  0  0  0  0  0  0  0  0  0  0  0
  -19.0380  -29.9910   23.8820 C   0  0  0  0  0  3  0  0  0  0  0  0
  -17.7400  -30.4820   24.1050 C   0  0  0  0  0  3  0  0  0  0  0  0
  -16.6240  -29.7220   23.7140 C   0  0  0  0  0  3  0  0  0  0  0  0
  -16.8120  -28.4770   23.0860 C   0  0  0  0  0  3  0  0  0  0  0  0
  -25.9650  -32.4170   23.6270 C   0  0  0  0  0  3  0  0  0  0  0  0
  -25.6220  -33.7910   24.0360 N   0  0  0  0  0  0  0  0  0  0  0  0
  -25.9040  -34.8960   23.3330 C   0  0  0  0  0  0  0  0  0  0  0  0
  -26.5400  -34.8650   22.2750 O   0  0  0  0  0  0  0  0  0  0  0  0
  -25.0570  -33.8870   24.8680 H   0  0  0  0  0  0  0  0  0  0  0  0
  -24.1180  -36.6610   23.1450 C   0  0  0  0  0  1  0  0  0  0  0  0
  -25.4010  -36.2460   23.8830 C   0  0  0  0  0  3  0  0  0  0  0  0
  -27.5440  -37.1470   24.6760 C   0  0  0  0  0  1  0  0  0  0  0  0
  -26.4010  -37.3330   23.7870 N   0  0  0  0  0  0  0  0  0  0  0  0
  -25.9750  -38.2300   24.0020 H   0  0  0  0  0  0  0  0  0  0  0  0
  -26.5370  -31.6150   24.8620 C   0  0  1  0  0  0  0  0  0  0  0  0
  -25.4810  -31.3120   25.9520 C   0  0  0  0  0  1  0  0  0  0  0  0
  -27.1380  -30.2630   24.4160 C   0  0  0  0  0  1  0  0  0  0  0  0
  -27.6920  -32.4090   25.5160 C   0  0  0  0  0  1  0  0  0  0  0  0
  1 17  1  0
  2  7  1  0
  3  4  1  0
  3  2  1  0
  5  4  1  0
  5 23  1  0
  5  6  1  0
  7  1  1  0
  7  6  1  0
  8  1  2  0
  9 10  2  0
 10 16  1  0
 10 15  1  0
 11  9  1  0
 13 17  1  0
 13 12  1  0
 14 12  1  0
 17  9  1  0
 18 14  1  0
 18 11  1  0
 18 48  1  0
 18 19  1  6
 20 21  2  0
 21 22  1  0
 21 40  1  0
 22 25  1  0
 23 20  1  0
 23 24  1  0
 24 22  2  0
 25 26  1  0
 26 27  2  0
 28 31  1  0
 28 27  1  0
 29 28  2  0
 30 29  1  0
 30 25  2  0
 31 32  1  0
 32 33  1  0
 33 34  2  0
 35 34  1  0
 35 39  1  0
 36 35  2  0
 37 32  2  0
 37 36  1  0
 38 37  1  0
 40 41  1  0
 41 44  1  0
 41 43  1  0
 42 40  2  0
 45 46  1  0
 45 20  1  0
 47 45  1  0
 49 50  1  0
 49 48  2  0
 51 62  2  0
 52 50  1  0
 52 57  1  0
 53 61  1  0
 53 63  1  0
 54 60  1  0
 54 56  1  0
 55 61  1  0
 56 55  1  0
 57 56  2  0
 58 52  2  0
 59 58  1  0
 59 54  2  0
 60 53  1  0
 61 51  1  0
 63 65  2  0
 64 63  1  0
 66 64  1  0
 67 76  2  0
 67 72  1  0
 68 64  1  0
 68 72  1  0
 69 68  1  0
 70 71  1  0
 70 69  1  0
 71 67  1  0
 72 73  2  0
 73 74  1  0
 75 74  2  0
 76 75  1  0
 77 51  1  0
 77 78  1  0
 77 87  1  0
 78 81  1  0
 79 83  1  0
 79 78  1  0
 80 79  2  0
 83 82  1  0
 85 83  1  0
 85 86  1  0
 85 84  1  0
 87 90  1  1
 87 88  1  0
 89 87  1  0
M  ISO  4   1 100  17 100  49 101  50 101
M  END
>  <TORSDO>  (29) 
F 17

>  <SCORE>  (29) 
-15.697

>  <name>  (29) 
29

>  <ligand_id>  (29) 
29

>  <original_smiles>  (29) 
[H]c1c([H])c([H])c2c(c1[H])C([H])([H])C([H])([H])C([H])([H])C2([H])N([H])C(=O)C1([H])N(C(=O)C([H])(N([H])C(=O)C([H])(N([H])C([H])([H])[H])C([H])([H])[H])C(C([H])([H])[H])(C([H])([H])[H])C([H])([H])[H])C([H])([H])c2c([H])c(OC([H])([H])C([H])([H])[N+]3([H])C([H])([H])C(=C(C([H])([H])[H])C([H])([H])[H])N(C(=O)N4C([H])([H])C([H])([H])C([H])([H])C([H])(n5nc(-c6c([H])c([H])c(Oc7c([H])c([H])c(F)c([H])c7F)c([H])c6[H])c(C(=O)N([H])[H])c5N([H])[H])C4([H])[H])C([H])([H])C([H])([H])C3([H])[H])c([H])c([H])c2C1([H])[H]

>  <smiles>  (29) 
[H]c1c([H])c([H])c2c(c1[H])C([H])([H])C([H])([H])C([H])([H])C2([H])N([H])C(=O)C1([H])N(C(=O)C([H])(N([H])C(=O)C([H])(N([H])C([H])([H])[H])C([H])([H])[H])C(C([H])([H])[H])(C([H])([H])[H])C([H])([H])[H])C([H])([H])c2c([H])c(OC([H])([H])C([H])([H])[N+]3([H])C([H])([H])C(=C(C([H])([H])[H])C([H])([H])[H])N(C(=O)N4C([H])([H])C([H])([H])C([H])([H])C([H])(n5nc(-c6c([H])c([H])c(Oc7c([H])c([H])c(F)c([H])c7F)c([H])c6[H])c(C(=O)N([H])[H])c5N([H])[H])C4([H])[H])C([H])([H])C([H])([H])C3([H])[H])c([H])c([H])c2C1([H])[H]

$$$$
30:0:0
     RDKit          3D

 95103  0  0  1  0  0  0  0  0999 V2000
  -29.6740  -21.6080   20.7670 C   0  0  0  0  0  3  0  0  0  0  0  0
  -29.2350  -22.5990   20.0040 N   0  0  0  0  0  0  0  0  0  0  0  0
  -28.9230  -22.3900   19.0520 H   0  0  0  0  0  0  0  0  0  0  0  0
  -30.9630  -19.4540   20.1550 C   0  0  0  0  0  3  0  0  0  0  0  0
  -31.0380  -18.0250   20.1130 C   0  0  0  0  0  3  0  0  0  0  0  0
  -28.5580  -19.3540   20.2840 C   0  0  0  0  0  3  0  0  0  0  0  0
  -29.7270  -20.1460   20.2910 C   0  0  0  0  0  0  0  0  0  0  0  0
  -29.8630  -17.2330   20.1990 C   0  0  0  0  0  0  0  0  0  0  0  0
  -28.6300  -17.9350   20.2420 C   0  0  0  0  0  0  0  0  0  0  0  0
  -27.4860  -17.2100   20.3020 F   0  0  0  0  0  0  0  0  0  0  0  0
  -30.6110  -14.7460   19.9700 C   0  0  0  0  0  0  0  0  0  0  0  0
  -30.3360  -12.5140   18.9210 C   0  0  0  0  0  2  0  0  0  0  0  0
  -29.3200  -12.6580   17.7660 C   0  0  0  0  0  2  0  0  0  0  0  0
  -27.8710  -12.5270   18.2800 C   0  0  0  0  0  2  0  0  0  0  0  0
  -27.5950  -13.3880   19.5430 C   0  0  0  0  0  3  0  0  0  0  0  0
  -28.7160  -13.1990   20.5920 C   0  0  0  0  0  2  0  0  0  0  0  0
  -29.9970  -13.5230   19.9400 N   0  0  0  0  0  0  0  0  0  0  0  0
  -31.7600  -14.9090   19.5460 O   0  0  0  0  0  0  0  0  0  0  0  0
  -29.7890  -15.7820   20.3050 N   0  0  0  0  0  0  0  0  0  0  0  0
  -28.8780  -15.4610   20.6000 H   0  0  0  0  0  0  0  0  0  0  0  0
  -25.2680  -14.0210   20.4290 C   0  0  0  0  0  0  0  0  0  0  0  0
  -24.2030  -13.2630   20.8320 C   0  0  0  0  0  0  0  0  0  0  0  0
  -24.6240  -11.9020   20.7220 C   0  0  0  0  0  0  0  0  0  0  0  0
  -26.2720  -13.1230   20.1010 N   0  0  0  0  0  0  0  0  0  0  0  0
  -25.8920  -11.8420   20.3370 N   0  0  0  0  0  0  0  0  0  0  0  0
  -23.8750  -10.6530   20.9080 C   0  0  0  0  0  0  0  0  0  0  0  0
  -24.3120   -9.6560   21.8060 C   0  0  0  0  0  3  0  0  0  0  0  0
  -23.5640   -8.4720   21.9790 C   0  0  0  0  0  3  0  0  0  0  0  0
  -22.3650   -8.2770   21.2530 C   0  0  0  0  0  0  0  0  0  0  0  0
  -21.9470   -9.2640   20.3440 C   0  0  0  0  0  3  0  0  0  0  0  0
  -22.6950  -10.4390   20.1690 C   0  0  0  0  0  3  0  0  0  0  0  0
  -21.5870   -7.1500   21.3400 O   0  0  0  0  0  0  0  0  0  0  0  0
  -21.5290   -6.4010   22.4860 C   0  0  0  0  0  0  0  0  0  0  0  0
  -21.0860   -6.9460   23.7110 C   0  0  0  0  0  3  0  0  0  0  0  0
  -20.9770   -6.1230   24.8500 C   0  0  0  0  0  3  0  0  0  0  0  0
  -21.3010   -4.7560   24.7650 C   0  0  0  0  0  0  0  0  0  0  0  0
  -21.7380   -4.2100   23.5450 C   0  0  0  0  0  3  0  0  0  0  0  0
  -21.8490   -5.0310   22.4080 C   0  0  0  0  0  0  0  0  0  0  0  0
  -22.2520   -4.4960   21.2300 F   0  0  0  0  0  0  0  0  0  0  0  0
  -21.1880   -3.9620   25.8550 F   0  0  0  0  0  0  0  0  0  0  0  0
  -22.8400  -13.7670   21.2100 C   0  0  0  0  0  0  0  0  0  0  0  0
  -22.1470  -13.0550   22.0920 N   0  0  0  0  0  0  0  0  0  0  0  0
  -22.4010  -14.8250   20.7630 O   0  0  0  0  0  0  0  0  0  0  0  0
  -22.5140  -12.1960   22.4740 H   0  0  0  0  0  0  0  0  0  0  0  0
  -21.2370  -13.3740   22.3920 H   0  0  0  0  0  0  0  0  0  0  0  0
  -25.4540  -15.3930   20.3000 N   0  0  0  0  0  0  0  0  0  0  0  0
  -24.7200  -16.0540   20.5250 H   0  0  0  0  0  0  0  0  0  0  0  0
  -26.3350  -15.8500   20.0910 H   0  0  0  0  0  0  0  0  0  0  0  0
  -30.4970  -21.1250   22.8910 C   0  0  0  0  0  3  0  0  0  0  0  0
  -30.0580  -21.9680   22.0310 N   0  0  0  0  0  0  0  0  0  0  0  0
  -30.4320  -20.3620   25.2960 C   0  0  0  0  0  1  0  0  0  0  0  0
  -30.8530  -21.4730   24.3180 C   0  0  0  0  0  2  0  0  0  0  0  0
  -29.3110  -24.1120   20.3160 C   0  0  0  0  0  3  0  0  0  0  0  0
  -28.2470  -25.1390   19.6990 C   0  0  0  0  0  3  0  0  0  0  0  0
  -28.3110  -26.6190   19.8280 O   0  0  0  0  0  0  0  0  0  0  0  0
  -24.4880  -31.7570   23.0760 C   0  0  0  0  0  0  0  0  0  0  0  0
  -27.1440  -27.4020   19.8110 C   0  0  0  0  0  0  0  0  0  0  0  0
  -23.2730  -30.3860   21.4180 C   0  0  0  0  0  3  0  0  0  0  0  0
  -24.7240  -28.9220   19.9020 C   0  0  0  0  0  0  0  0  0  0  0  0
  -25.7900  -30.7920   21.1680 C   0  0  0  0  0  2  0  0  0  0  0  0
  -25.8910  -29.4380   20.4800 C   0  0  0  0  0  0  0  0  0  0  0  0
  -27.0990  -28.6890   20.4280 C   0  0  0  0  0  3  0  0  0  0  0  0
  -25.9540  -26.9260   19.2150 C   0  0  0  0  0  3  0  0  0  0  0  0
  -24.7570  -27.6720   19.2600 C   0  0  0  0  0  3  0  0  0  0  0  0
  -23.4650  -29.7620   20.0080 C   0  0  0  0  0  2  0  0  0  0  0  0
  -24.5350  -30.9960   21.9420 N   0  0  0  0  0  0  0  0  0  0  0  0
  -23.4150  -31.9840   23.6550 O   0  0  0  0  0  0  0  0  0  0  0  0
  -22.6670  -29.3190   22.3640 C   0  0  0  0  0  0  0  0  0  0  0  0
  -21.3480  -29.0860   22.2510 N   0  0  0  0  0  0  0  0  0  0  0  0
  -23.3830  -28.7030   23.1570 O   0  0  0  0  0  0  0  0  0  0  0  0
  -20.8250  -29.6380   21.5860 H   0  0  0  0  0  0  0  0  0  0  0  0
  -18.0360  -27.7230   22.7400 C   0  0  0  0  0  0  0  0  0  0  0  0
  -20.5810  -28.0970   23.0080 C   0  0  0  0  0  3  0  0  0  0  0  0
  -20.7500  -26.6820   22.4090 C   0  0  0  0  0  2  0  0  0  0  0  0
  -19.6620  -26.3270   21.3920 C   0  0  0  0  0  2  0  0  0  0  0  0
  -18.2750  -26.3960   22.0410 C   0  0  0  0  0  2  0  0  0  0  0  0
  -19.1190  -28.5300   23.1810 C   0  0  0  0  0  0  0  0  0  0  0  0
  -18.8420  -29.7730   23.7930 C   0  0  0  0  0  3  0  0  0  0  0  0
  -17.5170  -30.2090   23.9710 C   0  0  0  0  0  3  0  0  0  0  0  0
  -16.4470  -29.4000   23.5450 C   0  0  0  0  0  3  0  0  0  0  0  0
  -16.7080  -28.1590   22.9380 C   0  0  0  0  0  3  0  0  0  0  0  0
  -25.7720  -32.4020   23.6840 C   0  0  0  0  0  3  0  0  0  0  0  0
  -25.4410  -33.7800   24.0710 N   0  0  0  0  0  0  0  0  0  0  0  0
  -25.7410  -34.8670   23.3480 C   0  0  0  0  0  0  0  0  0  0  0  0
  -26.3960  -34.8160   22.3040 O   0  0  0  0  0  0  0  0  0  0  0  0
  -24.8640  -33.8910   24.8910 H   0  0  0  0  0  0  0  0  0  0  0  0
  -23.9790  -36.6390   23.0780 C   0  0  0  0  0  1  0  0  0  0  0  0
  -25.2330  -36.2270   23.8640 C   0  0  0  0  0  3  0  0  0  0  0  0
  -27.3520  -37.1220   24.7240 C   0  0  0  0  0  1  0  0  0  0  0  0
  -26.2450  -37.3020   23.7870 N   0  0  0  0  0  0  0  0  0  0  0  0
  -25.8230  -38.2090   23.9670 H   0  0  0  0  0  0  0  0  0  0  0  0
  -26.3470  -31.6020   24.9160 C   0  0  1  0  0  0  0  0  0  0  0  0
  -25.2940  -31.2960   26.0060 C   0  0  0  0  0  1  0  0  0  0  0  0
  -26.9550  -30.2580   24.4520 C   0  0  0  0  0  1  0  0  0  0  0  0
  -27.4970  -32.4020   25.5730 C   0  0  0  0  0  1  0  0  0  0  0  0
  1 50  1  0
  2 53  1  0
  2  1  1  0
  3  2  1  0
  4  7  1  0
  5  4  2  0
  5  8  1  0
  6  7  2  0
  7  1  1  0
  8  9  2  0
  8 19  1  0
  9  6  1  0
  9 10  1  0
 11 19  1  0
 12 17  1  0
 13 14  1  0
 13 12  1  0
 15 14  1  0
 15 24  1  0
 15 16  1  0
 17 11  1  0
 17 16  1  0
 18 11  2  0
 19 20  1  0
 21 22  2  0
 22 41  1  0
 23 22  1  0
 23 26  1  0
 24 25  1  0
 24 21  1  0
 25 23  2  0
 26 27  1  0
 27 28  2  0
 29 32  1  0
 29 28  1  0
 30 29  2  0
 31 30  1  0
 31 26  2  0
 32 33  1  0
 33 34  1  0
 34 35  2  0
 36 35  1  0
 36 40  1  0
 37 36  2  0
 38 33  2  0
 38 37  1  0
 39 38  1  0
 41 42  1  0
 42 45  1  0
 42 44  1  0
 43 41  2  0
 46 21  1  0
 46 47  1  0
 48 46  1  0
 49 52  1  0
 50 49  2  0
 52 51  1  0
 54 55  1  0
 54 53  2  0
 56 67  2  0
 57 55  1  0
 57 62  1  0
 58 66  1  0
 58 68  1  0
 59 65  1  0
 59 61  1  0
 60 66  1  0
 61 60  1  0
 62 61  2  0
 63 64  1  0
 63 57  2  0
 64 59  2  0
 65 58  1  0
 66 56  1  0
 68 70  2  0
 69 68  1  0
 71 69  1  0
 72 81  2  0
 72 77  1  0
 73 69  1  0
 73 77  1  0
 74 73  1  0
 75 76  1  0
 75 74  1  0
 76 72  1  0
 77 78  2  0
 78 79  1  0
 80 79  2  0
 81 80  1  0
 82 56  1  0
 82 83  1  0
 82 92  1  0
 83 86  1  0
 84 88  1  0
 84 83  1  0
 85 84  2  0
 88 87  1  0
 90 88  1  0
 90 91  1  0
 90 89  1  0
 92 95  1  1
 92 93  1  0
 94 92  1  0
M  ISO  4  11 100  19 100  54 101  55 101
M  END
>  <TORSDO>  (30) 
F 21

>  <SCORE>  (30) 
-12.818

>  <name>  (30) 
30

>  <ligand_id>  (30) 
30

>  <original_smiles>  (30) 
[H]C(=NC(c1c([H])c([H])c(N([H])C(=O)N2C([H])([H])C([H])([H])C([H])([H])C([H])(n3nc(-c4c([H])c([H])c(Oc5c([H])c([H])c(F)c([H])c5F)c([H])c4[H])c(C(=O)N([H])[H])c3N([H])[H])C2([H])[H])c(F)c1[H])=[N+]([H])C([H])([H])C([H])([H])Oc1c([H])c([H])c2c(c1[H])C([H])([H])N(C(=O)C([H])(N([H])C(=O)C([H])(N([H])C([H])([H])[H])C([H])([H])[H])C(C([H])([H])[H])(C([H])([H])[H])C([H])([H])[H])C([H])(C(=O)N([H])C1([H])c3c([H])c([H])c([H])c([H])c3C([H])([H])C([H])([H])C1([H])[H])C2([H])[H])C([H])([H])C([H])([H])[H]

>  <smiles>  (30) 
[H]C(=NC(c1c([H])c([H])c(N([H])C(=O)N2C([H])([H])C([H])([H])C([H])([H])C([H])(n3nc(-c4c([H])c([H])c(Oc5c([H])c([H])c(F)c([H])c5F)c([H])c4[H])c(C(=O)N([H])[H])c3N([H])[H])C2([H])[H])c(F)c1[H])=[N+]([H])C([H])([H])C([H])([H])Oc1c([H])c([H])c2c(c1[H])C([H])([H])N(C(=O)C([H])(N([H])C(=O)C([H])(N([H])C([H])([H])[H])C([H])([H])[H])C(C([H])([H])[H])(C([H])([H])[H])C([H])([H])[H])C([H])(C(=O)N([H])C1([H])c3c([H])c([H])c([H])c([H])c3C([H])([H])C([H])([H])C1([H])[H])C2([H])[H])C([H])([H])C([H])([H])[H]

$$$$
31:0:0
     RDKit          3D

 93101  0  0  1  0  0  0  0  0999 V2000
  -29.1830  -21.5800   20.4840 C   0  0  0  0  0  2  0  0  0  0  0  0
  -30.8550  -19.4780   20.7370 C   0  0  0  0  0  3  0  0  0  0  0  0
  -31.1140  -18.0610   20.8070 C   0  0  0  0  0  3  0  0  0  0  0  0
  -28.8270  -17.6410   20.2440 C   0  0  0  0  0  3  0  0  0  0  0  0
  -29.5630  -20.0220   20.4340 C   0  0  0  0  0  0  0  0  0  0  0  0
  -28.5510  -19.0390   20.1920 C   0  0  0  0  0  0  0  0  0  0  0  0
  -30.0910  -17.0960   20.5750 C   0  0  0  0  0  0  0  0  0  0  0  0
  -30.9880  -14.6420   20.1240 C   0  0  0  0  0  0  0  0  0  0  0  0
  -30.7470  -12.4310   18.9850 C   0  0  0  0  0  2  0  0  0  0  0  0
  -29.7450  -12.6030   17.8190 C   0  0  0  0  0  2  0  0  0  0  0  0
  -28.2860  -12.4710   18.3050 C   0  0  0  0  0  2  0  0  0  0  0  0
  -28.0060  -13.2900   19.5930 C   0  0  0  0  0  3  0  0  0  0  0  0
  -29.1050  -13.0370   20.6490 C   0  0  0  0  0  2  0  0  0  0  0  0
  -30.3920  -13.4070   20.0370 N   0  0  0  0  0  0  0  0  0  0  0  0
  -32.1170  -14.8450   19.6660 O   0  0  0  0  0  0  0  0  0  0  0  0
  -30.1720  -15.6290   20.6220 N   0  0  0  0  0  0  0  0  0  0  0  0
  -29.3550  -15.2100   21.0410 H   0  0  0  0  0  0  0  0  0  0  0  0
  -25.6560  -13.9350   20.4060 C   0  0  0  0  0  0  0  0  0  0  0  0
  -24.5820  -13.1810   20.7940 C   0  0  0  0  0  0  0  0  0  0  0  0
  -25.0090  -11.8200   20.7190 C   0  0  0  0  0  0  0  0  0  0  0  0
  -26.6690  -13.0330   20.1180 N   0  0  0  0  0  0  0  0  0  0  0  0
  -26.2870  -11.7550   20.3650 N   0  0  0  0  0  0  0  0  0  0  0  0
  -24.2580  -10.5730   20.9090 C   0  0  0  0  0  0  0  0  0  0  0  0
  -24.6630   -9.6040   21.8520 C   0  0  0  0  0  3  0  0  0  0  0  0
  -23.9170   -8.4190   22.0280 C   0  0  0  0  0  3  0  0  0  0  0  0
  -22.7490   -8.1950   21.2610 C   0  0  0  0  0  0  0  0  0  0  0  0
  -22.3640   -9.1510   20.3040 C   0  0  0  0  0  3  0  0  0  0  0  0
  -23.1110  -10.3280   20.1270 C   0  0  0  0  0  3  0  0  0  0  0  0
  -21.9770   -7.0630   21.3420 O   0  0  0  0  0  0  0  0  0  0  0  0
  -21.8200   -6.3860   22.5230 C   0  0  0  0  0  0  0  0  0  0  0  0
  -21.3170   -7.0150   23.6820 C   0  0  0  0  0  3  0  0  0  0  0  0
  -21.1060   -6.2640   24.8550 C   0  0  0  0  0  3  0  0  0  0  0  0
  -21.3880   -4.8850   24.8690 C   0  0  0  0  0  0  0  0  0  0  0  0
  -21.8830   -4.2550   23.7140 C   0  0  0  0  0  3  0  0  0  0  0  0
  -22.0950   -5.0040   22.5430 C   0  0  0  0  0  0  0  0  0  0  0  0
  -22.5540   -4.3880   21.4270 F   0  0  0  0  0  0  0  0  0  0  0  0
  -21.1770   -4.1610   25.9930 F   0  0  0  0  0  0  0  0  0  0  0  0
  -23.2080  -13.6880   21.1250 C   0  0  0  0  0  0  0  0  0  0  0  0
  -22.5030  -13.0030   22.0200 N   0  0  0  0  0  0  0  0  0  0  0  0
  -22.7700  -14.7250   20.6270 O   0  0  0  0  0  0  0  0  0  0  0  0
  -22.8730  -12.1630   22.4420 H   0  0  0  0  0  0  0  0  0  0  0  0
  -21.5830  -13.3270   22.2860 H   0  0  0  0  0  0  0  0  0  0  0  0
  -25.8450  -15.3050   20.2500 N   0  0  0  0  0  0  0  0  0  0  0  0
  -25.0860  -15.9640   20.3800 H   0  0  0  0  0  0  0  0  0  0  0  0
  -26.6710  -15.7300   19.8470 H   0  0  0  0  0  0  0  0  0  0  0  0
  -26.7550  -19.6690   18.4690 C   0  0  0  0  0  1  0  0  0  0  0  0
  -27.0900  -19.4170   19.9460 C   0  0  0  0  0  2  0  0  0  0  0  0
  -29.8170  -22.6130   19.5720 N   0  0  0  0  0  4  0  0  0  0  0  0
  -30.0010  -22.1310   18.7080 H   0  0  0  0  0  0  0  0  0  0  0  0
  -30.7200  -22.8640   19.9470 H   0  0  0  0  0  0  0  0  0  0  0  0
  -29.0570  -23.8910   19.1770 C   0  0  0  0  0  2  0  0  0  0  0  0
  -28.8790  -25.1090   20.1990 C   0  0  0  0  0  2  0  0  0  0  0  0
  -28.8370  -26.5060   19.6920 O   0  0  0  0  0  0  0  0  0  0  0  0
  -24.7170  -31.4640   22.9620 C   0  0  0  0  0  0  0  0  0  0  0  0
  -27.6440  -27.2400   19.7340 C   0  0  0  0  0  0  0  0  0  0  0  0
  -23.6240  -30.0910   21.2230 C   0  0  0  0  0  3  0  0  0  0  0  0
  -25.1890  -28.6990   19.7530 C   0  0  0  0  0  0  0  0  0  0  0  0
  -26.1410  -30.5670   21.1140 C   0  0  0  0  0  2  0  0  0  0  0  0
  -26.3120  -29.2320   20.3980 C   0  0  0  0  0  0  0  0  0  0  0  0
  -27.5430  -28.5120   20.3760 C   0  0  0  0  0  3  0  0  0  0  0  0
  -26.5010  -26.7520   19.0740 C   0  0  0  0  0  3  0  0  0  0  0  0
  -25.2840  -27.4650   19.0840 C   0  0  0  0  0  3  0  0  0  0  0  0
  -23.9060  -29.5030   19.8160 C   0  0  0  0  0  2  0  0  0  0  0  0
  -24.8430  -30.7230   21.8250 N   0  0  0  0  0  0  0  0  0  0  0  0
  -23.6100  -31.6490   23.4910 O   0  0  0  0  0  0  0  0  0  0  0  0
  -23.0110  -28.9870   22.1160 C   0  0  0  0  0  0  0  0  0  0  0  0
  -21.6930  -28.7600   21.9800 N   0  0  0  0  0  0  0  0  0  0  0  0
  -23.7180  -28.3380   22.8930 O   0  0  0  0  0  0  0  0  0  0  0  0
  -21.1770  -29.3340   21.3260 H   0  0  0  0  0  0  0  0  0  0  0  0
  -18.3610  -27.4300   22.4350 C   0  0  0  0  0  0  0  0  0  0  0  0
  -20.9160  -27.7430   22.6900 C   0  0  0  0  0  3  0  0  0  0  0  0
  -21.0500  -26.3630   22.0050 C   0  0  0  0  0  2  0  0  0  0  0  0
  -19.9420  -26.0850   20.9850 C   0  0  0  0  0  2  0  0  0  0  0  0
  -18.5660  -26.1430   21.6550 C   0  0  0  0  0  2  0  0  0  0  0  0
  -19.4640  -28.1880   22.9080 C   0  0  0  0  0  0  0  0  0  0  0  0
  -19.2220  -29.3940   23.5980 C   0  0  0  0  0  3  0  0  0  0  0  0
  -17.9080  -29.8420   23.8250 C   0  0  0  0  0  3  0  0  0  0  0  0
  -16.8180  -29.0780   23.3760 C   0  0  0  0  0  3  0  0  0  0  0  0
  -17.0440  -27.8760   22.6810 C   0  0  0  0  0  3  0  0  0  0  0  0
  -25.9500  -32.1370   23.6380 C   0  0  0  0  0  3  0  0  0  0  0  0
  -25.5590  -33.4980   24.0300 N   0  0  0  0  0  0  0  0  0  0  0  0
  -25.8560  -34.6050   23.3380 C   0  0  0  0  0  0  0  0  0  0  0  0
  -26.5610  -34.5910   22.3250 O   0  0  0  0  0  0  0  0  0  0  0  0
  -24.9450  -33.5810   24.8290 H   0  0  0  0  0  0  0  0  0  0  0  0
  -24.0530  -36.3200   23.0200 C   0  0  0  0  0  1  0  0  0  0  0  0
  -25.2850  -35.9380   23.8530 C   0  0  0  0  0  3  0  0  0  0  0  0
  -27.3410  -36.8830   24.8060 C   0  0  0  0  0  1  0  0  0  0  0  0
  -26.2650  -37.0460   23.8320 N   0  0  0  0  0  0  0  0  0  0  0  0
  -25.8070  -37.9350   24.0150 H   0  0  0  0  0  0  0  0  0  0  0  0
  -26.4870  -31.3350   24.8890 C   0  0  1  0  0  0  0  0  0  0  0  0
  -25.3910  -30.9950   25.9250 C   0  0  0  0  0  1  0  0  0  0  0  0
  -27.1480  -30.0070   24.4450 C   0  0  0  0  0  1  0  0  0  0  0  0
  -27.5790  -32.1560   25.6110 C   0  0  0  0  0  1  0  0  0  0  0  0
  2  3  1  0
  4  7  1  0
  5  1  1  0
  5  2  2  0
  6  4  2  0
  6  5  1  0
  7 16  1  0
  7  3  2  0
  8 16  1  0
  9 14  1  0
 10 11  1  0
 10  9  1  0
 12 11  1  0
 12 21  1  0
 12 13  1  0
 14  8  1  0
 14 13  1  0
 15  8  2  0
 16 17  1  0
 18 19  2  0
 19 38  1  0
 20 19  1  0
 20 23  1  0
 21 22  1  0
 21 18  1  0
 22 20  2  0
 23 24  1  0
 24 25  2  0
 26 29  1  0
 26 25  1  0
 27 26  2  0
 28 27  1  0
 28 23  2  0
 29 30  1  0
 30 35  2  0
 30 31  1  0
 31 32  2  0
 32 33  1  0
 33 37  1  0
 34 33  2  0
 35 34  1  0
 36 35  1  0
 38 39  1  0
 39 42  1  0
 39 41  1  0
 40 38  2  0
 43 44  1  0
 43 18  1  0
 45 43  1  0
 46 47  1  0
 47  6  1  0
 48 50  1  0
 48  1  1  0
 49 48  1  0
 51 48  1  0
 51 52  1  0
 53 55  1  0
 53 52  1  0
 54 65  2  0
 55 60  1  0
 56 64  1  0
 56 66  1  0
 57 63  1  0
 57 59  1  0
 58 64  1  0
 59 58  1  0
 60 59  2  0
 61 62  1  0
 61 55  2  0
 62 57  2  0
 63 56  1  0
 64 54  1  0
 66 68  2  0
 67 66  1  0
 69 67  1  0
 70 79  2  0
 70 75  1  0
 71 67  1  0
 71 75  1  0
 72 71  1  0
 73 74  1  0
 73 72  1  0
 74 70  1  0
 75 76  2  0
 76 77  1  0
 78 77  2  0
 79 78  1  0
 80 54  1  0
 80 81  1  0
 80 90  1  0
 81 84  1  0
 82 86  1  0
 82 81  1  0
 83 82  2  0
 86 85  1  0
 88 86  1  0
 88 89  1  0
 88 87  1  0
 90 93  1  1
 90 91  1  0
 92 90  1  0
M  ISO  4   8 100  16 100  52 101  53 101
M  END
>  <TORSDO>  (31) 
F 21

>  <SCORE>  (31) 
-12.116

>  <name>  (31) 
31

>  <ligand_id>  (31) 
31

>  <original_smiles>  (31) 
[H]c1c([H])c([H])c2c(c1[H])C([H])([H])C([H])([H])C([H])([H])C2([H])N([H])C(=O)C1([H])N(C(=O)C([H])(N([H])C(=O)C([H])(N([H])C([H])([H])[H])C([H])([H])[H])C(C([H])([H])[H])(C([H])([H])[H])C([H])([H])[H])C([H])([H])c2c([H])c(OC([H])([H])C([H])([H])[N+]([H])([H])C([H])([H])c3c([H])c([H])c(N([H])C(=O)N4C([H])([H])C([H])([H])C([H])([H])C([H])(n5nc(-c6c([H])c([H])c(Oc7c([H])c([H])c(F)c([H])c7F)c([H])c6[H])c(C(=O)N([H])[H])c5N([H])[H])C4([H])[H])c([H])c3C([H])([H])C([H])([H])[H])c([H])c([H])c2C1([H])[H]

>  <smiles>  (31) 
[H]c1c([H])c([H])c2c(c1[H])C([H])([H])C([H])([H])C([H])([H])C2([H])N([H])C(=O)C1([H])N(C(=O)C([H])(N([H])C(=O)C([H])(N([H])C([H])([H])[H])C([H])([H])[H])C(C([H])([H])[H])(C([H])([H])[H])C([H])([H])[H])C([H])([H])c2c([H])c(OC([H])([H])C([H])([H])[N+]([H])([H])C([H])([H])c3c([H])c([H])c(N([H])C(=O)N4C([H])([H])C([H])([H])C([H])([H])C([H])(n5nc(-c6c([H])c([H])c(Oc7c([H])c([H])c(F)c([H])c7F)c([H])c6[H])c(C(=O)N([H])[H])c5N([H])[H])C4([H])[H])c([H])c3C([H])([H])C([H])([H])[H])c([H])c([H])c2C1([H])[H]

$$$$
32:0:0
     RDKit          3D

 81 85  0  0  1  0  0  0  0  0999 V2000
  -28.1090  -24.6470   20.3000 O   0  0  0  0  0  1  0  0  0  0  0  0
  -24.7100  -31.7810   23.1610 C   0  0  0  0  0  0  0  0  0  0  0  0
  -27.2070  -26.1440   20.2640 C   0  0  0  0  0  0  0  0  0  0  0  0
  -23.5560  -30.3680   21.5220 C   0  0  0  0  0  3  0  0  0  0  0  0
  -25.0090  -28.5810   20.1690 C   0  0  0  0  0  0  0  0  0  0  0  0
  -26.1560  -30.3130   21.5020 C   0  0  0  0  0  2  0  0  0  0  0  0
  -26.2110  -28.8120   20.8490 C   0  0  0  0  0  0  0  0  0  0  0  0
  -27.2590  -27.6460   20.8460 C   0  0  0  0  0  3  0  0  0  0  0  0
  -25.9680  -26.2870   19.5230 C   0  0  0  0  0  3  0  0  0  0  0  0
  -24.9660  -27.3480   19.4800 C   0  0  0  0  0  3  0  0  0  0  0  0
  -23.8360  -29.6140   20.1780 C   0  0  0  0  0  2  0  0  0  0  0  0
  -24.8390  -30.8700   22.1140 N   0  0  0  0  0  0  0  0  0  0  0  0
  -23.6010  -32.1150   23.6230 O   0  0  0  0  0  0  0  0  0  0  0  0
  -22.7620  -29.4580   22.5040 C   0  0  0  0  0  0  0  0  0  0  0  0
  -21.4220  -29.3560   22.3730 N   0  0  0  0  0  0  0  0  0  0  0  0
  -23.3780  -28.8290   23.3670 O   0  0  0  0  0  0  0  0  0  0  0  0
  -20.9670  -29.9120   21.6630 H   0  0  0  0  0  0  0  0  0  0  0  0
  -17.9970  -28.2130   22.9010 C   0  0  0  0  0  0  0  0  0  0  0  0
  -20.5670  -28.4380   23.1430 C   0  0  0  0  0  3  0  0  0  0  0  0
  -20.6330  -27.0060   22.5600 C   0  0  0  0  0  2  0  0  0  0  0  0
  -19.5210  -26.7160   21.5460 C   0  0  0  0  0  2  0  0  0  0  0  0
  -18.1460  -26.8740   22.1990 C   0  0  0  0  0  2  0  0  0  0  0  0
  -19.1320  -28.9550   23.3290 C   0  0  0  0  0  0  0  0  0  0  0  0
  -18.9320  -30.2040   23.9560 C   0  0  0  0  0  3  0  0  0  0  0  0
  -17.6350  -30.7130   24.1530 C   0  0  0  0  0  3  0  0  0  0  0  0
  -16.5160  -29.9710   23.7350 C   0  0  0  0  0  3  0  0  0  0  0  0
  -16.6980  -28.7220   23.1160 C   0  0  0  0  0  3  0  0  0  0  0  0
  -25.9400  -32.4590   23.8420 C   0  0  0  0  0  3  0  0  0  0  0  0
  -25.5980  -33.8650   24.1720 N   0  0  0  0  0  0  0  0  0  0  0  0
  -25.9200  -34.9450   23.4450 C   0  0  0  0  0  0  0  0  0  0  0  0
  -26.5760  -34.8640   22.4040 O   0  0  0  0  0  0  0  0  0  0  0  0
  -25.0070  -33.9990   24.9800 H   0  0  0  0  0  0  0  0  0  0  0  0
  -24.1680  -36.7480   23.1980 C   0  0  0  0  0  1  0  0  0  0  0  0
  -25.4480  -36.3330   23.9420 C   0  0  0  0  0  3  0  0  0  0  0  0
  -27.6060  -37.2470   24.6880 C   0  0  0  0  0  1  0  0  0  0  0  0
  -26.4650  -37.3980   23.7880 N   0  0  0  0  0  0  0  0  0  0  0  0
  -26.0550  -38.3150   23.9480 H   0  0  0  0  0  0  0  0  0  0  0  0
  -26.3960  -31.7200   25.1620 C   0  0  1  0  0  0  0  0  0  0  0  0
  -25.2580  -31.5140   26.1910 C   0  0  0  0  0  1  0  0  0  0  0  0
  -26.9880  -30.3300   24.8490 C   0  0  0  0  0  1  0  0  0  0  0  0
  -27.5230  -32.5250   25.8520 C   0  0  0  0  0  1  0  0  0  0  0  0
  -28.1400  -22.5480   20.1630 C   0  0  0  0  0 15  0  0  0  0  0  0
  -29.1420  -20.4180   20.2160 C   0  0  0  0  0 15  0  0  0  0  0  0
  -29.9010  -16.6470   20.0860 C   0  0  0  0  0  0  0  0  0  0  0  0
  -30.2300  -13.8900   19.2940 C   0  0  0  0  0  2  0  0  0  0  0  0
  -29.4480  -13.0530   18.1990 C   0  0  0  0  0  2  0  0  0  0  0  0
  -28.1340  -12.4820   18.7300 C   0  0  0  0  0  2  0  0  0  0  0  0
  -27.5010  -13.5140   19.6750 C   0  0  0  0  0  3  0  0  0  0  0  0
  -28.4750  -14.2100   20.6950 C   0  0  0  0  0  2  0  0  0  0  0  0
  -29.4550  -15.1290   19.9600 N   0  0  0  0  0  0  0  0  0  0  0  0
  -31.1430  -16.3980   20.0040 O   0  0  0  0  0  0  0  0  0  0  0  0
  -29.2570  -18.3100   20.1340 N   0  0  0  0  0  2  0  0  0  0  0  0
  -30.2580  -18.4710   20.1320 H   0  0  0  0  0  0  0  0  0  0  0  0
  -25.1600  -13.9200   20.5080 C   0  0  0  0  0  0  0  0  0  0  0  0
  -24.1280  -13.1120   20.8810 C   0  0  0  0  0  0  0  0  0  0  0  0
  -24.6260  -11.7720   20.8220 C   0  0  0  0  0  0  0  0  0  0  0  0
  -26.2240  -13.0860   20.2420 N   0  0  0  0  0  0  0  0  0  0  0  0
  -25.9190  -11.7780   20.4820 N   0  0  0  0  0  0  0  0  0  0  0  0
  -23.9140  -10.4950   21.0120 C   0  0  0  0  0  0  0  0  0  0  0  0
  -24.3570   -9.5290   21.9420 C   0  0  0  0  0  3  0  0  0  0  0  0
  -23.6350   -8.3280   22.1300 C   0  0  0  0  0  3  0  0  0  0  0  0
  -22.4560   -8.0830   21.3870 C   0  0  0  0  0  0  0  0  0  0  0  0
  -22.0290   -9.0390   20.4470 C   0  0  0  0  0  3  0  0  0  0  0  0
  -22.7510  -10.2310   20.2590 C   0  0  0  0  0  3  0  0  0  0  0  0
  -21.7070   -6.9350   21.4820 O   0  0  0  0  0  0  0  0  0  0  0  0
  -21.6700   -6.1910   22.6350 C   0  0  0  0  0  0  0  0  0  0  0  0
  -21.2140   -6.7320   23.8560 C   0  0  0  0  0  3  0  0  0  0  0  0
  -21.1260   -5.9140   25.0000 C   0  0  0  0  0  3  0  0  0  0  0  0
  -21.4850   -4.5540   24.9250 C   0  0  0  0  0  0  0  0  0  0  0  0
  -21.9340   -4.0110   23.7070 C   0  0  0  0  0  3  0  0  0  0  0  0
  -22.0220   -4.8270   22.5660 C   0  0  0  0  0  0  0  0  0  0  0  0
  -22.4340   -4.2930   21.3900 F   0  0  0  0  0  0  0  0  0  0  0  0
  -21.3950   -3.7660   26.0220 F   0  0  0  0  0  0  0  0  0  0  0  0
  -22.7270  -13.5620   21.1730 C   0  0  0  0  0  0  0  0  0  0  0  0
  -22.0260  -12.8570   22.0520 N   0  0  0  0  0  0  0  0  0  0  0  0
  -22.2670  -14.5820   20.6590 O   0  0  0  0  0  0  0  0  0  0  0  0
  -22.4140  -12.0340   22.4890 H   0  0  0  0  0  0  0  0  0  0  0  0
  -21.0880  -13.1430   22.2910 H   0  0  0  0  0  0  0  0  0  0  0  0
  -25.2790  -15.2960   20.3350 N   0  0  0  0  0  0  0  0  0  0  0  0
  -24.4980  -15.9290   20.4650 H   0  0  0  0  0  0  0  0  0  0  0  0
  -26.1180  -15.7610   20.0090 H   0  0  0  0  0  0  0  0  0  0  0  0
  2 13  2  0
  3  1  1  0
  3  8  1  0
  4 12  1  0
  4 14  1  0
  5 11  1  0
  5  7  1  0
  6 12  1  0
  7  6  1  0
  8  7  2  0
  9  3  2  0
 10  9  1  0
 10  5  2  0
 11  4  1  0
 12  2  1  0
 14 16  2  0
 15 14  1  0
 17 15  1  0
 18 27  2  0
 18 23  1  0
 19 15  1  0
 19 23  1  0
 20 19  1  0
 21 22  1  0
 21 20  1  0
 22 18  1  0
 23 24  2  0
 24 25  1  0
 26 25  2  0
 27 26  1  0
 28  2  1  0
 28 29  1  0
 28 38  1  0
 29 32  1  0
 30 34  1  0
 30 29  1  0
 31 30  2  0
 34 33  1  0
 36 34  1  0
 36 37  1  0
 36 35  1  0
 38 41  1  1
 38 39  1  0
 40 38  1  0
 44 52  1  0
 45 50  1  0
 46 47  1  0
 46 45  1  0
 48 47  1  0
 48 57  1  0
 48 49  1  0
 50 44  1  0
 50 49  1  0
 51 44  2  0
 53 52  1  0
 54 55  2  0
 55 74  1  0
 56 55  1  0
 56 59  1  0
 57 58  1  0
 57 54  1  0
 58 56  2  0
 59 60  1  0
 60 61  2  0
 62 65  1  0
 62 61  1  0
 63 62  2  0
 64 63  1  0
 64 59  2  0
 65 66  1  0
 66 67  1  0
 67 68  2  0
 69 68  1  0
 69 73  1  0
 70 69  2  0
 71 66  2  0
 71 70  1  0
 72 71  1  0
 74 75  1  0
 75 78  1  0
 75 77  1  0
 76 74  2  0
 79 80  1  0
 79 54  1  0
 81 79  1  0
M  ISO  4   1 101  42 101  44 100  52 100
M  END
>  <TORSDO>  (32) 
F 17

>  <SCORE>  (32) 
-16.141

>  <name>  (32) 
32

>  <ligand_id>  (32) 
32

>  <original_smiles>  (32) 
[H]c1c([H])c([H])c2c(c1[H])C([H])([H])C([H])([H])C([H])([H])C2([H])N([H])C(=O)C1([H])N(C(=O)C([H])(N([H])C(=O)C([H])(N([H])C([H])([H])[H])C([H])([H])[H])C(C([H])([H])[H])(C([H])([H])[H])C([H])([H])[H])C([H])([H])c2c([H])c(OC([H])([H])C([H])([H])N([H])C(=O)N3C([H])([H])C([H])([H])C([H])([H])C([H])(n4nc(-c5c([H])c([H])c(Oc6c([H])c([H])c(F)c([H])c6F)c([H])c5[H])c(C(=O)N([H])[H])c4N([H])[H])C3([H])[H])c([H])c([H])c2C1([H])[H]

>  <smiles>  (32) 
[H]c1c([H])c([H])c2c(c1[H])C([H])([H])C([H])([H])C([H])([H])C2([H])N([H])C(=O)C1([H])N(C(=O)C([H])(N([H])C(=O)C([H])(N([H])C([H])([H])[H])C([H])([H])[H])C(C([H])([H])[H])(C([H])([H])[H])C([H])([H])[H])C([H])([H])c2c([H])c(OC([H])([H])C([H])([H])N([H])C(=O)N3C([H])([H])C([H])([H])C([H])([H])C([H])(n4nc(-c5c([H])c([H])c(Oc6c([H])c([H])c(F)c([H])c6F)c([H])c5[H])c(C(=O)N([H])[H])c4N([H])[H])C3([H])[H])c([H])c([H])c2C1([H])[H]

$$$$
33:0:0
     RDKit          3D

100109  0  0  1  0  0  0  0  0999 V2000
  -29.7050  -20.8910   19.8310 C   0  0  0  0  0  3  0  0  0  0  0  0
  -29.4540  -22.2740   19.9550 C   0  0  0  0  0  3  0  0  0  0  0  0
  -27.4010  -20.5230   19.1660 C   0  0  0  0  0  3  0  0  0  0  0  0
  -28.6730  -20.0010   19.4750 C   0  0  0  0  0  0  0  0  0  0  0  0
  -27.1370  -21.9030   19.2810 C   0  0  0  0  0  0  0  0  0  0  0  0
  -28.1570  -22.7920   19.7170 C   0  0  0  0  0  0  0  0  0  0  0  0
  -28.1210  -17.6140   20.4030 C   0  0  0  0  0  2  0  0  0  0  0  0
  -28.9050  -18.5200   19.4790 C   0  0  0  0  0  3  0  0  0  0  0  0
  -29.5930  -17.8690   20.6580 C   0  0  0  0  0  3  0  0  0  0  0  0
  -30.6670  -16.8140   20.4670 C   0  0  0  0  0  2  0  0  0  0  0  0
  -30.8200  -14.4240   19.8200 C   0  0  0  0  0  0  0  0  0  0  0  0
  -30.4990  -12.1470   18.9390 C   0  0  0  0  0  2  0  0  0  0  0  0
  -29.4880  -12.1820   17.7770 C   0  0  0  0  0  2  0  0  0  0  0  0
  -28.0340  -12.1050   18.2950 C   0  0  0  0  0  2  0  0  0  0  0  0
  -27.7560  -13.0680   19.4820 C   0  0  0  0  0  3  0  0  0  0  0  0
  -28.8770  -12.9810   20.5410 C   0  0  0  0  0  2  0  0  0  0  0  0
  -30.1620  -13.2360   19.8670 N   0  0  0  0  0  0  0  0  0  0  0  0
  -31.8470  -14.6120   19.1630 O   0  0  0  0  0  0  0  0  0  0  0  0
  -30.2300  -15.4200   20.4870 N   0  0  0  0  0  0  0  0  0  0  0  0
  -29.4150  -15.1910   21.0340 H   0  0  0  0  0  0  0  0  0  0  0  0
  -25.4540  -13.7360   20.4230 C   0  0  0  0  0  0  0  0  0  0  0  0
  -24.3910  -12.9910   20.8530 C   0  0  0  0  0  0  0  0  0  0  0  0
  -24.7870  -11.6250   20.7230 C   0  0  0  0  0  0  0  0  0  0  0  0
  -26.4360  -12.8270   20.0610 N   0  0  0  0  0  0  0  0  0  0  0  0
  -26.0420  -11.5480   20.2940 N   0  0  0  0  0  0  0  0  0  0  0  0
  -24.0270  -10.3870   20.9230 C   0  0  0  0  0  0  0  0  0  0  0  0
  -24.4460   -9.4040   21.8470 C   0  0  0  0  0  3  0  0  0  0  0  0
  -23.6870   -8.2280   22.0370 C   0  0  0  0  0  3  0  0  0  0  0  0
  -22.4960   -8.0280   21.3000 C   0  0  0  0  0  0  0  0  0  0  0  0
  -22.0940   -8.9990   20.3660 C   0  0  0  0  0  3  0  0  0  0  0  0
  -22.8520  -10.1650   20.1750 C   0  0  0  0  0  3  0  0  0  0  0  0
  -21.7070   -6.9070   21.4030 O   0  0  0  0  0  0  0  0  0  0  0  0
  -21.6050   -6.1980   22.5730 C   0  0  0  0  0  0  0  0  0  0  0  0
  -21.1390   -6.7930   23.7670 C   0  0  0  0  0  3  0  0  0  0  0  0
  -20.9860   -6.0120   24.9290 C   0  0  0  0  0  3  0  0  0  0  0  0
  -21.2890   -4.6370   24.9010 C   0  0  0  0  0  0  0  0  0  0  0  0
  -21.7490   -4.0430   23.7140 C   0  0  0  0  0  3  0  0  0  0  0  0
  -21.9030   -4.8210   22.5520 C   0  0  0  0  0  0  0  0  0  0  0  0
  -22.3260   -4.2380   21.4050 F   0  0  0  0  0  0  0  0  0  0  0  0
  -21.1340   -3.8840   26.0140 F   0  0  0  0  0  0  0  0  0  0  0  0
  -23.0470  -13.5110   21.2780 C   0  0  0  0  0  0  0  0  0  0  0  0
  -22.3780  -12.8170   22.1940 N   0  0  0  0  0  0  0  0  0  0  0  0
  -22.6000  -14.5640   20.8290 O   0  0  0  0  0  0  0  0  0  0  0  0
  -22.7500  -11.9610   22.5770 H   0  0  0  0  0  0  0  0  0  0  0  0
  -21.4760  -13.1450   22.5100 H   0  0  0  0  0  0  0  0  0  0  0  0
  -25.6630  -15.1080   20.3020 N   0  0  0  0  0  0  0  0  0  0  0  0
  -24.9530  -15.7870   20.5510 H   0  0  0  0  0  0  0  0  0  0  0  0
  -26.5070  -15.5320   19.9400 H   0  0  0  0  0  0  0  0  0  0  0  0
  -27.8380  -24.1300   19.8640 O   0  0  0  0  0  0  0  0  0  0  0  0
  -28.7060  -24.9930   20.6100 C   0  0  0  0  0  2  0  0  0  0  0  0
  -29.4800  -25.9900   19.7180 C   0  0  0  0  0  2  0  0  0  0  0  0
  -29.3140  -27.3470   20.1620 O   0  0  0  0  0  0  0  0  0  0  0  0
  -24.8570  -31.8780   23.3540 C   0  0  0  0  0  0  0  0  0  0  0  0
  -28.0640  -27.9310   20.1340 C   0  0  0  0  0  0  0  0  0  0  0  0
  -23.8820  -30.5310   21.5210 C   0  0  0  0  0  3  0  0  0  0  0  0
  -25.5490  -29.2360   20.0950 C   0  0  0  0  0  0  0  0  0  0  0  0
  -26.3780  -31.1000   21.5400 C   0  0  0  0  0  2  0  0  0  0  0  0
  -26.6180  -29.7990   20.8030 C   0  0  0  0  0  0  0  0  0  0  0  0
  -27.8750  -29.1540   20.8180 C   0  0  0  0  0  3  0  0  0  0  0  0
  -26.9660  -27.3740   19.4330 C   0  0  0  0  0  3  0  0  0  0  0  0
  -25.7180  -28.0210   19.4100 C   0  0  0  0  0  3  0  0  0  0  0  0
  -24.2410  -29.9920   20.1110 C   0  0  0  0  0  2  0  0  0  0  0  0
  -25.0510  -31.1810   22.1990 N   0  0  0  0  0  0  0  0  0  0  0  0
  -23.7230  -32.0170   23.8350 O   0  0  0  0  0  0  0  0  0  0  0  0
  -23.2610  -29.3800   22.3480 C   0  0  0  0  0  0  0  0  0  0  0  0
  -21.9520  -29.1480   22.1610 N   0  0  0  0  0  0  0  0  0  0  0  0
  -23.9570  -28.7080   23.1120 O   0  0  0  0  0  0  0  0  0  0  0  0
  -21.4510  -29.7550   21.5290 H   0  0  0  0  0  0  0  0  0  0  0  0
  -18.6170  -27.8000   22.4960 C   0  0  0  0  0  0  0  0  0  0  0  0
  -21.1670  -28.0950   22.8020 C   0  0  0  0  0  3  0  0  0  0  0  0
  -21.3070  -26.7520   22.0470 C   0  0  0  0  0  2  0  0  0  0  0  0
  -20.2120  -26.5330   20.9980 C   0  0  0  0  0  2  0  0  0  0  0  0
  -18.8290  -26.5550   21.6520 C   0  0  0  0  0  2  0  0  0  0  0  0
  -19.7150  -28.5320   23.0230 C   0  0  0  0  0  0  0  0  0  0  0  0
  -19.4620  -29.7020   23.7710 C   0  0  0  0  0  3  0  0  0  0  0  0
  -18.1450  -30.1430   23.9970 C   0  0  0  0  0  3  0  0  0  0  0  0
  -17.0610  -29.4070   23.4890 C   0  0  0  0  0  3  0  0  0  0  0  0
  -17.2980  -28.2380   22.7440 C   0  0  0  0  0  3  0  0  0  0  0  0
  -26.0410  -32.5540   24.1120 C   0  0  0  0  0  3  0  0  0  0  0  0
  -26.4290  -31.8130   25.4510 C   0  0  1  0  0  0  0  0  0  0  0  0
  -25.2260  -31.5470   26.3860 C   0  0  0  0  0  1  0  0  0  0  0  0
  -27.0990  -30.4530   25.1470 C   0  0  0  0  0  1  0  0  0  0  0  0
  -27.4690  -32.6500   26.2320 C   0  0  0  0  0  1  0  0  0  0  0  0
  -25.6570  -33.9450   24.3820 N   0  0  0  0  0  0  0  0  0  0  0  0
  -26.0360  -34.9970   23.6410 C   0  0  0  0  0  0  0  0  0  0  0  0
  -26.8150  -34.8980   22.6890 O   0  0  0  0  0  0  0  0  0  0  0  0
  -24.9780  -34.0940   25.1140 H   0  0  0  0  0  0  0  0  0  0  0  0
  -24.2980  -36.7220   23.0690 C   0  0  0  0  0  1  0  0  0  0  0  0
  -25.4560  -36.3750   24.0170 C   0  0  0  0  0  3  0  0  0  0  0  0
  -27.4670  -37.3380   25.0470 C   0  0  0  0  0  1  0  0  0  0  0  0
  -26.4620  -37.4600   23.9940 N   0  0  0  0  0  0  0  0  0  0  0  0
  -26.0140  -38.3670   24.0870 H   0  0  0  0  0  0  0  0  0  0  0  0
  -25.7210  -22.3950   18.9990 C   0  0  0  0  0  2  0  0  0  0  0  0
  -25.7120  -23.7760   18.4930 N   0  0  0  0  0  4  0  0  0  0  0  0
  -26.3900  -24.2480   19.0710 H   0  0  0  0  0  0  0  0  0  0  0  0
  -24.8040  -24.1740   18.6680 H   0  0  0  0  0  0  0  0  0  0  0  0
  -26.0590  -23.9640   17.0690 C   0  0  0  0  0  2  0  0  0  0  0  0
  -27.0640  -25.1180   16.8930 C   0  0  0  0  0  2  0  0  0  0  0  0
  -28.2030  -26.7270   15.2570 C   0  0  0  0  0  1  0  0  0  0  0  0
  -27.1550  -25.6200   15.4420 C   0  0  0  0  0  2  0  0  0  0  0  0
  1  2  1  0
  3  5  2  0
  3  4  1  0
  4  1  2  0
  5  6  1  0
  6 49  1  0
  6  2  2  0
  7  9  1  0
  8  4  1  0
  8  7  1  0
  8  9  1  0
  9 10  1  0
 10 19  1  0
 11 17  1  0
 11 19  1  0
 12 17  1  0
 13 14  1  0
 13 12  1  0
 15 14  1  0
 15 24  1  0
 15 16  1  0
 17 16  1  0
 18 11  2  0
 19 20  1  0
 21 22  2  0
 22 41  1  0
 23 22  1  0
 23 26  1  0
 24 25  1  0
 24 21  1  0
 25 23  2  0
 26 27  1  0
 27 28  2  0
 29 32  1  0
 29 28  1  0
 30 29  2  0
 31 30  1  0
 31 26  2  0
 32 33  1  0
 33 34  1  0
 34 35  2  0
 36 35  1  0
 36 40  1  0
 37 36  2  0
 38 33  2  0
 38 37  1  0
 39 38  1  0
 41 42  1  0
 42 45  1  0
 42 44  1  0
 43 41  2  0
 46 21  1  0
 46 47  1  0
 48 46  1  0
 49 50  1  0
 51 52  1  0
 51 50  1  0
 53 64  2  0
 54 52  1  0
 54 59  1  0
 55 63  1  0
 55 65  1  0
 56 62  1  0
 56 58  1  0
 57 63  1  0
 58 59  2  0
 58 57  1  0
 60 54  2  0
 61 60  1  0
 61 56  2  0
 62 55  1  0
 63 53  1  0
 65 67  2  0
 66 65  1  0
 68 66  1  0
 69 78  2  0
 69 74  1  0
 70 66  1  0
 70 74  1  0
 71 70  1  0
 72 73  1  0
 72 71  1  0
 73 69  1  0
 74 75  2  0
 75 76  1  0
 77 76  2  0
 78 77  1  0
 79 53  1  0
 79 84  1  0
 79 80  1  0
 80 83  1  1
 80 81  1  0
 82 80  1  0
 84 87  1  0
 85 89  1  0
 85 84  1  0
 86 85  2  0
 89 88  1  0
 91 89  1  0
 91 92  1  0
 91 90  1  0
 93  5  1  0
 94 96  1  0
 94 93  1  0
 94 95  1  0
 97 94  1  0
 98 97  1  0
 99100  1  0
100 98  1  0
M  ISO  4  11 100  19 100  51 101  52 101
M  END
>  <TORSDO>  (33) 
F 26

>  <SCORE>  (33) 
-10.830

>  <name>  (33) 
33

>  <ligand_id>  (33) 
33

>  <original_smiles>  (33) 
[H]c1c([H])c([H])c2c(c1[H])C([H])([H])C([H])([H])C([H])([H])C2([H])N([H])C(=O)C1([H])N(C(=O)C([H])(N([H])C(=O)C([H])(N([H])C([H])([H])[H])C([H])([H])[H])C(C([H])([H])[H])(C([H])([H])[H])C([H])([H])[H])C([H])([H])c2c([H])c(OC([H])([H])C([H])([H])Oc3c([H])c([H])c(C4([H])C([H])([H])C4([H])C([H])([H])N([H])C(=O)N4C([H])([H])C([H])([H])C([H])([H])C([H])(n5nc(-c6c([H])c([H])c(Oc7c([H])c([H])c(F)c([H])c7F)c([H])c6[H])c(C(=O)N([H])[H])c5N([H])[H])C4([H])[H])c([H])c3C([H])([H])[N+]([H])([H])C([H])([H])C([H])([H])C([H])([H])C([H])([H])[H])c([H])c([H])c2C1([H])[H]

>  <smiles>  (33) 
[H]c1c([H])c([H])c2c(c1[H])C([H])([H])C([H])([H])C([H])([H])C2([H])N([H])C(=O)C1([H])N(C(=O)C([H])(N([H])C(=O)C([H])(N([H])C([H])([H])[H])C([H])([H])[H])C(C([H])([H])[H])(C([H])([H])[H])C([H])([H])[H])C([H])([H])c2c([H])c(OC([H])([H])C([H])([H])Oc3c([H])c([H])c(C4([H])C([H])([H])C4([H])C([H])([H])N([H])C(=O)N4C([H])([H])C([H])([H])C([H])([H])C([H])(n5nc(-c6c([H])c([H])c(Oc7c([H])c([H])c(F)c([H])c7F)c([H])c6[H])c(C(=O)N([H])[H])c5N([H])[H])C4([H])[H])c([H])c3C([H])([H])[N+]([H])([H])C([H])([H])C([H])([H])C([H])([H])C([H])([H])[H])c([H])c([H])c2C1([H])[H]

$$$$
34:0:0
     RDKit          3D

 90 98  0  0  1  0  0  0  0  0999 V2000
  -28.9100  -17.6550   20.9850 C   0  0  0  0  0  3  0  0  0  0  0  0
  -28.6100  -19.0360   21.1920 C   0  0  0  0  0  3  0  0  0  0  0  0
  -30.4420  -19.6810   19.7880 C   0  0  0  0  0  3  0  0  0  0  0  0
  -29.9810  -17.2420   20.1520 C   0  0  0  0  0  0  0  0  0  0  0  0
  -29.3320  -20.0930   20.5720 C   0  0  0  0  0  0  0  0  0  0  0  0
  -30.7650  -18.3020   19.5950 C   0  0  0  0  0  0  0  0  0  0  0  0
  -31.8120  -18.0000   18.7900 F   0  0  0  0  0  0  0  0  0  0  0  0
  -30.8380  -14.8080   20.1110 C   0  0  0  0  0  0  0  0  0  0  0  0
  -30.6620  -12.4840   19.2390 C   0  0  0  0  0  2  0  0  0  0  0  0
  -29.7100  -12.4500   18.0220 C   0  0  0  0  0  2  0  0  0  0  0  0
  -28.2320  -12.3620   18.4640 C   0  0  0  0  0  2  0  0  0  0  0  0
  -27.8640  -13.2810   19.6640 C   0  0  0  0  0  3  0  0  0  0  0  0
  -28.9430  -13.2540   20.7650 C   0  0  0  0  0  2  0  0  0  0  0  0
  -30.2210  -13.5800   20.1230 N   0  0  0  0  0  0  0  0  0  0  0  0
  -32.0650  -14.8780   19.9900 O   0  0  0  0  0  0  0  0  0  0  0  0
  -29.8860  -15.8370   18.1690 C   0  0  0  0  0  1  0  0  0  0  0  0
  -30.0660  -15.8630   19.6370 N   0  0  0  0  0  0  0  0  0  0  0  0
  -25.4890  -13.8780   20.4240 C   0  0  0  0  0  0  0  0  0  0  0  0
  -24.4260  -13.1030   20.7990 C   0  0  0  0  0  0  0  0  0  0  0  0
  -24.8900  -11.7520   20.7630 C   0  0  0  0  0  0  0  0  0  0  0  0
  -26.5310  -12.9970   20.1780 N   0  0  0  0  0  0  0  0  0  0  0  0
  -26.1780  -11.7150   20.4460 N   0  0  0  0  0  0  0  0  0  0  0  0
  -24.1690  -10.4900   20.9530 C   0  0  0  0  0  0  0  0  0  0  0  0
  -24.5880   -9.5390   21.9090 C   0  0  0  0  0  3  0  0  0  0  0  0
  -23.8660   -8.3390   22.0890 C   0  0  0  0  0  3  0  0  0  0  0  0
  -22.7130   -8.0820   21.3110 C   0  0  0  0  0  0  0  0  0  0  0  0
  -22.3150   -9.0220   20.3420 C   0  0  0  0  0  3  0  0  0  0  0  0
  -23.0380  -10.2120   20.1610 C   0  0  0  0  0  3  0  0  0  0  0  0
  -21.9640   -6.9340   21.4000 O   0  0  0  0  0  0  0  0  0  0  0  0
  -21.8610   -6.2330   22.5740 C   0  0  0  0  0  0  0  0  0  0  0  0
  -21.3140   -6.8100   23.7410 C   0  0  0  0  0  3  0  0  0  0  0  0
  -21.1610   -6.0320   24.9060 C   0  0  0  0  0  3  0  0  0  0  0  0
  -21.5430   -4.6760   24.9040 C   0  0  0  0  0  0  0  0  0  0  0  0
  -22.0810   -4.0990   23.7410 C   0  0  0  0  0  3  0  0  0  0  0  0
  -22.2370   -4.8740   22.5780 C   0  0  0  0  0  0  0  0  0  0  0  0
  -22.7350   -4.3060   21.4540 F   0  0  0  0  0  0  0  0  0  0  0  0
  -21.3890   -3.9270   26.0200 F   0  0  0  0  0  0  0  0  0  0  0  0
  -23.0310  -13.5780   21.0810 C   0  0  0  0  0  0  0  0  0  0  0  0
  -22.3110  -12.8810   21.9540 N   0  0  0  0  0  0  0  0  0  0  0  0
  -22.5870  -14.6020   20.5640 O   0  0  0  0  0  0  0  0  0  0  0  0
  -22.6820  -12.0510   22.3940 H   0  0  0  0  0  0  0  0  0  0  0  0
  -21.3740  -13.1800   22.1840 H   0  0  0  0  0  0  0  0  0  0  0  0
  -25.6520  -15.2490   20.2500 N   0  0  0  0  0  0  0  0  0  0  0  0
  -24.8910  -15.9070   20.3820 H   0  0  0  0  0  0  0  0  0  0  0  0
  -26.5060  -15.6880   19.9300 H   0  0  0  0  0  0  0  0  0  0  0  0
  -28.9230  -21.4290   20.7980 O   0  0  0  0  0  0  0  0  0  0  0  0
  -29.2430  -22.5490   19.9020 C   0  0  0  0  0  3  0  0  0  0  0  0
  -28.7460  -23.9920   20.3950 C   0  0  0  0  0  3  0  0  0  0  0  0
  -28.8290  -25.2230   19.3840 C   0  0  0  0  0  2  0  0  0  0  0  0
  -28.6800  -26.6130   19.8760 O   0  0  0  0  0  0  0  0  0  0  0  0
  -24.6420  -31.6510   23.0420 C   0  0  0  0  0  0  0  0  0  0  0  0
  -27.4890  -27.3530   19.8260 C   0  0  0  0  0  0  0  0  0  0  0  0
  -23.5160  -30.2760   21.3260 C   0  0  0  0  0  3  0  0  0  0  0  0
  -25.0470  -28.8500   19.8520 C   0  0  0  0  0  0  0  0  0  0  0  0
  -26.0390  -30.7150   21.1860 C   0  0  0  0  0  2  0  0  0  0  0  0
  -26.1840  -29.3700   20.4820 C   0  0  0  0  0  0  0  0  0  0  0  0
  -27.4030  -28.6330   20.4580 C   0  0  0  0  0  3  0  0  0  0  0  0
  -26.3220  -26.8740   19.1870 C   0  0  0  0  0  3  0  0  0  0  0  0
  -25.1180  -27.6090   19.1980 C   0  0  0  0  0  3  0  0  0  0  0  0
  -23.7730  -29.6670   19.9210 C   0  0  0  0  0  2  0  0  0  0  0  0
  -24.7500  -30.8960   21.9100 N   0  0  0  0  0  0  0  0  0  0  0  0
  -23.5430  -31.8570   23.5760 O   0  0  0  0  0  0  0  0  0  0  0  0
  -22.8890  -29.1920   22.2340 C   0  0  0  0  0  0  0  0  0  0  0  0
  -21.5650  -28.9910   22.1070 N   0  0  0  0  0  0  0  0  0  0  0  0
  -23.5900  -28.5370   23.0090 O   0  0  0  0  0  0  0  0  0  0  0  0
  -21.0590  -29.5750   21.4570 H   0  0  0  0  0  0  0  0  0  0  0  0
  -18.2100  -27.7460   22.6220 C   0  0  0  0  0  0  0  0  0  0  0  0
  -20.7750  -27.9940   22.8280 C   0  0  0  0  0  3  0  0  0  0  0  0
  -20.8600  -26.6110   22.1400 C   0  0  0  0  0  2  0  0  0  0  0  0
  -19.7270  -26.3640   21.1400 C   0  0  0  0  0  2  0  0  0  0  0  0
  -18.3670  -26.4530   21.8370 C   0  0  0  0  0  2  0  0  0  0  0  0
  -19.3410  -28.4760   23.0730 C   0  0  0  0  0  0  0  0  0  0  0  0
  -19.1390  -29.6890   23.7680 C   0  0  0  0  0  3  0  0  0  0  0  0
  -17.8390  -30.1700   24.0140 C   0  0  0  0  0  3  0  0  0  0  0  0
  -16.7230  -29.4350   23.5780 C   0  0  0  0  0  3  0  0  0  0  0  0
  -16.9100  -28.2230   22.8880 C   0  0  0  0  0  3  0  0  0  0  0  0
  -25.8900  -32.3070   23.7100 C   0  0  0  0  0  3  0  0  0  0  0  0
  -26.4060  -31.5190   24.9750 C   0  0  1  0  0  0  0  0  0  0  0  0
  -25.3010  -31.2220   26.0170 C   0  0  0  0  0  1  0  0  0  0  0  0
  -27.0360  -30.1690   24.5590 C   0  0  0  0  0  1  0  0  0  0  0  0
  -27.5200  -32.3290   25.6790 C   0  0  0  0  0  1  0  0  0  0  0  0
  -25.5290  -33.6850   24.0710 N   0  0  0  0  0  0  0  0  0  0  0  0
  -25.8510  -34.7700   23.3550 C   0  0  0  0  0  0  0  0  0  0  0  0
  -26.5540  -34.7180   22.3420 O   0  0  0  0  0  0  0  0  0  0  0  0
  -24.9080  -33.7970   24.8590 H   0  0  0  0  0  0  0  0  0  0  0  0
  -24.0970  -36.5340   22.9840 C   0  0  0  0  0  1  0  0  0  0  0  0
  -25.3090  -36.1290   23.8390 C   0  0  0  0  0  3  0  0  0  0  0  0
  -27.3700  -37.0400   24.8130 C   0  0  0  0  0  1  0  0  0  0  0  0
  -26.3180  -37.2100   23.8130 N   0  0  0  0  0  0  0  0  0  0  0  0
  -25.8810  -38.1150   23.9630 H   0  0  0  0  0  0  0  0  0  0  0  0
  1  2  1  0
  3  5  1  0
  4  1  2  0
  5 46  1  0
  5  2  2  0
  6  3  2  0
  6  4  1  0
  7  6  1  0
  8 14  1  0
  9 14  1  0
 10 11  1  0
 10  9  1  0
 12 11  1  0
 12 21  1  0
 12 13  1  0
 14 13  1  0
 15  8  2  0
 16 17  1  0
 17  8  1  0
 17  4  1  0
 18 19  2  0
 19 38  1  0
 20 19  1  0
 20 23  1  0
 21 18  1  0
 21 22  1  0
 22 20  2  0
 23 24  1  0
 24 25  2  0
 26 29  1  0
 26 25  1  0
 27 26  2  0
 28 27  1  0
 28 23  2  0
 29 30  1  0
 30 35  2  0
 30 31  1  0
 31 32  2  0
 33 32  1  0
 33 37  1  0
 34 33  2  0
 35 34  1  0
 36 35  1  0
 38 39  1  0
 39 42  1  0
 39 41  1  0
 40 38  2  0
 43 44  1  0
 43 18  1  0
 45 43  1  0
 47 48  2  0
 47 46  1  0
 49 50  1  0
 49 48  1  0
 51 62  2  0
 52 50  1  0
 52 57  1  0
 53 61  1  0
 53 63  1  0
 54 60  1  0
 54 56  1  0
 55 61  1  0
 56 55  1  0
 57 56  2  0
 58 59  1  0
 58 52  2  0
 59 54  2  0
 60 53  1  0
 61 51  1  0
 63 65  2  0
 64 63  1  0
 66 64  1  0
 67 76  2  0
 67 72  1  0
 68 64  1  0
 68 72  1  0
 69 68  1  0
 70 71  1  0
 70 69  1  0
 71 67  1  0
 72 73  2  0
 73 74  1  0
 75 74  2  0
 76 75  1  0
 77 51  1  0
 77 82  1  0
 77 78  1  0
 78 81  1  1
 78 79  1  0
 80 78  1  0
 82 85  1  0
 83 87  1  0
 83 82  1  0
 84 83  2  0
 87 86  1  0
 89 87  1  0
 89 90  1  0
 89 88  1  0
M  ISO  4   8 100  17 100  49 101  50 101
M  END
>  <TORSDO>  (34) 
F 20

>  <SCORE>  (34) 
-11.861

>  <name>  (34) 
34

>  <ligand_id>  (34) 
34

>  <original_smiles>  (34) 
[H]c1c([H])c([H])c2c(c1[H])C([H])([H])C([H])([H])C([H])([H])C2([H])N([H])C(=O)C1([H])N(C(=O)C([H])(N([H])C(=O)C([H])(N([H])C([H])([H])[H])C([H])([H])[H])C(C([H])([H])[H])(C([H])([H])[H])C([H])([H])[H])C([H])([H])c2c([H])c(OC([H])([H])C([H])([H])C([H])([H])Oc3c([H])c([H])c(N(C(=O)N4C([H])([H])C([H])([H])C([H])([H])C([H])(n5nc(-c6c([H])c([H])c(Oc7c([H])c([H])c(F)c([H])c7F)c([H])c6[H])c(C(=O)N([H])[H])c5N([H])[H])C4([H])[H])C([H])([H])[H])c(F)c3[H])c([H])c([H])c2C1([H])[H]

>  <smiles>  (34) 
[H]c1c([H])c([H])c2c(c1[H])C([H])([H])C([H])([H])C([H])([H])C2([H])N([H])C(=O)C1([H])N(C(=O)C([H])(N([H])C(=O)C([H])(N([H])C([H])([H])[H])C([H])([H])[H])C(C([H])([H])[H])(C([H])([H])[H])C([H])([H])[H])C([H])([H])c2c([H])c(OC([H])([H])C([H])([H])C([H])([H])Oc3c([H])c([H])c(N(C(=O)N4C([H])([H])C([H])([H])C([H])([H])C([H])(n5nc(-c6c([H])c([H])c(Oc7c([H])c([H])c(F)c([H])c7F)c([H])c6[H])c(C(=O)N([H])[H])c5N([H])[H])C4([H])[H])C([H])([H])[H])c(F)c3[H])c([H])c([H])c2C1([H])[H]

$$$$
35:0:0
     RDKit          3D

 93102  0  0  1  0  0  0  0  0999 V2000
  -30.5890  -20.2970   18.7690 C   0  0  0  0  0  3  0  0  0  0  0  0
  -29.0450  -20.0690   20.5450 C   0  0  0  0  0  0  0  0  0  0  0  0
  -29.5730  -20.9690   19.5430 C   0  0  0  0  0  0  0  0  0  0  0  0
  -30.3560  -17.9920   19.8600 C   0  0  0  0  0  0  0  0  0  0  0  0
  -30.9640  -18.8870   18.9060 C   0  0  0  0  0  0  0  0  0  0  0  0
  -29.4130  -18.6760   20.6760 C   0  0  0  0  0  0  0  0  0  0  0  0
  -27.9780  -20.5520   21.5220 C   0  0  0  0  0  2  0  0  0  0  0  0
  -27.4910  -21.9750   21.2540 C   0  0  0  0  0  2  0  0  0  0  0  0
  -27.5720  -22.2830   19.7590 C   0  0  0  0  0  2  0  0  0  0  0  0
  -28.9680  -22.3230   19.3070 N   0  0  0  0  0  0  0  0  0  0  0  0
  -31.8880  -18.3840   18.0530 F   0  0  0  0  0  0  0  0  0  0  0  0
  -28.7870  -17.9380   21.6290 F   0  0  0  0  0  0  0  0  0  0  0  0
  -31.2870  -15.3890   19.7370 C   0  0  0  0  0  0  0  0  0  0  0  0
  -31.1930  -12.9740   18.9800 C   0  0  0  0  0  2  0  0  0  0  0  0
  -30.1950  -12.8350   17.8030 C   0  0  0  0  0  2  0  0  0  0  0  0
  -28.7510  -12.6600   18.3120 C   0  0  0  0  0  2  0  0  0  0  0  0
  -28.3930  -13.6650   19.4380 C   0  0  0  0  0  3  0  0  0  0  0  0
  -29.5010  -13.7310   20.5140 C   0  0  0  0  0  2  0  0  0  0  0  0
  -30.7490  -14.1090   19.8340 N   0  0  0  0  0  0  0  0  0  0  0  0
  -32.4370  -15.5090   19.3010 O   0  0  0  0  0  0  0  0  0  0  0  0
  -30.4520  -16.4800   20.0380 N   0  0  0  0  0  0  0  0  0  0  0  0
  -29.6390  -16.1430   20.5310 H   0  0  0  0  0  0  0  0  0  0  0  0
  -26.1010  -14.3050   20.3970 C   0  0  0  0  0  0  0  0  0  0  0  0
  -25.0270  -13.5570   20.7920 C   0  0  0  0  0  0  0  0  0  0  0  0
  -25.4110  -12.1920   20.6210 C   0  0  0  0  0  0  0  0  0  0  0  0
  -27.0760  -13.3990   20.0120 N   0  0  0  0  0  0  0  0  0  0  0  0
  -26.6720  -12.1170   20.2090 N   0  0  0  0  0  0  0  0  0  0  0  0
  -24.6310  -10.9560   20.7700 C   0  0  0  0  0  0  0  0  0  0  0  0
  -25.0390   -9.9260   21.6460 C   0  0  0  0  0  3  0  0  0  0  0  0
  -24.2620   -8.7560   21.7880 C   0  0  0  0  0  3  0  0  0  0  0  0
  -23.0610   -8.6070   21.0520 C   0  0  0  0  0  0  0  0  0  0  0  0
  -22.6720   -9.6260   20.1640 C   0  0  0  0  0  3  0  0  0  0  0  0
  -23.4500  -10.7870   20.0200 C   0  0  0  0  0  3  0  0  0  0  0  0
  -22.2570   -7.4940   21.1060 O   0  0  0  0  0  0  0  0  0  0  0  0
  -22.1220   -6.7580   22.2560 C   0  0  0  0  0  0  0  0  0  0  0  0
  -21.6520   -7.3340   23.4580 C   0  0  0  0  0  3  0  0  0  0  0  0
  -21.4610   -6.5270   24.5970 C   0  0  0  0  0  3  0  0  0  0  0  0
  -21.7300   -5.1470   24.5370 C   0  0  0  0  0  0  0  0  0  0  0  0
  -22.1930   -4.5710   23.3400 C   0  0  0  0  0  3  0  0  0  0  0  0
  -22.3850   -5.3740   22.2030 C   0  0  0  0  0  0  0  0  0  0  0  0
  -22.8110   -4.8110   21.0470 F   0  0  0  0  0  0  0  0  0  0  0  0
  -21.5400   -4.3710   25.6290 F   0  0  0  0  0  0  0  0  0  0  0  0
  -23.6820  -14.0780   21.2080 C   0  0  0  0  0  0  0  0  0  0  0  0
  -22.9870  -13.3610   22.0840 N   0  0  0  0  0  0  0  0  0  0  0  0
  -23.2570  -15.1550   20.7910 O   0  0  0  0  0  0  0  0  0  0  0  0
  -23.3400  -12.4880   22.4460 H   0  0  0  0  0  0  0  0  0  0  0  0
  -22.0850  -13.6920   22.4010 H   0  0  0  0  0  0  0  0  0  0  0  0
  -26.3210  -15.6770   20.3070 N   0  0  0  0  0  0  0  0  0  0  0  0
  -25.5950  -16.3500   20.5290 H   0  0  0  0  0  0  0  0  0  0  0  0
  -27.1410  -16.1040   19.8950 H   0  0  0  0  0  0  0  0  0  0  0  0
  -29.5480  -23.7650   19.1430 C   0  0  0  0  0  2  0  0  0  0  0  0
  -28.5510  -25.1140   18.9100 C   0  0  0  0  0  2  0  0  0  0  0  0
  -28.8040  -26.6140   19.1940 O   0  0  0  0  0  0  0  0  0  0  0  0
  -24.8590  -31.4370   23.0970 C   0  0  0  0  0  0  0  0  0  0  0  0
  -27.6970  -27.5300   19.2850 C   0  0  0  0  0  0  0  0  0  0  0  0
  -23.7390  -30.3100   21.2130 C   0  0  0  0  0  3  0  0  0  0  0  0
  -25.2730  -29.1100   19.5400 C   0  0  0  0  0  0  0  0  0  0  0  0
  -26.2740  -30.7400   21.1320 C   0  0  0  0  0  2  0  0  0  0  0  0
  -26.4240  -29.5010   20.2370 C   0  0  0  0  0  0  0  0  0  0  0  0
  -27.6370  -28.7310   20.0940 C   0  0  0  0  0  3  0  0  0  0  0  0
  -26.5150  -27.2450   18.5610 C   0  0  0  0  0  3  0  0  0  0  0  0
  -25.3300  -27.9980   18.6880 C   0  0  0  0  0  3  0  0  0  0  0  0
  -24.0000  -29.9140   19.7340 C   0  0  0  0  0  2  0  0  0  0  0  0
  -24.9770  -30.8400   21.8720 N   0  0  0  0  0  0  0  0  0  0  0  0
  -23.7580  -31.5620   23.6550 O   0  0  0  0  0  0  0  0  0  0  0  0
  -23.1150  -29.1060   21.9630 C   0  0  0  0  0  0  0  0  0  0  0  0
  -21.7940  -28.9060   21.8060 N   0  0  0  0  0  0  0  0  0  0  0  0
  -23.8190  -28.3630   22.6500 O   0  0  0  0  0  0  0  0  0  0  0  0
  -21.2800  -29.5680   21.2410 H   0  0  0  0  0  0  0  0  0  0  0  0
  -18.4640  -27.5110   22.0930 C   0  0  0  0  0  0  0  0  0  0  0  0
  -21.0170  -27.8040   22.3810 C   0  0  0  0  0  3  0  0  0  0  0  0
  -21.1570  -26.5220   21.5280 C   0  0  0  0  0  2  0  0  0  0  0  0
  -20.0460  -26.3670   20.4830 C   0  0  0  0  0  2  0  0  0  0  0  0
  -18.6730  -26.3320   21.1580 C   0  0  0  0  0  2  0  0  0  0  0  0
  -19.5630  -28.2120   22.6550 C   0  0  0  0  0  0  0  0  0  0  0  0
  -19.3120  -29.3200   23.4930 C   0  0  0  0  0  3  0  0  0  0  0  0
  -17.9940  -29.7280   23.7730 C   0  0  0  0  0  3  0  0  0  0  0  0
  -16.9090  -29.0210   23.2240 C   0  0  0  0  0  3  0  0  0  0  0  0
  -17.1460  -27.9140   22.3900 C   0  0  0  0  0  3  0  0  0  0  0  0
  -26.1010  -32.0090   23.8480 C   0  0  0  0  0  3  0  0  0  0  0  0
  -25.7630  -33.3690   24.2970 N   0  0  0  0  0  0  0  0  0  0  0  0
  -26.1160  -34.4930   23.6580 C   0  0  0  0  0  0  0  0  0  0  0  0
  -26.8250  -34.4930   22.6480 O   0  0  0  0  0  0  0  0  0  0  0  0
  -25.1380  -33.4420   25.0860 H   0  0  0  0  0  0  0  0  0  0  0  0
  -24.3830  -36.3030   23.4230 C   0  0  0  0  0  1  0  0  0  0  0  0
  -25.6030  -35.8300   24.2300 C   0  0  0  0  0  3  0  0  0  0  0  0
  -27.7020  -36.6490   25.2080 C   0  0  0  0  0  1  0  0  0  0  0  0
  -26.6300  -36.8950   24.2480 N   0  0  0  0  0  0  0  0  0  0  0  0
  -26.2100  -37.7960   24.4640 H   0  0  0  0  0  0  0  0  0  0  0  0
  -26.5480  -31.1180   25.0730 C   0  0  1  0  0  0  0  0  0  0  0  0
  -25.3990  -30.7890   26.0550 C   0  0  0  0  0  1  0  0  0  0  0  0
  -27.1480  -29.7780   24.5880 C   0  0  0  0  0  1  0  0  0  0  0  0
  -27.6640  -31.8410   25.8630 C   0  0  0  0  0  1  0  0  0  0  0  0
  1  5  2  0
  1  3  1  0
  2  6  1  0
  2  7  1  0
  3  2  2  0
  4 21  1  0
  4  6  2  0
  5  4  1  0
  6 12  1  0
  8  7  1  0
  9  8  1  0
 10  3  1  0
 10  9  1  0
 11  5  1  0
 13 19  1  0
 13 21  1  0
 14 19  1  0
 15 16  1  0
 15 14  1  0
 17 16  1  0
 17 26  1  0
 17 18  1  0
 19 18  1  0
 20 13  2  0
 21 22  1  0
 23 24  2  0
 24 43  1  0
 25 28  1  0
 25 24  1  0
 26 27  1  0
 26 23  1  0
 27 25  2  0
 28 29  1  0
 29 30  2  0
 31 34  1  0
 31 30  1  0
 32 31  2  0
 33 32  1  0
 33 28  2  0
 34 35  1  0
 35 36  1  0
 36 37  2  0
 38 37  1  0
 38 42  1  0
 39 38  2  0
 40 35  2  0
 40 39  1  0
 41 40  1  0
 43 44  1  0
 44 47  1  0
 44 46  1  0
 45 43  2  0
 48 23  1  0
 48 49  1  0
 50 48  1  0
 51 10  1  0
 52 51  1  0
 52 53  1  0
 53 55  1  0
 54 65  2  0
 55 60  1  0
 56 64  1  0
 56 66  1  0
 57 63  1  0
 57 59  1  0
 58 64  1  0
 59 58  1  0
 60 59  2  0
 61 62  1  0
 61 55  2  0
 62 57  2  0
 63 56  1  0
 64 54  1  0
 66 68  2  0
 67 66  1  0
 69 67  1  0
 70 79  2  0
 70 75  1  0
 71 67  1  0
 71 75  1  0
 72 71  1  0
 73 74  1  0
 73 72  1  0
 74 70  1  0
 75 76  2  0
 76 77  1  0
 78 77  2  0
 79 78  1  0
 80 54  1  0
 80 81  1  0
 80 90  1  0
 81 84  1  0
 82 86  1  0
 82 81  1  0
 83 82  2  0
 86 85  1  0
 86 88  1  0
 88 89  1  0
 88 87  1  0
 90 93  1  1
 90 91  1  0
 92 90  1  0
M  ISO  4  13 100  21 100  52 101  53 101
M  END
>  <TORSDO>  (35) 
F 18

>  <SCORE>  (35) 
-10.142

>  <name>  (35) 
35

>  <ligand_id>  (35) 
35

>  <original_smiles>  (35) 
[H]c1c([H])c([H])c2c(c1[H])C([H])([H])C([H])([H])C([H])([H])C2([H])N([H])C(=O)C1([H])N(C(=O)C([H])(N([H])C(=O)C([H])(N([H])C([H])([H])[H])C([H])([H])[H])C(C([H])([H])[H])(C([H])([H])[H])C([H])([H])[H])C([H])([H])c2c([H])c(OC([H])([H])C([H])([H])N3c4c([H])c(F)c(N([H])C(=O)N5C([H])([H])C([H])([H])C([H])([H])C([H])(n6nc(-c7c([H])c([H])c(Oc8c([H])c([H])c(F)c([H])c8F)c([H])c7[H])c(C(=O)N([H])[H])c6N([H])[H])C5([H])[H])c(F)c4C([H])([H])C([H])([H])C3([H])[H])c([H])c([H])c2C1([H])[H]

>  <smiles>  (35) 
[H]c1c([H])c([H])c2c(c1[H])C([H])([H])C([H])([H])C([H])([H])C2([H])N([H])C(=O)C1([H])N(C(=O)C([H])(N([H])C(=O)C([H])(N([H])C([H])([H])[H])C([H])([H])[H])C(C([H])([H])[H])(C([H])([H])[H])C([H])([H])[H])C([H])([H])c2c([H])c(OC([H])([H])C([H])([H])N3c4c([H])c(F)c(N([H])C(=O)N5C([H])([H])C([H])([H])C([H])([H])C([H])(n6nc(-c7c([H])c([H])c(Oc8c([H])c([H])c(F)c([H])c8F)c([H])c7[H])c(C(=O)N([H])[H])c6N([H])[H])C5([H])[H])c(F)c4C([H])([H])C([H])([H])C3([H])[H])c([H])c([H])c2C1([H])[H]

$$$$
36:0:0
     RDKit          3D

 95104  0  0  1  0  0  0  0  0999 V2000
  -30.3220  -20.2700   18.9530 C   0  0  0  0  0  3  0  0  0  0  0  0
  -30.0410  -20.9610   20.1890 C   0  0  0  0  0  0  0  0  0  0  0  0
  -30.1810  -20.0490   21.2950 C   0  0  0  0  0  0  0  0  0  0  0  0
  -30.6760  -17.9410   19.9770 C   0  0  0  0  0  0  0  0  0  0  0  0
  -30.6150  -18.8350   18.8460 C   0  0  0  0  0  0  0  0  0  0  0  0
  -30.4640  -18.6390   21.1960 C   0  0  0  0  0  0  0  0  0  0  0  0
  -28.7740  -22.5230   21.5740 C   0  0  0  0  0  0  0  0  0  0  0  0
  -28.8290  -21.4350   22.6610 C   0  0  0  0  0  2  0  0  0  0  0  0
  -29.9680  -20.5360   22.5820 N   0  0  0  0  0  0  0  0  0  0  0  0
  -29.5380  -22.4060   20.4410 N   0  0  0  0  0  0  0  0  0  0  0  0
  -27.9710  -23.4270   21.8010 O   0  0  0  0  0  0  0  0  0  0  0  0
  -30.7730  -18.3080   17.6080 F   0  0  0  0  0  0  0  0  0  0  0  0
  -30.4740  -17.9150   22.3450 F   0  0  0  0  0  0  0  0  0  0  0  0
  -29.9860  -19.7970   23.2830 H   0  0  0  0  0  0  0  0  0  0  0  0
  -31.5450  -15.3400   19.6800 C   0  0  0  0  0  0  0  0  0  0  0  0
  -31.3770  -12.9600   18.8380 C   0  0  0  0  0  2  0  0  0  0  0  0
  -30.3380  -12.9010   17.6930 C   0  0  0  0  0  2  0  0  0  0  0  0
  -28.9090  -12.7300   18.2480 C   0  0  0  0  0  2  0  0  0  0  0  0
  -28.6140  -13.6940   19.4250 C   0  0  0  0  0  3  0  0  0  0  0  0
  -29.7590  -13.6910   20.4620 C   0  0  0  0  0  2  0  0  0  0  0  0
  -30.9920  -14.0670   19.7530 N   0  0  0  0  0  0  0  0  0  0  0  0
  -32.6770  -15.4680   19.2050 O   0  0  0  0  0  0  0  0  0  0  0  0
  -30.7270  -16.4200   20.0480 N   0  0  0  0  0  0  0  0  0  0  0  0
  -29.9370  -16.0690   20.5650 H   0  0  0  0  0  0  0  0  0  0  0  0
  -26.3710  -14.3430   20.4860 C   0  0  0  0  0  0  0  0  0  0  0  0
  -25.2990  -13.6000   20.8970 C   0  0  0  0  0  0  0  0  0  0  0  0
  -25.6530  -12.2350   20.6690 C   0  0  0  0  0  0  0  0  0  0  0  0
  -27.3140  -13.4330   20.0360 N   0  0  0  0  0  0  0  0  0  0  0  0
  -26.8950  -12.1520   20.2060 N   0  0  0  0  0  0  0  0  0  0  0  0
  -24.8580  -11.0080   20.8080 C   0  0  0  0  0  0  0  0  0  0  0  0
  -25.2210   -9.9920   21.7180 C   0  0  0  0  0  3  0  0  0  0  0  0
  -24.4290   -8.8290   21.8480 C   0  0  0  0  0  3  0  0  0  0  0  0
  -23.2600   -8.6760   21.0640 C   0  0  0  0  0  0  0  0  0  0  0  0
  -22.9160   -9.6810   20.1420 C   0  0  0  0  0  3  0  0  0  0  0  0
  -23.7080  -10.8340   20.0110 C   0  0  0  0  0  3  0  0  0  0  0  0
  -22.4450   -7.5710   21.1050 O   0  0  0  0  0  0  0  0  0  0  0  0
  -22.1570   -6.9310   22.2840 C   0  0  0  0  0  0  0  0  0  0  0  0
  -21.5370   -7.5990   23.3630 C   0  0  0  0  0  3  0  0  0  0  0  0
  -21.1950   -6.8870   24.5300 C   0  0  0  0  0  3  0  0  0  0  0  0
  -21.4640   -5.5080   24.6170 C   0  0  0  0  0  0  0  0  0  0  0  0
  -22.0750   -4.8390   23.5420 C   0  0  0  0  0  3  0  0  0  0  0  0
  -22.4180   -5.5490   22.3780 C   0  0  0  0  0  0  0  0  0  0  0  0
  -22.9880   -4.8960   21.3370 F   0  0  0  0  0  0  0  0  0  0  0  0
  -21.1280   -4.8220   25.7340 F   0  0  0  0  0  0  0  0  0  0  0  0
  -23.9790  -14.1300   21.3800 C   0  0  0  0  0  0  0  0  0  0  0  0
  -23.3100  -13.3990   22.2630 N   0  0  0  0  0  0  0  0  0  0  0  0
  -23.5580  -15.2260   21.0100 O   0  0  0  0  0  0  0  0  0  0  0  0
  -23.6660  -12.5100   22.5850 H   0  0  0  0  0  0  0  0  0  0  0  0
  -22.4280  -13.7330   22.6280 H   0  0  0  0  0  0  0  0  0  0  0  0
  -26.6160  -15.7120   20.4320 N   0  0  0  0  0  0  0  0  0  0  0  0
  -25.9070  -16.3920   20.6860 H   0  0  0  0  0  0  0  0  0  0  0  0
  -27.4290  -16.1330   20.0020 H   0  0  0  0  0  0  0  0  0  0  0  0
  -29.6820  -23.7230   19.5660 C   0  0  0  0  0  3  0  0  0  0  0  0
  -28.7970  -25.1400   19.8590 C   0  0  0  0  0  3  0  0  0  0  0  0
  -28.8750  -26.5710   19.2750 O   0  0  0  0  0  0  0  0  0  0  0  0
  -24.6680  -31.4490   22.8350 C   0  0  0  0  0  0  0  0  0  0  0  0
  -27.7160  -27.4210   19.3330 C   0  0  0  0  0  0  0  0  0  0  0  0
  -23.6100  -30.1070   21.0610 C   0  0  0  0  0  3  0  0  0  0  0  0
  -25.2070  -28.8670   19.4780 C   0  0  0  0  0  0  0  0  0  0  0  0
  -26.1140  -30.6780   20.9240 C   0  0  0  0  0  2  0  0  0  0  0  0
  -26.3350  -29.3810   20.1330 C   0  0  0  0  0  0  0  0  0  0  0  0
  -27.5900  -28.6740   20.0480 C   0  0  0  0  0  3  0  0  0  0  0  0
  -26.5580  -27.0170   18.6320 C   0  0  0  0  0  3  0  0  0  0  0  0
  -25.3280  -27.6990   18.7140 C   0  0  0  0  0  3  0  0  0  0  0  0
  -23.8870  -29.6060   19.6190 C   0  0  0  0  0  2  0  0  0  0  0  0
  -24.8150  -30.7620   21.6630 N   0  0  0  0  0  0  0  0  0  0  0  0
  -23.5630  -31.5530   23.3910 O   0  0  0  0  0  0  0  0  0  0  0  0
  -23.0620  -28.9320   21.9110 C   0  0  0  0  0  0  0  0  0  0  0  0
  -21.7590  -28.6280   21.7680 N   0  0  0  0  0  0  0  0  0  0  0  0
  -23.8100  -28.3020   22.6620 O   0  0  0  0  0  0  0  0  0  0  0  0
  -21.2060  -29.1960   21.1400 H   0  0  0  0  0  0  0  0  0  0  0  0
  -18.5350  -27.0250   22.1480 C   0  0  0  0  0  0  0  0  0  0  0  0
  -21.0540  -27.5320   22.4370 C   0  0  0  0  0  3  0  0  0  0  0  0
  -21.3030  -26.1880   21.7130 C   0  0  0  0  0  2  0  0  0  0  0  0
  -20.2270  -25.8550   20.6740 C   0  0  0  0  0  2  0  0  0  0  0  0
  -18.8470  -25.7800   21.3330 C   0  0  0  0  0  2  0  0  0  0  0  0
  -19.5710  -27.8560   22.6530 C   0  0  0  0  0  0  0  0  0  0  0  0
  -19.2240  -29.0170   23.3770 C   0  0  0  0  0  3  0  0  0  0  0  0
  -17.8740  -29.3510   23.6000 C   0  0  0  0  0  3  0  0  0  0  0  0
  -16.8550  -28.5160   23.1100 C   0  0  0  0  0  3  0  0  0  0  0  0
  -17.1850  -27.3560   22.3900 C   0  0  0  0  0  3  0  0  0  0  0  0
  -25.8760  -32.1530   23.5240 C   0  0  0  0  0  3  0  0  0  0  0  0
  -25.4210  -33.4760   23.9820 N   0  0  0  0  0  0  0  0  0  0  0  0
  -25.6260  -34.6240   23.3250 C   0  0  0  0  0  0  0  0  0  0  0  0
  -26.2860  -34.6890   22.2840 O   0  0  0  0  0  0  0  0  0  0  0  0
  -24.8270  -33.4890   24.7990 H   0  0  0  0  0  0  0  0  0  0  0  0
  -23.7050  -36.2410   23.1630 C   0  0  0  0  0  1  0  0  0  0  0  0
  -25.0030  -35.9050   23.9150 C   0  0  0  0  0  3  0  0  0  0  0  0
  -27.0440  -36.9460   24.7980 C   0  0  0  0  0  1  0  0  0  0  0  0
  -25.9120  -37.0700   23.8820 N   0  0  0  0  0  0  0  0  0  0  0  0
  -25.4110  -37.9250   24.1120 H   0  0  0  0  0  0  0  0  0  0  0  0
  -26.4710  -31.3260   24.7300 C   0  0  1  0  0  0  0  0  0  0  0  0
  -25.4120  -30.8870   25.7670 C   0  0  0  0  0  1  0  0  0  0  0  0
  -27.1850  -30.0510   24.2230 C   0  0  0  0  0  1  0  0  0  0  0  0
  -27.5410  -32.1680   25.4630 C   0  0  0  0  0  1  0  0  0  0  0  0
  1  2  1  0
  2 10  1  0
  2  3  2  0
  3  9  1  0
  4 23  1  0
  4  6  2  0
  5  1  2  0
  5  4  1  0
  6  3  1  0
  6 13  1  0
  7 11  2  0
  7  8  1  0
  9  8  1  0
  9 14  1  0
 10  7  1  0
 12  5  1  0
 15 21  1  0
 15 23  1  0
 16 21  1  0
 17 18  1  0
 17 16  1  0
 19 18  1  0
 19 28  1  0
 19 20  1  0
 21 20  1  0
 22 15  2  0
 23 24  1  0
 25 26  2  0
 26 45  1  0
 27 30  1  0
 27 26  1  0
 28 29  1  0
 28 25  1  0
 29 27  2  0
 30 31  1  0
 31 32  2  0
 33 36  1  0
 33 32  1  0
 34 33  2  0
 35 34  1  0
 35 30  2  0
 36 37  1  0
 37 42  2  0
 37 38  1  0
 38 39  2  0
 39 40  1  0
 40 44  1  0
 41 40  2  0
 42 41  1  0
 43 42  1  0
 45 46  1  0
 46 48  1  0
 46 49  1  0
 47 45  2  0
 50 25  1  0
 50 51  1  0
 52 50  1  0
 53 54  2  0
 53 10  1  0
 55 57  1  0
 55 54  1  0
 56 67  2  0
 57 62  1  0
 58 66  1  0
 58 68  1  0
 59 65  1  0
 59 61  1  0
 60 66  1  0
 61 60  1  0
 62 61  2  0
 63 64  1  0
 63 57  2  0
 64 59  2  0
 65 58  1  0
 66 56  1  0
 68 70  2  0
 69 68  1  0
 71 69  1  0
 72 81  2  0
 72 77  1  0
 73 69  1  0
 73 77  1  0
 74 73  1  0
 75 76  1  0
 75 74  1  0
 76 72  1  0
 77 78  2  0
 78 79  1  0
 80 79  2  0
 81 80  1  0
 82 56  1  0
 82 83  1  0
 82 92  1  0
 83 86  1  0
 84 88  1  0
 84 83  1  0
 85 84  2  0
 88 87  1  0
 90 88  1  0
 90 91  1  0
 90 89  1  0
 92 95  1  1
 92 93  1  0
 94 92  1  0
M  ISO  4  15 100  23 100  54 101  55 101
M  END
>  <TORSDO>  (36) 
F 18

>  <SCORE>  (36) 
-11.237

>  <name>  (36) 
36

>  <ligand_id>  (36) 
36

>  <original_smiles>  (36) 
[H]c1c([H])c([H])c2c(c1[H])C([H])([H])C([H])([H])C([H])([H])C2([H])N([H])C(=O)C1([H])N(C(=O)C([H])(N([H])C(=O)C([H])(N([H])C([H])([H])[H])C([H])([H])[H])C(C([H])([H])[H])(C([H])([H])[H])C([H])([H])[H])C([H])([H])c2c([H])c(OC([H])([H])C([H])([H])N3C(=O)C([H])([H])N([H])c4c(F)c(N([H])C(=O)N5C([H])([H])C([H])([H])C([H])([H])C([H])(n6nc(-c7c([H])c([H])c(Oc8c([H])c([H])c(F)c([H])c8F)c([H])c7[H])c(C(=O)N([H])[H])c6N([H])[H])C5([H])[H])c(F)c([H])c43)c([H])c([H])c2C1([H])[H]

>  <smiles>  (36) 
[H]c1c([H])c([H])c2c(c1[H])C([H])([H])C([H])([H])C([H])([H])C2([H])N([H])C(=O)C1([H])N(C(=O)C([H])(N([H])C(=O)C([H])(N([H])C([H])([H])[H])C([H])([H])[H])C(C([H])([H])[H])(C([H])([H])[H])C([H])([H])[H])C([H])([H])c2c([H])c(OC([H])([H])C([H])([H])N3C(=O)C([H])([H])N([H])c4c(F)c(N([H])C(=O)N5C([H])([H])C([H])([H])C([H])([H])C([H])(n6nc(-c7c([H])c([H])c(Oc8c([H])c([H])c(F)c([H])c8F)c([H])c7[H])c(C(=O)N([H])[H])c6N([H])[H])C5([H])[H])c(F)c([H])c43)c([H])c([H])c2C1([H])[H]

$$$$
37:0:0
     RDKit          3D

 99109  0  0  1  0  0  0  0  0999 V2000
  -28.6170  -21.8230   18.7480 C   0  0  0  0  0  2  0  0  0  0  0  0
  -29.4780  -21.0900   20.8130 C   0  0  0  0  0  2  0  0  0  0  0  0
  -30.2900  -19.9380   18.0230 C   0  0  0  0  0  2  0  0  0  0  0  0
  -28.9380  -20.2920   18.6560 C   0  0  0  0  0  3  0  0  0  0  0  0
  -29.0970  -19.7320   20.0670 C   0  0  0  0  0  3  0  0  0  0  0  0
  -30.0860  -18.4470   19.9390 C   0  0  0  0  0  3  0  0  0  0  0  0
  -28.6970  -22.2290   20.1760 N   0  0  1  0  0  4  0  0  0  0  0  0
  -30.6880  -18.6240   18.5860 N   0  0  2  0  0  4  0  0  0  0  0  0
  -27.7620  -22.1170   20.5430 H   0  0  0  0  0  0  0  0  0  0  0  0
  -30.2260  -17.9400   18.0070 H   0  0  0  0  0  0  0  0  0  0  0  0
  -32.1330  -18.3110   18.4660 C   0  0  0  0  0  2  0  0  0  0  0  0
  -33.0630  -17.4820   14.2980 C   0  0  0  0  0  3  0  0  0  0  0  0
  -32.5750  -16.4580   15.1290 C   0  0  0  0  0  3  0  0  0  0  0  0
  -33.2720  -18.7730   14.8210 C   0  0  0  0  0  3  0  0  0  0  0  0
  -32.2900  -16.7230   16.4830 C   0  0  0  0  0  3  0  0  0  0  0  0
  -32.9910  -19.0390   16.1770 C   0  0  0  0  0  3  0  0  0  0  0  0
  -32.4900  -18.0170   17.0140 C   0  0  0  0  0  0  0  0  0  0  0  0
  -29.4280  -16.9620   19.9730 C   0  0  0  0  0  2  0  0  0  0  0  0
  -30.7320  -14.6630   20.0140 C   0  0  0  0  0  0  0  0  0  0  0  0
  -30.4120  -12.4310   18.9390 C   0  0  0  0  0  2  0  0  0  0  0  0
  -29.4010  -12.5480   17.7780 C   0  0  0  0  0  2  0  0  0  0  0  0
  -27.9610  -12.3860   18.2990 C   0  0  0  0  0  2  0  0  0  0  0  0
  -27.6790  -13.2580   19.5520 C   0  0  0  0  0  3  0  0  0  0  0  0
  -28.7990  -13.1150   20.6050 C   0  0  0  0  0  2  0  0  0  0  0  0
  -30.0710  -13.4570   19.9500 N   0  0  0  0  0  0  0  0  0  0  0  0
  -31.8200  -14.8040   19.4520 O   0  0  0  0  0  0  0  0  0  0  0  0
  -30.3530  -15.9310   22.0430 C   0  0  0  0  0  1  0  0  0  0  0  0
  -30.1110  -15.7520   20.6110 N   0  0  0  0  0  0  0  0  0  0  0  0
  -25.3550  -13.8790   20.4460 C   0  0  0  0  0  0  0  0  0  0  0  0
  -24.2990  -13.1150   20.8640 C   0  0  0  0  0  0  0  0  0  0  0  0
  -24.7300  -11.7570   20.7660 C   0  0  0  0  0  0  0  0  0  0  0  0
  -26.3620  -12.9850   20.1170 N   0  0  0  0  0  0  0  0  0  0  0  0
  -25.9970  -11.7020   20.3720 N   0  0  0  0  0  0  0  0  0  0  0  0
  -23.9920  -10.5040   20.9680 C   0  0  0  0  0  0  0  0  0  0  0  0
  -24.4410   -9.5190   21.8750 C   0  0  0  0  0  3  0  0  0  0  0  0
  -23.7020   -8.3310   22.0680 C   0  0  0  0  0  3  0  0  0  0  0  0
  -22.5000   -8.1210   21.3510 C   0  0  0  0  0  0  0  0  0  0  0  0
  -22.0700   -9.0930   20.4310 C   0  0  0  0  0  3  0  0  0  0  0  0
  -22.8090  -10.2720   20.2380 C   0  0  0  0  0  3  0  0  0  0  0  0
  -21.7310   -6.9870   21.4530 O   0  0  0  0  0  0  0  0  0  0  0  0
  -21.6770   -6.2560   22.6120 C   0  0  0  0  0  0  0  0  0  0  0  0
  -21.2650   -6.8280   23.8350 C   0  0  0  0  0  3  0  0  0  0  0  0
  -21.1570   -6.0230   24.9880 C   0  0  0  0  0  3  0  0  0  0  0  0
  -21.4500   -4.6490   24.9180 C   0  0  0  0  0  0  0  0  0  0  0  0
  -21.8560   -4.0760   23.6990 C   0  0  0  0  0  3  0  0  0  0  0  0
  -21.9660   -4.8770   22.5490 C   0  0  0  0  0  0  0  0  0  0  0  0
  -22.3360   -4.3170   21.3730 F   0  0  0  0  0  0  0  0  0  0  0  0
  -21.3400   -3.8740   26.0220 F   0  0  0  0  0  0  0  0  0  0  0  0
  -22.9330  -13.6110   21.2390 C   0  0  0  0  0  0  0  0  0  0  0  0
  -22.2510  -12.9080   22.1360 N   0  0  0  0  0  0  0  0  0  0  0  0
  -22.4830  -14.6570   20.7740 O   0  0  0  0  0  0  0  0  0  0  0  0
  -22.6290  -12.0610   22.5330 H   0  0  0  0  0  0  0  0  0  0  0  0
  -21.3380  -13.2220   22.4310 H   0  0  0  0  0  0  0  0  0  0  0  0
  -25.5380  -15.2510   20.2980 N   0  0  0  0  0  0  0  0  0  0  0  0
  -24.7950  -15.9160   20.4840 H   0  0  0  0  0  0  0  0  0  0  0  0
  -26.3800  -15.6830   19.9430 H   0  0  0  0  0  0  0  0  0  0  0  0
  -29.0880  -23.7020   20.4540 C   0  0  0  0  0  3  0  0  0  0  0  0
  -28.0330  -24.8670   20.0660 C   0  0  0  0  0  3  0  0  0  0  0  0
  -28.2790  -26.3340   20.3140 O   0  0  0  0  0  0  0  0  0  0  0  0
  -24.5850  -31.8520   23.2580 C   0  0  0  0  0  0  0  0  0  0  0  0
  -27.1860  -27.2320   20.2360 C   0  0  0  0  0  0  0  0  0  0  0  0
  -23.3860  -30.4540   21.6170 C   0  0  0  0  0  3  0  0  0  0  0  0
  -24.8390  -28.8920   20.2020 C   0  0  0  0  0  0  0  0  0  0  0  0
  -25.9310  -30.7500   21.4500 C   0  0  0  0  0  2  0  0  0  0  0  0
  -26.0090  -29.3650   20.8070 C   0  0  0  0  0  0  0  0  0  0  0  0
  -27.1860  -28.5470   20.8150 C   0  0  0  0  0  3  0  0  0  0  0  0
  -25.9900  -26.8330   19.5940 C   0  0  0  0  0  3  0  0  0  0  0  0
  -24.8340  -27.6340   19.5840 C   0  0  0  0  0  3  0  0  0  0  0  0
  -23.6060  -29.7730   20.2410 C   0  0  0  0  0  2  0  0  0  0  0  0
  -24.6530  -31.0370   22.1650 N   0  0  0  0  0  0  0  0  0  0  0  0
  -23.4990  -32.1390   23.7840 O   0  0  0  0  0  0  0  0  0  0  0  0
  -22.7110  -29.4440   22.5760 C   0  0  0  0  0  0  0  0  0  0  0  0
  -21.3850  -29.2730   22.4420 N   0  0  0  0  0  0  0  0  0  0  0  0
  -23.3800  -28.8180   23.4030 O   0  0  0  0  0  0  0  0  0  0  0  0
  -20.9040  -29.8310   21.7500 H   0  0  0  0  0  0  0  0  0  0  0  0
  -17.9980  -28.0890   22.9240 C   0  0  0  0  0  0  0  0  0  0  0  0
  -20.5550  -28.3420   23.2110 C   0  0  0  0  0  3  0  0  0  0  0  0
  -20.6570  -26.9070   22.6450 C   0  0  0  0  0  2  0  0  0  0  0  0
  -19.5620  -26.5830   21.6240 C   0  0  0  0  0  2  0  0  0  0  0  0
  -18.1750  -26.7350   22.2570 C   0  0  0  0  0  2  0  0  0  0  0  0
  -19.1170  -28.8500   23.3580 C   0  0  0  0  0  0  0  0  0  0  0  0
  -18.8990  -30.1160   23.9430 C   0  0  0  0  0  3  0  0  0  0  0  0
  -17.5950  -30.6220   24.0980 C   0  0  0  0  0  3  0  0  0  0  0  0
  -16.4910  -29.8590   23.6810 C   0  0  0  0  0  3  0  0  0  0  0  0
  -16.6930  -28.5950   23.0980 C   0  0  0  0  0  3  0  0  0  0  0  0
  -25.8660  -32.4830   23.8850 C   0  0  0  0  0  3  0  0  0  0  0  0
  -25.5590  -33.8840   24.2100 N   0  0  0  0  0  0  0  0  0  0  0  0
  -25.8880  -34.9340   23.4450 C   0  0  0  0  0  0  0  0  0  0  0  0
  -26.5520  -34.8260   22.4110 O   0  0  0  0  0  0  0  0  0  0  0  0
  -24.9680  -34.0420   25.0140 H   0  0  0  0  0  0  0  0  0  0  0  0
  -24.1540  -36.7240   23.1040 C   0  0  0  0  0  1  0  0  0  0  0  0
  -25.4060  -36.3250   23.9010 C   0  0  0  0  0  3  0  0  0  0  0  0
  -27.5490  -37.2170   24.6980 C   0  0  0  0  0  1  0  0  0  0  0  0
  -26.4360  -37.3790   23.7680 N   0  0  0  0  0  0  0  0  0  0  0  0
  -26.0300  -38.2980   23.9160 H   0  0  0  0  0  0  0  0  0  0  0  0
  -26.3710  -31.7160   25.1670 C   0  0  1  0  0  0  0  0  0  0  0  0
  -25.2700  -31.4860   26.2290 C   0  0  0  0  0  1  0  0  0  0  0  0
  -26.9520  -30.3340   24.7860 C   0  0  0  0  0  1  0  0  0  0  0  0
  -27.5210  -32.5060   25.8340 C   0  0  0  0  0  1  0  0  0  0  0  0
  1  7  1  0
  3  8  1  0
  4  3  1  0
  4  1  1  0
  4  5  1  0
  5  2  1  0
  6 18  1  0
  6  5  1  0
  7 57  1  0
  7  9  1  1
  7  2  1  0
  8  6  1  0
  8 10  1  6
 11  8  1  0
 12 14  2  0
 12 13  1  0
 13 15  2  0
 14 16  1  0
 15 17  1  0
 16 17  2  0
 17 11  1  0
 18 28  1  0
 19 28  1  0
 20 25  1  0
 21 22  1  0
 21 20  1  0
 23 22  1  0
 23 32  1  0
 23 24  1  0
 25 19  1  0
 25 24  1  0
 26 19  2  0
 28 27  1  0
 29 30  2  0
 30 49  1  0
 31 30  1  0
 31 34  1  0
 32 33  1  0
 32 29  1  0
 33 31  2  0
 34 35  1  0
 35 36  2  0
 37 40  1  0
 37 36  1  0
 38 37  2  0
 39 38  1  0
 39 34  2  0
 40 41  1  0
 41 42  1  0
 42 43  2  0
 44 43  1  0
 44 48  1  0
 45 44  2  0
 46 41  2  0
 46 45  1  0
 47 46  1  0
 49 50  1  0
 50 53  1  0
 50 52  1  0
 51 49  2  0
 54 29  1  0
 54 55  1  0
 56 54  1  0
 58 59  1  0
 58 57  2  0
 60 71  2  0
 61 59  1  0
 61 66  1  0
 62 70  1  0
 62 72  1  0
 63 69  1  0
 63 65  1  0
 64 70  1  0
 65 66  2  0
 65 64  1  0
 67 61  2  0
 68 67  1  0
 68 63  2  0
 69 62  1  0
 70 60  1  0
 72 74  2  0
 73 72  1  0
 75 73  1  0
 76 85  2  0
 76 81  1  0
 77 73  1  0
 77 81  1  0
 78 77  1  0
 79 80  1  0
 79 78  1  0
 80 76  1  0
 81 82  2  0
 82 83  1  0
 84 83  2  0
 85 84  1  0
 86 60  1  0
 86 87  1  0
 86 96  1  0
 87 90  1  0
 88 92  1  0
 88 87  1  0
 89 88  2  0
 92 91  1  0
 94 92  1  0
 94 95  1  0
 94 93  1  0
 96 99  1  1
 96 97  1  0
 98 96  1  0
M  ISO  4  19 100  28 100  58 101  59 101
M  END
>  <TORSDO>  (37) 
F 21

>  <SCORE>  (37) 
-13.586

>  <name>  (37) 
37

>  <ligand_id>  (37) 
37

>  <original_smiles>  (37) 
[H]c1c([H])c([H])c(C([H])([H])[N+]2([H])C([H])([H])C3([H])C([H])(C([H])([H])[N+]([H])(C([H])([H])C([H])([H])Oc4c([H])c([H])c5c(c4[H])C([H])([H])N(C(=O)C([H])(N([H])C(=O)C([H])(N([H])C([H])([H])[H])C([H])([H])[H])C(C([H])([H])[H])(C([H])([H])[H])C([H])([H])[H])C([H])(C(=O)N([H])C4([H])c6c([H])c([H])c([H])c([H])c6C([H])([H])C([H])([H])C4([H])[H])C5([H])[H])C3([H])[H])C2([H])C([H])([H])N(C(=O)N2C([H])([H])C([H])([H])C([H])([H])C([H])(n3nc(-c4c([H])c([H])c(Oc5c([H])c([H])c(F)c([H])c5F)c([H])c4[H])c(C(=O)N([H])[H])c3N([H])[H])C2([H])[H])C([H])([H])[H])c([H])c1[H]

>  <smiles>  (37) 
[H]c1c([H])c([H])c(C([H])([H])[N+]2([H])C([H])([H])C3([H])C([H])(C([H])([H])[N+]([H])(C([H])([H])C([H])([H])Oc4c([H])c([H])c5c(c4[H])C([H])([H])N(C(=O)C([H])(N([H])C(=O)C([H])(N([H])C([H])([H])[H])C([H])([H])[H])C(C([H])([H])[H])(C([H])([H])[H])C([H])([H])[H])C([H])(C(=O)N([H])C4([H])c6c([H])c([H])c([H])c([H])c6C([H])([H])C([H])([H])C4([H])[H])C5([H])[H])C3([H])[H])C2([H])C([H])([H])N(C(=O)N2C([H])([H])C([H])([H])C([H])([H])C([H])(n3nc(-c4c([H])c([H])c(Oc5c([H])c([H])c(F)c([H])c5F)c([H])c4[H])c(C(=O)N([H])[H])c3N([H])[H])C2([H])[H])C([H])([H])[H])c([H])c1[H]

$$$$
38:0:0
     RDKit          3D

100110  0  0  1  0  0  0  0  0999 V2000
  -28.9260  -19.6660   26.8150 C   0  0  0  0  0  3  0  0  0  0  0  0
  -28.8830  -18.2590   26.7990 C   0  0  0  0  0  3  0  0  0  0  0  0
  -29.4340  -20.3670   25.7040 C   0  0  0  0  0  3  0  0  0  0  0  0
  -29.3440  -17.5510   25.6720 C   0  0  0  0  0  3  0  0  0  0  0  0
  -31.9890  -19.6350   20.1400 C   0  0  0  0  0  3  0  0  0  0  0  0
  -31.8980  -18.2300   20.1060 C   0  0  0  0  0  3  0  0  0  0  0  0
  -30.4400  -20.3560   23.4770 C   0  0  0  0  0  3  0  0  0  0  0  0
  -30.3270  -17.5480   23.4330 C   0  0  0  0  0  3  0  0  0  0  0  0
  -29.9080  -19.6610   24.5780 C   0  0  0  0  0  0  0  0  0  0  0  0
  -29.8580  -18.2490   24.5600 C   0  0  0  0  0  0  0  0  0  0  0  0
  -30.9450  -19.6630   22.3470 C   0  0  0  0  0  0  0  0  0  0  0  0
  -30.8700  -18.2360   22.3190 C   0  0  0  0  0  0  0  0  0  0  0  0
  -31.5340  -20.3660   21.2590 C   0  0  0  0  0  0  0  0  0  0  0  0
  -31.3600  -17.5110   21.1970 C   0  0  0  0  0  0  0  0  0  0  0  0
  -31.8740  -15.2000   20.3710 C   0  0  0  0  0  0  0  0  0  0  0  0
  -31.5890  -13.1060   19.0970 C   0  0  0  0  0  2  0  0  0  0  0  0
  -30.6700  -13.3770   17.8890 C   0  0  0  0  0  2  0  0  0  0  0  0
  -29.1860  -13.2370   18.2830 C   0  0  0  0  0  2  0  0  0  0  0  0
  -28.8350  -14.0250   19.5740 C   0  0  0  0  0  3  0  0  0  0  0  0
  -29.8600  -13.7180   20.6890 C   0  0  0  0  0  2  0  0  0  0  0  0
  -31.2070  -14.0320   20.1750 N   0  0  0  0  0  0  0  0  0  0  0  0
  -32.9660  -15.4480   19.8490 O   0  0  0  0  0  0  0  0  0  0  0  0
  -31.2290  -16.0870   21.1510 N   0  0  0  0  0  0  0  0  0  0  0  0
  -30.4570  -15.7040   21.6740 H   0  0  0  0  0  0  0  0  0  0  0  0
  -26.4090  -14.6350   20.1880 C   0  0  0  0  0  0  0  0  0  0  0  0
  -25.3340  -13.8640   20.5410 C   0  0  0  0  0  0  0  0  0  0  0  0
  -25.8030  -12.5150   20.5520 C   0  0  0  0  0  0  0  0  0  0  0  0
  -27.4670  -13.7550   20.0100 N   0  0  0  0  0  0  0  0  0  0  0  0
  -27.1030  -12.4760   20.2850 N   0  0  0  0  0  0  0  0  0  0  0  0
  -25.0800  -11.2520   20.7480 C   0  0  0  0  0  0  0  0  0  0  0  0
  -25.4270  -10.3560   21.7830 C   0  0  0  0  0  3  0  0  0  0  0  0
  -24.7050   -9.1560   21.9620 C   0  0  0  0  0  3  0  0  0  0  0  0
  -23.6220   -8.8440   21.1050 C   0  0  0  0  0  0  0  0  0  0  0  0
  -23.2950   -9.7300   20.0630 C   0  0  0  0  0  3  0  0  0  0  0  0
  -24.0190  -10.9200   19.8820 C   0  0  0  0  0  3  0  0  0  0  0  0
  -22.8810   -7.6900   21.1880 O   0  0  0  0  0  0  0  0  0  0  0  0
  -22.5100   -7.1580   22.3950 C   0  0  0  0  0  0  0  0  0  0  0  0
  -21.8060   -7.9140   23.3590 C   0  0  0  0  0  3  0  0  0  0  0  0
  -21.3840   -7.3070   24.5580 C   0  0  0  0  0  3  0  0  0  0  0  0
  -21.6540   -5.9460   24.7930 C   0  0  0  0  0  0  0  0  0  0  0  0
  -22.3500   -5.1900   23.8330 C   0  0  0  0  0  3  0  0  0  0  0  0
  -22.7730   -5.7950   22.6360 C   0  0  0  0  0  0  0  0  0  0  0  0
  -23.4250   -5.0570   21.7060 F   0  0  0  0  0  0  0  0  0  0  0  0
  -21.2420   -5.3600   25.9410 F   0  0  0  0  0  0  0  0  0  0  0  0
  -23.9260  -14.3370   20.7620 C   0  0  0  0  0  0  0  0  0  0  0  0
  -23.1960  -13.6870   21.6620 N   0  0  0  0  0  0  0  0  0  0  0  0
  -23.4810  -15.3210   20.1720 O   0  0  0  0  0  0  0  0  0  0  0  0
  -23.5680  -12.8950   22.1640 H   0  0  0  0  0  0  0  0  0  0  0  0
  -22.2510  -13.9880   21.8550 H   0  0  0  0  0  0  0  0  0  0  0  0
  -26.5710  -16.0030   19.9870 N   0  0  0  0  0  0  0  0  0  0  0  0
  -25.7970  -16.6540   20.0600 H   0  0  0  0  0  0  0  0  0  0  0  0
  -27.4340  -16.4440   19.6960 H   0  0  0  0  0  0  0  0  0  0  0  0
  -31.7950  -21.8790   21.2900 C   0  0  0  0  0  2  0  0  0  0  0  0
  -30.6840  -22.7140   20.7740 N   0  0  0  0  0  4  0  0  0  0  0  0
  -29.8050  -22.2730   20.9940 H   0  0  0  0  0  0  0  0  0  0  0  0
  -30.7680  -22.7440   19.7710 H   0  0  0  0  0  0  0  0  0  0  0  0
  -30.6900  -24.0960   21.3230 C   0  0  0  0  0  2  0  0  0  0  0  0
  -29.7790  -25.0970   20.5710 C   0  0  0  0  0  2  0  0  0  0  0  0
  -29.6750  -26.4580   21.2980 C   0  0  0  0  0  2  0  0  0  0  0  0
  -29.4010  -27.5190   20.3860 O   0  0  0  0  0  0  0  0  0  0  0  0
  -24.6000  -31.9120   23.3190 C   0  0  0  0  0  0  0  0  0  0  0  0
  -28.1250  -28.0220   20.3980 C   0  0  0  0  0  0  0  0  0  0  0  0
  -23.7490  -30.3840   21.5660 C   0  0  0  0  0  3  0  0  0  0  0  0
  -25.5280  -29.1160   20.2470 C   0  0  0  0  0  0  0  0  0  0  0  0
  -26.1940  -31.1320   21.5710 C   0  0  0  0  0  2  0  0  0  0  0  0
  -26.5400  -29.8050   20.9300 C   0  0  0  0  0  0  0  0  0  0  0  0
  -27.8410  -29.2640   21.0060 C   0  0  0  0  0  3  0  0  0  0  0  0
  -27.1030  -27.3350   19.7150 C   0  0  0  0  0  3  0  0  0  0  0  0
  -25.8030  -27.8760   19.6410 C   0  0  0  0  0  3  0  0  0  0  0  0
  -24.1660  -29.7710   20.2010 C   0  0  0  0  0  2  0  0  0  0  0  0
  -24.8580  -31.1590   22.2120 N   0  0  0  0  0  0  0  0  0  0  0  0
  -23.4520  -32.0040   23.7770 O   0  0  0  0  0  0  0  0  0  0  0  0
  -23.1910  -29.2540   22.4600 C   0  0  0  0  0  0  0  0  0  0  0  0
  -21.9140  -28.8960   22.2450 N   0  0  0  0  0  0  0  0  0  0  0  0
  -23.9070  -28.7010   23.2990 O   0  0  0  0  0  0  0  0  0  0  0  0
  -21.3940  -29.4030   21.5420 H   0  0  0  0  0  0  0  0  0  0  0  0
  -18.7080  -27.2570   22.5200 C   0  0  0  0  0  0  0  0  0  0  0  0
  -21.1920  -27.8320   22.9380 C   0  0  0  0  0  3  0  0  0  0  0  0
  -21.5110  -26.4500   22.3210 C   0  0  0  0  0  2  0  0  0  0  0  0
  -20.5120  -26.0300   21.2380 C   0  0  0  0  0  2  0  0  0  0  0  0
  -19.0920  -25.9700   21.8100 C   0  0  0  0  0  2  0  0  0  0  0  0
  -19.6950  -28.1390   23.0350 C   0  0  0  0  0  0  0  0  0  0  0  0
  -19.2850  -29.3400   23.6550 C   0  0  0  0  0  3  0  0  0  0  0  0
  -17.9190  -29.6640   23.7650 C   0  0  0  0  0  3  0  0  0  0  0  0
  -16.9460  -28.7800   23.2680 C   0  0  0  0  0  3  0  0  0  0  0  0
  -17.3400  -27.5790   22.6510 C   0  0  0  0  0  3  0  0  0  0  0  0
  -25.7250  -32.7140   24.0440 C   0  0  0  0  0  3  0  0  0  0  0  0
  -25.2610  -34.1000   24.1840 N   0  0  0  0  0  0  0  0  0  0  0  0
  -25.6210  -35.1070   23.3770 C   0  0  0  0  0  0  0  0  0  0  0  0
  -26.4480  -34.9750   22.4710 O   0  0  0  0  0  0  0  0  0  0  0  0
  -24.5370  -34.2680   24.8670 H   0  0  0  0  0  0  0  0  0  0  0  0
  -23.8400  -36.6950   22.5830 C   0  0  0  0  0  1  0  0  0  0  0  0
  -24.9600  -36.4780   23.6130 C   0  0  0  0  0  3  0  0  0  0  0  0
  -26.8730  -37.6090   24.6580 C   0  0  0  0  0  1  0  0  0  0  0  0
  -25.9100  -37.6100   23.5590 N   0  0  0  0  0  0  0  0  0  0  0  0
  -25.4140  -38.4980   23.5730 H   0  0  0  0  0  0  0  0  0  0  0  0
  -26.1110  -32.1090   25.4510 C   0  0  1  0  0  0  0  0  0  0  0  0
  -24.8930  -31.8330   26.3650 C   0  0  0  0  0  1  0  0  0  0  0  0
  -26.8810  -30.7780   25.2800 C   0  0  0  0  0  1  0  0  0  0  0  0
  -27.0610  -33.0760   26.1940 C   0  0  0  0  0  1  0  0  0  0  0  0
  2  1  1  0
  3  1  2  0
  4  2  2  0
  5 13  1  0
  6  5  2  0
  6 14  1  0
  7  9  2  0
  8 10  2  0
  9  3  1  0
 10  9  1  0
 10  4  1  0
 11  7  1  0
 12 11  1  0
 12  8  1  0
 13 53  1  0
 13 11  2  0
 14 12  2  0
 15 23  1  0
 16 21  1  0
 17 18  1  0
 17 16  1  0
 19 18  1  0
 19 28  1  0
 19 20  1  0
 21 15  1  0
 21 20  1  0
 22 15  2  0
 23 14  1  0
 23 24  1  0
 25 26  2  0
 26 27  1  0
 26 45  1  0
 27 30  1  0
 28 25  1  0
 28 29  1  0
 29 27  2  0
 30 31  1  0
 31 32  2  0
 33 36  1  0
 33 32  1  0
 34 33  2  0
 35 34  1  0
 35 30  2  0
 36 37  1  0
 37 42  2  0
 37 38  1  0
 38 39  2  0
 39 40  1  0
 40 44  1  0
 41 40  2  0
 42 41  1  0
 43 42  1  0
 45 46  1  0
 46 49  1  0
 46 48  1  0
 47 45  2  0
 50 51  1  0
 50 25  1  0
 52 50  1  0
 54 55  1  0
 54 53  1  0
 54 57  1  0
 56 54  1  0
 58 59  1  0
 58 57  1  0
 60 62  1  0
 60 59  1  0
 61 72  2  0
 62 67  1  0
 63 71  1  0
 63 73  1  0
 64 66  1  0
 65 71  1  0
 66 67  2  0
 66 65  1  0
 68 62  2  0
 69 68  1  0
 69 64  2  0
 70 64  1  0
 70 63  1  0
 71 61  1  0
 73 75  2  0
 74 73  1  0
 76 74  1  0
 77 86  2  0
 77 82  1  0
 78 74  1  0
 78 82  1  0
 79 78  1  0
 80 81  1  0
 80 79  1  0
 81 77  1  0
 82 83  2  0
 83 84  1  0
 85 84  2  0
 86 85  1  0
 87 61  1  0
 87 88  1  0
 87 97  1  0
 88 91  1  0
 89 93  1  0
 89 88  1  0
 90 89  2  0
 93 92  1  0
 95 96  1  0
 95 93  1  0
 95 94  1  0
 97100  1  1
 97 98  1  0
 99 97  1  0
M  ISO  4  15 100  23 100  59 101  60 101
M  END
>  <TORSDO>  (38) 
F 21

>  <SCORE>  (38) 
3.840

>  <name>  (38) 
38

>  <ligand_id>  (38) 
38

>  <original_smiles>  (38) 
[H]c1c([H])c([H])c2c(c1[H])C([H])([H])C([H])([H])C([H])([H])C2([H])N([H])C(=O)C1([H])N(C(=O)C([H])(N([H])C(=O)C([H])(N([H])C([H])([H])[H])C([H])([H])[H])C(C([H])([H])[H])(C([H])([H])[H])C([H])([H])[H])C([H])([H])c2c([H])c(OC([H])([H])C([H])([H])C([H])([H])[N+]([H])([H])C([H])([H])c3c([H])c([H])c(N([H])C(=O)N4C([H])([H])C([H])([H])C([H])([H])C([H])(n5nc(-c6c([H])c([H])c(Oc7c([H])c([H])c(F)c([H])c7F)c([H])c6[H])c(C(=O)N([H])[H])c5N([H])[H])C4([H])[H])c4c([H])c5c([H])c([H])c([H])c([H])c5c([H])c34)c([H])c([H])c2C1([H])[H]

>  <smiles>  (38) 
[H]c1c([H])c([H])c2c(c1[H])C([H])([H])C([H])([H])C([H])([H])C2([H])N([H])C(=O)C1([H])N(C(=O)C([H])(N([H])C(=O)C([H])(N([H])C([H])([H])[H])C([H])([H])[H])C(C([H])([H])[H])(C([H])([H])[H])C([H])([H])[H])C([H])([H])c2c([H])c(OC([H])([H])C([H])([H])C([H])([H])[N+]([H])([H])C([H])([H])c3c([H])c([H])c(N([H])C(=O)N4C([H])([H])C([H])([H])C([H])([H])C([H])(n5nc(-c6c([H])c([H])c(Oc7c([H])c([H])c(F)c([H])c7F)c([H])c6[H])c(C(=O)N([H])[H])c5N([H])[H])C4([H])[H])c4c([H])c5c([H])c([H])c([H])c([H])c5c([H])c34)c([H])c([H])c2C1([H])[H]

$$$$
39:0:0
     RDKit          3D

 90 99  0  0  1  0  0  0  0  0999 V2000
  -30.6330  -15.0100   20.3060 C   0  0  0  0  0  0  0  0  0  0  0  0
  -30.4780  -12.6170   19.4750 C   0  0  0  0  0  2  0  0  0  0  0  0
  -29.5690  -12.4990   18.2320 C   0  0  0  0  0  2  0  0  0  0  0  0
  -28.0950  -12.3220   18.6420 C   0  0  0  0  0  2  0  0  0  0  0  0
  -27.6640  -13.3020   19.7610 C   0  0  0  0  0  3  0  0  0  0  0  0
  -28.7010  -13.3990   20.8980 C   0  0  0  0  0  2  0  0  0  0  0  0
  -29.9830  -13.7720   20.2800 N   0  0  0  0  0  0  0  0  0  0  0  0
  -31.8620  -14.9850   20.2090 O   0  0  0  0  0  0  0  0  0  0  0  0
  -27.2710  -18.8850   20.7540 C   0  0  0  0  0  2  0  0  0  0  0  0
  -27.4380  -18.4740   19.2740 C   0  0  0  0  0  2  0  0  0  0  0  0
  -29.3440  -16.6830   18.8990 C   0  0  0  0  0  2  0  0  0  0  0  0
  -30.2200  -17.6720   20.7920 C   0  0  0  0  0  2  0  0  0  0  0  0
  -28.0660  -20.1670   21.1370 C   0  0  0  0  0  2  0  0  0  0  0  0
  -28.9090  -18.2050   18.8810 C   0  0  0  0  0  3  0  0  0  0  0  0
  -29.8560  -18.9640   19.8130 C   0  0  0  0  0  3  0  0  0  0  0  0
  -29.9300  -16.2640   20.1950 N   0  0  0  0  0  0  0  0  0  0  0  0
  -29.3190  -20.3780   20.3480 N   0  0  1  0  0  4  0  0  0  0  0  0
  -30.0210  -20.6610   21.0160 H   0  0  0  0  0  0  0  0  0  0  0  0
  -25.2760  -13.9440   20.4040 C   0  0  0  0  0  0  0  0  0  0  0  0
  -24.1840  -13.1990   20.7540 C   0  0  0  0  0  0  0  0  0  0  0  0
  -24.6260  -11.8410   20.7870 C   0  0  0  0  0  0  0  0  0  0  0  0
  -26.3130  -13.0400   20.2340 N   0  0  0  0  0  0  0  0  0  0  0  0
  -25.9280  -11.7720   20.5260 N   0  0  0  0  0  0  0  0  0  0  0  0
  -23.8690  -10.6000   20.9890 C   0  0  0  0  0  0  0  0  0  0  0  0
  -24.2740   -9.6320   21.9330 C   0  0  0  0  0  3  0  0  0  0  0  0
  -23.5160   -8.4570   22.1240 C   0  0  0  0  0  3  0  0  0  0  0  0
  -22.3400   -8.2410   21.3680 C   0  0  0  0  0  0  0  0  0  0  0  0
  -21.9550   -9.1960   20.4100 C   0  0  0  0  0  3  0  0  0  0  0  0
  -22.7140  -10.3620   20.2180 C   0  0  0  0  0  3  0  0  0  0  0  0
  -21.5560   -7.1160   21.4670 O   0  0  0  0  0  0  0  0  0  0  0  0
  -21.5150   -6.3640   22.6140 C   0  0  0  0  0  0  0  0  0  0  0  0
  -21.1700   -6.9290   23.8620 C   0  0  0  0  0  3  0  0  0  0  0  0
  -21.0760   -6.1080   25.0040 C   0  0  0  0  0  3  0  0  0  0  0  0
  -21.3170   -4.7240   24.8990 C   0  0  0  0  0  0  0  0  0  0  0  0
  -21.6540   -4.1600   23.6570 C   0  0  0  0  0  3  0  0  0  0  0  0
  -21.7510   -4.9770   22.5180 C   0  0  0  0  0  0  0  0  0  0  0  0
  -22.0560   -4.4260   21.3180 F   0  0  0  0  0  0  0  0  0  0  0  0
  -21.2170   -3.9340   25.9920 F   0  0  0  0  0  0  0  0  0  0  0  0
  -22.7870  -13.7090   20.9560 C   0  0  0  0  0  0  0  0  0  0  0  0
  -22.0180  -13.0630   21.8270 N   0  0  0  0  0  0  0  0  0  0  0  0
  -22.3850  -14.7190   20.3790 O   0  0  0  0  0  0  0  0  0  0  0  0
  -22.3520  -12.2420   22.3090 H   0  0  0  0  0  0  0  0  0  0  0  0
  -21.0790  -13.3890   22.0070 H   0  0  0  0  0  0  0  0  0  0  0  0
  -25.4700  -15.3060   20.1910 N   0  0  0  0  0  0  0  0  0  0  0  0
  -24.7110  -15.9750   20.2570 H   0  0  0  0  0  0  0  0  0  0  0  0
  -26.3520  -15.7280   19.9340 H   0  0  0  0  0  0  0  0  0  0  0  0
  -29.1290  -21.6890   19.4450 C   0  0  0  0  0  2  0  0  0  0  0  0
  -29.1420  -23.2910   20.0400 C   0  0  0  0  0  3  0  0  0  0  0  0
  -28.2920  -24.6410   19.4410 C   0  0  0  0  0  3  0  0  0  0  0  0
  -28.4480  -26.1640   19.7920 O   0  0  0  0  0  0  0  0  0  0  0  0
  -24.6710  -31.6450   22.9830 C   0  0  0  0  0  0  0  0  0  0  0  0
  -27.3620  -27.1240   19.7520 C   0  0  0  0  0  0  0  0  0  0  0  0
  -23.4970  -30.2790   21.2980 C   0  0  0  0  0  3  0  0  0  0  0  0
  -24.9820  -28.8040   19.8020 C   0  0  0  0  0  0  0  0  0  0  0  0
  -26.0390  -30.6250   21.1260 C   0  0  0  0  0  2  0  0  0  0  0  0
  -26.1490  -29.2580   20.4290 C   0  0  0  0  0  0  0  0  0  0  0  0
  -27.3380  -28.4310   20.3920 C   0  0  0  0  0  3  0  0  0  0  0  0
  -26.1700  -26.7840   19.0770 C   0  0  0  0  0  3  0  0  0  0  0  0
  -25.0040  -27.5830   19.1110 C   0  0  0  0  0  3  0  0  0  0  0  0
  -23.7270  -29.6590   19.8930 C   0  0  0  0  0  2  0  0  0  0  0  0
  -24.7550  -30.8710   21.8590 N   0  0  0  0  0  0  0  0  0  0  0  0
  -23.5810  -31.8790   23.5280 O   0  0  0  0  0  0  0  0  0  0  0  0
  -22.8550  -29.2190   22.2280 C   0  0  0  0  0  0  0  0  0  0  0  0
  -21.5260  -29.0390   22.1280 N   0  0  0  0  0  0  0  0  0  0  0  0
  -23.5550  -28.5600   23.0010 O   0  0  0  0  0  0  0  0  0  0  0  0
  -21.0150  -29.6280   21.4860 H   0  0  0  0  0  0  0  0  0  0  0  0
  -18.1700  -27.7810   22.6620 C   0  0  0  0  0  0  0  0  0  0  0  0
  -20.7340  -28.0540   22.8710 C   0  0  0  0  0  3  0  0  0  0  0  0
  -20.8300  -26.6540   22.2230 C   0  0  0  0  0  2  0  0  0  0  0  0
  -19.7030  -26.3730   21.2240 C   0  0  0  0  0  2  0  0  0  0  0  0
  -18.3380  -26.4710   21.9110 C   0  0  0  0  0  2  0  0  0  0  0  0
  -19.2940  -28.5330   23.0980 C   0  0  0  0  0  0  0  0  0  0  0  0
  -19.0790  -29.7600   23.7610 C   0  0  0  0  0  3  0  0  0  0  0  0
  -17.7740  -30.2350   23.9950 C   0  0  0  0  0  3  0  0  0  0  0  0
  -16.6660  -29.4810   23.5690 C   0  0  0  0  0  3  0  0  0  0  0  0
  -16.8650  -28.2560   22.9080 C   0  0  0  0  0  3  0  0  0  0  0  0
  -25.9350  -32.2910   23.6270 C   0  0  0  0  0  3  0  0  0  0  0  0
  -25.5740  -33.6480   24.0690 N   0  0  0  0  0  0  0  0  0  0  0  0
  -25.8500  -34.7730   23.3930 C   0  0  0  0  0  0  0  0  0  0  0  0
  -26.5070  -34.7790   22.3480 O   0  0  0  0  0  0  0  0  0  0  0  0
  -24.9950  -33.7180   24.8920 H   0  0  0  0  0  0  0  0  0  0  0  0
  -24.0400  -36.5120   23.2130 C   0  0  0  0  0  1  0  0  0  0  0  0
  -25.3150  -36.1000   23.9660 C   0  0  0  0  0  3  0  0  0  0  0  0
  -27.4310  -37.0080   24.8150 C   0  0  0  0  0  1  0  0  0  0  0  0
  -26.2980  -37.2050   23.9160 N   0  0  0  0  0  0  0  0  0  0  0  0
  -25.8550  -38.0900   24.1490 H   0  0  0  0  0  0  0  0  0  0  0  0
  -26.5110  -31.4560   24.8370 C   0  0  1  0  0  0  0  0  0  0  0  0
  -25.4550  -31.1060   25.9100 C   0  0  0  0  0  1  0  0  0  0  0  0
  -27.1330  -30.1290   24.3420 C   0  0  0  0  0  1  0  0  0  0  0  0
  -27.6520  -32.2440   25.5230 C   0  0  0  0  0  1  0  0  0  0  0  0
  2  7  1  0
  3  4  1  0
  3  2  1  0
  5  4  1  0
  5 22  1  0
  5  6  1  0
  7  1  1  0
  7  6  1  0
  8  1  2  0
  9 13  1  0
 10  9  1  0
 11 16  1  0
 14 11  1  0
 14 10  1  0
 14 15  1  0
 15 17  1  0
 15 12  1  0
 16  1  1  0
 16 12  1  0
 17 18  1  1
 17 13  1  0
 19 20  2  0
 20 21  1  0
 20 39  1  0
 21 24  1  0
 22 19  1  0
 22 23  1  0
 23 21  2  0
 24 25  1  0
 25 26  2  0
 27 30  1  0
 27 26  1  0
 28 27  2  0
 29 28  1  0
 29 24  2  0
 30 31  1  0
 31 32  1  0
 32 33  2  0
 34 33  1  0
 34 38  1  0
 35 34  2  0
 36 31  2  0
 36 35  1  0
 37 36  1  0
 39 40  1  0
 40 43  1  0
 40 42  1  0
 41 39  2  0
 44 45  1  0
 44 19  1  0
 46 44  1  0
 47 48  1  0
 47 17  1  0
 49 50  1  0
 49 48  2  0
 51 62  2  0
 52 50  1  0
 52 57  1  0
 53 61  1  0
 53 63  1  0
 54 60  1  0
 54 56  1  0
 55 61  1  0
 56 55  1  0
 57 56  2  0
 58 59  1  0
 58 52  2  0
 59 54  2  0
 60 53  1  0
 61 51  1  0
 63 65  2  0
 64 63  1  0
 66 64  1  0
 67 76  2  0
 67 72  1  0
 68 64  1  0
 68 72  1  0
 69 68  1  0
 70 71  1  0
 70 69  1  0
 71 67  1  0
 72 73  2  0
 73 74  1  0
 75 74  2  0
 76 75  1  0
 77 51  1  0
 77 78  1  0
 77 87  1  0
 78 81  1  0
 79 83  1  0
 79 78  1  0
 80 79  2  0
 83 82  1  0
 85 83  1  0
 85 86  1  0
 85 84  1  0
 87 90  1  1
 87 88  1  0
 89 87  1  0
M  ISO  4   1 100  16 100  49 101  50 101
M  END
>  <TORSDO>  (39) 
F 18

>  <SCORE>  (39) 
-13.796

>  <name>  (39) 
39

>  <ligand_id>  (39) 
39

>  <original_smiles>  (39) 
[H]c1c([H])c([H])c2c(c1[H])C([H])([H])C([H])([H])C([H])([H])C2([H])N([H])C(=O)C1([H])N(C(=O)C([H])(N([H])C(=O)C([H])(N([H])C([H])([H])[H])C([H])([H])[H])C(C([H])([H])[H])(C([H])([H])[H])C([H])([H])[H])C([H])([H])c2c([H])c(OC([H])([H])C([H])([H])C([H])([H])[N+]3([H])C([H])([H])C([H])([H])C([H])([H])C4([H])C([H])([H])N(C(=O)N5C([H])([H])C([H])([H])C([H])([H])C([H])(n6nc(-c7c([H])c([H])c(Oc8c([H])c([H])c(F)c([H])c8F)c([H])c7[H])c(C(=O)N([H])[H])c6N([H])[H])C5([H])[H])C([H])([H])C43[H])c([H])c([H])c2C1([H])[H]

>  <smiles>  (39) 
[H]c1c([H])c([H])c2c(c1[H])C([H])([H])C([H])([H])C([H])([H])C2([H])N([H])C(=O)C1([H])N(C(=O)C([H])(N([H])C(=O)C([H])(N([H])C([H])([H])[H])C([H])([H])[H])C(C([H])([H])[H])(C([H])([H])[H])C([H])([H])[H])C([H])([H])c2c([H])c(OC([H])([H])C([H])([H])C([H])([H])[N+]3([H])C([H])([H])C([H])([H])C([H])([H])C4([H])C([H])([H])N(C(=O)N5C([H])([H])C([H])([H])C([H])([H])C([H])(n6nc(-c7c([H])c([H])c(Oc8c([H])c([H])c(F)c([H])c8F)c([H])c7[H])c(C(=O)N([H])[H])c6N([H])[H])C5([H])[H])C([H])([H])C43[H])c([H])c([H])c2C1([H])[H]

$$$$
40:0:0
     RDKit          3D

 89 97  0  0  1  0  0  0  0  0999 V2000
  -28.0740  -20.4070   20.5260 C   0  0  0  0  0  3  0  0  0  0  0  0
  -28.2730  -18.9300   20.5300 C   0  0  0  0  0  3  0  0  0  0  0  0
  -30.4800  -19.1800   19.9680 C   0  0  0  0  0  3  0  0  0  0  0  0
  -29.0690  -21.4300   20.2370 C   0  0  0  0  0  0  0  0  0  0  0  0
  -29.4870  -18.1550   20.2580 C   0  0  0  0  0  0  0  0  0  0  0  0
  -30.2900  -20.6600   19.9610 C   0  0  0  0  0  0  0  0  0  0  0  0
  -31.3920  -21.3920   19.6700 F   0  0  0  0  0  0  0  0  0  0  0  0
  -30.4050  -15.3430   20.0910 C   0  0  0  0  0  0  0  0  0  0  0  0
  -30.3950  -12.9140   19.1770 C   0  0  0  0  0  2  0  0  0  0  0  0
  -29.4220  -12.7350   17.9830 C   0  0  0  0  0  2  0  0  0  0  0  0
  -27.9910  -12.4520   18.4750 C   0  0  0  0  0  2  0  0  0  0  0  0
  -27.5840  -13.3860   19.6420 C   0  0  0  0  0  3  0  0  0  0  0  0
  -28.6780  -13.4980   20.7260 C   0  0  0  0  0  2  0  0  0  0  0  0
  -29.8820  -14.0220   20.0600 N   0  0  0  0  0  0  0  0  0  0  0  0
  -31.6040  -15.4070   19.7830 O   0  0  0  0  0  0  0  0  0  0  0  0
  -29.5530  -16.5350   20.2960 N   0  0  0  0  0  0  0  0  0  0  0  0
  -28.6430  -16.1720   20.5340 H   0  0  0  0  0  0  0  0  0  0  0  0
  -25.2460  -13.9180   20.5100 C   0  0  0  0  0  0  0  0  0  0  0  0
  -24.2030  -13.1280   20.9060 C   0  0  0  0  0  0  0  0  0  0  0  0
  -24.6710  -11.7810   20.8160 C   0  0  0  0  0  0  0  0  0  0  0  0
  -26.2790  -13.0540   20.1970 N   0  0  0  0  0  0  0  0  0  0  0  0
  -25.9490  -11.7600   20.4480 N   0  0  0  0  0  0  0  0  0  0  0  0
  -23.9560  -10.5110   21.0010 C   0  0  0  0  0  0  0  0  0  0  0  0
  -24.4000   -9.5400   21.9250 C   0  0  0  0  0  3  0  0  0  0  0  0
  -23.6820   -8.3360   22.1000 C   0  0  0  0  0  3  0  0  0  0  0  0
  -22.5050   -8.0970   21.3510 C   0  0  0  0  0  0  0  0  0  0  0  0
  -22.0800   -9.0580   20.4170 C   0  0  0  0  0  3  0  0  0  0  0  0
  -22.7990  -10.2520   20.2400 C   0  0  0  0  0  3  0  0  0  0  0  0
  -21.7570   -6.9470   21.4360 O   0  0  0  0  0  0  0  0  0  0  0  0
  -21.6790   -6.2250   22.5990 C   0  0  0  0  0  0  0  0  0  0  0  0
  -21.1750   -6.7860   23.7920 C   0  0  0  0  0  3  0  0  0  0  0  0
  -21.0450   -5.9880   24.9460 C   0  0  0  0  0  3  0  0  0  0  0  0
  -21.4100   -4.6300   24.9080 C   0  0  0  0  0  0  0  0  0  0  0  0
  -21.9070   -4.0670   23.7190 C   0  0  0  0  0  3  0  0  0  0  0  0
  -22.0380   -4.8630   22.5670 C   0  0  0  0  0  0  0  0  0  0  0  0
  -22.4970   -4.3100   21.4190 F   0  0  0  0  0  0  0  0  0  0  0  0
  -21.2790   -3.8600   26.0150 F   0  0  0  0  0  0  0  0  0  0  0  0
  -22.8170  -13.5920   21.2450 C   0  0  0  0  0  0  0  0  0  0  0  0
  -22.1290  -12.8750   22.1260 N   0  0  0  0  0  0  0  0  0  0  0  0
  -22.3560  -14.6280   20.7660 O   0  0  0  0  0  0  0  0  0  0  0  0
  -22.5170  -12.0370   22.5330 H   0  0  0  0  0  0  0  0  0  0  0  0
  -21.2010  -13.1670   22.3960 H   0  0  0  0  0  0  0  0  0  0  0  0
  -25.3930  -15.2950   20.3590 N   0  0  0  0  0  0  0  0  0  0  0  0
  -24.6160  -15.9300   20.5010 H   0  0  0  0  0  0  0  0  0  0  0  0
  -26.1890  -15.7400   19.9230 H   0  0  0  0  0  0  0  0  0  0  0  0
  -29.0130  -23.1860   20.2590 C   0  0  0  0  0  2  0  0  0  0  0  0
  -27.8600  -24.3300   20.2980 N   0  0  0  0  0  0  0  0  0  0  0  0
  -27.3380  -24.2150   21.1630 H   0  0  0  0  0  0  0  0  0  0  0  0
  -28.2380  -25.9820   20.2400 O   0  0  0  0  0  0  0  0  0  0  0  0
  -24.6700  -31.9190   23.2550 C   0  0  0  0  0  0  0  0  0  0  0  0
  -27.1990  -27.0460   20.2330 C   0  0  0  0  0  0  0  0  0  0  0  0
  -23.4620  -30.5270   21.6220 C   0  0  0  0  0  3  0  0  0  0  0  0
  -24.8980  -28.9150   20.1960 C   0  0  0  0  0  0  0  0  0  0  0  0
  -26.0260  -30.7330   21.4640 C   0  0  0  0  0  2  0  0  0  0  0  0
  -26.0870  -29.3220   20.8150 C   0  0  0  0  0  0  0  0  0  0  0  0
  -27.2280  -28.4050   20.8150 C   0  0  0  0  0  3  0  0  0  0  0  0
  -25.9840  -26.7880   19.5610 C   0  0  0  0  0  3  0  0  0  0  0  0
  -24.8690  -27.6670   19.5500 C   0  0  0  0  0  3  0  0  0  0  0  0
  -23.6820  -29.8390   20.2460 C   0  0  0  0  0  2  0  0  0  0  0  0
  -24.7410  -31.0870   22.1670 N   0  0  0  0  0  0  0  0  0  0  0  0
  -23.5840  -32.2140   23.7820 O   0  0  0  0  0  0  0  0  0  0  0  0
  -22.7710  -29.5340   22.5920 C   0  0  0  0  0  0  0  0  0  0  0  0
  -21.4430  -29.3560   22.4590 N   0  0  0  0  0  0  0  0  0  0  0  0
  -23.4360  -28.9220   23.4320 O   0  0  0  0  0  0  0  0  0  0  0  0
  -20.9590  -29.9000   21.7580 H   0  0  0  0  0  0  0  0  0  0  0  0
  -18.0660  -28.1310   22.9630 C   0  0  0  0  0  0  0  0  0  0  0  0
  -20.6230  -28.4190   23.2350 C   0  0  0  0  0  3  0  0  0  0  0  0
  -20.7380  -26.9840   22.6710 C   0  0  0  0  0  2  0  0  0  0  0  0
  -19.6420  -26.6450   21.6550 C   0  0  0  0  0  2  0  0  0  0  0  0
  -18.2570  -26.7800   22.2920 C   0  0  0  0  0  2  0  0  0  0  0  0
  -19.1770  -28.9070   23.3900 C   0  0  0  0  0  0  0  0  0  0  0  0
  -18.9420  -30.1670   23.9800 C   0  0  0  0  0  3  0  0  0  0  0  0
  -17.6320  -30.6540   24.1450 C   0  0  0  0  0  3  0  0  0  0  0  0
  -16.5370  -29.8770   23.7300 C   0  0  0  0  0  3  0  0  0  0  0  0
  -16.7540  -28.6170   23.1450 C   0  0  0  0  0  3  0  0  0  0  0  0
  -25.9470  -32.5580   23.8800 C   0  0  0  0  0  3  0  0  0  0  0  0
  -25.6350  -33.9570   24.2190 N   0  0  0  0  0  0  0  0  0  0  0  0
  -25.9380  -35.0180   23.4580 C   0  0  0  0  0  0  0  0  0  0  0  0
  -26.5710  -34.9220   22.4050 O   0  0  0  0  0  0  0  0  0  0  0  0
  -25.0670  -34.1050   25.0400 H   0  0  0  0  0  0  0  0  0  0  0  0
  -24.1830  -36.8050   23.1930 C   0  0  0  0  0  1  0  0  0  0  0  0
  -25.4660  -36.4050   23.9400 C   0  0  0  0  0  3  0  0  0  0  0  0
  -27.6260  -37.3160   24.6750 C   0  0  0  0  0  1  0  0  0  0  0  0
  -26.4850  -37.4650   23.7750 N   0  0  0  0  0  0  0  0  0  0  0  0
  -26.0780  -38.3840   23.9290 H   0  0  0  0  0  0  0  0  0  0  0  0
  -26.4580  -31.7910   25.1620 C   0  0  1  0  0  0  0  0  0  0  0  0
  -25.3610  -31.5590   26.2290 C   0  0  0  0  0  1  0  0  0  0  0  0
  -27.0410  -30.4100   24.7840 C   0  0  0  0  0  1  0  0  0  0  0  0
  -27.6090  -32.5840   25.8250 C   0  0  0  0  0  1  0  0  0  0  0  0
  1  2  1  0
  3  5  1  0
  4 46  1  0
  4  1  2  0
  5 16  1  0
  5  2  2  0
  6  3  2  0
  6  4  1  0
  7  6  1  0
  8 16  1  0
  9 14  1  0
 10 11  1  0
 10  9  1  0
 12 11  1  0
 12 21  1  0
 12 13  1  0
 14  8  1  0
 14 13  1  0
 15  8  2  0
 16 17  1  0
 18 19  2  0
 19 38  1  0
 20 19  1  0
 20 23  1  0
 21 22  1  0
 21 18  1  0
 22 20  2  0
 23 24  1  0
 24 25  2  0
 26 29  1  0
 26 25  1  0
 27 26  2  0
 28 27  1  0
 28 23  2  0
 29 30  1  0
 30 31  1  0
 31 32  2  0
 33 32  1  0
 33 37  1  0
 34 33  2  0
 35 30  2  0
 35 34  1  0
 36 35  1  0
 38 39  1  0
 39 42  1  0
 39 41  1  0
 40 38  2  0
 43 44  1  0
 43 18  1  0
 45 43  1  0
 46 47  1  0
 47 48  1  0
 49 47  1  0
 50 61  2  0
 51 49  1  0
 51 56  1  0
 52 60  1  0
 52 62  1  0
 53 59  1  0
 53 55  1  0
 54 60  1  0
 55 54  1  0
 56 55  2  0
 57 51  2  0
 58 57  1  0
 58 53  2  0
 59 52  1  0
 60 50  1  0
 62 64  2  0
 63 62  1  0
 65 63  1  0
 66 75  2  0
 66 71  1  0
 67 63  1  0
 67 71  1  0
 68 67  1  0
 69 70  1  0
 69 68  1  0
 70 66  1  0
 71 72  2  0
 72 73  1  0
 74 73  2  0
 75 74  1  0
 76 50  1  0
 76 77  1  0
 76 86  1  0
 77 80  1  0
 78 82  1  0
 78 77  1  0
 79 78  2  0
 82 81  1  0
 84 85  1  0
 84 82  1  0
 84 83  1  0
 86 89  1  1
 86 87  1  0
 88 86  1  0
M  ISO  4   8 100  16 100  47 101  49 101
M  END
>  <TORSDO>  (40) 
F 18

>  <SCORE>  (40) 
-16.095

>  <name>  (40) 
40

>  <ligand_id>  (40) 
40

>  <original_smiles>  (40) 
[H]c1c([H])c([H])c2c(c1[H])C([H])([H])C([H])([H])C([H])([H])C2([H])N([H])C(=O)C1([H])N(C(=O)C([H])(N([H])C(=O)C([H])(N([H])C([H])([H])[H])C([H])([H])[H])C(C([H])([H])[H])(C([H])([H])[H])C([H])([H])[H])C([H])([H])c2c([H])c(ON([H])C([H])([H])c3c([H])c([H])c(N([H])C(=O)N4C([H])([H])C([H])([H])C([H])([H])C([H])(n5nc(-c6c([H])c([H])c(Oc7c([H])c([H])c(F)c([H])c7F)c([H])c6[H])c(C(=O)N([H])[H])c5N([H])[H])C4([H])[H])c([H])c3F)c([H])c([H])c2C1([H])[H]

>  <smiles>  (40) 
[H]c1c([H])c([H])c2c(c1[H])C([H])([H])C([H])([H])C([H])([H])C2([H])N([H])C(=O)C1([H])N(C(=O)C([H])(N([H])C(=O)C([H])(N([H])C([H])([H])[H])C([H])([H])[H])C(C([H])([H])[H])(C([H])([H])[H])C([H])([H])[H])C([H])([H])c2c([H])c(ON([H])C([H])([H])c3c([H])c([H])c(N([H])C(=O)N4C([H])([H])C([H])([H])C([H])([H])C([H])(n5nc(-c6c([H])c([H])c(Oc7c([H])c([H])c(F)c([H])c7F)c([H])c6[H])c(C(=O)N([H])[H])c5N([H])[H])C4([H])[H])c([H])c3F)c([H])c([H])c2C1([H])[H]

$$$$
41:0:0
     RDKit          3D

 98108  0  0  1  0  0  0  0  0999 V2000
  -31.4820  -21.8430   19.8980 C   0  0  0  0  0  3  0  0  0  0  0  0
  -31.1200  -20.5330   20.2840 C   0  0  0  0  0  3  0  0  0  0  0  0
  -29.3190  -22.1200   18.8290 C   0  0  0  0  0  3  0  0  0  0  0  0
  -30.5990  -22.6300   19.1290 C   0  0  0  0  0  0  0  0  0  0  0  0
  -29.8700  -19.9880   19.9140 C   0  0  0  0  0  0  0  0  0  0  0  0
  -28.9550  -20.8110   19.2040 C   0  0  0  0  0  0  0  0  0  0  0  0
  -27.5990  -20.2940   18.7480 C   0  0  0  0  0  1  0  0  0  0  0  0
  -30.7410  -14.4800   20.1780 C   0  0  0  0  0  0  0  0  0  0  0  0
  -30.3870  -12.3410   19.0240 C   0  0  0  0  0  2  0  0  0  0  0  0
  -29.3970  -12.5800   17.8640 C   0  0  0  0  0  2  0  0  0  0  0  0
  -27.9390  -12.4490   18.3480 C   0  0  0  0  0  2  0  0  0  0  0  0
  -27.6570  -13.2430   19.6520 C   0  0  0  0  0  3  0  0  0  0  0  0
  -28.7630  -13.0130   20.7090 C   0  0  0  0  0  2  0  0  0  0  0  0
  -30.0600  -13.3070   20.0810 N   0  0  0  0  0  0  0  0  0  0  0  0
  -31.9060  -14.6130   19.7900 O   0  0  0  0  0  0  0  0  0  0  0  0
  -30.1160  -17.7090   18.9180 C   0  0  0  0  0  2  0  0  0  0  0  0
  -30.1050  -17.8240   21.3980 C   0  0  0  0  0  2  0  0  0  0  0  0
  -29.6240  -16.2600   18.9590 C   0  0  0  0  0  2  0  0  0  0  0  0
  -29.6860  -16.3270   21.4690 C   0  0  0  0  0  2  0  0  0  0  0  0
  -29.5770  -18.4940   20.1140 C   0  0  0  0  0  3  0  0  0  0  0  0
  -29.9430  -15.5720   20.2250 N   0  0  0  0  0  0  0  0  0  0  0  0
  -25.2820  -13.8370   20.4420 C   0  0  0  0  0  0  0  0  0  0  0  0
  -24.2290  -13.0570   20.8380 C   0  0  0  0  0  0  0  0  0  0  0  0
  -24.6970  -11.7080   20.7830 C   0  0  0  0  0  0  0  0  0  0  0  0
  -26.3250  -12.9610   20.1770 N   0  0  0  0  0  0  0  0  0  0  0  0
  -25.9770  -11.6770   20.4370 N   0  0  0  0  0  0  0  0  0  0  0  0
  -23.9810  -10.4420   20.9800 C   0  0  0  0  0  0  0  0  0  0  0  0
  -24.4330   -9.4770   21.9090 C   0  0  0  0  0  3  0  0  0  0  0  0
  -23.7200   -8.2750   22.0970 C   0  0  0  0  0  3  0  0  0  0  0  0
  -22.5410   -8.0270   21.3540 C   0  0  0  0  0  0  0  0  0  0  0  0
  -22.1090   -8.9780   20.4140 C   0  0  0  0  0  3  0  0  0  0  0  0
  -22.8230  -10.1720   20.2250 C   0  0  0  0  0  3  0  0  0  0  0  0
  -21.7970   -6.8760   21.4540 O   0  0  0  0  0  0  0  0  0  0  0  0
  -21.7480   -6.1490   22.6170 C   0  0  0  0  0  0  0  0  0  0  0  0
  -21.3000   -6.7110   23.8310 C   0  0  0  0  0  3  0  0  0  0  0  0
  -21.1990   -5.9080   24.9840 C   0  0  0  0  0  3  0  0  0  0  0  0
  -21.5370   -4.5430   24.9250 C   0  0  0  0  0  0  0  0  0  0  0  0
  -21.9770   -3.9800   23.7150 C   0  0  0  0  0  3  0  0  0  0  0  0
  -22.0800   -4.7790   22.5640 C   0  0  0  0  0  0  0  0  0  0  0  0
  -22.4830   -4.2260   21.3960 F   0  0  0  0  0  0  0  0  0  0  0  0
  -21.4330   -3.7700   26.0310 F   0  0  0  0  0  0  0  0  0  0  0  0
  -22.8380  -13.5250   21.1580 C   0  0  0  0  0  0  0  0  0  0  0  0
  -22.1400  -12.8170   22.0390 N   0  0  0  0  0  0  0  0  0  0  0  0
  -22.3780  -14.5510   20.6590 O   0  0  0  0  0  0  0  0  0  0  0  0
  -22.5250  -11.9890   22.4700 H   0  0  0  0  0  0  0  0  0  0  0  0
  -21.2050  -13.1080   22.2880 H   0  0  0  0  0  0  0  0  0  0  0  0
  -25.4310  -15.2100   20.2680 N   0  0  0  0  0  0  0  0  0  0  0  0
  -24.6580  -15.8540   20.3980 H   0  0  0  0  0  0  0  0  0  0  0  0
  -26.2740  -15.6660   19.9430 H   0  0  0  0  0  0  0  0  0  0  0  0
  -30.7880  -25.1470   16.4170 C   0  0  0  0  0  2  0  0  0  0  0  0
  -31.2320  -23.8060   16.9840 C   0  0  0  0  0  2  0  0  0  0  0  0
  -29.7130  -25.5920   17.4030 C   0  0  0  0  0  2  0  0  0  0  0  0
  -31.0650  -23.9490   18.5080 C   0  0  0  0  0  3  0  0  0  0  0  0
  -30.1330  -25.0910   18.7380 N   0  0  1  0  0  4  0  0  0  0  0  0
  -29.3080  -24.7240   19.1910 H   0  0  0  0  0  0  0  0  0  0  0  0
  -30.6730  -26.1380   19.6580 C   0  0  0  0  0  2  0  0  0  0  0  0
  -29.6660  -27.2650   19.9880 C   0  0  0  0  0  2  0  0  0  0  0  0
  -28.3980  -26.6570   20.1870 O   0  0  0  0  0  0  0  0  0  0  0  0
  -24.5760  -31.8870   23.2370 C   0  0  0  0  0  0  0  0  0  0  0  0
  -27.2800  -27.4580   20.2070 C   0  0  0  0  0  0  0  0  0  0  0  0
  -23.3900  -30.4640   21.5970 C   0  0  0  0  0  3  0  0  0  0  0  0
  -24.8680  -28.9260   20.1980 C   0  0  0  0  0  0  0  0  0  0  0  0
  -25.9120  -30.8460   21.4130 C   0  0  0  0  0  2  0  0  0  0  0  0
  -26.0180  -29.4720   20.7840 C   0  0  0  0  0  0  0  0  0  0  0  0
  -27.2310  -28.7490   20.7850 C   0  0  0  0  0  3  0  0  0  0  0  0
  -26.1090  -26.9160   19.6420 C   0  0  0  0  0  3  0  0  0  0  0  0
  -24.9060  -27.6450   19.6250 C   0  0  0  0  0  3  0  0  0  0  0  0
  -23.6150  -29.7730   20.2260 C   0  0  0  0  0  2  0  0  0  0  0  0
  -24.6440  -31.0810   22.1420 N   0  0  0  0  0  0  0  0  0  0  0  0
  -23.4890  -32.1580   23.7670 O   0  0  0  0  0  0  0  0  0  0  0  0
  -22.7370  -29.4480   22.5610 C   0  0  0  0  0  0  0  0  0  0  0  0
  -21.4150  -29.2620   22.4270 N   0  0  0  0  0  0  0  0  0  0  0  0
  -23.4170  -28.8300   23.3840 O   0  0  0  0  0  0  0  0  0  0  0  0
  -20.9260  -29.8130   21.7340 H   0  0  0  0  0  0  0  0  0  0  0  0
  -18.0350  -28.0820   22.9260 C   0  0  0  0  0  0  0  0  0  0  0  0
  -20.5940  -28.3280   23.1980 C   0  0  0  0  0  3  0  0  0  0  0  0
  -20.6910  -26.8970   22.6220 C   0  0  0  0  0  2  0  0  0  0  0  0
  -19.5870  -26.5790   21.6080 C   0  0  0  0  0  2  0  0  0  0  0  0
  -18.2050  -26.7310   22.2510 C   0  0  0  0  0  2  0  0  0  0  0  0
  -19.1570  -28.8390   23.3560 C   0  0  0  0  0  0  0  0  0  0  0  0
  -18.9450  -30.1040   23.9460 C   0  0  0  0  0  3  0  0  0  0  0  0
  -17.6420  -30.6120   24.1100 C   0  0  0  0  0  3  0  0  0  0  0  0
  -16.5350  -29.8520   23.6970 C   0  0  0  0  0  3  0  0  0  0  0  0
  -16.7320  -28.5890   23.1110 C   0  0  0  0  0  3  0  0  0  0  0  0
  -25.8540  -32.5290   23.8630 C   0  0  0  0  0  3  0  0  0  0  0  0
  -26.3690  -31.7670   25.1450 C   0  0  1  0  0  0  0  0  0  0  0  0
  -25.2710  -31.5260   26.2070 C   0  0  0  0  0  1  0  0  0  0  0  0
  -26.9640  -30.3940   24.7600 C   0  0  0  0  0  1  0  0  0  0  0  0
  -27.5100  -32.5730   25.8110 C   0  0  0  0  0  1  0  0  0  0  0  0
  -25.5360  -33.9290   24.1790 N   0  0  0  0  0  0  0  0  0  0  0  0
  -25.8780  -34.9750   23.4170 C   0  0  0  0  0  0  0  0  0  0  0  0
  -26.5650  -34.8670   22.3970 O   0  0  0  0  0  0  0  0  0  0  0  0
  -24.9300  -34.0870   24.9700 H   0  0  0  0  0  0  0  0  0  0  0  0
  -24.1560  -36.7620   23.0120 C   0  0  0  0  0  1  0  0  0  0  0  0
  -25.3780  -36.3650   23.8570 C   0  0  0  0  0  3  0  0  0  0  0  0
  -27.4930  -37.2520   24.7340 C   0  0  0  0  0  1  0  0  0  0  0  0
  -26.4120  -37.4180   23.7650 N   0  0  0  0  0  0  0  0  0  0  0  0
  -26.0010  -38.3380   23.9050 H   0  0  0  0  0  0  0  0  0  0  0  0
  1  2  1  0
  3  4  1  0
  3  6  2  0
  4  1  2  0
  5  2  2  0
  6  5  1  0
  7  6  1  0
  8 21  1  0
  9 14  1  0
 10 11  1  0
 10  9  1  0
 12 11  1  0
 12 25  1  0
 12 13  1  0
 14  8  1  0
 14 13  1  0
 15  8  2  0
 16 18  1  0
 16 20  1  0
 17 19  1  0
 18 21  1  0
 20  5  1  0
 20 17  1  0
 21 19  1  0
 22 23  2  0
 23 42  1  0
 24 23  1  0
 24 27  1  0
 25 26  1  0
 25 22  1  0
 26 24  2  0
 27 28  1  0
 28 29  2  0
 30 33  1  0
 30 29  1  0
 31 30  2  0
 32 31  1  0
 32 27  2  0
 33 34  1  0
 34 35  1  0
 35 36  2  0
 37 36  1  0
 37 41  1  0
 38 37  2  0
 39 34  2  0
 39 38  1  0
 40 39  1  0
 42 43  1  0
 43 46  1  0
 43 45  1  0
 44 42  2  0
 47 48  1  0
 47 22  1  0
 49 47  1  0
 50 51  1  0
 50 52  1  0
 51 53  1  0
 52 54  1  0
 53 54  1  0
 53  4  1  0
 54 55  1  1
 54 56  1  0
 56 57  1  0
 57 58  1  0
 58 60  1  0
 59 70  2  0
 60 65  1  0
 61 69  1  0
 61 71  1  0
 62 68  1  0
 62 64  1  0
 63 69  1  0
 64 65  2  0
 64 63  1  0
 66 60  2  0
 67 66  1  0
 67 62  2  0
 68 61  1  0
 69 59  1  0
 71 73  2  0
 72 71  1  0
 74 72  1  0
 75 84  2  0
 75 80  1  0
 76 72  1  0
 76 80  1  0
 77 76  1  0
 78 79  1  0
 78 77  1  0
 79 75  1  0
 80 81  2  0
 81 82  1  0
 83 82  2  0
 84 83  1  0
 85 59  1  0
 85 90  1  0
 85 86  1  0
 86 89  1  1
 86 87  1  0
 88 86  1  0
 90 93  1  0
 91 95  1  0
 91 90  1  0
 92 91  2  0
 95 94  1  0
 97 95  1  0
 97 98  1  0
 97 96  1  0
M  ISO  4   8 100  21 100  57 101  58 101
M  END
>  <TORSDO>  (41) 
F 19

>  <SCORE>  (41) 
-14.314

>  <name>  (41) 
41

>  <ligand_id>  (41) 
41

>  <original_smiles>  (41) 
[H]c1c([H])c([H])c2c(c1[H])C([H])([H])C([H])([H])C([H])([H])C2([H])N([H])C(=O)C1([H])N(C(=O)C([H])(N([H])C(=O)C([H])(N([H])C([H])([H])[H])C([H])([H])[H])C(C([H])([H])[H])(C([H])([H])[H])C([H])([H])[H])C([H])([H])c2c([H])c(OC([H])([H])C([H])([H])[N+]3([H])C([H])([H])C([H])([H])C([H])([H])C3([H])c3c([H])c([H])c(C4([H])C([H])([H])C([H])([H])N(C(=O)N5C([H])([H])C([H])([H])C([H])([H])C([H])(n6nc(-c7c([H])c([H])c(Oc8c([H])c([H])c(F)c([H])c8F)c([H])c7[H])c(C(=O)N([H])[H])c6N([H])[H])C5([H])[H])C([H])([H])C4([H])[H])c(C([H])([H])[H])c3[H])c([H])c([H])c2C1([H])[H]

>  <smiles>  (41) 
[H]c1c([H])c([H])c2c(c1[H])C([H])([H])C([H])([H])C([H])([H])C2([H])N([H])C(=O)C1([H])N(C(=O)C([H])(N([H])C(=O)C([H])(N([H])C([H])([H])[H])C([H])([H])[H])C(C([H])([H])[H])(C([H])([H])[H])C([H])([H])[H])C([H])([H])c2c([H])c(OC([H])([H])C([H])([H])[N+]3([H])C([H])([H])C([H])([H])C([H])([H])C3([H])c3c([H])c([H])c(C4([H])C([H])([H])C([H])([H])N(C(=O)N5C([H])([H])C([H])([H])C([H])([H])C([H])(n6nc(-c7c([H])c([H])c(Oc8c([H])c([H])c(F)c([H])c8F)c([H])c7[H])c(C(=O)N([H])[H])c6N([H])[H])C5([H])[H])C([H])([H])C4([H])[H])c(C([H])([H])[H])c3[H])c([H])c([H])c2C1([H])[H]

$$$$
42:0:0
     RDKit          3D

 95103  0  0  1  0  0  0  0  0999 V2000
  -30.8090  -17.8510   21.1000 C   0  0  0  0  0  3  0  0  0  0  0  0
  -30.9850  -19.2290   21.3560 C   0  0  0  0  0  3  0  0  0  0  0  0
  -28.7880  -18.3940   19.8800 C   0  0  0  0  0  3  0  0  0  0  0  0
  -28.9630  -19.8270   20.1080 C   0  0  0  0  0  0  0  0  0  0  0  0
  -29.6910  -17.3690   20.3850 C   0  0  0  0  0  0  0  0  0  0  0  0
  -30.0640  -20.2090   20.9080 C   0  0  0  0  0  0  0  0  0  0  0  0
  -30.3220  -14.8130   20.1690 C   0  0  0  0  0  0  0  0  0  0  0  0
  -30.2230  -12.4860   19.2560 C   0  0  0  0  0  2  0  0  0  0  0  0
  -29.2480  -12.4410   18.0590 C   0  0  0  0  0  2  0  0  0  0  0  0
  -27.7990  -12.2190   18.5430 C   0  0  0  0  0  2  0  0  0  0  0  0
  -27.4120  -13.1560   19.7170 C   0  0  0  0  0  3  0  0  0  0  0  0
  -28.5030  -13.1730   20.8100 C   0  0  0  0  0  2  0  0  0  0  0  0
  -29.7600  -13.5600   20.1620 N   0  0  0  0  0  0  0  0  0  0  0  0
  -31.5080  -14.9480   19.8470 O   0  0  0  0  0  0  0  0  0  0  0  0
  -29.4600  -15.9010   20.2750 N   0  0  0  0  0  0  0  0  0  0  0  0
  -28.4900  -15.6300   20.3030 H   0  0  0  0  0  0  0  0  0  0  0  0
  -25.0500  -13.6900   20.5660 C   0  0  0  0  0  0  0  0  0  0  0  0
  -24.0170  -12.8890   20.9720 C   0  0  0  0  0  0  0  0  0  0  0  0
  -24.5050  -11.5500   20.9000 C   0  0  0  0  0  0  0  0  0  0  0  0
  -26.0980  -12.8350   20.2650 N   0  0  0  0  0  0  0  0  0  0  0  0
  -25.7800  -11.5420   20.5320 N   0  0  0  0  0  0  0  0  0  0  0  0
  -23.8130  -10.2690   21.0960 C   0  0  0  0  0  0  0  0  0  0  0  0
  -24.3060   -9.2950   21.9900 C   0  0  0  0  0  3  0  0  0  0  0  0
  -23.6130   -8.0790   22.1770 C   0  0  0  0  0  3  0  0  0  0  0  0
  -22.4130   -7.8300   21.4680 C   0  0  0  0  0  0  0  0  0  0  0  0
  -21.9410   -8.7940   20.5590 C   0  0  0  0  0  3  0  0  0  0  0  0
  -22.6350  -10.0010   20.3700 C   0  0  0  0  0  3  0  0  0  0  0  0
  -21.6850   -6.6700   21.5680 O   0  0  0  0  0  0  0  0  0  0  0  0
  -21.6730   -5.9230   22.7190 C   0  0  0  0  0  0  0  0  0  0  0  0
  -21.1260   -6.4160   23.9240 C   0  0  0  0  0  3  0  0  0  0  0  0
  -21.0740   -5.5900   25.0640 C   0  0  0  0  0  3  0  0  0  0  0  0
  -21.5580   -4.2690   24.9990 C   0  0  0  0  0  0  0  0  0  0  0  0
  -22.0990   -3.7750   23.8000 C   0  0  0  0  0  3  0  0  0  0  0  0
  -22.1540   -4.5980   22.6620 C   0  0  0  0  0  0  0  0  0  0  0  0
  -22.6570   -4.1100   21.5020 F   0  0  0  0  0  0  0  0  0  0  0  0
  -21.5020   -3.4720   26.0920 F   0  0  0  0  0  0  0  0  0  0  0  0
  -22.6230  -13.3330   21.3070 C   0  0  0  0  0  0  0  0  0  0  0  0
  -21.9390  -12.6080   22.1830 N   0  0  0  0  0  0  0  0  0  0  0  0
  -22.1470  -14.3580   20.8220 O   0  0  0  0  0  0  0  0  0  0  0  0
  -22.3340  -11.7770   22.5980 H   0  0  0  0  0  0  0  0  0  0  0  0
  -21.0040  -12.8890   22.4440 H   0  0  0  0  0  0  0  0  0  0  0  0
  -25.1740  -15.0660   20.3970 N   0  0  0  0  0  0  0  0  0  0  0  0
  -24.3770  -15.6830   20.5250 H   0  0  0  0  0  0  0  0  0  0  0  0
  -25.9620  -15.5240   19.9600 H   0  0  0  0  0  0  0  0  0  0  0  0
  -27.9450  -20.9760   19.6680 C   0  0  0  0  0  2  0  0  0  0  0  0
  -28.4720  -22.3840   19.3380 N   0  0  0  0  0  4  0  0  0  0  0  0
  -28.5140  -22.4460   18.3310 H   0  0  0  0  0  0  0  0  0  0  0  0
  -29.4250  -22.3900   19.6720 H   0  0  0  0  0  0  0  0  0  0  0  0
  -27.7990  -23.6620   19.8910 C   0  0  0  0  0  2  0  0  0  0  0  0
  -28.2030  -25.0760   19.2170 C   0  0  0  0  0  2  0  0  0  0  0  0
  -28.1140  -26.4080   19.9060 O   0  0  0  0  0  0  0  0  0  0  0  0
  -24.5280  -31.7910   23.1220 C   0  0  0  0  0  0  0  0  0  0  0  0
  -26.9980  -27.2670   19.8680 C   0  0  0  0  0  0  0  0  0  0  0  0
  -23.2690  -30.4590   21.4660 C   0  0  0  0  0  3  0  0  0  0  0  0
  -24.6610  -28.9290   19.9560 C   0  0  0  0  0  0  0  0  0  0  0  0
  -25.8070  -30.7420   21.2340 C   0  0  0  0  0  2  0  0  0  0  0  0
  -25.8500  -29.3800   20.5470 C   0  0  0  0  0  0  0  0  0  0  0  0
  -27.0180  -28.5610   20.4940 C   0  0  0  0  0  3  0  0  0  0  0  0
  -25.7880  -26.8790   19.2540 C   0  0  0  0  0  3  0  0  0  0  0  0
  -24.6370  -27.6910   19.2970 C   0  0  0  0  0  3  0  0  0  0  0  0
  -23.4390  -29.8180   20.0620 C   0  0  0  0  0  2  0  0  0  0  0  0
  -24.5540  -31.0180   21.9960 N   0  0  0  0  0  0  0  0  0  0  0  0
  -23.4620  -32.0660   23.6930 O   0  0  0  0  0  0  0  0  0  0  0  0
  -22.6120  -29.4260   22.4130 C   0  0  0  0  0  0  0  0  0  0  0  0
  -21.2820  -29.2680   22.3070 N   0  0  0  0  0  0  0  0  0  0  0  0
  -23.2970  -28.7700   23.2030 O   0  0  0  0  0  0  0  0  0  0  0  0
  -20.7880  -29.8520   21.6470 H   0  0  0  0  0  0  0  0  0  0  0  0
  -17.8950  -28.1030   22.8320 C   0  0  0  0  0  0  0  0  0  0  0  0
  -20.4630  -28.3160   23.0620 C   0  0  0  0  0  3  0  0  0  0  0  0
  -20.5330  -26.9030   22.4340 C   0  0  0  0  0  2  0  0  0  0  0  0
  -19.4050  -26.6320   21.4330 C   0  0  0  0  0  2  0  0  0  0  0  0
  -18.0390  -26.7750   22.1080 C   0  0  0  0  0  2  0  0  0  0  0  0
  -19.0340  -28.8350   23.2640 C   0  0  0  0  0  0  0  0  0  0  0  0
  -18.8440  -30.0820   23.8970 C   0  0  0  0  0  3  0  0  0  0  0  0
  -17.5490  -30.5910   24.1120 C   0  0  0  0  0  3  0  0  0  0  0  0
  -16.4260  -29.8540   23.6970 C   0  0  0  0  0  3  0  0  0  0  0  0
  -16.6010  -28.6150   23.0600 C   0  0  0  0  0  3  0  0  0  0  0  0
  -25.8330  -32.3830   23.7380 C   0  0  0  0  0  3  0  0  0  0  0  0
  -25.5590  -33.7810   24.1020 N   0  0  0  0  0  0  0  0  0  0  0  0
  -25.8630  -34.8420   23.3440 C   0  0  0  0  0  0  0  0  0  0  0  0
  -26.4720  -34.7490   22.2760 O   0  0  0  0  0  0  0  0  0  0  0  0
  -25.0230  -33.9300   24.9440 H   0  0  0  0  0  0  0  0  0  0  0  0
  -24.1270  -36.6500   23.1310 C   0  0  0  0  0  1  0  0  0  0  0  0
  -25.4170  -36.2280   23.8500 C   0  0  0  0  0  3  0  0  0  0  0  0
  -27.5960  -37.1070   24.5650 C   0  0  0  0  0  1  0  0  0  0  0  0
  -26.4460  -37.2780   23.6810 N   0  0  0  0  0  0  0  0  0  0  0  0
  -26.0480  -38.1980   23.8470 H   0  0  0  0  0  0  0  0  0  0  0  0
  -26.3510  -31.5760   24.9890 C   0  0  1  0  0  0  0  0  0  0  0  0
  -25.2780  -31.3780   26.0840 C   0  0  0  0  0  1  0  0  0  0  0  0
  -26.8650  -30.1790   24.5660 C   0  0  0  0  0  1  0  0  0  0  0  0
  -27.5510  -32.3160   25.6300 C   0  0  0  0  0  1  0  0  0  0  0  0
  -30.1630  -21.5470   21.2340 O   0  0  0  0  0  0  0  0  0  0  0  0
  -30.7920  -21.9270   22.4560 C   0  0  0  0  0  2  0  0  0  0  0  0
  -30.1290  -23.2090   22.9700 C   0  0  0  0  0  2  0  0  0  0  0  0
  -30.1250  -24.1520   22.0250 F   0  0  0  0  0  0  0  0  0  0  0  0
  1  2  1  0
  3  4  2  0
  3  5  1  0
  4  6  1  0
  5  1  2  0
  6 92  1  0
  6  2  2  0
  7 15  1  0
  8 13  1  0
  9 10  1  0
  9  8  1  0
 11 10  1  0
 11 20  1  0
 11 12  1  0
 13  7  1  0
 13 12  1  0
 14  7  2  0
 15 16  1  0
 15  5  1  0
 17 18  2  0
 18 37  1  0
 19 18  1  0
 19 22  1  0
 20 21  1  0
 20 17  1  0
 21 19  2  0
 22 23  1  0
 23 24  2  0
 25 28  1  0
 25 24  1  0
 26 25  2  0
 27 26  1  0
 27 22  2  0
 28 29  1  0
 29 30  1  0
 30 31  2  0
 32 31  1  0
 32 36  1  0
 33 32  2  0
 34 29  2  0
 34 33  1  0
 35 34  1  0
 37 38  1  0
 38 41  1  0
 38 40  1  0
 39 37  2  0
 42 43  1  0
 42 17  1  0
 44 42  1  0
 45  4  1  0
 46 45  1  0
 46 48  1  0
 46 49  1  0
 47 46  1  0
 50 49  1  0
 50 51  1  0
 52 63  2  0
 53 51  1  0
 53 58  1  0
 54 62  1  0
 54 64  1  0
 55 61  1  0
 55 57  1  0
 56 62  1  0
 57 56  1  0
 58 57  2  0
 59 60  1  0
 59 53  2  0
 60 55  2  0
 61 54  1  0
 62 52  1  0
 64 66  2  0
 65 64  1  0
 67 65  1  0
 68 77  2  0
 68 73  1  0
 69 65  1  0
 69 73  1  0
 70 69  1  0
 71 72  1  0
 71 70  1  0
 72 68  1  0
 73 74  2  0
 74 75  1  0
 76 75  2  0
 77 76  1  0
 78 52  1  0
 78 79  1  0
 78 88  1  0
 79 82  1  0
 80 84  1  0
 80 79  1  0
 81 80  2  0
 84 83  1  0
 86 87  1  0
 86 84  1  0
 86 85  1  0
 88 91  1  1
 88 89  1  0
 90 88  1  0
 92 93  1  0
 93 94  1  0
 95 94  1  0
M  ISO  4   7 100  15 100  50 101  51 101
M  END
>  <TORSDO>  (42) 
F 23

>  <SCORE>  (42) 
-12.995

>  <name>  (42) 
42

>  <ligand_id>  (42) 
42

>  <original_smiles>  (42) 
[H]c1c([H])c([H])c2c(c1[H])C([H])([H])C([H])([H])C([H])([H])C2([H])N([H])C(=O)C1([H])N(C(=O)C([H])(N([H])C(=O)C([H])(N([H])C([H])([H])[H])C([H])([H])[H])C(C([H])([H])[H])(C([H])([H])[H])C([H])([H])[H])C([H])([H])c2c([H])c(OC([H])([H])C([H])([H])[N+]([H])([H])C([H])([H])c3c([H])c(N([H])C(=O)N4C([H])([H])C([H])([H])C([H])([H])C([H])(n5nc(-c6c([H])c([H])c(Oc7c([H])c([H])c(F)c([H])c7F)c([H])c6[H])c(C(=O)N([H])[H])c5N([H])[H])C4([H])[H])c([H])c([H])c3OC([H])([H])C([H])([H])F)c([H])c([H])c2C1([H])[H]

>  <smiles>  (42) 
[H]c1c([H])c([H])c2c(c1[H])C([H])([H])C([H])([H])C([H])([H])C2([H])N([H])C(=O)C1([H])N(C(=O)C([H])(N([H])C(=O)C([H])(N([H])C([H])([H])[H])C([H])([H])[H])C(C([H])([H])[H])(C([H])([H])[H])C([H])([H])[H])C([H])([H])c2c([H])c(OC([H])([H])C([H])([H])[N+]([H])([H])C([H])([H])c3c([H])c(N([H])C(=O)N4C([H])([H])C([H])([H])C([H])([H])C([H])(n5nc(-c6c([H])c([H])c(Oc7c([H])c([H])c(F)c([H])c7F)c([H])c6[H])c(C(=O)N([H])[H])c5N([H])[H])C4([H])[H])c([H])c([H])c3OC([H])([H])C([H])([H])F)c([H])c([H])c2C1([H])[H]

$$$$
43:0:0
     RDKit          3D

 96101  0  0  1  0  0  0  0  0999 V2000
  -25.2610  -23.3300   18.2390 N   0  0  0  0  0  0  0  0  0  0  0  0
  -23.3950  -25.8250   17.6100 C   0  0  0  0  0  3  0  0  0  0  0  0
  -21.8370  -26.6740   17.3720 C   0  0  0  0  0  1  0  0  0  0  0  0
  -22.5170  -23.3700   17.3620 C   0  0  0  0  0  3  0  0  0  0  0  0
  -23.8130  -24.1690   17.7070 C   0  0  0  0  0  0  0  0  0  0  0  0
  -20.3340  -25.1950   17.0660 C   0  0  0  0  0  2  0  0  0  0  0  0
  -20.9820  -23.7030   17.0870 C   0  0  0  0  0  0  0  0  0  0  0  0
  -18.9810  -25.1700   16.8640 F   0  0  0  0  0  0  0  0  0  0  0  0
  -20.1470  -22.6620   16.8640 F   0  0  0  0  0  0  0  0  0  0  0  0
  -26.8730  -19.0340   18.7230 C   0  0  0  0  0  3  0  0  0  0  0  0
  -28.4140  -20.2740   19.5080 C   0  0  0  0  0  3  0  0  0  0  0  0
  -25.9640  -20.3130   18.4240 C   0  0  0  0  0  3  0  0  0  0  0  0
  -27.5080  -21.5480   19.2010 C   0  0  0  0  0  3  0  0  0  0  0  0
  -28.2810  -18.7540   19.3110 C   0  0  0  0  0  0  0  0  0  0  0  0
  -26.1120  -21.8430   18.5890 C   0  0  0  0  0  0  0  0  0  0  0  0
  -30.5420  -16.1220   19.6190 C   0  0  0  0  0  0  0  0  0  0  0  0
  -31.4960  -13.5120   19.3910 C   0  0  0  0  0  2  0  0  0  0  0  0
  -30.7870  -12.5810   18.3450 C   0  0  0  0  0  2  0  0  0  0  0  0
  -29.4010  -12.1480   18.8460 C   0  0  0  0  0  2  0  0  0  0  0  0
  -28.7350  -13.3320   19.5690 C   0  0  0  0  0  3  0  0  0  0  0  0
  -29.6010  -13.9350   20.6660 C   0  0  0  0  0  2  0  0  0  0  0  0
  -30.5700  -14.6650   19.8940 N   0  0  0  0  0  0  0  0  0  0  0  0
  -31.7660  -16.3110   19.3310 O   0  0  0  0  0  0  0  0  0  0  0  0
  -29.2340  -17.1630   19.5830 N   0  0  0  0  0  0  0  0  0  0  0  0
  -28.5150  -16.5220   19.9010 H   0  0  0  0  0  0  0  0  0  0  0  0
  -26.5310  -14.0500   20.4920 C   0  0  0  0  0  0  0  0  0  0  0  0
  -25.4370  -13.3460   20.8930 C   0  0  0  0  0  0  0  0  0  0  0  0
  -25.7780  -11.9660   20.7440 C   0  0  0  0  0  0  0  0  0  0  0  0
  -27.4390  -13.0910   20.0980 N   0  0  0  0  0  0  0  0  0  0  0  0
  -27.0270  -11.8280   20.3300 N   0  0  0  0  0  0  0  0  0  0  0  0
  -24.9650  -10.7640   20.8970 C   0  0  0  0  0  0  0  0  0  0  0  0
  -25.2440   -9.8070   21.8950 C   0  0  0  0  0  3  0  0  0  0  0  0
  -24.4290   -8.6640   22.0280 C   0  0  0  0  0  3  0  0  0  0  0  0
  -23.3290   -8.4730   21.1610 C   0  0  0  0  0  0  0  0  0  0  0  0
  -23.0750   -9.4170   20.1510 C   0  0  0  0  0  3  0  0  0  0  0  0
  -23.8880  -10.5530   20.0150 C   0  0  0  0  0  3  0  0  0  0  0  0
  -22.4940   -7.3850   21.2010 O   0  0  0  0  0  0  0  0  0  0  0  0
  -21.9880   -6.9140   22.3830 C   0  0  0  0  0  0  0  0  0  0  0  0
  -21.2530   -7.7410   23.2600 C   0  0  0  0  0  3  0  0  0  0  0  0
  -20.6890   -7.1970   24.4310 C   0  0  0  0  0  3  0  0  0  0  0  0
  -20.8520   -5.8290   24.7230 C   0  0  0  0  0  0  0  0  0  0  0  0
  -21.5800   -5.0050   23.8480 C   0  0  0  0  0  3  0  0  0  0  0  0
  -22.1450   -5.5460   22.6800 C   0  0  0  0  0  0  0  0  0  0  0  0
  -22.8280   -4.7440   21.8290 F   0  0  0  0  0  0  0  0  0  0  0  0
  -20.3040   -5.3040   25.8440 F   0  0  0  0  0  0  0  0  0  0  0  0
  -24.1150  -13.9320   21.2730 C   0  0  0  0  0  0  0  0  0  0  0  0
  -23.3890  -13.2690   22.1650 N   0  0  0  0  0  0  0  0  0  0  0  0
  -23.7400  -15.0080   20.8070 O   0  0  0  0  0  0  0  0  0  0  0  0
  -23.7090  -12.3960   22.5590 H   0  0  0  0  0  0  0  0  0  0  0  0
  -22.5000  -13.6440   22.4630 H   0  0  0  0  0  0  0  0  0  0  0  0
  -26.8170  -15.4110   20.3900 N   0  0  0  0  0  0  0  0  0  0  0  0
  -26.0060  -16.0140   20.4850 H   0  0  0  0  0  0  0  0  0  0  0  0
  -27.3980  -15.7050   19.6160 H   0  0  0  0  0  0  0  0  0  0  0  0
  -26.3290  -24.4530   18.3640 C   0  0  0  0  0  3  0  0  0  0  0  0
  -27.2180  -24.9020   19.7240 C   0  0  0  0  0  3  0  0  0  0  0  0
  -28.0460  -26.1570   20.1770 O   0  0  0  0  0  0  0  0  0  0  0  0
  -24.8560  -31.5180   23.5250 C   0  0  0  0  0  0  0  0  0  0  0  0
  -27.4540  -27.3980   19.9610 C   0  0  0  0  0  0  0  0  0  0  0  0
  -23.8420  -30.5030   21.5510 C   0  0  0  0  0  3  0  0  0  0  0  0
  -25.3560  -29.2420   19.9590 C   0  0  0  0  0  0  0  0  0  0  0  0
  -26.3830  -30.7110   21.6990 C   0  0  0  0  0  2  0  0  0  0  0  0
  -26.4620  -29.4840   20.7920 C   0  0  0  0  0  0  0  0  0  0  0  0
  -27.5350  -28.5450   20.8110 C   0  0  0  0  0  3  0  0  0  0  0  0
  -26.4760  -27.3580   18.9680 C   0  0  0  0  0  3  0  0  0  0  0  0
  -25.3720  -28.1990   19.0340 C   0  0  0  0  0  3  0  0  0  0  0  0
  -24.1490  -30.1340   20.0840 C   0  0  0  0  0  2  0  0  0  0  0  0
  -25.0430  -30.9510   22.2990 N   0  0  0  0  0  0  0  0  0  0  0  0
  -23.7170  -31.7150   23.9820 O   0  0  0  0  0  0  0  0  0  0  0  0
  -23.2500  -29.2940   22.2670 C   0  0  0  0  0  0  0  0  0  0  0  0
  -21.9490  -29.1670   22.2380 N   0  0  0  0  0  0  0  0  0  0  0  0
  -23.9490  -28.4860   22.8760 O   0  0  0  0  0  0  0  0  0  0  0  0
  -21.3650  -29.8670   21.8050 H   0  0  0  0  0  0  0  0  0  0  0  0
  -18.4120  -28.2040   22.1140 C   0  0  0  0  0  0  0  0  0  0  0  0
  -21.3380  -28.0240   22.8590 C   0  0  0  0  0  2  0  0  0  0  0  0
  -22.0430  -26.3220   22.0920 C   0  0  0  0  0 15  0  0  0  0  0  0
  -19.3990  -25.3920   20.3740 C   0  0  0  0  0 15  0  0  0  0  0  0
  -18.1380  -26.8610   20.9180 C   0  0  0  0  0  1  0  0  0  0  0  0
  -19.6990  -28.6500   22.8680 C   0  0  0  0  0  0  0  0  0  0  0  0
  -19.5660  -29.7370   23.8180 C   0  0  0  0  0  3  0  0  0  0  0  0
  -18.3600  -30.3710   24.1840 C   0  0  0  0  0  3  0  0  0  0  0  0
  -17.1770  -29.9200   23.5920 C   0  0  0  0  0  3  0  0  0  0  0  0
  -17.2210  -28.8890   22.6050 C   0  0  0  0  0  3  0  0  0  0  0  0
  -26.0600  -31.9520   24.3930 C   0  0  0  0  0  3  0  0  0  0  0  0
  -26.1730  -31.1490   25.7460 C   0  0  1  0  0  0  0  0  0  0  0  0
  -24.8400  -31.0520   26.5240 C   0  0  0  0  0  1  0  0  0  0  0  0
  -26.6720  -29.7070   25.4990 C   0  0  0  0  0  1  0  0  0  0  0  0
  -27.2260  -31.8230   26.6570 C   0  0  0  0  0  1  0  0  0  0  0  0
  -25.8960  -33.3880   24.6520 N   0  0  0  0  0  0  0  0  0  0  0  0
  -26.3830  -34.3530   23.8650 C   0  0  0  0  0  0  0  0  0  0  0  0
  -27.0950  -34.1230   22.8840 O   0  0  0  0  0  0  0  0  0  0  0  0
  -25.2660  -33.6450   25.3970 H   0  0  0  0  0  0  0  0  0  0  0  0
  -24.7710  -36.2390   23.4550 C   0  0  0  0  0  1  0  0  0  0  0  0
  -26.0280  -35.8090   24.2260 C   0  0  0  0  0  3  0  0  0  0  0  0
  -28.3050  -36.5210   24.7980 C   0  0  0  0  0  1  0  0  0  0  0  0
  -27.1280  -36.7650   23.9670 N   0  0  0  0  0  0  0  0  0  0  0  0
  -26.8190  -37.7210   24.1320 H   0  0  0  0  0  0  0  0  0  0  0  0
  1 54  1  0
  1 15  1  0
  2  5  2  0
  3  2  1  0
  4  5  1  0
  5  1  1  0
  6  7  1  0
  7  4  2  0
  8  6  1  0
  9  7  1  0
 10 14  1  0
 12 15  1  0
 12 10  2  0
 13 11  1  0
 14 11  2  0
 14 24  1  0
 15 13  2  0
 16 22  1  0
 17 22  1  0
 18 19  1  0
 18 17  1  0
 20 19  1  0
 20 29  1  0
 20 21  1  0
 22 21  1  0
 23 16  2  0
 24 16  1  0
 24 25  1  0
 26 27  2  0
 27 46  1  0
 28 27  1  0
 28 31  1  0
 29 30  1  0
 29 26  1  0
 30 28  2  0
 31 32  1  0
 32 33  2  0
 34 37  1  0
 34 33  1  0
 35 34  2  0
 36 35  1  0
 36 31  2  0
 37 38  1  0
 38 43  2  0
 38 39  1  0
 39 40  2  0
 40 41  1  0
 41 45  1  0
 42 41  2  0
 43 42  1  0
 44 43  1  0
 46 47  1  0
 47 50  1  0
 47 49  1  0
 48 46  2  0
 51 52  1  0
 51 26  1  0
 53 51  1  0
 54 55  2  0
 55 56  1  0
 57 68  2  0
 58 56  1  0
 58 63  1  0
 59 69  1  0
 59 67  1  0
 60 66  1  0
 60 62  1  0
 61 67  1  0
 62 63  2  0
 62 61  1  0
 64 65  1  0
 64 58  2  0
 65 60  2  0
 66 59  1  0
 67 57  1  0
 69 71  2  0
 70 69  1  0
 70 74  1  0
 72 70  1  0
 73 82  2  0
 73 78  1  0
 74 78  1  0
 77 73  1  0
 78 79  2  0
 79 80  1  0
 81 80  2  0
 82 81  1  0
 83 57  1  0
 83 88  1  0
 83 84  1  0
 84 85  1  1
 84 87  1  0
 86 84  1  0
 88 91  1  0
 89 93  1  0
 89 88  1  0
 90 89  2  0
 93 92  1  0
 95 96  1  0
 95 93  1  0
 95 94  1  0
M  ISO  4  16 100  24 100  55 101  56 101
M  END
>  <TORSDO>  (43) 
F 20

>  <SCORE>  (43) 
-12.925

>  <name>  (43) 
43

>  <ligand_id>  (43) 
43

>  <original_smiles>  (43) 
[H]c1c([H])c([H])c2c(c1[H])C([H])([H])C([H])([H])C([H])([H])C2([H])N([H])C(=O)C1([H])N(C(=O)C([H])(N([H])C(=O)C([H])(N([H])C([H])([H])[H])C([H])([H])[H])C(C([H])([H])[H])(C([H])([H])[H])C([H])([H])[H])C([H])([H])c2c([H])c(OC([H])([H])C([H])([H])N(c3c([H])c([H])c(N([H])C(=O)N4C([H])([H])C([H])([H])C([H])([H])C([H])(n5nc(-c6c([H])c([H])c(Oc7c([H])c([H])c(F)c([H])c7F)c([H])c6[H])c(C(=O)N([H])[H])c5N([H])[H])C4([H])[H])c([H])c3[H])c3c([H])c([H])c(F)c(F)c3[H])c([H])c([H])c2C1([H])[H]

>  <smiles>  (43) 
[H]c1c([H])c([H])c2c(c1[H])C([H])([H])C([H])([H])C([H])([H])C2([H])N([H])C(=O)C1([H])N(C(=O)C([H])(N([H])C(=O)C([H])(N([H])C([H])([H])[H])C([H])([H])[H])C(C([H])([H])[H])(C([H])([H])[H])C([H])([H])[H])C([H])([H])c2c([H])c(OC([H])([H])C([H])([H])N(c3c([H])c([H])c(N([H])C(=O)N4C([H])([H])C([H])([H])C([H])([H])C([H])(n5nc(-c6c([H])c([H])c(Oc7c([H])c([H])c(F)c([H])c7F)c([H])c6[H])c(C(=O)N([H])[H])c5N([H])[H])C4([H])[H])c([H])c3[H])c3c([H])c([H])c(F)c(F)c3[H])c([H])c([H])c2C1([H])[H]

$$$$
44:0:0
     RDKit          3D

 90 98  0  0  1  0  0  0  0  0999 V2000
  -28.7170  -18.2810   17.2480 C   0  0  0  0  0  3  0  0  0  0  0  0
  -28.5410  -19.6630   17.1850 C   0  0  0  0  0  3  0  0  0  0  0  0
  -29.1540  -17.6930   18.4420 C   0  0  0  0  0  3  0  0  0  0  0  0
  -28.7790  -20.4460   18.3230 C   0  0  0  0  0  3  0  0  0  0  0  0
  -29.4110  -18.4350   19.6260 C   0  0  0  0  0  0  0  0  0  0  0  0
  -29.1730  -19.9080   19.5780 C   0  0  0  0  0  0  0  0  0  0  0  0
  -29.9700  -17.4960   20.7840 C   0  0  0  0  0  2  0  0  0  0  0  0
  -30.5390  -14.8670   20.4940 C   0  0  0  0  0  0  0  0  0  0  0  0
  -30.3900  -12.5900   19.4570 C   0  0  0  0  0  2  0  0  0  0  0  0
  -29.4550  -12.6530   18.2280 C   0  0  0  0  0  2  0  0  0  0  0  0
  -27.9850  -12.4580   18.6470 C   0  0  0  0  0  2  0  0  0  0  0  0
  -27.5920  -13.3350   19.8670 C   0  0  0  0  0  3  0  0  0  0  0  0
  -28.6450  -13.2470   20.9940 C   0  0  0  0  0  2  0  0  0  0  0  0
  -29.9390  -13.6280   20.4130 N   0  0  0  0  0  0  0  0  0  0  0  0
  -31.7240  -14.9970   20.1750 O   0  0  0  0  0  0  0  0  0  0  0  0
  -29.7280  -15.9690   20.7420 N   0  0  0  0  0  0  0  0  0  0  0  0
  -28.7770  -15.7110   20.9520 H   0  0  0  0  0  0  0  0  0  0  0  0
  -25.1960  -13.9020   20.5830 C   0  0  0  0  0  0  0  0  0  0  0  0
  -24.1330  -13.1170   20.9390 C   0  0  0  0  0  0  0  0  0  0  0  0
  -24.6060  -11.7700   20.9000 C   0  0  0  0  0  0  0  0  0  0  0  0
  -26.2470  -13.0320   20.3460 N   0  0  0  0  0  0  0  0  0  0  0  0
  -25.8990  -11.7440   20.5990 N   0  0  0  0  0  0  0  0  0  0  0  0
  -23.8860  -10.5000   21.0720 C   0  0  0  0  0  0  0  0  0  0  0  0
  -24.3030   -9.5370   22.0170 C   0  0  0  0  0  3  0  0  0  0  0  0
  -23.5840   -8.3330   22.1780 C   0  0  0  0  0  3  0  0  0  0  0  0
  -22.4320   -8.0850   21.3930 C   0  0  0  0  0  0  0  0  0  0  0  0
  -22.0340   -9.0380   20.4380 C   0  0  0  0  0  3  0  0  0  0  0  0
  -22.7540  -10.2320   20.2760 C   0  0  0  0  0  3  0  0  0  0  0  0
  -21.6850   -6.9340   21.4620 O   0  0  0  0  0  0  0  0  0  0  0  0
  -21.5940   -6.2030   22.6200 C   0  0  0  0  0  0  0  0  0  0  0  0
  -21.0630   -6.7510   23.8070 C   0  0  0  0  0  3  0  0  0  0  0  0
  -20.9240   -5.9450   24.9550 C   0  0  0  0  0  3  0  0  0  0  0  0
  -21.3060   -4.5910   24.9150 C   0  0  0  0  0  0  0  0  0  0  0  0
  -21.8310   -4.0420   23.7320 C   0  0  0  0  0  3  0  0  0  0  0  0
  -21.9720   -4.8450   22.5860 C   0  0  0  0  0  0  0  0  0  0  0  0
  -22.4580   -4.3060   21.4430 F   0  0  0  0  0  0  0  0  0  0  0  0
  -21.1660   -3.8130   26.0140 F   0  0  0  0  0  0  0  0  0  0  0  0
  -22.7300  -13.5820   21.2030 C   0  0  0  0  0  0  0  0  0  0  0  0
  -21.9970  -12.8680   22.0490 N   0  0  0  0  0  0  0  0  0  0  0  0
  -22.2920  -14.6140   20.6950 O   0  0  0  0  0  0  0  0  0  0  0  0
  -22.3630  -12.0330   22.4820 H   0  0  0  0  0  0  0  0  0  0  0  0
  -21.0540  -13.1610   22.2690 H   0  0  0  0  0  0  0  0  0  0  0  0
  -25.3490  -15.2750   20.4170 N   0  0  0  0  0  0  0  0  0  0  0  0
  -24.5700  -15.9170   20.5200 H   0  0  0  0  0  0  0  0  0  0  0  0
  -26.1820  -15.7230   20.0580 H   0  0  0  0  0  0  0  0  0  0  0  0
  -29.3250  -20.8970   20.5960 O   0  0  0  0  0  0  0  0  0  0  0  0
  -28.4830  -22.1620   20.6200 C   0  0  0  0  0  3  0  0  0  0  0  0
  -29.0230  -23.6950   20.4390 C   0  0  0  0  0  3  0  0  0  0  0  0
  -27.9420  -24.9130   20.2980 C   0  0  0  0  0  2  0  0  0  0  0  0
  -28.2410  -26.4030   20.3380 O   0  0  0  0  0  0  0  0  0  0  0  0
  -24.5500  -31.9640   23.2920 C   0  0  0  0  0  0  0  0  0  0  0  0
  -27.1550  -27.3220   20.2750 C   0  0  0  0  0  0  0  0  0  0  0  0
  -23.3550  -30.5610   21.6550 C   0  0  0  0  0  3  0  0  0  0  0  0
  -24.8080  -28.9990   20.2420 C   0  0  0  0  0  0  0  0  0  0  0  0
  -25.9030  -30.8540   21.4890 C   0  0  0  0  0  2  0  0  0  0  0  0
  -25.9820  -29.4680   20.8440 C   0  0  0  0  0  0  0  0  0  0  0  0
  -27.1590  -28.6450   20.8470 C   0  0  0  0  0  3  0  0  0  0  0  0
  -25.9510  -26.9320   19.6420 C   0  0  0  0  0  3  0  0  0  0  0  0
  -24.8000  -27.7400   19.6280 C   0  0  0  0  0  3  0  0  0  0  0  0
  -23.5760  -29.8840   20.2780 C   0  0  0  0  0  2  0  0  0  0  0  0
  -24.6220  -31.1450   22.2010 N   0  0  0  0  0  0  0  0  0  0  0  0
  -23.4630  -32.2470   23.8180 O   0  0  0  0  0  0  0  0  0  0  0  0
  -22.6800  -29.5510   22.6150 C   0  0  0  0  0  0  0  0  0  0  0  0
  -21.3580  -29.3550   22.4640 N   0  0  0  0  0  0  0  0  0  0  0  0
  -23.3480  -28.9460   23.4590 O   0  0  0  0  0  0  0  0  0  0  0  0
  -20.8790  -29.8950   21.7590 H   0  0  0  0  0  0  0  0  0  0  0  0
  -17.9850  -28.1260   22.9230 C   0  0  0  0  0  0  0  0  0  0  0  0
  -20.5350  -28.4180   23.2330 C   0  0  0  0  0  3  0  0  0  0  0  0
  -20.6620  -26.9800   22.6770 C   0  0  0  0  0  2  0  0  0  0  0  0
  -19.5820  -26.6320   21.6490 C   0  0  0  0  0  2  0  0  0  0  0  0
  -18.1880  -26.7700   22.2680 C   0  0  0  0  0  2  0  0  0  0  0  0
  -19.0870  -28.9070   23.3630 C   0  0  0  0  0  0  0  0  0  0  0  0
  -18.8440  -30.1730   23.9360 C   0  0  0  0  0  3  0  0  0  0  0  0
  -17.5310  -30.6610   24.0740 C   0  0  0  0  0  3  0  0  0  0  0  0
  -16.4430  -29.8790   23.6500 C   0  0  0  0  0  3  0  0  0  0  0  0
  -16.6700  -28.6130   23.0820 C   0  0  0  0  0  3  0  0  0  0  0  0
  -25.8280  -32.5980   23.9200 C   0  0  0  0  0  3  0  0  0  0  0  0
  -25.5250  -34.0060   24.2190 N   0  0  0  0  0  0  0  0  0  0  0  0
  -25.8730  -35.0430   23.4460 C   0  0  0  0  0  0  0  0  0  0  0  0
  -26.5520  -34.9150   22.4240 O   0  0  0  0  0  0  0  0  0  0  0  0
  -24.9230  -34.1790   25.0100 H   0  0  0  0  0  0  0  0  0  0  0  0
  -24.1760  -36.8540   23.0290 C   0  0  0  0  0  1  0  0  0  0  0  0
  -25.3930  -36.4440   23.8740 C   0  0  0  0  0  3  0  0  0  0  0  0
  -27.5130  -37.3200   24.7510 C   0  0  0  0  0  1  0  0  0  0  0  0
  -26.4420  -37.4820   23.7720 N   0  0  0  0  0  0  0  0  0  0  0  0
  -26.0440  -38.4100   23.8880 H   0  0  0  0  0  0  0  0  0  0  0  0
  -26.3190  -31.8500   25.2190 C   0  0  1  0  0  0  0  0  0  0  0  0
  -25.2070  -31.6370   26.2730 C   0  0  0  0  0  1  0  0  0  0  0  0
  -26.9040  -30.4630   24.8670 C   0  0  0  0  0  1  0  0  0  0  0  0
  -27.4630  -32.6530   25.8850 C   0  0  0  0  0  1  0  0  0  0  0  0
  1  3  1  0
  2  1  2  0
  2  4  1  0
  3  5  2  0
  4  6  2  0
  5  7  1  0
  6  5  1  0
  6 46  1  0
  8 16  1  0
  9 14  1  0
 10 11  1  0
 10  9  1  0
 12 11  1  0
 12 21  1  0
 12 13  1  0
 14  8  1  0
 14 13  1  0
 15  8  2  0
 16  7  1  0
 16 17  1  0
 18 19  2  0
 19 38  1  0
 20 19  1  0
 20 23  1  0
 21 18  1  0
 21 22  1  0
 22 20  2  0
 23 24  1  0
 24 25  2  0
 26 29  1  0
 26 25  1  0
 27 26  2  0
 28 27  1  0
 28 23  2  0
 29 30  1  0
 30 31  1  0
 31 32  2  0
 33 32  1  0
 33 37  1  0
 34 33  2  0
 35 30  2  0
 35 34  1  0
 36 35  1  0
 38 39  1  0
 39 42  1  0
 39 41  1  0
 40 38  2  0
 43 44  1  0
 43 18  1  0
 45 43  1  0
 46 47  1  0
 48 47  2  0
 49 50  1  0
 49 48  1  0
 51 62  2  0
 52 50  1  0
 52 57  1  0
 53 61  1  0
 53 63  1  0
 54 60  1  0
 54 56  1  0
 55 61  1  0
 56 57  2  0
 56 55  1  0
 58 52  2  0
 59 58  1  0
 59 54  2  0
 60 53  1  0
 61 51  1  0
 63 65  2  0
 64 63  1  0
 66 64  1  0
 67 76  2  0
 67 72  1  0
 68 64  1  0
 68 72  1  0
 69 68  1  0
 70 71  1  0
 70 69  1  0
 71 67  1  0
 72 73  2  0
 73 74  1  0
 75 74  2  0
 76 75  1  0
 77 51  1  0
 77 78  1  0
 77 87  1  0
 78 81  1  0
 79 83  1  0
 79 78  1  0
 80 79  2  0
 83 82  1  0
 85 83  1  0
 85 86  1  0
 85 84  1  0
 87 90  1  1
 87 88  1  0
 89 87  1  0
M  ISO  4   8 100  16 100  49 101  50 101
M  END
>  <TORSDO>  (44) 
F 21

>  <SCORE>  (44) 
-13.502

>  <name>  (44) 
44

>  <ligand_id>  (44) 
44

>  <original_smiles>  (44) 
[H]c1c([H])c([H])c(C([H])([H])N([H])C(=O)N2C([H])([H])C([H])([H])C([H])([H])C([H])(n3nc(-c4c([H])c([H])c(Oc5c([H])c([H])c(F)c([H])c5F)c([H])c4[H])c(C(=O)N([H])[H])c3N([H])[H])C2([H])[H])c(OC([H])([H])C([H])([H])C([H])([H])Oc2c([H])c([H])c3c(c2[H])C([H])([H])N(C(=O)C([H])(N([H])C(=O)C([H])(N([H])C([H])([H])[H])C([H])([H])[H])C(C([H])([H])[H])(C([H])([H])[H])C([H])([H])[H])C([H])(C(=O)N([H])C2([H])c4c([H])c([H])c([H])c([H])c4C([H])([H])C([H])([H])C2([H])[H])C3([H])[H])c1[H]

>  <smiles>  (44) 
[H]c1c([H])c([H])c(C([H])([H])N([H])C(=O)N2C([H])([H])C([H])([H])C([H])([H])C([H])(n3nc(-c4c([H])c([H])c(Oc5c([H])c([H])c(F)c([H])c5F)c([H])c4[H])c(C(=O)N([H])[H])c3N([H])[H])C2([H])[H])c(OC([H])([H])C([H])([H])C([H])([H])Oc2c([H])c([H])c3c(c2[H])C([H])([H])N(C(=O)C([H])(N([H])C(=O)C([H])(N([H])C([H])([H])[H])C([H])([H])[H])C(C([H])([H])[H])(C([H])([H])[H])C([H])([H])[H])C([H])(C(=O)N([H])C2([H])c4c([H])c([H])c([H])c([H])c4C([H])([H])C([H])([H])C2([H])[H])C3([H])[H])c1[H]

$$$$
45:0:0
     RDKit          3D

100110  0  0  1  0  0  0  0  0999 V2000
  -32.4330  -23.5240   20.0240 C   0  0  0  0  0  3  0  0  0  0  0  0
  -33.7030  -22.9510   19.8530 C   0  0  0  0  0  3  0  0  0  0  0  0
  -32.8350  -20.8420   20.6560 C   0  0  0  0  0  3  0  0  0  0  0  0
  -31.5480  -21.3980   20.8800 C   0  0  0  0  0  0  0  0  0  0  0  0
  -31.3240  -22.7780   20.5130 C   0  0  0  0  0  0  0  0  0  0  0  0
  -33.9010  -21.6020   20.1580 C   0  0  0  0  0  0  0  0  0  0  0  0
  -35.1160  -21.0330   19.9730 F   0  0  0  0  0  0  0  0  0  0  0  0
  -30.7580  -17.8240   21.5580 C   0  0  0  0  0  0  0  0  0  0  0  0
  -30.1860  -21.2540   23.8730 C   0  0  0  0  0  2  0  0  0  0  0  0
  -30.7530  -19.9180   24.3600 C   0  0  0  0  0  2  0  0  0  0  0  0
  -29.5100  -21.0610   22.5110 C   0  0  0  0  0  2  0  0  0  0  0  0
  -31.6620  -19.3140   23.2830 C   0  0  0  0  0  2  0  0  0  0  0  0
  -30.4570  -20.4440   21.4460 C   0  0  0  0  0  3  0  0  0  0  0  0
  -30.9440  -19.1210   21.9980 N   0  0  0  0  0  0  0  0  0  0  0  0
  -30.7400  -16.8930   22.3730 O   0  0  0  0  0  0  0  0  0  0  0  0
  -30.7790  -14.8330   19.9690 C   0  0  0  0  0  0  0  0  0  0  0  0
  -30.4310  -12.5910   18.9830 C   0  0  0  0  0  2  0  0  0  0  0  0
  -29.4310  -12.6420   17.8100 C   0  0  0  0  0  2  0  0  0  0  0  0
  -27.9770  -12.5240   18.3200 C   0  0  0  0  0  2  0  0  0  0  0  0
  -27.6660  -13.3990   19.5610 C   0  0  0  0  0  3  0  0  0  0  0  0
  -28.8010  -13.3690   20.6100 C   0  0  0  0  0  2  0  0  0  0  0  0
  -30.0660  -13.6640   19.9230 N   0  0  0  0  0  0  0  0  0  0  0  0
  -32.0000  -14.8370   19.8280 O   0  0  0  0  0  0  0  0  0  0  0  0
  -29.3990  -17.5420   18.0600 C   0  0  0  0  0  2  0  0  0  0  0  0
  -29.8370  -18.3480   19.2360 C   0  0  0  0  0  2  0  0  0  0  0  0
  -29.1650  -16.1910   18.7020 C   0  0  0  0  0  2  0  0  0  0  0  0
  -30.7160  -17.3910   20.0570 C   0  0  0  0  0  3  0  0  0  0  0  0
  -30.1070  -16.0290   19.8250 N   0  0  0  0  0  0  0  0  0  0  0  0
  -25.3370  -14.0270   20.4320 C   0  0  0  0  0  0  0  0  0  0  0  0
  -24.2820  -13.2570   20.8380 C   0  0  0  0  0  0  0  0  0  0  0  0
  -24.7370  -11.9050   20.7710 C   0  0  0  0  0  0  0  0  0  0  0  0
  -26.3580  -13.1360   20.1360 N   0  0  0  0  0  0  0  0  0  0  0  0
  -26.0100  -11.8580   20.4080 N   0  0  0  0  0  0  0  0  0  0  0  0
  -24.0220  -10.6430   20.9720 C   0  0  0  0  0  0  0  0  0  0  0  0
  -24.4780   -9.6820   21.9000 C   0  0  0  0  0  3  0  0  0  0  0  0
  -23.7650   -8.4800   22.0880 C   0  0  0  0  0  3  0  0  0  0  0  0
  -22.5840   -8.2330   21.3490 C   0  0  0  0  0  0  0  0  0  0  0  0
  -22.1490   -9.1830   20.4090 C   0  0  0  0  0  3  0  0  0  0  0  0
  -22.8630  -10.3770   20.2180 C   0  0  0  0  0  3  0  0  0  0  0  0
  -21.8400   -7.0840   21.4500 O   0  0  0  0  0  0  0  0  0  0  0  0
  -21.7830   -6.3650   22.6180 C   0  0  0  0  0  0  0  0  0  0  0  0
  -21.3250   -6.9370   23.8240 C   0  0  0  0  0  3  0  0  0  0  0  0
  -21.2180   -6.1430   24.9840 C   0  0  0  0  0  3  0  0  0  0  0  0
  -21.5590   -4.7780   24.9360 C   0  0  0  0  0  0  0  0  0  0  0  0
  -22.0100   -4.2050   23.7340 C   0  0  0  0  0  3  0  0  0  0  0  0
  -22.1200   -4.9970   22.5780 C   0  0  0  0  0  0  0  0  0  0  0  0
  -22.5360   -4.4360   21.4170 F   0  0  0  0  0  0  0  0  0  0  0  0
  -21.4480   -4.0120   26.0470 F   0  0  0  0  0  0  0  0  0  0  0  0
  -22.8990  -13.7360   21.1730 C   0  0  0  0  0  0  0  0  0  0  0  0
  -22.2060  -13.0330   22.0630 N   0  0  0  0  0  0  0  0  0  0  0  0
  -22.4420  -14.7660   20.6800 O   0  0  0  0  0  0  0  0  0  0  0  0
  -22.5890  -12.2010   22.4850 H   0  0  0  0  0  0  0  0  0  0  0  0
  -21.2800  -13.3360   22.3270 H   0  0  0  0  0  0  0  0  0  0  0  0
  -25.4990  -15.4010   20.2660 N   0  0  0  0  0  0  0  0  0  0  0  0
  -24.7440  -16.0580   20.4320 H   0  0  0  0  0  0  0  0  0  0  0  0
  -26.3490  -15.8460   19.9490 H   0  0  0  0  0  0  0  0  0  0  0  0
  -30.0650  -23.3770   20.6010 O   0  0  0  0  0  0  0  0  0  0  0  0
  -29.9370  -24.7880   20.2850 C   0  0  0  0  0  2  0  0  0  0  0  0
  -28.4980  -25.3730   20.3300 C   0  0  0  0  0  2  0  0  0  0  0  0
  -28.5320  -26.8160   20.2030 O   0  0  0  0  0  0  0  0  0  0  0  0
  -24.6390  -31.9570   23.2550 C   0  0  0  0  0  0  0  0  0  0  0  0
  -27.3370  -27.5180   20.1940 C   0  0  0  0  0  0  0  0  0  0  0  0
  -23.4510  -30.5470   21.6070 C   0  0  0  0  0  3  0  0  0  0  0  0
  -24.9240  -29.0190   20.1890 C   0  0  0  0  0  0  0  0  0  0  0  0
  -25.9750  -30.9250   21.4170 C   0  0  0  0  0  2  0  0  0  0  0  0
  -26.0760  -29.5530   20.7770 C   0  0  0  0  0  0  0  0  0  0  0  0
  -27.2840  -28.8130   20.7690 C   0  0  0  0  0  3  0  0  0  0  0  0
  -26.1610  -27.0020   19.6020 C   0  0  0  0  0  3  0  0  0  0  0  0
  -24.9630  -27.7430   19.5960 C   0  0  0  0  0  3  0  0  0  0  0  0
  -23.6720  -29.8670   20.2290 C   0  0  0  0  0  2  0  0  0  0  0  0
  -24.7070  -31.1580   22.1520 N   0  0  0  0  0  0  0  0  0  0  0  0
  -23.5530  -32.2210   23.7910 O   0  0  0  0  0  0  0  0  0  0  0  0
  -22.8030  -29.5210   22.5650 C   0  0  0  0  0  0  0  0  0  0  0  0
  -21.4830  -29.3210   22.4260 N   0  0  0  0  0  0  0  0  0  0  0  0
  -23.4870  -28.9080   23.3890 O   0  0  0  0  0  0  0  0  0  0  0  0
  -20.9910  -29.8690   21.7330 H   0  0  0  0  0  0  0  0  0  0  0  0
  -18.1220  -28.0710   22.8810 C   0  0  0  0  0  0  0  0  0  0  0  0
  -20.6720  -28.3740   23.1900 C   0  0  0  0  0  3  0  0  0  0  0  0
  -20.8070  -26.9420   22.6230 C   0  0  0  0  0  2  0  0  0  0  0  0
  -19.7250  -26.5950   21.5940 C   0  0  0  0  0  2  0  0  0  0  0  0
  -18.3320  -26.7210   22.2180 C   0  0  0  0  0  2  0  0  0  0  0  0
  -19.2210  -28.8540   23.3240 C   0  0  0  0  0  0  0  0  0  0  0  0
  -18.9730  -30.1180   23.9030 C   0  0  0  0  0  3  0  0  0  0  0  0
  -17.6570  -30.5980   24.0460 C   0  0  0  0  0  3  0  0  0  0  0  0
  -16.5720  -29.8120   23.6210 C   0  0  0  0  0  3  0  0  0  0  0  0
  -16.8060  -28.5510   23.0450 C   0  0  0  0  0  3  0  0  0  0  0  0
  -25.9170  -32.5990   23.8810 C   0  0  0  0  0  3  0  0  0  0  0  0
  -26.4290  -31.8390   25.1660 C   0  0  1  0  0  0  0  0  0  0  0  0
  -25.3300  -31.6050   26.2270 C   0  0  0  0  0  1  0  0  0  0  0  0
  -27.0210  -30.4620   24.7850 C   0  0  0  0  0  1  0  0  0  0  0  0
  -27.5720  -32.6430   25.8300 C   0  0  0  0  0  1  0  0  0  0  0  0
  -25.6020  -33.9990   24.1960 N   0  0  0  0  0  0  0  0  0  0  0  0
  -25.9400  -35.0460   23.4320 C   0  0  0  0  0  0  0  0  0  0  0  0
  -26.6210  -34.9360   22.4080 O   0  0  0  0  0  0  0  0  0  0  0  0
  -24.9980  -34.1580   24.9900 H   0  0  0  0  0  0  0  0  0  0  0  0
  -24.2160  -36.8330   23.0390 C   0  0  0  0  0  1  0  0  0  0  0  0
  -25.4440  -36.4360   23.8720 C   0  0  0  0  0  3  0  0  0  0  0  0
  -27.5630  -37.3290   24.7320 C   0  0  0  0  0  1  0  0  0  0  0  0
  -26.4770  -37.4900   23.7690 N   0  0  0  0  0  0  0  0  0  0  0  0
  -26.0680  -38.4100   23.9030 H   0  0  0  0  0  0  0  0  0  0  0  0
  1  5  1  0
  2  1  2  0
  2  6  1  0
  3  4  1  0
  5 57  1  0
  5  4  2  0
  6  3  2  0
  7  6  1  0
  8 14  1  0
  8 15  2  0
  9 10  1  0
 11  9  1  0
 12 10  1  0
 13  4  1  0
 13 14  1  0
 13 11  1  0
 14 12  1  0
 17 22  1  0
 18 19  1  0
 18 17  1  0
 20 19  1  0
 20 32  1  0
 20 21  1  0
 22 16  1  0
 22 21  1  0
 23 16  2  0
 24 26  1  0
 24 25  1  0
 25 27  1  0
 26 28  1  0
 27  8  1  0
 28 16  1  0
 28 27  1  0
 29 30  2  0
 30 49  1  0
 31 30  1  0
 31 34  1  0
 32 33  1  0
 32 29  1  0
 33 31  2  0
 34 35  1  0
 35 36  2  0
 37 40  1  0
 37 36  1  0
 38 37  2  0
 39 38  1  0
 39 34  2  0
 40 41  1  0
 41 42  1  0
 42 43  2  0
 44 43  1  0
 44 48  1  0
 45 44  2  0
 46 41  2  0
 46 45  1  0
 47 46  1  0
 49 50  1  0
 50 53  1  0
 50 52  1  0
 51 49  2  0
 54 29  1  0
 54 55  1  0
 56 54  1  0
 58 59  1  0
 58 57  1  0
 60 59  1  0
 61 72  2  0
 62 60  1  0
 62 67  1  0
 63 71  1  0
 63 73  1  0
 64 70  1  0
 64 66  1  0
 65 71  1  0
 66 65  1  0
 67 66  2  0
 68 62  2  0
 69 68  1  0
 69 64  2  0
 70 63  1  0
 71 61  1  0
 73 75  2  0
 74 73  1  0
 76 74  1  0
 77 86  2  0
 77 82  1  0
 78 74  1  0
 78 82  1  0
 79 78  1  0
 80 81  1  0
 80 79  1  0
 81 77  1  0
 82 83  2  0
 83 84  1  0
 85 84  2  0
 86 85  1  0
 87 61  1  0
 87 92  1  0
 87 88  1  0
 88 91  1  1
 88 89  1  0
 90 88  1  0
 92 95  1  0
 93 97  1  0
 93 92  1  0
 94 93  2  0
 97 96  1  0
 99 97  1  0
 99100  1  0
 99 98  1  0
M  ISO  4  16 100  28 100  59 101  60 101
M  END
>  <TORSDO>  (45) 
F 20

>  <SCORE>  (45) 
-13.564

>  <name>  (45) 
45

>  <ligand_id>  (45) 
45

>  <original_smiles>  (45) 
[H]c1c([H])c([H])c2c(c1[H])C([H])([H])C([H])([H])C([H])([H])C2([H])N([H])C(=O)C1([H])N(C(=O)C([H])(N([H])C(=O)C([H])(N([H])C([H])([H])[H])C([H])([H])[H])C(C([H])([H])[H])(C([H])([H])[H])C([H])([H])[H])C([H])([H])c2c([H])c(OC([H])([H])C([H])([H])Oc3c([H])c([H])c(F)c([H])c3C3([H])N(C(=O)C4([H])N(C(=O)N5C([H])([H])C([H])([H])C([H])([H])C([H])(n6nc(-c7c([H])c([H])c(Oc8c([H])c([H])c(F)c([H])c8F)c([H])c7[H])c(C(=O)N([H])[H])c6N([H])[H])C5([H])[H])C([H])([H])C([H])([H])C4([H])[H])C([H])([H])C([H])([H])C([H])([H])C3([H])[H])c([H])c([H])c2C1([H])[H]

>  <smiles>  (45) 
[H]c1c([H])c([H])c2c(c1[H])C([H])([H])C([H])([H])C([H])([H])C2([H])N([H])C(=O)C1([H])N(C(=O)C([H])(N([H])C(=O)C([H])(N([H])C([H])([H])[H])C([H])([H])[H])C(C([H])([H])[H])(C([H])([H])[H])C([H])([H])[H])C([H])([H])c2c([H])c(OC([H])([H])C([H])([H])Oc3c([H])c([H])c(F)c([H])c3C3([H])N(C(=O)C4([H])N(C(=O)N5C([H])([H])C([H])([H])C([H])([H])C([H])(n6nc(-c7c([H])c([H])c(Oc8c([H])c([H])c(F)c([H])c8F)c([H])c7[H])c(C(=O)N([H])[H])c6N([H])[H])C5([H])[H])C([H])([H])C([H])([H])C4([H])[H])C([H])([H])C([H])([H])C([H])([H])C3([H])[H])c([H])c([H])c2C1([H])[H]

$$$$
46:0:0
     RDKit          3D

 90 99  0  0  1  0  0  0  0  0999 V2000
  -28.3740  -22.6540   21.7790 C   0  0  0  0  0  3  0  0  0  0  0  0
  -29.0130  -23.0380   19.5200 C   0  0  0  0  0  3  0  0  0  0  0  0
  -28.7110  -21.2620   21.6640 C   0  0  0  0  0  3  0  0  0  0  0  0
  -29.3550  -21.6360   19.4050 C   0  0  0  0  0  3  0  0  0  0  0  0
  -28.5020  -23.6110   20.7220 C   0  0  0  0  0  0  0  0  0  0  0  0
  -29.2080  -20.6820   20.4640 C   0  0  0  0  0  0  0  0  0  0  0  0
  -30.7690  -14.9320   20.1010 C   0  0  0  0  0  0  0  0  0  0  0  0
  -30.4480  -12.6650   19.0730 C   0  0  0  0  0  2  0  0  0  0  0  0
  -29.4710  -12.6990   17.8820 C   0  0  0  0  0  2  0  0  0  0  0  0
  -28.0290  -12.4930   18.3760 C   0  0  0  0  0  2  0  0  0  0  0  0
  -27.6890  -13.3840   19.6000 C   0  0  0  0  0  3  0  0  0  0  0  0
  -28.7980  -13.3630   20.6770 C   0  0  0  0  0  2  0  0  0  0  0  0
  -30.0500  -13.7480   20.0160 N   0  0  0  0  0  0  0  0  0  0  0  0
  -31.9540  -14.8810   19.7510 O   0  0  0  0  0  0  0  0  0  0  0  0
  -30.7050  -18.7570   21.0330 C   0  0  0  0  0  2  0  0  0  0  0  0
  -28.4790  -18.2470   20.5170 C   0  0  0  0  0  2  0  0  0  0  0  0
  -31.2050  -17.3440   20.5440 C   0  0  0  0  0  2  0  0  0  0  0  0
  -28.8460  -16.7120   20.2190 C   0  0  0  0  0  2  0  0  0  0  0  0
  -29.5340  -19.2650   20.3110 N   0  0  0  0  0  0  0  0  0  0  0  0
  -30.2370  -16.1990   20.4350 N   0  0  0  0  0  0  0  0  0  0  0  0
  -25.3400  -13.9320   20.4580 C   0  0  0  0  0  0  0  0  0  0  0  0
  -24.3000  -13.1430   20.8570 C   0  0  0  0  0  0  0  0  0  0  0  0
  -24.7710  -11.7960   20.7750 C   0  0  0  0  0  0  0  0  0  0  0  0
  -26.3780  -13.0690   20.1540 N   0  0  0  0  0  0  0  0  0  0  0  0
  -26.0470  -11.7770   20.4100 N   0  0  0  0  0  0  0  0  0  0  0  0
  -24.0620  -10.5240   20.9670 C   0  0  0  0  0  0  0  0  0  0  0  0
  -24.5090   -9.5630   21.9000 C   0  0  0  0  0  3  0  0  0  0  0  0
  -23.7990   -8.3570   22.0820 C   0  0  0  0  0  3  0  0  0  0  0  0
  -22.6280   -8.1030   21.3310 C   0  0  0  0  0  0  0  0  0  0  0  0
  -22.1990   -9.0530   20.3870 C   0  0  0  0  0  3  0  0  0  0  0  0
  -22.9090  -10.2510   20.2030 C   0  0  0  0  0  3  0  0  0  0  0  0
  -21.8880   -6.9490   21.4200 O   0  0  0  0  0  0  0  0  0  0  0  0
  -21.8070   -6.2350   22.5880 C   0  0  0  0  0  0  0  0  0  0  0  0
  -21.3000   -6.8070   23.7760 C   0  0  0  0  0  3  0  0  0  0  0  0
  -21.1680   -6.0180   24.9360 C   0  0  0  0  0  3  0  0  0  0  0  0
  -21.5330   -4.6600   24.9090 C   0  0  0  0  0  0  0  0  0  0  0  0
  -22.0340   -4.0880   23.7260 C   0  0  0  0  0  3  0  0  0  0  0  0
  -22.1680   -4.8730   22.5690 C   0  0  0  0  0  0  0  0  0  0  0  0
  -22.6300   -4.3120   21.4260 F   0  0  0  0  0  0  0  0  0  0  0  0
  -21.3990   -3.9000   26.0220 F   0  0  0  0  0  0  0  0  0  0  0  0
  -22.9120  -13.6040   21.1960 C   0  0  0  0  0  0  0  0  0  0  0  0
  -22.2230  -12.8810   22.0710 N   0  0  0  0  0  0  0  0  0  0  0  0
  -22.4500  -14.6410   20.7230 O   0  0  0  0  0  0  0  0  0  0  0  0
  -22.6120  -12.0430   22.4760 H   0  0  0  0  0  0  0  0  0  0  0  0
  -21.2950  -13.1750   22.3430 H   0  0  0  0  0  0  0  0  0  0  0  0
  -25.4810  -15.3080   20.2990 N   0  0  0  0  0  0  0  0  0  0  0  0
  -24.7050  -15.9450   20.4440 H   0  0  0  0  0  0  0  0  0  0  0  0
  -26.2970  -15.7570   19.9070 H   0  0  0  0  0  0  0  0  0  0  0  0
  -27.8700  -25.0800   20.9170 C   0  0  0  0  0  2  0  0  0  0  0  0
  -28.2850  -26.3900   20.2790 O   0  0  0  0  0  0  0  0  0  0  0  0
  -24.6110  -31.9380   23.2390 C   0  0  0  0  0  0  0  0  0  0  0  0
  -27.2470  -27.3560   20.1950 C   0  0  0  0  0  0  0  0  0  0  0  0
  -23.4260  -30.5390   21.5900 C   0  0  0  0  0  3  0  0  0  0  0  0
  -24.8950  -29.0100   20.1510 C   0  0  0  0  0  0  0  0  0  0  0  0
  -25.9690  -30.8610   21.4240 C   0  0  0  0  0  2  0  0  0  0  0  0
  -26.0620  -29.4830   20.7680 C   0  0  0  0  0  0  0  0  0  0  0  0
  -27.2440  -28.6700   20.7790 C   0  0  0  0  0  3  0  0  0  0  0  0
  -26.0730  -26.9730   19.5150 C   0  0  0  0  0  3  0  0  0  0  0  0
  -24.9080  -27.7660   19.5070 C   0  0  0  0  0  3  0  0  0  0  0  0
  -23.6510  -29.8780   20.2050 C   0  0  0  0  0  2  0  0  0  0  0  0
  -24.6880  -31.1310   22.1410 N   0  0  0  0  0  0  0  0  0  0  0  0
  -23.5240  -32.2060   23.7700 O   0  0  0  0  0  0  0  0  0  0  0  0
  -22.7650  -29.5120   22.5420 C   0  0  0  0  0  0  0  0  0  0  0  0
  -21.4380  -29.3300   22.4170 N   0  0  0  0  0  0  0  0  0  0  0  0
  -23.4450  -28.8850   23.3580 O   0  0  0  0  0  0  0  0  0  0  0  0
  -20.9430  -29.8930   21.7390 H   0  0  0  0  0  0  0  0  0  0  0  0
  -18.0680  -28.1110   22.9300 C   0  0  0  0  0  0  0  0  0  0  0  0
  -20.6270  -28.3810   23.1830 C   0  0  0  0  0  3  0  0  0  0  0  0
  -20.7290  -26.9550   22.5950 C   0  0  0  0  0  2  0  0  0  0  0  0
  -19.6230  -26.6370   21.5850 C   0  0  0  0  0  2  0  0  0  0  0  0
  -18.2450  -26.7710   22.2390 C   0  0  0  0  0  2  0  0  0  0  0  0
  -19.1860  -28.8750   23.3600 C   0  0  0  0  0  0  0  0  0  0  0  0
  -18.9650  -30.1290   23.9720 C   0  0  0  0  0  3  0  0  0  0  0  0
  -17.6600  -30.6240   24.1490 C   0  0  0  0  0  3  0  0  0  0  0  0
  -16.5560  -29.8580   23.7350 C   0  0  0  0  0  3  0  0  0  0  0  0
  -16.7610  -28.6030   23.1330 C   0  0  0  0  0  3  0  0  0  0  0  0
  -25.8850  -32.5810   23.8690 C   0  0  0  0  0  3  0  0  0  0  0  0
  -25.5680  -33.9820   24.1850 N   0  0  0  0  0  0  0  0  0  0  0  0
  -25.9050  -35.0310   23.4230 C   0  0  0  0  0  0  0  0  0  0  0  0
  -26.5850  -34.9230   22.3990 O   0  0  0  0  0  0  0  0  0  0  0  0
  -24.9650  -34.1400   24.9790 H   0  0  0  0  0  0  0  0  0  0  0  0
  -24.1850  -36.8280   23.0340 C   0  0  0  0  0  1  0  0  0  0  0  0
  -25.4110  -36.4220   23.8690 C   0  0  0  0  0  3  0  0  0  0  0  0
  -27.5290  -37.3100   24.7360 C   0  0  0  0  0  1  0  0  0  0  0  0
  -26.4460  -37.4730   23.7710 N   0  0  0  0  0  0  0  0  0  0  0  0
  -26.0390  -38.3940   23.9020 H   0  0  0  0  0  0  0  0  0  0  0  0
  -26.3940  -31.8240   25.1590 C   0  0  1  0  0  0  0  0  0  0  0  0
  -25.2910  -31.5870   26.2170 C   0  0  0  0  0  1  0  0  0  0  0  0
  -26.9900  -30.4460   24.7900 C   0  0  0  0  0  1  0  0  0  0  0  0
  -27.5340  -32.6300   25.8260 C   0  0  0  0  0  1  0  0  0  0  0  0
  2  5  1  0
  3  1  1  0
  4  2  2  0
  4  6  1  0
  5 49  1  0
  5  1  2  0
  6  3  2  0
  7 20  1  0
  8 13  1  0
  9 10  1  0
  9  8  1  0
 11 10  1  0
 11 24  1  0
 11 12  1  0
 13  7  1  0
 13 12  1  0
 14  7  2  0
 17 15  1  0
 18 20  1  0
 18 16  1  0
 19  6  1  0
 19 16  1  0
 19 15  1  0
 20 17  1  0
 21 22  2  0
 22 41  1  0
 23 22  1  0
 23 26  1  0
 24 25  1  0
 24 21  1  0
 25 23  2  0
 26 27  1  0
 27 28  2  0
 29 32  1  0
 29 28  1  0
 30 29  2  0
 31 30  1  0
 31 26  2  0
 32 33  1  0
 33 34  1  0
 34 35  2  0
 36 35  1  0
 36 40  1  0
 37 36  2  0
 38 33  2  0
 38 37  1  0
 39 38  1  0
 41 42  1  0
 42 45  1  0
 42 44  1  0
 43 41  2  0
 46 47  1  0
 46 21  1  0
 48 46  1  0
 50 49  1  0
 51 62  2  0
 52 50  1  0
 52 57  1  0
 53 61  1  0
 53 63  1  0
 54 60  1  0
 54 56  1  0
 55 61  1  0
 56 57  2  0
 56 55  1  0
 58 52  2  0
 59 58  1  0
 59 54  2  0
 60 53  1  0
 61 51  1  0
 63 65  2  0
 64 63  1  0
 66 64  1  0
 67 76  2  0
 67 72  1  0
 68 64  1  0
 68 72  1  0
 69 68  1  0
 70 71  1  0
 70 69  1  0
 71 67  1  0
 72 73  2  0
 73 74  1  0
 75 74  2  0
 76 75  1  0
 77 51  1  0
 77 78  1  0
 77 87  1  0
 78 81  1  0
 79 83  1  0
 79 78  1  0
 80 79  2  0
 83 82  1  0
 85 83  1  0
 85 86  1  0
 85 84  1  0
 87 90  1  1
 87 88  1  0
 89 87  1  0
M  ISO  4   7 100  20 100  49 101  50 101
M  END
>  <TORSDO>  (46) 
F 17

>  <SCORE>  (46) 
-15.231

>  <name>  (46) 
46

>  <ligand_id>  (46) 
46

>  <original_smiles>  (46) 
[H]c1c([H])c([H])c2c(c1[H])C([H])([H])C([H])([H])C([H])([H])C2([H])N([H])C(=O)C1([H])N(C(=O)C([H])(N([H])C(=O)C([H])(N([H])C([H])([H])[H])C([H])([H])[H])C(C([H])([H])[H])(C([H])([H])[H])C([H])([H])[H])C([H])([H])c2c([H])c(OC([H])([H])c3c([H])c([H])c(N4C([H])([H])C([H])([H])N(C(=O)N5C([H])([H])C([H])([H])C([H])([H])C([H])(n6nc(-c7c([H])c([H])c(Oc8c([H])c([H])c(F)c([H])c8F)c([H])c7[H])c(C(=O)N([H])[H])c6N([H])[H])C5([H])[H])C([H])([H])C4([H])[H])c([H])c3[H])c([H])c([H])c2C1([H])[H]

>  <smiles>  (46) 
[H]c1c([H])c([H])c2c(c1[H])C([H])([H])C([H])([H])C([H])([H])C2([H])N([H])C(=O)C1([H])N(C(=O)C([H])(N([H])C(=O)C([H])(N([H])C([H])([H])[H])C([H])([H])[H])C(C([H])([H])[H])(C([H])([H])[H])C([H])([H])[H])C([H])([H])c2c([H])c(OC([H])([H])c3c([H])c([H])c(N4C([H])([H])C([H])([H])N(C(=O)N5C([H])([H])C([H])([H])C([H])([H])C([H])(n6nc(-c7c([H])c([H])c(Oc8c([H])c([H])c(F)c([H])c8F)c([H])c7[H])c(C(=O)N([H])[H])c6N([H])[H])C5([H])[H])C([H])([H])C4([H])[H])c([H])c3[H])c([H])c([H])c2C1([H])[H]

$$$$
47:0:0
     RDKit          3D

105116  0  0  1  0  0  0  0  0999 V2000
  -30.1320  -23.5740   24.7130 C   0  0  0  0  0  3  0  0  0  0  0  0
  -30.7120  -22.3190   24.9820 C   0  0  0  0  0  3  0  0  0  0  0  0
  -30.9480  -23.4610   22.4190 C   0  0  0  0  0  3  0  0  0  0  0  0
  -30.2270  -24.1420   23.4220 C   0  0  0  0  0  0  0  0  0  0  0  0
  -31.5400  -22.2140   22.6940 C   0  0  0  0  0  0  0  0  0  0  0  0
  -31.4150  -21.6360   23.9740 C   0  0  0  0  0  0  0  0  0  0  0  0
  -31.9390  -20.4140   24.2290 F   0  0  0  0  0  0  0  0  0  0  0  0
  -32.2420  -21.4680   21.5790 C   0  0  0  0  0  2  0  0  0  0  0  0
  -29.7250  -18.2120   18.7190 C   0  0  0  0  0  3  0  0  0  0  0  0
  -29.3620  -16.8590   18.9060 C   0  0  0  0  0  3  0  0  0  0  0  0
  -30.0830  -16.9340   21.2610 C   0  0  0  0  0  3  0  0  0  0  0  0
  -30.2940  -18.8850   19.8150 C   0  0  0  0  0  0  0  0  0  0  0  0
  -30.4530  -18.2690   21.0410 C   0  0  0  0  0  0  0  0  0  0  0  0
  -29.5680  -16.2140   20.1610 C   0  0  0  0  0  0  0  0  0  0  0  0
  -30.8720  -20.2500   19.8660 C   0  0  0  0  0  0  0  0  0  0  0  0
  -31.1270  -19.2290   21.9770 C   0  0  0  0  0  2  0  0  0  0  0  0
  -31.4190  -20.3710   21.0930 N   0  0  0  0  0  0  0  0  0  0  0  0
  -30.8820  -21.0630   18.9360 O   0  0  0  0  0  0  0  0  0  0  0  0
  -29.9330  -13.8620   19.6700 C   0  0  0  0  0  0  0  0  0  0  0  0
  -29.6760  -11.6080   18.7350 C   0  0  0  0  0  2  0  0  0  0  0  0
  -28.5810  -11.6490   17.6520 C   0  0  0  0  0  2  0  0  0  0  0  0
  -27.1920  -11.4260   18.2760 C   0  0  0  0  0  2  0  0  0  0  0  0
  -26.9360  -12.3420   19.5040 C   0  0  0  0  0  3  0  0  0  0  0  0
  -28.1300  -12.2940   20.4820 C   0  0  0  0  0  2  0  0  0  0  0  0
  -29.3520  -12.6360   19.7310 N   0  0  0  0  0  0  0  0  0  0  0  0
  -30.9420  -14.0960   18.9960 O   0  0  0  0  0  0  0  0  0  0  0  0
  -29.2860  -14.8400   20.3190 N   0  0  0  0  0  0  0  0  0  0  0  0
  -28.5340  -14.5760   20.9390 H   0  0  0  0  0  0  0  0  0  0  0  0
  -24.6690  -12.8360   20.6190 C   0  0  0  0  0  0  0  0  0  0  0  0
  -23.6900  -12.0120   21.1040 C   0  0  0  0  0  0  0  0  0  0  0  0
  -24.1630  -10.6780   20.9070 C   0  0  0  0  0  0  0  0  0  0  0  0
  -25.6810  -12.0020   20.1690 N   0  0  0  0  0  0  0  0  0  0  0  0
  -25.3880  -10.6960   20.3970 N   0  0  0  0  0  0  0  0  0  0  0  0
  -23.5040   -9.3850   21.1260 C   0  0  0  0  0  0  0  0  0  0  0  0
  -24.0350   -8.4280   22.0180 C   0  0  0  0  0  3  0  0  0  0  0  0
  -23.3750   -7.1970   22.2230 C   0  0  0  0  0  3  0  0  0  0  0  0
  -22.1690   -6.9160   21.5370 C   0  0  0  0  0  0  0  0  0  0  0  0
  -21.6570   -7.8640   20.6330 C   0  0  0  0  0  3  0  0  0  0  0  0
  -22.3170   -9.0860   20.4270 C   0  0  0  0  0  3  0  0  0  0  0  0
  -21.4690   -5.7390   21.6580 O   0  0  0  0  0  0  0  0  0  0  0  0
  -21.4470   -5.0320   22.8320 C   0  0  0  0  0  0  0  0  0  0  0  0
  -20.9090   -5.5740   24.0190 C   0  0  0  0  0  3  0  0  0  0  0  0
  -20.8450   -4.7870   25.1870 C   0  0  0  0  0  3  0  0  0  0  0  0
  -21.3040   -3.4560   25.1660 C   0  0  0  0  0  0  0  0  0  0  0  0
  -21.8350   -2.9120   23.9820 C   0  0  0  0  0  3  0  0  0  0  0  0
  -21.9020   -3.6980   22.8180 C   0  0  0  0  0  0  0  0  0  0  0  0
  -22.3940   -3.1620   21.6740 F   0  0  0  0  0  0  0  0  0  0  0  0
  -21.2340   -2.6960   26.2840 F   0  0  0  0  0  0  0  0  0  0  0  0
  -22.3450  -12.4260   21.6280 C   0  0  0  0  0  0  0  0  0  0  0  0
  -21.7630  -11.6320   22.5210 N   0  0  0  0  0  0  0  0  0  0  0  0
  -21.8250  -13.4860   21.2840 O   0  0  0  0  0  0  0  0  0  0  0  0
  -22.2030  -10.7750   22.8210 H   0  0  0  0  0  0  0  0  0  0  0  0
  -20.8660  -11.8860   22.9110 H   0  0  0  0  0  0  0  0  0  0  0  0
  -24.7780  -14.2200   20.5050 N   0  0  0  0  0  0  0  0  0  0  0  0
  -24.0240  -14.8490   20.7540 H   0  0  0  0  0  0  0  0  0  0  0  0
  -25.5630  -14.6920   20.0740 H   0  0  0  0  0  0  0  0  0  0  0  0
  -29.5420  -25.4600   23.0860 C   0  0  0  0  0  2  0  0  0  0  0  0
  -26.1130  -26.0760   23.1080 C   0  0  0  0  0  2  0  0  0  0  0  0
  -26.3370  -26.5340   21.6810 C   0  0  0  0  0  2  0  0  0  0  0  0
  -27.1120  -24.9280   23.2550 C   0  0  0  0  0  2  0  0  0  0  0  0
  -27.8540  -26.3630   21.4710 C   0  0  0  0  0  3  0  0  0  0  0  0
  -28.2590  -25.2400   22.3630 N   0  0  1  0  0  4  0  0  0  0  0  0
  -28.4000  -24.4210   21.7900 H   0  0  0  0  0  0  0  0  0  0  0  0
  -28.2470  -26.1340   19.9850 C   0  0  0  0  0  2  0  0  0  0  0  0
  -27.9890  -27.2770   19.1700 O   0  0  0  0  0  0  0  0  0  0  0  0
  -24.4780  -32.0060   23.1220 C   0  0  0  0  0  0  0  0  0  0  0  0
  -26.7950  -27.9170   19.3900 C   0  0  0  0  0  0  0  0  0  0  0  0
  -23.0850  -30.6630   21.5730 C   0  0  0  0  0  3  0  0  0  0  0  0
  -24.3680  -29.2680   19.8590 C   0  0  0  0  0  0  0  0  0  0  0  0
  -25.5360  -31.1430   21.0430 C   0  0  0  0  0  2  0  0  0  0  0  0
  -25.5750  -29.8220   20.3050 C   0  0  0  0  0  0  0  0  0  0  0  0
  -26.7910  -29.1520   20.0670 C   0  0  0  0  0  3  0  0  0  0  0  0
  -25.5770  -27.3570   18.9490 C   0  0  0  0  0  3  0  0  0  0  0  0
  -24.3600  -28.0310   19.1840 C   0  0  0  0  0  3  0  0  0  0  0  0
  -23.1130  -30.0660   20.1390 C   0  0  0  0  0  2  0  0  0  0  0  0
  -24.3890  -31.2790   21.9710 N   0  0  0  0  0  0  0  0  0  0  0  0
  -23.4800  -32.2050   23.8280 O   0  0  0  0  0  0  0  0  0  0  0  0
  -22.6040  -29.5660   22.5470 C   0  0  0  0  0  0  0  0  0  0  0  0
  -21.3330  -29.1580   22.4020 N   0  0  0  0  0  0  0  0  0  0  0  0
  -23.3700  -29.0830   23.3850 O   0  0  0  0  0  0  0  0  0  0  0  0
  -20.7680  -29.6150   21.6980 H   0  0  0  0  0  0  0  0  0  0  0  0
  -18.2790  -27.2520   22.7050 C   0  0  0  0  0  0  0  0  0  0  0  0
  -20.6740  -28.1040   23.1730 C   0  0  0  0  0  3  0  0  0  0  0  0
  -21.1520  -26.7030   22.7280 C   0  0  0  0  0  2  0  0  0  0  0  0
  -20.2600  -26.0760   21.6510 C   0  0  0  0  0  2  0  0  0  0  0  0
  -18.8210  -25.9400   22.1630 C   0  0  0  0  0  2  0  0  0  0  0  0
  -19.1510  -28.2740   23.1650 C   0  0  0  0  0  0  0  0  0  0  0  0
  -18.6030  -29.4900   23.6280 C   0  0  0  0  0  3  0  0  0  0  0  0
  -17.2100  -29.6930   23.6410 C   0  0  0  0  0  3  0  0  0  0  0  0
  -16.3480  -28.6710   23.2050 C   0  0  0  0  0  3  0  0  0  0  0  0
  -16.8820  -27.4530   22.7430 C   0  0  0  0  0  3  0  0  0  0  0  0
  -25.8260  -32.6380   23.5950 C   0  0  0  0  0  3  0  0  0  0  0  0
  -25.5290  -33.9840   24.1000 N   0  0  0  0  0  0  0  0  0  0  0  0
  -25.7320  -35.1170   23.4140 C   0  0  0  0  0  0  0  0  0  0  0  0
  -26.2640  -35.1410   22.3010 O   0  0  0  0  0  0  0  0  0  0  0  0
  -25.0480  -34.0360   24.9880 H   0  0  0  0  0  0  0  0  0  0  0  0
  -23.9350  -36.8740   23.4540 C   0  0  0  0  0  1  0  0  0  0  0  0
  -25.2740  -36.4360   24.0660 C   0  0  0  0  0  3  0  0  0  0  0  0
  -27.4660  -37.3140   24.7390 C   0  0  0  0  0  1  0  0  0  0  0  0
  -26.2620  -37.5280   23.9400 N   0  0  0  0  0  0  0  0  0  0  0  0
  -25.8530  -38.4150   24.2210 H   0  0  0  0  0  0  0  0  0  0  0  0
  -26.5650  -31.7770   24.6900 C   0  0  1  0  0  0  0  0  0  0  0  0
  -25.6670  -31.3890   25.8890 C   0  0  0  0  0  1  0  0  0  0  0  0
  -27.1250  -30.4720   24.0720 C   0  0  0  0  0  1  0  0  0  0  0  0
  -27.7770  -32.5620   25.2460 C   0  0  0  0  0  1  0  0  0  0  0  0
  1  2  1  0
  3  5  2  0
  3  4  1  0
  4  1  2  0
  5  6  1  0
  6  7  1  0
  6  2  2  0
  8  5  1  0
  9 10  2  0
  9 12  1  0
 10 14  1  0
 12 15  1  0
 12 13  2  0
 13 11  1  0
 13 16  1  0
 14 27  1  0
 14 11  2  0
 15 17  1  0
 17  8  1  0
 17 16  1  0
 18 15  2  0
 19 25  1  0
 19 27  1  0
 20 25  1  0
 21 22  1  0
 21 20  1  0
 23 22  1  0
 23 32  1  0
 23 24  1  0
 25 24  1  0
 26 19  2  0
 27 28  1  0
 29 30  2  0
 30 49  1  0
 31 30  1  0
 31 34  1  0
 32 33  1  0
 32 29  1  0
 33 31  2  0
 34 35  1  0
 35 36  2  0
 37 40  1  0
 37 36  1  0
 38 37  2  0
 39 38  1  0
 39 34  2  0
 40 41  1  0
 41 42  1  0
 42 43  2  0
 44 43  1  0
 44 48  1  0
 45 44  2  0
 46 41  2  0
 46 45  1  0
 47 46  1  0
 49 50  1  0
 50 52  1  0
 50 53  1  0
 51 49  2  0
 54 29  1  0
 54 55  1  0
 56 54  1  0
 57  4  1  0
 58 60  1  0
 59 58  1  0
 61 64  1  0
 61 59  1  0
 61 62  1  0
 62 57  1  0
 62 60  1  0
 62 63  1  6
 65 67  1  0
 65 64  1  0
 66 77  2  0
 67 72  1  0
 68 76  1  0
 68 78  1  0
 69 75  1  0
 69 71  1  0
 70 76  1  0
 71 70  1  0
 72 71  2  0
 73 74  1  0
 73 67  2  0
 74 69  2  0
 75 68  1  0
 76 66  1  0
 78 80  2  0
 79 78  1  0
 81 79  1  0
 82 91  2  0
 82 87  1  0
 83 79  1  0
 84 83  1  0
 85 86  1  0
 85 84  1  0
 86 82  1  0
 87 83  1  0
 87 88  2  0
 88 89  1  0
 90 89  2  0
 91 90  1  0
 92 66  1  0
 92 93  1  0
 92102  1  0
 93 96  1  0
 94 98  1  0
 94 93  1  0
 95 94  2  0
 98 97  1  0
100 98  1  0
100101  1  0
100 99  1  0
102105  1  1
102103  1  0
104102  1  0
M  ISO  4  19 100  27 100  64 101  65 101
M  END
>  <TORSDO>  (47) 
F 21

>  <SCORE>  (47) 
-6.679

>  <name>  (47) 
47

>  <ligand_id>  (47) 
47

>  <original_smiles>  (47) 
[H]c1c([H])c([H])c2c(c1[H])C([H])([H])C([H])([H])C([H])([H])C2([H])N([H])C(=O)C1([H])N(C(=O)C([H])(N([H])C(=O)C([H])(N([H])C([H])([H])[H])C([H])([H])[H])C(C([H])([H])[H])(C([H])([H])[H])C([H])([H])[H])C([H])([H])c2c([H])c(OC([H])([H])C3([H])C([H])([H])C([H])([H])C([H])([H])[N+]3([H])C([H])([H])c3c([H])c([H])c(F)c(C([H])([H])N4C(=O)c5c([H])c([H])c(N([H])C(=O)N6C([H])([H])C([H])([H])C([H])([H])C([H])(n7nc(-c8c([H])c([H])c(Oc9c([H])c([H])c(F)c([H])c9F)c([H])c8[H])c(C(=O)N([H])[H])c7N([H])[H])C6([H])[H])c([H])c5C4([H])[H])c3[H])c([H])c([H])c2C1([H])[H]

>  <smiles>  (47) 
[H]c1c([H])c([H])c2c(c1[H])C([H])([H])C([H])([H])C([H])([H])C2([H])N([H])C(=O)C1([H])N(C(=O)C([H])(N([H])C(=O)C([H])(N([H])C([H])([H])[H])C([H])([H])[H])C(C([H])([H])[H])(C([H])([H])[H])C([H])([H])[H])C([H])([H])c2c([H])c(OC([H])([H])C3([H])C([H])([H])C([H])([H])C([H])([H])[N+]3([H])C([H])([H])c3c([H])c([H])c(F)c(C([H])([H])N4C(=O)c5c([H])c([H])c(N([H])C(=O)N6C([H])([H])C([H])([H])C([H])([H])C([H])(n7nc(-c8c([H])c([H])c(Oc9c([H])c([H])c(F)c([H])c9F)c([H])c8[H])c(C(=O)N([H])[H])c7N([H])[H])C6([H])[H])c([H])c5C4([H])[H])c3[H])c([H])c([H])c2C1([H])[H]

$$$$
48:0:0
     RDKit          3D

 93102  0  0  1  0  0  0  0  0999 V2000
  -28.8500  -18.9340   20.4470 C   0  0  0  0  0  3  0  0  0  0  0  0
  -30.2870  -21.1300   19.4280 C   0  0  0  0  0  3  0  0  0  0  0  0
  -30.1440  -18.6760   19.9310 C   0  0  0  0  0  0  0  0  0  0  0  0
  -29.0080  -21.3960   19.9750 C   0  0  0  0  0  0  0  0  0  0  0  0
  -28.3010  -20.2540   20.4630 C   0  0  0  0  0  0  0  0  0  0  0  0
  -30.8260  -19.8110   19.3950 C   0  0  0  0  0  0  0  0  0  0  0  0
  -27.0650  -20.4280   20.9850 F   0  0  0  0  0  0  0  0  0  0  0  0
  -32.0610  -19.6430   18.8610 F   0  0  0  0  0  0  0  0  0  0  0  0
  -30.7970  -14.7850   19.8410 C   0  0  0  0  0  0  0  0  0  0  0  0
  -30.3860  -12.5530   18.8120 C   0  0  0  0  0  2  0  0  0  0  0  0
  -29.3700  -12.6620   17.6580 C   0  0  0  0  0  2  0  0  0  0  0  0
  -27.9350  -12.5120   18.1920 C   0  0  0  0  0  2  0  0  0  0  0  0
  -27.6650  -13.3880   19.4450 C   0  0  0  0  0  3  0  0  0  0  0  0
  -28.8060  -13.2850   20.4830 C   0  0  0  0  0  2  0  0  0  0  0  0
  -30.0670  -13.6150   19.8000 N   0  0  0  0  0  0  0  0  0  0  0  0
  -31.8720  -14.8320   19.2360 O   0  0  0  0  0  0  0  0  0  0  0  0
  -31.1390  -17.0620   22.3920 C   0  0  0  0  0  2  0  0  0  0  0  0
  -31.9410  -17.4720   21.1670 C   0  0  0  0  0  2  0  0  0  0  0  0
  -30.1920  -15.9680   21.8710 C   0  0  0  0  0  2  0  0  0  0  0  0
  -30.9200  -17.3000   20.0370 C   0  0  0  0  0  3  0  0  0  0  0  0
  -30.2880  -15.9560   20.3970 N   0  0  0  0  0  0  0  0  0  0  0  0
  -25.3500  -13.9640   20.3900 C   0  0  0  0  0  0  0  0  0  0  0  0
  -24.3080  -13.1850   20.8120 C   0  0  0  0  0  0  0  0  0  0  0  0
  -24.7490  -11.8310   20.6820 C   0  0  0  0  0  0  0  0  0  0  0  0
  -26.3610  -13.0890   20.0310 N   0  0  0  0  0  0  0  0  0  0  0  0
  -26.0090  -11.7970   20.2660 N   0  0  0  0  0  0  0  0  0  0  0  0
  -24.0220  -10.5680   20.8750 C   0  0  0  0  0  0  0  0  0  0  0  0
  -24.4370   -9.6130   21.8290 C   0  0  0  0  0  3  0  0  0  0  0  0
  -23.7090   -8.4180   22.0100 C   0  0  0  0  0  3  0  0  0  0  0  0
  -22.5490   -8.1670   21.2370 C   0  0  0  0  0  0  0  0  0  0  0  0
  -22.1530   -9.1110   20.2730 C   0  0  0  0  0  3  0  0  0  0  0  0
  -22.8820  -10.2990   20.0900 C   0  0  0  0  0  3  0  0  0  0  0  0
  -21.7950   -7.0230   21.3260 O   0  0  0  0  0  0  0  0  0  0  0  0
  -21.6150   -6.3710   22.5190 C   0  0  0  0  0  0  0  0  0  0  0  0
  -21.0250   -7.0060   23.6340 C   0  0  0  0  0  3  0  0  0  0  0  0
  -20.7940   -6.2790   24.8190 C   0  0  0  0  0  3  0  0  0  0  0  0
  -21.1450   -4.9160   24.8880 C   0  0  0  0  0  0  0  0  0  0  0  0
  -21.7270   -4.2820   23.7770 C   0  0  0  0  0  3  0  0  0  0  0  0
  -21.9580   -5.0070   22.5960 C   0  0  0  0  0  0  0  0  0  0  0  0
  -22.5010   -4.3840   21.5210 F   0  0  0  0  0  0  0  0  0  0  0  0
  -20.9170   -4.2160   26.0240 F   0  0  0  0  0  0  0  0  0  0  0  0
  -22.9440  -13.6620   21.2200 C   0  0  0  0  0  0  0  0  0  0  0  0
  -22.2820  -12.9400   22.1160 N   0  0  0  0  0  0  0  0  0  0  0  0
  -22.4770  -14.7120   20.7790 O   0  0  0  0  0  0  0  0  0  0  0  0
  -22.6740  -12.0910   22.4950 H   0  0  0  0  0  0  0  0  0  0  0  0
  -21.3700  -13.2400   22.4280 H   0  0  0  0  0  0  0  0  0  0  0  0
  -25.5140  -15.3410   20.2620 N   0  0  0  0  0  0  0  0  0  0  0  0
  -24.7680  -15.9930   20.4840 H   0  0  0  0  0  0  0  0  0  0  0  0
  -26.3320  -15.7920   19.8720 H   0  0  0  0  0  0  0  0  0  0  0  0
  -28.3950  -22.6680   20.0440 O   0  0  0  0  0  0  0  0  0  0  0  0
  -29.0660  -23.9460   19.7700 C   0  0  0  0  0  2  0  0  0  0  0  0
  -28.0150  -25.1070   19.4800 C   0  0  0  0  0  2  0  0  0  0  0  0
  -28.2770  -26.5560   19.6810 O   0  0  0  0  0  0  0  0  0  0  0  0
  -24.5240  -31.7040   23.0990 C   0  0  0  0  0  0  0  0  0  0  0  0
  -27.1520  -27.4050   19.6990 C   0  0  0  0  0  0  0  0  0  0  0  0
  -23.3070  -30.3790   21.4110 C   0  0  0  0  0  3  0  0  0  0  0  0
  -24.7540  -28.9630   19.8530 C   0  0  0  0  0  0  0  0  0  0  0  0
  -25.8360  -30.7700   21.1810 C   0  0  0  0  0  2  0  0  0  0  0  0
  -25.9300  -29.4390   20.4480 C   0  0  0  0  0  0  0  0  0  0  0  0
  -27.1320  -28.6710   20.3630 C   0  0  0  0  0  3  0  0  0  0  0  0
  -25.9480  -26.9960   19.0770 C   0  0  0  0  0  3  0  0  0  0  0  0
  -24.7660  -27.7480   19.1600 C   0  0  0  0  0  3  0  0  0  0  0  0
  -23.4980  -29.7960   19.9880 C   0  0  0  0  0  2  0  0  0  0  0  0
  -24.5760  -30.9650   21.9540 N   0  0  0  0  0  0  0  0  0  0  0  0
  -23.4500  -31.9200   23.6800 O   0  0  0  0  0  0  0  0  0  0  0  0
  -22.6980  -29.2860   22.3230 C   0  0  0  0  0  0  0  0  0  0  0  0
  -21.3790  -29.0580   22.1980 N   0  0  0  0  0  0  0  0  0  0  0  0
  -23.4100  -28.6510   23.1060 O   0  0  0  0  0  0  0  0  0  0  0  0
  -20.8630  -29.6260   21.5410 H   0  0  0  0  0  0  0  0  0  0  0  0
  -18.0620  -27.6870   22.6460 C   0  0  0  0  0  0  0  0  0  0  0  0
  -20.6070  -28.0500   22.9260 C   0  0  0  0  0  3  0  0  0  0  0  0
  -20.7720  -26.6500   22.2870 C   0  0  0  0  0  2  0  0  0  0  0  0
  -19.6830  -26.3230   21.2620 C   0  0  0  0  0  2  0  0  0  0  0  0
  -18.2960  -26.3790   21.9110 C   0  0  0  0  0  2  0  0  0  0  0  0
  -19.1460  -28.4800   23.1080 C   0  0  0  0  0  0  0  0  0  0  0  0
  -18.8730  -29.7060   23.7540 C   0  0  0  0  0  3  0  0  0  0  0  0
  -17.5470  -30.1380   23.9470 C   0  0  0  0  0  3  0  0  0  0  0  0
  -16.4770  -29.3420   23.5030 C   0  0  0  0  0  3  0  0  0  0  0  0
  -16.7350  -28.1200   22.8560 C   0  0  0  0  0  3  0  0  0  0  0  0
  -25.8080  -32.3310   23.7240 C   0  0  0  0  0  3  0  0  0  0  0  0
  -26.3620  -31.5150   24.9550 C   0  0  1  0  0  0  0  0  0  0  0  0
  -25.2930  -31.2130   26.0320 C   0  0  0  0  0  1  0  0  0  0  0  0
  -26.9640  -30.1660   24.4940 C   0  0  0  0  0  1  0  0  0  0  0  0
  -27.5100  -32.3020   25.6310 C   0  0  0  0  0  1  0  0  0  0  0  0
  -25.4830  -33.7080   24.1210 N   0  0  0  0  0  0  0  0  0  0  0  0
  -25.7550  -34.7970   23.3900 C   0  0  0  0  0  0  0  0  0  0  0  0
  -26.3800  -34.7510   22.3280 O   0  0  0  0  0  0  0  0  0  0  0  0
  -24.9310  -33.8190   24.9600 H   0  0  0  0  0  0  0  0  0  0  0  0
  -23.9600  -36.5500   23.2020 C   0  0  0  0  0  1  0  0  0  0  0  0
  -25.2590  -36.1550   23.9240 C   0  0  0  0  0  3  0  0  0  0  0  0
  -27.4100  -37.0800   24.6650 C   0  0  0  0  0  1  0  0  0  0  0  0
  -26.2530  -37.2420   23.7880 N   0  0  0  0  0  0  0  0  0  0  0  0
  -25.8290  -38.1430   23.9890 H   0  0  0  0  0  0  0  0  0  0  0  0
  1  5  1  0
  2  4  1  0
  3  1  2  0
  4 50  1  0
  4  5  2  0
  5  7  1  0
  6  2  2  0
  6  3  1  0
  8  6  1  0
  9 21  1  0
 10 15  1  0
 11 12  1  0
 11 10  1  0
 13 12  1  0
 13 25  1  0
 13 14  1  0
 15  9  1  0
 15 14  1  0
 16  9  2  0
 18 17  1  0
 19 17  1  0
 20  3  1  0
 20 21  1  0
 20 18  1  0
 21 19  1  0
 22 23  2  0
 23 42  1  0
 24 23  1  0
 24 27  1  0
 25 26  1  0
 25 22  1  0
 26 24  2  0
 27 28  1  0
 28 29  2  0
 30 33  1  0
 30 29  1  0
 31 30  2  0
 32 31  1  0
 32 27  2  0
 33 34  1  0
 34 39  2  0
 34 35  1  0
 35 36  2  0
 36 37  1  0
 37 41  1  0
 38 37  2  0
 39 38  1  0
 40 39  1  0
 42 43  1  0
 43 46  1  0
 43 45  1  0
 44 42  2  0
 47 22  1  0
 47 48  1  0
 49 47  1  0
 51 50  1  0
 52 53  1  0
 52 51  1  0
 53 55  1  0
 54 65  2  0
 55 60  1  0
 56 64  1  0
 56 66  1  0
 57 63  1  0
 57 59  1  0
 58 64  1  0
 59 58  1  0
 60 59  2  0
 61 62  1  0
 61 55  2  0
 62 57  2  0
 63 56  1  0
 64 54  1  0
 66 68  2  0
 67 66  1  0
 69 67  1  0
 70 79  2  0
 70 75  1  0
 71 67  1  0
 71 75  1  0
 72 71  1  0
 73 74  1  0
 73 72  1  0
 74 70  1  0
 75 76  2  0
 76 77  1  0
 78 77  2  0
 79 78  1  0
 80 54  1  0
 80 85  1  0
 80 81  1  0
 81 84  1  1
 81 82  1  0
 83 81  1  0
 85 88  1  0
 86 90  1  0
 86 85  1  0
 87 86  2  0
 90 89  1  0
 92 90  1  0
 92 93  1  0
 92 91  1  0
M  ISO  4   9 100  21 100  52 101  53 101
M  END
>  <TORSDO>  (48) 
F 19

>  <SCORE>  (48) 
-12.787

>  <name>  (48) 
48

>  <ligand_id>  (48) 
48

>  <original_smiles>  (48) 
[H]c1c([H])c([H])c2c(c1[H])C([H])([H])C([H])([H])C([H])([H])C2([H])N([H])C(=O)C1([H])N(C(=O)C([H])(N([H])C(=O)C([H])(N([H])C([H])([H])[H])C([H])([H])[H])C(C([H])([H])[H])(C([H])([H])[H])C([H])([H])[H])C([H])([H])c2c([H])c(OC([H])([H])C([H])([H])Oc3c([H])c(F)c(C4([H])N(C(=O)N5C([H])([H])C([H])([H])C([H])([H])C([H])(n6nc(-c7c([H])c([H])c(Oc8c([H])c([H])c(F)c([H])c8F)c([H])c7[H])c(C(=O)N([H])[H])c6N([H])[H])C5([H])[H])C([H])([H])C([H])([H])C4([H])[H])c([H])c3F)c([H])c([H])c2C1([H])[H]

>  <smiles>  (48) 
[H]c1c([H])c([H])c2c(c1[H])C([H])([H])C([H])([H])C([H])([H])C2([H])N([H])C(=O)C1([H])N(C(=O)C([H])(N([H])C(=O)C([H])(N([H])C([H])([H])[H])C([H])([H])[H])C(C([H])([H])[H])(C([H])([H])[H])C([H])([H])[H])C([H])([H])c2c([H])c(OC([H])([H])C([H])([H])Oc3c([H])c(F)c(C4([H])N(C(=O)N5C([H])([H])C([H])([H])C([H])([H])C([H])(n6nc(-c7c([H])c([H])c(Oc8c([H])c([H])c(F)c([H])c8F)c([H])c7[H])c(C(=O)N([H])[H])c6N([H])[H])C5([H])[H])C([H])([H])C([H])([H])C4([H])[H])c([H])c3F)c([H])c([H])c2C1([H])[H]

$$$$
49:0:0
     RDKit          3D

101111  0  0  1  0  0  0  0  0999 V2000
  -29.9450  -22.3800   20.4060 N   0  0  1  0  0  4  0  0  0  0  0  0
  -29.6530  -22.3310   19.4430 H   0  0  0  0  0  0  0  0  0  0  0  0
  -31.2170  -23.1550   20.4010 C   0  0  0  0  0  2  0  0  0  0  0  0
  -33.4550  -21.9980   20.0320 C   0  0  0  0  0  3  0  0  0  0  0  0
  -32.2060  -22.7610   18.0800 C   0  0  0  0  0  3  0  0  0  0  0  0
  -34.4880  -21.5360   19.1930 C   0  0  0  0  0  3  0  0  0  0  0  0
  -33.2380  -22.2920   17.2390 C   0  0  0  0  0  3  0  0  0  0  0  0
  -32.3040  -22.6080   19.4810 C   0  0  0  0  0  0  0  0  0  0  0  0
  -34.3780  -21.6770   17.7950 C   0  0  0  0  0  0  0  0  0  0  0  0
  -35.6320  -21.0990   16.7610 Cl  0  0  0  0  0  0  0  0  0  0  0  0
  -30.1130  -20.9180   20.8500 C   0  0  0  0  0  2  0  0  0  0  0  0
  -30.6750  -14.7580   20.4040 C   0  0  0  0  0  0  0  0  0  0  0  0
  -30.4100  -12.4810   19.4110 C   0  0  0  0  0  2  0  0  0  0  0  0
  -29.4800  -12.5120   18.1730 C   0  0  0  0  0  2  0  0  0  0  0  0
  -28.0130  -12.2950   18.5990 C   0  0  0  0  0  2  0  0  0  0  0  0
  -27.6050  -13.2100   19.7710 C   0  0  0  0  0  3  0  0  0  0  0  0
  -28.6680  -13.2500   20.9080 C   0  0  0  0  0  2  0  0  0  0  0  0
  -29.9810  -13.5670   20.3180 N   0  0  0  0  0  0  0  0  0  0  0  0
  -31.8940  -14.7730   20.2240 O   0  0  0  0  0  0  0  0  0  0  0  0
  -27.7130  -19.5050   18.1810 C   0  0  0  0  0  3  0  0  0  0  0  0
  -27.8040  -18.1160   18.3200 C   0  0  0  0  0  3  0  0  0  0  0  0
  -28.4920  -20.3480   18.9950 C   0  0  0  0  0  3  0  0  0  0  0  0
  -28.7180  -17.6050   19.2510 C   0  0  0  0  0  0  0  0  0  0  0  0
  -29.5540  -18.3910   20.0270 C   0  0  0  0  0  0  0  0  0  0  0  0
  -29.4140  -19.8450   19.9580 C   0  0  0  0  0  0  0  0  0  0  0  0
  -28.8550  -16.1580   19.5720 C   0  0  0  0  0  3  0  0  0  0  0  0
  -30.4490  -17.3730   20.8080 C   0  0  0  0  0  3  0  0  0  0  0  0
  -29.9750  -15.9580   20.4840 N   0  0  0  0  0  0  0  0  0  0  0  0
  -25.2210  -13.8470   20.4730 C   0  0  0  0  0  0  0  0  0  0  0  0
  -24.1460  -13.0830   20.8370 C   0  0  0  0  0  0  0  0  0  0  0  0
  -24.6110  -11.7330   20.8360 C   0  0  0  0  0  0  0  0  0  0  0  0
  -26.2630  -12.9520   20.2670 N   0  0  0  0  0  0  0  0  0  0  0  0
  -25.9040  -11.6810   20.5540 N   0  0  0  0  0  0  0  0  0  0  0  0
  -23.8840  -10.4730   21.0240 C   0  0  0  0  0  0  0  0  0  0  0  0
  -24.2990   -9.5180   21.9760 C   0  0  0  0  0  3  0  0  0  0  0  0
  -23.5720   -8.3210   22.1440 C   0  0  0  0  0  3  0  0  0  0  0  0
  -22.4210   -8.0710   21.3590 C   0  0  0  0  0  0  0  0  0  0  0  0
  -22.0350   -9.0140   20.3930 C   0  0  0  0  0  3  0  0  0  0  0  0
  -22.7590  -10.2050   20.2200 C   0  0  0  0  0  3  0  0  0  0  0  0
  -21.6680   -6.9250   21.4410 O   0  0  0  0  0  0  0  0  0  0  0  0
  -21.5920   -6.2010   22.6030 C   0  0  0  0  0  0  0  0  0  0  0  0
  -21.1170   -6.7710   23.8060 C   0  0  0  0  0  3  0  0  0  0  0  0
  -20.9900   -5.9740   24.9600 C   0  0  0  0  0  3  0  0  0  0  0  0
  -21.3270   -4.6070   24.9140 C   0  0  0  0  0  0  0  0  0  0  0  0
  -21.7950   -4.0370   23.7160 C   0  0  0  0  0  3  0  0  0  0  0  0
  -21.9240   -4.8320   22.5640 C   0  0  0  0  0  0  0  0  0  0  0  0
  -22.3590   -4.2740   21.4070 F   0  0  0  0  0  0  0  0  0  0  0  0
  -21.1960   -3.8400   26.0220 F   0  0  0  0  0  0  0  0  0  0  0  0
  -22.7430  -13.5640   21.0730 C   0  0  0  0  0  0  0  0  0  0  0  0
  -21.9970  -12.8720   21.9300 N   0  0  0  0  0  0  0  0  0  0  0  0
  -22.3170  -14.5860   20.5360 O   0  0  0  0  0  0  0  0  0  0  0  0
  -22.3590  -12.0430   22.3770 H   0  0  0  0  0  0  0  0  0  0  0  0
  -21.0550  -13.1710   22.1500 H   0  0  0  0  0  0  0  0  0  0  0  0
  -25.3840  -15.2130   20.2670 N   0  0  0  0  0  0  0  0  0  0  0  0
  -24.6070  -15.8620   20.3360 H   0  0  0  0  0  0  0  0  0  0  0  0
  -26.2270  -15.6370   19.9040 H   0  0  0  0  0  0  0  0  0  0  0  0
  -28.8960  -23.1960   21.1390 C   0  0  0  0  0  2  0  0  0  0  0  0
  -27.9810  -24.2120   20.3260 C   0  0  0  0  0  2  0  0  0  0  0  0
  -28.5360  -25.3850   19.5970 N   0  0  0  0  0  0  0  0  0  0  0  0
  -27.9790  -25.5580   18.7640 H   0  0  0  0  0  0  0  0  0  0  0  0
  -28.3950  -26.6310   20.3910 O   0  0  0  0  0  0  0  0  0  0  0  0
  -24.5770  -31.9190   23.2520 C   0  0  0  0  0  0  0  0  0  0  0  0
  -27.2420  -27.4070   20.2190 C   0  0  0  0  0  0  0  0  0  0  0  0
  -23.3810  -30.5040   21.6120 C   0  0  0  0  0  3  0  0  0  0  0  0
  -24.8450  -28.9610   20.1870 C   0  0  0  0  0  0  0  0  0  0  0  0
  -25.9100  -30.8560   21.4270 C   0  0  0  0  0  2  0  0  0  0  0  0
  -26.0010  -29.4790   20.7830 C   0  0  0  0  0  0  0  0  0  0  0  0
  -27.1930  -28.7090   20.7930 C   0  0  0  0  0  3  0  0  0  0  0  0
  -26.0680  -26.9300   19.5900 C   0  0  0  0  0  3  0  0  0  0  0  0
  -24.8810  -27.6950   19.5780 C   0  0  0  0  0  3  0  0  0  0  0  0
  -23.5960  -29.8160   20.2370 C   0  0  0  0  0  2  0  0  0  0  0  0
  -24.6390  -31.1120   22.1530 N   0  0  0  0  0  0  0  0  0  0  0  0
  -23.4940  -32.1950   23.7860 O   0  0  0  0  0  0  0  0  0  0  0  0
  -22.7220  -29.4930   22.5790 C   0  0  0  0  0  0  0  0  0  0  0  0
  -21.3970  -29.3130   22.4510 N   0  0  0  0  0  0  0  0  0  0  0  0
  -23.4050  -28.8710   23.3990 O   0  0  0  0  0  0  0  0  0  0  0  0
  -20.9100  -29.8700   21.7610 H   0  0  0  0  0  0  0  0  0  0  0  0
  -18.0180  -28.1290   22.9490 C   0  0  0  0  0  0  0  0  0  0  0  0
  -20.5770  -28.3780   23.2190 C   0  0  0  0  0  3  0  0  0  0  0  0
  -20.6730  -26.9470   22.6390 C   0  0  0  0  0  2  0  0  0  0  0  0
  -19.5680  -26.6310   21.6270 C   0  0  0  0  0  2  0  0  0  0  0  0
  -18.1870  -26.7800   22.2720 C   0  0  0  0  0  2  0  0  0  0  0  0
  -19.1390  -28.8870   23.3800 C   0  0  0  0  0  0  0  0  0  0  0  0
  -18.9250  -30.1500   23.9710 C   0  0  0  0  0  3  0  0  0  0  0  0
  -17.6220  -30.6560   24.1390 C   0  0  0  0  0  3  0  0  0  0  0  0
  -16.5160  -29.8960   23.7270 C   0  0  0  0  0  3  0  0  0  0  0  0
  -16.7140  -28.6340   23.1380 C   0  0  0  0  0  3  0  0  0  0  0  0
  -25.8590  -32.5520   23.8770 C   0  0  0  0  0  3  0  0  0  0  0  0
  -25.5560  -33.9570   24.1880 N   0  0  0  0  0  0  0  0  0  0  0  0
  -25.9080  -34.9980   23.4240 C   0  0  0  0  0  0  0  0  0  0  0  0
  -26.5880  -34.8790   22.4010 O   0  0  0  0  0  0  0  0  0  0  0  0
  -24.9530  -34.1260   24.9800 H   0  0  0  0  0  0  0  0  0  0  0  0
  -24.1990  -36.8000   23.0270 C   0  0  0  0  0  1  0  0  0  0  0  0
  -25.4250  -36.3950   23.8600 C   0  0  0  0  0  3  0  0  0  0  0  0
  -27.5510  -37.2700   24.7200 C   0  0  0  0  0  1  0  0  0  0  0  0
  -26.4670  -37.4380   23.7540 N   0  0  0  0  0  0  0  0  0  0  0  0
  -26.0680  -38.3620   23.8840 H   0  0  0  0  0  0  0  0  0  0  0  0
  -26.3650  -31.7940   25.1650 C   0  0  1  0  0  0  0  0  0  0  0  0
  -25.2650  -31.5710   26.2290 C   0  0  0  0  0  1  0  0  0  0  0  0
  -26.9440  -30.4100   24.7900 C   0  0  0  0  0  1  0  0  0  0  0  0
  -27.5160  -32.5920   25.8260 C   0  0  0  0  0  1  0  0  0  0  0  0
  1 11  1  0
  1 57  1  0
  1  2  1  6
  3  1  1  0
  5  8  2  0
  6  4  2  0
  7  9  2  0
  7  5  1  0
  8  4  1  0
  8  3  1  0
  9  6  1  0
 10  9  1  0
 12 28  1  0
 13 18  1  0
 14 15  1  0
 14 13  1  0
 16 15  1  0
 16 32  1  0
 16 17  1  0
 18 12  1  0
 18 17  1  0
 19 12  2  0
 20 21  2  0
 20 22  1  0
 21 23  1  0
 22 25  2  0
 23 26  2  0
 23 24  1  0
 24 27  2  0
 25 24  1  0
 25 11  1  0
 26 28  1  0
 28 27  1  0
 29 30  2  0
 30 49  1  0
 31 30  1  0
 31 34  1  0
 32 29  1  0
 32 33  1  0
 33 31  2  0
 34 35  1  0
 35 36  2  0
 37 40  1  0
 37 36  1  0
 38 37  2  0
 39 38  1  0
 39 34  2  0
 40 41  1  0
 41 42  1  0
 42 43  2  0
 44 43  1  0
 44 48  1  0
 45 44  2  0
 46 41  2  0
 46 45  1  0
 47 46  1  0
 49 50  1  0
 50 53  1  0
 50 52  1  0
 51 49  2  0
 54 55  1  0
 54 29  1  0
 56 54  1  0
 58 57  1  0
 59 58  1  0
 59 61  1  0
 60 59  1  0
 62 73  2  0
 63 61  1  0
 63 68  1  0
 64 72  1  0
 64 74  1  0
 65 71  1  0
 65 67  1  0
 66 72  1  0
 67 68  2  0
 67 66  1  0
 69 63  2  0
 70 69  1  0
 70 65  2  0
 71 64  1  0
 72 62  1  0
 74 76  2  0
 75 74  1  0
 77 75  1  0
 78 87  2  0
 78 83  1  0
 79 75  1  0
 79 83  1  0
 80 79  1  0
 81 82  1  0
 81 80  1  0
 82 78  1  0
 83 84  2  0
 84 85  1  0
 86 85  2  0
 87 86  1  0
 88 62  1  0
 88 89  1  0
 88 98  1  0
 89 92  1  0
 90 94  1  0
 90 89  1  0
 91 90  2  0
 94 93  1  0
 96 94  1  0
 96 97  1  0
 96 95  1  0
 98101  1  1
 98 99  1  0
100 98  1  0
M  ISO  4  12 100  28 100  59 101  61 101
M  END
>  <TORSDO>  (49) 
F 22

>  <SCORE>  (49) 
-13.586

>  <name>  (49) 
49

>  <ligand_id>  (49) 
49

>  <original_smiles>  (49) 
[H]c1c([H])c([H])c2c(c1[H])C([H])([H])C([H])([H])C([H])([H])C2([H])N([H])C(=O)C1([H])N(C(=O)C([H])(N([H])C(=O)C([H])(N([H])C([H])([H])[H])C([H])([H])[H])C(C([H])([H])[H])(C([H])([H])[H])C([H])([H])[H])C([H])([H])c2c([H])c(ON([H])C([H])([H])C([H])([H])[N+]([H])(C([H])([H])c3c([H])c([H])c(Cl)c([H])c3[H])C([H])([H])c3c([H])c([H])c([H])c4c3C([H])([H])N(C(=O)N3C([H])([H])C([H])([H])C([H])([H])C([H])(n5nc(-c6c([H])c([H])c(Oc7c([H])c([H])c(F)c([H])c7F)c([H])c6[H])c(C(=O)N([H])[H])c5N([H])[H])C3([H])[H])C4([H])[H])c([H])c([H])c2C1([H])[H]

>  <smiles>  (49) 
[H]c1c([H])c([H])c2c(c1[H])C([H])([H])C([H])([H])C([H])([H])C2([H])N([H])C(=O)C1([H])N(C(=O)C([H])(N([H])C(=O)C([H])(N([H])C([H])([H])[H])C([H])([H])[H])C(C([H])([H])[H])(C([H])([H])[H])C([H])([H])[H])C([H])([H])c2c([H])c(ON([H])C([H])([H])C([H])([H])[N+]([H])(C([H])([H])c3c([H])c([H])c(Cl)c([H])c3[H])C([H])([H])c3c([H])c([H])c([H])c4c3C([H])([H])N(C(=O)N3C([H])([H])C([H])([H])C([H])([H])C([H])(n5nc(-c6c([H])c([H])c(Oc7c([H])c([H])c(F)c([H])c7F)c([H])c6[H])c(C(=O)N([H])[H])c5N([H])[H])C3([H])[H])C4([H])[H])c([H])c([H])c2C1([H])[H]

$$$$
50:0:0
     RDKit          3D

 94103  0  0  1  0  0  0  0  0999 V2000
  -29.6220  -19.6510   21.8370 C   0  0  0  0  0  3  0  0  0  0  0  0
  -29.0000  -20.6970   21.1300 C   0  0  0  0  0  3  0  0  0  0  0  0
  -29.5030  -19.5680   19.0330 C   0  0  0  0  0  3  0  0  0  0  0  0
  -30.2190  -18.5770   21.1470 C   0  0  0  0  0  0  0  0  0  0  0  0
  -30.1290  -18.4990   19.7400 C   0  0  0  0  0  0  0  0  0  0  0  0
  -28.9640  -20.6970   19.7150 C   0  0  0  0  0  0  0  0  0  0  0  0
  -31.0370  -17.5400   21.8980 C   0  0  0  0  0  2  0  0  0  0  0  0
  -32.3430  -17.1470   21.1610 C   0  0  0  0  0  2  0  0  0  0  0  0
  -32.3380  -17.4020   19.6330 C   0  0  0  0  0  2  0  0  0  0  0  0
  -30.9150  -17.3740   19.0350 C   0  0  0  0  0  3  0  0  0  0  0  0
  -31.0080  -14.8830   18.7480 C   0  0  0  0  0  0  0  0  0  0  0  0
  -30.7150  -12.4900   18.2080 C   0  0  0  0  0  2  0  0  0  0  0  0
  -29.5850  -12.3280   17.1730 C   0  0  0  0  0  2  0  0  0  0  0  0
  -28.2170  -12.2230   17.8740 C   0  0  0  0  0  2  0  0  0  0  0  0
  -28.0040  -13.3300   18.9420 C   0  0  0  0  0  3  0  0  0  0  0  0
  -29.2350  -13.4690   19.8650 C   0  0  0  0  0  2  0  0  0  0  0  0
  -30.4130  -13.6860   19.0130 N   0  0  0  0  0  0  0  0  0  0  0  0
  -32.0280  -14.9670   18.0590 O   0  0  0  0  0  0  0  0  0  0  0  0
  -30.3780  -16.0000   19.1780 N   0  0  0  0  0  0  0  0  0  0  0  0
  -29.5160  -15.8870   19.6880 H   0  0  0  0  0  0  0  0  0  0  0  0
  -25.9180  -14.0380   20.2680 C   0  0  0  0  0  0  0  0  0  0  0  0
  -24.8800  -13.3200   20.7970 C   0  0  0  0  0  0  0  0  0  0  0  0
  -25.1650  -11.9480   20.5130 C   0  0  0  0  0  0  0  0  0  0  0  0
  -26.7750  -13.1090   19.7010 N   0  0  0  0  0  0  0  0  0  0  0  0
  -26.3380  -11.8390   19.9020 N   0  0  0  0  0  0  0  0  0  0  0  0
  -24.3600  -10.7400   20.7360 C   0  0  0  0  0  0  0  0  0  0  0  0
  -24.7750   -9.7310   21.6340 C   0  0  0  0  0  3  0  0  0  0  0  0
  -23.9760   -8.5880   21.8460 C   0  0  0  0  0  3  0  0  0  0  0  0
  -22.7460   -8.4440   21.1620 C   0  0  0  0  0  0  0  0  0  0  0  0
  -22.3470   -9.4390   20.2520 C   0  0  0  0  0  3  0  0  0  0  0  0
  -23.1460  -10.5750   20.0380 C   0  0  0  0  0  3  0  0  0  0  0  0
  -21.9180   -7.3550   21.2850 O   0  0  0  0  0  0  0  0  0  0  0  0
  -21.6980   -6.7510   22.4970 C   0  0  0  0  0  0  0  0  0  0  0  0
  -21.1320   -7.4500   23.5850 C   0  0  0  0  0  3  0  0  0  0  0  0
  -20.8590   -6.7730   24.7910 C   0  0  0  0  0  3  0  0  0  0  0  0
  -21.1410   -5.3980   24.9060 C   0  0  0  0  0  0  0  0  0  0  0  0
  -21.6980   -4.7000   23.8220 C   0  0  0  0  0  3  0  0  0  0  0  0
  -21.9730   -5.3740   22.6190 C   0  0  0  0  0  0  0  0  0  0  0  0
  -22.4910   -4.6920   21.5690 F   0  0  0  0  0  0  0  0  0  0  0  0
  -20.8720   -4.7460   26.0620 F   0  0  0  0  0  0  0  0  0  0  0  0
  -23.6460  -13.8760   21.4470 C   0  0  0  0  0  0  0  0  0  0  0  0
  -23.0660  -13.1440   22.3930 N   0  0  0  0  0  0  0  0  0  0  0  0
  -23.2160  -14.9900   21.1520 O   0  0  0  0  0  0  0  0  0  0  0  0
  -23.4320  -12.2400   22.6520 H   0  0  0  0  0  0  0  0  0  0  0  0
  -22.2460  -13.4960   22.8650 H   0  0  0  0  0  0  0  0  0  0  0  0
  -26.1950  -15.4010   20.2030 N   0  0  0  0  0  0  0  0  0  0  0  0
  -25.5590  -16.1010   20.5690 H   0  0  0  0  0  0  0  0  0  0  0  0
  -26.9990  -15.8020   19.7370 H   0  0  0  0  0  0  0  0  0  0  0  0
  -28.4400  -21.8030   18.9960 N   0  0  0  0  0  0  0  0  0  0  0  0
  -28.5730  -21.8230   17.9880 H   0  0  0  0  0  0  0  0  0  0  0  0
  -28.2180  -23.0940   19.6810 C   0  0  0  0  0  2  0  0  0  0  0  0
  -28.0090  -24.3380   18.7600 C   0  0  0  0  0  2  0  0  0  0  0  0
  -27.8180  -25.6570   19.5750 C   0  0  0  0  0  2  0  0  0  0  0  0
  -27.7540  -26.8860   18.8080 O   0  0  0  0  0  0  0  0  0  0  0  0
  -24.5010  -31.6100   23.0690 C   0  0  0  0  0  0  0  0  0  0  0  0
  -26.6360  -27.6560   19.0580 C   0  0  0  0  0  0  0  0  0  0  0  0
  -23.0640  -30.4440   21.4300 C   0  0  0  0  0  3  0  0  0  0  0  0
  -24.2890  -29.1430   19.6080 C   0  0  0  0  0  0  0  0  0  0  0  0
  -25.5430  -30.8500   20.9320 C   0  0  0  0  0  2  0  0  0  0  0  0
  -25.5270  -29.5850   20.0960 C   0  0  0  0  0  0  0  0  0  0  0  0
  -26.7050  -28.8510   19.8140 C   0  0  0  0  0  3  0  0  0  0  0  0
  -25.3840  -27.2370   18.5610 C   0  0  0  0  0  3  0  0  0  0  0  0
  -24.2140  -27.9710   18.8350 C   0  0  0  0  0  3  0  0  0  0  0  0
  -23.0720  -29.9730   19.9510 C   0  0  0  0  0  2  0  0  0  0  0  0
  -24.3960  -30.9760   21.8680 N   0  0  0  0  0  0  0  0  0  0  0  0
  -23.5080  -31.7890   23.7880 O   0  0  0  0  0  0  0  0  0  0  0  0
  -22.5430  -29.2880   22.3160 C   0  0  0  0  0  0  0  0  0  0  0  0
  -21.2370  -28.9930   22.2090 N   0  0  0  0  0  0  0  0  0  0  0  0
  -23.3090  -28.6650   23.0550 O   0  0  0  0  0  0  0  0  0  0  0  0
  -20.6730  -29.5550   21.5870 H   0  0  0  0  0  0  0  0  0  0  0  0
  -18.0460  -27.3310   22.5560 C   0  0  0  0  0  0  0  0  0  0  0  0
  -20.5370  -27.9220   22.9180 C   0  0  0  0  0  3  0  0  0  0  0  0
  -20.8500  -26.5430   22.2920 C   0  0  0  0  0  2  0  0  0  0  0  0
  -19.8290  -26.1190   21.2310 C   0  0  0  0  0  2  0  0  0  0  0  0
  -18.4240  -26.0470   21.8350 C   0  0  0  0  0  2  0  0  0  0  0  0
  -19.0380  -28.2190   23.0500 C   0  0  0  0  0  0  0  0  0  0  0  0
  -18.6330  -29.4160   23.6800 C   0  0  0  0  0  3  0  0  0  0  0  0
  -17.2680  -29.7290   23.8230 C   0  0  0  0  0  3  0  0  0  0  0  0
  -16.2900  -28.8390   23.3450 C   0  0  0  0  0  3  0  0  0  0  0  0
  -16.6800  -27.6410   22.7190 C   0  0  0  0  0  3  0  0  0  0  0  0
  -25.8650  -32.1610   23.5880 C   0  0  0  0  0  3  0  0  0  0  0  0
  -26.5060  -31.2700   24.7210 C   0  0  1  0  0  0  0  0  0  0  0  0
  -25.5280  -30.9270   25.8700 C   0  0  0  0  0  1  0  0  0  0  0  0
  -27.0290  -29.9390   24.1360 C   0  0  0  0  0  1  0  0  0  0  0  0
  -27.7290  -31.9960   25.3300 C   0  0  0  0  0  1  0  0  0  0  0  0
  -25.6360  -33.5300   24.0700 N   0  0  0  0  0  0  0  0  0  0  0  0
  -25.9290  -34.6390   23.3780 C   0  0  0  0  0  0  0  0  0  0  0  0
  -26.4940  -34.6150   22.2810 O   0  0  0  0  0  0  0  0  0  0  0  0
  -25.1270  -33.6230   24.9370 H   0  0  0  0  0  0  0  0  0  0  0  0
  -24.2330  -36.4970   23.3570 C   0  0  0  0  0  1  0  0  0  0  0  0
  -25.5340  -35.9920   24.0030 C   0  0  0  0  0  3  0  0  0  0  0  0
  -27.7620  -36.7490   24.6990 C   0  0  0  0  0  1  0  0  0  0  0  0
  -26.5840  -37.0270   23.8820 N   0  0  0  0  0  0  0  0  0  0  0  0
  -26.2230  -37.9400   24.1450 H   0  0  0  0  0  0  0  0  0  0  0  0
  2  1  2  0
  3  6  2  0
  3  5  1  0
  4  1  1  0
  4  7  1  0
  5  4  2  0
  6  2  1  0
  8  7  1  0
  9  8  1  0
 10 19  1  0
 10  9  1  0
 10  5  1  0
 11 17  1  0
 11 19  1  0
 12 17  1  0
 13 14  1  0
 13 12  1  0
 15 14  1  0
 15 24  1  0
 15 16  1  0
 17 16  1  0
 18 11  2  0
 19 20  1  0
 21 22  2  0
 22 41  1  0
 23 26  1  0
 23 22  1  0
 24 25  1  0
 24 21  1  0
 25 23  2  0
 26 27  1  0
 27 28  2  0
 29 32  1  0
 29 28  1  0
 30 29  2  0
 31 30  1  0
 31 26  2  0
 32 33  1  0
 33 38  2  0
 33 34  1  0
 34 35  2  0
 35 36  1  0
 36 40  1  0
 37 36  2  0
 38 37  1  0
 39 38  1  0
 41 42  1  0
 42 44  1  0
 42 45  1  0
 43 41  2  0
 46 21  1  0
 46 47  1  0
 48 46  1  0
 49 51  1  0
 49  6  1  0
 50 49  1  0
 52 53  1  0
 52 51  1  0
 54 56  1  0
 54 53  1  0
 55 66  2  0
 56 61  1  0
 57 65  1  0
 57 67  1  0
 58 64  1  0
 58 60  1  0
 59 65  1  0
 60 59  1  0
 61 60  2  0
 62 63  1  0
 62 56  2  0
 63 58  2  0
 64 57  1  0
 65 55  1  0
 67 69  2  0
 68 67  1  0
 70 68  1  0
 71 80  2  0
 71 76  1  0
 72 68  1  0
 72 76  1  0
 73 72  1  0
 74 75  1  0
 74 73  1  0
 75 71  1  0
 76 77  2  0
 77 78  1  0
 79 78  2  0
 80 79  1  0
 81 55  1  0
 81 86  1  0
 81 82  1  0
 82 85  1  1
 82 83  1  0
 84 82  1  0
 86 89  1  0
 87 91  1  0
 87 86  1  0
 88 87  2  0
 91 90  1  0
 93 91  1  0
 93 94  1  0
 93 92  1  0
M  ISO  4  11 100  19 100  53 101  54 101
M  END
>  <TORSDO>  (50) 
F 20

>  <SCORE>  (50) 
-10.015

>  <name>  (50) 
50

>  <ligand_id>  (50) 
50

>  <original_smiles>  (50) 
[H]c1c([H])c([H])c2c(c1[H])C([H])([H])C([H])([H])C([H])([H])C2([H])N([H])C(=O)C1([H])N(C(=O)C([H])(N([H])C(=O)C([H])(N([H])C([H])([H])[H])C([H])([H])[H])C(C([H])([H])[H])(C([H])([H])[H])C([H])([H])[H])C([H])([H])c2c([H])c(OC([H])([H])C([H])([H])C([H])([H])N([H])c3c([H])c([H])c4c(c3[H])C([H])(N([H])C(=O)N3C([H])([H])C([H])([H])C([H])([H])C([H])(n5nc(-c6c([H])c([H])c(Oc7c([H])c([H])c(F)c([H])c7F)c([H])c6[H])c(C(=O)N([H])[H])c5N([H])[H])C3([H])[H])C([H])([H])C([H])([H])C4([H])[H])c([H])c([H])c2C1([H])[H]

>  <smiles>  (50) 
[H]c1c([H])c([H])c2c(c1[H])C([H])([H])C([H])([H])C([H])([H])C2([H])N([H])C(=O)C1([H])N(C(=O)C([H])(N([H])C(=O)C([H])(N([H])C([H])([H])[H])C([H])([H])[H])C(C([H])([H])[H])(C([H])([H])[H])C([H])([H])[H])C([H])([H])c2c([H])c(OC([H])([H])C([H])([H])C([H])([H])N([H])c3c([H])c([H])c4c(c3[H])C([H])(N([H])C(=O)N3C([H])([H])C([H])([H])C([H])([H])C([H])(n5nc(-c6c([H])c([H])c(Oc7c([H])c([H])c(F)c([H])c7F)c([H])c6[H])c(C(=O)N([H])[H])c5N([H])[H])C3([H])[H])C([H])([H])C([H])([H])C4([H])[H])c([H])c([H])c2C1([H])[H]

$$$$
51:0:0
     RDKit          3D

110120  0  0  1  0  0  0  0  0999 V2000
  -28.9810  -25.9480   14.0930 C   0  0  0  0  0  3  0  0  0  0  0  0
  -30.0800  -26.0690   14.9620 C   0  0  0  0  0  3  0  0  0  0  0  0
  -27.7650  -25.4190   14.5610 C   0  0  0  0  0  3  0  0  0  0  0  0
  -29.9840  -25.6560   16.3100 C   0  0  0  0  0  0  0  0  0  0  0  0
  -28.7570  -25.1020   16.7750 C   0  0  0  0  0  0  0  0  0  0  0  0
  -27.6430  -24.9970   15.9050 C   0  0  0  0  0  0  0  0  0  0  0  0
  -28.5580  -24.6500   18.2190 C   0  0  0  0  0  2  0  0  0  0  0  0
  -27.8950  -21.3340   19.9690 C   0  0  0  0  0  2  0  0  0  0  0  0
  -29.6390  -20.9830   18.2430 C   0  0  0  0  0  2  0  0  0  0  0  0
  -27.9900  -22.8490   19.7520 C   0  0  0  0  0  2  0  0  0  0  0  0
  -29.7360  -22.4980   18.0210 C   0  0  0  0  0  2  0  0  0  0  0  0
  -29.1540  -20.6970   19.5940 N   0  0  0  0  0  0  0  0  0  0  0  0
  -28.4710  -23.1890   18.3860 N   0  0  2  0  0  4  0  0  0  0  0  0
  -27.7580  -22.8700   17.7440 H   0  0  0  0  0  0  0  0  0  0  0  0
  -30.7640  -19.0350   20.3230 C   0  0  0  0  0  3  0  0  0  0  0  0
  -31.0780  -17.7380   20.7700 C   0  0  0  0  0  3  0  0  0  0  0  0
  -28.3900  -18.4900   20.3620 C   0  0  0  0  0  3  0  0  0  0  0  0
  -29.4240  -19.4130   20.0880 C   0  0  0  0  0  0  0  0  0  0  0  0
  -30.0380  -16.8110   20.9910 C   0  0  0  0  0  0  0  0  0  0  0  0
  -28.7020  -17.2060   20.8350 C   0  0  0  0  0  0  0  0  0  0  0  0
  -27.7190  -16.3240   21.1140 F   0  0  0  0  0  0  0  0  0  0  0  0
  -30.8320  -14.6240   20.4550 C   0  0  0  0  0  0  0  0  0  0  0  0
  -30.4940  -12.5580   19.1620 C   0  0  0  0  0  2  0  0  0  0  0  0
  -29.5240  -12.8310   17.9970 C   0  0  0  0  0  2  0  0  0  0  0  0
  -28.0570  -12.6730   18.4470 C   0  0  0  0  0  2  0  0  0  0  0  0
  -27.7480  -13.4450   19.7590 C   0  0  0  0  0  3  0  0  0  0  0  0
  -28.8230  -13.1430   20.8290 C   0  0  0  0  0  2  0  0  0  0  0  0
  -30.1490  -13.4660   20.2660 N   0  0  0  0  0  0  0  0  0  0  0  0
  -31.8760  -14.9070   19.8570 O   0  0  0  0  0  0  0  0  0  0  0  0
  -30.2710  -15.4630   21.3280 N   0  0  0  0  0  0  0  0  0  0  0  0
  -29.4930  -15.0350   21.8120 H   0  0  0  0  0  0  0  0  0  0  0  0
  -25.3330  -14.0020   20.4820 C   0  0  0  0  0  0  0  0  0  0  0  0
  -24.2850  -13.2060   20.8560 C   0  0  0  0  0  0  0  0  0  0  0  0
  -24.7730  -11.8670   20.8050 C   0  0  0  0  0  0  0  0  0  0  0  0
  -26.4000  -13.1460   20.2450 N   0  0  0  0  0  0  0  0  0  0  0  0
  -26.0610  -11.8530   20.4860 N   0  0  0  0  0  0  0  0  0  0  0  0
  -24.0710  -10.5910   20.9860 C   0  0  0  0  0  0  0  0  0  0  0  0
  -24.4970   -9.6440   21.9430 C   0  0  0  0  0  3  0  0  0  0  0  0
  -23.7950   -8.4310   22.1090 C   0  0  0  0  0  3  0  0  0  0  0  0
  -22.6520   -8.1600   21.3220 C   0  0  0  0  0  0  0  0  0  0  0  0
  -22.2430   -9.0970   20.3570 C   0  0  0  0  0  3  0  0  0  0  0  0
  -22.9470  -10.3010   20.1870 C   0  0  0  0  0  3  0  0  0  0  0  0
  -21.9190   -7.0020   21.3990 O   0  0  0  0  0  0  0  0  0  0  0  0
  -21.8090   -6.2970   22.5700 C   0  0  0  0  0  0  0  0  0  0  0  0
  -21.2580   -6.8700   23.7360 C   0  0  0  0  0  3  0  0  0  0  0  0
  -21.1000   -6.0890   24.8980 C   0  0  0  0  0  3  0  0  0  0  0  0
  -21.4800   -4.7340   24.8940 C   0  0  0  0  0  0  0  0  0  0  0  0
  -22.0240   -4.1600   23.7320 C   0  0  0  0  0  3  0  0  0  0  0  0
  -22.1850   -4.9390   22.5730 C   0  0  0  0  0  0  0  0  0  0  0  0
  -22.6890   -4.3740   21.4490 F   0  0  0  0  0  0  0  0  0  0  0  0
  -21.3220   -3.9810   26.0070 F   0  0  0  0  0  0  0  0  0  0  0  0
  -22.8860  -13.6570   21.1610 C   0  0  0  0  0  0  0  0  0  0  0  0
  -22.1900  -12.9400   22.0360 N   0  0  0  0  0  0  0  0  0  0  0  0
  -22.4200  -14.6800   20.6620 O   0  0  0  0  0  0  0  0  0  0  0  0
  -22.5830  -12.1110   22.4600 H   0  0  0  0  0  0  0  0  0  0  0  0
  -21.2490  -13.2170   22.2810 H   0  0  0  0  0  0  0  0  0  0  0  0
  -25.4470  -15.3740   20.3130 N   0  0  0  0  0  0  0  0  0  0  0  0
  -24.6860  -15.9800   20.5960 H   0  0  0  0  0  0  0  0  0  0  0  0
  -26.3570  -15.8210   20.4000 H   0  0  0  0  0  0  0  0  0  0  0  0
  -31.2070  -25.8460   17.2130 C   0  0  0  0  0  2  0  0  0  0  0  0
  -31.0820  -27.0800   18.0190 N   0  0  0  0  0  4  0  0  0  0  0  0
  -30.2270  -27.5380   17.7500 H   0  0  0  0  0  0  0  0  0  0  0  0
  -31.8340  -27.6970   17.7410 H   0  0  0  0  0  0  0  0  0  0  0  0
  -31.1140  -26.9200   19.5000 C   0  0  0  0  0  2  0  0  0  0  0  0
  -29.9180  -27.6190   20.1750 C   0  0  0  0  0  2  0  0  0  0  0  0
  -28.7160  -26.8390   20.0390 O   0  0  0  0  0  0  0  0  0  0  0  0
  -24.7200  -31.8780   23.1500 C   0  0  0  0  0  0  0  0  0  0  0  0
  -27.5140  -27.5140   20.1370 C   0  0  0  0  0  0  0  0  0  0  0  0
  -23.5470  -30.4290   21.5160 C   0  0  0  0  0  3  0  0  0  0  0  0
  -25.0430  -28.8960   20.1350 C   0  0  0  0  0  0  0  0  0  0  0  0
  -26.0550  -30.8530   21.3250 C   0  0  0  0  0  2  0  0  0  0  0  0
  -26.1730  -29.4740   20.7180 C   0  0  0  0  0  0  0  0  0  0  0  0
  -27.3980  -28.7890   20.7360 C   0  0  0  0  0  3  0  0  0  0  0  0
  -26.3520  -26.9220   19.5910 C   0  0  0  0  0  3  0  0  0  0  0  0
  -25.1210  -27.6060   19.5800 C   0  0  0  0  0  3  0  0  0  0  0  0
  -23.7820  -29.7230   20.1500 C   0  0  0  0  0  2  0  0  0  0  0  0
  -24.7890  -31.0700   22.0550 N   0  0  0  0  0  0  0  0  0  0  0  0
  -23.6340  -32.1360   23.6840 O   0  0  0  0  0  0  0  0  0  0  0  0
  -22.9120  -29.4130   22.4900 C   0  0  0  0  0  0  0  0  0  0  0  0
  -21.5850  -29.2390   22.3820 N   0  0  0  0  0  0  0  0  0  0  0  0
  -23.6080  -28.7860   23.2920 O   0  0  0  0  0  0  0  0  0  0  0  0
  -21.0900  -29.8110   21.7120 H   0  0  0  0  0  0  0  0  0  0  0  0
  -18.2040  -28.0980   22.9510 C   0  0  0  0  0  0  0  0  0  0  0  0
  -20.7720  -28.3020   23.1570 C   0  0  0  0  0  3  0  0  0  0  0  0
  -20.8300  -26.8790   22.5580 C   0  0  0  0  0  2  0  0  0  0  0  0
  -19.6960  -26.5900   21.5710 C   0  0  0  0  0  2  0  0  0  0  0  0
  -18.3360  -26.7540   22.2560 C   0  0  0  0  0  2  0  0  0  0  0  0
  -19.3500  -28.8320   23.3610 C   0  0  0  0  0  0  0  0  0  0  0  0
  -19.1740  -30.0920   23.9750 C   0  0  0  0  0  3  0  0  0  0  0  0
  -17.8850  -30.6180   24.1790 C   0  0  0  0  0  3  0  0  0  0  0  0
  -16.7550  -29.8810   23.7860 C   0  0  0  0  0  3  0  0  0  0  0  0
  -16.9140  -28.6210   23.1780 C   0  0  0  0  0  3  0  0  0  0  0  0
  -25.9980  -32.5350   23.7700 C   0  0  0  0  0  3  0  0  0  0  0  0
  -26.5670  -31.7430   25.0100 C   0  0  1  0  0  0  0  0  0  0  0  0
  -25.5010  -31.4260   26.0860 C   0  0  0  0  0  1  0  0  0  0  0  0
  -27.1990  -30.4050   24.5610 C   0  0  0  0  0  1  0  0  0  0  0  0
  -27.6950  -32.5620   25.6780 C   0  0  0  0  0  1  0  0  0  0  0  0
  -25.6460  -33.9080   24.1480 N   0  0  0  0  0  0  0  0  0  0  0  0
  -25.9060  -34.9910   23.4040 C   0  0  0  0  0  0  0  0  0  0  0  0
  -26.5410  -34.9400   22.3460 O   0  0  0  0  0  0  0  0  0  0  0  0
  -25.0680  -34.0150   24.9680 H   0  0  0  0  0  0  0  0  0  0  0  0
  -24.0880  -36.7160   23.1580 C   0  0  0  0  0  1  0  0  0  0  0  0
  -25.3750  -36.3450   23.9110 C   0  0  0  0  0  3  0  0  0  0  0  0
  -27.4990  -37.3100   24.6800 C   0  0  0  0  0  1  0  0  0  0  0  0
  -26.3550  -37.4460   23.7820 N   0  0  0  0  0  0  0  0  0  0  0  0
  -25.9150  -38.3440   23.9620 H   0  0  0  0  0  0  0  0  0  0  0  0
  -26.4870  -24.4620   16.4340 O   0  0  0  0  0  0  0  0  0  0  0  0
  -25.2470  -24.7590   15.8040 C   0  0  0  0  0  2  0  0  0  0  0  0
  -23.9900  -24.8320   18.0360 C   0  0  0  0  0  1  0  0  0  0  0  0
  -24.1250  -24.1590   16.6640 C   0  0  0  0  0  2  0  0  0  0  0  0
  1  3  2  0
  1  2  1  0
  2  4  2  0
  3  6  1  0
  4  5  1  0
  4 60  1  0
  5  7  1  0
  6107  1  0
  6  5  2  0
  7 13  1  0
  9 12  1  0
 10  8  1  0
 11  9  1  0
 11 13  1  0
 12  8  1  0
 12 18  1  0
 13 10  1  0
 13 14  1  6
 15 16  1  0
 16 19  2  0
 17 20  2  0
 18 15  2  0
 18 17  1  0
 19 30  1  0
 20 19  1  0
 20 21  1  0
 22 30  1  0
 23 28  1  0
 24 25  1  0
 24 23  1  0
 26 25  1  0
 26 35  1  0
 26 27  1  0
 28 22  1  0
 28 27  1  0
 29 22  2  0
 30 31  1  0
 32 33  2  0
 33 52  1  0
 34 33  1  0
 34 37  1  0
 35 32  1  0
 35 36  1  0
 36 34  2  0
 37 38  1  0
 38 39  2  0
 40 43  1  0
 40 39  1  0
 41 40  2  0
 42 41  1  0
 42 37  2  0
 43 44  1  0
 44 49  2  0
 44 45  1  0
 45 46  2  0
 47 46  1  0
 47 51  1  0
 48 47  2  0
 49 48  1  0
 50 49  1  0
 52 53  1  0
 53 56  1  0
 53 55  1  0
 54 52  2  0
 57 59  1  0
 57 32  1  0
 57 58  1  0
 60 61  1  0
 61 64  1  0
 62 61  1  0
 63 61  1  0
 64 65  1  0
 66 68  1  0
 66 65  1  0
 67 78  2  0
 68 73  1  0
 69 77  1  0
 69 79  1  0
 70 76  1  0
 70 72  1  0
 71 77  1  0
 72 73  2  0
 72 71  1  0
 74 68  2  0
 75 74  1  0
 75 70  2  0
 76 69  1  0
 77 67  1  0
 79 81  2  0
 80 79  1  0
 82 80  1  0
 83 92  2  0
 83 88  1  0
 84 80  1  0
 84 88  1  0
 85 84  1  0
 86 87  1  0
 86 85  1  0
 87 83  1  0
 88 89  2  0
 89 90  1  0
 91 90  2  0
 92 91  1  0
 93 67  1  0
 93 98  1  0
 93 94  1  0
 94 97  1  1
 94 95  1  0
 96 94  1  0
 98101  1  0
 99103  1  0
 99 98  1  0
100 99  2  0
103102  1  0
105103  1  0
105106  1  0
105104  1  0
108107  1  0
108110  1  0
110109  1  0
M  ISO  4  22 100  30 100  65 101  66 101
M  END
>  <TORSDO>  (51) 
F 26

>  <SCORE>  (51) 
-11.976

>  <name>  (51) 
51

>  <ligand_id>  (51) 
51

>  <original_smiles>  (51) 
[H]c1c([H])c([H])c2c(c1[H])C([H])([H])C([H])([H])C([H])([H])C2([H])N([H])C(=O)C1([H])N(C(=O)C([H])(N([H])C(=O)C([H])(N([H])C([H])([H])[H])C([H])([H])[H])C(C([H])([H])[H])(C([H])([H])[H])C([H])([H])[H])C([H])([H])c2c([H])c(OC([H])([H])C([H])([H])[N+]([H])([H])C([H])([H])c3c([H])c([H])c([H])c(OC([H])([H])C([H])([H])C([H])([H])[H])c3C([H])([H])[N+]3([H])C([H])([H])C([H])([H])N(c4c([H])c([H])c(N([H])C(=O)N5C([H])([H])C([H])([H])C([H])([H])C([H])(n6nc(-c7c([H])c([H])c(Oc8c([H])c([H])c(F)c([H])c8F)c([H])c7[H])c(C(=O)N([H])[H])c6N([H])[H])C5([H])[H])c(F)c4[H])C([H])([H])C3([H])[H])c([H])c([H])c2C1([H])[H]

>  <smiles>  (51) 
[H]c1c([H])c([H])c2c(c1[H])C([H])([H])C([H])([H])C([H])([H])C2([H])N([H])C(=O)C1([H])N(C(=O)C([H])(N([H])C(=O)C([H])(N([H])C([H])([H])[H])C([H])([H])[H])C(C([H])([H])[H])(C([H])([H])[H])C([H])([H])[H])C([H])([H])c2c([H])c(OC([H])([H])C([H])([H])[N+]([H])([H])C([H])([H])c3c([H])c([H])c([H])c(OC([H])([H])C([H])([H])C([H])([H])[H])c3C([H])([H])[N+]3([H])C([H])([H])C([H])([H])N(c4c([H])c([H])c(N([H])C(=O)N5C([H])([H])C([H])([H])C([H])([H])C([H])(n6nc(-c7c([H])c([H])c(Oc8c([H])c([H])c(F)c([H])c8F)c([H])c7[H])c(C(=O)N([H])[H])c6N([H])[H])C5([H])[H])c(F)c4[H])C([H])([H])C3([H])[H])c([H])c([H])c2C1([H])[H]

$$$$
52:0:0
     RDKit          3D

 93101  0  0  1  0  0  0  0  0999 V2000
  -29.6610  -18.9050   19.9230 C   0  0  0  0  0  0  0  0  0  0  0  0
  -29.5070  -20.2340   20.2450 N   0  0  0  0  0  0  0  0  0  0  0  0
  -29.4570  -18.4730   18.7830 O   0  0  0  0  0  0  0  0  0  0  0  0
  -29.7450  -20.4960   21.1930 H   0  0  0  0  0  0  0  0  0  0  0  0
  -30.2160  -17.6200   23.5030 C   0  0  0  0  0  3  0  0  0  0  0  0
  -31.0650  -16.5210   23.3390 C   0  0  0  0  0  3  0  0  0  0  0  0
  -29.7770  -18.3250   22.3690 C   0  0  0  0  0  3  0  0  0  0  0  0
  -31.4070  -16.0910   22.0490 C   0  0  0  0  0  3  0  0  0  0  0  0
  -30.1410  -17.9570   21.0420 C   0  0  0  0  0  0  0  0  0  0  0  0
  -30.9030  -16.7180   20.8800 C   0  0  0  0  0  0  0  0  0  0  0  0
  -31.7680  -14.8490   19.3280 C   0  0  0  0  0  0  0  0  0  0  0  0
  -31.1820  -12.6740   18.2870 C   0  0  0  0  0  2  0  0  0  0  0  0
  -30.0560  -12.8800   17.2470 C   0  0  0  0  0  2  0  0  0  0  0  0
  -28.6740  -12.8020   17.9220 C   0  0  0  0  0  2  0  0  0  0  0  0
  -28.5920  -13.6750   19.2000 C   0  0  0  0  0  3  0  0  0  0  0  0
  -29.8020  -13.4360   20.1150 C   0  0  0  0  0  2  0  0  0  0  0  0
  -31.0170  -13.7030   19.3370 N   0  0  0  0  0  0  0  0  0  0  0  0
  -32.8610  -14.8830   18.7560 O   0  0  0  0  0  0  0  0  0  0  0  0
  -31.1560  -16.0470   19.6140 N   0  0  0  0  0  0  0  0  0  0  0  0
  -31.3080  -16.7130   18.8700 H   0  0  0  0  0  0  0  0  0  0  0  0
  -26.5270  -14.4240   20.5260 C   0  0  0  0  0  0  0  0  0  0  0  0
  -25.4390  -13.7360   20.9890 C   0  0  0  0  0  0  0  0  0  0  0  0
  -25.6590  -12.3690   20.6400 C   0  0  0  0  0  0  0  0  0  0  0  0
  -27.3390  -13.4810   19.9200 N   0  0  0  0  0  0  0  0  0  0  0  0
  -26.8370  -12.2270   20.0500 N   0  0  0  0  0  0  0  0  0  0  0  0
  -24.7870  -11.1950   20.7770 C   0  0  0  0  0  0  0  0  0  0  0  0
  -25.1790  -10.0720   21.5400 C   0  0  0  0  0  3  0  0  0  0  0  0
  -24.3170   -8.9610   21.6700 C   0  0  0  0  0  3  0  0  0  0  0  0
  -23.0510   -8.9660   21.0400 C   0  0  0  0  0  0  0  0  0  0  0  0
  -22.6780  -10.0770   20.2620 C   0  0  0  0  0  3  0  0  0  0  0  0
  -23.5370  -11.1810   20.1280 C   0  0  0  0  0  3  0  0  0  0  0  0
  -22.1610   -7.9210   21.0900 O   0  0  0  0  0  0  0  0  0  0  0  0
  -22.0260   -7.1440   22.2130 C   0  0  0  0  0  0  0  0  0  0  0  0
  -21.6970   -7.6990   23.4690 C   0  0  0  0  0  3  0  0  0  0  0  0
  -21.4990   -6.8560   24.5800 C   0  0  0  0  0  3  0  0  0  0  0  0
  -21.6220   -5.4610   24.4380 C   0  0  0  0  0  0  0  0  0  0  0  0
  -21.9440   -4.9070   23.1860 C   0  0  0  0  0  3  0  0  0  0  0  0
  -22.1420   -5.7460   22.0760 C   0  0  0  0  0  0  0  0  0  0  0  0
  -22.4320   -5.2060   20.8670 F   0  0  0  0  0  0  0  0  0  0  0  0
  -21.4240   -4.6500   25.5030 F   0  0  0  0  0  0  0  0  0  0  0  0
  -24.2190  -14.3220   21.6380 C   0  0  0  0  0  0  0  0  0  0  0  0
  -23.6090  -13.5870   22.5610 N   0  0  0  0  0  0  0  0  0  0  0  0
  -23.8230  -15.4530   21.3570 O   0  0  0  0  0  0  0  0  0  0  0  0
  -23.9470  -12.6650   22.7950 H   0  0  0  0  0  0  0  0  0  0  0  0
  -22.7930  -13.9440   23.0410 H   0  0  0  0  0  0  0  0  0  0  0  0
  -26.8860  -15.7690   20.5440 N   0  0  0  0  0  0  0  0  0  0  0  0
  -26.3050  -16.4900   20.9550 H   0  0  0  0  0  0  0  0  0  0  0  0
  -27.7470  -16.1270   20.1470 H   0  0  0  0  0  0  0  0  0  0  0  0
  -29.0510  -22.5090   19.9260 C   0  0  0  0  0  3  0  0  0  0  0  0
  -29.0480  -21.2920   19.4450 N   0  0  0  0  0  0  0  0  0  0  0  0
  -28.6460  -23.7990   19.1500 C   0  0  0  0  0  2  0  0  0  0  0  0
  -28.0480  -24.9840   20.0210 C   0  0  0  0  0  2  0  0  0  0  0  0
  -28.2260  -26.3800   19.5640 O   0  0  0  0  0  0  0  0  0  0  0  0
  -24.5970  -31.5890   22.9570 C   0  0  0  0  0  0  0  0  0  0  0  0
  -27.1070  -27.2130   19.6160 C   0  0  0  0  0  0  0  0  0  0  0  0
  -23.3310  -30.2640   21.2950 C   0  0  0  0  0  3  0  0  0  0  0  0
  -24.7350  -28.7880   19.7500 C   0  0  0  0  0  0  0  0  0  0  0  0
  -25.8560  -30.6170   21.0240 C   0  0  0  0  0  2  0  0  0  0  0  0
  -25.9200  -29.2670   20.3250 C   0  0  0  0  0  0  0  0  0  0  0  0
  -27.1110  -28.4920   20.2490 C   0  0  0  0  0  3  0  0  0  0  0  0
  -25.9050  -26.7850   19.0130 C   0  0  0  0  0  3  0  0  0  0  0  0
  -24.7290  -27.5540   19.0820 C   0  0  0  0  0  3  0  0  0  0  0  0
  -23.4910  -29.6460   19.8800 C   0  0  0  0  0  2  0  0  0  0  0  0
  -24.6140  -30.8400   21.8160 N   0  0  0  0  0  0  0  0  0  0  0  0
  -23.5350  -31.8360   23.5480 O   0  0  0  0  0  0  0  0  0  0  0  0
  -22.7100  -29.2040   22.2350 C   0  0  0  0  0  0  0  0  0  0  0  0
  -21.3830  -29.0210   22.1440 N   0  0  0  0  0  0  0  0  0  0  0  0
  -23.4230  -28.5530   23.0060 O   0  0  0  0  0  0  0  0  0  0  0  0
  -20.8680  -29.5950   21.4890 H   0  0  0  0  0  0  0  0  0  0  0  0
  -18.0410  -27.7460   22.6710 C   0  0  0  0  0  0  0  0  0  0  0  0
  -20.5990  -28.0440   22.8990 C   0  0  0  0  0  3  0  0  0  0  0  0
  -20.7150  -26.6360   22.2740 C   0  0  0  0  0  2  0  0  0  0  0  0
  -19.5990  -26.3260   21.2710 C   0  0  0  0  0  2  0  0  0  0  0  0
  -18.2250  -26.4250   21.9420 C   0  0  0  0  0  2  0  0  0  0  0  0
  -19.1540  -28.5140   23.1050 C   0  0  0  0  0  0  0  0  0  0  0  0
  -18.9260  -29.7530   23.7450 C   0  0  0  0  0  3  0  0  0  0  0  0
  -17.6170  -30.2270   23.9490 C   0  0  0  0  0  3  0  0  0  0  0  0
  -16.5190  -29.4560   23.5260 C   0  0  0  0  0  3  0  0  0  0  0  0
  -16.7300  -28.2170   22.8960 C   0  0  0  0  0  3  0  0  0  0  0  0
  -25.9030  -32.1930   23.5600 C   0  0  0  0  0  3  0  0  0  0  0  0
  -26.5010  -31.3300   24.7380 C   0  0  1  0  0  0  0  0  0  0  0  0
  -25.4720  -30.9840   25.8370 C   0  0  0  0  0  1  0  0  0  0  0  0
  -27.0840  -30.0000   24.2000 C   0  0  0  0  0  1  0  0  0  0  0  0
  -27.6710  -32.0910   25.4040 C   0  0  0  0  0  1  0  0  0  0  0  0
  -25.5900  -33.5530   24.0210 N   0  0  0  0  0  0  0  0  0  0  0  0
  -25.8780  -34.6720   23.3390 C   0  0  0  0  0  0  0  0  0  0  0  0
  -26.5050  -34.6660   22.2760 O   0  0  0  0  0  0  0  0  0  0  0  0
  -25.0280  -33.6340   24.8550 H   0  0  0  0  0  0  0  0  0  0  0  0
  -24.1090  -36.4580   23.2160 C   0  0  0  0  0  1  0  0  0  0  0  0
  -25.3920  -36.0090   23.9320 C   0  0  0  0  0  3  0  0  0  0  0  0
  -27.5500  -36.8660   24.7310 C   0  0  0  0  0  1  0  0  0  0  0  0
  -26.4030  -37.0850   23.8550 N   0  0  0  0  0  0  0  0  0  0  0  0
  -25.9890  -37.9840   24.0880 H   0  0  0  0  0  0  0  0  0  0  0  0
  1  2  1  0
  1  9  1  0
  2  4  1  0
  3  1  2  0
  6  5  1  0
  7  5  2  0
  8  6  2  0
  9  7  1  0
 10  9  2  0
 10  8  1  0
 11 17  1  0
 11 19  1  0
 12 17  1  0
 13 14  1  0
 13 12  1  0
 15 14  1  0
 15 24  1  0
 15 16  1  0
 17 16  1  0
 18 11  2  0
 19 10  1  0
 20 19  1  0
 21 46  1  0
 21 22  2  0
 22 41  1  0
 23 26  1  0
 23 22  1  0
 24 25  1  0
 24 21  1  0
 25 23  2  0
 26 27  1  0
 27 28  2  0
 29 32  1  0
 29 28  1  0
 30 29  2  0
 31 30  1  0
 31 26  2  0
 32 33  1  0
 33 34  1  0
 34 35  2  0
 36 35  1  0
 36 40  1  0
 37 36  2  0
 38 33  2  0
 38 37  1  0
 39 38  1  0
 41 42  1  0
 42 44  1  0
 42 45  1  0
 43 41  2  0
 46 47  1  0
 48 46  1  0
 50 49  2  0
 50  2  1  0
 51 49  1  0
 51 52  1  0
 53 55  1  0
 53 52  1  0
 54 65  2  0
 55 60  1  0
 56 64  1  0
 56 66  1  0
 57 63  1  0
 57 59  1  0
 58 64  1  0
 59 58  1  0
 60 59  2  0
 61 62  1  0
 61 55  2  0
 62 57  2  0
 63 56  1  0
 64 54  1  0
 66 68  2  0
 67 66  1  0
 69 67  1  0
 70 79  2  0
 70 75  1  0
 71 67  1  0
 71 75  1  0
 72 71  1  0
 73 74  1  0
 73 72  1  0
 74 70  1  0
 75 76  2  0
 76 77  1  0
 78 77  2  0
 79 78  1  0
 80 54  1  0
 80 85  1  0
 80 81  1  0
 81 84  1  1
 81 82  1  0
 83 81  1  0
 85 88  1  0
 86 90  1  0
 86 85  1  0
 87 86  2  0
 90 89  1  0
 92 90  1  0
 92 93  1  0
 92 91  1  0
M  ISO  4  11 100  19 100  52 101  53 101
M  END
>  <TORSDO>  (52) 
F 20

>  <SCORE>  (52) 
-7.027

>  <name>  (52) 
52

>  <ligand_id>  (52) 
52

>  <original_smiles>  (52) 
[H]C(=NN([H])C(=O)c1c([H])c([H])c([H])c([H])c1N([H])C(=O)N1C([H])([H])C([H])([H])C([H])([H])C([H])(n2nc(-c3c([H])c([H])c(Oc4c([H])c([H])c(F)c([H])c4F)c([H])c3[H])c(C(=O)N([H])[H])c2N([H])[H])C1([H])[H])C([H])([H])C([H])([H])Oc1c([H])c([H])c2c(c1[H])C([H])([H])N(C(=O)C([H])(N([H])C(=O)C([H])(N([H])C([H])([H])[H])C([H])([H])[H])C(C([H])([H])[H])(C([H])([H])[H])C([H])([H])[H])C([H])(C(=O)N([H])C1([H])c3c([H])c([H])c([H])c([H])c3C([H])([H])C([H])([H])C1([H])[H])C2([H])[H]

>  <smiles>  (52) 
[H]C(=NN([H])C(=O)c1c([H])c([H])c([H])c([H])c1N([H])C(=O)N1C([H])([H])C([H])([H])C([H])([H])C([H])(n2nc(-c3c([H])c([H])c(Oc4c([H])c([H])c(F)c([H])c4F)c([H])c3[H])c(C(=O)N([H])[H])c2N([H])[H])C1([H])[H])C([H])([H])C([H])([H])Oc1c([H])c([H])c2c(c1[H])C([H])([H])N(C(=O)C([H])(N([H])C(=O)C([H])(N([H])C([H])([H])[H])C([H])([H])[H])C(C([H])([H])[H])(C([H])([H])[H])C([H])([H])[H])C([H])(C(=O)N([H])C1([H])c3c([H])c([H])c([H])c([H])c3C([H])([H])C([H])([H])C1([H])[H])C2([H])[H]

$$$$
53:0:0
     RDKit          3D

 90 98  0  0  1  0  0  0  0  0999 V2000
  -31.0930  -17.9190   20.5650 C   0  0  0  0  0  3  0  0  0  0  0  0
  -31.0950  -19.3450   20.5020 C   0  0  0  0  0  3  0  0  0  0  0  0
  -28.7000  -19.3790   20.3330 C   0  0  0  0  0  3  0  0  0  0  0  0
  -29.8810  -17.1820   20.5250 C   0  0  0  0  0  0  0  0  0  0  0  0
  -29.9090  -20.1220   20.3880 C   0  0  0  0  0  0  0  0  0  0  0  0
  -28.6910  -17.9520   20.4070 C   0  0  0  0  0  0  0  0  0  0  0  0
  -27.5060  -17.2970   20.3610 F   0  0  0  0  0  0  0  0  0  0  0  0
  -30.5680  -14.6790   20.3110 C   0  0  0  0  0  0  0  0  0  0  0  0
  -30.3460  -12.4480   19.2340 C   0  0  0  0  0  2  0  0  0  0  0  0
  -29.3930  -12.5890   18.0260 C   0  0  0  0  0  2  0  0  0  0  0  0
  -27.9220  -12.4340   18.4630 C   0  0  0  0  0  2  0  0  0  0  0  0
  -27.5740  -13.2900   19.7100 C   0  0  0  0  0  3  0  0  0  0  0  0
  -28.6390  -13.1200   20.8180 C   0  0  0  0  0  2  0  0  0  0  0  0
  -29.9480  -13.4590   20.2340 N   0  0  0  0  0  0  0  0  0  0  0  0
  -31.7320  -14.8330   19.9340 O   0  0  0  0  0  0  0  0  0  0  0  0
  -29.7540  -15.7290   20.6430 N   0  0  0  0  0  0  0  0  0  0  0  0
  -28.8180  -15.4350   20.8750 H   0  0  0  0  0  0  0  0  0  0  0  0
  -25.1820  -13.8950   20.4320 C   0  0  0  0  0  0  0  0  0  0  0  0
  -24.1150  -13.1250   20.8040 C   0  0  0  0  0  0  0  0  0  0  0  0
  -24.5760  -11.7720   20.7780 C   0  0  0  0  0  0  0  0  0  0  0  0
  -26.2260  -13.0130   20.2010 N   0  0  0  0  0  0  0  0  0  0  0  0
  -25.8660  -11.7310   20.4680 N   0  0  0  0  0  0  0  0  0  0  0  0
  -23.8480  -10.5130   20.9740 C   0  0  0  0  0  0  0  0  0  0  0  0
  -24.2760   -9.5510   21.9150 C   0  0  0  0  0  3  0  0  0  0  0  0
  -23.5480   -8.3540   22.0980 C   0  0  0  0  0  3  0  0  0  0  0  0
  -22.3770   -8.1130   21.3420 C   0  0  0  0  0  0  0  0  0  0  0  0
  -21.9680   -9.0640   20.3910 C   0  0  0  0  0  3  0  0  0  0  0  0
  -22.6970  -10.2510   20.2050 C   0  0  0  0  0  3  0  0  0  0  0  0
  -21.6220   -6.9700   21.4330 O   0  0  0  0  0  0  0  0  0  0  0  0
  -21.5600   -6.2390   22.5930 C   0  0  0  0  0  0  0  0  0  0  0  0
  -21.1070   -6.8040   23.8060 C   0  0  0  0  0  3  0  0  0  0  0  0
  -20.9940   -6.0000   24.9580 C   0  0  0  0  0  3  0  0  0  0  0  0
  -21.3220   -4.6320   24.8980 C   0  0  0  0  0  0  0  0  0  0  0  0
  -21.7670   -4.0660   23.6900 C   0  0  0  0  0  3  0  0  0  0  0  0
  -21.8820   -4.8680   22.5400 C   0  0  0  0  0  0  0  0  0  0  0  0
  -22.2920   -4.3140   21.3730 F   0  0  0  0  0  0  0  0  0  0  0  0
  -21.2050   -3.8570   26.0010 F   0  0  0  0  0  0  0  0  0  0  0  0
  -22.7190  -13.6050   21.0780 C   0  0  0  0  0  0  0  0  0  0  0  0
  -21.9920  -12.9140   21.9490 N   0  0  0  0  0  0  0  0  0  0  0  0
  -22.2810  -14.6300   20.5560 O   0  0  0  0  0  0  0  0  0  0  0  0
  -22.3580  -12.0850   22.3930 H   0  0  0  0  0  0  0  0  0  0  0  0
  -21.0560  -13.2180   22.1750 H   0  0  0  0  0  0  0  0  0  0  0  0
  -25.3430  -15.2660   20.2560 N   0  0  0  0  0  0  0  0  0  0  0  0
  -24.5770  -15.9130   20.3970 H   0  0  0  0  0  0  0  0  0  0  0  0
  -26.2090  -15.7380   20.0180 H   0  0  0  0  0  0  0  0  0  0  0  0
  -30.0250  -21.5300   20.3580 O   0  0  0  0  0  0  0  0  0  0  0  0
  -28.8960  -22.4420   20.1650 C   0  0  0  0  0  2  0  0  0  0  0  0
  -29.2560  -23.9960   20.2800 C   0  0  0  0  0  3  0  0  0  0  0  0
  -28.1150  -25.0540   19.9510 C   0  0  0  0  0  3  0  0  0  0  0  0
  -28.3390  -26.5060   20.1590 O   0  0  0  0  0  0  0  0  0  0  0  0
  -24.6140  -31.8650   23.2520 C   0  0  0  0  0  0  0  0  0  0  0  0
  -27.2190  -27.3560   20.1210 C   0  0  0  0  0  0  0  0  0  0  0  0
  -23.4060  -30.4950   21.5920 C   0  0  0  0  0  3  0  0  0  0  0  0
  -24.8530  -28.9680   20.1410 C   0  0  0  0  0  0  0  0  0  0  0  0
  -25.9460  -30.8150   21.4110 C   0  0  0  0  0  2  0  0  0  0  0  0
  -26.0230  -29.4470   20.7430 C   0  0  0  0  0  0  0  0  0  0  0  0
  -27.2090  -28.6530   20.7210 C   0  0  0  0  0  3  0  0  0  0  0  0
  -26.0200  -26.9330   19.4980 C   0  0  0  0  0  3  0  0  0  0  0  0
  -24.8540  -27.7170   19.5100 C   0  0  0  0  0  3  0  0  0  0  0  0
  -23.6170  -29.8420   20.2020 C   0  0  0  0  0  2  0  0  0  0  0  0
  -24.6750  -31.0740   22.1420 N   0  0  0  0  0  0  0  0  0  0  0  0
  -23.5310  -32.1370   23.7920 O   0  0  0  0  0  0  0  0  0  0  0  0
  -22.7430  -29.4640   22.5360 C   0  0  0  0  0  0  0  0  0  0  0  0
  -21.4170  -29.2900   22.4050 N   0  0  0  0  0  0  0  0  0  0  0  0
  -23.4200  -28.8240   23.3450 O   0  0  0  0  0  0  0  0  0  0  0  0
  -20.9300  -29.8560   21.7250 H   0  0  0  0  0  0  0  0  0  0  0  0
  -18.0360  -28.0990   22.8910 C   0  0  0  0  0  0  0  0  0  0  0  0
  -20.5950  -28.3430   23.1610 C   0  0  0  0  0  3  0  0  0  0  0  0
  -20.6890  -26.9200   22.5620 C   0  0  0  0  0  2  0  0  0  0  0  0
  -19.5850  -26.6200   21.5440 C   0  0  0  0  0  2  0  0  0  0  0  0
  -18.2040  -26.7600   22.1930 C   0  0  0  0  0  2  0  0  0  0  0  0
  -19.1580  -28.8490   23.3310 C   0  0  0  0  0  0  0  0  0  0  0  0
  -18.9450  -30.1030   23.9450 C   0  0  0  0  0  3  0  0  0  0  0  0
  -17.6430  -30.6080   24.1200 C   0  0  0  0  0  3  0  0  0  0  0  0
  -16.5350  -29.8550   23.6960 C   0  0  0  0  0  3  0  0  0  0  0  0
  -16.7310  -28.6020   23.0870 C   0  0  0  0  0  3  0  0  0  0  0  0
  -25.8970  -32.4860   23.8840 C   0  0  0  0  0  3  0  0  0  0  0  0
  -26.4020  -31.7040   25.1580 C   0  0  1  0  0  0  0  0  0  0  0  0
  -25.3030  -31.4670   26.2190 C   0  0  0  0  0  1  0  0  0  0  0  0
  -26.9780  -30.3240   24.7620 C   0  0  0  0  0  1  0  0  0  0  0  0
  -27.5540  -32.4870   25.8300 C   0  0  0  0  0  1  0  0  0  0  0  0
  -25.5960  -33.8840   24.2200 N   0  0  0  0  0  0  0  0  0  0  0  0
  -25.9130  -34.9370   23.4560 C   0  0  0  0  0  0  0  0  0  0  0  0
  -26.5620  -34.8340   22.4100 O   0  0  0  0  0  0  0  0  0  0  0  0
  -25.0160  -34.0380   25.0330 H   0  0  0  0  0  0  0  0  0  0  0  0
  -24.1680  -36.7240   23.1540 C   0  0  0  0  0  1  0  0  0  0  0  0
  -25.4370  -36.3260   23.9240 C   0  0  0  0  0  3  0  0  0  0  0  0
  -27.5930  -37.2240   24.6820 C   0  0  0  0  0  1  0  0  0  0  0  0
  -26.4620  -37.3820   23.7720 N   0  0  0  0  0  0  0  0  0  0  0  0
  -26.0580  -38.3010   23.9250 H   0  0  0  0  0  0  0  0  0  0  0  0
  2  1  2  0
  3  5  2  0
  3  6  1  0
  4  1  1  0
  4 16  1  0
  5  2  1  0
  6  4  2  0
  7  6  1  0
  8 16  1  0
  9 14  1  0
 10 11  1  0
 10  9  1  0
 12 11  1  0
 12 21  1  0
 12 13  1  0
 14  8  1  0
 14 13  1  0
 15  8  2  0
 16 17  1  0
 18 19  2  0
 19 38  1  0
 20 19  1  0
 20 23  1  0
 21 18  1  0
 21 22  1  0
 22 20  2  0
 23 24  1  0
 24 25  2  0
 26 29  1  0
 26 25  1  0
 27 26  2  0
 28 27  1  0
 28 23  2  0
 29 30  1  0
 30 31  1  0
 31 32  2  0
 33 32  1  0
 33 37  1  0
 34 33  2  0
 35 30  2  0
 35 34  1  0
 36 35  1  0
 38 39  1  0
 39 42  1  0
 39 41  1  0
 40 38  2  0
 43 44  1  0
 43 18  1  0
 45 43  1  0
 46  5  1  0
 47 48  1  0
 47 46  1  0
 49 50  1  0
 49 48  2  0
 51 62  2  0
 52 50  1  0
 52 57  1  0
 53 61  1  0
 53 63  1  0
 54 60  1  0
 54 56  1  0
 55 61  1  0
 56 55  1  0
 57 56  2  0
 58 59  1  0
 58 52  2  0
 59 54  2  0
 60 53  1  0
 61 51  1  0
 63 65  2  0
 64 63  1  0
 66 64  1  0
 67 76  2  0
 67 72  1  0
 68 64  1  0
 68 72  1  0
 69 68  1  0
 70 71  1  0
 70 69  1  0
 71 67  1  0
 72 73  2  0
 73 74  1  0
 75 74  2  0
 76 75  1  0
 77 51  1  0
 77 82  1  0
 77 78  1  0
 78 81  1  1
 78 79  1  0
 80 78  1  0
 82 85  1  0
 83 87  1  0
 83 82  1  0
 84 83  2  0
 87 86  1  0
 89 87  1  0
 89 90  1  0
 89 88  1  0
M  ISO  4   8 100  16 100  49 101  50 101
M  END
>  <TORSDO>  (53) 
F 20

>  <SCORE>  (53) 
-14.070

>  <name>  (53) 
53

>  <ligand_id>  (53) 
53

>  <original_smiles>  (53) 
[H]c1c([H])c([H])c2c(c1[H])C([H])([H])C([H])([H])C([H])([H])C2([H])N([H])C(=O)C1([H])N(C(=O)C([H])(N([H])C(=O)C([H])(N([H])C([H])([H])[H])C([H])([H])[H])C(C([H])([H])[H])(C([H])([H])[H])C([H])([H])[H])C([H])([H])c2c([H])c(OC([H])([H])C([H])([H])C([H])([H])Oc3c([H])c([H])c(N([H])C(=O)N4C([H])([H])C([H])([H])C([H])([H])C([H])(n5nc(-c6c([H])c([H])c(Oc7c([H])c([H])c(F)c([H])c7F)c([H])c6[H])c(C(=O)N([H])[H])c5N([H])[H])C4([H])[H])c(F)c3[H])c([H])c([H])c2C1([H])[H]

>  <smiles>  (53) 
[H]c1c([H])c([H])c2c(c1[H])C([H])([H])C([H])([H])C([H])([H])C2([H])N([H])C(=O)C1([H])N(C(=O)C([H])(N([H])C(=O)C([H])(N([H])C([H])([H])[H])C([H])([H])[H])C(C([H])([H])[H])(C([H])([H])[H])C([H])([H])[H])C([H])([H])c2c([H])c(OC([H])([H])C([H])([H])C([H])([H])Oc3c([H])c([H])c(N([H])C(=O)N4C([H])([H])C([H])([H])C([H])([H])C([H])(n5nc(-c6c([H])c([H])c(Oc7c([H])c([H])c(F)c([H])c7F)c([H])c6[H])c(C(=O)N([H])[H])c5N([H])[H])C4([H])[H])c(F)c3[H])c([H])c([H])c2C1([H])[H]

$$$$
54:0:0
     RDKit          3D

 89 97  0  0  1  0  0  0  0  0999 V2000
  -30.1320  -20.7600   19.7530 C   0  0  0  0  0  3  0  0  0  0  0  0
  -27.9100  -20.3790   20.0430 C   0  0  0  0  0  3  0  0  0  0  0  0
  -28.8500  -21.4800   19.8530 C   0  0  0  0  0  0  0  0  0  0  0  0
  -29.4510  -18.1960   20.0060 C   0  0  0  0  0  0  0  0  0  0  0  0
  -30.4190  -19.2840   19.8190 C   0  0  0  0  0  0  0  0  0  0  0  0
  -28.1750  -18.9120   20.1130 C   0  0  0  0  0  0  0  0  0  0  0  0
  -31.7160  -18.9150   19.6830 F   0  0  0  0  0  0  0  0  0  0  0  0
  -26.7840  -17.9190   20.3590 Cl  0  0  0  0  0  0  0  0  0  0  0  0
  -30.3960  -15.3500   19.8170 C   0  0  0  0  0  0  0  0  0  0  0  0
  -30.3860  -12.8900   18.9450 C   0  0  0  0  0  2  0  0  0  0  0  0
  -29.3820  -12.6600   17.7840 C   0  0  0  0  0  2  0  0  0  0  0  0
  -27.9720  -12.3630   18.3240 C   0  0  0  0  0  2  0  0  0  0  0  0
  -27.5870  -13.3180   19.4790 C   0  0  0  0  0  3  0  0  0  0  0  0
  -28.7090  -13.4780   20.5280 C   0  0  0  0  0  2  0  0  0  0  0  0
  -29.8820  -14.0170   19.8180 N   0  0  0  0  0  0  0  0  0  0  0  0
  -31.5870  -15.3950   19.4700 O   0  0  0  0  0  0  0  0  0  0  0  0
  -29.5600  -16.5590   20.0550 N   0  0  0  0  0  0  0  0  0  0  0  0
  -28.6700  -16.2090   20.3750 H   0  0  0  0  0  0  0  0  0  0  0  0
  -25.2820  -13.8480   20.4310 C   0  0  0  0  0  0  0  0  0  0  0  0
  -24.2510  -13.0610   20.8570 C   0  0  0  0  0  0  0  0  0  0  0  0
  -24.7100  -11.7130   20.7450 C   0  0  0  0  0  0  0  0  0  0  0  0
  -26.3020  -12.9830   20.0780 N   0  0  0  0  0  0  0  0  0  0  0  0
  -25.9750  -11.6890   20.3330 N   0  0  0  0  0  0  0  0  0  0  0  0
  -23.9950  -10.4470   20.9480 C   0  0  0  0  0  0  0  0  0  0  0  0
  -24.4560   -9.4740   21.8620 C   0  0  0  0  0  3  0  0  0  0  0  0
  -23.7380   -8.2740   22.0540 C   0  0  0  0  0  3  0  0  0  0  0  0
  -22.5430   -8.0400   21.3330 C   0  0  0  0  0  0  0  0  0  0  0  0
  -22.1000   -9.0010   20.4080 C   0  0  0  0  0  3  0  0  0  0  0  0
  -22.8200  -10.1920   20.2120 C   0  0  0  0  0  3  0  0  0  0  0  0
  -21.7920   -6.8930   21.4360 O   0  0  0  0  0  0  0  0  0  0  0  0
  -21.7260   -6.1800   22.6060 C   0  0  0  0  0  0  0  0  0  0  0  0
  -21.2410   -6.7520   23.8020 C   0  0  0  0  0  3  0  0  0  0  0  0
  -21.1260   -5.9630   24.9650 C   0  0  0  0  0  3  0  0  0  0  0  0
  -21.4830   -4.6020   24.9310 C   0  0  0  0  0  0  0  0  0  0  0  0
  -21.9610   -4.0290   23.7380 C   0  0  0  0  0  3  0  0  0  0  0  0
  -22.0790   -4.8150   22.5790 C   0  0  0  0  0  0  0  0  0  0  0  0
  -22.5190   -4.2520   21.4280 F   0  0  0  0  0  0  0  0  0  0  0  0
  -21.3650   -3.8420   26.0440 F   0  0  0  0  0  0  0  0  0  0  0  0
  -22.8800  -13.5320   21.2470 C   0  0  0  0  0  0  0  0  0  0  0  0
  -22.2320  -12.8290   22.1670 N   0  0  0  0  0  0  0  0  0  0  0  0
  -22.3990  -14.5590   20.7700 O   0  0  0  0  0  0  0  0  0  0  0  0
  -22.6380  -11.9990   22.5740 H   0  0  0  0  0  0  0  0  0  0  0  0
  -21.3150  -13.1270   22.4730 H   0  0  0  0  0  0  0  0  0  0  0  0
  -25.4280  -15.2230   20.2840 N   0  0  0  0  0  0  0  0  0  0  0  0
  -24.6780  -15.8670   20.5120 H   0  0  0  0  0  0  0  0  0  0  0  0
  -26.2480  -15.6900   19.9240 H   0  0  0  0  0  0  0  0  0  0  0  0
  -28.5160  -23.1130   19.7750 C   0  0  0  0  0  0  0  0  0  0  0  0
  -28.2800  -24.3990   19.7240 C   0  0  0  0  0  0  0  0  0  0  0  0
  -28.2490  -25.8580   19.6980 O   0  0  0  0  0  0  0  0  0  0  0  0
  -24.6840  -31.7040   22.9780 C   0  0  0  0  0  0  0  0  0  0  0  0
  -27.1910  -26.9190   19.7490 C   0  0  0  0  0  0  0  0  0  0  0  0
  -23.4640  -30.3710   21.3050 C   0  0  0  0  0  3  0  0  0  0  0  0
  -24.8890  -28.8110   19.8050 C   0  0  0  0  0  0  0  0  0  0  0  0
  -26.0280  -30.5780   21.1320 C   0  0  0  0  0  2  0  0  0  0  0  0
  -26.0840  -29.1880   20.4290 C   0  0  0  0  0  0  0  0  0  0  0  0
  -27.2240  -28.2630   20.3800 C   0  0  0  0  0  3  0  0  0  0  0  0
  -25.9660  -26.7020   19.0760 C   0  0  0  0  0  3  0  0  0  0  0  0
  -24.8550  -27.5890   19.1110 C   0  0  0  0  0  3  0  0  0  0  0  0
  -23.6740  -29.7350   19.9020 C   0  0  0  0  0  2  0  0  0  0  0  0
  -24.7480  -30.9110   21.8590 N   0  0  0  0  0  0  0  0  0  0  0  0
  -23.6020  -31.9760   23.5250 O   0  0  0  0  0  0  0  0  0  0  0  0
  -22.7820  -29.3420   22.2440 C   0  0  0  0  0  0  0  0  0  0  0  0
  -21.4460  -29.2060   22.1530 N   0  0  0  0  0  0  0  0  0  0  0  0
  -23.4600  -28.6680   23.0230 O   0  0  0  0  0  0  0  0  0  0  0  0
  -20.9500  -29.8010   21.5030 H   0  0  0  0  0  0  0  0  0  0  0  0
  -18.0540  -28.0680   22.7600 C   0  0  0  0  0  0  0  0  0  0  0  0
  -20.6320  -28.2440   22.9040 C   0  0  0  0  0  3  0  0  0  0  0  0
  -20.6570  -26.8510   22.2330 C   0  0  0  0  0  2  0  0  0  0  0  0
  -19.4950  -26.6290   21.2590 C   0  0  0  0  0  2  0  0  0  0  0  0
  -18.1530  -26.7660   21.9830 C   0  0  0  0  0  2  0  0  0  0  0  0
  -19.2160  -28.7690   23.1780 C   0  0  0  0  0  0  0  0  0  0  0  0
  -19.0640  -29.9900   23.8710 C   0  0  0  0  0  3  0  0  0  0  0  0
  -17.7860  -30.5100   24.1460 C   0  0  0  0  0  3  0  0  0  0  0  0
  -16.6390  -29.8050   23.7400 C   0  0  0  0  0  3  0  0  0  0  0  0
  -16.7740  -28.5850   23.0540 C   0  0  0  0  0  3  0  0  0  0  0  0
  -25.9640  -32.3230   23.6170 C   0  0  0  0  0  3  0  0  0  0  0  0
  -25.6460  -33.7000   24.0320 N   0  0  0  0  0  0  0  0  0  0  0  0
  -25.9420  -34.8030   23.3320 C   0  0  0  0  0  0  0  0  0  0  0  0
  -26.5760  -34.7680   22.2740 O   0  0  0  0  0  0  0  0  0  0  0  0
  -25.0780  -33.8000   24.8600 H   0  0  0  0  0  0  0  0  0  0  0  0
  -24.1820  -36.5970   23.1640 C   0  0  0  0  0  1  0  0  0  0  0  0
  -25.4640  -36.1590   23.8920 C   0  0  0  0  0  3  0  0  0  0  0  0
  -27.6190  -37.0320   24.6800 C   0  0  0  0  0  1  0  0  0  0  0  0
  -26.4770  -37.2330   23.7940 N   0  0  0  0  0  0  0  0  0  0  0  0
  -26.0650  -38.1360   24.0100 H   0  0  0  0  0  0  0  0  0  0  0  0
  -26.5010  -31.4960   24.8510 C   0  0  1  0  0  0  0  0  0  0  0  0
  -25.4260  -31.2100   25.9250 C   0  0  0  0  0  1  0  0  0  0  0  0
  -27.0800  -30.1370   24.3980 C   0  0  0  0  0  1  0  0  0  0  0  0
  -27.6610  -32.2620   25.5300 C   0  0  0  0  0  1  0  0  0  0  0  0
  1  5  2  0
  1  3  1  0
  2  6  1  0
  3  2  2  0
  4 17  1  0
  4  6  2  0
  5  4  1  0
  6  8  1  0
  7  5  1  0
  9 15  1  0
  9 17  1  0
 10 15  1  0
 11 12  1  0
 11 10  1  0
 13 12  1  0
 13 22  1  0
 13 14  1  0
 15 14  1  0
 16  9  2  0
 17 18  1  0
 19 20  2  0
 20 39  1  0
 21 20  1  0
 21 24  1  0
 22 23  1  0
 22 19  1  0
 23 21  2  0
 24 25  1  0
 25 26  2  0
 27 30  1  0
 27 26  1  0
 28 27  2  0
 29 28  1  0
 29 24  2  0
 30 31  1  0
 31 32  1  0
 32 33  2  0
 34 33  1  0
 34 38  1  0
 35 34  2  0
 36 31  2  0
 36 35  1  0
 37 36  1  0
 39 40  1  0
 40 43  1  0
 40 42  1  0
 41 39  2  0
 44 19  1  0
 44 45  1  0
 46 44  1  0
 47  3  1  0
 48 47  3  0
 49 48  1  0
 49 51  1  0
 50 61  2  0
 51 56  1  0
 52 60  1  0
 52 62  1  0
 53 59  1  0
 53 55  1  0
 54 60  1  0
 55 54  1  0
 56 55  2  0
 57 58  1  0
 57 51  2  0
 58 53  2  0
 59 52  1  0
 60 50  1  0
 62 64  2  0
 63 62  1  0
 65 63  1  0
 66 75  2  0
 66 71  1  0
 67 63  1  0
 67 71  1  0
 68 67  1  0
 69 70  1  0
 69 68  1  0
 70 66  1  0
 71 72  2  0
 72 73  1  0
 74 73  2  0
 75 74  1  0
 76 50  1  0
 76 77  1  0
 76 86  1  0
 77 80  1  0
 78 82  1  0
 78 77  1  0
 79 78  2  0
 82 81  1  0
 84 82  1  0
 84 85  1  0
 84 83  1  0
 86 89  1  1
 86 87  1  0
 88 86  1  0
M  ISO  4   9 100  17 100  48 101  49 101
M  END
>  <TORSDO>  (54) 
F 17

>  <SCORE>  (54) 
-14.574

>  <name>  (54) 
54

>  <ligand_id>  (54) 
54

>  <original_smiles>  (54) 
[H]c1c([H])c([H])c2c(c1[H])C([H])([H])C([H])([H])C([H])([H])C2([H])N([H])C(=O)C1([H])N(C(=O)C([H])(N([H])C(=O)C([H])(N([H])C([H])([H])[H])C([H])([H])[H])C(C([H])([H])[H])(C([H])([H])[H])C([H])([H])[H])C([H])([H])c2c([H])c(OC#Cc3c([H])c(F)c(N([H])C(=O)N4C([H])([H])C([H])([H])C([H])([H])C([H])(n5nc(-c6c([H])c([H])c(Oc7c([H])c([H])c(F)c([H])c7F)c([H])c6[H])c(C(=O)N([H])[H])c5N([H])[H])C4([H])[H])c(Cl)c3[H])c([H])c([H])c2C1([H])[H]

>  <smiles>  (54) 
[H]c1c([H])c([H])c2c(c1[H])C([H])([H])C([H])([H])C([H])([H])C2([H])N([H])C(=O)C1([H])N(C(=O)C([H])(N([H])C(=O)C([H])(N([H])C([H])([H])[H])C([H])([H])[H])C(C([H])([H])[H])(C([H])([H])[H])C([H])([H])[H])C([H])([H])c2c([H])c(OC#Cc3c([H])c(F)c(N([H])C(=O)N4C([H])([H])C([H])([H])C([H])([H])C([H])(n5nc(-c6c([H])c([H])c(Oc7c([H])c([H])c(F)c([H])c7F)c([H])c6[H])c(C(=O)N([H])[H])c5N([H])[H])C4([H])[H])c(Cl)c3[H])c([H])c([H])c2C1([H])[H]

$$$$
55:0:0
     RDKit          3D

 90 98  0  0  1  0  0  0  0  0999 V2000
  -30.6800  -18.4140   19.3230 C   0  0  0  0  0  3  0  0  0  0  0  0
  -28.4930  -19.8010   20.3620 C   0  0  0  0  0  3  0  0  0  0  0  0
  -29.7340  -17.5720   19.9900 C   0  0  0  0  0  0  0  0  0  0  0  0
  -29.4230  -20.6410   19.6660 C   0  0  0  0  0  0  0  0  0  0  0  0
  -30.5240  -19.8520   19.1650 C   0  0  0  0  0  0  0  0  0  0  0  0
  -28.6370  -18.3550   20.5000 C   0  0  0  0  0  0  0  0  0  0  0  0
  -31.4900  -20.5050   18.4730 F   0  0  0  0  0  0  0  0  0  0  0  0
  -27.6510  -17.6850   21.1440 F   0  0  0  0  0  0  0  0  0  0  0  0
  -30.5120  -14.9320   19.7000 C   0  0  0  0  0  0  0  0  0  0  0  0
  -30.2960  -12.6140   18.7030 C   0  0  0  0  0  2  0  0  0  0  0  0
  -29.2350  -12.6390   17.5770 C   0  0  0  0  0  2  0  0  0  0  0  0
  -27.8200  -12.4310   18.1510 C   0  0  0  0  0  2  0  0  0  0  0  0
  -27.5560  -13.3090   19.4020 C   0  0  0  0  0  3  0  0  0  0  0  0
  -28.7240  -13.2430   20.4110 C   0  0  0  0  0  2  0  0  0  0  0  0
  -29.9380  -13.6640   19.6980 N   0  0  0  0  0  0  0  0  0  0  0  0
  -31.6470  -15.0520   19.2250 O   0  0  0  0  0  0  0  0  0  0  0  0
  -29.7370  -16.0410   20.1180 N   0  0  0  0  0  0  0  0  0  0  0  0
  -28.9170  -15.7190   20.6100 H   0  0  0  0  0  0  0  0  0  0  0  0
  -25.2720  -13.8870   20.4060 C   0  0  0  0  0  0  0  0  0  0  0  0
  -24.2410  -13.1110   20.8560 C   0  0  0  0  0  0  0  0  0  0  0  0
  -24.6790  -11.7570   20.7250 C   0  0  0  0  0  0  0  0  0  0  0  0
  -26.2710  -13.0080   20.0240 N   0  0  0  0  0  0  0  0  0  0  0  0
  -25.9300  -11.7180   20.2790 N   0  0  0  0  0  0  0  0  0  0  0  0
  -23.9570  -10.4960   20.9410 C   0  0  0  0  0  0  0  0  0  0  0  0
  -24.4420   -9.5090   21.8270 C   0  0  0  0  0  3  0  0  0  0  0  0
  -23.7190   -8.3140   22.0340 C   0  0  0  0  0  3  0  0  0  0  0  0
  -22.4960   -8.0990   21.3570 C   0  0  0  0  0  0  0  0  0  0  0  0
  -22.0280   -9.0750   20.4590 C   0  0  0  0  0  3  0  0  0  0  0  0
  -22.7520  -10.2600   20.2490 C   0  0  0  0  0  3  0  0  0  0  0  0
  -21.7380   -6.9580   21.4760 O   0  0  0  0  0  0  0  0  0  0  0  0
  -21.7300   -6.2180   22.6310 C   0  0  0  0  0  0  0  0  0  0  0  0
  -21.3310   -6.7710   23.8670 C   0  0  0  0  0  3  0  0  0  0  0  0
  -21.2710   -5.9560   25.0150 C   0  0  0  0  0  3  0  0  0  0  0  0
  -21.5960   -4.5900   24.9290 C   0  0  0  0  0  0  0  0  0  0  0  0
  -21.9870   -4.0360   23.6970 C   0  0  0  0  0  3  0  0  0  0  0  0
  -22.0500   -4.8480   22.5500 C   0  0  0  0  0  0  0  0  0  0  0  0
  -22.4070   -4.3050   21.3620 F   0  0  0  0  0  0  0  0  0  0  0  0
  -21.5310   -3.8050   26.0300 F   0  0  0  0  0  0  0  0  0  0  0  0
  -22.8870  -13.5920   21.2920 C   0  0  0  0  0  0  0  0  0  0  0  0
  -22.2490  -12.8760   22.2100 N   0  0  0  0  0  0  0  0  0  0  0  0
  -22.4100  -14.6380   20.8530 O   0  0  0  0  0  0  0  0  0  0  0  0
  -22.6500  -12.0290   22.5840 H   0  0  0  0  0  0  0  0  0  0  0  0
  -21.3440  -13.1800   22.5440 H   0  0  0  0  0  0  0  0  0  0  0  0
  -25.4350  -15.2620   20.2640 N   0  0  0  0  0  0  0  0  0  0  0  0
  -24.6950  -15.9170   20.4920 H   0  0  0  0  0  0  0  0  0  0  0  0
  -26.2470  -15.7110   19.8610 H   0  0  0  0  0  0  0  0  0  0  0  0
  -29.3480  -22.0780   19.3640 O   0  0  0  0  0  0  0  0  0  0  0  0
  -28.6350  -23.2610   20.0410 C   0  0  0  0  0  2  0  0  0  0  0  0
  -28.4330  -24.7510   19.2670 C   0  0  0  0  0  2  0  0  0  0  0  0
  -28.3950  -26.2040   19.8330 O   0  0  0  0  0  0  0  0  0  0  0  0
  -24.6650  -31.6640   23.0420 C   0  0  0  0  0  0  0  0  0  0  0  0
  -27.2950  -27.1370   19.7780 C   0  0  0  0  0  0  0  0  0  0  0  0
  -23.4700  -30.3170   21.3580 C   0  0  0  0  0  3  0  0  0  0  0  0
  -24.9290  -28.8330   19.8490 C   0  0  0  0  0  0  0  0  0  0  0  0
  -26.0150  -30.6370   21.1770 C   0  0  0  0  0  2  0  0  0  0  0  0
  -26.1050  -29.2760   20.4650 C   0  0  0  0  0  0  0  0  0  0  0  0
  -27.2840  -28.4430   20.4170 C   0  0  0  0  0  3  0  0  0  0  0  0
  -26.0880  -26.7950   19.1300 C   0  0  0  0  0  3  0  0  0  0  0  0
  -24.9330  -27.6050   19.1690 C   0  0  0  0  0  3  0  0  0  0  0  0
  -23.6860  -29.7030   19.9490 C   0  0  0  0  0  2  0  0  0  0  0  0
  -24.7360  -30.8920   21.9150 N   0  0  0  0  0  0  0  0  0  0  0  0
  -23.5800  -31.9060   23.5940 O   0  0  0  0  0  0  0  0  0  0  0  0
  -22.8210  -29.2580   22.2840 C   0  0  0  0  0  0  0  0  0  0  0  0
  -21.4920  -29.0820   22.1770 N   0  0  0  0  0  0  0  0  0  0  0  0
  -23.5150  -28.5970   23.0610 O   0  0  0  0  0  0  0  0  0  0  0  0
  -20.9880  -29.6680   21.5260 H   0  0  0  0  0  0  0  0  0  0  0  0
  -18.1260  -27.8550   22.7150 C   0  0  0  0  0  0  0  0  0  0  0  0
  -20.6920  -28.1040   22.9190 C   0  0  0  0  0  3  0  0  0  0  0  0
  -20.7760  -26.7060   22.2620 C   0  0  0  0  0  2  0  0  0  0  0  0
  -19.6430  -26.4400   21.2650 C   0  0  0  0  0  2  0  0  0  0  0  0
  -18.2810  -26.5460   21.9580 C   0  0  0  0  0  2  0  0  0  0  0  0
  -19.2580  -28.5940   23.1530 C   0  0  0  0  0  0  0  0  0  0  0  0
  -19.0570  -29.8180   23.8240 C   0  0  0  0  0  3  0  0  0  0  0  0
  -17.7570  -30.3060   24.0600 C   0  0  0  0  0  3  0  0  0  0  0  0
  -16.6410  -29.5650   23.6370 C   0  0  0  0  0  3  0  0  0  0  0  0
  -16.8270  -28.3390   22.9710 C   0  0  0  0  0  3  0  0  0  0  0  0
  -25.9380  -32.2940   23.6820 C   0  0  0  0  0  3  0  0  0  0  0  0
  -26.4710  -31.4850   24.9290 C   0  0  1  0  0  0  0  0  0  0  0  0
  -25.3890  -31.2010   25.9960 C   0  0  0  0  0  1  0  0  0  0  0  0
  -27.0660  -30.1280   24.4900 C   0  0  0  0  0  1  0  0  0  0  0  0
  -27.6200  -32.2690   25.6100 C   0  0  0  0  0  1  0  0  0  0  0  0
  -25.6080  -33.6750   24.0710 N   0  0  0  0  0  0  0  0  0  0  0  0
  -25.9270  -34.7670   23.3630 C   0  0  0  0  0  0  0  0  0  0  0  0
  -26.5980  -34.7180   22.3290 O   0  0  0  0  0  0  0  0  0  0  0  0
  -25.0110  -33.7850   24.8780 H   0  0  0  0  0  0  0  0  0  0  0  0
  -24.1770  -36.5550   23.0950 C   0  0  0  0  0  1  0  0  0  0  0  0
  -25.4250  -36.1280   23.8850 C   0  0  0  0  0  3  0  0  0  0  0  0
  -27.5470  -37.0060   24.7570 C   0  0  0  0  0  1  0  0  0  0  0  0
  -26.4450  -37.1970   23.8160 N   0  0  0  0  0  0  0  0  0  0  0  0
  -26.0260  -38.1060   23.9980 H   0  0  0  0  0  0  0  0  0  0  0  0
  1  3  1  0
  2  6  1  0
  3 17  1  0
  3  6  2  0
  4  2  2  0
  5  1  2  0
  5  4  1  0
  6  8  1  0
  7  5  1  0
  9 17  1  0
 10 15  1  0
 11 12  1  0
 11 10  1  0
 13 12  1  0
 13 22  1  0
 13 14  1  0
 15  9  1  0
 15 14  1  0
 16  9  2  0
 17 18  1  0
 19 20  2  0
 20 39  1  0
 21 20  1  0
 21 24  1  0
 22 23  1  0
 22 19  1  0
 23 21  2  0
 24 25  1  0
 25 26  2  0
 27 30  1  0
 27 26  1  0
 28 27  2  0
 29 28  1  0
 29 24  2  0
 30 31  1  0
 31 32  1  0
 32 33  2  0
 34 33  1  0
 34 38  1  0
 35 34  2  0
 36 31  2  0
 36 35  1  0
 37 36  1  0
 39 40  1  0
 40 43  1  0
 40 42  1  0
 41 39  2  0
 44 19  1  0
 44 45  1  0
 46 44  1  0
 47  4  1  0
 47 48  1  0
 49 50  1  0
 49 48  1  0
 51 62  2  0
 52 50  1  0
 52 57  1  0
 53 61  1  0
 53 63  1  0
 54 60  1  0
 54 56  1  0
 55 61  1  0
 56 55  1  0
 57 56  2  0
 58 59  1  0
 58 52  2  0
 59 54  2  0
 60 53  1  0
 61 51  1  0
 63 65  2  0
 64 63  1  0
 66 64  1  0
 67 76  2  0
 67 72  1  0
 68 64  1  0
 68 72  1  0
 69 68  1  0
 70 71  1  0
 70 69  1  0
 71 67  1  0
 72 73  2  0
 73 74  1  0
 75 74  2  0
 76 75  1  0
 77 51  1  0
 77 82  1  0
 77 78  1  0
 78 81  1  1
 78 79  1  0
 80 78  1  0
 82 85  1  0
 83 87  1  0
 83 82  1  0
 84 83  2  0
 87 86  1  0
 89 87  1  0
 89 90  1  0
 89 88  1  0
M  ISO  4   9 100  17 100  49 101  50 101
M  END
>  <TORSDO>  (55) 
F 19

>  <SCORE>  (55) 
-13.201

>  <name>  (55) 
55

>  <ligand_id>  (55) 
55

>  <original_smiles>  (55) 
[H]c1c([H])c([H])c2c(c1[H])C([H])([H])C([H])([H])C([H])([H])C2([H])N([H])C(=O)C1([H])N(C(=O)C([H])(N([H])C(=O)C([H])(N([H])C([H])([H])[H])C([H])([H])[H])C(C([H])([H])[H])(C([H])([H])[H])C([H])([H])[H])C([H])([H])c2c([H])c(OC([H])([H])C([H])([H])Oc3c([H])c(F)c(N([H])C(=O)N4C([H])([H])C([H])([H])C([H])([H])C([H])(n5nc(-c6c([H])c([H])c(Oc7c([H])c([H])c(F)c([H])c7F)c([H])c6[H])c(C(=O)N([H])[H])c5N([H])[H])C4([H])[H])c([H])c3F)c([H])c([H])c2C1([H])[H]

>  <smiles>  (55) 
[H]c1c([H])c([H])c2c(c1[H])C([H])([H])C([H])([H])C([H])([H])C2([H])N([H])C(=O)C1([H])N(C(=O)C([H])(N([H])C(=O)C([H])(N([H])C([H])([H])[H])C([H])([H])[H])C(C([H])([H])[H])(C([H])([H])[H])C([H])([H])[H])C([H])([H])c2c([H])c(OC([H])([H])C([H])([H])Oc3c([H])c(F)c(N([H])C(=O)N4C([H])([H])C([H])([H])C([H])([H])C([H])(n5nc(-c6c([H])c([H])c(Oc7c([H])c([H])c(F)c([H])c7F)c([H])c6[H])c(C(=O)N([H])[H])c5N([H])[H])C4([H])[H])c([H])c3F)c([H])c([H])c2C1([H])[H]

$$$$
56:0:0
     RDKit          3D

 95104  0  0  1  0  0  0  0  0999 V2000
  -27.1410  -18.5360   20.3570 C   0  0  0  0  0  3  0  0  0  0  0  0
  -27.2870  -17.1840   20.6900 C   0  0  0  0  0  3  0  0  0  0  0  0
  -28.2000  -19.2240   19.7390 C   0  0  0  0  0  3  0  0  0  0  0  0
  -28.4890  -16.5200   20.4030 C   0  0  0  0  0  3  0  0  0  0  0  0
  -31.6940  -18.5860   18.6140 C   0  0  0  0  0  3  0  0  0  0  0  0
  -31.8300  -17.1940   18.9290 C   0  0  0  0  0  3  0  0  0  0  0  0
  -29.4340  -18.5860   19.4460 C   0  0  0  0  0  0  0  0  0  0  0  0
  -29.5780  -17.1840   19.7820 C   0  0  0  0  0  0  0  0  0  0  0  0
  -30.5050  -19.3370   18.8610 C   0  0  0  0  0  0  0  0  0  0  0  0
  -30.7820  -16.4480   19.5310 C   0  0  0  0  0  0  0  0  0  0  0  0
  -31.6380  -13.9270   19.6670 C   0  0  0  0  0  0  0  0  0  0  0  0
  -31.4030  -11.5090   19.0940 C   0  0  0  0  0  2  0  0  0  0  0  0
  -30.4240  -11.3890   17.9020 C   0  0  0  0  0  2  0  0  0  0  0  0
  -28.9570  -11.3630   18.3790 C   0  0  0  0  0  2  0  0  0  0  0  0
  -28.6500  -12.4750   19.4160 C   0  0  0  0  0  3  0  0  0  0  0  0
  -29.7280  -12.5040   20.5230 C   0  0  0  0  0  2  0  0  0  0  0  0
  -31.0290  -12.7100   19.8660 N   0  0  0  0  0  0  0  0  0  0  0  0
  -32.7810  -14.0040   19.2080 O   0  0  0  0  0  0  0  0  0  0  0  0
  -30.8240  -15.0140   19.8890 N   0  0  0  0  0  0  0  0  0  0  0  0
  -29.9760  -14.7090   20.3410 H   0  0  0  0  0  0  0  0  0  0  0  0
  -26.3820  -13.3430   20.2550 C   0  0  0  0  0  0  0  0  0  0  0  0
  -25.2510  -12.6980   20.6780 C   0  0  0  0  0  0  0  0  0  0  0  0
  -25.5480  -11.3030   20.6110 C   0  0  0  0  0  0  0  0  0  0  0  0
  -27.3020  -12.3490   19.9650 N   0  0  0  0  0  0  0  0  0  0  0  0
  -26.8090  -11.1150   20.2370 N   0  0  0  0  0  0  0  0  0  0  0  0
  -24.6870  -10.1330   20.8250 C   0  0  0  0  0  0  0  0  0  0  0  0
  -24.8530   -9.2890   21.9450 C   0  0  0  0  0  3  0  0  0  0  0  0
  -24.0010   -8.1800   22.1370 C   0  0  0  0  0  3  0  0  0  0  0  0
  -22.9680   -7.9100   21.2080 C   0  0  0  0  0  0  0  0  0  0  0  0
  -22.8230   -8.7390   20.0830 C   0  0  0  0  0  3  0  0  0  0  0  0
  -23.6740   -9.8400   19.8900 C   0  0  0  0  0  3  0  0  0  0  0  0
  -22.1080   -6.8420   21.3010 O   0  0  0  0  0  0  0  0  0  0  0  0
  -21.5910   -6.4380   22.5050 C   0  0  0  0  0  0  0  0  0  0  0  0
  -20.7700   -7.2810   23.2850 C   0  0  0  0  0  3  0  0  0  0  0  0
  -20.2040   -6.8000   24.4820 C   0  0  0  0  0  3  0  0  0  0  0  0
  -20.4480   -5.4760   24.8970 C   0  0  0  0  0  0  0  0  0  0  0  0
  -21.2630   -4.6340   24.1180 C   0  0  0  0  0  3  0  0  0  0  0  0
  -21.8290   -5.1140   22.9250 C   0  0  0  0  0  0  0  0  0  0  0  0
  -22.5950   -4.2910   22.1670 F   0  0  0  0  0  0  0  0  0  0  0  0
  -19.8990   -5.0110   26.0430 F   0  0  0  0  0  0  0  0  0  0  0  0
  -23.9370  -13.3350   21.0270 C   0  0  0  0  0  0  0  0  0  0  0  0
  -23.1760  -12.7150   21.9220 N   0  0  0  0  0  0  0  0  0  0  0  0
  -23.6000  -14.4150   20.5430 O   0  0  0  0  0  0  0  0  0  0  0  0
  -23.4610  -11.8390   22.3330 H   0  0  0  0  0  0  0  0  0  0  0  0
  -22.2950  -13.1260   22.2000 H   0  0  0  0  0  0  0  0  0  0  0  0
  -26.6900  -14.6850   20.0690 N   0  0  0  0  0  0  0  0  0  0  0  0
  -26.0140  -15.4200   20.2410 H   0  0  0  0  0  0  0  0  0  0  0  0
  -27.5600  -15.0340   19.6900 H   0  0  0  0  0  0  0  0  0  0  0  0
  -30.4610  -20.9260   18.6740 C   0  0  0  0  0  2  0  0  0  0  0  0
  -29.9840  -21.5380   17.3720 N   0  0  0  0  0  4  0  0  0  0  0  0
  -29.4500  -20.8120   16.9210 H   0  0  0  0  0  0  0  0  0  0  0  0
  -30.7990  -21.6700   16.7940 H   0  0  0  0  0  0  0  0  0  0  0  0
  -29.1160  -22.8110   17.2950 C   0  0  0  0  0  2  0  0  0  0  0  0
  -29.5270  -24.1560   18.0470 C   0  0  0  0  0  2  0  0  0  0  0  0
  -29.1010  -25.5100   17.5910 O   0  0  0  0  0  0  0  0  0  0  0  0
  -25.3530  -29.4190   22.4110 C   0  0  0  0  0  0  0  0  0  0  0  0
  -27.9060  -26.1290   17.9830 C   0  0  0  0  0  0  0  0  0  0  0  0
  -24.0700  -28.4440   20.5370 C   0  0  0  0  0  3  0  0  0  0  0  0
  -25.4560  -27.4690   18.6200 C   0  0  0  0  0  0  0  0  0  0  0  0
  -26.5550  -29.0110   20.2490 C   0  0  0  0  0  2  0  0  0  0  0  0
  -26.6470  -27.8750   19.2350 C   0  0  0  0  0  0  0  0  0  0  0  0
  -27.8710  -27.2220   18.9040 C   0  0  0  0  0  3  0  0  0  0  0  0
  -26.6890  -25.7620   17.3730 C   0  0  0  0  0  3  0  0  0  0  0  0
  -25.4790  -26.4200   17.6820 C   0  0  0  0  0  3  0  0  0  0  0  0
  -24.1860  -28.1970   19.0090 C   0  0  0  0  0  2  0  0  0  0  0  0
  -25.3500  -28.9600   21.1230 N   0  0  0  0  0  0  0  0  0  0  0  0
  -24.3160  -29.4430   23.0880 O   0  0  0  0  0  0  0  0  0  0  0  0
  -23.5690  -27.1470   21.2150 C   0  0  0  0  0  0  0  0  0  0  0  0
  -22.2680  -26.8480   21.0610 N   0  0  0  0  0  0  0  0  0  0  0  0
  -24.3470  -26.4230   21.8410 O   0  0  0  0  0  0  0  0  0  0  0  0
  -21.6900  -27.4980   20.5450 H   0  0  0  0  0  0  0  0  0  0  0  0
  -19.1010  -25.1030   21.1490 C   0  0  0  0  0  0  0  0  0  0  0  0
  -21.5910  -25.6550   21.5740 C   0  0  0  0  0  3  0  0  0  0  0  0
  -21.9080  -24.4170   20.7010 C   0  0  0  0  0  2  0  0  0  0  0  0
  -20.8740  -24.1750   19.5980 C   0  0  0  0  0  2  0  0  0  0  0  0
  -19.4800  -23.9780   20.2020 C   0  0  0  0  0  2  0  0  0  0  0  0
  -20.0920  -25.9000   21.7810 C   0  0  0  0  0  0  0  0  0  0  0  0
  -19.6870  -26.9560   22.6250 C   0  0  0  0  0  3  0  0  0  0  0  0
  -18.3210  -27.2180   22.8450 C   0  0  0  0  0  3  0  0  0  0  0  0
  -17.3450  -26.4140   22.2330 C   0  0  0  0  0  3  0  0  0  0  0  0
  -17.7340  -25.3590   21.3900 C   0  0  0  0  0  3  0  0  0  0  0  0
  -26.6570  -29.9560   23.0810 C   0  0  0  0  0  3  0  0  0  0  0  0
  -27.3370  -28.9060   24.0440 C   0  0  1  0  0  0  0  0  0  0  0  0
  -26.3700  -28.3090   25.0940 C   0  0  0  0  0  1  0  0  0  0  0  0
  -27.9380  -27.7340   23.2330 C   0  0  0  0  0  1  0  0  0  0  0  0
  -28.5100  -29.5700   24.8010 C   0  0  0  0  0  1  0  0  0  0  0  0
  -26.3080  -31.1790   23.8170 N   0  0  0  0  0  0  0  0  0  0  0  0
  -26.5580  -32.4240   23.3880 C   0  0  0  0  0  0  0  0  0  0  0  0
  -27.1770  -32.6600   22.3470 O   0  0  0  0  0  0  0  0  0  0  0  0
  -25.7600  -31.0620   24.6560 H   0  0  0  0  0  0  0  0  0  0  0  0
  -24.7750  -34.1800   23.6080 C   0  0  0  0  0  1  0  0  0  0  0  0
  -26.0410  -33.5900   24.2510 C   0  0  0  0  0  3  0  0  0  0  0  0
  -28.1520  -34.2580   25.3110 C   0  0  0  0  0  1  0  0  0  0  0  0
  -27.0400  -34.6610   24.4540 N   0  0  0  0  0  0  0  0  0  0  0  0
  -26.6080  -35.4850   24.8630 H   0  0  0  0  0  0  0  0  0  0  0  0
  1  2  1  0
  3  1  2  0
  4  2  2  0
  5  9  2  0
  5  6  1  0
  6 10  2  0
  7  3  1  0
  7  8  2  0
  8  4  1  0
  9  7  1  0
 10  8  1  0
 10 19  1  0
 11 17  1  0
 11 19  1  0
 12 17  1  0
 13 14  1  0
 13 12  1  0
 15 14  1  0
 15 24  1  0
 15 16  1  0
 17 16  1  0
 18 11  2  0
 19 20  1  0
 21 22  2  0
 22 41  1  0
 23 22  1  0
 23 26  1  0
 24 25  1  0
 24 21  1  0
 25 23  2  0
 26 27  1  0
 27 28  2  0
 29 32  1  0
 29 28  1  0
 30 29  2  0
 31 30  1  0
 31 26  2  0
 32 33  1  0
 33 38  2  0
 33 34  1  0
 34 35  2  0
 35 36  1  0
 36 40  1  0
 37 36  2  0
 38 37  1  0
 39 38  1  0
 41 42  1  0
 42 45  1  0
 42 44  1  0
 43 41  2  0
 46 47  1  0
 46 21  1  0
 48 46  1  0
 49  9  1  0
 50 49  1  0
 51 50  1  0
 52 50  1  0
 53 50  1  0
 53 54  1  0
 55 57  1  0
 55 54  1  0
 56 67  2  0
 57 62  1  0
 58 66  1  0
 58 68  1  0
 59 65  1  0
 59 61  1  0
 60 66  1  0
 61 60  1  0
 62 61  2  0
 63 64  1  0
 63 57  2  0
 64 59  2  0
 65 58  1  0
 66 56  1  0
 68 70  2  0
 69 68  1  0
 71 69  1  0
 72 81  2  0
 72 77  1  0
 73 69  1  0
 73 77  1  0
 74 73  1  0
 75 76  1  0
 75 74  1  0
 76 72  1  0
 77 78  2  0
 78 79  1  0
 80 79  2  0
 81 80  1  0
 82 56  1  0
 82 87  1  0
 82 83  1  0
 83 86  1  1
 83 84  1  0
 85 83  1  0
 87 90  1  0
 88 87  1  0
 88 92  1  0
 89 88  2  0
 92 91  1  0
 92 94  1  0
 94 95  1  0
 94 93  1  0
M  ISO  4  11 100  19 100  54 101  55 101
M  END
>  <TORSDO>  (56) 
F 20

>  <SCORE>  (56) 
-7.592

>  <name>  (56) 
56

>  <ligand_id>  (56) 
56

>  <original_smiles>  (56) 
[H]c1c([H])c([H])c2c(c1[H])C([H])([H])C([H])([H])C([H])([H])C2([H])N([H])C(=O)C1([H])N(C(=O)C([H])(N([H])C(=O)C([H])(N([H])C([H])([H])[H])C([H])([H])[H])C(C([H])([H])[H])(C([H])([H])[H])C([H])([H])[H])C([H])([H])c2c([H])c(OC([H])([H])C([H])([H])[N+]([H])([H])C([H])([H])c3c([H])c([H])c(N([H])C(=O)N4C([H])([H])C([H])([H])C([H])([H])C([H])(n5nc(-c6c([H])c([H])c(Oc7c([H])c([H])c(F)c([H])c7F)c([H])c6[H])c(C(=O)N([H])[H])c5N([H])[H])C4([H])[H])c4c([H])c([H])c([H])c([H])c34)c([H])c([H])c2C1([H])[H]

>  <smiles>  (56) 
[H]c1c([H])c([H])c2c(c1[H])C([H])([H])C([H])([H])C([H])([H])C2([H])N([H])C(=O)C1([H])N(C(=O)C([H])(N([H])C(=O)C([H])(N([H])C([H])([H])[H])C([H])([H])[H])C(C([H])([H])[H])(C([H])([H])[H])C([H])([H])[H])C([H])([H])c2c([H])c(OC([H])([H])C([H])([H])[N+]([H])([H])C([H])([H])c3c([H])c([H])c(N([H])C(=O)N4C([H])([H])C([H])([H])C([H])([H])C([H])(n5nc(-c6c([H])c([H])c(Oc7c([H])c([H])c(F)c([H])c7F)c([H])c6[H])c(C(=O)N([H])[H])c5N([H])[H])C4([H])[H])c4c([H])c([H])c([H])c([H])c34)c([H])c([H])c2C1([H])[H]

$$$$
57:0:0
     RDKit          3D

 97106  0  0  1  0  0  0  0  0999 V2000
  -32.9860  -20.9100   15.7430 C   0  0  0  0  0  3  0  0  0  0  0  0
  -33.0380  -19.5120   15.6200 C   0  0  0  0  0  3  0  0  0  0  0  0
  -32.1430  -21.4920   16.7090 C   0  0  0  0  0  3  0  0  0  0  0  0
  -32.2350  -18.7070   16.4490 C   0  0  0  0  0  3  0  0  0  0  0  0
  -30.5320  -21.2660   18.5220 C   0  0  0  0  0  3  0  0  0  0  0  0
  -31.3640  -20.6790   17.5620 C   0  0  0  0  0  0  0  0  0  0  0  0
  -31.3930  -19.2850   17.4360 C   0  0  0  0  0  0  0  0  0  0  0  0
  -29.7610  -20.5590   19.4860 C   0  0  0  0  0  0  0  0  0  0  0  0
  -29.9400  -19.0170   19.4730 C   0  0  0  0  0  0  0  0  0  0  0  0
  -30.6100  -18.4960   18.3100 C   0  0  0  0  0  0  0  0  0  0  0  0
  -30.5020  -17.1470   17.9740 N   0  0  0  0  0  0  0  0  0  0  0  0
  -31.2430  -16.7300   17.4240 H   0  0  0  0  0  0  0  0  0  0  0  0
  -30.1740  -16.5440   18.7210 H   0  0  0  0  0  0  0  0  0  0  0  0
  -28.8600  -21.7100   20.3020 C   0  0  0  0  0  3  0  0  0  0  0  0
  -28.8760  -23.4210   19.9390 C   0  0  0  0  0  3  0  0  0  0  0  0
  -27.9490  -24.5650   20.5030 N   0  0  0  0  0  0  0  0  0  0  0  0
  -26.9950  -24.4120   20.1870 H   0  0  0  0  0  0  0  0  0  0  0  0
  -28.2840  -26.1080   20.1360 O   0  0  0  0  0  0  0  0  0  0  0  0
  -24.6470  -31.8620   23.1980 C   0  0  0  0  0  0  0  0  0  0  0  0
  -27.2170  -27.0950   20.1720 C   0  0  0  0  0  0  0  0  0  0  0  0
  -23.4460  -30.4580   21.5690 C   0  0  0  0  0  3  0  0  0  0  0  0
  -24.8920  -28.8680   20.1500 C   0  0  0  0  0  0  0  0  0  0  0  0
  -26.0050  -30.7040   21.4080 C   0  0  0  0  0  2  0  0  0  0  0  0
  -26.0750  -29.3040   20.7610 C   0  0  0  0  0  0  0  0  0  0  0  0
  -27.2350  -28.4330   20.7550 C   0  0  0  0  0  3  0  0  0  0  0  0
  -26.0070  -26.7720   19.5190 C   0  0  0  0  0  3  0  0  0  0  0  0
  -24.8720  -27.6170   19.5150 C   0  0  0  0  0  3  0  0  0  0  0  0
  -23.6680  -29.7730   20.1930 C   0  0  0  0  0  2  0  0  0  0  0  0
  -24.7200  -31.0320   22.1120 N   0  0  0  0  0  0  0  0  0  0  0  0
  -23.5620  -32.1530   23.7250 O   0  0  0  0  0  0  0  0  0  0  0  0
  -22.7670  -29.4580   22.5370 C   0  0  0  0  0  0  0  0  0  0  0  0
  -21.4390  -29.2850   22.4120 N   0  0  0  0  0  0  0  0  0  0  0  0
  -23.4370  -28.8390   23.3670 O   0  0  0  0  0  0  0  0  0  0  0  0
  -20.9550  -29.8360   21.7150 H   0  0  0  0  0  0  0  0  0  0  0  0
  -18.0600  -28.0750   22.9200 C   0  0  0  0  0  0  0  0  0  0  0  0
  -20.6170  -28.3540   23.1900 C   0  0  0  0  0  3  0  0  0  0  0  0
  -20.7280  -26.9170   22.6280 C   0  0  0  0  0  2  0  0  0  0  0  0
  -19.6300  -26.5810   21.6140 C   0  0  0  0  0  2  0  0  0  0  0  0
  -18.2440  -26.7230   22.2530 C   0  0  0  0  0  2  0  0  0  0  0  0
  -19.1730  -28.8490   23.3450 C   0  0  0  0  0  0  0  0  0  0  0  0
  -18.9430  -30.1120   23.9300 C   0  0  0  0  0  3  0  0  0  0  0  0
  -17.6350  -30.6050   24.0920 C   0  0  0  0  0  3  0  0  0  0  0  0
  -16.5360  -29.8300   23.6810 C   0  0  0  0  0  3  0  0  0  0  0  0
  -16.7500  -28.5670   23.1000 C   0  0  0  0  0  3  0  0  0  0  0  0
  -25.9230  -32.5030   23.8230 C   0  0  0  0  0  3  0  0  0  0  0  0
  -25.6050  -33.9000   24.1660 N   0  0  0  0  0  0  0  0  0  0  0  0
  -25.9280  -34.9630   23.4210 C   0  0  0  0  0  0  0  0  0  0  0  0
  -26.5920  -34.8730   22.3840 O   0  0  0  0  0  0  0  0  0  0  0  0
  -25.0110  -34.0430   24.9700 H   0  0  0  0  0  0  0  0  0  0  0  0
  -24.1920  -36.7590   23.0960 C   0  0  0  0  0  1  0  0  0  0  0  0
  -25.4380  -36.3470   23.8960 C   0  0  0  0  0  3  0  0  0  0  0  0
  -27.5740  -37.2320   24.7240 C   0  0  0  0  0  1  0  0  0  0  0  0
  -26.4660  -37.4040   23.7880 N   0  0  0  0  0  0  0  0  0  0  0  0
  -26.0580  -38.3220   23.9470 H   0  0  0  0  0  0  0  0  0  0  0  0
  -26.4430  -31.7310   25.1000 C   0  0  1  0  0  0  0  0  0  0  0  0
  -25.3540  -31.4920   26.1710 C   0  0  0  0  0  1  0  0  0  0  0  0
  -27.0260  -30.3530   24.7130 C   0  0  0  0  0  1  0  0  0  0  0  0
  -27.5950  -32.5270   25.7590 C   0  0  0  0  0  1  0  0  0  0  0  0
  -29.6740  -17.8000   20.5900 C   0  0  0  0  0  2  0  0  0  0  0  0
  -30.4650  -15.0190   20.4150 C   0  0  0  0  0  0  0  0  0  0  0  0
  -30.4010  -12.6430   19.4900 C   0  0  0  0  0  2  0  0  0  0  0  0
  -29.4850  -12.5770   18.2430 C   0  0  0  0  0  2  0  0  0  0  0  0
  -28.0150  -12.3580   18.6530 C   0  0  0  0  0  2  0  0  0  0  0  0
  -27.5840  -13.2930   19.8140 C   0  0  0  0  0  3  0  0  0  0  0  0
  -28.6230  -13.3200   20.9550 C   0  0  0  0  0  2  0  0  0  0  0  0
  -29.8930  -13.7450   20.3550 N   0  0  0  0  0  0  0  0  0  0  0  0
  -31.6870  -15.0870   20.2480 O   0  0  0  0  0  0  0  0  0  0  0  0
  -29.6260  -16.1830   20.4310 N   0  0  0  0  0  0  0  0  0  0  0  0
  -28.6640  -15.8800   20.4550 H   0  0  0  0  0  0  0  0  0  0  0  0
  -25.1970  -13.8840   20.5160 C   0  0  0  0  0  0  0  0  0  0  0  0
  -24.1270  -13.1170   20.8780 C   0  0  0  0  0  0  0  0  0  0  0  0
  -24.5880  -11.7630   20.8660 C   0  0  0  0  0  0  0  0  0  0  0  0
  -26.2400  -13.0010   20.2980 N   0  0  0  0  0  0  0  0  0  0  0  0
  -25.8840  -11.7220   20.5770 N   0  0  0  0  0  0  0  0  0  0  0  0
  -23.8550  -10.5060   21.0570 C   0  0  0  0  0  0  0  0  0  0  0  0
  -24.2780   -9.5400   21.9960 C   0  0  0  0  0  3  0  0  0  0  0  0
  -23.5450   -8.3470   22.1750 C   0  0  0  0  0  3  0  0  0  0  0  0
  -22.3750   -8.1110   21.4150 C   0  0  0  0  0  0  0  0  0  0  0  0
  -21.9700   -9.0670   20.4680 C   0  0  0  0  0  3  0  0  0  0  0  0
  -22.7020  -10.2530   20.2870 C   0  0  0  0  0  3  0  0  0  0  0  0
  -21.6150   -6.9700   21.5030 O   0  0  0  0  0  0  0  0  0  0  0  0
  -21.5710   -6.2190   22.6500 C   0  0  0  0  0  0  0  0  0  0  0  0
  -21.1660   -6.7710   23.8850 C   0  0  0  0  0  3  0  0  0  0  0  0
  -21.0680   -5.9500   25.0250 C   0  0  0  0  0  3  0  0  0  0  0  0
  -21.3650   -4.5760   24.9320 C   0  0  0  0  0  0  0  0  0  0  0  0
  -21.7620   -4.0240   23.7010 C   0  0  0  0  0  3  0  0  0  0  0  0
  -21.8620   -4.8430   22.5630 C   0  0  0  0  0  0  0  0  0  0  0  0
  -22.2260   -4.3010   21.3750 F   0  0  0  0  0  0  0  0  0  0  0  0
  -21.2650   -3.7840   26.0240 F   0  0  0  0  0  0  0  0  0  0  0  0
  -22.7260  -13.5990   21.1160 C   0  0  0  0  0  0  0  0  0  0  0  0
  -21.9800  -12.9170   21.9750 N   0  0  0  0  0  0  0  0  0  0  0  0
  -22.3020  -14.6190   20.5730 O   0  0  0  0  0  0  0  0  0  0  0  0
  -22.3350  -12.0920   22.4350 H   0  0  0  0  0  0  0  0  0  0  0  0
  -21.0390  -13.2240   22.1760 H   0  0  0  0  0  0  0  0  0  0  0  0
  -25.3640  -15.2540   20.3210 N   0  0  0  0  0  0  0  0  0  0  0  0
  -24.5840  -15.8980   20.3890 H   0  0  0  0  0  0  0  0  0  0  0  0
  -26.1860  -15.6790   19.9110 H   0  0  0  0  0  0  0  0  0  0  0  0
  1  3  1  0
  2  1  2  0
  2  4  1  0
  3  6  2  0
  4  7  2  0
  5  8  2  0
  6  5  1  0
  7  6  1  0
  7 10  1  0
  8 14  1  0
  9  8  1  0
  9 59  1  0
 10  9  2  0
 11 10  1  0
 11 13  1  0
 12 11  1  0
 15 14  2  0
 15 16  1  0
 17 16  1  0
 18 20  1  0
 18 16  1  0
 19 30  2  0
 20 25  1  0
 21 29  1  0
 21 31  1  0
 22 28  1  0
 22 24  1  0
 23 29  1  0
 24 23  1  0
 25 24  2  0
 26 20  2  0
 27 26  1  0
 27 22  2  0
 28 21  1  0
 29 19  1  0
 31 33  2  0
 32 31  1  0
 34 32  1  0
 35 44  2  0
 35 40  1  0
 36 32  1  0
 36 40  1  0
 37 36  1  0
 38 39  1  0
 38 37  1  0
 39 35  1  0
 40 41  2  0
 41 42  1  0
 43 42  2  0
 44 43  1  0
 45 19  1  0
 45 46  1  0
 45 55  1  0
 46 49  1  0
 47 51  1  0
 47 46  1  0
 48 47  2  0
 51 50  1  0
 53 51  1  0
 53 54  1  0
 53 52  1  0
 55 58  1  1
 55 56  1  0
 57 55  1  0
 60 68  1  0
 61 66  1  0
 62 63  1  0
 62 61  1  0
 64 63  1  0
 64 73  1  0
 64 65  1  0
 66 60  1  0
 66 65  1  0
 67 60  2  0
 68 69  1  0
 68 59  1  0
 70 71  2  0
 71 90  1  0
 72 71  1  0
 72 75  1  0
 73 70  1  0
 73 74  1  0
 74 72  2  0
 75 76  1  0
 76 77  2  0
 78 81  1  0
 78 77  1  0
 79 78  2  0
 80 79  1  0
 80 75  2  0
 81 82  1  0
 82 83  1  0
 83 84  2  0
 85 84  1  0
 85 89  1  0
 86 85  2  0
 87 82  2  0
 87 86  1  0
 88 87  1  0
 90 91  1  0
 91 94  1  0
 91 93  1  0
 92 90  2  0
 95 96  1  0
 95 70  1  0
 97 95  1  0
M  ISO  4  16 101  18 101  60 100  68 100
M  END
>  <TORSDO>  (57) 
F 21

>  <SCORE>  (57) 
-14.480

>  <name>  (57) 
57

>  <ligand_id>  (57) 
57

>  <original_smiles>  (57) 
[H]c1c([H])c([H])c2c(c1[H])C([H])([H])C([H])([H])C([H])([H])C2([H])N([H])C(=O)C1([H])N(C(=O)C([H])(N([H])C(=O)C([H])(N([H])C([H])([H])[H])C([H])([H])[H])C(C([H])([H])[H])(C([H])([H])[H])C([H])([H])[H])C([H])([H])c2c([H])c(ON([H])C([H])([H])C([H])([H])c3c(C([H])([H])N([H])C(=O)N4C([H])([H])C([H])([H])C([H])([H])C([H])(n5nc(-c6c([H])c([H])c(Oc7c([H])c([H])c(F)c([H])c7F)c([H])c6[H])c(C(=O)N([H])[H])c5N([H])[H])C4([H])[H])c(N([H])[H])c4c([H])c([H])c([H])c([H])c4c3[H])c([H])c([H])c2C1([H])[H]

>  <smiles>  (57) 
[H]c1c([H])c([H])c2c(c1[H])C([H])([H])C([H])([H])C([H])([H])C2([H])N([H])C(=O)C1([H])N(C(=O)C([H])(N([H])C(=O)C([H])(N([H])C([H])([H])[H])C([H])([H])[H])C(C([H])([H])[H])(C([H])([H])[H])C([H])([H])[H])C([H])([H])c2c([H])c(ON([H])C([H])([H])C([H])([H])c3c(C([H])([H])N([H])C(=O)N4C([H])([H])C([H])([H])C([H])([H])C([H])(n5nc(-c6c([H])c([H])c(Oc7c([H])c([H])c(F)c([H])c7F)c([H])c6[H])c(C(=O)N([H])[H])c5N([H])[H])C4([H])[H])c(N([H])[H])c4c([H])c([H])c([H])c([H])c4c3[H])c([H])c([H])c2C1([H])[H]

$$$$
58:0:0
     RDKit          3D

 92101  0  0  1  0  0  0  0  0999 V2000
  -27.0220  -20.0420   20.3800 C   0  0  0  0  0  3  0  0  0  0  0  0
  -31.9610  -19.7490   19.6570 C   0  0  0  0  0  3  0  0  0  0  0  0
  -27.9300  -18.9560   20.2910 C   0  0  0  0  0  3  0  0  0  0  0  0
  -31.0510  -20.8290   19.7520 C   0  0  0  0  0  3  0  0  0  0  0  0
  -27.4100  -21.4030   20.2690 C   0  0  0  0  0  3  0  0  0  0  0  0
  -31.5790  -18.3890   19.7660 C   0  0  0  0  0  3  0  0  0  0  0  0
  -29.6770  -20.6150   19.9660 C   0  0  0  0  0  0  0  0  0  0  0  0
  -29.3080  -19.1610   20.0770 C   0  0  0  0  0  0  0  0  0  0  0  0
  -28.7480  -21.8050   20.0590 C   0  0  0  0  0  0  0  0  0  0  0  0
  -30.2430  -17.9720   19.9820 C   0  0  0  0  0  0  0  0  0  0  0  0
  -30.7440  -15.2180   19.8880 C   0  0  0  0  0  0  0  0  0  0  0  0
  -30.6200  -12.8410   18.9540 C   0  0  0  0  0  2  0  0  0  0  0  0
  -29.6170  -12.7430   17.7820 C   0  0  0  0  0  2  0  0  0  0  0  0
  -28.1920  -12.4880   18.3070 C   0  0  0  0  0  2  0  0  0  0  0  0
  -27.8330  -13.4070   19.5010 C   0  0  0  0  0  3  0  0  0  0  0  0
  -28.9550  -13.4730   20.5590 C   0  0  0  0  0  2  0  0  0  0  0  0
  -30.1630  -13.9390   19.8650 N   0  0  0  0  0  0  0  0  0  0  0  0
  -31.9350  -15.2520   19.5530 O   0  0  0  0  0  0  0  0  0  0  0  0
  -29.9700  -16.4290   20.0810 N   0  0  0  0  0  0  0  0  0  0  0  0
  -29.0110  -16.2120   20.3050 H   0  0  0  0  0  0  0  0  0  0  0  0
  -25.5160  -13.9360   20.4390 C   0  0  0  0  0  0  0  0  0  0  0  0
  -24.4830  -13.1400   20.8500 C   0  0  0  0  0  0  0  0  0  0  0  0
  -24.9470  -11.7940   20.7270 C   0  0  0  0  0  0  0  0  0  0  0  0
  -26.5390  -13.0750   20.0850 N   0  0  0  0  0  0  0  0  0  0  0  0
  -26.2120  -11.7780   20.3240 N   0  0  0  0  0  0  0  0  0  0  0  0
  -24.2340  -10.5220   20.9090 C   0  0  0  0  0  0  0  0  0  0  0  0
  -24.6580   -9.5690   21.8620 C   0  0  0  0  0  3  0  0  0  0  0  0
  -23.9430   -8.3630   22.0340 C   0  0  0  0  0  3  0  0  0  0  0  0
  -22.7920   -8.1020   21.2530 C   0  0  0  0  0  0  0  0  0  0  0  0
  -22.3890   -9.0450   20.2910 C   0  0  0  0  0  3  0  0  0  0  0  0
  -23.1040  -10.2420   20.1170 C   0  0  0  0  0  3  0  0  0  0  0  0
  -22.0510   -6.9480   21.3340 O   0  0  0  0  0  0  0  0  0  0  0  0
  -21.8730   -6.2890   22.5240 C   0  0  0  0  0  0  0  0  0  0  0  0
  -21.2410   -6.9020   23.6280 C   0  0  0  0  0  3  0  0  0  0  0  0
  -21.0160   -6.1660   24.8080 C   0  0  0  0  0  3  0  0  0  0  0  0
  -21.4100   -4.8180   24.8830 C   0  0  0  0  0  0  0  0  0  0  0  0
  -22.0330   -4.2030   23.7840 C   0  0  0  0  0  3  0  0  0  0  0  0
  -22.2610   -4.9370   22.6050 C   0  0  0  0  0  0  0  0  0  0  0  0
  -22.8420   -4.3340   21.5410 F   0  0  0  0  0  0  0  0  0  0  0  0
  -21.1870   -4.1080   26.0150 F   0  0  0  0  0  0  0  0  0  0  0  0
  -23.1070  -13.6000   21.2360 C   0  0  0  0  0  0  0  0  0  0  0  0
  -22.4460  -12.8710   22.1270 N   0  0  0  0  0  0  0  0  0  0  0  0
  -22.6320  -14.6420   20.7840 O   0  0  0  0  0  0  0  0  0  0  0  0
  -22.8440  -12.0290   22.5130 H   0  0  0  0  0  0  0  0  0  0  0  0
  -21.5250  -13.1600   22.4270 H   0  0  0  0  0  0  0  0  0  0  0  0
  -25.6620  -15.3140   20.3060 N   0  0  0  0  0  0  0  0  0  0  0  0
  -24.8910  -15.9490   20.4800 H   0  0  0  0  0  0  0  0  0  0  0  0
  -26.4500  -15.7610   19.8580 H   0  0  0  0  0  0  0  0  0  0  0  0
  -29.0390  -23.4680   19.9560 C   0  0  0  0  0  2  0  0  0  0  0  0
  -27.9590  -24.6150   20.1330 N   0  0  0  0  0  0  0  0  0  0  0  0
  -27.5860  -24.5450   21.0750 H   0  0  0  0  0  0  0  0  0  0  0  0
  -28.3830  -26.1820   19.9720 O   0  0  0  0  0  0  0  0  0  0  0  0
  -24.7340  -31.8240   23.1960 C   0  0  0  0  0  0  0  0  0  0  0  0
  -27.3290  -27.1890   19.9970 C   0  0  0  0  0  0  0  0  0  0  0  0
  -23.5420  -30.4830   21.5080 C   0  0  0  0  0  3  0  0  0  0  0  0
  -24.9990  -28.9610   20.0240 C   0  0  0  0  0  0  0  0  0  0  0  0
  -26.0980  -30.7520   21.3580 C   0  0  0  0  0  2  0  0  0  0  0  0
  -26.1770  -29.3770   20.6580 C   0  0  0  0  0  0  0  0  0  0  0  0
  -27.3390  -28.5050   20.6320 C   0  0  0  0  0  3  0  0  0  0  0  0
  -26.1280  -26.8960   19.3170 C   0  0  0  0  0  3  0  0  0  0  0  0
  -24.9900  -27.7360   19.3380 C   0  0  0  0  0  3  0  0  0  0  0  0
  -23.7700  -29.8560   20.1050 C   0  0  0  0  0  2  0  0  0  0  0  0
  -24.8120  -31.0410   22.0760 N   0  0  0  0  0  0  0  0  0  0  0  0
  -23.6460  -32.0840   23.7340 O   0  0  0  0  0  0  0  0  0  0  0  0
  -22.8670  -29.4410   22.4330 C   0  0  0  0  0  0  0  0  0  0  0  0
  -21.5380  -29.2680   22.3020 N   0  0  0  0  0  0  0  0  0  0  0  0
  -23.5400  -28.7880   23.2350 O   0  0  0  0  0  0  0  0  0  0  0  0
  -21.0500  -29.8460   21.6330 H   0  0  0  0  0  0  0  0  0  0  0  0
  -18.1580  -28.0600   22.8020 C   0  0  0  0  0  0  0  0  0  0  0  0
  -20.7240  -28.2980   23.0390 C   0  0  0  0  0  3  0  0  0  0  0  0
  -20.8070  -26.8960   22.3930 C   0  0  0  0  0  2  0  0  0  0  0  0
  -19.6870  -26.6290   21.3820 C   0  0  0  0  0  2  0  0  0  0  0  0
  -18.3160  -26.7470   22.0550 C   0  0  0  0  0  2  0  0  0  0  0  0
  -19.2880  -28.7960   23.2510 C   0  0  0  0  0  0  0  0  0  0  0  0
  -19.0830  -30.0260   23.9130 C   0  0  0  0  0  3  0  0  0  0  0  0
  -17.7830  -30.5200   24.1290 C   0  0  0  0  0  3  0  0  0  0  0  0
  -16.6690  -29.7820   23.6950 C   0  0  0  0  0  3  0  0  0  0  0  0
  -16.8570  -28.5530   23.0380 C   0  0  0  0  0  3  0  0  0  0  0  0
  -26.0070  -32.4470   23.8470 C   0  0  0  0  0  3  0  0  0  0  0  0
  -25.6950  -33.8400   24.2050 N   0  0  0  0  0  0  0  0  0  0  0  0
  -25.9920  -34.9090   23.4530 C   0  0  0  0  0  0  0  0  0  0  0  0
  -26.6250  -34.8250   22.3970 O   0  0  0  0  0  0  0  0  0  0  0  0
  -25.1280  -33.9780   25.0290 H   0  0  0  0  0  0  0  0  0  0  0  0
  -24.2230  -36.6830   23.2200 C   0  0  0  0  0  1  0  0  0  0  0  0
  -25.5160  -36.2880   23.9500 C   0  0  0  0  0  3  0  0  0  0  0  0
  -27.6770  -37.2070   24.6690 C   0  0  0  0  0  1  0  0  0  0  0  0
  -26.5250  -37.3570   23.7830 N   0  0  0  0  0  0  0  0  0  0  0  0
  -26.1130  -38.2710   23.9490 H   0  0  0  0  0  0  0  0  0  0  0  0
  -26.5030  -31.6530   25.1200 C   0  0  1  0  0  0  0  0  0  0  0  0
  -25.3940  -31.4040   26.1690 C   0  0  0  0  0  1  0  0  0  0  0  0
  -27.0880  -30.2800   24.7210 C   0  0  0  0  0  1  0  0  0  0  0  0
  -27.6460  -32.4340   25.8100 C   0  0  0  0  0  1  0  0  0  0  0  0
  2  4  2  0
  2  6  1  0
  3  1  1  0
  4  7  1  0
  5  1  2  0
  6 10  2  0
  7  9  2  0
  7  8  1  0
  8  3  2  0
  9  5  1  0
 10  8  1  0
 10 19  1  0
 11 19  1  0
 12 17  1  0
 13 14  1  0
 13 12  1  0
 15 14  1  0
 15 24  1  0
 15 16  1  0
 17 11  1  0
 17 16  1  0
 18 11  2  0
 19 20  1  0
 21 22  2  0
 22 41  1  0
 23 22  1  0
 23 26  1  0
 24 25  1  0
 24 21  1  0
 25 23  2  0
 26 27  1  0
 27 28  2  0
 29 32  1  0
 29 28  1  0
 30 29  2  0
 31 30  1  0
 31 26  2  0
 32 33  1  0
 33 38  2  0
 33 34  1  0
 34 35  2  0
 35 36  1  0
 36 40  1  0
 37 36  2  0
 38 37  1  0
 39 38  1  0
 41 42  1  0
 42 45  1  0
 42 44  1  0
 43 41  2  0
 46 21  1  0
 46 47  1  0
 48 46  1  0
 49  9  1  0
 49 50  1  0
 50 51  1  0
 52 54  1  0
 52 50  1  0
 53 64  2  0
 54 59  1  0
 55 63  1  0
 55 65  1  0
 56 62  1  0
 56 58  1  0
 57 63  1  0
 58 57  1  0
 59 58  2  0
 60 61  1  0
 60 54  2  0
 61 56  2  0
 62 55  1  0
 63 53  1  0
 65 67  2  0
 66 65  1  0
 68 66  1  0
 69 78  2  0
 69 74  1  0
 70 66  1  0
 70 74  1  0
 71 70  1  0
 72 73  1  0
 72 71  1  0
 73 69  1  0
 74 75  2  0
 75 76  1  0
 77 76  2  0
 78 77  1  0
 79 53  1  0
 79 80  1  0
 79 89  1  0
 80 83  1  0
 81 85  1  0
 81 80  1  0
 82 81  2  0
 85 84  1  0
 87 88  1  0
 87 85  1  0
 87 86  1  0
 89 92  1  1
 89 90  1  0
 91 89  1  0
M  ISO  4  11 100  19 100  50 101  52 101
M  END
>  <TORSDO>  (58) 
F 18

>  <SCORE>  (58) 
-13.954

>  <name>  (58) 
58

>  <ligand_id>  (58) 
58

>  <original_smiles>  (58) 
[H]c1c([H])c([H])c2c(c1[H])C([H])([H])C([H])([H])C([H])([H])C2([H])N([H])C(=O)C1([H])N(C(=O)C([H])(N([H])C(=O)C([H])(N([H])C([H])([H])[H])C([H])([H])[H])C(C([H])([H])[H])(C([H])([H])[H])C([H])([H])[H])C([H])([H])c2c([H])c(ON([H])C([H])([H])c3c([H])c([H])c([H])c4c(N([H])C(=O)N5C([H])([H])C([H])([H])C([H])([H])C([H])(n6nc(-c7c([H])c([H])c(Oc8c([H])c([H])c(F)c([H])c8F)c([H])c7[H])c(C(=O)N([H])[H])c6N([H])[H])C5([H])[H])c([H])c([H])c([H])c34)c([H])c([H])c2C1([H])[H]

>  <smiles>  (58) 
[H]c1c([H])c([H])c2c(c1[H])C([H])([H])C([H])([H])C([H])([H])C2([H])N([H])C(=O)C1([H])N(C(=O)C([H])(N([H])C(=O)C([H])(N([H])C([H])([H])[H])C([H])([H])[H])C(C([H])([H])[H])(C([H])([H])[H])C([H])([H])[H])C([H])([H])c2c([H])c(ON([H])C([H])([H])c3c([H])c([H])c([H])c4c(N([H])C(=O)N5C([H])([H])C([H])([H])C([H])([H])C([H])(n6nc(-c7c([H])c([H])c(Oc8c([H])c([H])c(F)c([H])c8F)c([H])c7[H])c(C(=O)N([H])[H])c6N([H])[H])C5([H])[H])c([H])c([H])c([H])c34)c([H])c([H])c2C1([H])[H]

$$$$
59:0:0
     RDKit          3D

 92101  0  0  1  0  0  0  0  0999 V2000
  -30.7230  -20.2790   19.0460 C   0  0  0  0  0  3  0  0  0  0  0  0
  -30.9890  -18.8460   19.1510 C   0  0  0  0  0  3  0  0  0  0  0  0
  -29.1290  -18.6270   20.5980 C   0  0  0  0  0  3  0  0  0  0  0  0
  -27.9810  -22.1530   20.7220 C   0  0  0  0  0  3  0  0  0  0  0  0
  -28.8400  -20.0490   20.5320 C   0  0  0  0  0  0  0  0  0  0  0  0
  -29.6360  -20.9370   19.7200 C   0  0  0  0  0  0  0  0  0  0  0  0
  -30.1920  -17.9330   19.9260 C   0  0  0  0  0  0  0  0  0  0  0  0
  -27.8350  -20.8600   21.1570 C   0  0  0  0  0  0  0  0  0  0  0  0
  -29.0550  -22.3000   19.8440 N   0  0  0  0  0  0  0  0  0  0  0  0
  -31.1100  -15.3300   19.6670 C   0  0  0  0  0  0  0  0  0  0  0  0
  -31.0000  -12.9650   18.7700 C   0  0  0  0  0  2  0  0  0  0  0  0
  -29.9630  -12.8940   17.6230 C   0  0  0  0  0  2  0  0  0  0  0  0
  -28.5440  -12.6610   18.1770 C   0  0  0  0  0  2  0  0  0  0  0  0
  -28.2190  -13.5910   19.3760 C   0  0  0  0  0  3  0  0  0  0  0  0
  -29.3650  -13.6120   20.4110 C   0  0  0  0  0  2  0  0  0  0  0  0
  -30.5830  -14.0430   19.7060 N   0  0  0  0  0  0  0  0  0  0  0  0
  -32.2470  -15.4830   19.2060 O   0  0  0  0  0  0  0  0  0  0  0  0
  -30.2720  -16.4070   20.0350 N   0  0  0  0  0  0  0  0  0  0  0  0
  -29.4550  -16.0190   20.4830 H   0  0  0  0  0  0  0  0  0  0  0  0
  -25.9440  -14.1410   20.4190 C   0  0  0  0  0  0  0  0  0  0  0  0
  -24.9060  -13.3540   20.8320 C   0  0  0  0  0  0  0  0  0  0  0  0
  -25.3260  -12.0040   20.6230 C   0  0  0  0  0  0  0  0  0  0  0  0
  -26.9310  -13.2720   19.9850 N   0  0  0  0  0  0  0  0  0  0  0  0
  -26.5740  -11.9750   20.1690 N   0  0  0  0  0  0  0  0  0  0  0  0
  -24.5910  -10.7430   20.7770 C   0  0  0  0  0  0  0  0  0  0  0  0
  -25.0280   -9.7350   21.6640 C   0  0  0  0  0  3  0  0  0  0  0  0
  -24.2910   -8.5380   21.8070 C   0  0  0  0  0  3  0  0  0  0  0  0
  -23.1050   -8.3420   21.0640 C   0  0  0  0  0  0  0  0  0  0  0  0
  -22.6860   -9.3390   20.1650 C   0  0  0  0  0  3  0  0  0  0  0  0
  -23.4220  -10.5260   20.0180 C   0  0  0  0  0  3  0  0  0  0  0  0
  -22.3390   -7.2030   21.1190 O   0  0  0  0  0  0  0  0  0  0  0  0
  -22.1860   -6.4940   22.2830 C   0  0  0  0  0  0  0  0  0  0  0  0
  -21.6370   -7.0820   23.4450 C   0  0  0  0  0  3  0  0  0  0  0  0
  -21.4310   -6.3000   24.5990 C   0  0  0  0  0  3  0  0  0  0  0  0
  -21.7640   -4.9330   24.5920 C   0  0  0  0  0  0  0  0  0  0  0  0
  -22.3050   -4.3450   23.4350 C   0  0  0  0  0  3  0  0  0  0  0  0
  -22.5120   -5.1240   22.2840 C   0  0  0  0  0  0  0  0  0  0  0  0
  -23.0140   -4.5480   21.1650 F   0  0  0  0  0  0  0  0  0  0  0  0
  -21.5590   -4.1790   25.6990 F   0  0  0  0  0  0  0  0  0  0  0  0
  -23.5600  -13.8270   21.3000 C   0  0  0  0  0  0  0  0  0  0  0  0
  -22.9150  -13.0670   22.1780 N   0  0  0  0  0  0  0  0  0  0  0  0
  -23.0940  -14.9020   20.9230 O   0  0  0  0  0  0  0  0  0  0  0  0
  -23.3080  -12.1950   22.5010 H   0  0  0  0  0  0  0  0  0  0  0  0
  -22.0160  -13.3630   22.5330 H   0  0  0  0  0  0  0  0  0  0  0  0
  -26.1250  -15.5200   20.3520 N   0  0  0  0  0  0  0  0  0  0  0  0
  -25.3840  -16.1700   20.5970 H   0  0  0  0  0  0  0  0  0  0  0  0
  -26.9270  -15.9770   19.9370 H   0  0  0  0  0  0  0  0  0  0  0  0
  -26.8770  -20.4380   22.0400 O   0  0  0  0  0  0  0  0  0  0  0  0
  -27.0360  -19.5160   22.2220 H   0  0  0  0  0  0  0  0  0  0  0  0
  -29.3820  -23.7340   19.2800 C   0  0  0  0  0  3  0  0  0  0  0  0
  -28.3530  -25.0510   19.5010 C   0  0  0  0  0  3  0  0  0  0  0  0
  -28.5570  -26.5350   19.1000 O   0  0  0  0  0  0  0  0  0  0  0  0
  -25.0990  -31.6310   23.1430 C   0  0  0  0  0  0  0  0  0  0  0  0
  -27.5090  -27.5070   19.2650 C   0  0  0  0  0  0  0  0  0  0  0  0
  -23.8360  -30.5850   21.3010 C   0  0  0  0  0  3  0  0  0  0  0  0
  -25.2190  -29.2650   19.5880 C   0  0  0  0  0  0  0  0  0  0  0  0
  -26.3910  -30.8260   21.1350 C   0  0  0  0  0  2  0  0  0  0  0  0
  -26.4190  -29.5740   20.2440 C   0  0  0  0  0  0  0  0  0  0  0  0
  -27.5660  -28.7150   20.0660 C   0  0  0  0  0  3  0  0  0  0  0  0
  -26.2870  -27.3040   18.5860 C   0  0  0  0  0  3  0  0  0  0  0  0
  -25.1660  -28.1460   18.7440 C   0  0  0  0  0  3  0  0  0  0  0  0
  -24.0170  -30.1660   19.8190 C   0  0  0  0  0  2  0  0  0  0  0  0
  -25.1300  -31.0240   21.9170 N   0  0  0  0  0  0  0  0  0  0  0  0
  -24.0280  -31.8400   23.7340 O   0  0  0  0  0  0  0  0  0  0  0  0
  -23.1460  -29.4360   22.0780 C   0  0  0  0  0  0  0  0  0  0  0  0
  -21.8120  -29.3260   21.9520 N   0  0  0  0  0  0  0  0  0  0  0  0
  -23.8120  -28.6520   22.7590 O   0  0  0  0  0  0  0  0  0  0  0  0
  -21.3320  -30.0140   21.3880 H   0  0  0  0  0  0  0  0  0  0  0  0
  -18.3920  -28.2200   22.4110 C   0  0  0  0  0  0  0  0  0  0  0  0
  -20.9740  -28.2870   22.5560 C   0  0  0  0  0  3  0  0  0  0  0  0
  -20.9520  -27.0120   21.6830 C   0  0  0  0  0  2  0  0  0  0  0  0
  -19.7770  -26.9740   20.6990 C   0  0  0  0  0  2  0  0  0  0  0  0
  -18.4440  -27.0440   21.4510 C   0  0  0  0  0  2  0  0  0  0  0  0
  -19.5790  -28.8140   22.9180 C   0  0  0  0  0  0  0  0  0  0  0  0
  -19.4740  -29.9220   23.7850 C   0  0  0  0  0  3  0  0  0  0  0  0
  -18.2150  -30.4380   24.1460 C   0  0  0  0  0  3  0  0  0  0  0  0
  -17.0420  -29.8390   23.6520 C   0  0  0  0  0  3  0  0  0  0  0  0
  -17.1330  -28.7310   22.7910 C   0  0  0  0  0  3  0  0  0  0  0  0
  -26.4020  -32.1100   23.8510 C   0  0  0  0  0  3  0  0  0  0  0  0
  -26.8980  -31.1190   24.9750 C   0  0  1  0  0  0  0  0  0  0  0  0
  -25.8040  -30.7510   26.0050 C   0  0  0  0  0  1  0  0  0  0  0  0
  -27.4240  -29.8050   24.3560 C   0  0  0  0  0  1  0  0  0  0  0  0
  -28.0850  -31.7500   25.7410 C   0  0  0  0  0  1  0  0  0  0  0  0
  -26.1400  -33.4420   24.4180 N   0  0  0  0  0  0  0  0  0  0  0  0
  -26.4850  -34.6000   23.8390 C   0  0  0  0  0  0  0  0  0  0  0  0
  -27.1230  -34.6550   22.7840 O   0  0  0  0  0  0  0  0  0  0  0  0
  -25.5730  -33.4740   25.2510 H   0  0  0  0  0  0  0  0  0  0  0  0
  -24.7970  -36.4680   23.8590 C   0  0  0  0  0  1  0  0  0  0  0  0
  -26.0550  -35.9040   24.5400 C   0  0  0  0  0  3  0  0  0  0  0  0
  -28.2380  -36.5970   25.4250 C   0  0  0  0  0  1  0  0  0  0  0  0
  -27.1120  -36.9380   24.5610 N   0  0  0  0  0  0  0  0  0  0  0  0
  -26.7360  -37.8310   24.8680 H   0  0  0  0  0  0  0  0  0  0  0  0
  1  2  2  0
  1  6  1  0
  2  7  1  0
  4  8  2  0
  5  3  1  0
  5  8  1  0
  6  9  1  0
  6  5  2  0
  7 18  1  0
  7  3  2  0
  8 48  1  0
  9  4  1  0
 10 16  1  0
 10 18  1  0
 11 16  1  0
 12 13  1  0
 12 11  1  0
 14 13  1  0
 14 23  1  0
 14 15  1  0
 16 15  1  0
 17 10  2  0
 18 19  1  0
 20 21  2  0
 21 40  1  0
 22 25  1  0
 22 21  1  0
 23 24  1  0
 23 20  1  0
 24 22  2  0
 25 26  1  0
 26 27  2  0
 28 31  1  0
 28 27  1  0
 29 28  2  0
 30 29  1  0
 30 25  2  0
 31 32  1  0
 32 37  2  0
 32 33  1  0
 33 34  2  0
 35 34  1  0
 35 39  1  0
 36 35  2  0
 37 36  1  0
 38 37  1  0
 40 41  1  0
 41 43  1  0
 41 44  1  0
 42 40  2  0
 45 20  1  0
 45 46  1  0
 47 45  1  0
 48 49  1  0
 50 51  2  0
 50  9  1  0
 52 54  1  0
 52 51  1  0
 53 64  2  0
 54 59  1  0
 55 63  1  0
 55 65  1  0
 56 62  1  0
 56 58  1  0
 57 63  1  0
 58 57  1  0
 59 58  2  0
 60 61  1  0
 60 54  2  0
 61 56  2  0
 62 55  1  0
 63 53  1  0
 65 67  2  0
 66 65  1  0
 68 66  1  0
 69 78  2  0
 69 74  1  0
 70 66  1  0
 70 74  1  0
 71 70  1  0
 72 73  1  0
 72 71  1  0
 73 69  1  0
 74 75  2  0
 75 76  1  0
 77 76  2  0
 78 77  1  0
 79 53  1  0
 79 84  1  0
 79 80  1  0
 80 83  1  1
 80 81  1  0
 82 80  1  0
 84 87  1  0
 85 84  1  0
 85 89  1  0
 86 85  2  0
 89 88  1  0
 89 91  1  0
 91 92  1  0
 91 90  1  0
M  ISO  4  10 100  18 100  51 101  52 101
M  END
>  <TORSDO>  (59) 
F 19

>  <SCORE>  (59) 
-8.141

>  <name>  (59) 
59

>  <ligand_id>  (59) 
59

>  <original_smiles>  (59) 
[H]Oc1c([H])n(C([H])([H])C([H])([H])Oc2c([H])c([H])c3c(c2[H])C([H])([H])N(C(=O)C([H])(N([H])C(=O)C([H])(N([H])C([H])([H])[H])C([H])([H])[H])C(C([H])([H])[H])(C([H])([H])[H])C([H])([H])[H])C([H])(C(=O)N([H])C2([H])c4c([H])c([H])c([H])c([H])c4C([H])([H])C([H])([H])C2([H])[H])C3([H])[H])c2c([H])c([H])c(N([H])C(=O)N3C([H])([H])C([H])([H])C([H])([H])C([H])(n4nc(-c5c([H])c([H])c(Oc6c([H])c([H])c(F)c([H])c6F)c([H])c5[H])c(C(=O)N([H])[H])c4N([H])[H])C3([H])[H])c([H])c12

>  <smiles>  (59) 
[H]Oc1c([H])n(C([H])([H])C([H])([H])Oc2c([H])c([H])c3c(c2[H])C([H])([H])N(C(=O)C([H])(N([H])C(=O)C([H])(N([H])C([H])([H])[H])C([H])([H])[H])C(C([H])([H])[H])(C([H])([H])[H])C([H])([H])[H])C([H])(C(=O)N([H])C2([H])c4c([H])c([H])c([H])c([H])c4C([H])([H])C([H])([H])C2([H])[H])C3([H])[H])c2c([H])c([H])c(N([H])C(=O)N3C([H])([H])C([H])([H])C([H])([H])C([H])(n4nc(-c5c([H])c([H])c(Oc6c([H])c([H])c(F)c([H])c6F)c([H])c5[H])c(C(=O)N([H])[H])c4N([H])[H])C3([H])[H])c([H])c12

$$$$
60:0:0
     RDKit          3D

 95104  0  0  1  0  0  0  0  0999 V2000
  -31.0180  -21.7970   21.2210 C   0  0  0  0  0  2  0  0  0  0  0  0
  -28.8970  -21.5480   19.9830 C   0  0  0  0  0  2  0  0  0  0  0  0
  -31.3240  -23.0930   20.4380 C   0  0  0  0  0  2  0  0  0  0  0  0
  -29.2060  -22.8300   19.1790 C   0  0  0  0  0  2  0  0  0  0  0  0
  -30.1280  -20.9240   20.4580 N   0  0  0  0  0  0  0  0  0  0  0  0
  -30.1050  -23.7760   19.9070 N   0  0  2  0  0  4  0  0  0  0  0  0
  -29.5880  -24.0960   20.7140 H   0  0  0  0  0  0  0  0  0  0  0  0
  -31.4360  -18.8640   20.6420 C   0  0  0  0  0  3  0  0  0  0  0  0
  -31.5130  -17.4580   20.7340 C   0  0  0  0  0  3  0  0  0  0  0  0
  -29.0190  -18.7480   20.8190 C   0  0  0  0  0  3  0  0  0  0  0  0
  -30.1880  -19.5260   20.6510 C   0  0  0  0  0  0  0  0  0  0  0  0
  -30.3370  -16.6780   20.8430 C   0  0  0  0  0  0  0  0  0  0  0  0
  -29.0940  -17.3430   20.9300 C   0  0  0  0  0  0  0  0  0  0  0  0
  -27.6380  -16.4380   21.1530 Cl  0  0  0  0  0  0  0  0  0  0  0  0
  -30.8250  -14.4020   19.9560 C   0  0  0  0  0  0  0  0  0  0  0  0
  -30.3900  -12.3380   18.6710 C   0  0  0  0  0  2  0  0  0  0  0  0
  -29.3500  -12.6280   17.5700 C   0  0  0  0  0  2  0  0  0  0  0  0
  -27.9180  -12.4660   18.1140 C   0  0  0  0  0  2  0  0  0  0  0  0
  -27.6990  -13.2250   19.4500 C   0  0  0  0  0  3  0  0  0  0  0  0
  -28.8390  -12.9180   20.4470 C   0  0  0  0  0  2  0  0  0  0  0  0
  -30.1240  -13.2460   19.8000 N   0  0  0  0  0  0  0  0  0  0  0  0
  -31.8380  -14.6590   19.2990 O   0  0  0  0  0  0  0  0  0  0  0  0
  -30.3230  -15.2500   20.8690 N   0  0  0  0  0  0  0  0  0  0  0  0
  -29.5590  -14.8610   21.4010 H   0  0  0  0  0  0  0  0  0  0  0  0
  -25.3510  -13.7950   20.3470 C   0  0  0  0  0  0  0  0  0  0  0  0
  -24.3220  -13.0050   20.7830 C   0  0  0  0  0  0  0  0  0  0  0  0
  -24.7890  -11.6600   20.6830 C   0  0  0  0  0  0  0  0  0  0  0  0
  -26.3860  -12.9300   20.0220 N   0  0  0  0  0  0  0  0  0  0  0  0
  -26.0510  -11.6380   20.2740 N   0  0  0  0  0  0  0  0  0  0  0  0
  -24.0870  -10.3880   20.8980 C   0  0  0  0  0  0  0  0  0  0  0  0
  -24.5430   -9.4420   21.8430 C   0  0  0  0  0  3  0  0  0  0  0  0
  -23.8420   -8.2340   22.0430 C   0  0  0  0  0  3  0  0  0  0  0  0
  -22.6680   -7.9630   21.2990 C   0  0  0  0  0  0  0  0  0  0  0  0
  -22.2310   -8.8970   20.3440 C   0  0  0  0  0  3  0  0  0  0  0  0
  -22.9330  -10.0970   20.1410 C   0  0  0  0  0  3  0  0  0  0  0  0
  -21.9370   -6.8060   21.4090 O   0  0  0  0  0  0  0  0  0  0  0  0
  -21.8380   -6.1270   22.5970 C   0  0  0  0  0  0  0  0  0  0  0  0
  -21.3470   -6.7420   23.7700 C   0  0  0  0  0  3  0  0  0  0  0  0
  -21.1970   -5.9880   24.9510 C   0  0  0  0  0  3  0  0  0  0  0  0
  -21.5280   -4.6190   24.9590 C   0  0  0  0  0  0  0  0  0  0  0  0
  -22.0120   -4.0030   23.7910 C   0  0  0  0  0  3  0  0  0  0  0  0
  -22.1630   -4.7550   22.6130 C   0  0  0  0  0  0  0  0  0  0  0  0
  -22.6090   -4.1520   21.4850 F   0  0  0  0  0  0  0  0  0  0  0  0
  -21.3770   -3.8930   26.0920 F   0  0  0  0  0  0  0  0  0  0  0  0
  -22.9490  -13.4660   21.1810 C   0  0  0  0  0  0  0  0  0  0  0  0
  -22.3120  -12.7610   22.1120 N   0  0  0  0  0  0  0  0  0  0  0  0
  -22.4510  -14.4840   20.7040 O   0  0  0  0  0  0  0  0  0  0  0  0
  -22.7290  -11.9380   22.5200 H   0  0  0  0  0  0  0  0  0  0  0  0
  -21.3960  -13.0510   22.4210 H   0  0  0  0  0  0  0  0  0  0  0  0
  -25.4860  -15.1690   20.1820 N   0  0  0  0  0  0  0  0  0  0  0  0
  -24.7400  -15.8170   20.4060 H   0  0  0  0  0  0  0  0  0  0  0  0
  -26.3380  -15.6300   19.8930 H   0  0  0  0  0  0  0  0  0  0  0  0
  -30.4920  -24.9870   19.1120 C   0  0  0  0  0  2  0  0  0  0  0  0
  -29.3470  -25.9540   18.7310 C   0  0  0  0  0  2  0  0  0  0  0  0
  -28.9530  -26.7570   19.8500 O   0  0  0  0  0  0  0  0  0  0  0  0
  -24.6750  -31.4900   22.9970 C   0  0  0  0  0  0  0  0  0  0  0  0
  -27.7220  -27.3830   19.8110 C   0  0  0  0  0  0  0  0  0  0  0  0
  -23.6230  -30.0890   21.2510 C   0  0  0  0  0  3  0  0  0  0  0  0
  -25.2240  -28.7200   19.8160 C   0  0  0  0  0  0  0  0  0  0  0  0
  -26.1240  -30.6200   21.1660 C   0  0  0  0  0  2  0  0  0  0  0  0
  -26.3220  -29.2880   20.4730 C   0  0  0  0  0  0  0  0  0  0  0  0
  -27.5680  -28.6210   20.4780 C   0  0  0  0  0  3  0  0  0  0  0  0
  -26.5950  -26.8220   19.1640 C   0  0  0  0  0  3  0  0  0  0  0  0
  -25.3540  -27.4830   19.1650 C   0  0  0  0  0  3  0  0  0  0  0  0
  -23.9240  -29.4910   19.8520 C   0  0  0  0  0  2  0  0  0  0  0  0
  -24.8230  -30.7460   21.8640 N   0  0  0  0  0  0  0  0  0  0  0  0
  -23.5600  -31.6650   23.5080 O   0  0  0  0  0  0  0  0  0  0  0  0
  -23.0110  -28.9820   22.1400 C   0  0  0  0  0  0  0  0  0  0  0  0
  -21.6970  -28.7490   21.9860 N   0  0  0  0  0  0  0  0  0  0  0  0
  -23.7140  -28.3390   22.9250 O   0  0  0  0  0  0  0  0  0  0  0  0
  -21.1890  -29.3240   21.3280 H   0  0  0  0  0  0  0  0  0  0  0  0
  -18.3640  -27.4240   22.4180 C   0  0  0  0  0  0  0  0  0  0  0  0
  -20.9160  -27.7320   22.6890 C   0  0  0  0  0  3  0  0  0  0  0  0
  -21.0520  -26.3530   22.0030 C   0  0  0  0  0  2  0  0  0  0  0  0
  -19.9480  -26.0790   20.9760 C   0  0  0  0  0  2  0  0  0  0  0  0
  -18.5700  -26.1360   21.6410 C   0  0  0  0  0  2  0  0  0  0  0  0
  -19.4660  -28.1820   22.8980 C   0  0  0  0  0  0  0  0  0  0  0  0
  -19.2190  -29.3900   23.5850 C   0  0  0  0  0  3  0  0  0  0  0  0
  -17.9030  -29.8420   23.7980 C   0  0  0  0  0  3  0  0  0  0  0  0
  -16.8160  -29.0800   23.3350 C   0  0  0  0  0  3  0  0  0  0  0  0
  -17.0470  -27.8730   22.6530 C   0  0  0  0  0  3  0  0  0  0  0  0
  -25.8940  -32.1740   23.6910 C   0  0  0  0  0  3  0  0  0  0  0  0
  -26.4120  -31.3860   24.9570 C   0  0  1  0  0  0  0  0  0  0  0  0
  -25.2960  -31.0330   25.9670 C   0  0  0  0  0  1  0  0  0  0  0  0
  -27.1030  -30.0680   24.5350 C   0  0  0  0  0  1  0  0  0  0  0  0
  -27.4800  -32.2270   25.6970 C   0  0  0  0  0  1  0  0  0  0  0  0
  -25.4870  -33.5370   24.0550 N   0  0  0  0  0  0  0  0  0  0  0  0
  -25.7840  -34.6340   23.3470 C   0  0  0  0  0  0  0  0  0  0  0  0
  -26.5000  -34.6090   22.3420 O   0  0  0  0  0  0  0  0  0  0  0  0
  -24.8510  -33.6260   24.8350 H   0  0  0  0  0  0  0  0  0  0  0  0
  -23.9640  -36.3290   22.9760 C   0  0  0  0  0  1  0  0  0  0  0  0
  -25.1920  -35.9720   23.8290 C   0  0  0  0  0  3  0  0  0  0  0  0
  -27.2300  -36.9520   24.7840 C   0  0  0  0  0  1  0  0  0  0  0  0
  -26.1610  -37.0890   23.7990 N   0  0  0  0  0  0  0  0  0  0  0  0
  -25.6930  -37.9770   23.9580 H   0  0  0  0  0  0  0  0  0  0  0  0
  2  5  1  0
  3  1  1  0
  4  6  1  0
  4  2  1  0
  5 11  1  0
  5  1  1  0
  6  3  1  0
  6  7  1  1
  8 11  2  0
  8  9  1  0
  9 12  2  0
 10 13  2  0
 11 10  1  0
 12 23  1  0
 12 13  1  0
 13 14  1  0
 15 23  1  0
 16 21  1  0
 17 18  1  0
 17 16  1  0
 19 18  1  0
 19 28  1  0
 19 20  1  0
 21 15  1  0
 21 20  1  0
 22 15  2  0
 23 24  1  0
 25 26  2  0
 26 45  1  0
 27 26  1  0
 27 30  1  0
 28 29  1  0
 28 25  1  0
 29 27  2  0
 30 31  1  0
 31 32  2  0
 33 36  1  0
 33 32  1  0
 34 33  2  0
 35 34  1  0
 35 30  2  0
 36 37  1  0
 37 42  2  0
 37 38  1  0
 38 39  2  0
 39 40  1  0
 40 44  1  0
 41 40  2  0
 42 41  1  0
 43 42  1  0
 45 46  1  0
 46 49  1  0
 46 48  1  0
 47 45  2  0
 50 25  1  0
 50 51  1  0
 52 50  1  0
 53  6  1  0
 54 53  1  0
 54 55  1  0
 56 67  2  0
 57 55  1  0
 57 62  1  0
 58 66  1  0
 58 68  1  0
 59 65  1  0
 59 61  1  0
 60 66  1  0
 61 62  2  0
 61 60  1  0
 63 64  1  0
 63 57  2  0
 64 59  2  0
 65 58  1  0
 66 56  1  0
 68 70  2  0
 69 68  1  0
 71 69  1  0
 72 81  2  0
 72 77  1  0
 73 69  1  0
 73 77  1  0
 74 73  1  0
 75 76  1  0
 75 74  1  0
 76 72  1  0
 77 78  2  0
 78 79  1  0
 80 79  2  0
 81 80  1  0
 82 56  1  0
 82 87  1  0
 82 83  1  0
 83 86  1  1
 83 84  1  0
 85 83  1  0
 87 90  1  0
 88 92  1  0
 88 87  1  0
 89 88  2  0
 92 91  1  0
 94 92  1  0
 94 95  1  0
 94 93  1  0
M  ISO  4  15 100  23 100  54 101  55 101
M  END
>  <TORSDO>  (60) 
F 19

>  <SCORE>  (60) 
-12.314

>  <name>  (60) 
60

>  <ligand_id>  (60) 
60

>  <original_smiles>  (60) 
[H]c1c([H])c([H])c2c(c1[H])C([H])([H])C([H])([H])C([H])([H])C2([H])N([H])C(=O)C1([H])N(C(=O)C([H])(N([H])C(=O)C([H])(N([H])C([H])([H])[H])C([H])([H])[H])C(C([H])([H])[H])(C([H])([H])[H])C([H])([H])[H])C([H])([H])c2c([H])c(OC([H])([H])C([H])([H])[N+]3([H])C([H])([H])C([H])([H])N(c4c([H])c([H])c(N([H])C(=O)N5C([H])([H])C([H])([H])C([H])([H])C([H])(n6nc(-c7c([H])c([H])c(Oc8c([H])c([H])c(F)c([H])c8F)c([H])c7[H])c(C(=O)N([H])[H])c6N([H])[H])C5([H])[H])c(Cl)c4[H])C([H])([H])C3([H])[H])c([H])c([H])c2C1([H])[H]

>  <smiles>  (60) 
[H]c1c([H])c([H])c2c(c1[H])C([H])([H])C([H])([H])C([H])([H])C2([H])N([H])C(=O)C1([H])N(C(=O)C([H])(N([H])C(=O)C([H])(N([H])C([H])([H])[H])C([H])([H])[H])C(C([H])([H])[H])(C([H])([H])[H])C([H])([H])[H])C([H])([H])c2c([H])c(OC([H])([H])C([H])([H])[N+]3([H])C([H])([H])C([H])([H])N(c4c([H])c([H])c(N([H])C(=O)N5C([H])([H])C([H])([H])C([H])([H])C([H])(n6nc(-c7c([H])c([H])c(Oc8c([H])c([H])c(F)c([H])c8F)c([H])c7[H])c(C(=O)N([H])[H])c6N([H])[H])C5([H])[H])c(Cl)c4[H])C([H])([H])C3([H])[H])c([H])c([H])c2C1([H])[H]

$$$$
61:0:0
     RDKit          3D

 97106  0  0  1  0  0  0  0  0999 V2000
  -30.4920  -15.2310   20.3730 C   0  0  0  0  0  0  0  0  0  0  0  0
  -30.4170  -12.8090   19.4880 C   0  0  0  0  0  2  0  0  0  0  0  0
  -29.5090  -12.6280   18.2500 C   0  0  0  0  0  2  0  0  0  0  0  0
  -28.0550  -12.3720   18.6800 C   0  0  0  0  0  2  0  0  0  0  0  0
  -27.6000  -13.3360   19.8050 C   0  0  0  0  0  3  0  0  0  0  0  0
  -28.6410  -13.4790   20.9360 C   0  0  0  0  0  2  0  0  0  0  0  0
  -29.8820  -13.9530   20.3080 N   0  0  0  0  0  0  0  0  0  0  0  0
  -31.7100  -15.2000   20.1480 O   0  0  0  0  0  0  0  0  0  0  0  0
  -30.3330  -21.6560   21.5590 C   0  0  0  0  0  3  0  0  0  0  0  0
  -29.7140  -22.9260   21.2260 C   0  0  0  0  0  3  0  0  0  0  0  0
  -28.2510  -21.7050   19.8280 C   0  0  0  0  0  3  0  0  0  0  0  0
  -29.9710  -20.3590   21.0410 C   0  0  0  0  0  0  0  0  0  0  0  0
  -28.8940  -20.3720   20.1350 C   0  0  0  0  0  0  0  0  0  0  0  0
  -28.6100  -23.0740   20.3360 C   0  0  0  0  0  0  0  0  0  0  0  0
  -28.4300  -18.9060   19.6230 C   0  0  0  0  0  3  0  0  0  0  0  0
  -29.3610  -17.5180   19.4050 C   0  0  0  0  0  3  0  0  0  0  0  0
  -30.0530  -17.5350   21.6370 C   0  0  0  0  0  3  0  0  0  0  0  0
  -30.7520  -19.0100   21.4360 C   0  0  0  0  0  0  0  0  0  0  0  0
  -29.8040  -16.5320   20.5140 N   0  0  0  0  0  0  0  0  0  0  0  0
  -25.2220  -13.8870   20.5440 C   0  0  0  0  0  0  0  0  0  0  0  0
  -24.1580  -13.1070   20.9010 C   0  0  0  0  0  0  0  0  0  0  0  0
  -24.6280  -11.7580   20.8720 C   0  0  0  0  0  0  0  0  0  0  0  0
  -26.2690  -13.0150   20.3060 N   0  0  0  0  0  0  0  0  0  0  0  0
  -25.9230  -11.7290   20.5710 N   0  0  0  0  0  0  0  0  0  0  0  0
  -23.9030  -10.4930   21.0550 C   0  0  0  0  0  0  0  0  0  0  0  0
  -24.3290   -9.5240   21.9910 C   0  0  0  0  0  3  0  0  0  0  0  0
  -23.6010   -8.3270   22.1630 C   0  0  0  0  0  3  0  0  0  0  0  0
  -22.4340   -8.0890   21.4000 C   0  0  0  0  0  0  0  0  0  0  0  0
  -22.0270   -9.0460   20.4530 C   0  0  0  0  0  3  0  0  0  0  0  0
  -22.7560  -10.2340   20.2780 C   0  0  0  0  0  3  0  0  0  0  0  0
  -21.6780   -6.9440   21.4800 O   0  0  0  0  0  0  0  0  0  0  0  0
  -21.6170   -6.2020   22.6320 C   0  0  0  0  0  0  0  0  0  0  0  0
  -21.1590   -6.7530   23.8500 C   0  0  0  0  0  3  0  0  0  0  0  0
  -21.0470   -5.9360   24.9920 C   0  0  0  0  0  3  0  0  0  0  0  0
  -21.3800   -4.5710   24.9200 C   0  0  0  0  0  0  0  0  0  0  0  0
  -21.8310   -4.0200   23.7070 C   0  0  0  0  0  3  0  0  0  0  0  0
  -21.9470   -4.8330   22.5680 C   0  0  0  0  0  0  0  0  0  0  0  0
  -22.3620   -4.2920   21.3960 F   0  0  0  0  0  0  0  0  0  0  0  0
  -21.2650   -3.7850   26.0150 F   0  0  0  0  0  0  0  0  0  0  0  0
  -22.7570  -13.5810   21.1540 C   0  0  0  0  0  0  0  0  0  0  0  0
  -22.0250  -12.8880   22.0190 N   0  0  0  0  0  0  0  0  0  0  0  0
  -22.3230  -14.6020   20.6230 O   0  0  0  0  0  0  0  0  0  0  0  0
  -22.3900  -12.0650   22.4730 H   0  0  0  0  0  0  0  0  0  0  0  0
  -21.0850  -13.1920   22.2340 H   0  0  0  0  0  0  0  0  0  0  0  0
  -25.3810  -15.2590   20.3730 N   0  0  0  0  0  0  0  0  0  0  0  0
  -24.6130  -15.9100   20.4910 H   0  0  0  0  0  0  0  0  0  0  0  0
  -26.2380  -15.7060   20.0710 H   0  0  0  0  0  0  0  0  0  0  0  0
  -27.8950  -24.3970   20.0250 N   0  0  0  0  0  0  0  0  0  0  0  0
  -26.9790  -24.3440   19.5900 H   0  0  0  0  0  0  0  0  0  0  0  0
  -28.2500  -25.9720   20.3280 O   0  0  0  0  0  0  0  0  0  0  0  0
  -24.6540  -31.8730   23.2640 C   0  0  0  0  0  0  0  0  0  0  0  0
  -27.2190  -27.0330   20.2580 C   0  0  0  0  0  0  0  0  0  0  0  0
  -23.4650  -30.4810   21.6170 C   0  0  0  0  0  3  0  0  0  0  0  0
  -24.9170  -28.8830   20.2000 C   0  0  0  0  0  0  0  0  0  0  0  0
  -26.0270  -30.6980   21.4840 C   0  0  0  0  0  2  0  0  0  0  0  0
  -26.0970  -29.2920   20.8330 C   0  0  0  0  0  0  0  0  0  0  0  0
  -27.2400  -28.3830   20.8460 C   0  0  0  0  0  3  0  0  0  0  0  0
  -26.0170  -26.7670   19.5660 C   0  0  0  0  0  3  0  0  0  0  0  0
  -24.8990  -27.6390   19.5500 C   0  0  0  0  0  3  0  0  0  0  0  0
  -23.6990  -29.8010   20.2400 C   0  0  0  0  0  2  0  0  0  0  0  0
  -24.7360  -31.0430   22.1760 N   0  0  0  0  0  0  0  0  0  0  0  0
  -23.5630  -32.1650   23.7800 O   0  0  0  0  0  0  0  0  0  0  0  0
  -22.7670  -29.4840   22.5780 C   0  0  0  0  0  0  0  0  0  0  0  0
  -21.4370  -29.3220   22.4460 N   0  0  0  0  0  0  0  0  0  0  0  0
  -23.4270  -28.8550   23.4080 O   0  0  0  0  0  0  0  0  0  0  0  0
  -20.9570  -29.8800   21.7510 H   0  0  0  0  0  0  0  0  0  0  0  0
  -18.0470  -28.1320   22.9400 C   0  0  0  0  0  0  0  0  0  0  0  0
  -20.6070  -28.3880   23.2130 C   0  0  0  0  0  3  0  0  0  0  0  0
  -20.7050  -26.9560   22.6370 C   0  0  0  0  0  2  0  0  0  0  0  0
  -19.6050  -26.6390   21.6180 C   0  0  0  0  0  2  0  0  0  0  0  0
  -18.2220  -26.7860   22.2590 C   0  0  0  0  0  2  0  0  0  0  0  0
  -19.1670  -28.8910   23.3740 C   0  0  0  0  0  0  0  0  0  0  0  0
  -18.9470  -30.1500   23.9740 C   0  0  0  0  0  3  0  0  0  0  0  0
  -17.6430  -30.6510   24.1420 C   0  0  0  0  0  3  0  0  0  0  0  0
  -16.5380  -29.8890   23.7220 C   0  0  0  0  0  3  0  0  0  0  0  0
  -16.7410  -28.6310   23.1260 C   0  0  0  0  0  3  0  0  0  0  0  0
  -25.9240  -32.5110   23.9030 C   0  0  0  0  0  3  0  0  0  0  0  0
  -26.4110  -31.7530   25.2000 C   0  0  1  0  0  0  0  0  0  0  0  0
  -25.2970  -31.5390   26.2540 C   0  0  0  0  0  1  0  0  0  0  0  0
  -26.9890  -30.3650   24.8440 C   0  0  0  0  0  1  0  0  0  0  0  0
  -27.5570  -32.5470   25.8720 C   0  0  0  0  0  1  0  0  0  0  0  0
  -25.6140  -33.9150   24.2220 N   0  0  0  0  0  0  0  0  0  0  0  0
  -25.9380  -34.9650   23.4540 C   0  0  0  0  0  0  0  0  0  0  0  0
  -26.5920  -34.8530   22.4140 O   0  0  0  0  0  0  0  0  0  0  0  0
  -25.0280  -34.0750   25.0270 H   0  0  0  0  0  0  0  0  0  0  0  0
  -24.1960  -36.7560   23.1370 C   0  0  0  0  0  1  0  0  0  0  0  0
  -25.4630  -36.3600   23.9110 C   0  0  0  0  0  3  0  0  0  0  0  0
  -27.6200  -37.2630   24.6670 C   0  0  0  0  0  1  0  0  0  0  0  0
  -26.4890  -37.4150   23.7540 N   0  0  0  0  0  0  0  0  0  0  0  0
  -26.0840  -38.3350   23.9020 H   0  0  0  0  0  0  0  0  0  0  0  0
  -32.1200  -18.8740   20.7190 C   0  0  0  0  0  2  0  0  0  0  0  0
  -33.1140  -20.0280   20.9720 C   0  0  0  0  0  2  0  0  0  0  0  0
  -34.5670  -19.7270   20.5540 C   0  0  0  0  0  2  0  0  0  0  0  0
  -34.7120  -19.4480   19.1140 N   0  0  0  0  0  4  0  0  0  0  0  0
  -34.2530  -18.5900   18.8650 H   0  0  0  0  0  0  0  0  0  0  0  0
  -35.6870  -19.3540   18.8880 H   0  0  0  0  0  0  0  0  0  0  0  0
  -34.3380  -20.1990   18.5600 H   0  0  0  0  0  0  0  0  0  0  0  0
  1 19  1  0
  2  7  1  0
  3  4  1  0
  3  2  1  0
  5  4  1  0
  5 23  1  0
  5  6  1  0
  7  1  1  0
  7  6  1  0
  8  1  2  0
 10  9  1  0
 11 13  2  0
 11 14  1  0
 12 18  1  0
 12  9  2  0
 13 12  1  0
 14 10  2  0
 15 13  1  0
 16 15  2  0
 16 19  1  0
 18 17  2  3
 19 17  1  0
 20 21  2  0
 21 40  1  0
 22 21  1  0
 22 25  1  0
 23 20  1  0
 23 24  1  0
 24 22  2  0
 25 26  1  0
 26 27  2  0
 28 31  1  0
 28 27  1  0
 29 28  2  0
 30 29  1  0
 30 25  2  0
 31 32  1  0
 32 33  1  0
 33 34  2  0
 35 34  1  0
 35 39  1  0
 36 35  2  0
 37 32  2  0
 37 36  1  0
 38 37  1  0
 40 41  1  0
 41 44  1  0
 41 43  1  0
 42 40  2  0
 45 46  1  0
 45 20  1  0
 47 45  1  0
 48 50  1  0
 48 14  1  0
 49 48  1  0
 51 62  2  0
 52 50  1  0
 52 57  1  0
 53 61  1  0
 53 63  1  0
 54 60  1  0
 54 56  1  0
 55 61  1  0
 56 57  2  0
 56 55  1  0
 58 52  2  0
 59 58  1  0
 59 54  2  0
 60 53  1  0
 61 51  1  0
 63 65  2  0
 64 63  1  0
 66 64  1  0
 67 76  2  0
 67 72  1  0
 68 64  1  0
 68 72  1  0
 69 68  1  0
 70 71  1  0
 70 69  1  0
 71 67  1  0
 72 73  2  0
 73 74  1  0
 75 74  2  0
 76 75  1  0
 77 51  1  0
 77 82  1  0
 77 78  1  0
 78 81  1  1
 78 79  1  0
 80 78  1  0
 82 85  1  0
 83 87  1  0
 83 82  1  0
 84 83  2  0
 87 86  1  0
 89 90  1  0
 89 87  1  0
 89 88  1  0
 91 92  1  0
 91 18  1  0
 93 92  1  0
 94 93  1  0
 95 94  1  0
 96 94  1  0
 97 94  1  0
M  ISO  4   1 100  19 100  48 101  50 101
M  END
>  <TORSDO>  (61) 
F 20

>  <SCORE>  (61) 
-15.265

>  <name>  (61) 
61

>  <ligand_id>  (61) 
61

>  <original_smiles>  (61) 
[H]c1c([H])c([H])c2c(c1[H])C([H])([H])C([H])([H])C([H])([H])C2([H])N([H])C(=O)C1([H])N(C(=O)C([H])(N([H])C(=O)C([H])(N([H])C([H])([H])[H])C([H])([H])[H])C(C([H])([H])[H])(C([H])([H])[H])C([H])([H])[H])C([H])([H])c2c([H])c(ON([H])c3c([H])c([H])c4c(c3[H])C([H])([H])C([H])([H])N(C(=O)N3C([H])([H])C([H])([H])C([H])([H])C([H])(n5nc(-c6c([H])c([H])c(Oc7c([H])c([H])c(F)c([H])c7F)c([H])c6[H])c(C(=O)N([H])[H])c5N([H])[H])C3([H])[H])C([H])([H])C4([H])C([H])([H])C([H])([H])C([H])([H])[N+]([H])([H])[H])c([H])c([H])c2C1([H])[H]

>  <smiles>  (61) 
[H]c1c([H])c([H])c2c(c1[H])C([H])([H])C([H])([H])C([H])([H])C2([H])N([H])C(=O)C1([H])N(C(=O)C([H])(N([H])C(=O)C([H])(N([H])C([H])([H])[H])C([H])([H])[H])C(C([H])([H])[H])(C([H])([H])[H])C([H])([H])[H])C([H])([H])c2c([H])c(ON([H])c3c([H])c([H])c4c(c3[H])C([H])([H])C([H])([H])N(C(=O)N3C([H])([H])C([H])([H])C([H])([H])C([H])(n5nc(-c6c([H])c([H])c(Oc7c([H])c([H])c(F)c([H])c7F)c([H])c6[H])c(C(=O)N([H])[H])c5N([H])[H])C3([H])[H])C([H])([H])C4([H])C([H])([H])C([H])([H])C([H])([H])[N+]([H])([H])[H])c([H])c([H])c2C1([H])[H]

$$$$
62:0:0
     RDKit          3D

 92101  0  0  1  0  0  0  0  0999 V2000
  -28.1430  -24.0090   19.1080 C   0  0  0  0  0  2  0  0  0  0  0  0
  -29.2520  -24.2330   21.2480 C   0  0  0  0  0  2  0  0  0  0  0  0
  -28.0250  -22.4370   19.3480 C   0  0  0  0  0  2  0  0  0  0  0  0
  -29.1610  -22.6580   21.4670 C   0  0  0  0  0  2  0  0  0  0  0  0
  -28.1210  -24.9080   20.3950 C   0  0  0  0  0  3  0  0  0  0  0  0
  -29.0530  -21.8360   20.2370 N   0  0  0  0  0  0  0  0  0  0  0  0
  -28.2900  -19.4400   19.8070 C   0  0  0  0  0  3  0  0  0  0  0  0
  -28.4530  -18.0140   19.8820 C   0  0  0  0  0  3  0  0  0  0  0  0
  -30.5800  -18.2910   20.9080 C   0  0  0  0  0  3  0  0  0  0  0  0
  -29.2440  -20.3760   20.3080 C   0  0  0  0  0  0  0  0  0  0  0  0
  -29.6020  -17.3680   20.4290 C   0  0  0  0  0  0  0  0  0  0  0  0
  -30.4070  -19.7270   20.8590 C   0  0  0  0  0  0  0  0  0  0  0  0
  -31.4090  -20.4950   21.3540 F   0  0  0  0  0  0  0  0  0  0  0  0
  -30.4890  -14.8270   20.3660 C   0  0  0  0  0  0  0  0  0  0  0  0
  -30.3660  -12.5360   19.3520 C   0  0  0  0  0  2  0  0  0  0  0  0
  -29.4080  -12.5960   18.1390 C   0  0  0  0  0  2  0  0  0  0  0  0
  -27.9410  -12.4040   18.5790 C   0  0  0  0  0  2  0  0  0  0  0  0
  -27.5680  -13.2830   19.8030 C   0  0  0  0  0  3  0  0  0  0  0  0
  -28.6380  -13.1800   20.9130 C   0  0  0  0  0  2  0  0  0  0  0  0
  -29.9250  -13.5680   20.3180 N   0  0  0  0  0  0  0  0  0  0  0  0
  -31.6690  -14.9910   20.0420 O   0  0  0  0  0  0  0  0  0  0  0  0
  -29.6030  -15.8800   20.5830 N   0  0  0  0  0  0  0  0  0  0  0  0
  -28.6820  -15.5060   20.7460 H   0  0  0  0  0  0  0  0  0  0  0  0
  -25.1860  -13.8690   20.5560 C   0  0  0  0  0  0  0  0  0  0  0  0
  -24.1240  -13.0920   20.9270 C   0  0  0  0  0  0  0  0  0  0  0  0
  -24.5870  -11.7420   20.8760 C   0  0  0  0  0  0  0  0  0  0  0  0
  -26.2280  -12.9910   20.3000 N   0  0  0  0  0  0  0  0  0  0  0  0
  -25.8740  -11.7060   20.5560 N   0  0  0  0  0  0  0  0  0  0  0  0
  -23.8610  -10.4770   21.0570 C   0  0  0  0  0  0  0  0  0  0  0  0
  -24.2910   -9.5060   21.9870 C   0  0  0  0  0  3  0  0  0  0  0  0
  -23.5650   -8.3070   22.1560 C   0  0  0  0  0  3  0  0  0  0  0  0
  -22.3950   -8.0720   21.3950 C   0  0  0  0  0  0  0  0  0  0  0  0
  -21.9840   -9.0330   20.4550 C   0  0  0  0  0  3  0  0  0  0  0  0
  -22.7100  -10.2230   20.2840 C   0  0  0  0  0  3  0  0  0  0  0  0
  -21.6420   -6.9260   21.4740 O   0  0  0  0  0  0  0  0  0  0  0  0
  -21.5780   -6.1850   22.6260 C   0  0  0  0  0  0  0  0  0  0  0  0
  -21.0860   -6.7250   23.8340 C   0  0  0  0  0  3  0  0  0  0  0  0
  -20.9730   -5.9070   24.9770 C   0  0  0  0  0  3  0  0  0  0  0  0
  -21.3410   -4.5510   24.9120 C   0  0  0  0  0  0  0  0  0  0  0  0
  -21.8270   -4.0100   23.7080 C   0  0  0  0  0  3  0  0  0  0  0  0
  -21.9420   -4.8240   22.5670 C   0  0  0  0  0  0  0  0  0  0  0  0
  -22.3900   -4.2920   21.4050 F   0  0  0  0  0  0  0  0  0  0  0  0
  -21.2260   -3.7630   26.0060 F   0  0  0  0  0  0  0  0  0  0  0  0
  -22.7290  -13.5670   21.2140 C   0  0  0  0  0  0  0  0  0  0  0  0
  -22.0080  -12.8640   22.0790 N   0  0  0  0  0  0  0  0  0  0  0  0
  -22.2870  -14.5970   20.7050 O   0  0  0  0  0  0  0  0  0  0  0  0
  -22.3780  -12.0310   22.5120 H   0  0  0  0  0  0  0  0  0  0  0  0
  -21.0730  -13.1640   22.3150 H   0  0  0  0  0  0  0  0  0  0  0  0
  -25.3460  -15.2420   20.3890 N   0  0  0  0  0  0  0  0  0  0  0  0
  -24.5680  -15.8850   20.4990 H   0  0  0  0  0  0  0  0  0  0  0  0
  -26.1660  -15.6810   19.9960 H   0  0  0  0  0  0  0  0  0  0  0  0
  -28.2790  -26.4120   20.2470 O   0  0  0  0  0  0  0  0  0  0  0  0
  -24.6110  -31.9250   23.2800 C   0  0  0  0  0  0  0  0  0  0  0  0
  -27.1670  -27.2920   20.2250 C   0  0  0  0  0  0  0  0  0  0  0  0
  -23.3900  -30.5350   21.6470 C   0  0  0  0  0  3  0  0  0  0  0  0
  -24.8220  -28.9620   20.2160 C   0  0  0  0  0  0  0  0  0  0  0  0
  -25.9360  -30.8200   21.4530 C   0  0  0  0  0  2  0  0  0  0  0  0
  -26.0010  -29.4360   20.8050 C   0  0  0  0  0  0  0  0  0  0  0  0
  -27.1780  -28.6160   20.7880 C   0  0  0  0  0  3  0  0  0  0  0  0
  -25.9600  -26.8820   19.6210 C   0  0  0  0  0  3  0  0  0  0  0  0
  -24.8070  -27.6940   19.6130 C   0  0  0  0  0  3  0  0  0  0  0  0
  -23.5940  -29.8530   20.2670 C   0  0  0  0  0  2  0  0  0  0  0  0
  -24.6660  -31.1130   22.1830 N   0  0  0  0  0  0  0  0  0  0  0  0
  -23.5320  -32.2120   23.8190 O   0  0  0  0  0  0  0  0  0  0  0  0
  -22.7190  -29.5290   22.6120 C   0  0  0  0  0  0  0  0  0  0  0  0
  -21.3950  -29.3410   22.4730 N   0  0  0  0  0  0  0  0  0  0  0  0
  -23.3910  -28.9180   23.4480 O   0  0  0  0  0  0  0  0  0  0  0  0
  -20.9100  -29.8860   21.7720 H   0  0  0  0  0  0  0  0  0  0  0  0
  -18.0220  -28.1140   22.9400 C   0  0  0  0  0  0  0  0  0  0  0  0
  -20.5740  -28.4070   23.2450 C   0  0  0  0  0  3  0  0  0  0  0  0
  -20.7000  -26.9680   22.6930 C   0  0  0  0  0  2  0  0  0  0  0  0
  -19.6170  -26.6190   21.6670 C   0  0  0  0  0  2  0  0  0  0  0  0
  -18.2240  -26.7570   22.2870 C   0  0  0  0  0  2  0  0  0  0  0  0
  -19.1260  -28.8960   23.3750 C   0  0  0  0  0  0  0  0  0  0  0  0
  -18.8830  -30.1640   23.9450 C   0  0  0  0  0  3  0  0  0  0  0  0
  -17.5700  -30.6520   24.0860 C   0  0  0  0  0  3  0  0  0  0  0  0
  -16.4810  -29.8680   23.6660 C   0  0  0  0  0  3  0  0  0  0  0  0
  -16.7080  -28.6020   23.0980 C   0  0  0  0  0  3  0  0  0  0  0  0
  -25.8990  -32.5500   23.8970 C   0  0  0  0  0  3  0  0  0  0  0  0
  -25.6020  -33.9530   24.2230 N   0  0  0  0  0  0  0  0  0  0  0  0
  -25.9220  -35.0000   23.4510 C   0  0  0  0  0  0  0  0  0  0  0  0
  -26.5660  -34.8870   22.4040 O   0  0  0  0  0  0  0  0  0  0  0  0
  -25.0290  -34.1160   25.0380 H   0  0  0  0  0  0  0  0  0  0  0  0
  -24.1910  -36.7990   23.1340 C   0  0  0  0  0  1  0  0  0  0  0  0
  -25.4540  -36.3950   23.9110 C   0  0  0  0  0  3  0  0  0  0  0  0
  -27.6100  -37.2840   24.6800 C   0  0  0  0  0  1  0  0  0  0  0  0
  -26.4870  -37.4430   23.7600 N   0  0  0  0  0  0  0  0  0  0  0  0
  -26.0860  -38.3660   23.9060 H   0  0  0  0  0  0  0  0  0  0  0  0
  -26.4090  -31.7820   25.1780 C   0  0  1  0  0  0  0  0  0  0  0  0
  -25.3140  -31.5580   26.2480 C   0  0  0  0  0  1  0  0  0  0  0  0
  -26.9830  -30.3970   24.7970 C   0  0  0  0  0  1  0  0  0  0  0  0
  -27.5650  -32.5720   25.8370 C   0  0  0  0  0  1  0  0  0  0  0  0
  1  3  1  0
  1  5  1  0
  2  4  1  0
  3  6  1  0
  5 52  1  0
  5  2  1  0
  6 10  1  0
  6  4  1  0
  7  8  2  0
  7 10  1  0
  8 11  1  0
 10 12  2  0
 11 22  1  0
 11  9  2  0
 12  9  1  0
 12 13  1  0
 14 22  1  0
 15 20  1  0
 16 17  1  0
 16 15  1  0
 18 17  1  0
 18 27  1  0
 18 19  1  0
 20 14  1  0
 20 19  1  0
 21 14  2  0
 22 23  1  0
 24 25  2  0
 25 44  1  0
 26 25  1  0
 26 29  1  0
 27 24  1  0
 27 28  1  0
 28 26  2  0
 29 30  1  0
 30 31  2  0
 32 35  1  0
 32 31  1  0
 33 32  2  0
 34 33  1  0
 34 29  2  0
 35 36  1  0
 36 37  1  0
 37 38  2  0
 39 38  1  0
 39 43  1  0
 40 39  2  0
 41 36  2  0
 41 40  1  0
 42 41  1  0
 44 45  1  0
 45 48  1  0
 45 47  1  0
 46 44  2  0
 49 50  1  0
 49 24  1  0
 51 49  1  0
 53 64  2  0
 54 52  1  0
 54 59  1  0
 55 63  1  0
 55 65  1  0
 56 62  1  0
 56 58  1  0
 57 63  1  0
 58 57  1  0
 59 58  2  0
 60 54  2  0
 61 60  1  0
 61 56  2  0
 62 55  1  0
 63 53  1  0
 65 67  2  0
 66 65  1  0
 68 66  1  0
 69 78  2  0
 69 74  1  0
 70 66  1  0
 70 74  1  0
 71 70  1  0
 72 73  1  0
 72 71  1  0
 73 69  1  0
 74 75  2  0
 75 76  1  0
 77 76  2  0
 78 77  1  0
 79 53  1  0
 79 80  1  0
 79 89  1  0
 80 83  1  0
 81 85  1  0
 81 80  1  0
 82 81  2  0
 85 84  1  0
 87 88  1  0
 87 85  1  0
 87 86  1  0
 89 92  1  1
 89 90  1  0
 91 89  1  0
M  ISO  4   5 101  14 100  22 100  52 101
M  END
>  <TORSDO>  (62) 
F 17

>  <SCORE>  (62) 
-15.448

>  <name>  (62) 
62

>  <ligand_id>  (62) 
62

>  <original_smiles>  (62) 
[H]c1c([H])c([H])c2c(c1[H])C([H])([H])C([H])([H])C([H])([H])C2([H])N([H])C(=O)C1([H])N(C(=O)C([H])(N([H])C(=O)C([H])(N([H])C([H])([H])[H])C([H])([H])[H])C(C([H])([H])[H])(C([H])([H])[H])C([H])([H])[H])C([H])([H])c2c([H])c(OC3([H])C([H])([H])C([H])([H])N(c4c([H])c([H])c(N([H])C(=O)N5C([H])([H])C([H])([H])C([H])([H])C([H])(n6nc(-c7c([H])c([H])c(Oc8c([H])c([H])c(F)c([H])c8F)c([H])c7[H])c(C(=O)N([H])[H])c6N([H])[H])C5([H])[H])c([H])c4F)C([H])([H])C3([H])[H])c([H])c([H])c2C1([H])[H]

>  <smiles>  (62) 
[H]c1c([H])c([H])c2c(c1[H])C([H])([H])C([H])([H])C([H])([H])C2([H])N([H])C(=O)C1([H])N(C(=O)C([H])(N([H])C(=O)C([H])(N([H])C([H])([H])[H])C([H])([H])[H])C(C([H])([H])[H])(C([H])([H])[H])C([H])([H])[H])C([H])([H])c2c([H])c(OC3([H])C([H])([H])C([H])([H])N(c4c([H])c([H])c(N([H])C(=O)N5C([H])([H])C([H])([H])C([H])([H])C([H])(n6nc(-c7c([H])c([H])c(Oc8c([H])c([H])c(F)c([H])c8F)c([H])c7[H])c(C(=O)N([H])[H])c6N([H])[H])C5([H])[H])c([H])c4F)C([H])([H])C3([H])[H])c([H])c([H])c2C1([H])[H]

$$$$
63:0:0
     RDKit          3D

 94103  0  0  1  0  0  0  0  0999 V2000
  -30.9410  -19.6760   20.0640 C   0  0  0  0  0  3  0  0  0  0  0  0
  -30.4240  -21.0050   19.9770 C   0  0  0  0  0  3  0  0  0  0  0  0
  -28.7560  -18.7700   19.7350 C   0  0  0  0  0  0  0  0  0  0  0  0
  -30.1320  -18.5080   19.9450 C   0  0  0  0  0  0  0  0  0  0  0  0
  -28.2390  -20.0780   19.6550 C   0  0  0  0  0  0  0  0  0  0  0  0
  -29.0450  -21.2450   19.7680 C   0  0  0  0  0  0  0  0  0  0  0  0
  -27.6490  -17.7800   19.5600 C   0  0  0  0  0  3  0  0  0  0  0  0
  -26.4570  -18.6980   19.2230 C   0  0  0  0  0  3  0  0  0  0  0  0
  -26.8580  -20.0950   19.4430 N   0  0  0  0  0  0  0  0  0  0  0  0
  -26.5330  -20.7940   18.7800 H   0  0  0  0  0  0  0  0  0  0  0  0
  -28.4340  -22.5320   19.6630 N   0  0  0  0  0  0  0  0  0  0  0  0
  -27.4210  -22.5000   19.7250 H   0  0  0  0  0  0  0  0  0  0  0  0
  -29.0460  -23.8770   19.8880 C   0  0  0  0  0  2  0  0  0  0  0  0
  -28.0910  -25.0650   19.4590 C   0  0  0  0  0  2  0  0  0  0  0  0
  -28.3650  -26.4780   19.7940 O   0  0  0  0  0  0  0  0  0  0  0  0
  -24.5770  -31.6660   23.0610 C   0  0  0  0  0  0  0  0  0  0  0  0
  -27.2530  -27.3350   19.7640 C   0  0  0  0  0  0  0  0  0  0  0  0
  -23.4000  -30.3560   21.3340 C   0  0  0  0  0  3  0  0  0  0  0  0
  -24.8760  -28.9190   19.8290 C   0  0  0  0  0  0  0  0  0  0  0  0
  -25.9370  -30.7150   21.1890 C   0  0  0  0  0  2  0  0  0  0  0  0
  -26.0360  -29.3820   20.4630 C   0  0  0  0  0  0  0  0  0  0  0  0
  -27.2310  -28.6020   20.4220 C   0  0  0  0  0  3  0  0  0  0  0  0
  -26.0690  -26.9370   19.0980 C   0  0  0  0  0  3  0  0  0  0  0  0
  -24.8940  -27.7040   19.1370 C   0  0  0  0  0  3  0  0  0  0  0  0
  -23.6290  -29.7720   19.9180 C   0  0  0  0  0  2  0  0  0  0  0  0
  -24.6570  -30.9250   21.9180 N   0  0  0  0  0  0  0  0  0  0  0  0
  -23.4880  -31.9010   23.6020 O   0  0  0  0  0  0  0  0  0  0  0  0
  -22.7440  -29.2730   22.2240 C   0  0  0  0  0  0  0  0  0  0  0  0
  -21.4130  -29.1270   22.1150 N   0  0  0  0  0  0  0  0  0  0  0  0
  -23.4300  -28.5720   22.9720 O   0  0  0  0  0  0  0  0  0  0  0  0
  -20.9200  -29.7470   21.4890 H   0  0  0  0  0  0  0  0  0  0  0  0
  -18.0200  -27.9870   22.6370 C   0  0  0  0  0  0  0  0  0  0  0  0
  -20.5930  -28.1460   22.8290 C   0  0  0  0  0  3  0  0  0  0  0  0
  -20.6280  -26.7710   22.1240 C   0  0  0  0  0  2  0  0  0  0  0  0
  -19.4800  -26.5740   21.1290 C   0  0  0  0  0  2  0  0  0  0  0  0
  -18.1280  -26.7000   21.8380 C   0  0  0  0  0  2  0  0  0  0  0  0
  -19.1780  -28.6760   23.0890 C   0  0  0  0  0  0  0  0  0  0  0  0
  -19.0230  -29.8870   23.7980 C   0  0  0  0  0  3  0  0  0  0  0  0
  -17.7420  -30.4060   24.0620 C   0  0  0  0  0  3  0  0  0  0  0  0
  -16.5990  -29.7140   23.6260 C   0  0  0  0  0  3  0  0  0  0  0  0
  -16.7380  -28.5070   22.9180 C   0  0  0  0  0  3  0  0  0  0  0  0
  -25.8490  -32.2730   23.7300 C   0  0  0  0  0  3  0  0  0  0  0  0
  -26.3300  -31.4640   24.9960 C   0  0  1  0  0  0  0  0  0  0  0  0
  -25.2150  -31.2190   26.0380 C   0  0  0  0  0  1  0  0  0  0  0  0
  -26.9010  -30.0870   24.5830 C   0  0  0  0  0  1  0  0  0  0  0  0
  -27.4820  -32.2250   25.6950 C   0  0  0  0  0  1  0  0  0  0  0  0
  -25.5390  -33.6640   24.0900 N   0  0  0  0  0  0  0  0  0  0  0  0
  -25.8840  -34.7330   23.3620 C   0  0  0  0  0  0  0  0  0  0  0  0
  -26.5690  -34.6540   22.3380 O   0  0  0  0  0  0  0  0  0  0  0  0
  -24.9330  -33.8000   24.8850 H   0  0  0  0  0  0  0  0  0  0  0  0
  -24.1600  -36.5360   23.0350 C   0  0  0  0  0  1  0  0  0  0  0  0
  -25.3940  -36.1120   23.8470 C   0  0  0  0  0  3  0  0  0  0  0  0
  -27.5200  -36.9760   24.7190 C   0  0  0  0  0  1  0  0  0  0  0  0
  -26.4280  -37.1660   23.7680 N   0  0  0  0  0  0  0  0  0  0  0  0
  -26.0220  -38.0820   23.9330 H   0  0  0  0  0  0  0  0  0  0  0  0
  -30.8240  -17.1120   20.1250 C   0  0  0  0  0  2  0  0  0  0  0  0
  -30.7520  -14.6160   19.9280 C   0  0  0  0  0  0  0  0  0  0  0  0
  -30.3590  -12.3870   18.9240 C   0  0  0  0  0  2  0  0  0  0  0  0
  -29.3590  -12.5120   17.7570 C   0  0  0  0  0  2  0  0  0  0  0  0
  -27.9150  -12.3850   18.2760 C   0  0  0  0  0  2  0  0  0  0  0  0
  -27.6400  -13.2830   19.5130 C   0  0  0  0  0  3  0  0  0  0  0  0
  -28.7620  -13.1710   20.5700 C   0  0  0  0  0  2  0  0  0  0  0  0
  -30.0350  -13.4500   19.8970 N   0  0  0  0  0  0  0  0  0  0  0  0
  -31.9060  -14.6520   19.4950 O   0  0  0  0  0  0  0  0  0  0  0  0
  -30.1230  -15.7900   20.2460 N   0  0  0  0  0  0  0  0  0  0  0  0
  -29.1610  -15.7680   20.5420 H   0  0  0  0  0  0  0  0  0  0  0  0
  -25.3150  -13.9140   20.4010 C   0  0  0  0  0  0  0  0  0  0  0  0
  -24.2600  -13.1560   20.8290 C   0  0  0  0  0  0  0  0  0  0  0  0
  -24.6870  -11.7960   20.7410 C   0  0  0  0  0  0  0  0  0  0  0  0
  -26.3230  -13.0190   20.0850 N   0  0  0  0  0  0  0  0  0  0  0  0
  -25.9540  -11.7380   20.3480 N   0  0  0  0  0  0  0  0  0  0  0  0
  -23.9440  -10.5470   20.9490 C   0  0  0  0  0  0  0  0  0  0  0  0
  -24.3920   -9.5620   21.8590 C   0  0  0  0  0  3  0  0  0  0  0  0
  -23.6500   -8.3790   22.0550 C   0  0  0  0  0  3  0  0  0  0  0  0
  -22.4450   -8.1710   21.3450 C   0  0  0  0  0  0  0  0  0  0  0  0
  -22.0140   -9.1430   20.4260 C   0  0  0  0  0  3  0  0  0  0  0  0
  -22.7570  -10.3180   20.2250 C   0  0  0  0  0  3  0  0  0  0  0  0
  -21.6700   -7.0400   21.4560 O   0  0  0  0  0  0  0  0  0  0  0  0
  -21.6210   -6.3120   22.6170 C   0  0  0  0  0  0  0  0  0  0  0  0
  -21.2130   -6.8860   23.8400 C   0  0  0  0  0  3  0  0  0  0  0  0
  -21.1110   -6.0840   24.9950 C   0  0  0  0  0  3  0  0  0  0  0  0
  -21.4080   -4.7100   24.9270 C   0  0  0  0  0  0  0  0  0  0  0  0
  -21.8090   -4.1350   23.7080 C   0  0  0  0  0  3  0  0  0  0  0  0
  -21.9130   -4.9340   22.5550 C   0  0  0  0  0  0  0  0  0  0  0  0
  -22.2800   -4.3710   21.3800 F   0  0  0  0  0  0  0  0  0  0  0  0
  -21.3020   -3.9370   26.0330 F   0  0  0  0  0  0  0  0  0  0  0  0
  -22.8940  -13.6600   21.1990 C   0  0  0  0  0  0  0  0  0  0  0  0
  -22.2130  -12.9690   22.1080 N   0  0  0  0  0  0  0  0  0  0  0  0
  -22.4440  -14.6990   20.7200 O   0  0  0  0  0  0  0  0  0  0  0  0
  -22.5920  -12.1280   22.5160 H   0  0  0  0  0  0  0  0  0  0  0  0
  -21.3000  -13.2880   22.4000 H   0  0  0  0  0  0  0  0  0  0  0  0
  -25.4930  -15.2820   20.2290 N   0  0  0  0  0  0  0  0  0  0  0  0
  -24.7210  -15.9280   20.3450 H   0  0  0  0  0  0  0  0  0  0  0  0
  -26.2760  -15.6850   19.7320 H   0  0  0  0  0  0  0  0  0  0  0  0
  2  1  1  0
  3  4  1  0
  4  1  2  0
  4 56  1  0
  5  3  2  0
  5  6  1  0
  6  2  2  0
  7  3  1  0
  8  9  1  0
  8  7  2  0
  9  5  1  0
 10  9  1  0
 11 12  1  0
 11  6  1  0
 11 13  1  0
 14 15  1  0
 14 13  1  0
 16 27  2  0
 17 15  1  0
 17 22  1  0
 18 26  1  0
 18 28  1  0
 19 25  1  0
 19 21  1  0
 20 26  1  0
 21 20  1  0
 22 21  2  0
 23 24  1  0
 23 17  2  0
 24 19  2  0
 25 18  1  0
 26 16  1  0
 28 30  2  0
 29 28  1  0
 31 29  1  0
 32 41  2  0
 32 37  1  0
 33 29  1  0
 33 37  1  0
 34 33  1  0
 35 36  1  0
 35 34  1  0
 36 32  1  0
 37 38  2  0
 38 39  1  0
 40 39  2  0
 41 40  1  0
 42 16  1  0
 42 47  1  0
 42 43  1  0
 43 46  1  1
 43 44  1  0
 45 43  1  0
 47 50  1  0
 48 52  1  0
 48 47  1  0
 49 48  2  0
 52 51  1  0
 54 52  1  0
 54 55  1  0
 54 53  1  0
 56 65  1  0
 57 65  1  0
 58 63  1  0
 59 60  1  0
 59 58  1  0
 61 60  1  0
 61 70  1  0
 61 62  1  0
 63 57  1  0
 63 62  1  0
 64 57  2  0
 65 66  1  0
 67 68  2  0
 68 87  1  0
 69 68  1  0
 69 72  1  0
 70 71  1  0
 70 67  1  0
 71 69  2  0
 72 73  1  0
 73 74  2  0
 75 78  1  0
 75 74  1  0
 76 75  2  0
 77 76  1  0
 77 72  2  0
 78 79  1  0
 79 80  1  0
 80 81  2  0
 82 81  1  0
 82 86  1  0
 83 82  2  0
 84 79  2  0
 84 83  1  0
 85 84  1  0
 87 88  1  0
 88 91  1  0
 88 90  1  0
 89 87  2  0
 92 93  1  0
 92 67  1  0
 94 92  1  0
M  ISO  4  14 101  15 101  57 100  65 100
M  END
>  <TORSDO>  (63) 
F 20

>  <SCORE>  (63) 
-13.350

>  <name>  (63) 
63

>  <ligand_id>  (63) 
63

>  <original_smiles>  (63) 
[H]c1c([H])c([H])c2c(c1[H])C([H])([H])C([H])([H])C([H])([H])C2([H])N([H])C(=O)C1([H])N(C(=O)C([H])(N([H])C(=O)C([H])(N([H])C([H])([H])[H])C([H])([H])[H])C(C([H])([H])[H])(C([H])([H])[H])C([H])([H])[H])C([H])([H])c2c([H])c(OC([H])([H])C([H])([H])N([H])c3c([H])c([H])c(C([H])([H])N([H])C(=O)N4C([H])([H])C([H])([H])C([H])([H])C([H])(n5nc(-c6c([H])c([H])c(Oc7c([H])c([H])c(F)c([H])c7F)c([H])c6[H])c(C(=O)N([H])[H])c5N([H])[H])C4([H])[H])c4c3N([H])C([H])([H])C4([H])[H])c([H])c([H])c2C1([H])[H]

>  <smiles>  (63) 
[H]c1c([H])c([H])c2c(c1[H])C([H])([H])C([H])([H])C([H])([H])C2([H])N([H])C(=O)C1([H])N(C(=O)C([H])(N([H])C(=O)C([H])(N([H])C([H])([H])[H])C([H])([H])[H])C(C([H])([H])[H])(C([H])([H])[H])C([H])([H])[H])C([H])([H])c2c([H])c(OC([H])([H])C([H])([H])N([H])c3c([H])c([H])c(C([H])([H])N([H])C(=O)N4C([H])([H])C([H])([H])C([H])([H])C([H])(n5nc(-c6c([H])c([H])c(Oc7c([H])c([H])c(F)c([H])c7F)c([H])c6[H])c(C(=O)N([H])[H])c5N([H])[H])C4([H])[H])c4c3N([H])C([H])([H])C4([H])[H])c([H])c([H])c2C1([H])[H]

$$$$
64:0:0
     RDKit          3D

 86 94  0  0  1  0  0  0  0  0999 V2000
  -28.9280  -22.4220   20.4370 C   0  0  0  0  0  3  0  0  0  0  0  0
  -30.3970  -15.6130   20.0550 C   0  0  0  0  0  0  0  0  0  0  0  0
  -30.3460  -13.1130   19.2130 C   0  0  0  0  0  2  0  0  0  0  0  0
  -29.4130  -12.7660   18.0250 C   0  0  0  0  0  2  0  0  0  0  0  0
  -28.0010  -12.4430   18.5290 C   0  0  0  0  0  2  0  0  0  0  0  0
  -27.5450  -13.4400   19.6210 C   0  0  0  0  0  3  0  0  0  0  0  0
  -28.6170  -13.7290   20.6970 C   0  0  0  0  0  2  0  0  0  0  0  0
  -29.7790  -14.3040   19.9890 N   0  0  0  0  0  0  0  0  0  0  0  0
  -31.6150  -15.4720   19.8380 O   0  0  0  0  0  0  0  0  0  0  0  0
  -28.5110  -17.8360   20.4010 C   0  0  0  0  0  2  0  0  0  0  0  0
  -30.5540  -18.3250   19.5020 C   0  0  0  0  0  2  0  0  0  0  0  0
  -28.2930  -19.5360   20.7270 C   0  0  0  0  0  2  0  0  0  0  0  0
  -30.3320  -19.9820   19.8790 C   0  0  0  0  0  2  0  0  0  0  0  0
  -29.8290  -17.0540   20.0570 N   0  0  0  0  0  0  0  0  0  0  0  0
  -28.9680  -20.7400   19.9630 N   0  0  2  0  0  4  0  0  0  0  0  0
  -28.5950  -20.7230   19.0250 H   0  0  0  0  0  0  0  0  0  0  0  0
  -25.2180  -13.9680   20.4890 C   0  0  0  0  0  0  0  0  0  0  0  0
  -24.1710  -13.1820   20.8780 C   0  0  0  0  0  0  0  0  0  0  0  0
  -24.6360  -11.8320   20.8020 C   0  0  0  0  0  0  0  0  0  0  0  0
  -26.2490  -13.0990   20.1870 N   0  0  0  0  0  0  0  0  0  0  0  0
  -25.9160  -11.8060   20.4430 N   0  0  0  0  0  0  0  0  0  0  0  0
  -23.9130  -10.5670   20.9900 C   0  0  0  0  0  0  0  0  0  0  0  0
  -24.3460   -9.5980   21.9220 C   0  0  0  0  0  3  0  0  0  0  0  0
  -23.6190   -8.4010   22.1010 C   0  0  0  0  0  3  0  0  0  0  0  0
  -22.4440   -8.1650   21.3490 C   0  0  0  0  0  0  0  0  0  0  0  0
  -22.0300   -9.1220   20.4060 C   0  0  0  0  0  3  0  0  0  0  0  0
  -22.7580  -10.3100   20.2250 C   0  0  0  0  0  3  0  0  0  0  0  0
  -21.6880   -7.0210   21.4370 O   0  0  0  0  0  0  0  0  0  0  0  0
  -21.6050   -6.3010   22.6030 C   0  0  0  0  0  0  0  0  0  0  0  0
  -21.1020   -6.8690   23.7940 C   0  0  0  0  0  3  0  0  0  0  0  0
  -20.9680   -6.0750   24.9510 C   0  0  0  0  0  3  0  0  0  0  0  0
  -21.3280   -4.7150   24.9160 C   0  0  0  0  0  0  0  0  0  0  0  0
  -21.8230   -4.1460   23.7300 C   0  0  0  0  0  3  0  0  0  0  0  0
  -21.9580   -4.9380   22.5760 C   0  0  0  0  0  0  0  0  0  0  0  0
  -22.4170   -4.3790   21.4300 F   0  0  0  0  0  0  0  0  0  0  0  0
  -21.1910   -3.9490   26.0250 F   0  0  0  0  0  0  0  0  0  0  0  0
  -22.7840  -13.6550   21.2010 C   0  0  0  0  0  0  0  0  0  0  0  0
  -22.0860  -12.9480   22.0810 N   0  0  0  0  0  0  0  0  0  0  0  0
  -22.3330  -14.6880   20.7090 O   0  0  0  0  0  0  0  0  0  0  0  0
  -22.4670  -12.1120   22.4990 H   0  0  0  0  0  0  0  0  0  0  0  0
  -21.1570  -13.2480   22.3420 H   0  0  0  0  0  0  0  0  0  0  0  0
  -25.3760  -15.3420   20.3330 N   0  0  0  0  0  0  0  0  0  0  0  0
  -24.6110  -15.9920   20.4820 H   0  0  0  0  0  0  0  0  0  0  0  0
  -26.2090  -15.7840   19.9680 H   0  0  0  0  0  0  0  0  0  0  0  0
  -28.0550  -24.0330   19.9590 C   0  0  0  0  0  3  0  0  0  0  0  0
  -28.1800  -25.7260   20.2860 O   0  0  0  0  0  0  0  0  0  0  0  0
  -24.6740  -31.8880   23.2420 C   0  0  0  0  0  0  0  0  0  0  0  0
  -27.1960  -26.8980   20.2060 C   0  0  0  0  0  0  0  0  0  0  0  0
  -23.4770  -30.4990   21.6020 C   0  0  0  0  0  3  0  0  0  0  0  0
  -24.9190  -28.8760   20.1690 C   0  0  0  0  0  0  0  0  0  0  0  0
  -26.0500  -30.6680   21.4620 C   0  0  0  0  0  2  0  0  0  0  0  0
  -26.1130  -29.2480   20.7980 C   0  0  0  0  0  0  0  0  0  0  0  0
  -27.2390  -28.2830   20.7890 C   0  0  0  0  0  3  0  0  0  0  0  0
  -25.9730  -26.7190   19.5190 C   0  0  0  0  0  3  0  0  0  0  0  0
  -24.8830  -27.6370   19.5060 C   0  0  0  0  0  3  0  0  0  0  0  0
  -23.7080  -29.8150   20.2250 C   0  0  0  0  0  2  0  0  0  0  0  0
  -24.7570  -31.0490   22.1550 N   0  0  0  0  0  0  0  0  0  0  0  0
  -23.5840  -32.1810   23.7630 O   0  0  0  0  0  0  0  0  0  0  0  0
  -22.7740  -29.5100   22.5700 C   0  0  0  0  0  0  0  0  0  0  0  0
  -21.4440  -29.3430   22.4430 N   0  0  0  0  0  0  0  0  0  0  0  0
  -23.4360  -28.8900   23.4060 O   0  0  0  0  0  0  0  0  0  0  0  0
  -20.9600  -29.8950   21.7470 H   0  0  0  0  0  0  0  0  0  0  0  0
  -18.0650  -28.1090   22.9460 C   0  0  0  0  0  0  0  0  0  0  0  0
  -20.6230  -28.4010   23.2130 C   0  0  0  0  0  3  0  0  0  0  0  0
  -20.7360  -26.9690   22.6400 C   0  0  0  0  0  2  0  0  0  0  0  0
  -19.6390  -26.6360   21.6240 C   0  0  0  0  0  2  0  0  0  0  0  0
  -18.2550  -26.7640   22.2660 C   0  0  0  0  0  2  0  0  0  0  0  0
  -19.1750  -28.8860   23.3760 C   0  0  0  0  0  0  0  0  0  0  0  0
  -18.9390  -30.1400   23.9780 C   0  0  0  0  0  3  0  0  0  0  0  0
  -17.6280  -30.6220   24.1490 C   0  0  0  0  0  3  0  0  0  0  0  0
  -16.5330  -29.8460   23.7320 C   0  0  0  0  0  3  0  0  0  0  0  0
  -16.7530  -28.5910   23.1370 C   0  0  0  0  0  3  0  0  0  0  0  0
  -25.9430  -32.5330   23.8780 C   0  0  0  0  0  3  0  0  0  0  0  0
  -25.6300  -33.9390   24.1990 N   0  0  0  0  0  0  0  0  0  0  0  0
  -25.9440  -34.9920   23.4330 C   0  0  0  0  0  0  0  0  0  0  0  0
  -26.5850  -34.8830   22.3850 O   0  0  0  0  0  0  0  0  0  0  0  0
  -25.0550  -34.0960   25.0140 H   0  0  0  0  0  0  0  0  0  0  0  0
  -24.1960  -36.7850   23.1450 C   0  0  0  0  0  1  0  0  0  0  0  0
  -25.4750  -36.3870   23.9000 C   0  0  0  0  0  3  0  0  0  0  0  0
  -27.6370  -37.3000   24.6290 C   0  0  0  0  0  1  0  0  0  0  0  0
  -26.4980  -37.4430   23.7260 N   0  0  0  0  0  0  0  0  0  0  0  0
  -26.0940  -38.3640   23.8700 H   0  0  0  0  0  0  0  0  0  0  0  0
  -26.4300  -31.7820   25.1810 C   0  0  1  0  0  0  0  0  0  0  0  0
  -25.3170  -31.5720   26.2340 C   0  0  0  0  0  1  0  0  0  0  0  0
  -27.0110  -30.3920   24.8340 C   0  0  0  0  0  1  0  0  0  0  0  0
  -27.5750  -32.5810   25.8470 C   0  0  0  0  0  1  0  0  0  0  0  0
  2 14  1  0
  3  8  1  0
  4  5  1  0
  4  3  1  0
  6  5  1  0
  6 20  1  0
  6  7  1  0
  8  2  1  0
  8  7  1  0
  9  2  2  0
 10 12  1  0
 11 13  1  0
 11 14  1  0
 13 15  1  0
 14 10  1  0
 15  1  1  0
 15 12  1  0
 15 16  1  6
 17 18  2  0
 18 37  1  0
 19 18  1  0
 19 22  1  0
 20 21  1  0
 20 17  1  0
 21 19  2  0
 22 23  1  0
 23 24  2  0
 25 28  1  0
 25 24  1  0
 26 25  2  0
 27 26  1  0
 27 22  2  0
 28 29  1  0
 29 30  1  0
 30 31  2  0
 32 31  1  0
 32 36  1  0
 33 32  2  0
 34 29  2  0
 34 33  1  0
 35 34  1  0
 37 38  1  0
 38 41  1  0
 38 40  1  0
 39 37  2  0
 42 43  1  0
 42 17  1  0
 44 42  1  0
 45 46  1  0
 45  1  2  0
 47 58  2  0
 48 46  1  0
 48 53  1  0
 49 57  1  0
 49 59  1  0
 50 56  1  0
 50 52  1  0
 51 57  1  0
 52 51  1  0
 53 52  2  0
 54 48  2  0
 55 54  1  0
 55 50  2  0
 56 49  1  0
 57 47  1  0
 59 61  2  0
 60 59  1  0
 62 60  1  0
 63 72  2  0
 63 68  1  0
 64 60  1  0
 64 68  1  0
 65 64  1  0
 66 67  1  0
 66 65  1  0
 67 63  1  0
 68 69  2  0
 69 70  1  0
 71 70  2  0
 72 71  1  0
 73 47  1  0
 73 74  1  0
 73 83  1  0
 74 77  1  0
 75 79  1  0
 75 74  1  0
 76 75  2  0
 79 78  1  0
 81 82  1  0
 81 79  1  0
 81 80  1  0
 83 86  1  1
 83 84  1  0
 85 83  1  0
M  ISO  4   2 100  14 100  45 101  46 101
M  END
>  <TORSDO>  (64) 
F 17

>  <SCORE>  (64) 
-16.400

>  <name>  (64) 
64

>  <ligand_id>  (64) 
64

>  <original_smiles>  (64) 
[H]c1c([H])c([H])c2c(c1[H])C([H])([H])C([H])([H])C([H])([H])C2([H])N([H])C(=O)C1([H])N(C(=O)C([H])(N([H])C(=O)C([H])(N([H])C([H])([H])[H])C([H])([H])[H])C(C([H])([H])[H])(C([H])([H])[H])C([H])([H])[H])C([H])([H])c2c([H])c(OC([H])([H])C([H])([H])[N+]3([H])C([H])([H])C([H])([H])N(C(=O)N4C([H])([H])C([H])([H])C([H])([H])C([H])(n5nc(-c6c([H])c([H])c(Oc7c([H])c([H])c(F)c([H])c7F)c([H])c6[H])c(C(=O)N([H])[H])c5N([H])[H])C4([H])[H])C([H])([H])C3([H])[H])c([H])c([H])c2C1([H])[H]

>  <smiles>  (64) 
[H]c1c([H])c([H])c2c(c1[H])C([H])([H])C([H])([H])C([H])([H])C2([H])N([H])C(=O)C1([H])N(C(=O)C([H])(N([H])C(=O)C([H])(N([H])C([H])([H])[H])C([H])([H])[H])C(C([H])([H])[H])(C([H])([H])[H])C([H])([H])[H])C([H])([H])c2c([H])c(OC([H])([H])C([H])([H])[N+]3([H])C([H])([H])C([H])([H])N(C(=O)N4C([H])([H])C([H])([H])C([H])([H])C([H])(n5nc(-c6c([H])c([H])c(Oc7c([H])c([H])c(F)c([H])c7F)c([H])c6[H])c(C(=O)N([H])[H])c5N([H])[H])C4([H])[H])C([H])([H])C3([H])[H])c([H])c([H])c2C1([H])[H]

$$$$
65:0:0
     RDKit          3D

 94103  0  0  1  0  0  0  0  0999 V2000
  -27.1940  -22.4670   20.4290 C   0  0  0  0  0  0  0  0  0  0  0  0
  -28.9080  -22.2910   21.5850 C   0  0  0  0  0  2  0  0  0  0  0  0
  -27.8820  -21.2580   21.0970 C   0  0  0  0  0  3  0  0  0  0  0  0
  -28.0360  -23.3530   21.0530 N   0  0  0  0  0  0  0  0  0  0  0  0
  -26.2550  -22.6580   19.6840 O   0  0  0  0  0  0  0  0  0  0  0  0
  -27.6010  -19.5930   19.1820 C   0  0  0  0  0  3  0  0  0  0  0  0
  -27.9660  -18.4170   18.5020 C   0  0  0  0  0  3  0  0  0  0  0  0
  -29.3170  -19.1500   20.8520 C   0  0  0  0  0  3  0  0  0  0  0  0
  -28.2910  -19.9840   20.3500 C   0  0  0  0  0  0  0  0  0  0  0  0
  -29.6660  -17.9460   20.1960 C   0  0  0  0  0  0  0  0  0  0  0  0
  -29.0060  -17.6060   18.9910 C   0  0  0  0  0  0  0  0  0  0  0  0
  -29.3560  -16.5010   18.2920 F   0  0  0  0  0  0  0  0  0  0  0  0
  -30.7640  -17.0600   20.7890 C   0  0  0  0  0  2  0  0  0  0  0  0
  -31.0900  -14.6200   20.3560 C   0  0  0  0  0  0  0  0  0  0  0  0
  -30.7600  -12.4460   19.2570 C   0  0  0  0  0  2  0  0  0  0  0  0
  -29.8240  -12.6410   18.0450 C   0  0  0  0  0  2  0  0  0  0  0  0
  -28.3450  -12.5450   18.4690 C   0  0  0  0  0  2  0  0  0  0  0  0
  -28.0190  -13.4190   19.7080 C   0  0  0  0  0  3  0  0  0  0  0  0
  -29.0630  -13.1960   20.8270 C   0  0  0  0  0  2  0  0  0  0  0  0
  -30.3980  -13.4540   20.2630 N   0  0  0  0  0  0  0  0  0  0  0  0
  -32.2100  -14.7810   19.8670 O   0  0  0  0  0  0  0  0  0  0  0  0
  -30.4050  -15.6410   20.8930 N   0  0  0  0  0  0  0  0  0  0  0  0
  -29.4960  -15.4270   21.2690 H   0  0  0  0  0  0  0  0  0  0  0  0
  -25.6400  -14.1030   20.4130 C   0  0  0  0  0  0  0  0  0  0  0  0
  -24.5470  -13.3630   20.7800 C   0  0  0  0  0  0  0  0  0  0  0  0
  -24.9670  -11.9980   20.7460 C   0  0  0  0  0  0  0  0  0  0  0  0
  -26.6580  -13.1900   20.1830 N   0  0  0  0  0  0  0  0  0  0  0  0
  -26.2550  -11.9200   20.4390 N   0  0  0  0  0  0  0  0  0  0  0  0
  -24.2040  -10.7580   20.9330 C   0  0  0  0  0  0  0  0  0  0  0  0
  -24.5850   -9.7970   21.8960 C   0  0  0  0  0  3  0  0  0  0  0  0
  -23.8260   -8.6190   22.0700 C   0  0  0  0  0  3  0  0  0  0  0  0
  -22.6740   -8.3950   21.2810 C   0  0  0  0  0  0  0  0  0  0  0  0
  -22.3120   -9.3430   20.3090 C   0  0  0  0  0  3  0  0  0  0  0  0
  -23.0700  -10.5140   20.1320 C   0  0  0  0  0  3  0  0  0  0  0  0
  -21.8910   -7.2690   21.3630 O   0  0  0  0  0  0  0  0  0  0  0  0
  -21.7530   -6.5710   22.5360 C   0  0  0  0  0  0  0  0  0  0  0  0
  -21.2420   -7.1740   23.7060 C   0  0  0  0  0  3  0  0  0  0  0  0
  -21.0540   -6.4030   24.8710 C   0  0  0  0  0  3  0  0  0  0  0  0
  -21.3650   -5.0300   24.8640 C   0  0  0  0  0  0  0  0  0  0  0  0
  -21.8680   -4.4270   23.6990 C   0  0  0  0  0  3  0  0  0  0  0  0
  -22.0600   -5.1950   22.5370 C   0  0  0  0  0  0  0  0  0  0  0  0
  -22.5260   -4.6050   21.4110 F   0  0  0  0  0  0  0  0  0  0  0  0
  -21.1770   -4.2870   25.9800 F   0  0  0  0  0  0  0  0  0  0  0  0
  -23.1640  -13.8800   21.0520 C   0  0  0  0  0  0  0  0  0  0  0  0
  -22.4210  -13.2130   21.9290 N   0  0  0  0  0  0  0  0  0  0  0  0
  -22.7520  -14.9110   20.5230 O   0  0  0  0  0  0  0  0  0  0  0  0
  -22.7650  -12.3780   22.3800 H   0  0  0  0  0  0  0  0  0  0  0  0
  -21.4920  -13.5420   22.1530 H   0  0  0  0  0  0  0  0  0  0  0  0
  -25.8490  -15.4680   20.2390 N   0  0  0  0  0  0  0  0  0  0  0  0
  -25.1080  -16.1490   20.3600 H   0  0  0  0  0  0  0  0  0  0  0  0
  -26.7150  -15.8750   19.9120 H   0  0  0  0  0  0  0  0  0  0  0  0
  -28.0290  -24.8110   21.1640 C   0  0  0  0  0  2  0  0  0  0  0  0
  -28.4980  -25.5270   19.8780 C   0  0  0  0  0  2  0  0  0  0  0  0
  -28.4780  -26.9530   20.0330 O   0  0  0  0  0  0  0  0  0  0  0  0
  -24.5820  -31.9720   23.2160 C   0  0  0  0  0  0  0  0  0  0  0  0
  -27.2690  -27.6220   20.0440 C   0  0  0  0  0  0  0  0  0  0  0  0
  -23.3850  -30.5780   21.5620 C   0  0  0  0  0  3  0  0  0  0  0  0
  -24.8440  -29.0820   20.1060 C   0  0  0  0  0  0  0  0  0  0  0  0
  -25.9020  -30.9810   21.3480 C   0  0  0  0  0  2  0  0  0  0  0  0
  -26.0000  -29.6200   20.6850 C   0  0  0  0  0  0  0  0  0  0  0  0
  -27.2130  -28.8990   20.6440 C   0  0  0  0  0  3  0  0  0  0  0  0
  -26.0890  -27.0910   19.4710 C   0  0  0  0  0  3  0  0  0  0  0  0
  -24.8840  -27.8170   19.4980 C   0  0  0  0  0  3  0  0  0  0  0  0
  -23.5880  -29.9210   20.1710 C   0  0  0  0  0  2  0  0  0  0  0  0
  -24.6420  -31.1900   22.1010 N   0  0  0  0  0  0  0  0  0  0  0  0
  -23.5040  -32.2190   23.7700 O   0  0  0  0  0  0  0  0  0  0  0  0
  -22.7600  -29.5310   22.5100 C   0  0  0  0  0  0  0  0  0  0  0  0
  -21.4370  -29.3340   22.3930 N   0  0  0  0  0  0  0  0  0  0  0  0
  -23.4620  -28.8990   23.3040 O   0  0  0  0  0  0  0  0  0  0  0  0
  -20.9310  -29.9100   21.7360 H   0  0  0  0  0  0  0  0  0  0  0  0
  -18.0810  -28.0860   22.9060 C   0  0  0  0  0  0  0  0  0  0  0  0
  -20.6400  -28.3690   23.1500 C   0  0  0  0  0  3  0  0  0  0  0  0
  -20.7570  -26.9540   22.5410 C   0  0  0  0  0  2  0  0  0  0  0  0
  -19.6410  -26.6330   21.5410 C   0  0  0  0  0  2  0  0  0  0  0  0
  -18.2670  -26.7480   22.2110 C   0  0  0  0  0  2  0  0  0  0  0  0
  -19.1960  -28.8530   23.3340 C   0  0  0  0  0  0  0  0  0  0  0  0
  -18.9690  -30.1050   23.9470 C   0  0  0  0  0  3  0  0  0  0  0  0
  -17.6610  -30.5890   24.1370 C   0  0  0  0  0  3  0  0  0  0  0  0
  -16.5610  -29.8180   23.7250 C   0  0  0  0  0  3  0  0  0  0  0  0
  -16.7720  -28.5680   23.1140 C   0  0  0  0  0  3  0  0  0  0  0  0
  -25.8650  -32.6110   23.8330 C   0  0  0  0  0  3  0  0  0  0  0  0
  -26.3940  -31.8420   25.1050 C   0  0  1  0  0  0  0  0  0  0  0  0
  -25.3050  -31.5870   26.1730 C   0  0  0  0  0  1  0  0  0  0  0  0
  -26.9910  -30.4720   24.7070 C   0  0  0  0  0  1  0  0  0  0  0  0
  -27.5370  -32.6460   25.7670 C   0  0  0  0  0  1  0  0  0  0  0  0
  -25.5480  -34.0050   24.1640 N   0  0  0  0  0  0  0  0  0  0  0  0
  -25.8820  -35.0600   23.4090 C   0  0  0  0  0  0  0  0  0  0  0  0
  -26.5620  -34.9630   22.3830 O   0  0  0  0  0  0  0  0  0  0  0  0
  -24.9480  -34.1580   24.9610 H   0  0  0  0  0  0  0  0  0  0  0  0
  -24.1590  -36.8510   23.0250 C   0  0  0  0  0  1  0  0  0  0  0  0
  -25.3820  -36.4450   23.8630 C   0  0  0  0  0  3  0  0  0  0  0  0
  -27.4950  -37.3300   24.7490 C   0  0  0  0  0  1  0  0  0  0  0  0
  -26.4160  -37.5000   23.7790 N   0  0  0  0  0  0  0  0  0  0  0  0
  -26.0050  -38.4190   23.9180 H   0  0  0  0  0  0  0  0  0  0  0  0
  1  4  1  0
  1  3  1  0
  3  9  1  0
  3  2  1  0
  4 52  1  0
  4  2  1  0
  5  1  2  0
  6  9  1  0
  7 11  1  0
  7  6  2  0
  9  8  2  0
 10 13  1  0
 10  8  1  0
 11 10  2  0
 12 11  1  0
 13 22  1  0
 14 22  1  0
 15 20  1  0
 16 17  1  0
 16 15  1  0
 18 17  1  0
 18 27  1  0
 18 19  1  0
 20 14  1  0
 20 19  1  0
 21 14  2  0
 22 23  1  0
 24 25  2  0
 25 44  1  0
 26 25  1  0
 26 29  1  0
 27 24  1  0
 27 28  1  0
 28 26  2  0
 29 30  1  0
 30 31  2  0
 32 35  1  0
 32 31  1  0
 33 32  2  0
 34 33  1  0
 34 29  2  0
 35 36  1  0
 36 41  2  0
 36 37  1  0
 37 38  2  0
 39 38  1  0
 39 43  1  0
 40 39  2  0
 41 40  1  0
 42 41  1  0
 44 45  1  0
 45 48  1  0
 45 47  1  0
 46 44  2  0
 49 50  1  0
 49 24  1  0
 51 49  1  0
 53 54  1  0
 53 52  1  0
 54 56  1  0
 55 66  2  0
 56 61  1  0
 57 65  1  0
 57 67  1  0
 58 64  1  0
 58 60  1  0
 59 65  1  0
 60 59  1  0
 61 60  2  0
 62 63  1  0
 62 56  2  0
 63 58  2  0
 64 57  1  0
 65 55  1  0
 67 69  2  0
 68 67  1  0
 70 68  1  0
 71 80  2  0
 71 76  1  0
 72 68  1  0
 72 76  1  0
 73 72  1  0
 74 75  1  0
 74 73  1  0
 75 71  1  0
 76 77  2  0
 77 78  1  0
 79 78  2  0
 80 79  1  0
 81 55  1  0
 81 86  1  0
 81 82  1  0
 82 85  1  1
 82 83  1  0
 84 82  1  0
 86 89  1  0
 87 91  1  0
 87 86  1  0
 88 87  2  0
 91 90  1  0
 93 91  1  0
 93 94  1  0
 93 92  1  0
M  ISO  4  14 100  22 100  53 101  54 101
M  END
>  <TORSDO>  (65) 
F 20

>  <SCORE>  (65) 
-13.590

>  <name>  (65) 
65

>  <ligand_id>  (65) 
65

>  <original_smiles>  (65) 
[H]c1c([H])c([H])c2c(c1[H])C([H])([H])C([H])([H])C([H])([H])C2([H])N([H])C(=O)C1([H])N(C(=O)C([H])(N([H])C(=O)C([H])(N([H])C([H])([H])[H])C([H])([H])[H])C(C([H])([H])[H])(C([H])([H])[H])C([H])([H])[H])C([H])([H])c2c([H])c(OC([H])([H])C([H])([H])N3C(=O)C([H])(c4c([H])c([H])c(F)c(C([H])([H])N([H])C(=O)N5C([H])([H])C([H])([H])C([H])([H])C([H])(n6nc(-c7c([H])c([H])c(Oc8c([H])c([H])c(F)c([H])c8F)c([H])c7[H])c(C(=O)N([H])[H])c6N([H])[H])C5([H])[H])c4[H])C3([H])[H])c([H])c([H])c2C1([H])[H]

>  <smiles>  (65) 
[H]c1c([H])c([H])c2c(c1[H])C([H])([H])C([H])([H])C([H])([H])C2([H])N([H])C(=O)C1([H])N(C(=O)C([H])(N([H])C(=O)C([H])(N([H])C([H])([H])[H])C([H])([H])[H])C(C([H])([H])[H])(C([H])([H])[H])C([H])([H])[H])C([H])([H])c2c([H])c(OC([H])([H])C([H])([H])N3C(=O)C([H])(c4c([H])c([H])c(F)c(C([H])([H])N([H])C(=O)N5C([H])([H])C([H])([H])C([H])([H])C([H])(n6nc(-c7c([H])c([H])c(Oc8c([H])c([H])c(F)c([H])c8F)c([H])c7[H])c(C(=O)N([H])[H])c6N([H])[H])C5([H])[H])c4[H])C3([H])[H])c([H])c([H])c2C1([H])[H]

$$$$
66:0:0
     RDKit          3D

 89 97  0  0  1  0  0  0  0  0999 V2000
  -30.5100  -19.8580   19.2160 C   0  0  0  0  0  3  0  0  0  0  0  0
  -30.6960  -18.4230   19.3710 C   0  0  0  0  0  3  0  0  0  0  0  0
  -28.4690  -19.7660   20.3740 C   0  0  0  0  0  3  0  0  0  0  0  0
  -29.3820  -20.6280   19.6830 C   0  0  0  0  0  0  0  0  0  0  0  0
  -29.7510  -17.5640   20.0180 C   0  0  0  0  0  0  0  0  0  0  0  0
  -28.6350  -18.3250   20.5160 C   0  0  0  0  0  0  0  0  0  0  0  0
  -27.6530  -17.6370   21.1470 F   0  0  0  0  0  0  0  0  0  0  0  0
  -30.5600  -14.9400   19.7390 C   0  0  0  0  0  0  0  0  0  0  0  0
  -30.3710  -12.6180   18.7470 C   0  0  0  0  0  2  0  0  0  0  0  0
  -29.3230  -12.6340   17.6080 C   0  0  0  0  0  2  0  0  0  0  0  0
  -27.9020  -12.4200   18.1650 C   0  0  0  0  0  2  0  0  0  0  0  0
  -27.6170  -13.3000   19.4090 C   0  0  0  0  0  3  0  0  0  0  0  0
  -28.7720  -13.2440   20.4340 C   0  0  0  0  0  2  0  0  0  0  0  0
  -29.9940  -13.6670   19.7350 N   0  0  0  0  0  0  0  0  0  0  0  0
  -31.6990  -15.0680   19.2780 O   0  0  0  0  0  0  0  0  0  0  0  0
  -29.7680  -16.0380   20.1440 N   0  0  0  0  0  0  0  0  0  0  0  0
  -28.9430  -15.7100   20.6230 H   0  0  0  0  0  0  0  0  0  0  0  0
  -25.3200  -13.8670   20.3920 C   0  0  0  0  0  0  0  0  0  0  0  0
  -24.2860  -13.0850   20.8260 C   0  0  0  0  0  0  0  0  0  0  0  0
  -24.7280  -11.7330   20.6910 C   0  0  0  0  0  0  0  0  0  0  0  0
  -26.3260  -12.9940   20.0150 N   0  0  0  0  0  0  0  0  0  0  0  0
  -25.9840  -11.7010   20.2570 N   0  0  0  0  0  0  0  0  0  0  0  0
  -24.0070  -10.4690   20.8910 C   0  0  0  0  0  0  0  0  0  0  0  0
  -24.4620   -9.4970   21.8090 C   0  0  0  0  0  3  0  0  0  0  0  0
  -23.7400   -8.2990   21.9990 C   0  0  0  0  0  3  0  0  0  0  0  0
  -22.5480   -8.0650   21.2720 C   0  0  0  0  0  0  0  0  0  0  0  0
  -22.1130   -9.0270   20.3440 C   0  0  0  0  0  3  0  0  0  0  0  0
  -22.8360  -10.2150   20.1510 C   0  0  0  0  0  3  0  0  0  0  0  0
  -21.7950   -6.9200   21.3730 O   0  0  0  0  0  0  0  0  0  0  0  0
  -21.7130   -6.2150   22.5460 C   0  0  0  0  0  0  0  0  0  0  0  0
  -21.2000   -6.7920   23.7280 C   0  0  0  0  0  3  0  0  0  0  0  0
  -21.0670   -6.0100   24.8930 C   0  0  0  0  0  3  0  0  0  0  0  0
  -21.4360   -4.6520   24.8760 C   0  0  0  0  0  0  0  0  0  0  0  0
  -21.9410   -4.0740   23.6990 C   0  0  0  0  0  3  0  0  0  0  0  0
  -22.0760   -4.8520   22.5360 C   0  0  0  0  0  0  0  0  0  0  0  0
  -22.5430   -4.2850   21.3980 F   0  0  0  0  0  0  0  0  0  0  0  0
  -21.3020   -3.8990   25.9930 F   0  0  0  0  0  0  0  0  0  0  0  0
  -22.9270  -13.5600   21.2500 C   0  0  0  0  0  0  0  0  0  0  0  0
  -22.2790  -12.8350   22.1550 N   0  0  0  0  0  0  0  0  0  0  0  0
  -22.4520  -14.6080   20.8150 O   0  0  0  0  0  0  0  0  0  0  0  0
  -22.6770  -11.9860   22.5270 H   0  0  0  0  0  0  0  0  0  0  0  0
  -21.3700  -13.1350   22.4810 H   0  0  0  0  0  0  0  0  0  0  0  0
  -25.4810  -15.2440   20.2610 N   0  0  0  0  0  0  0  0  0  0  0  0
  -24.7390  -15.8960   20.4870 H   0  0  0  0  0  0  0  0  0  0  0  0
  -26.2990  -15.6980   19.8740 H   0  0  0  0  0  0  0  0  0  0  0  0
  -29.2420  -22.1950   19.3630 C   0  0  0  0  0  3  0  0  0  0  0  0
  -28.5310  -23.3390   19.8000 C   0  0  0  0  0  3  0  0  0  0  0  0
  -28.4700  -24.8310   19.1070 C   0  0  0  0  0  2  0  0  0  0  0  0
  -28.3790  -26.2080   19.8120 O   0  0  0  0  0  0  0  0  0  0  0  0
  -24.5960  -31.6500   22.9830 C   0  0  0  0  0  0  0  0  0  0  0  0
  -27.2780  -27.1380   19.7430 C   0  0  0  0  0  0  0  0  0  0  0  0
  -23.4170  -30.2840   21.3030 C   0  0  0  0  0  3  0  0  0  0  0  0
  -24.8940  -28.8090   19.8040 C   0  0  0  0  0  0  0  0  0  0  0  0
  -25.9600  -30.6280   21.1260 C   0  0  0  0  0  2  0  0  0  0  0  0
  -26.0640  -29.2660   20.4200 C   0  0  0  0  0  0  0  0  0  0  0  0
  -27.2510  -28.4440   20.3790 C   0  0  0  0  0  3  0  0  0  0  0  0
  -26.0720  -26.7780   19.0980 C   0  0  0  0  0  3  0  0  0  0  0  0
  -24.9090  -27.5780   19.1310 C   0  0  0  0  0  3  0  0  0  0  0  0
  -23.6430  -29.6670   19.8970 C   0  0  0  0  0  2  0  0  0  0  0  0
  -24.6780  -30.8750   21.8600 N   0  0  0  0  0  0  0  0  0  0  0  0
  -23.5080  -31.8850   23.5310 O   0  0  0  0  0  0  0  0  0  0  0  0
  -22.7770  -29.2240   22.2320 C   0  0  0  0  0  0  0  0  0  0  0  0
  -21.4490  -29.0360   22.1260 N   0  0  0  0  0  0  0  0  0  0  0  0
  -23.4760  -28.5710   23.0130 O   0  0  0  0  0  0  0  0  0  0  0  0
  -20.9400  -29.6160   21.4730 H   0  0  0  0  0  0  0  0  0  0  0  0
  -18.0910  -27.7940   22.6790 C   0  0  0  0  0  0  0  0  0  0  0  0
  -20.6570  -28.0550   22.8720 C   0  0  0  0  0  3  0  0  0  0  0  0
  -20.7440  -26.6570   22.2140 C   0  0  0  0  0  2  0  0  0  0  0  0
  -19.6080  -26.3860   21.2230 C   0  0  0  0  0  2  0  0  0  0  0  0
  -18.2490  -26.4860   21.9220 C   0  0  0  0  0  2  0  0  0  0  0  0
  -19.2220  -28.5380   23.1110 C   0  0  0  0  0  0  0  0  0  0  0  0
  -19.0190  -29.7630   23.7820 C   0  0  0  0  0  3  0  0  0  0  0  0
  -17.7180  -30.2450   24.0240 C   0  0  0  0  0  3  0  0  0  0  0  0
  -16.6040  -29.4980   23.6070 C   0  0  0  0  0  3  0  0  0  0  0  0
  -16.7910  -28.2740   22.9400 C   0  0  0  0  0  3  0  0  0  0  0  0
  -25.8630  -32.2960   23.6220 C   0  0  0  0  0  3  0  0  0  0  0  0
  -25.5110  -33.6670   24.0260 N   0  0  0  0  0  0  0  0  0  0  0  0
  -25.7980  -34.7690   23.3200 C   0  0  0  0  0  0  0  0  0  0  0  0
  -26.4530  -34.7400   22.2750 O   0  0  0  0  0  0  0  0  0  0  0  0
  -24.9240  -33.7600   24.8420 H   0  0  0  0  0  0  0  0  0  0  0  0
  -24.0120  -36.5280   23.0870 C   0  0  0  0  0  1  0  0  0  0  0  0
  -25.2770  -36.1170   23.8590 C   0  0  0  0  0  3  0  0  0  0  0  0
  -27.3910  -37.0310   24.7150 C   0  0  0  0  0  1  0  0  0  0  0  0
  -26.2770  -37.2050   23.7870 N   0  0  0  0  0  0  0  0  0  0  0  0
  -25.8430  -38.1050   23.9780 H   0  0  0  0  0  0  0  0  0  0  0  0
  -26.4170  -31.4850   24.8570 C   0  0  1  0  0  0  0  0  0  0  0  0
  -25.3430  -31.1630   25.9240 C   0  0  0  0  0  1  0  0  0  0  0  0
  -27.0400  -30.1450   24.4020 C   0  0  0  0  0  1  0  0  0  0  0  0
  -27.5480  -32.2860   25.5450 C   0  0  0  0  0  1  0  0  0  0  0  0
  1  2  2  0
  1  4  1  0
  2  5  1  0
  3  6  1  0
  4  3  2  0
  5 16  1  0
  5  6  2  0
  6  7  1  0
  8 16  1  0
  9 14  1  0
 10 11  1  0
 10  9  1  0
 12 11  1  0
 12 21  1  0
 12 13  1  0
 14  8  1  0
 14 13  1  0
 15  8  2  0
 16 17  1  0
 18 19  2  0
 19 38  1  0
 20 19  1  0
 20 23  1  0
 21 22  1  0
 21 18  1  0
 22 20  2  0
 23 24  1  0
 24 25  2  0
 26 29  1  0
 26 25  1  0
 27 26  2  0
 28 27  1  0
 28 23  2  0
 29 30  1  0
 30 31  1  0
 31 32  2  0
 33 32  1  0
 33 37  1  0
 34 33  2  0
 35 30  2  0
 35 34  1  0
 36 35  1  0
 38 39  1  0
 39 42  1  0
 39 41  1  0
 40 38  2  0
 43 18  1  0
 43 44  1  0
 45 43  1  0
 46  4  1  0
 46 47  2  0
 48 47  1  0
 48 49  1  0
 50 61  2  0
 51 49  1  0
 51 56  1  0
 52 60  1  0
 52 62  1  0
 53 59  1  0
 53 55  1  0
 54 60  1  0
 55 54  1  0
 56 55  2  0
 57 58  1  0
 57 51  2  0
 58 53  2  0
 59 52  1  0
 60 50  1  0
 62 64  2  0
 63 62  1  0
 65 63  1  0
 66 75  2  0
 66 71  1  0
 67 63  1  0
 67 71  1  0
 68 67  1  0
 69 70  1  0
 69 68  1  0
 70 66  1  0
 71 72  2  0
 72 73  1  0
 74 73  2  0
 75 74  1  0
 76 50  1  0
 76 77  1  0
 76 86  1  0
 77 80  1  0
 78 82  1  0
 78 77  1  0
 79 78  2  0
 82 81  1  0
 84 82  1  0
 84 85  1  0
 84 83  1  0
 86 89  1  1
 86 87  1  0
 88 86  1  0
M  ISO  4   8 100  16 100  48 101  49 101
M  END
>  <TORSDO>  (66) 
F 18

>  <SCORE>  (66) 
-13.550

>  <name>  (66) 
66

>  <ligand_id>  (66) 
66

>  <original_smiles>  (66) 
[H]C(=C([H])C([H])([H])Oc1c([H])c([H])c2c(c1[H])C([H])([H])N(C(=O)C([H])(N([H])C(=O)C([H])(N([H])C([H])([H])[H])C([H])([H])[H])C(C([H])([H])[H])(C([H])([H])[H])C([H])([H])[H])C([H])(C(=O)N([H])C1([H])c3c([H])c([H])c([H])c([H])c3C([H])([H])C([H])([H])C1([H])[H])C2([H])[H])c1c([H])c([H])c(N([H])C(=O)N2C([H])([H])C([H])([H])C([H])([H])C([H])(n3nc(-c4c([H])c([H])c(Oc5c([H])c([H])c(F)c([H])c5F)c([H])c4[H])c(C(=O)N([H])[H])c3N([H])[H])C2([H])[H])c(F)c1[H]

>  <smiles>  (66) 
[H]C(=C([H])C([H])([H])Oc1c([H])c([H])c2c(c1[H])C([H])([H])N(C(=O)C([H])(N([H])C(=O)C([H])(N([H])C([H])([H])[H])C([H])([H])[H])C(C([H])([H])[H])(C([H])([H])[H])C([H])([H])[H])C([H])(C(=O)N([H])C1([H])c3c([H])c([H])c([H])c([H])c3C([H])([H])C([H])([H])C1([H])[H])C2([H])[H])c1c([H])c([H])c(N([H])C(=O)N2C([H])([H])C([H])([H])C([H])([H])C([H])(n3nc(-c4c([H])c([H])c(Oc5c([H])c([H])c(F)c([H])c5F)c([H])c4[H])c(C(=O)N([H])[H])c3N([H])[H])C2([H])[H])c(F)c1[H]

$$$$
67:0:0
     RDKit          3D

 98107  0  0  1  0  0  0  0  0999 V2000
  -25.8540  -22.4770   21.8430 C   0  0  0  0  0  3  0  0  0  0  0  0
  -25.3870  -23.5370   21.0510 C   0  0  0  0  0  3  0  0  0  0  0  0
  -26.8700  -21.6390   21.3500 C   0  0  0  0  0  3  0  0  0  0  0  0
  -25.9620  -23.7740   19.7900 C   0  0  0  0  0  3  0  0  0  0  0  0
  -27.4520  -21.8510   20.0800 C   0  0  0  0  0  0  0  0  0  0  0  0
  -27.0150  -22.9640   19.3030 C   0  0  0  0  0  0  0  0  0  0  0  0
  -28.0880  -19.4990   19.5250 C   0  0  0  0  0  3  0  0  0  0  0  0
  -29.7950  -21.2150   19.4100 C   0  0  0  0  0  3  0  0  0  0  0  0
  -29.0430  -18.5130   19.2160 C   0  0  0  0  0  3  0  0  0  0  0  0
  -30.7580  -20.2300   19.1040 C   0  0  0  0  0  3  0  0  0  0  0  0
  -28.4500  -20.8600   19.6370 C   0  0  0  0  0  0  0  0  0  0  0  0
  -30.3980  -18.8680   19.0180 C   0  0  0  0  0  0  0  0  0  0  0  0
  -31.4700  -17.8180   18.7190 C   0  0  0  0  0  2  0  0  0  0  0  0
  -31.8400  -15.3610   18.9980 C   0  0  0  0  0  0  0  0  0  0  0  0
  -31.8500  -12.9080   19.2660 C   0  0  0  0  0  2  0  0  0  0  0  0
  -31.0210  -12.2170   18.1670 C   0  0  0  0  0  2  0  0  0  0  0  0
  -29.5360  -12.1400   18.5680 C   0  0  0  0  0  2  0  0  0  0  0  0
  -28.9830  -13.5080   19.0410 C   0  0  0  0  0  3  0  0  0  0  0  0
  -29.9200  -14.1420   20.0940 C   0  0  0  0  0  2  0  0  0  0  0  0
  -31.2770  -14.2380   19.5170 N   0  0  0  0  0  0  0  0  0  0  0  0
  -32.8750  -15.3550   18.3240 O   0  0  0  0  0  0  0  0  0  0  0  0
  -31.1940  -16.4950   19.2840 N   0  0  0  0  0  0  0  0  0  0  0  0
  -30.4020  -16.4180   19.9010 H   0  0  0  0  0  0  0  0  0  0  0  0
  -26.6330  -14.3510   19.6780 C   0  0  0  0  0  0  0  0  0  0  0  0
  -25.5180  -13.6940   20.1280 C   0  0  0  0  0  0  0  0  0  0  0  0
  -25.8850  -12.3170   20.2270 C   0  0  0  0  0  0  0  0  0  0  0  0
  -27.6150  -13.3810   19.5410 N   0  0  0  0  0  0  0  0  0  0  0  0
  -27.1660  -12.1580   19.9220 N   0  0  0  0  0  0  0  0  0  0  0  0
  -25.0760  -11.1310   20.5400 C   0  0  0  0  0  0  0  0  0  0  0  0
  -25.3660  -10.3150   21.6540 C   0  0  0  0  0  3  0  0  0  0  0  0
  -24.5650   -9.1910   21.9470 C   0  0  0  0  0  3  0  0  0  0  0  0
  -23.4560   -8.8760   21.1240 C   0  0  0  0  0  0  0  0  0  0  0  0
  -23.1860   -9.6800   20.0020 C   0  0  0  0  0  3  0  0  0  0  0  0
  -23.9890  -10.7950   19.7100 C   0  0  0  0  0  3  0  0  0  0  0  0
  -22.6370   -7.7900   21.3160 O   0  0  0  0  0  0  0  0  0  0  0  0
  -22.2570   -7.3910   22.5730 C   0  0  0  0  0  0  0  0  0  0  0  0
  -21.5460   -8.2450   23.4450 C   0  0  0  0  0  3  0  0  0  0  0  0
  -21.1100   -7.7680   24.6960 C   0  0  0  0  0  3  0  0  0  0  0  0
  -21.3750   -6.4390   25.0770 C   0  0  0  0  0  0  0  0  0  0  0  0
  -22.0790   -5.5860   24.2090 C   0  0  0  0  0  3  0  0  0  0  0  0
  -22.5160   -6.0600   22.9600 C   0  0  0  0  0  0  0  0  0  0  0  0
  -23.1730   -5.2270   22.1180 F   0  0  0  0  0  0  0  0  0  0  0  0
  -20.9500   -5.9780   26.2760 F   0  0  0  0  0  0  0  0  0  0  0  0
  -24.1590  -14.2900   20.3580 C   0  0  0  0  0  0  0  0  0  0  0  0
  -23.4250  -13.7780   21.3400 N   0  0  0  0  0  0  0  0  0  0  0  0
  -23.7610  -15.2500   19.6990 O   0  0  0  0  0  0  0  0  0  0  0  0
  -23.7650  -13.0070   21.8960 H   0  0  0  0  0  0  0  0  0  0  0  0
  -22.5130  -14.1620   21.5400 H   0  0  0  0  0  0  0  0  0  0  0  0
  -26.8850  -15.6800   19.3570 N   0  0  0  0  0  0  0  0  0  0  0  0
  -26.1580  -16.3850   19.3830 H   0  0  0  0  0  0  0  0  0  0  0  0
  -27.7510  -16.0160   18.9570 H   0  0  0  0  0  0  0  0  0  0  0  0
  -27.5970  -23.2890   17.9240 C   0  0  0  0  0  2  0  0  0  0  0  0
  -28.7880  -24.1760   17.9510 N   0  0  0  0  0  4  0  0  0  0  0  0
  -29.0280  -24.3550   16.9880 H   0  0  0  0  0  0  0  0  0  0  0  0
  -29.5590  -23.6650   18.3480 H   0  0  0  0  0  0  0  0  0  0  0  0
  -28.6730  -25.4920   18.6430 C   0  0  0  0  0  2  0  0  0  0  0  0
  -28.9270  -26.6800   17.6840 C   0  0  0  0  0  2  0  0  0  0  0  0
  -28.6330  -27.9580   18.2610 O   0  0  0  0  0  0  0  0  0  0  0  0
  -24.7940  -30.9210   23.4230 C   0  0  0  0  0  0  0  0  0  0  0  0
  -27.3540  -28.2890   18.6610 C   0  0  0  0  0  0  0  0  0  0  0  0
  -23.4880  -29.7630   21.6680 C   0  0  0  0  0  3  0  0  0  0  0  0
  -24.7960  -29.0780   19.5850 C   0  0  0  0  0  0  0  0  0  0  0  0
  -25.7740  -30.7780   21.1380 C   0  0  0  0  0  2  0  0  0  0  0  0
  -25.9440  -29.6960   20.0940 C   0  0  0  0  0  0  0  0  0  0  0  0
  -27.2190  -29.3030   19.6370 C   0  0  0  0  0  3  0  0  0  0  0  0
  -26.1830  -27.6800   18.1500 C   0  0  0  0  0  3  0  0  0  0  0  0
  -24.9100  -28.0670   18.6130 C   0  0  0  0  0  3  0  0  0  0  0  0
  -23.4670  -29.5530   20.1300 C   0  0  0  0  0  2  0  0  0  0  0  0
  -24.7120  -30.4910   22.1320 N   0  0  0  0  0  0  0  0  0  0  0  0
  -23.8520  -30.7600   24.2130 O   0  0  0  0  0  0  0  0  0  0  0  0
  -23.2950  -28.3920   22.3550 C   0  0  0  0  0  0  0  0  0  0  0  0
  -22.1910  -27.7040   22.0190 N   0  0  0  0  0  0  0  0  0  0  0  0
  -24.1370  -27.9600   23.1460 O   0  0  0  0  0  0  0  0  0  0  0  0
  -21.5480  -28.1330   21.3680 H   0  0  0  0  0  0  0  0  0  0  0  0
  -19.9350  -24.9320   21.4970 C   0  0  0  0  0  0  0  0  0  0  0  0
  -21.8250  -26.3760   22.5090 C   0  0  0  0  0  3  0  0  0  0  0  0
  -22.7960  -25.2970   21.9760 C   0  0  0  0  0  2  0  0  0  0  0  0
  -22.3120  -24.6380   20.6800 C   0  0  0  0  0  2  0  0  0  0  0  0
  -20.9490  -23.9770   20.8900 C   0  0  0  0  0  2  0  0  0  0  0  0
  -20.3480  -26.0670   22.2430 C   0  0  0  0  0  0  0  0  0  0  0  0
  -19.3670  -26.9460   22.7540 C   0  0  0  0  0  3  0  0  0  0  0  0
  -17.9980  -26.7010   22.5340 C   0  0  0  0  0  3  0  0  0  0  0  0
  -17.5940  -25.5660   21.8070 C   0  0  0  0  0  3  0  0  0  0  0  0
  -18.5620  -24.6840   21.2950 C   0  0  0  0  0  3  0  0  0  0  0  0
  -26.0610  -31.6570   23.9630 C   0  0  0  0  0  3  0  0  0  0  0  0
  -25.6780  -33.0460   24.2450 N   0  0  0  0  0  0  0  0  0  0  0  0
  -25.9520  -34.0870   23.4470 C   0  0  0  0  0  0  0  0  0  0  0  0
  -26.6240  -33.9810   22.4170 O   0  0  0  0  0  0  0  0  0  0  0  0
  -25.0800  -33.2000   25.0440 H   0  0  0  0  0  0  0  0  0  0  0  0
  -24.1380  -35.7730   23.0200 C   0  0  0  0  0  1  0  0  0  0  0  0
  -25.3900  -35.4620   23.8550 C   0  0  0  0  0  3  0  0  0  0  0  0
  -27.4730  -36.4750   24.6660 C   0  0  0  0  0  1  0  0  0  0  0  0
  -26.3680  -36.5610   23.7150 N   0  0  0  0  0  0  0  0  0  0  0  0
  -25.9150  -37.4640   23.8330 H   0  0  0  0  0  0  0  0  0  0  0  0
  -26.6800  -30.9760   25.2460 C   0  0  1  0  0  0  0  0  0  0  0  0
  -25.6450  -30.6850   26.3590 C   0  0  0  0  0  1  0  0  0  0  0  0
  -27.3630  -29.6380   24.8760 C   0  0  0  0  0  1  0  0  0  0  0  0
  -27.7810  -31.8840   25.8400 C   0  0  0  0  0  1  0  0  0  0  0  0
  2  1  2  0
  3  1  1  0
  4  2  1  0
  5  3  2  0
  6  4  2  0
  6  5  1  0
  7 11  1  0
  8 11  2  0
  9  7  2  0
 10  8  1  0
 11  5  1  0
 12 10  2  0
 12  9  1  0
 13 12  1  0
 13 22  1  0
 14 22  1  0
 14 20  1  0
 15 20  1  0
 16 17  1  0
 16 15  1  0
 18 17  1  0
 18 27  1  0
 18 19  1  0
 20 19  1  0
 21 14  2  0
 22 23  1  0
 24 25  2  0
 25 26  1  0
 25 44  1  0
 26 29  1  0
 27 24  1  0
 27 28  1  0
 28 26  2  0
 29 30  1  0
 30 31  2  0
 32 35  1  0
 32 31  1  0
 33 32  2  0
 34 33  1  0
 34 29  2  0
 35 36  1  0
 36 41  2  0
 36 37  1  0
 37 38  2  0
 38 39  1  0
 39 43  1  0
 40 39  2  0
 41 40  1  0
 42 41  1  0
 44 45  1  0
 45 48  1  0
 45 47  1  0
 46 44  2  0
 49 50  1  0
 49 24  1  0
 51 49  1  0
 52 53  1  0
 52  6  1  0
 53 55  1  0
 53 56  1  0
 54 53  1  0
 57 58  1  0
 57 56  1  0
 58 60  1  0
 59 70  2  0
 60 65  1  0
 61 69  1  0
 61 71  1  0
 62 64  1  0
 62 68  1  0
 63 69  1  0
 64 63  1  0
 65 64  2  0
 66 67  1  0
 66 60  2  0
 67 62  2  0
 68 61  1  0
 69 59  1  0
 71 73  2  0
 72 71  1  0
 74 72  1  0
 75 80  1  0
 76 72  1  0
 77 76  1  0
 78 79  1  0
 78 77  1  0
 79 75  1  0
 80 76  1  0
 80 81  2  0
 82 81  1  0
 83 82  2  0
 84 75  2  0
 84 83  1  0
 85 59  1  0
 85 86  1  0
 85 95  1  0
 86 89  1  0
 87 91  1  0
 87 86  1  0
 88 87  2  0
 91 90  1  0
 93 94  1  0
 93 91  1  0
 93 92  1  0
 95 98  1  1
 95 96  1  0
 97 95  1  0
M  ISO  4  14 100  22 100  57 101  58 101
M  END
>  <TORSDO>  (67) 
F 22

>  <SCORE>  (67) 
-4.434

>  <name>  (67) 
67

>  <ligand_id>  (67) 
67

>  <original_smiles>  (67) 
[H]c1c([H])c([H])c(C([H])([H])[N+]([H])([H])C([H])([H])C([H])([H])Oc2c([H])c([H])c3c(c2[H])C([H])([H])N(C(=O)C([H])(N([H])C(=O)C([H])(N([H])C([H])([H])[H])C([H])([H])[H])C(C([H])([H])[H])(C([H])([H])[H])C([H])([H])[H])C([H])(C(=O)N([H])C2([H])c4c([H])c([H])c([H])c([H])c4C([H])([H])C([H])([H])C2([H])[H])C3([H])[H])c(-c2c([H])c([H])c(C([H])([H])N([H])C(=O)N3C([H])([H])C([H])([H])C([H])([H])C([H])(n4nc(-c5c([H])c([H])c(Oc6c([H])c([H])c(F)c([H])c6F)c([H])c5[H])c(C(=O)N([H])[H])c4N([H])[H])C3([H])[H])c([H])c2[H])c1[H]

>  <smiles>  (67) 
[H]c1c([H])c([H])c(C([H])([H])[N+]([H])([H])C([H])([H])C([H])([H])Oc2c([H])c([H])c3c(c2[H])C([H])([H])N(C(=O)C([H])(N([H])C(=O)C([H])(N([H])C([H])([H])[H])C([H])([H])[H])C(C([H])([H])[H])(C([H])([H])[H])C([H])([H])[H])C([H])(C(=O)N([H])C2([H])c4c([H])c([H])c([H])c([H])c4C([H])([H])C([H])([H])C2([H])[H])C3([H])[H])c(-c2c([H])c([H])c(C([H])([H])N([H])C(=O)N3C([H])([H])C([H])([H])C([H])([H])C([H])(n4nc(-c5c([H])c([H])c(Oc6c([H])c([H])c(F)c([H])c6F)c([H])c5[H])c(C(=O)N([H])[H])c4N([H])[H])C3([H])[H])c([H])c2[H])c1[H]

$$$$
68:0:0
     RDKit          3D

110120  0  0  1  0  0  0  0  0999 V2000
  -25.0860  -20.2540   18.9250 C   0  0  0  0  0  3  0  0  0  0  0  0
  -26.3370  -19.6190   19.0290 C   0  0  0  0  0  3  0  0  0  0  0  0
  -26.2060  -22.3980   18.6180 C   0  0  0  0  0  3  0  0  0  0  0  0
  -27.4800  -21.7880   18.7340 C   0  0  0  0  0  0  0  0  0  0  0  0
  -25.0130  -21.6520   18.7540 C   0  0  0  0  0  0  0  0  0  0  0  0
  -28.8280  -22.2810   18.7020 C   0  0  0  0  0  0  0  0  0  0  0  0
  -27.5190  -20.3820   18.9750 C   0  0  0  0  0  0  0  0  0  0  0  0
  -29.6340  -21.2020   19.0050 C   0  0  0  0  0  0  0  0  0  0  0  0
  -31.1200  -21.1760   19.1880 C   0  0  0  0  0  1  0  0  0  0  0  0
  -28.8570  -20.0400   19.1370 N   0  0  0  0  0  0  0  0  0  0  0  0
  -23.3120  -23.0590   17.4660 C   0  0  0  0  0  1  0  0  0  0  0  0
  -23.5880  -23.3250   19.9780 C   0  0  0  0  0  1  0  0  0  0  0  0
  -23.6590  -22.3530   18.7870 C   0  0  0  0  0  3  0  0  0  0  0  0
  -29.3550  -18.6740   19.4050 C   0  0  0  0  0  2  0  0  0  0  0  0
  -31.6300  -18.5580   16.2920 C   0  0  0  0  0  3  0  0  0  0  0  0
  -30.6880  -18.9600   17.2520 C   0  0  0  0  0  3  0  0  0  0  0  0
  -31.7740  -16.4080   17.3960 C   0  0  0  0  0  3  0  0  0  0  0  0
  -32.1940  -17.2780   16.3740 C   0  0  0  0  0  0  0  0  0  0  0  0
  -30.3240  -18.1290   18.3430 C   0  0  0  0  0  0  0  0  0  0  0  0
  -30.8870  -16.8170   18.4320 C   0  0  0  0  0  0  0  0  0  0  0  0
  -31.3650  -14.9840   20.0710 C   0  0  0  0  0  0  0  0  0  0  0  0
  -31.3420  -12.5450   20.2780 C   0  0  0  0  0  2  0  0  0  0  0  0
  -30.5870  -11.9680   19.0640 C   0  0  0  0  0  2  0  0  0  0  0  0
  -29.0780  -11.8840   19.3610 C   0  0  0  0  0  2  0  0  0  0  0  0
  -28.5020  -13.2040   19.9420 C   0  0  0  0  0  3  0  0  0  0  0  0
  -29.3910  -13.7630   21.0740 C   0  0  0  0  0  2  0  0  0  0  0  0
  -30.7610  -13.8680   20.5570 N   0  0  0  0  0  0  0  0  0  0  0  0
  -32.5870  -15.0490   19.9450 O   0  0  0  0  0  0  0  0  0  0  0  0
  -30.5500  -15.9120   19.5110 N   0  0  0  0  0  0  0  0  0  0  0  0
  -29.5790  -15.8530   19.7710 H   0  0  0  0  0  0  0  0  0  0  0  0
  -26.1410  -13.9970   20.5790 C   0  0  0  0  0  0  0  0  0  0  0  0
  -25.0030  -13.3110   20.9080 C   0  0  0  0  0  0  0  0  0  0  0  0
  -25.3570  -11.9270   20.8880 C   0  0  0  0  0  0  0  0  0  0  0  0
  -27.1180  -13.0350   20.3770 N   0  0  0  0  0  0  0  0  0  0  0  0
  -26.6490  -11.7850   20.6240 N   0  0  0  0  0  0  0  0  0  0  0  0
  -24.5280  -10.7260   21.0440 C   0  0  0  0  0  0  0  0  0  0  0  0
  -24.8560   -9.7180   21.9770 C   0  0  0  0  0  3  0  0  0  0  0  0
  -24.0320   -8.5810   22.1230 C   0  0  0  0  0  3  0  0  0  0  0  0
  -22.8640   -8.4450   21.3350 C   0  0  0  0  0  0  0  0  0  0  0  0
  -22.5550   -9.4400   20.3900 C   0  0  0  0  0  3  0  0  0  0  0  0
  -23.3790  -10.5680   20.2430 C   0  0  0  0  0  3  0  0  0  0  0  0
  -22.0180   -7.3640   21.3910 O   0  0  0  0  0  0  0  0  0  0  0  0
  -21.8820   -6.6140   22.5310 C   0  0  0  0  0  0  0  0  0  0  0  0
  -21.4670   -7.1860   23.7540 C   0  0  0  0  0  3  0  0  0  0  0  0
  -21.2740   -6.3670   24.8840 C   0  0  0  0  0  3  0  0  0  0  0  0
  -21.4830   -4.9770   24.7930 C   0  0  0  0  0  0  0  0  0  0  0  0
  -21.8900   -4.4060   23.5750 C   0  0  0  0  0  3  0  0  0  0  0  0
  -22.0860   -5.2210   22.4460 C   0  0  0  0  0  0  0  0  0  0  0  0
  -22.4580   -4.6630   21.2700 F   0  0  0  0  0  0  0  0  0  0  0  0
  -21.2890   -4.1900   25.8760 F   0  0  0  0  0  0  0  0  0  0  0  0
  -23.6390  -13.8960   21.1310 C   0  0  0  0  0  0  0  0  0  0  0  0
  -22.8390  -13.2770   21.9920 N   0  0  0  0  0  0  0  0  0  0  0  0
  -23.2910  -14.9350   20.5720 O   0  0  0  0  0  0  0  0  0  0  0  0
  -23.1300  -12.4330   22.4620 H   0  0  0  0  0  0  0  0  0  0  0  0
  -21.9220  -13.6510   22.1820 H   0  0  0  0  0  0  0  0  0  0  0  0
  -26.4220  -15.3490   20.4080 N   0  0  0  0  0  0  0  0  0  0  0  0
  -25.7070  -16.0620   20.4990 H   0  0  0  0  0  0  0  0  0  0  0  0
  -27.2890  -15.7000   20.0280 H   0  0  0  0  0  0  0  0  0  0  0  0
  -33.2670  -16.8310   15.3860 C   0  0  0  0  0  2  0  0  0  0  0  0
  -35.5800  -15.9800   15.2590 C   0  0  0  0  0  1  0  0  0  0  0  0
  -35.1470  -18.1600   16.3100 C   0  0  0  0  0  1  0  0  0  0  0  0
  -34.6120  -16.8100   16.0120 N   0  0  1  0  0  4  0  0  0  0  0  0
  -34.4950  -16.3490   16.9010 H   0  0  0  0  0  0  0  0  0  0  0  0
  -29.2310  -23.7280   18.5070 C   0  0  0  0  0  2  0  0  0  0  0  0
  -29.6350  -24.0990   17.1230 N   0  0  0  0  0  4  0  0  0  0  0  0
  -29.9020  -23.2700   16.6150 H   0  0  0  0  0  0  0  0  0  0  0  0
  -30.4760  -24.6430   17.2360 H   0  0  0  0  0  0  0  0  0  0  0  0
  -28.6810  -24.9250   16.3240 C   0  0  0  0  0  2  0  0  0  0  0  0
  -29.3410  -26.2310   15.8010 C   0  0  0  0  0  2  0  0  0  0  0  0
  -28.4210  -27.1080   15.1440 O   0  0  0  0  0  0  0  0  0  0  0  0
  -25.4970  -27.9790   21.6120 C   0  0  0  0  0  0  0  0  0  0  0  0
  -27.3930  -27.5840   15.9190 C   0  0  0  0  0  0  0  0  0  0  0  0
  -24.0660  -28.5490   19.6750 C   0  0  0  0  0  3  0  0  0  0  0  0
  -25.2510  -28.6500   17.4150 C   0  0  0  0  0  0  0  0  0  0  0  0
  -26.6120  -28.7180   19.5110 C   0  0  0  0  0  2  0  0  0  0  0  0
  -26.4790  -28.3960   18.0370 C   0  0  0  0  0  0  0  0  0  0  0  0
  -27.5560  -27.8570   17.2970 C   0  0  0  0  0  3  0  0  0  0  0  0
  -26.1550  -27.8510   15.3030 C   0  0  0  0  0  3  0  0  0  0  0  0
  -25.0780  -28.3720   16.0470 C   0  0  0  0  0  3  0  0  0  0  0  0
  -24.1540  -29.2300   18.2820 C   0  0  0  0  0  2  0  0  0  0  0  0
  -25.4120  -28.3790   20.3120 N   0  0  0  0  0  0  0  0  0  0  0  0
  -24.4800  -27.7940   22.2930 O   0  0  0  0  0  0  0  0  0  0  0  0
  -23.2860  -27.2240   19.5310 C   0  0  0  0  0  0  0  0  0  0  0  0
  -21.9610  -27.3250   19.3460 N   0  0  0  0  0  0  0  0  0  0  0  0
  -23.8750  -26.1390   19.5580 O   0  0  0  0  0  0  0  0  0  0  0  0
  -21.5550  -28.2490   19.3530 H   0  0  0  0  0  0  0  0  0  0  0  0
  -18.5120  -26.5060   18.6270 C   0  0  0  0  0  0  0  0  0  0  0  0
  -21.0300  -26.2160   19.1450 C   0  0  0  0  0  3  0  0  0  0  0  0
  -21.1510  -25.6380   17.7150 C   0  0  0  0  0  2  0  0  0  0  0  0
  -20.1630  -26.2680   16.7240 C   0  0  0  0  0  2  0  0  0  0  0  0
  -18.7210  -26.0500   17.1930 C   0  0  0  0  0  2  0  0  0  0  0  0
  -19.5980  -26.6000   19.5390 C   0  0  0  0  0  0  0  0  0  0  0  0
  -19.3600  -27.0670   20.8510 C   0  0  0  0  0  3  0  0  0  0  0  0
  -18.0610  -27.4330   21.2570 C   0  0  0  0  0  3  0  0  0  0  0  0
  -16.9870  -27.3230   20.3560 C   0  0  0  0  0  3  0  0  0  0  0  0
  -17.2120  -26.8550   19.0480 C   0  0  0  0  0  3  0  0  0  0  0  0
  -26.8750  -27.7570   22.3130 C   0  0  0  0  0  3  0  0  0  0  0  0
  -27.4300  -26.2890   22.1500 C   0  0  1  0  0  0  0  0  0  0  0  0
  -26.4070  -25.1870   22.5180 C   0  0  0  0  0  1  0  0  0  0  0  0
  -27.8870  -26.0420   20.6910 C   0  0  0  0  0  1  0  0  0  0  0  0
  -28.6790  -26.0980   23.0420 C   0  0  0  0  0  1  0  0  0  0  0  0
  -26.7090  -28.0900   23.7340 N   0  0  0  0  0  0  0  0  0  0  0  0
  -27.1440  -29.2220   24.3040 C   0  0  0  0  0  0  0  0  0  0  0  0
  -27.8030  -30.0700   23.6960 O   0  0  0  0  0  0  0  0  0  0  0  0
  -26.1390  -27.4630   24.2820 H   0  0  0  0  0  0  0  0  0  0  0  0
  -25.6260  -30.4390   25.8940 C   0  0  0  0  0  1  0  0  0  0  0  0
  -26.7960  -29.4490   25.7860 C   0  0  0  0  0  3  0  0  0  0  0  0
  -28.9890  -28.9390   26.7670 C   0  0  0  0  0  1  0  0  0  0  0  0
  -27.9390  -29.9390   26.5900 N   0  0  0  0  0  0  0  0  0  0  0  0
  -27.6270  -30.2310   27.5120 H   0  0  0  0  0  0  0  0  0  0  0  0
  1  2  1  0
  3  4  2  0
  3  5  1  0
  4  7  1  0
  5 13  1  0
  5  1  2  0
  6  4  1  0
  6  8  2  0
  7  2  2  0
  7 10  1  0
  8 10  1  0
  8  9  1  0
 10 14  1  0
 11 13  1  0
 13 12  1  0
 15 18  2  0
 15 16  1  0
 16 19  2  0
 17 20  2  0
 18 17  1  0
 19 20  1  0
 19 14  1  0
 20 29  1  0
 21 27  1  0
 22 27  1  0
 23 24  1  0
 23 22  1  0
 25 24  1  0
 25 34  1  0
 25 26  1  0
 27 26  1  0
 28 21  2  0
 29 30  1  0
 29 21  1  0
 31 32  2  0
 32 51  1  0
 33 32  1  0
 33 36  1  0
 34 31  1  0
 34 35  1  0
 35 33  2  0
 36 37  1  0
 37 38  2  0
 39 42  1  0
 39 38  1  0
 40 39  2  0
 41 40  1  0
 41 36  2  0
 42 43  1  0
 43 44  1  0
 44 45  2  0
 46 45  1  0
 46 50  1  0
 47 46  2  0
 48 43  2  0
 48 47  1  0
 49 48  1  0
 51 52  1  0
 52 55  1  0
 52 54  1  0
 53 51  2  0
 56 57  1  0
 56 31  1  0
 58 56  1  0
 59 62  1  0
 59 18  1  0
 60 62  1  0
 62 61  1  0
 62 63  1  1
 64  6  1  0
 65 67  1  0
 65 64  1  0
 66 65  1  0
 68 65  1  0
 69 68  1  0
 70 69  1  0
 70 72  1  0
 71 82  2  0
 72 77  1  0
 73 83  1  0
 73 81  1  0
 74 76  1  0
 74 80  1  0
 75 81  1  0
 76 75  1  0
 77 76  2  0
 78 72  2  0
 78 79  1  0
 79 74  2  0
 80 73  1  0
 81 71  1  0
 83 85  2  0
 84 86  1  0
 84 83  1  0
 87 96  2  0
 87 92  1  0
 88 84  1  0
 88 92  1  0
 89 88  1  0
 90 91  1  0
 90 89  1  0
 91 87  1  0
 92 93  2  0
 93 94  1  0
 95 94  2  0
 96 95  1  0
 97 71  1  0
 97102  1  0
 98 97  1  0
 98 99  1  1
 98101  1  0
100 98  1  0
102105  1  0
102103  1  0
103107  1  0
104103  2  0
107106  1  0
107109  1  0
109108  1  0
109110  1  0
M  ISO  4  21 100  29 100  69 101  70 101
M  END
>  <TORSDO>  (68) 
F 25

>  <SCORE>  (68) 
-8.060

>  <name>  (68) 
68

>  <ligand_id>  (68) 
68

>  <original_smiles>  (68) 
[H]c1c([H])c([H])c2c(c1[H])C([H])([H])C([H])([H])C([H])([H])C2([H])N([H])C(=O)C1([H])N(C(=O)C([H])(N([H])C(=O)C([H])(N([H])C([H])([H])[H])C([H])([H])[H])C(C([H])([H])[H])(C([H])([H])[H])C([H])([H])[H])C([H])([H])c2c([H])c(OC([H])([H])C([H])([H])[N+]([H])([H])C([H])([H])c3c(C([H])([H])[H])n(C([H])([H])c4c([H])c([H])c(C([H])([H])[N+]([H])(C([H])([H])[H])C([H])([H])[H])c([H])c4N([H])C(=O)N4C([H])([H])C([H])([H])C([H])([H])C([H])(n5nc(-c6c([H])c([H])c(Oc7c([H])c([H])c(F)c([H])c7F)c([H])c6[H])c(C(=O)N([H])[H])c5N([H])[H])C4([H])[H])c4c([H])c([H])c(C([H])(C([H])([H])[H])C([H])([H])[H])c([H])c34)c([H])c([H])c2C1([H])[H]

>  <smiles>  (68) 
[H]c1c([H])c([H])c2c(c1[H])C([H])([H])C([H])([H])C([H])([H])C2([H])N([H])C(=O)C1([H])N(C(=O)C([H])(N([H])C(=O)C([H])(N([H])C([H])([H])[H])C([H])([H])[H])C(C([H])([H])[H])(C([H])([H])[H])C([H])([H])[H])C([H])([H])c2c([H])c(OC([H])([H])C([H])([H])[N+]([H])([H])C([H])([H])c3c(C([H])([H])[H])n(C([H])([H])c4c([H])c([H])c(C([H])([H])[N+]([H])(C([H])([H])[H])C([H])([H])[H])c([H])c4N([H])C(=O)N4C([H])([H])C([H])([H])C([H])([H])C([H])(n5nc(-c6c([H])c([H])c(Oc7c([H])c([H])c(F)c([H])c7F)c([H])c6[H])c(C(=O)N([H])[H])c5N([H])[H])C4([H])[H])c4c([H])c([H])c(C([H])(C([H])([H])[H])C([H])([H])[H])c([H])c34)c([H])c([H])c2C1([H])[H]

$$$$
69:0:0
     RDKit          3D

 93101  0  0  1  0  0  0  0  0999 V2000
  -29.8240  -20.1030   21.2680 C   0  0  0  0  0  3  0  0  0  0  0  0
  -30.0870  -18.6740   21.4140 C   0  0  0  0  0  3  0  0  0  0  0  0
  -28.7300  -19.6590   19.2350 C   0  0  0  0  0  3  0  0  0  0  0  0
  -28.9950  -18.2350   19.3530 C   0  0  0  0  0  0  0  0  0  0  0  0
  -29.0980  -20.6790   20.1720 C   0  0  0  0  0  0  0  0  0  0  0  0
  -29.6850  -17.6530   20.4760 C   0  0  0  0  0  0  0  0  0  0  0  0
  -30.5450  -15.0440   20.5270 C   0  0  0  0  0  0  0  0  0  0  0  0
  -30.4930  -12.6940   19.5950 C   0  0  0  0  0  2  0  0  0  0  0  0
  -29.5960  -12.6630   18.3340 C   0  0  0  0  0  2  0  0  0  0  0  0
  -28.1190  -12.4520   18.7160 C   0  0  0  0  0  2  0  0  0  0  0  0
  -27.6730  -13.3690   19.8830 C   0  0  0  0  0  3  0  0  0  0  0  0
  -28.6910  -13.3590   21.0450 C   0  0  0  0  0  2  0  0  0  0  0  0
  -29.9880  -13.7700   20.4910 N   0  0  0  0  0  0  0  0  0  0  0  0
  -31.7380  -15.1680   20.2290 O   0  0  0  0  0  0  0  0  0  0  0  0
  -29.7000  -16.1500   20.7740 N   0  0  0  0  0  0  0  0  0  0  0  0
  -28.7880  -15.8140   21.0440 H   0  0  0  0  0  0  0  0  0  0  0  0
  -25.2600  -13.9470   20.5240 C   0  0  0  0  0  0  0  0  0  0  0  0
  -24.1890  -13.1700   20.8670 C   0  0  0  0  0  0  0  0  0  0  0  0
  -24.6620  -11.8220   20.8670 C   0  0  0  0  0  0  0  0  0  0  0  0
  -26.3170  -13.0720   20.3310 N   0  0  0  0  0  0  0  0  0  0  0  0
  -25.9630  -11.7900   20.6040 N   0  0  0  0  0  0  0  0  0  0  0  0
  -23.9370  -10.5580   21.0450 C   0  0  0  0  0  0  0  0  0  0  0  0
  -24.3390   -9.6040   22.0070 C   0  0  0  0  0  3  0  0  0  0  0  0
  -23.6140   -8.4050   22.1730 C   0  0  0  0  0  3  0  0  0  0  0  0
  -22.4730   -8.1500   21.3760 C   0  0  0  0  0  0  0  0  0  0  0  0
  -22.0890   -9.0920   20.4050 C   0  0  0  0  0  3  0  0  0  0  0  0
  -22.8160  -10.2820   20.2370 C   0  0  0  0  0  3  0  0  0  0  0  0
  -21.7220   -7.0010   21.4500 O   0  0  0  0  0  0  0  0  0  0  0  0
  -21.6290   -6.2760   22.6100 C   0  0  0  0  0  0  0  0  0  0  0  0
  -21.1430   -6.8440   23.8080 C   0  0  0  0  0  3  0  0  0  0  0  0
  -20.9990   -6.0440   24.9590 C   0  0  0  0  0  3  0  0  0  0  0  0
  -21.3300   -4.6770   24.9130 C   0  0  0  0  0  0  0  0  0  0  0  0
  -21.8090   -4.1080   23.7200 C   0  0  0  0  0  3  0  0  0  0  0  0
  -21.9550   -4.9040   22.5710 C   0  0  0  0  0  0  0  0  0  0  0  0
  -22.3970   -4.3470   21.4180 F   0  0  0  0  0  0  0  0  0  0  0  0
  -21.1850   -3.9060   26.0160 F   0  0  0  0  0  0  0  0  0  0  0  0
  -22.7790  -13.6410   21.0800 C   0  0  0  0  0  0  0  0  0  0  0  0
  -22.0240  -12.9510   21.9270 N   0  0  0  0  0  0  0  0  0  0  0  0
  -22.3540  -14.6550   20.5290 O   0  0  0  0  0  0  0  0  0  0  0  0
  -22.3790  -12.1310   22.3960 H   0  0  0  0  0  0  0  0  0  0  0  0
  -21.0770  -13.2500   22.1120 H   0  0  0  0  0  0  0  0  0  0  0  0
  -25.4170  -15.3160   20.3300 N   0  0  0  0  0  0  0  0  0  0  0  0
  -24.6180  -15.9390   20.3630 H   0  0  0  0  0  0  0  0  0  0  0  0
  -26.2150  -15.7290   19.8620 H   0  0  0  0  0  0  0  0  0  0  0  0
  -28.4450  -17.3260   18.2540 C   0  0  1  0  0  0  0  0  0  0  0  0
  -28.0740  -18.0060   17.1670 F   0  0  0  0  0  0  0  0  0  0  0  0
  -29.3550  -16.4300   17.8710 F   0  0  0  0  0  0  0  0  0  0  0  0
  -27.3780  -16.6780   18.7190 F   0  0  0  0  0  0  0  0  0  0  0  0
  -28.6710  -22.0830   19.9320 N   0  0  0  0  0  0  0  0  0  0  0  0
  -28.0900  -22.1660   19.1020 H   0  0  0  0  0  0  0  0  0  0  0  0
  -28.9700  -23.4920   20.5130 C   0  0  0  0  0  3  0  0  0  0  0  0
  -28.0470  -24.8170   20.0400 C   0  0  0  0  0  3  0  0  0  0  0  0
  -28.2740  -26.3210   20.3320 O   0  0  0  0  0  0  0  0  0  0  0  0
  -24.6140  -31.9820   23.2640 C   0  0  0  0  0  0  0  0  0  0  0  0
  -27.2080  -27.2850   20.2440 C   0  0  0  0  0  0  0  0  0  0  0  0
  -23.4160  -30.5770   21.6300 C   0  0  0  0  0  3  0  0  0  0  0  0
  -24.8690  -29.0070   20.2070 C   0  0  0  0  0  0  0  0  0  0  0  0
  -25.9670  -30.8550   21.4620 C   0  0  0  0  0  2  0  0  0  0  0  0
  -26.0450  -29.4630   20.8150 C   0  0  0  0  0  0  0  0  0  0  0  0
  -27.2140  -28.6180   20.8190 C   0  0  0  0  0  3  0  0  0  0  0  0
  -26.0070  -26.9300   19.5900 C   0  0  0  0  0  3  0  0  0  0  0  0
  -24.8610  -27.7520   19.5800 C   0  0  0  0  0  3  0  0  0  0  0  0
  -23.6370  -29.8970   20.2530 C   0  0  0  0  0  2  0  0  0  0  0  0
  -24.6860  -31.1600   22.1740 N   0  0  0  0  0  0  0  0  0  0  0  0
  -23.5280  -32.2660   23.7920 O   0  0  0  0  0  0  0  0  0  0  0  0
  -22.7420  -29.5710   22.5950 C   0  0  0  0  0  0  0  0  0  0  0  0
  -21.4150  -29.3940   22.4670 N   0  0  0  0  0  0  0  0  0  0  0  0
  -23.4150  -28.9520   23.4240 O   0  0  0  0  0  0  0  0  0  0  0  0
  -20.9290  -29.9460   21.7730 H   0  0  0  0  0  0  0  0  0  0  0  0
  -18.0370  -28.1870   22.9690 C   0  0  0  0  0  0  0  0  0  0  0  0
  -20.5940  -28.4600   23.2420 C   0  0  0  0  0  3  0  0  0  0  0  0
  -20.7030  -27.0240   22.6770 C   0  0  0  0  0  2  0  0  0  0  0  0
  -19.6040  -26.6910   21.6610 C   0  0  0  0  0  2  0  0  0  0  0  0
  -18.2200  -26.8350   22.3010 C   0  0  0  0  0  2  0  0  0  0  0  0
  -19.1520  -28.9560   23.3970 C   0  0  0  0  0  0  0  0  0  0  0  0
  -18.9260  -30.2210   23.9840 C   0  0  0  0  0  3  0  0  0  0  0  0
  -17.6180  -30.7160   24.1450 C   0  0  0  0  0  3  0  0  0  0  0  0
  -16.5180  -29.9440   23.7330 C   0  0  0  0  0  3  0  0  0  0  0  0
  -16.7290  -28.6810   23.1510 C   0  0  0  0  0  3  0  0  0  0  0  0
  -25.8920  -32.6210   23.8870 C   0  0  0  0  0  3  0  0  0  0  0  0
  -26.4060  -31.8570   25.1690 C   0  0  1  0  0  0  0  0  0  0  0  0
  -25.3110  -31.6190   26.2350 C   0  0  0  0  0  1  0  0  0  0  0  0
  -26.9960  -30.4790   24.7870 C   0  0  0  0  0  1  0  0  0  0  0  0
  -27.5530  -32.6560   25.8310 C   0  0  0  0  0  1  0  0  0  0  0  0
  -25.5770  -34.0200   24.2190 N   0  0  0  0  0  0  0  0  0  0  0  0
  -25.8890  -35.0750   23.4540 C   0  0  0  0  0  0  0  0  0  0  0  0
  -26.5410  -34.9750   22.4110 O   0  0  0  0  0  0  0  0  0  0  0  0
  -24.9940  -34.1720   25.0290 H   0  0  0  0  0  0  0  0  0  0  0  0
  -24.1340  -36.8530   23.1470 C   0  0  0  0  0  1  0  0  0  0  0  0
  -25.4030  -36.4630   23.9210 C   0  0  0  0  0  3  0  0  0  0  0  0
  -27.5540  -37.3750   24.6820 C   0  0  0  0  0  1  0  0  0  0  0  0
  -26.4230  -37.5250   23.7700 N   0  0  0  0  0  0  0  0  0  0  0  0
  -26.0120  -38.4430   23.9220 H   0  0  0  0  0  0  0  0  0  0  0  0
  1  2  1  0
  3  4  2  0
  3  5  1  0
  4  6  1  0
  5  1  2  0
  6 15  1  0
  6  2  2  0
  7 15  1  0
  8 13  1  0
  9 10  1  0
  9  8  1  0
 11 10  1  0
 11 20  1  0
 11 12  1  0
 13  7  1  0
 13 12  1  0
 14  7  2  0
 15 16  1  0
 17 18  2  0
 18 37  1  0
 19 18  1  0
 19 22  1  0
 20 17  1  0
 20 21  1  0
 21 19  2  0
 22 23  1  0
 23 24  2  0
 25 28  1  0
 25 24  1  0
 26 25  2  0
 27 26  1  0
 27 22  2  0
 28 29  1  0
 29 30  1  0
 30 31  2  0
 32 31  1  0
 32 36  1  0
 33 32  2  0
 34 29  2  0
 34 33  1  0
 35 34  1  0
 37 38  1  0
 38 41  1  0
 38 40  1  0
 39 37  2  0
 42 43  1  0
 42 17  1  0
 44 42  1  0
 45 48  1  1
 45  4  1  0
 46 45  1  0
 47 45  1  0
 49  5  1  0
 49 51  1  0
 50 49  1  0
 52 53  1  0
 52 51  2  0
 54 65  2  0
 55 53  1  0
 55 60  1  0
 56 64  1  0
 56 66  1  0
 57 63  1  0
 57 59  1  0
 58 64  1  0
 59 60  2  0
 59 58  1  0
 61 55  2  0
 62 61  1  0
 62 57  2  0
 63 56  1  0
 64 54  1  0
 66 68  2  0
 67 66  1  0
 69 67  1  0
 70 79  2  0
 70 75  1  0
 71 67  1  0
 71 75  1  0
 72 71  1  0
 73 74  1  0
 73 72  1  0
 74 70  1  0
 75 76  2  0
 76 77  1  0
 78 77  2  0
 79 78  1  0
 80 54  1  0
 80 85  1  0
 80 81  1  0
 81 84  1  1
 81 82  1  0
 83 81  1  0
 85 88  1  0
 86 90  1  0
 86 85  1  0
 87 86  2  0
 90 89  1  0
 92 90  1  0
 92 93  1  0
 92 91  1  0
M  ISO  4   7 100  15 100  52 101  53 101
M  END
>  <TORSDO>  (69) 
F 20

>  <SCORE>  (69) 
-13.364

>  <name>  (69) 
69

>  <ligand_id>  (69) 
69

>  <original_smiles>  (69) 
[H]c1c([H])c([H])c2c(c1[H])C([H])([H])C([H])([H])C([H])([H])C2([H])N([H])C(=O)C1([H])N(C(=O)C([H])(N([H])C(=O)C([H])(N([H])C([H])([H])[H])C([H])([H])[H])C(C([H])([H])[H])(C([H])([H])[H])C([H])([H])[H])C([H])([H])c2c([H])c(OC([H])([H])C([H])([H])N([H])c3c([H])c([H])c(N([H])C(=O)N4C([H])([H])C([H])([H])C([H])([H])C([H])(n5nc(-c6c([H])c([H])c(Oc7c([H])c([H])c(F)c([H])c7F)c([H])c6[H])c(C(=O)N([H])[H])c5N([H])[H])C4([H])[H])c(C(F)(F)F)c3[H])c([H])c([H])c2C1([H])[H]

>  <smiles>  (69) 
[H]c1c([H])c([H])c2c(c1[H])C([H])([H])C([H])([H])C([H])([H])C2([H])N([H])C(=O)C1([H])N(C(=O)C([H])(N([H])C(=O)C([H])(N([H])C([H])([H])[H])C([H])([H])[H])C(C([H])([H])[H])(C([H])([H])[H])C([H])([H])[H])C([H])([H])c2c([H])c(OC([H])([H])C([H])([H])N([H])c3c([H])c([H])c(N([H])C(=O)N4C([H])([H])C([H])([H])C([H])([H])C([H])(n5nc(-c6c([H])c([H])c(Oc7c([H])c([H])c(F)c([H])c7F)c([H])c6[H])c(C(=O)N([H])[H])c5N([H])[H])C4([H])[H])c(C(F)(F)F)c3[H])c([H])c([H])c2C1([H])[H]

$$$$
70:0:0
     RDKit          3D

 99108  0  0  1  0  0  0  0  0999 V2000
  -29.8210  -22.1820   19.9730 C   0  0  0  0  0  3  0  0  0  0  0  0
  -28.3170  -18.2910   18.3520 C   0  0  0  0  0  2  0  0  0  0  0  0
  -30.5220  -18.8750   21.9160 C   0  0  0  0  0  2  0  0  0  0  0  0
  -28.9270  -16.9620   18.8050 C   0  0  0  0  0  2  0  0  0  0  0  0
  -30.8830  -20.3700   21.7290 C   0  0  0  0  0  2  0  0  0  0  0  0
  -29.3560  -19.4090   18.4880 C   0  0  0  0  0  2  0  0  0  0  0  0
  -30.2950  -18.3220   20.4930 C   0  0  0  0  0  3  0  0  0  0  0  0
  -29.3670  -17.0430   20.2870 C   0  0  0  0  0  3  0  0  0  0  0  0
  -30.4930  -20.7410   20.2760 C   0  0  0  0  0  3  0  0  0  0  0  0
  -29.6780  -19.5500   19.9130 N   0  0  0  0  0  0  0  0  0  0  0  0
  -30.5250  -14.7050   20.2990 C   0  0  0  0  0  0  0  0  0  0  0  0
  -30.2810  -12.5160   19.1240 C   0  0  0  0  0  2  0  0  0  0  0  0
  -29.3050  -12.7470   17.9470 C   0  0  0  0  0  2  0  0  0  0  0  0
  -27.8410  -12.5770   18.4120 C   0  0  0  0  0  2  0  0  0  0  0  0
  -27.5350  -13.3450   19.7320 C   0  0  0  0  0  3  0  0  0  0  0  0
  -28.6340  -13.0950   20.7920 C   0  0  0  0  0  2  0  0  0  0  0  0
  -29.9280  -13.4710   20.1980 N   0  0  0  0  0  0  0  0  0  0  0  0
  -31.6120  -14.9530   19.7710 O   0  0  0  0  0  0  0  0  0  0  0  0
  -29.7380  -15.6870   20.8240 N   0  0  0  0  0  0  0  0  0  0  0  0
  -29.0140  -15.2920   21.4080 H   0  0  0  0  0  0  0  0  0  0  0  0
  -25.1560  -13.8780   20.5520 C   0  0  0  0  0  0  0  0  0  0  0  0
  -24.1180  -13.0770   20.9320 C   0  0  0  0  0  0  0  0  0  0  0  0
  -24.6010  -11.7350   20.8450 C   0  0  0  0  0  0  0  0  0  0  0  0
  -26.2070  -13.0220   20.2480 N   0  0  0  0  0  0  0  0  0  0  0  0
  -25.8810  -11.7270   20.4890 N   0  0  0  0  0  0  0  0  0  0  0  0
  -23.9070  -10.4560   21.0250 C   0  0  0  0  0  0  0  0  0  0  0  0
  -24.3450   -9.5100   21.9790 C   0  0  0  0  0  3  0  0  0  0  0  0
  -23.6560   -8.2900   22.1430 C   0  0  0  0  0  3  0  0  0  0  0  0
  -22.5110   -8.0120   21.3580 C   0  0  0  0  0  0  0  0  0  0  0  0
  -22.0960   -8.9460   20.3920 C   0  0  0  0  0  3  0  0  0  0  0  0
  -22.7860  -10.1560   20.2260 C   0  0  0  0  0  3  0  0  0  0  0  0
  -21.7930   -6.8440   21.4340 O   0  0  0  0  0  0  0  0  0  0  0  0
  -21.6830   -6.1380   22.6050 C   0  0  0  0  0  0  0  0  0  0  0  0
  -21.0610   -6.6810   23.7500 C   0  0  0  0  0  3  0  0  0  0  0  0
  -20.9160   -5.8950   24.9100 C   0  0  0  0  0  3  0  0  0  0  0  0
  -21.3740   -4.5640   24.9250 C   0  0  0  0  0  0  0  0  0  0  0  0
  -21.9770   -4.0160   23.7790 C   0  0  0  0  0  3  0  0  0  0  0  0
  -22.1300   -4.8010   22.6210 C   0  0  0  0  0  0  0  0  0  0  0  0
  -22.7030   -4.2620   21.5190 F   0  0  0  0  0  0  0  0  0  0  0  0
  -21.2180   -3.8060   26.0350 F   0  0  0  0  0  0  0  0  0  0  0  0
  -22.7200  -13.5200   21.2600 C   0  0  0  0  0  0  0  0  0  0  0  0
  -22.0260  -12.7800   22.1120 N   0  0  0  0  0  0  0  0  0  0  0  0
  -22.2520  -14.5580   20.7890 O   0  0  0  0  0  0  0  0  0  0  0  0
  -22.4110  -11.9490   22.5340 H   0  0  0  0  0  0  0  0  0  0  0  0
  -21.0830  -13.0450   22.3490 H   0  0  0  0  0  0  0  0  0  0  0  0
  -25.3000  -15.2570   20.4250 N   0  0  0  0  0  0  0  0  0  0  0  0
  -24.5380  -15.8990   20.6230 H   0  0  0  0  0  0  0  0  0  0  0  0
  -26.1620  -15.7230   20.1820 H   0  0  0  0  0  0  0  0  0  0  0  0
  -30.5960  -22.8990   18.8470 C   0  0  0  0  0  0  0  0  0  0  0  0
  -30.1910  -22.8190   17.5850 N   0  0  0  0  0  0  0  0  0  0  0  0
  -31.5510  -23.6240   19.1400 O   0  0  0  0  0  0  0  0  0  0  0  0
  -29.4350  -22.2080   17.3050 H   0  0  0  0  0  0  0  0  0  0  0  0
  -30.6380  -23.3880   16.8820 H   0  0  0  0  0  0  0  0  0  0  0  0
  -29.7780  -23.1900   21.0890 N   0  0  0  0  0  4  0  0  0  0  0  0
  -29.8050  -22.7080   21.9690 H   0  0  0  0  0  0  0  0  0  0  0  0
  -30.6520  -23.6890   20.9810 H   0  0  0  0  0  0  0  0  0  0  0  0
  -28.6580  -24.2190   21.1440 C   0  0  0  0  0  2  0  0  0  0  0  0
  -28.6410  -25.3560   20.0450 C   0  0  0  0  0  2  0  0  0  0  0  0
  -28.5160  -26.7330   20.5130 O   0  0  0  0  0  0  0  0  0  0  0  0
  -24.5770  -31.9620   23.3510 C   0  0  0  0  0  0  0  0  0  0  0  0
  -27.3330  -27.4620   20.4030 C   0  0  0  0  0  0  0  0  0  0  0  0
  -23.4360  -30.5410   21.6800 C   0  0  0  0  0  3  0  0  0  0  0  0
  -24.9420  -29.0060   20.3070 C   0  0  0  0  0  0  0  0  0  0  0  0
  -25.9680  -30.9010   21.5690 C   0  0  0  0  0  2  0  0  0  0  0  0
  -26.0770  -29.5250   20.9380 C   0  0  0  0  0  0  0  0  0  0  0  0
  -27.2740  -28.7600   20.9810 C   0  0  0  0  0  3  0  0  0  0  0  0
  -26.1760  -26.9800   19.7470 C   0  0  0  0  0  3  0  0  0  0  0  0
  -24.9910  -27.7380   19.7060 C   0  0  0  0  0  3  0  0  0  0  0  0
  -23.6940  -29.8650   20.3100 C   0  0  0  0  0  2  0  0  0  0  0  0
  -24.6760  -31.1520   22.2580 N   0  0  0  0  0  0  0  0  0  0  0  0
  -23.4780  -32.2310   23.8490 O   0  0  0  0  0  0  0  0  0  0  0  0
  -22.7600  -29.5190   22.6240 C   0  0  0  0  0  0  0  0  0  0  0  0
  -21.4470  -29.3070   22.4410 N   0  0  0  0  0  0  0  0  0  0  0  0
  -23.4180  -28.9200   23.4780 O   0  0  0  0  0  0  0  0  0  0  0  0
  -20.9790  -29.8510   21.7290 H   0  0  0  0  0  0  0  0  0  0  0  0
  -18.0740  -28.0640   22.8140 C   0  0  0  0  0  0  0  0  0  0  0  0
  -20.6130  -28.3630   23.1860 C   0  0  0  0  0  3  0  0  0  0  0  0
  -20.7620  -26.9290   22.6250 C   0  0  0  0  0  2  0  0  0  0  0  0
  -19.7050  -26.5810   21.5720 C   0  0  0  0  0  2  0  0  0  0  0  0
  -18.2960  -26.7130   22.1570 C   0  0  0  0  0  2  0  0  0  0  0  0
  -19.1610  -28.8460   23.2810 C   0  0  0  0  0  0  0  0  0  0  0  0
  -18.9010  -30.1120   23.8500 C   0  0  0  0  0  3  0  0  0  0  0  0
  -17.5820  -30.5940   23.9590 C   0  0  0  0  0  3  0  0  0  0  0  0
  -16.5080  -29.8080   23.5080 C   0  0  0  0  0  3  0  0  0  0  0  0
  -16.7530  -28.5450   22.9420 C   0  0  0  0  0  3  0  0  0  0  0  0
  -25.8350  -32.6100   24.0060 C   0  0  0  0  0  3  0  0  0  0  0  0
  -25.5220  -34.0210   24.2670 N   0  0  0  0  0  0  0  0  0  0  0  0
  -25.8830  -35.0400   23.4760 C   0  0  0  0  0  0  0  0  0  0  0  0
  -26.5890  -34.8900   22.4740 O   0  0  0  0  0  0  0  0  0  0  0  0
  -24.9070  -34.2100   25.0450 H   0  0  0  0  0  0  0  0  0  0  0  0
  -24.1830  -36.8270   22.9820 C   0  0  0  0  0  1  0  0  0  0  0  0
  -25.3850  -36.4470   23.8620 C   0  0  0  0  0  3  0  0  0  0  0  0
  -27.4780  -37.3660   24.7600 C   0  0  0  0  0  1  0  0  0  0  0  0
  -26.4270  -37.4910   23.7530 N   0  0  0  0  0  0  0  0  0  0  0  0
  -26.0200  -38.4190   23.8340 H   0  0  0  0  0  0  0  0  0  0  0  0
  -26.2830  -31.8840   25.3330 C   0  0  1  0  0  0  0  0  0  0  0  0
  -25.1360  -31.6800   26.3500 C   0  0  0  0  0  1  0  0  0  0  0  0
  -26.8890  -30.4980   25.0180 C   0  0  0  0  0  1  0  0  0  0  0  0
  -27.3930  -32.7080   26.0300 C   0  0  0  0  0  1  0  0  0  0  0  0
  1 49  1  0
  1 54  1  0
  2  6  1  0
  2  4  1  0
  4  8  1  0
  5  3  1  0
  7  3  1  0
  8  7  1  0
  8 19  1  0
  9  1  1  0
  9  5  1  0
 10  6  1  0
 10  9  1  0
 10  7  1  0
 11 19  1  0
 12 17  1  0
 13 14  1  0
 13 12  1  0
 15 14  1  0
 15 24  1  0
 15 16  1  0
 17 11  1  0
 17 16  1  0
 18 11  2  0
 19 20  1  0
 21 22  2  0
 22 41  1  0
 23 22  1  0
 23 26  1  0
 24 25  1  0
 24 21  1  0
 25 23  2  0
 26 27  1  0
 27 28  2  0
 29 32  1  0
 29 28  1  0
 30 29  2  0
 31 30  1  0
 31 26  2  0
 32 33  1  0
 33 38  2  0
 33 34  1  0
 34 35  2  0
 35 36  1  0
 36 40  1  0
 37 36  2  0
 38 37  1  0
 39 38  1  0
 41 42  1  0
 42 45  1  0
 42 44  1  0
 43 41  2  0
 46 21  1  0
 46 47  1  0
 48 46  1  0
 49 51  2  0
 50 49  1  0
 52 50  1  0
 53 50  1  0
 54 57  1  0
 54 55  1  0
 56 54  1  0
 58 59  1  0
 58 57  1  0
 60 71  2  0
 61 59  1  0
 61 66  1  0
 62 70  1  0
 62 72  1  0
 63 69  1  0
 63 65  1  0
 64 70  1  0
 65 66  2  0
 65 64  1  0
 67 61  2  0
 68 67  1  0
 68 63  2  0
 69 62  1  0
 70 60  1  0
 72 74  2  0
 73 72  1  0
 75 73  1  0
 76 85  2  0
 76 81  1  0
 77 73  1  0
 77 81  1  0
 78 77  1  0
 79 80  1  0
 79 78  1  0
 80 76  1  0
 81 82  2  0
 82 83  1  0
 84 83  2  0
 85 84  1  0
 86 60  1  0
 86 87  1  0
 86 96  1  0
 87 90  1  0
 88 92  1  0
 88 87  1  0
 89 88  2  0
 92 91  1  0
 94 95  1  0
 94 92  1  0
 94 93  1  0
 96 99  1  1
 96 97  1  0
 98 96  1  0
M  ISO  4  11 100  19 100  58 101  59 101
M  END
>  <TORSDO>  (70) 
F 21

>  <SCORE>  (70) 
-13.631

>  <name>  (70) 
70

>  <ligand_id>  (70) 
70

>  <original_smiles>  (70) 
[H]c1c([H])c([H])c2c(c1[H])C([H])([H])C([H])([H])C([H])([H])C2([H])N([H])C(=O)C1([H])N(C(=O)C([H])(N([H])C(=O)C([H])(N([H])C([H])([H])[H])C([H])([H])[H])C(C([H])([H])[H])(C([H])([H])[H])C([H])([H])[H])C([H])([H])c2c([H])c(OC([H])([H])C([H])([H])[N+]([H])([H])C([H])(C(=O)N([H])[H])C3([H])N4C([H])([H])C([H])([H])C([H])([H])C([H])(N([H])C(=O)N5C([H])([H])C([H])([H])C([H])([H])C([H])(n6nc(-c7c([H])c([H])c(Oc8c([H])c([H])c(F)c([H])c8F)c([H])c7[H])c(C(=O)N([H])[H])c6N([H])[H])C5([H])[H])C4([H])C([H])([H])C3([H])[H])c([H])c([H])c2C1([H])[H]

>  <smiles>  (70) 
[H]c1c([H])c([H])c2c(c1[H])C([H])([H])C([H])([H])C([H])([H])C2([H])N([H])C(=O)C1([H])N(C(=O)C([H])(N([H])C(=O)C([H])(N([H])C([H])([H])[H])C([H])([H])[H])C(C([H])([H])[H])(C([H])([H])[H])C([H])([H])[H])C([H])([H])c2c([H])c(OC([H])([H])C([H])([H])[N+]([H])([H])C([H])(C(=O)N([H])[H])C3([H])N4C([H])([H])C([H])([H])C([H])([H])C([H])(N([H])C(=O)N5C([H])([H])C([H])([H])C([H])([H])C([H])(n6nc(-c7c([H])c([H])c(Oc8c([H])c([H])c(F)c([H])c8F)c([H])c7[H])c(C(=O)N([H])[H])c6N([H])[H])C5([H])[H])C4([H])C([H])([H])C3([H])[H])c([H])c([H])c2C1([H])[H]

$$$$
71:0:0
     RDKit          3D

102112  0  0  1  0  0  0  0  0999 V2000
  -26.3360  -18.4930   16.8260 C   0  0  0  0  0  3  0  0  0  0  0  0
  -26.5340  -19.8800   16.7110 C   0  0  0  0  0  3  0  0  0  0  0  0
  -27.1430  -17.7470   17.7040 C   0  0  0  0  0  3  0  0  0  0  0  0
  -27.5320  -20.5170   17.4730 C   0  0  0  0  0  3  0  0  0  0  0  0
  -31.6960  -19.3660   21.9880 C   0  0  0  0  0  3  0  0  0  0  0  0
  -31.5450  -17.9690   21.9510 C   0  0  0  0  0  3  0  0  0  0  0  0
  -28.9270  -17.6370   19.3410 C   0  0  0  0  0  3  0  0  0  0  0  0
  -28.1330  -18.3910   18.4760 C   0  0  0  0  0  0  0  0  0  0  0  0
  -28.3520  -19.7810   18.3660 C   0  0  0  0  0  0  0  0  0  0  0  0
  -29.8630  -18.2260   20.2110 C   0  0  0  0  0  0  0  0  0  0  0  0
  -30.0620  -19.6480   20.1700 C   0  0  0  0  0  0  0  0  0  0  0  0
  -30.9290  -20.2260   21.1620 C   0  0  0  0  0  0  0  0  0  0  0  0
  -29.3850  -20.3890   19.1350 C   0  0  0  0  0  0  0  0  0  0  0  0
  -30.5980  -17.3840   21.0950 C   0  0  0  0  0  0  0  0  0  0  0  0
  -29.8160  -21.7920   18.7000 C   0  0  0  0  0  1  0  0  0  0  0  0
  -31.0970  -14.9670   20.7250 C   0  0  0  0  0  0  0  0  0  0  0  0
  -30.8300  -12.8840   19.4380 C   0  0  0  0  0  2  0  0  0  0  0  0
  -29.9130  -13.1810   18.2320 C   0  0  0  0  0  2  0  0  0  0  0  0
  -28.4270  -13.0050   18.6140 C   0  0  0  0  0  2  0  0  0  0  0  0
  -28.0630  -13.7340   19.9330 C   0  0  0  0  0  3  0  0  0  0  0  0
  -29.1000  -13.4490   21.0430 C   0  0  0  0  0  2  0  0  0  0  0  0
  -30.4330  -13.7940   20.5200 N   0  0  0  0  0  0  0  0  0  0  0  0
  -32.2570  -15.1530   20.3510 O   0  0  0  0  0  0  0  0  0  0  0  0
  -30.3330  -15.9740   21.1980 N   0  0  0  0  0  0  0  0  0  0  0  0
  -29.3790  -15.7150   21.3920 H   0  0  0  0  0  0  0  0  0  0  0  0
  -25.6570  -14.3460   20.6040 C   0  0  0  0  0  0  0  0  0  0  0  0
  -24.5700  -13.5700   20.8970 C   0  0  0  0  0  0  0  0  0  0  0  0
  -25.0210  -12.2170   20.8090 C   0  0  0  0  0  0  0  0  0  0  0  0
  -26.6980  -13.4620   20.3600 N   0  0  0  0  0  0  0  0  0  0  0  0
  -26.3180  -12.1760   20.5400 N   0  0  0  0  0  0  0  0  0  0  0  0
  -24.2840  -10.9550   20.9080 C   0  0  0  0  0  0  0  0  0  0  0  0
  -24.6560   -9.9560   21.8350 C   0  0  0  0  0  3  0  0  0  0  0  0
  -23.9200   -8.7560   21.9250 C   0  0  0  0  0  3  0  0  0  0  0  0
  -22.8000   -8.5460   21.0850 C   0  0  0  0  0  0  0  0  0  0  0  0
  -22.4490   -9.5330   20.1490 C   0  0  0  0  0  3  0  0  0  0  0  0
  -23.1840  -10.7270   20.0570 C   0  0  0  0  0  3  0  0  0  0  0  0
  -22.0420   -7.4010   21.0880 O   0  0  0  0  0  0  0  0  0  0  0  0
  -21.8590   -6.6620   22.2290 C   0  0  0  0  0  0  0  0  0  0  0  0
  -21.2550   -7.2070   23.3820 C   0  0  0  0  0  3  0  0  0  0  0  0
  -21.0240   -6.3910   24.5070 C   0  0  0  0  0  3  0  0  0  0  0  0
  -21.3850   -5.0310   24.4770 C   0  0  0  0  0  0  0  0  0  0  0  0
  -21.9810   -4.4860   23.3270 C   0  0  0  0  0  3  0  0  0  0  0  0
  -22.2150   -5.2990   22.2050 C   0  0  0  0  0  0  0  0  0  0  0  0
  -22.7720   -4.7640   21.0910 F   0  0  0  0  0  0  0  0  0  0  0  0
  -21.1540   -4.2460   25.5560 F   0  0  0  0  0  0  0  0  0  0  0  0
  -23.1690  -14.0470   21.1510 C   0  0  0  0  0  0  0  0  0  0  0  0
  -22.4100  -13.3180   21.9600 N   0  0  0  0  0  0  0  0  0  0  0  0
  -22.7550  -15.1010   20.6690 O   0  0  0  0  0  0  0  0  0  0  0  0
  -22.7580  -12.4660   22.3750 H   0  0  0  0  0  0  0  0  0  0  0  0
  -21.4680  -13.6160   22.1690 H   0  0  0  0  0  0  0  0  0  0  0  0
  -25.8380  -15.7240   20.5110 N   0  0  0  0  0  0  0  0  0  0  0  0
  -25.0640  -16.3660   20.6410 H   0  0  0  0  0  0  0  0  0  0  0  0
  -26.7030  -16.1970   20.2890 H   0  0  0  0  0  0  0  0  0  0  0  0
  -31.0510  -21.7430   21.4360 C   0  0  0  0  0  2  0  0  0  0  0  0
  -30.9260  -22.1100   22.8620 N   0  0  0  0  0  4  0  0  0  0  0  0
  -31.5920  -21.5450   23.3600 H   0  0  0  0  0  0  0  0  0  0  0  0
  -30.0140  -21.8620   23.2030 H   0  0  0  0  0  0  0  0  0  0  0  0
  -31.2310  -23.5280   23.1860 C   0  0  0  0  0  2  0  0  0  0  0  0
  -30.0880  -24.5150   22.9610 C   0  0  0  0  0  3  0  0  0  0  0  0
  -30.1620  -25.6190   22.1860 C   0  0  0  0  0  3  0  0  0  0  0  0
  -29.0840  -26.6890   22.0710 C   0  0  0  0  0  2  0  0  0  0  0  0
  -28.5610  -26.8030   20.7450 O   0  0  0  0  0  0  0  0  0  0  0  0
  -24.4550  -32.0140   23.3690 C   0  0  0  0  0  0  0  0  0  0  0  0
  -27.3990  -27.5390   20.6550 C   0  0  0  0  0  0  0  0  0  0  0  0
  -23.3760  -30.4930   21.7390 C   0  0  0  0  0  3  0  0  0  0  0  0
  -24.9520  -28.9430   20.4610 C   0  0  0  0  0  0  0  0  0  0  0  0
  -25.8900  -30.9370   21.6440 C   0  0  0  0  0  2  0  0  0  0  0  0
  -26.0540  -29.5400   21.0850 C   0  0  0  0  0  0  0  0  0  0  0  0
  -27.2780  -28.8440   21.1890 C   0  0  0  0  0  3  0  0  0  0  0  0
  -26.2900  -26.9610   20.0080 C   0  0  0  0  0  3  0  0  0  0  0  0
  -25.0630  -27.6500   19.9180 C   0  0  0  0  0  3  0  0  0  0  0  0
  -23.6760  -29.7530   20.4060 C   0  0  0  0  0  2  0  0  0  0  0  0
  -24.5870  -31.1650   22.3090 N   0  0  0  0  0  0  0  0  0  0  0  0
  -23.3410  -32.2750   23.8440 O   0  0  0  0  0  0  0  0  0  0  0  0
  -22.7130  -29.4990   22.7170 C   0  0  0  0  0  0  0  0  0  0  0  0
  -21.4170  -29.2210   22.5000 N   0  0  0  0  0  0  0  0  0  0  0  0
  -23.3630  -28.9770   23.6270 O   0  0  0  0  0  0  0  0  0  0  0  0
  -20.9530  -29.6970   21.7390 H   0  0  0  0  0  0  0  0  0  0  0  0
  -18.0930  -27.8400   22.8060 C   0  0  0  0  0  0  0  0  0  0  0  0
  -20.5970  -28.2820   23.2660 C   0  0  0  0  0  3  0  0  0  0  0  0
  -20.8350  -26.8260   22.8030 C   0  0  0  0  0  2  0  0  0  0  0  0
  -19.8460  -26.3650   21.7290 C   0  0  0  0  0  2  0  0  0  0  0  0
  -18.4060  -26.4630   22.2450 C   0  0  0  0  0  2  0  0  0  0  0  0
  -19.1240  -28.7000   23.2690 C   0  0  0  0  0  0  0  0  0  0  0  0
  -18.7800  -29.9850   23.7470 C   0  0  0  0  0  3  0  0  0  0  0  0
  -17.4390  -30.4090   23.7680 C   0  0  0  0  0  3  0  0  0  0  0  0
  -16.4200  -29.5470   23.3250 C   0  0  0  0  0  3  0  0  0  0  0  0
  -16.7480  -28.2640   22.8490 C   0  0  0  0  0  3  0  0  0  0  0  0
  -25.6910  -32.7140   24.0170 C   0  0  0  0  0  3  0  0  0  0  0  0
  -25.3520  -34.1330   24.1960 N   0  0  0  0  0  0  0  0  0  0  0  0
  -25.7620  -35.1200   23.3860 C   0  0  0  0  0  0  0  0  0  0  0  0
  -26.5340  -34.9340   22.4420 O   0  0  0  0  0  0  0  0  0  0  0  0
  -24.6780  -34.3500   24.9150 H   0  0  0  0  0  0  0  0  0  0  0  0
  -24.1010  -36.8700   22.6830 C   0  0  0  0  0  1  0  0  0  0  0  0
  -25.2320  -36.5370   23.6700 C   0  0  0  0  0  3  0  0  0  0  0  0
  -27.2500  -37.4930   24.6880 C   0  0  0  0  0  1  0  0  0  0  0  0
  -26.2760  -37.5820   23.6030 N   0  0  0  0  0  0  0  0  0  0  0  0
  -25.8610  -38.5090   23.6280 H   0  0  0  0  0  0  0  0  0  0  0  0
  -26.1260  -32.0660   25.3880 C   0  0  1  0  0  0  0  0  0  0  0  0
  -24.9560  -31.8680   26.3810 C   0  0  0  0  0  1  0  0  0  0  0  0
  -26.7850  -30.6860   25.1570 C   0  0  0  0  0  1  0  0  0  0  0  0
  -27.1900  -32.9540   26.0770 C   0  0  0  0  0  1  0  0  0  0  0  0
  1  3  1  0
  2  1  2  0
  2  4  1  0
  3  8  2  0
  4  9  2  0
  6  5  1  0
  7 10  2  0
  8  7  1  0
  9  8  1  0
  9 13  1  0
 10 14  1  0
 11 10  1  0
 11 12  1  0
 12 54  1  0
 12  5  2  0
 13 11  2  0
 14 24  1  0
 14  6  2  0
 15 13  1  0
 16 24  1  0
 17 22  1  0
 18 19  1  0
 18 17  1  0
 20 19  1  0
 20 29  1  0
 20 21  1  0
 22 16  1  0
 22 21  1  0
 23 16  2  0
 24 25  1  0
 26 27  2  0
 27 46  1  0
 28 27  1  0
 28 31  1  0
 29 30  1  0
 29 26  1  0
 30 28  2  0
 31 32  1  0
 32 33  2  0
 34 37  1  0
 34 33  1  0
 35 34  2  0
 36 35  1  0
 36 31  2  0
 37 38  1  0
 38 39  1  0
 39 40  2  0
 41 40  1  0
 41 45  1  0
 42 41  2  0
 43 38  2  0
 43 42  1  0
 44 43  1  0
 46 47  1  0
 47 50  1  0
 47 49  1  0
 48 46  2  0
 51 26  1  0
 51 52  1  0
 53 51  1  0
 54 55  1  0
 55 58  1  0
 55 57  1  0
 55 56  1  0
 59 58  1  0
 60 59  2  0
 61 60  1  0
 62 61  1  0
 63 74  2  0
 64 62  1  0
 64 69  1  0
 65 73  1  0
 65 75  1  0
 66 68  1  0
 67 73  1  0
 68 69  2  0
 68 67  1  0
 70 64  2  0
 71 70  1  0
 71 66  2  0
 72 66  1  0
 72 65  1  0
 73 63  1  0
 75 77  2  0
 76 75  1  0
 78 76  1  0
 79 88  2  0
 79 84  1  0
 80 76  1  0
 80 84  1  0
 81 80  1  0
 82 83  1  0
 82 81  1  0
 83 79  1  0
 84 85  2  0
 85 86  1  0
 87 86  2  0
 88 87  1  0
 89 63  1  0
 89 90  1  0
 89 99  1  0
 90 93  1  0
 91 95  1  0
 91 90  1  0
 92 91  2  0
 95 94  1  0
 97 98  1  0
 97 95  1  0
 97 96  1  0
 99102  1  1
 99100  1  0
101 99  1  0
M  ISO  4  16 100  24 100  61 101  62 101
M  END
>  <TORSDO>  (71) 
F 21

>  <SCORE>  (71) 
-7.976

>  <name>  (71) 
71

>  <ligand_id>  (71) 
71

>  <original_smiles>  (71) 
[H]C(=C([H])C([H])([H])[N+]([H])([H])C([H])([H])c1c([H])c([H])c(N([H])C(=O)N2C([H])([H])C([H])([H])C([H])([H])C([H])(n3nc(-c4c([H])c([H])c(Oc5c([H])c([H])c(F)c([H])c5F)c([H])c4[H])c(C(=O)N([H])[H])c3N([H])[H])C2([H])[H])c2c([H])c3c([H])c([H])c([H])c([H])c3c(C([H])([H])[H])c12)C([H])([H])Oc1c([H])c([H])c2c(c1[H])C([H])([H])N(C(=O)C([H])(N([H])C(=O)C([H])(N([H])C([H])([H])[H])C([H])([H])[H])C(C([H])([H])[H])(C([H])([H])[H])C([H])([H])[H])C([H])(C(=O)N([H])C1([H])c3c([H])c([H])c([H])c([H])c3C([H])([H])C([H])([H])C1([H])[H])C2([H])[H]

>  <smiles>  (71) 
[H]C(=C([H])C([H])([H])[N+]([H])([H])C([H])([H])c1c([H])c([H])c(N([H])C(=O)N2C([H])([H])C([H])([H])C([H])([H])C([H])(n3nc(-c4c([H])c([H])c(Oc5c([H])c([H])c(F)c([H])c5F)c([H])c4[H])c(C(=O)N([H])[H])c3N([H])[H])C2([H])[H])c2c([H])c3c([H])c([H])c([H])c([H])c3c(C([H])([H])[H])c12)C([H])([H])Oc1c([H])c([H])c2c(c1[H])C([H])([H])N(C(=O)C([H])(N([H])C(=O)C([H])(N([H])C([H])([H])[H])C([H])([H])[H])C(C([H])([H])[H])(C([H])([H])[H])C([H])([H])[H])C([H])(C(=O)N([H])C1([H])c3c([H])c([H])c([H])c([H])c3C([H])([H])C([H])([H])C1([H])[H])C2([H])[H]

$$$$
72:0:0
     RDKit          3D

 92101  0  0  1  0  0  0  0  0999 V2000
  -31.1570  -14.9760   20.4020 C   0  0  0  0  0  0  0  0  0  0  0  0
  -31.2610  -12.3770   21.0320 C   0  0  0  0  0  2  0  0  0  0  0  0
  -30.6900  -11.3270   20.0370 C   0  0  0  0  0  2  0  0  0  0  0  0
  -29.1860  -11.1430   20.2650 C   0  0  0  0  0  2  0  0  0  0  0  0
  -28.4860  -12.5030   20.4760 C   0  0  0  0  0  3  0  0  0  0  0  0
  -29.2170  -13.4440   21.4660 C   0  0  0  0  0  2  0  0  0  0  0  0
  -30.5430  -13.7280   20.8700 N   0  0  0  0  0  0  0  0  0  0  0  0
  -32.3800  -14.8540   20.6170 O   0  0  0  0  0  0  0  0  0  0  0  0
  -28.0460  -20.8670   18.6620 C   0  0  0  0  0  3  0  0  0  0  0  0
  -28.3590  -19.5940   19.1910 C   0  0  0  0  0  3  0  0  0  0  0  0
  -28.6260  -21.4090   17.4940 C   0  0  0  0  0  3  0  0  0  0  0  0
  -30.0110  -19.3400   17.4470 C   0  0  0  0  0  0  0  0  0  0  0  0
  -29.3440  -18.7410   18.6470 C   0  0  0  0  0  0  0  0  0  0  0  0
  -29.6030  -20.7610   16.7080 C   0  0  0  0  0  0  0  0  0  0  0  0
  -31.0130  -18.1140   17.2810 C   0  0  0  0  0  0  0  0  0  0  0  0
  -29.4750  -17.2080   19.4340 C   0  0  0  0  0  2  0  0  0  0  0  0
  -31.5450  -17.0890   18.5370 C   0  0  0  0  0  2  0  0  0  0  0  0
  -30.6700  -16.1540   19.4760 N   0  0  0  0  0  0  0  0  0  0  0  0
  -31.4930  -17.8930   16.1670 O   0  0  0  0  0  0  0  0  0  0  0  0
  -26.1280  -13.3780   20.7890 C   0  0  0  0  0  0  0  0  0  0  0  0
  -24.9220  -12.7620   20.9630 C   0  0  0  0  0  0  0  0  0  0  0  0
  -25.1960  -11.3620   21.0320 C   0  0  0  0  0  0  0  0  0  0  0  0
  -27.0660  -12.3650   20.7520 N   0  0  0  0  0  0  0  0  0  0  0  0
  -26.5050  -11.1460   20.9670 N   0  0  0  0  0  0  0  0  0  0  0  0
  -24.2790  -10.2150   21.0960 C   0  0  0  0  0  0  0  0  0  0  0  0
  -24.3930   -9.2340   22.1070 C   0  0  0  0  0  3  0  0  0  0  0  0
  -23.4820   -8.1570   22.1630 C   0  0  0  0  0  3  0  0  0  0  0  0
  -22.4470   -8.0520   21.2040 C   0  0  0  0  0  0  0  0  0  0  0  0
  -22.3510   -9.0190   20.1870 C   0  0  0  0  0  3  0  0  0  0  0  0
  -23.2590  -10.0880   20.1310 C   0  0  0  0  0  3  0  0  0  0  0  0
  -21.5350   -7.0250   21.1640 O   0  0  0  0  0  0  0  0  0  0  0  0
  -21.1430   -6.3650   22.3020 C   0  0  0  0  0  0  0  0  0  0  0  0
  -20.6740   -7.0550   23.4400 C   0  0  0  0  0  3  0  0  0  0  0  0
  -20.2220   -6.3320   24.5630 C   0  0  0  0  0  3  0  0  0  0  0  0
  -20.2230   -4.9250   24.5450 C   0  0  0  0  0  0  0  0  0  0  0  0
  -20.6800   -4.2370   23.4070 C   0  0  0  0  0  3  0  0  0  0  0  0
  -21.1360   -4.9540   22.2880 C   0  0  0  0  0  0  0  0  0  0  0  0
  -21.5580   -4.2850   21.1880 F   0  0  0  0  0  0  0  0  0  0  0  0
  -19.7780   -4.2340   25.6180 F   0  0  0  0  0  0  0  0  0  0  0  0
  -23.5810  -13.4340   20.9600 C   0  0  0  0  0  0  0  0  0  0  0  0
  -22.6120  -12.8660   21.6670 N   0  0  0  0  0  0  0  0  0  0  0  0
  -23.4030  -14.4990   20.3680 O   0  0  0  0  0  0  0  0  0  0  0  0
  -22.7660  -11.9970   22.1570 H   0  0  0  0  0  0  0  0  0  0  0  0
  -21.7080  -13.3110   21.7310 H   0  0  0  0  0  0  0  0  0  0  0  0
  -26.5090  -14.7080   20.6250 N   0  0  0  0  0  0  0  0  0  0  0  0
  -25.8290  -15.4600   20.5860 H   0  0  0  0  0  0  0  0  0  0  0  0
  -27.4530  -15.0140   20.4320 H   0  0  0  0  0  0  0  0  0  0  0  0
  -29.8520  -21.6510   15.3810 N   0  0  0  0  0  0  0  0  0  0  0  0
  -30.9080  -23.0380   14.9610 O   0  0  0  0  0  0  0  0  0  0  0  0
  -35.2840  -28.3500   18.3790 C   0  0  0  0  0  0  0  0  0  0  0  0
  -31.0940  -24.4930   15.4630 C   0  0  0  0  0  0  0  0  0  0  0  0
  -32.8400  -28.4740   18.6590 C   0  0  0  0  0  3  0  0  0  0  0  0
  -31.3880  -27.1340   16.9480 C   0  0  0  0  0  0  0  0  0  0  0  0
  -33.8040  -27.4900   16.4740 C   0  0  0  0  0  2  0  0  0  0  0  0
  -32.5050  -26.6180   16.2820 C   0  0  0  0  0  0  0  0  0  0  0  0
  -32.3460  -25.3360   15.5450 C   0  0  0  0  0  3  0  0  0  0  0  0
  -30.0360  -25.2180   16.0660 C   0  0  0  0  0  3  0  0  0  0  0  0
  -30.1640  -26.4480   16.7850 C   0  0  0  0  0  3  0  0  0  0  0  0
  -31.5350  -28.4000   17.8080 C   0  0  0  0  0  2  0  0  0  0  0  0
  -34.0410  -28.0980   17.8410 N   0  0  0  0  0  0  0  0  0  0  0  0
  -35.4250  -28.8540   19.5060 O   0  0  0  0  0  0  0  0  0  0  0  0
  -32.6900  -27.6080   19.9380 C   0  0  0  0  0  0  0  0  0  0  0  0
  -31.6700  -27.8840   20.7750 N   0  0  0  0  0  0  0  0  0  0  0  0
  -33.4810  -26.6840   20.1510 O   0  0  0  0  0  0  0  0  0  0  0  0
  -31.0720  -28.6670   20.5510 H   0  0  0  0  0  0  0  0  0  0  0  0
  -29.2160  -27.5160   23.4310 C   0  0  0  0  0  0  0  0  0  0  0  0
  -31.3260  -27.1240   21.9840 C   0  0  0  0  0  3  0  0  0  0  0  0
  -30.6920  -25.7610   21.6220 C   0  0  0  0  0  2  0  0  0  0  0  0
  -29.1620  -25.8020   21.5690 C   0  0  0  0  0  2  0  0  0  0  0  0
  -28.5920  -26.2250   22.9250 C   0  0  0  0  0  2  0  0  0  0  0  0
  -30.4920  -27.9460   22.9770 C   0  0  0  0  0  0  0  0  0  0  0  0
  -31.0140  -29.1680   23.4580 C   0  0  0  0  0  3  0  0  0  0  0  0
  -30.2850  -29.9500   24.3730 C   0  0  0  0  0  3  0  0  0  0  0  0
  -29.0280  -29.5140   24.8290 C   0  0  0  0  0  3  0  0  0  0  0  0
  -28.4990  -28.2970   24.3610 C   0  0  0  0  0  3  0  0  0  0  0  0
  -36.5980  -28.0270   17.5970 C   0  0  0  0  0  3  0  0  0  0  0  0
  -37.6050  -29.0480   17.9470 N   0  0  0  0  0  0  0  0  0  0  0  0
  -38.1040  -29.9610   17.1030 C   0  0  0  0  0  0  0  0  0  0  0  0
  -37.7930  -30.0030   15.9110 O   0  0  0  0  0  0  0  0  0  0  0  0
  -37.8650  -29.1100   18.9190 H   0  0  0  0  0  0  0  0  0  0  0  0
  -38.4470  -32.3800   17.7310 C   0  0  0  0  0  1  0  0  0  0  0  0
  -39.1060  -30.9920   17.6650 C   0  0  0  0  0  3  0  0  0  0  0  0
  -41.1900  -29.8790   16.9860 C   0  0  0  0  0  1  0  0  0  0  0  0
  -40.3650  -31.0820   16.8920 N   0  0  0  0  0  0  0  0  0  0  0  0
  -40.9220  -31.8730   17.2000 H   0  0  0  0  0  0  0  0  0  0  0  0
  -37.1690  -26.5850   17.9100 C   0  0  1  0  0  0  0  0  0  0  0  0
  -37.4010  -26.3220   19.4180 C   0  0  0  0  0  1  0  0  0  0  0  0
  -36.2220  -25.4810   17.3880 C   0  0  0  0  0  1  0  0  0  0  0  0
  -38.5150  -26.3850   17.1760 C   0  0  0  0  0  1  0  0  0  0  0  0
  -29.8020  -20.7200   14.2490 C   0  0  0  0  0  2  0  0  0  0  0  0
  -30.5450  -21.8930   11.9390 C   0  0  0  0  0  3  0  0  0  0  0  0
  -30.1770  -21.3350   12.9610 C   0  0  0  0  0  0  0  0  0  0  0  0
  1  8  2  0
  1  7  1  0
  3  4  1  0
  3  2  1  0
  5  4  1  0
  5 23  1  0
  5  6  1  0
  7  2  1  0
  7  6  1  0
  9 10  1  0
 11  9  2  0
 12 13  1  0
 13 10  2  0
 13 16  1  0
 14 12  2  0
 14 11  1  0
 15 12  1  0
 15 17  1  0
 16 18  1  0
 17 18  1  0
 18  1  1  0
 19 15  2  0
 20 21  2  0
 21 22  1  0
 22 25  1  0
 23 20  1  0
 23 24  1  0
 24 22  2  0
 25 26  1  0
 26 27  2  0
 28 27  1  0
 29 28  2  0
 30 29  1  0
 30 25  2  0
 31 28  1  0
 31 32  1  0
 32 33  1  0
 33 34  2  0
 35 34  1  0
 35 39  1  0
 36 35  2  0
 37 32  2  0
 37 36  1  0
 38 37  1  0
 40 21  1  0
 40 41  1  0
 41 44  1  0
 41 43  1  0
 42 40  2  0
 45 20  1  0
 46 45  1  0
 47 45  1  0
 48 14  1  0
 49 48  1  0
 49 51  1  0
 50 61  2  0
 51 56  2  0
 51 57  1  0
 52 62  1  0
 53 59  1  0
 54 60  1  0
 55 54  1  0
 55 53  2  0
 56 55  1  0
 57 58  2  0
 58 53  1  0
 59 52  1  0
 60 50  1  0
 60 52  1  0
 62 64  2  0
 62 63  1  0
 65 63  1  0
 66 75  1  0
 67 63  1  0
 67 71  1  0
 68 67  1  0
 69 68  1  0
 69 70  1  0
 70 66  1  0
 71 66  2  0
 71 72  1  0
 72 73  2  0
 73 74  1  0
 75 74  2  0
 76 86  1  0
 76 77  1  0
 76 50  1  0
 77 80  1  0
 78 82  1  0
 78 77  1  0
 79 78  2  0
 82 81  1  0
 84 83  1  0
 84 85  1  0
 84 82  1  0
 86 87  1  1
 88 86  1  0
 89 86  1  0
 90 48  1  0
 91 92  3  0
 92 90  1  0
M  ISO  4   1 100  18 100  48 101  49 101
M  END
>  <TORSDO>  (72) 
F 18

>  <SCORE>  (72) 
-8.292

>  <name>  (72) 
72

>  <ligand_id>  (72) 
72

>  <original_smiles>  (72) 
[H]C#CC([H])([H])N(Oc1c([H])c([H])c2c(c1[H])C([H])([H])N(C(=O)C([H])(N([H])C(=O)C([H])(N([H])C([H])([H])[H])C([H])([H])[H])C(C([H])([H])[H])(C([H])([H])[H])C([H])([H])[H])C([H])(C(=O)N([H])C1([H])c3c([H])c([H])c([H])c([H])c3C([H])([H])C([H])([H])C1([H])[H])C2([H])[H])c1c([H])c([H])c([H])c2c1C(=O)C([H])([H])N(C(=O)N1C([H])([H])C([H])([H])C([H])([H])C([H])(n3nc(-c4c([H])c([H])c(Oc5c([H])c([H])c(F)c([H])c5F)c([H])c4[H])c(C(=O)N([H])[H])c3N([H])[H])C1([H])[H])C2([H])[H]

>  <smiles>  (72) 
[H]C#CC([H])([H])N(Oc1c([H])c([H])c2c(c1[H])C([H])([H])N(C(=O)C([H])(N([H])C(=O)C([H])(N([H])C([H])([H])[H])C([H])([H])[H])C(C([H])([H])[H])(C([H])([H])[H])C([H])([H])[H])C([H])(C(=O)N([H])C1([H])c3c([H])c([H])c([H])c([H])c3C([H])([H])C([H])([H])C1([H])[H])C2([H])[H])c1c([H])c([H])c([H])c2c1C(=O)C([H])([H])N(C(=O)N1C([H])([H])C([H])([H])C([H])([H])C([H])(n3nc(-c4c([H])c([H])c(Oc5c([H])c([H])c(F)c([H])c5F)c([H])c4[H])c(C(=O)N([H])[H])c3N([H])[H])C1([H])[H])C2([H])[H]

$$$$
73:0:0
     RDKit          3D

 96104  0  0  1  0  0  0  0  0999 V2000
  -31.3280  -21.6020   22.4200 C   0  0  0  0  0  3  0  0  0  0  0  0
  -30.7980  -22.9030   22.3920 C   0  0  0  0  0  3  0  0  0  0  0  0
  -29.6260  -20.8750   20.8360 C   0  0  0  0  0  3  0  0  0  0  0  0
  -30.7500  -20.5790   21.6430 C   0  0  0  0  0  0  0  0  0  0  0  0
  -29.0760  -22.1790   20.8120 C   0  0  0  0  0  0  0  0  0  0  0  0
  -29.6750  -23.2010   21.5870 C   0  0  0  0  0  0  0  0  0  0  0  0
  -27.8670  -22.4890   19.9290 C   0  0  1  0  0  0  0  0  0  0  0  0
  -27.4230  -21.4010   19.2960 F   0  0  0  0  0  0  0  0  0  0  0  0
  -26.8630  -22.9690   20.6670 F   0  0  0  0  0  0  0  0  0  0  0  0
  -28.1970  -23.3950   19.0060 F   0  0  0  0  0  0  0  0  0  0  0  0
  -31.3950  -19.2000   21.6240 C   0  0  0  0  0  2  0  0  0  0  0  0
  -30.4300  -18.0830   21.7030 N   0  0  0  0  0  4  0  0  0  0  0  0
  -29.6440  -18.3060   21.1170 H   0  0  0  0  0  0  0  0  0  0  0  0
  -30.1050  -18.0030   22.6530 H   0  0  0  0  0  0  0  0  0  0  0  0
  -31.0300  -16.8110   21.2430 C   0  0  0  0  0  2  0  0  0  0  0  0
  -30.0910  -15.5810   21.2930 C   0  0  0  0  0  2  0  0  0  0  0  0
  -30.6420  -14.4270   20.4340 C   0  0  0  0  0  0  0  0  0  0  0  0
  -30.2470  -12.3400   19.1860 C   0  0  0  0  0  2  0  0  0  0  0  0
  -29.2800  -12.6000   18.0150 C   0  0  0  0  0  2  0  0  0  0  0  0
  -27.8230  -12.4520   18.4880 C   0  0  0  0  0  2  0  0  0  0  0  0
  -27.5260  -13.2690   19.7730 C   0  0  0  0  0  3  0  0  0  0  0  0
  -28.6040  -13.0210   20.8500 C   0  0  0  0  0  2  0  0  0  0  0  0
  -29.9210  -13.2930   20.2580 N   0  0  0  0  0  0  0  0  0  0  0  0
  -31.7190  -14.6040   19.8550 O   0  0  0  0  0  0  0  0  0  0  0  0
  -25.1380  -13.8630   20.5330 C   0  0  0  0  0  0  0  0  0  0  0  0
  -24.0810  -13.0830   20.9180 C   0  0  0  0  0  0  0  0  0  0  0  0
  -24.5490  -11.7350   20.8710 C   0  0  0  0  0  0  0  0  0  0  0  0
  -26.1830  -12.9900   20.2780 N   0  0  0  0  0  0  0  0  0  0  0  0
  -25.8330  -11.7040   20.5400 N   0  0  0  0  0  0  0  0  0  0  0  0
  -23.8350  -10.4670   21.0670 C   0  0  0  0  0  0  0  0  0  0  0  0
  -24.3000   -9.4920   21.9770 C   0  0  0  0  0  3  0  0  0  0  0  0
  -23.5870   -8.2880   22.1620 C   0  0  0  0  0  3  0  0  0  0  0  0
  -22.3950   -8.0500   21.4380 C   0  0  0  0  0  0  0  0  0  0  0  0
  -21.9500   -9.0150   20.5160 C   0  0  0  0  0  3  0  0  0  0  0  0
  -22.6620  -10.2100   20.3300 C   0  0  0  0  0  3  0  0  0  0  0  0
  -21.6500   -6.9000   21.5340 O   0  0  0  0  0  0  0  0  0  0  0  0
  -21.6510   -6.1350   22.6730 C   0  0  0  0  0  0  0  0  0  0  0  0
  -21.2840   -6.6660   23.9280 C   0  0  0  0  0  3  0  0  0  0  0  0
  -21.2330   -5.8280   25.0590 C   0  0  0  0  0  3  0  0  0  0  0  0
  -21.5380   -4.4600   24.9370 C   0  0  0  0  0  0  0  0  0  0  0  0
  -21.8980   -3.9270   23.6860 C   0  0  0  0  0  3  0  0  0  0  0  0
  -21.9530   -4.7630   22.5570 C   0  0  0  0  0  0  0  0  0  0  0  0
  -22.2810   -4.2420   21.3510 F   0  0  0  0  0  0  0  0  0  0  0  0
  -21.4810   -3.6520   26.0220 F   0  0  0  0  0  0  0  0  0  0  0  0
  -22.6870  -13.5500   21.2180 C   0  0  0  0  0  0  0  0  0  0  0  0
  -21.9790  -12.8420   22.0910 N   0  0  0  0  0  0  0  0  0  0  0  0
  -22.2330  -14.5770   20.7150 O   0  0  0  0  0  0  0  0  0  0  0  0
  -22.3570  -12.0080   22.5160 H   0  0  0  0  0  0  0  0  0  0  0  0
  -21.0430  -13.1350   22.3350 H   0  0  0  0  0  0  0  0  0  0  0  0
  -25.2940  -15.2370   20.3580 N   0  0  0  0  0  0  0  0  0  0  0  0
  -24.5250  -15.8860   20.4810 H   0  0  0  0  0  0  0  0  0  0  0  0
  -26.1340  -15.6770   20.0040 H   0  0  0  0  0  0  0  0  0  0  0  0
  -29.1270  -24.4610   21.5700 O   0  0  0  0  0  0  0  0  0  0  0  0
  -30.0280  -25.5480   21.3820 C   0  0  0  0  0  2  0  0  0  0  0  0
  -29.1880  -26.8200   21.2870 C   0  0  0  0  0  2  0  0  0  0  0  0
  -28.3380  -26.7170   20.1470 O   0  0  0  0  0  0  0  0  0  0  0  0
  -24.5390  -31.8930   23.2330 C   0  0  0  0  0  0  0  0  0  0  0  0
  -27.1930  -27.4730   20.1770 C   0  0  0  0  0  0  0  0  0  0  0  0
  -23.3290  -30.4850   21.5930 C   0  0  0  0  0  3  0  0  0  0  0  0
  -24.7840  -28.9440   20.1730 C   0  0  0  0  0  0  0  0  0  0  0  0
  -25.8440  -30.8590   21.3840 C   0  0  0  0  0  2  0  0  0  0  0  0
  -25.9330  -29.4830   20.7630 C   0  0  0  0  0  0  0  0  0  0  0  0
  -27.1380  -28.7560   20.7700 C   0  0  0  0  0  3  0  0  0  0  0  0
  -26.0340  -26.9450   19.5730 C   0  0  0  0  0  3  0  0  0  0  0  0
  -24.8260  -27.6680   19.5770 C   0  0  0  0  0  3  0  0  0  0  0  0
  -23.5360  -29.7960   20.2150 C   0  0  0  0  0  2  0  0  0  0  0  0
  -24.5890  -31.0940   22.1310 N   0  0  0  0  0  0  0  0  0  0  0  0
  -23.4610  -32.1680   23.7770 O   0  0  0  0  0  0  0  0  0  0  0  0
  -22.6790  -29.4680   22.5600 C   0  0  0  0  0  0  0  0  0  0  0  0
  -21.3550  -29.2900   22.4350 N   0  0  0  0  0  0  0  0  0  0  0  0
  -23.3630  -28.8410   23.3720 O   0  0  0  0  0  0  0  0  0  0  0  0
  -20.8670  -29.8570   21.7550 H   0  0  0  0  0  0  0  0  0  0  0  0
  -17.9760  -28.1090   22.9210 C   0  0  0  0  0  0  0  0  0  0  0  0
  -20.5320  -28.3560   23.2020 C   0  0  0  0  0  3  0  0  0  0  0  0
  -20.6310  -26.9220   22.6310 C   0  0  0  0  0  2  0  0  0  0  0  0
  -19.5320  -26.6020   21.6120 C   0  0  0  0  0  2  0  0  0  0  0  0
  -18.1480  -26.7550   22.2520 C   0  0  0  0  0  2  0  0  0  0  0  0
  -19.0960  -28.8690   23.3510 C   0  0  0  0  0  0  0  0  0  0  0  0
  -18.8800  -30.1360   23.9340 C   0  0  0  0  0  3  0  0  0  0  0  0
  -17.5770  -30.6460   24.0900 C   0  0  0  0  0  3  0  0  0  0  0  0
  -16.4720  -29.8830   23.6770 C   0  0  0  0  0  3  0  0  0  0  0  0
  -16.6710  -28.6170   23.0990 C   0  0  0  0  0  3  0  0  0  0  0  0
  -25.8300  -32.5180   23.8490 C   0  0  0  0  0  3  0  0  0  0  0  0
  -25.5320  -33.9160   24.1810 N   0  0  0  0  0  0  0  0  0  0  0  0
  -25.8720  -34.9670   23.4210 C   0  0  0  0  0  0  0  0  0  0  0  0
  -26.5420  -34.8610   22.3900 O   0  0  0  0  0  0  0  0  0  0  0  0
  -24.9440  -34.0740   24.9860 H   0  0  0  0  0  0  0  0  0  0  0  0
  -24.1570  -36.7650   23.0510 C   0  0  0  0  0  1  0  0  0  0  0  0
  -25.3880  -36.3570   23.8760 C   0  0  0  0  0  3  0  0  0  0  0  0
  -27.5200  -37.2300   24.7240 C   0  0  0  0  0  1  0  0  0  0  0  0
  -26.4260  -37.4030   23.7710 N   0  0  0  0  0  0  0  0  0  0  0  0
  -26.0250  -38.3240   23.9190 H   0  0  0  0  0  0  0  0  0  0  0  0
  -26.3550  -31.7420   25.1170 C   0  0  1  0  0  0  0  0  0  0  0  0
  -25.2700  -31.4970   26.1910 C   0  0  0  0  0  1  0  0  0  0  0  0
  -26.9350  -30.3680   24.7030 C   0  0  0  0  0  1  0  0  0  0  0  0
  -27.5090  -32.5310   25.7810 C   0  0  0  0  0  1  0  0  0  0  0  0
  2  1  1  0
  3  4  1  0
  4  1  2  0
  5  3  2  0
  5  6  1  0
  6  2  2  0
  7  9  1  1
  7  5  1  0
  8  7  1  0
 10  7  1  0
 11  4  1  0
 11 12  1  0
 12 14  1  0
 13 12  1  0
 15 16  1  0
 15 12  1  0
 17 16  1  0
 18 23  1  0
 19 20  1  0
 19 18  1  0
 21 20  1  0
 21 28  1  0
 21 22  1  0
 23 17  1  0
 23 22  1  0
 24 17  2  0
 25 26  2  0
 26 45  1  0
 27 26  1  0
 27 30  1  0
 28 25  1  0
 28 29  1  0
 29 27  2  0
 30 31  1  0
 31 32  2  0
 33 36  1  0
 33 32  1  0
 34 33  2  0
 35 34  1  0
 35 30  2  0
 36 37  1  0
 37 38  1  0
 38 39  2  0
 40 39  1  0
 40 44  1  0
 41 40  2  0
 42 37  2  0
 42 41  1  0
 43 42  1  0
 45 46  1  0
 46 49  1  0
 46 48  1  0
 47 45  2  0
 50 51  1  0
 50 25  1  0
 52 50  1  0
 53  6  1  0
 54 53  1  0
 55 54  1  0
 56 58  1  0
 56 55  1  0
 57 68  2  0
 58 63  1  0
 59 67  1  0
 59 69  1  0
 60 66  1  0
 60 62  1  0
 61 67  1  0
 62 63  2  0
 62 61  1  0
 64 65  1  0
 64 58  2  0
 65 60  2  0
 66 59  1  0
 67 57  1  0
 69 71  2  0
 70 69  1  0
 72 70  1  0
 73 82  2  0
 73 78  1  0
 74 70  1  0
 74 78  1  0
 75 74  1  0
 76 77  1  0
 76 75  1  0
 77 73  1  0
 78 79  2  0
 79 80  1  0
 81 80  2  0
 82 81  1  0
 83 57  1  0
 83 84  1  0
 83 93  1  0
 84 87  1  0
 85 89  1  0
 85 84  1  0
 86 85  2  0
 89 88  1  0
 91 89  1  0
 91 92  1  0
 91 90  1  0
 93 96  1  1
 93 94  1  0
 95 93  1  0
M  ISO  4  16 100  17 100  55 101  56 101
M  END
>  <TORSDO>  (73) 
F 24

>  <SCORE>  (73) 
-12.917

>  <name>  (73) 
73

>  <ligand_id>  (73) 
73

>  <original_smiles>  (73) 
[H]c1c([H])c([H])c2c(c1[H])C([H])([H])C([H])([H])C([H])([H])C2([H])N([H])C(=O)C1([H])N(C(=O)C([H])(N([H])C(=O)C([H])(N([H])C([H])([H])[H])C([H])([H])[H])C(C([H])([H])[H])(C([H])([H])[H])C([H])([H])[H])C([H])([H])c2c([H])c(OC([H])([H])C([H])([H])Oc3c([H])c([H])c(C([H])([H])[N+]([H])([H])C([H])([H])C([H])([H])C(=O)N4C([H])([H])C([H])([H])C([H])([H])C([H])(n5nc(-c6c([H])c([H])c(Oc7c([H])c([H])c(F)c([H])c7F)c([H])c6[H])c(C(=O)N([H])[H])c5N([H])[H])C4([H])[H])c([H])c3C(F)(F)F)c([H])c([H])c2C1([H])[H]

>  <smiles>  (73) 
[H]c1c([H])c([H])c2c(c1[H])C([H])([H])C([H])([H])C([H])([H])C2([H])N([H])C(=O)C1([H])N(C(=O)C([H])(N([H])C(=O)C([H])(N([H])C([H])([H])[H])C([H])([H])[H])C(C([H])([H])[H])(C([H])([H])[H])C([H])([H])[H])C([H])([H])c2c([H])c(OC([H])([H])C([H])([H])Oc3c([H])c([H])c(C([H])([H])[N+]([H])([H])C([H])([H])C([H])([H])C(=O)N4C([H])([H])C([H])([H])C([H])([H])C([H])(n5nc(-c6c([H])c([H])c(Oc7c([H])c([H])c(F)c([H])c7F)c([H])c6[H])c(C(=O)N([H])[H])c5N([H])[H])C4([H])[H])c([H])c3C(F)(F)F)c([H])c([H])c2C1([H])[H]

$$$$
74:0:0
     RDKit          3D

106115  0  0  1  0  0  0  0  0999 V2000
  -29.0090  -17.1650   21.2850 C   0  0  0  0  0  2  0  0  0  0  0  0
  -33.9180  -17.6460   19.1900 C   0  0  0  0  0  3  0  0  0  0  0  0
  -33.1700  -16.4510   19.2470 C   0  0  0  0  0  3  0  0  0  0  0  0
  -32.3560  -18.6980   20.6990 C   0  0  0  0  0  0  0  0  0  0  0  0
  -33.5480  -18.7790   19.9460 C   0  0  0  0  0  0  0  0  0  0  0  0
  -31.9950  -16.3290   20.0400 C   0  0  0  0  0  0  0  0  0  0  0  0
  -31.5600  -17.5440   20.6380 C   0  0  0  0  0  0  0  0  0  0  0  0
  -30.5450  -18.9640   22.2440 C   0  0  0  0  0  2  0  0  0  0  0  0
  -31.7460  -19.7440   21.6400 C   0  0  2  0  0  0  0  0  0  0  0  0
  -31.2660  -21.0060   20.8890 C   0  0  0  0  0  1  0  0  0  0  0  0
  -32.7220  -20.1620   22.7540 C   0  0  0  0  0  1  0  0  0  0  0  0
  -30.2390  -17.9710   21.2030 N   0  0  2  0  0  4  0  0  0  0  0  0
  -29.8900  -18.5940   20.4970 H   0  0  0  0  0  0  0  0  0  0  0  0
  -31.9130  -13.8390   19.9950 C   0  0  0  0  0  0  0  0  0  0  0  0
  -31.3590  -11.5930   19.1740 C   0  0  0  0  0  2  0  0  0  0  0  0
  -30.4230  -11.7110   17.9560 C   0  0  0  0  0  2  0  0  0  0  0  0
  -28.9540  -11.7540   18.4180 C   0  0  0  0  0  2  0  0  0  0  0  0
  -28.7060  -12.7860   19.5520 C   0  0  0  0  0  3  0  0  0  0  0  0
  -29.7700  -12.6730   20.6670 C   0  0  0  0  0  2  0  0  0  0  0  0
  -31.0970  -12.7520   20.0410 N   0  0  0  0  0  0  0  0  0  0  0  0
  -33.0760  -13.7470   19.6020 O   0  0  0  0  0  0  0  0  0  0  0  0
  -31.3460  -15.0510   20.2250 N   0  0  0  0  0  0  0  0  0  0  0  0
  -30.4120  -15.0260   20.6000 H   0  0  0  0  0  0  0  0  0  0  0  0
  -26.4500  -13.6820   20.3970 C   0  0  0  0  0  0  0  0  0  0  0  0
  -25.3010  -13.0590   20.7950 C   0  0  0  0  0  0  0  0  0  0  0  0
  -25.5620  -11.6600   20.6910 C   0  0  0  0  0  0  0  0  0  0  0  0
  -27.3500  -12.6770   20.0850 N   0  0  0  0  0  0  0  0  0  0  0  0
  -26.8220  -11.4510   20.3230 N   0  0  0  0  0  0  0  0  0  0  0  0
  -24.6690  -10.5090   20.8590 C   0  0  0  0  0  0  0  0  0  0  0  0
  -25.0030   -9.4330   21.7110 C   0  0  0  0  0  3  0  0  0  0  0  0
  -24.1160   -8.3480   21.8720 C   0  0  0  0  0  3  0  0  0  0  0  0
  -22.8820   -8.3300   21.1800 C   0  0  0  0  0  0  0  0  0  0  0  0
  -22.5650   -9.3930   20.3160 C   0  0  0  0  0  3  0  0  0  0  0  0
  -23.4510  -10.4700   20.1510 C   0  0  0  0  0  3  0  0  0  0  0  0
  -21.9720   -7.3050   21.2560 O   0  0  0  0  0  0  0  0  0  0  0  0
  -21.8980   -6.4880   22.3570 C   0  0  0  0  0  0  0  0  0  0  0  0
  -21.6610   -7.0020   23.6500 C   0  0  0  0  0  3  0  0  0  0  0  0
  -21.5220   -6.1220   24.7420 C   0  0  0  0  0  3  0  0  0  0  0  0
  -21.6140   -4.7320   24.5430 C   0  0  0  0  0  0  0  0  0  0  0  0
  -21.8460   -4.2180   23.2550 C   0  0  0  0  0  3  0  0  0  0  0  0
  -21.9850   -5.0940   22.1640 C   0  0  0  0  0  0  0  0  0  0  0  0
  -22.1880   -4.5940   20.9220 F   0  0  0  0  0  0  0  0  0  0  0  0
  -21.4740   -3.8860   25.5900 F   0  0  0  0  0  0  0  0  0  0  0  0
  -24.0000  -13.7230   21.1420 C   0  0  0  0  0  0  0  0  0  0  0  0
  -23.2190  -13.1180   22.0300 N   0  0  0  0  0  0  0  0  0  0  0  0
  -23.6900  -14.8120   20.6600 O   0  0  0  0  0  0  0  0  0  0  0  0
  -23.4800  -12.2360   22.4430 H   0  0  0  0  0  0  0  0  0  0  0  0
  -22.3470  -13.5490   22.3050 H   0  0  0  0  0  0  0  0  0  0  0  0
  -26.7900  -15.0160   20.2440 N   0  0  0  0  0  0  0  0  0  0  0  0
  -26.0380  -15.6940   20.2750 H   0  0  0  0  0  0  0  0  0  0  0  0
  -27.5270  -15.2840   19.6060 H   0  0  0  0  0  0  0  0  0  0  0  0
  -34.1960  -20.6540   18.6220 C   0  0  0  0  0  1  0  0  0  0  0  0
  -35.6790  -19.7560   20.3860 C   0  0  0  0  0  1  0  0  0  0  0  0
  -34.3190  -19.9490   19.8950 N   0  0  0  0  0  0  0  0  0  0  0  0
  -27.9970  -17.6930   20.2300 C   0  0  0  0  0  2  0  0  0  0  0  0
  -28.5030  -17.8010   18.7630 C   0  0  0  0  0  2  0  0  0  0  0  0
  -29.4860  -18.9280   18.3600 C   0  0  0  0  0  2  0  0  0  0  0  0
  -29.7180  -21.3770   18.3400 C   0  0  0  0  0  3  0  0  0  0  0  0
  -29.2160  -22.6230   18.3650 N   0  0  0  0  0  0  0  0  0  0  0  0
  -28.9380  -20.2880   18.4730 N   0  0  0  0  0  0  0  0  0  0  0  0
  -31.0430  -21.2050   18.1960 F   0  0  0  0  0  0  0  0  0  0  0  0
  -28.2190  -22.7470   18.4400 H   0  0  0  0  0  0  0  0  0  0  0  0
  -27.9350  -20.3940   18.5010 H   0  0  0  0  0  0  0  0  0  0  0  0
  -30.0290  -23.8410   18.1810 C   0  0  0  0  0  2  0  0  0  0  0  0
  -29.8470  -24.8430   19.3420 C   0  0  0  0  0  2  0  0  0  0  0  0
  -29.7710  -26.2180   18.9340 O   0  0  0  0  0  0  0  0  0  0  0  0
  -25.4050  -30.0790   23.0150 C   0  0  0  0  0  0  0  0  0  0  0  0
  -28.5280  -26.7920   19.0690 C   0  0  0  0  0  0  0  0  0  0  0  0
  -24.3610  -28.9600   21.0710 C   0  0  0  0  0  3  0  0  0  0  0  0
  -25.9770  -27.9660   19.3680 C   0  0  0  0  0  0  0  0  0  0  0  0
  -26.8260  -29.6440   21.0150 C   0  0  0  0  0  2  0  0  0  0  0  0
  -27.0680  -28.4720   20.0860 C   0  0  0  0  0  0  0  0  0  0  0  0
  -28.3490  -27.8950   19.9310 C   0  0  0  0  0  3  0  0  0  0  0  0
  -27.4190  -26.2950   18.3510 C   0  0  0  0  0  3  0  0  0  0  0  0
  -26.1450  -26.8760   18.4970 C   0  0  0  0  0  3  0  0  0  0  0  0
  -24.6430  -28.6480   19.5770 C   0  0  0  0  0  2  0  0  0  0  0  0
  -25.5470  -29.5630   21.7610 N   0  0  0  0  0  0  0  0  0  0  0  0
  -24.3020  -30.0980   23.5800 O   0  0  0  0  0  0  0  0  0  0  0  0
  -23.8420  -27.6760   21.7570 C   0  0  0  0  0  0  0  0  0  0  0  0
  -22.5660  -27.3410   21.5080 N   0  0  0  0  0  0  0  0  0  0  0  0
  -24.5850  -26.9950   22.4700 O   0  0  0  0  0  0  0  0  0  0  0  0
  -22.0200  -27.9590   20.9250 H   0  0  0  0  0  0  0  0  0  0  0  0
  -19.4180  -25.5680   21.4550 C   0  0  0  0  0  0  0  0  0  0  0  0
  -21.8720  -26.1560   22.0140 C   0  0  0  0  0  3  0  0  0  0  0  0
  -22.2500  -24.8970   21.2000 C   0  0  0  0  0  2  0  0  0  0  0  0
  -21.2870  -24.6120   20.0410 C   0  0  0  0  0  2  0  0  0  0  0  0
  -19.8610  -24.4180   20.5670 C   0  0  0  0  0  2  0  0  0  0  0  0
  -20.3620  -26.3940   22.1210 C   0  0  0  0  0  0  0  0  0  0  0  0
  -19.8980  -27.4700   22.9090 C   0  0  0  0  0  3  0  0  0  0  0  0
  -18.5190  -27.7270   23.0330 C   0  0  0  0  0  3  0  0  0  0  0  0
  -17.5890  -26.8970   22.3860 C   0  0  0  0  0  3  0  0  0  0  0  0
  -18.0380  -25.8170   21.6040 C   0  0  0  0  0  3  0  0  0  0  0  0
  -26.6130  -30.6910   23.7920 C   0  0  0  0  0  3  0  0  0  0  0  0
  -26.1810  -31.9850   24.3360 N   0  0  0  0  0  0  0  0  0  0  0  0
  -26.4980  -33.1740   23.8090 C   0  0  0  0  0  0  0  0  0  0  0  0
  -27.2580  -33.2990   22.8440 O   0  0  0  0  0  0  0  0  0  0  0  0
  -25.5170  -31.9560   25.0970 H   0  0  0  0  0  0  0  0  0  0  0  0
  -24.6910  -34.9080   23.5970 C   0  0  0  0  0  1  0  0  0  0  0  0
  -25.8740  -34.4260   24.4520 C   0  0  0  0  0  3  0  0  0  0  0  0
  -27.8480  -35.2510   25.6570 C   0  0  0  0  0  1  0  0  0  0  0  0
  -26.8380  -35.5320   24.6400 N   0  0  0  0  0  0  0  0  0  0  0  0
  -26.3560  -36.3880   24.9010 H   0  0  0  0  0  0  0  0  0  0  0  0
  -27.1540  -29.7550   24.9410 C   0  0  1  0  0  0  0  0  0  0  0  0
  -26.0510  -29.2660   25.9110 C   0  0  0  0  0  1  0  0  0  0  0  0
  -27.8550  -28.5120   24.3450 C   0  0  0  0  0  1  0  0  0  0  0  0
  -28.2210  -30.5070   25.7740 C   0  0  0  0  0  1  0  0  0  0  0  0
  2  3  2  0
  2  5  1  0
  3  6  1  0
  4  9  1  0
  5  4  2  0
  6 22  1  0
  6  7  2  0
  7  4  1  0
  7 12  1  0
  9  8  1  0
  9 11  1  1
 10  9  1  0
 12  1  1  0
 12  8  1  0
 12 13  1  6
 14 20  1  0
 14 22  1  0
 15 20  1  0
 16 17  1  0
 16 15  1  0
 18 17  1  0
 18 27  1  0
 18 19  1  0
 20 19  1  0
 21 14  2  0
 22 23  1  0
 24 25  2  0
 25 44  1  0
 26 25  1  0
 26 29  1  0
 27 28  1  0
 27 24  1  0
 28 26  2  0
 29 30  1  0
 30 31  2  0
 32 35  1  0
 32 31  1  0
 33 32  2  0
 34 33  1  0
 34 29  2  0
 35 36  1  0
 36 37  1  0
 37 38  2  0
 39 38  1  0
 39 43  1  0
 40 39  2  0
 41 36  2  0
 41 40  1  0
 42 41  1  0
 44 45  1  0
 45 48  1  0
 45 47  1  0
 46 44  2  0
 49 50  1  0
 49 24  1  0
 51 49  1  0
 52 54  1  0
 54  5  1  0
 54 53  1  0
 55  1  1  0
 56 55  1  0
 57 60  1  0
 57 56  1  0
 58 61  1  0
 58 59  1  0
 58 60  1  0
 59 62  1  0
 60 63  1  0
 64 59  1  0
 64 65  1  0
 66 68  1  0
 66 65  1  0
 67 78  2  0
 68 73  1  0
 69 79  1  0
 69 77  1  0
 70 76  1  0
 70 72  1  0
 71 77  1  0
 72 71  1  0
 73 72  2  0
 74 75  1  0
 74 68  2  0
 75 70  2  0
 76 69  1  0
 77 67  1  0
 79 81  2  0
 80 79  1  0
 82 80  1  0
 83 92  2  0
 83 88  1  0
 84 80  1  0
 84 88  1  0
 85 84  1  0
 86 87  1  0
 86 85  1  0
 87 83  1  0
 88 89  2  0
 89 90  1  0
 91 90  2  0
 92 91  1  0
 93 67  1  0
 93 94  1  0
 93103  1  0
 94 97  1  0
 95 94  1  0
 95 99  1  0
 96 95  2  0
 99 98  1  0
 99101  1  0
101102  1  0
101100  1  0
103106  1  1
103104  1  0
105103  1  0
M  ISO  4  14 100  22 100  65 101  66 101
M  END
>  <TORSDO>  (74) 
F 24

>  <SCORE>  (74) 
-9.416

>  <name>  (74) 
74

>  <ligand_id>  (74) 
74

>  <original_smiles>  (74) 
[H]c1c([H])c([H])c2c(c1[H])C([H])([H])C([H])([H])C([H])([H])C2([H])N([H])C(=O)C1([H])N(C(=O)C([H])(N([H])C(=O)C([H])(N([H])C([H])([H])[H])C([H])([H])[H])C(C([H])([H])[H])(C([H])([H])[H])C([H])([H])[H])C([H])([H])c2c([H])c(OC([H])([H])C([H])([H])N([H])C(F)=[N+]([H])C([H])([H])C([H])([H])C([H])([H])C([H])([H])[N+]3([H])c4c(N([H])C(=O)N5C([H])([H])C([H])([H])C([H])([H])C([H])(n6nc(-c7c([H])c([H])c(Oc8c([H])c([H])c(F)c([H])c8F)c([H])c7[H])c(C(=O)N([H])[H])c6N([H])[H])C5([H])[H])c([H])c([H])c(N(C([H])([H])[H])C([H])([H])[H])c4C(C([H])([H])[H])(C([H])([H])[H])C3([H])[H])c([H])c([H])c2C1([H])[H]

>  <smiles>  (74) 
[H]c1c([H])c([H])c2c(c1[H])C([H])([H])C([H])([H])C([H])([H])C2([H])N([H])C(=O)C1([H])N(C(=O)C([H])(N([H])C(=O)C([H])(N([H])C([H])([H])[H])C([H])([H])[H])C(C([H])([H])[H])(C([H])([H])[H])C([H])([H])[H])C([H])([H])c2c([H])c(OC([H])([H])C([H])([H])N([H])C(F)=[N+]([H])C([H])([H])C([H])([H])C([H])([H])C([H])([H])[N+]3([H])c4c(N([H])C(=O)N5C([H])([H])C([H])([H])C([H])([H])C([H])(n6nc(-c7c([H])c([H])c(Oc8c([H])c([H])c(F)c([H])c8F)c([H])c7[H])c(C(=O)N([H])[H])c6N([H])[H])C5([H])[H])c([H])c([H])c(N(C([H])([H])[H])C([H])([H])[H])c4C(C([H])([H])[H])(C([H])([H])[H])C3([H])[H])c([H])c([H])c2C1([H])[H]

$$$$
75:0:0
     RDKit          3D

 99107  0  0  1  0  0  0  0  0999 V2000
  -31.7610  -24.5670   19.4920 C   0  0  0  0  0  3  0  0  0  0  0  0
  -30.8490  -25.3160   20.1400 N   0  0  0  0  0  0  0  0  0  0  0  0
  -31.5560  -23.2500   19.3260 N   0  0  0  0  0  0  0  0  0  0  0  0
  -29.9910  -24.8930   20.4680 H   0  0  0  0  0  0  0  0  0  0  0  0
  -32.2520  -22.7420   18.7940 H   0  0  0  0  0  0  0  0  0  0  0  0
  -34.2300  -24.2780   19.2250 C   0  0  0  0  0  1  0  0  0  0  0  0
  -33.0200  -25.1740   18.9220 C   0  0  0  0  0  2  0  0  0  0  0  0
  -30.9070  -26.7590   20.3690 C   0  0  0  0  0  2  0  0  0  0  0  0
  -29.6080  -27.2460   21.0030 C   0  0  0  0  0  2  0  0  0  0  0  0
  -28.5350  -26.9660   20.0960 O   0  0  0  0  0  0  0  0  0  0  0  0
  -24.6740  -31.9880   23.3640 C   0  0  0  0  0  0  0  0  0  0  0  0
  -27.3710  -27.6950   20.1890 C   0  0  0  0  0  0  0  0  0  0  0  0
  -23.4630  -30.6020   21.7050 C   0  0  0  0  0  3  0  0  0  0  0  0
  -24.9240  -29.1110   20.2400 C   0  0  0  0  0  0  0  0  0  0  0  0
  -25.9670  -31.0220   21.4750 C   0  0  0  0  0  2  0  0  0  0  0  0
  -26.0680  -29.6620   20.8240 C   0  0  0  0  0  0  0  0  0  0  0  0
  -27.2870  -28.9670   20.8000 C   0  0  0  0  0  3  0  0  0  0  0  0
  -26.2110  -27.1480   19.6000 C   0  0  0  0  0  3  0  0  0  0  0  0
  -24.9870  -27.8470   19.6250 C   0  0  0  0  0  3  0  0  0  0  0  0
  -23.6630  -29.9410   20.3120 C   0  0  0  0  0  2  0  0  0  0  0  0
  -24.7200  -31.2170   22.2410 N   0  0  0  0  0  0  0  0  0  0  0  0
  -23.5980  -32.2330   23.9260 O   0  0  0  0  0  0  0  0  0  0  0  0
  -22.8410  -29.5550   22.6540 C   0  0  0  0  0  0  0  0  0  0  0  0
  -21.5240  -29.3330   22.5120 N   0  0  0  0  0  0  0  0  0  0  0  0
  -23.5370  -28.9430   23.4680 O   0  0  0  0  0  0  0  0  0  0  0  0
  -21.0240  -29.8830   21.8270 H   0  0  0  0  0  0  0  0  0  0  0  0
  -18.1870  -28.0230   22.9360 C   0  0  0  0  0  0  0  0  0  0  0  0
  -20.7280  -28.3650   23.2620 C   0  0  0  0  0  3  0  0  0  0  0  0
  -20.8910  -26.9410   22.6850 C   0  0  0  0  0  2  0  0  0  0  0  0
  -19.8220  -26.5840   21.6480 C   0  0  0  0  0  2  0  0  0  0  0  0
  -18.4230  -26.6810   22.2630 C   0  0  0  0  0  2  0  0  0  0  0  0
  -19.2700  -28.8200   23.3910 C   0  0  0  0  0  0  0  0  0  0  0  0
  -18.9980  -30.0770   23.9770 C   0  0  0  0  0  3  0  0  0  0  0  0
  -17.6750  -30.5350   24.1140 C   0  0  0  0  0  3  0  0  0  0  0  0
  -16.6060  -29.7340   23.6780 C   0  0  0  0  0  3  0  0  0  0  0  0
  -16.8620  -28.4810   23.0940 C   0  0  0  0  0  3  0  0  0  0  0  0
  -25.9620  -32.6170   23.9830 C   0  0  0  0  0  3  0  0  0  0  0  0
  -25.6430  -33.9990   24.3590 N   0  0  0  0  0  0  0  0  0  0  0  0
  -25.9570  -35.0760   23.6280 C   0  0  0  0  0  0  0  0  0  0  0  0
  -26.6190  -35.0120   22.5880 O   0  0  0  0  0  0  0  0  0  0  0  0
  -25.0560  -34.1240   25.1710 H   0  0  0  0  0  0  0  0  0  0  0  0
  -24.2110  -36.8600   23.3290 C   0  0  0  0  0  1  0  0  0  0  0  0
  -25.4560  -36.4430   24.1300 C   0  0  0  0  0  3  0  0  0  0  0  0
  -27.5800  -37.3220   24.9920 C   0  0  0  0  0  1  0  0  0  0  0  0
  -26.4790  -37.5090   24.0510 N   0  0  0  0  0  0  0  0  0  0  0  0
  -26.0640  -38.4200   24.2260 H   0  0  0  0  0  0  0  0  0  0  0  0
  -26.5160  -31.8130   25.2220 C   0  0  1  0  0  0  0  0  0  0  0  0
  -25.4400  -31.4950   26.2880 C   0  0  0  0  0  1  0  0  0  0  0  0
  -27.1430  -30.4750   24.7620 C   0  0  0  0  0  1  0  0  0  0  0  0
  -27.6430  -32.6190   25.9090 C   0  0  0  0  0  1  0  0  0  0  0  0
  -30.4420  -22.4520   19.8560 C   0  0  0  0  0  2  0  0  0  0  0  0
  -30.5590  -21.0040   19.3800 C   0  0  0  0  0  2  0  0  0  0  0  0
  -29.6000  -20.0470   20.1050 C   0  0  0  0  0  2  0  0  0  0  0  0
  -28.7310  -17.1750   18.2760 C   0  0  0  0  0  2  0  0  0  0  0  0
  -29.1500  -17.5910   20.4200 C   0  0  0  0  0  3  0  0  0  0  0  0
  -28.6110  -16.6430   19.4400 N   0  0  0  0  0  2  0  0  0  0  0  0
  -29.3050  -18.4150   18.2600 N   0  0  0  0  0  0  0  0  0  0  0  0
  -29.7910  -18.6630   19.6190 N   0  0  1  0  0  4  0  0  0  0  0  0
  -29.7600  -18.8470   17.4650 H   0  0  0  0  0  0  0  0  0  0  0  0
  -30.7810  -18.4650   19.6270 H   0  0  0  0  0  0  0  0  0  0  0  0
  -30.1510  -16.9340   21.4100 C   0  0  0  0  0  2  0  0  0  0  0  0
  -30.5910  -14.5710   20.9380 C   0  0  0  0  0  0  0  0  0  0  0  0
  -30.3310  -12.5220   19.6140 C   0  0  0  0  0  2  0  0  0  0  0  0
  -29.4150  -12.8350   18.4150 C   0  0  0  0  0  2  0  0  0  0  0  0
  -27.9340  -12.6460   18.7960 C   0  0  0  0  0  2  0  0  0  0  0  0
  -27.5600  -13.3630   20.1220 C   0  0  0  0  0  3  0  0  0  0  0  0
  -28.5960  -13.0590   21.2280 C   0  0  0  0  0  2  0  0  0  0  0  0
  -29.9340  -13.4070   20.7160 N   0  0  0  0  0  0  0  0  0  0  0  0
  -31.6890  -14.8370   20.4420 O   0  0  0  0  0  0  0  0  0  0  0  0
  -29.8870  -15.5030   21.5900 N   0  0  0  0  0  0  0  0  0  0  0  0
  -28.9810  -15.2300   21.9370 H   0  0  0  0  0  0  0  0  0  0  0  0
  -25.1190  -13.8650   20.7540 C   0  0  0  0  0  0  0  0  0  0  0  0
  -24.0720  -13.0440   21.0780 C   0  0  0  0  0  0  0  0  0  0  0  0
  -24.5880  -11.7130   21.0350 C   0  0  0  0  0  0  0  0  0  0  0  0
  -26.2050  -13.0300   20.5450 N   0  0  0  0  0  0  0  0  0  0  0  0
  -25.8860  -11.7300   20.7670 N   0  0  0  0  0  0  0  0  0  0  0  0
  -23.9100  -10.4180   21.1790 C   0  0  0  0  0  0  0  0  0  0  0  0
  -24.3650   -9.4450   22.0950 C   0  0  0  0  0  3  0  0  0  0  0  0
  -23.6860   -8.2140   22.2280 C   0  0  0  0  0  3  0  0  0  0  0  0
  -22.5380   -7.9490   21.4430 C   0  0  0  0  0  0  0  0  0  0  0  0
  -22.1040   -8.9120   20.5170 C   0  0  0  0  0  3  0  0  0  0  0  0
  -22.7840  -10.1340   20.3820 C   0  0  0  0  0  3  0  0  0  0  0  0
  -21.8300   -6.7720   21.4860 O   0  0  0  0  0  0  0  0  0  0  0  0
  -21.7970   -5.9930   22.6150 C   0  0  0  0  0  0  0  0  0  0  0  0
  -21.3180   -6.4860   23.8490 C   0  0  0  0  0  3  0  0  0  0  0  0
  -21.2370   -5.6300   24.9650 C   0  0  0  0  0  3  0  0  0  0  0  0
  -21.6250   -4.2820   24.8490 C   0  0  0  0  0  0  0  0  0  0  0  0
  -22.0950   -3.7870   23.6190 C   0  0  0  0  0  3  0  0  0  0  0  0
  -22.1780   -4.6400   22.5060 C   0  0  0  0  0  0  0  0  0  0  0  0
  -22.6130   -4.1540   21.3180 F   0  0  0  0  0  0  0  0  0  0  0  0
  -21.5370   -3.4570   25.9190 F   0  0  0  0  0  0  0  0  0  0  0  0
  -22.6480  -13.4590   21.3190 C   0  0  0  0  0  0  0  0  0  0  0  0
  -21.9260  -12.7120   22.1470 N   0  0  0  0  0  0  0  0  0  0  0  0
  -22.1840  -14.4760   20.8100 O   0  0  0  0  0  0  0  0  0  0  0  0
  -22.3140  -11.8880   22.5800 H   0  0  0  0  0  0  0  0  0  0  0  0
  -20.9700  -12.9720   22.3530 H   0  0  0  0  0  0  0  0  0  0  0  0
  -25.2380  -15.2440   20.5990 N   0  0  0  0  0  0  0  0  0  0  0  0
  -24.4390  -15.8670   20.6580 H   0  0  0  0  0  0  0  0  0  0  0  0
  -26.0700  -15.6970   20.2430 H   0  0  0  0  0  0  0  0  0  0  0  0
  1  7  1  0
  1  2  1  0
  2  8  1  0
  2  4  1  0
  3  1  1  0
  3 51  1  0
  5  3  1  0
  7  6  1  0
  8  9  1  0
 10 12  1  0
 10  9  1  0
 11 22  2  0
 12 17  1  0
 13 21  1  0
 13 23  1  0
 14 20  1  0
 14 16  1  0
 15 21  1  0
 16 15  1  0
 17 16  2  0
 18 19  1  0
 18 12  2  0
 19 14  2  0
 20 13  1  0
 21 11  1  0
 23 25  2  0
 24 23  1  0
 26 24  1  0
 27 36  2  0
 27 32  1  0
 28 24  1  0
 28 32  1  0
 29 28  1  0
 30 31  1  0
 30 29  1  0
 31 27  1  0
 32 33  2  0
 33 34  1  0
 35 34  2  0
 36 35  1  0
 37 11  1  0
 37 38  1  0
 37 47  1  0
 38 41  1  0
 39 43  1  0
 39 38  1  0
 40 39  2  0
 43 42  1  0
 45 43  1  0
 45 46  1  0
 45 44  1  0
 47 50  1  1
 47 48  1  0
 49 47  1  0
 52 51  1  0
 52 53  1  0
 54 56  1  0
 55 61  1  0
 56 55  1  0
 57 54  1  0
 57 58  1  0
 58 60  1  6
 58 53  1  0
 58 55  1  0
 59 57  1  0
 61 70  1  0
 62 70  1  0
 63 68  1  0
 64 65  1  0
 64 63  1  0
 66 65  1  0
 66 75  1  0
 66 67  1  0
 68 62  1  0
 68 67  1  0
 69 62  2  0
 70 71  1  0
 72 73  2  0
 73 92  1  0
 74 73  1  0
 74 77  1  0
 75 72  1  0
 75 76  1  0
 76 74  2  0
 77 78  1  0
 78 79  2  0
 80 83  1  0
 80 79  1  0
 81 80  2  0
 82 81  1  0
 82 77  2  0
 83 84  1  0
 84 85  1  0
 85 86  2  0
 87 86  1  0
 87 91  1  0
 88 87  2  0
 89 84  2  0
 89 88  1  0
 90 89  1  0
 92 93  1  0
 93 96  1  0
 93 95  1  0
 94 92  2  0
 97 98  1  0
 97 72  1  0
 99 97  1  0
M  ISO  4   9 101  10 101  62 100  70 100
M  END
>  <TORSDO>  (75) 
F 24

>  <SCORE>  (75) 
-12.206

>  <name>  (75) 
75

>  <ligand_id>  (75) 
75

>  <original_smiles>  (75) 
[H]C1=NC([H])(C([H])([H])N([H])C(=O)N2C([H])([H])C([H])([H])C([H])([H])C([H])(n3nc(-c4c([H])c([H])c(Oc5c([H])c([H])c(F)c([H])c5F)c([H])c4[H])c(C(=O)N([H])[H])c3N([H])[H])C2([H])[H])[N+]([H])(C([H])([H])C([H])([H])C([H])([H])[N+]([H])=C(N([H])C([H])([H])C([H])([H])Oc2c([H])c([H])c3c(c2[H])C([H])([H])N(C(=O)C([H])(N([H])C(=O)C([H])(N([H])C([H])([H])[H])C([H])([H])[H])C(C([H])([H])[H])(C([H])([H])[H])C([H])([H])[H])C([H])(C(=O)N([H])C2([H])c4c([H])c([H])c([H])c([H])c4C([H])([H])C([H])([H])C2([H])[H])C3([H])[H])C([H])([H])C([H])([H])[H])N1[H]

>  <smiles>  (75) 
[H]C1=NC([H])(C([H])([H])N([H])C(=O)N2C([H])([H])C([H])([H])C([H])([H])C([H])(n3nc(-c4c([H])c([H])c(Oc5c([H])c([H])c(F)c([H])c5F)c([H])c4[H])c(C(=O)N([H])[H])c3N([H])[H])C2([H])[H])[N+]([H])(C([H])([H])C([H])([H])C([H])([H])[N+]([H])=C(N([H])C([H])([H])C([H])([H])Oc2c([H])c([H])c3c(c2[H])C([H])([H])N(C(=O)C([H])(N([H])C(=O)C([H])(N([H])C([H])([H])[H])C([H])([H])[H])C(C([H])([H])[H])(C([H])([H])[H])C([H])([H])[H])C([H])(C(=O)N([H])C2([H])c4c([H])c([H])c([H])c([H])c4C([H])([H])C([H])([H])C2([H])[H])C3([H])[H])C([H])([H])C([H])([H])[H])N1[H]

$$$$
76:0:0
     RDKit          3D

 93101  0  0  1  0  0  0  0  0999 V2000
  -27.9300  -21.9040   20.7690 C   0  0  0  0  0  2  0  0  0  0  0  0
  -28.2560  -18.1190   20.1580 C   0  0  0  0  0  3  0  0  0  0  0  0
  -27.8460  -19.4650   20.0280 C   0  0  0  0  0  3  0  0  0  0  0  0
  -30.1170  -18.8190   21.5550 C   0  0  0  0  0  3  0  0  0  0  0  0
  -29.3660  -17.7800   20.9610 C   0  0  0  0  0  0  0  0  0  0  0  0
  -28.5420  -20.4970   20.6970 C   0  0  0  0  0  0  0  0  0  0  0  0
  -29.7040  -20.1670   21.4320 C   0  0  0  0  0  0  0  0  0  0  0  0
  -30.4010  -21.1430   22.0580 F   0  0  0  0  0  0  0  0  0  0  0  0
  -29.7030  -16.3090   21.2090 C   0  0  0  0  0  2  0  0  0  0  0  0
  -31.1170  -14.5830   20.0410 C   0  0  0  0  0  0  0  0  0  0  0  0
  -30.7010  -12.4480   18.8970 C   0  0  0  0  0  2  0  0  0  0  0  0
  -29.6980  -12.7100   17.7540 C   0  0  0  0  0  2  0  0  0  0  0  0
  -28.2450  -12.6130   18.2660 C   0  0  0  0  0  2  0  0  0  0  0  0
  -28.0050  -13.4030   19.5850 C   0  0  0  0  0  3  0  0  0  0  0  0
  -29.1290  -13.1260   20.6120 C   0  0  0  0  0  2  0  0  0  0  0  0
  -30.4060  -13.4260   19.9550 N   0  0  0  0  0  0  0  0  0  0  0  0
  -32.2660  -14.6890   19.6140 O   0  0  0  0  0  0  0  0  0  0  0  0
  -30.3920  -15.7140   20.0700 N   0  0  0  0  0  0  0  0  0  0  0  0
  -30.8530  -16.4330   19.5330 H   0  0  0  0  0  0  0  0  0  0  0  0
  -25.6690  -14.0340   20.4510 C   0  0  0  0  0  0  0  0  0  0  0  0
  -24.6040  -13.2760   20.8560 C   0  0  0  0  0  0  0  0  0  0  0  0
  -25.0280  -11.9150   20.7510 C   0  0  0  0  0  0  0  0  0  0  0  0
  -26.6770  -13.1390   20.1330 N   0  0  0  0  0  0  0  0  0  0  0  0
  -26.2980  -11.8560   20.3670 N   0  0  0  0  0  0  0  0  0  0  0  0
  -24.2810  -10.6650   20.9360 C   0  0  0  0  0  0  0  0  0  0  0  0
  -24.6850   -9.6970   21.8820 C   0  0  0  0  0  3  0  0  0  0  0  0
  -23.9390   -8.5110   22.0570 C   0  0  0  0  0  3  0  0  0  0  0  0
  -22.7750   -8.2840   21.2860 C   0  0  0  0  0  0  0  0  0  0  0  0
  -22.3880   -9.2410   20.3320 C   0  0  0  0  0  3  0  0  0  0  0  0
  -23.1340  -10.4190   20.1550 C   0  0  0  0  0  3  0  0  0  0  0  0
  -22.0040   -7.1510   21.3700 O   0  0  0  0  0  0  0  0  0  0  0  0
  -21.8510   -6.4690   22.5510 C   0  0  0  0  0  0  0  0  0  0  0  0
  -21.3390   -7.0920   23.7110 C   0  0  0  0  0  3  0  0  0  0  0  0
  -21.1350   -6.3380   24.8840 C   0  0  0  0  0  3  0  0  0  0  0  0
  -21.4310   -4.9620   24.8980 C   0  0  0  0  0  0  0  0  0  0  0  0
  -21.9350   -4.3380   23.7420 C   0  0  0  0  0  3  0  0  0  0  0  0
  -22.1420   -5.0910   22.5720 C   0  0  0  0  0  0  0  0  0  0  0  0
  -22.6070   -4.4790   21.4560 F   0  0  0  0  0  0  0  0  0  0  0  0
  -21.2260   -4.2370   26.0210 F   0  0  0  0  0  0  0  0  0  0  0  0
  -23.2380  -13.7770   21.2260 C   0  0  0  0  0  0  0  0  0  0  0  0
  -22.5500  -13.0770   22.1200 N   0  0  0  0  0  0  0  0  0  0  0  0
  -22.7920  -14.8240   20.7590 O   0  0  0  0  0  0  0  0  0  0  0  0
  -22.9250  -12.2300   22.5210 H   0  0  0  0  0  0  0  0  0  0  0  0
  -21.6350  -13.3930   22.4100 H   0  0  0  0  0  0  0  0  0  0  0  0
  -25.8540  -15.4060   20.3110 N   0  0  0  0  0  0  0  0  0  0  0  0
  -25.1050  -16.0700   20.4770 H   0  0  0  0  0  0  0  0  0  0  0  0
  -26.6900  -15.8320   19.9310 H   0  0  0  0  0  0  0  0  0  0  0  0
  -28.5790  -22.9770   19.9770 N   0  0  0  0  0  4  0  0  0  0  0  0
  -28.4660  -22.7570   18.9990 H   0  0  0  0  0  0  0  0  0  0  0  0
  -29.5640  -22.9820   20.1840 H   0  0  0  0  0  0  0  0  0  0  0  0
  -28.0070  -24.3290   20.2730 C   0  0  0  0  0  2  0  0  0  0  0  0
  -28.5520  -25.4670   19.3730 C   0  0  0  0  0  2  0  0  0  0  0  0
  -28.4390  -26.7740   19.9660 O   0  0  0  0  0  0  0  0  0  0  0  0
  -24.6700  -31.8580   23.2190 C   0  0  0  0  0  0  0  0  0  0  0  0
  -27.2440  -27.4710   19.9760 C   0  0  0  0  0  0  0  0  0  0  0  0
  -23.4320  -30.5080   21.5540 C   0  0  0  0  0  3  0  0  0  0  0  0
  -24.8540  -28.9940   20.0720 C   0  0  0  0  0  0  0  0  0  0  0  0
  -25.9580  -30.8500   21.3360 C   0  0  0  0  0  2  0  0  0  0  0  0
  -26.0220  -29.4920   20.6620 C   0  0  0  0  0  0  0  0  0  0  0  0
  -27.2130  -28.7330   20.6160 C   0  0  0  0  0  3  0  0  0  0  0  0
  -26.0560  -26.9930   19.3760 C   0  0  0  0  0  3  0  0  0  0  0  0
  -24.8670  -27.7450   19.4270 C   0  0  0  0  0  3  0  0  0  0  0  0
  -23.6160  -29.8570   20.1580 C   0  0  0  0  0  2  0  0  0  0  0  0
  -24.7060  -31.0880   22.0930 N   0  0  0  0  0  0  0  0  0  0  0  0
  -23.5980  -32.1260   23.7810 O   0  0  0  0  0  0  0  0  0  0  0  0
  -22.7840  -29.4750   22.5010 C   0  0  0  0  0  0  0  0  0  0  0  0
  -21.4590  -29.2930   22.3720 N   0  0  0  0  0  0  0  0  0  0  0  0
  -23.4680  -28.8410   23.3090 O   0  0  0  0  0  0  0  0  0  0  0  0
  -20.9760  -29.8360   21.6700 H   0  0  0  0  0  0  0  0  0  0  0  0
  -18.0890  -28.0880   22.8690 C   0  0  0  0  0  0  0  0  0  0  0  0
  -20.6450  -28.3510   23.1400 C   0  0  0  0  0  3  0  0  0  0  0  0
  -20.7480  -26.9260   22.5540 C   0  0  0  0  0  2  0  0  0  0  0  0
  -19.6540  -26.6180   21.5290 C   0  0  0  0  0  2  0  0  0  0  0  0
  -18.2760  -26.7470   22.1810 C   0  0  0  0  0  2  0  0  0  0  0  0
  -19.2050  -28.8490   23.3070 C   0  0  0  0  0  0  0  0  0  0  0  0
  -18.9830  -30.1050   23.9140 C   0  0  0  0  0  3  0  0  0  0  0  0
  -17.6760  -30.6000   24.0890 C   0  0  0  0  0  3  0  0  0  0  0  0
  -16.5760  -29.8320   23.6700 C   0  0  0  0  0  3  0  0  0  0  0  0
  -16.7820  -28.5790   23.0650 C   0  0  0  0  0  3  0  0  0  0  0  0
  -25.9710  -32.4610   23.8370 C   0  0  0  0  0  3  0  0  0  0  0  0
  -25.6840  -33.8540   24.2020 N   0  0  0  0  0  0  0  0  0  0  0  0
  -26.0290  -34.9200   23.4670 C   0  0  0  0  0  0  0  0  0  0  0  0
  -26.6960  -34.8330   22.4320 O   0  0  0  0  0  0  0  0  0  0  0  0
  -25.0930  -33.9990   25.0070 H   0  0  0  0  0  0  0  0  0  0  0  0
  -24.3310  -36.7480   23.1520 C   0  0  0  0  0  1  0  0  0  0  0  0
  -25.5620  -36.3040   23.9590 C   0  0  0  0  0  3  0  0  0  0  0  0
  -27.7040  -37.1310   24.8240 C   0  0  0  0  0  1  0  0  0  0  0  0
  -26.6110  -37.3410   23.8780 N   0  0  0  0  0  0  0  0  0  0  0  0
  -26.2190  -38.2640   24.0490 H   0  0  0  0  0  0  0  0  0  0  0  0
  -26.5010  -31.6540   25.0860 C   0  0  1  0  0  0  0  0  0  0  0  0
  -25.4240  -31.3960   26.1640 C   0  0  0  0  0  1  0  0  0  0  0  0
  -27.0670  -30.2820   24.6510 C   0  0  0  0  0  1  0  0  0  0  0  0
  -27.6700  -32.4200   25.7500 C   0  0  0  0  0  1  0  0  0  0  0  0
  2  5  1  0
  3  2  2  0
  3  6  1  0
  5  9  1  0
  5  4  2  0
  6  1  1  0
  6  7  2  0
  7  4  1  0
  7  8  1  0
 10 18  1  0
 11 16  1  0
 12 13  1  0
 12 11  1  0
 14 13  1  0
 14 23  1  0
 14 15  1  0
 16 10  1  0
 16 15  1  0
 17 10  2  0
 18  9  1  0
 19 18  1  0
 20 21  2  0
 21 40  1  0
 22 21  1  0
 22 25  1  0
 23 24  1  0
 23 20  1  0
 24 22  2  0
 25 26  1  0
 26 27  2  0
 28 31  1  0
 28 27  1  0
 29 28  2  0
 30 29  1  0
 30 25  2  0
 31 32  1  0
 32 37  2  0
 32 33  1  0
 33 34  2  0
 34 35  1  0
 35 39  1  0
 36 35  2  0
 37 36  1  0
 38 37  1  0
 40 41  1  0
 41 44  1  0
 41 43  1  0
 42 40  2  0
 45 20  1  0
 45 46  1  0
 47 45  1  0
 48 50  1  0
 48 51  1  0
 48  1  1  0
 49 48  1  0
 52 53  1  0
 52 51  1  0
 53 55  1  0
 54 65  2  0
 55 60  1  0
 56 64  1  0
 56 66  1  0
 57 63  1  0
 57 59  1  0
 58 64  1  0
 59 58  1  0
 60 59  2  0
 61 62  1  0
 61 55  2  0
 62 57  2  0
 63 56  1  0
 64 54  1  0
 66 68  2  0
 67 66  1  0
 69 67  1  0
 70 79  2  0
 70 75  1  0
 71 67  1  0
 71 75  1  0
 72 71  1  0
 73 74  1  0
 73 72  1  0
 74 70  1  0
 75 76  2  0
 76 77  1  0
 78 77  2  0
 79 78  1  0
 80 54  1  0
 80 81  1  0
 80 90  1  0
 81 84  1  0
 82 86  1  0
 82 81  1  0
 83 82  2  0
 86 85  1  0
 88 86  1  0
 88 89  1  0
 88 87  1  0
 90 93  1  1
 90 91  1  0
 92 90  1  0
M  ISO  4  10 100  18 100  52 101  53 101
M  END
>  <TORSDO>  (76) 
F 21

>  <SCORE>  (76) 
-12.978

>  <name>  (76) 
76

>  <ligand_id>  (76) 
76

>  <original_smiles>  (76) 
[H]c1c([H])c([H])c2c(c1[H])C([H])([H])C([H])([H])C([H])([H])C2([H])N([H])C(=O)C1([H])N(C(=O)C([H])(N([H])C(=O)C([H])(N([H])C([H])([H])[H])C([H])([H])[H])C(C([H])([H])[H])(C([H])([H])[H])C([H])([H])[H])C([H])([H])c2c([H])c(OC([H])([H])C([H])([H])[N+]([H])([H])C([H])([H])c3c([H])c([H])c(C([H])([H])N([H])C(=O)N4C([H])([H])C([H])([H])C([H])([H])C([H])(n5nc(-c6c([H])c([H])c(Oc7c([H])c([H])c(F)c([H])c7F)c([H])c6[H])c(C(=O)N([H])[H])c5N([H])[H])C4([H])[H])c([H])c3F)c([H])c([H])c2C1([H])[H]

>  <smiles>  (76) 
[H]c1c([H])c([H])c2c(c1[H])C([H])([H])C([H])([H])C([H])([H])C2([H])N([H])C(=O)C1([H])N(C(=O)C([H])(N([H])C(=O)C([H])(N([H])C([H])([H])[H])C([H])([H])[H])C(C([H])([H])[H])(C([H])([H])[H])C([H])([H])[H])C([H])([H])c2c([H])c(OC([H])([H])C([H])([H])[N+]([H])([H])C([H])([H])c3c([H])c([H])c(C([H])([H])N([H])C(=O)N4C([H])([H])C([H])([H])C([H])([H])C([H])(n5nc(-c6c([H])c([H])c(Oc7c([H])c([H])c(F)c([H])c7F)c([H])c6[H])c(C(=O)N([H])[H])c5N([H])[H])C4([H])[H])c([H])c3F)c([H])c([H])c2C1([H])[H]

$$$$
77:0:0
     RDKit          3D

 96105  0  0  1  0  0  0  0  0999 V2000
  -32.0740  -21.6760   21.2020 C   0  0  0  0  0  3  0  0  0  0  0  0
  -31.7770  -20.2990   21.2950 C   0  0  0  0  0  3  0  0  0  0  0  0
  -30.2430  -21.9570   19.6340 C   0  0  0  0  0  3  0  0  0  0  0  0
  -31.3170  -22.5140   20.3550 C   0  0  0  0  0  0  0  0  0  0  0  0
  -30.7110  -19.7260   20.5570 C   0  0  0  0  0  0  0  0  0  0  0  0
  -29.9280  -20.5900   19.7440 C   0  0  0  0  0  0  0  0  0  0  0  0
  -28.8470  -20.1300   19.0710 F   0  0  0  0  0  0  0  0  0  0  0  0
  -30.6690  -14.4920   20.2170 C   0  0  0  0  0  0  0  0  0  0  0  0
  -30.3020  -12.3880   18.9920 C   0  0  0  0  0  2  0  0  0  0  0  0
  -29.3030  -12.6710   17.8510 C   0  0  0  0  0  2  0  0  0  0  0  0
  -27.8500  -12.5220   18.3450 C   0  0  0  0  0  2  0  0  0  0  0  0
  -27.5830  -13.2920   19.6660 C   0  0  0  0  0  3  0  0  0  0  0  0
  -28.6930  -13.0100   20.7070 C   0  0  0  0  0  2  0  0  0  0  0  0
  -29.9910  -13.3220   20.0830 N   0  0  0  0  0  0  0  0  0  0  0  0
  -31.7990  -14.6820   19.7580 O   0  0  0  0  0  0  0  0  0  0  0  0
  -30.2280  -17.6280   19.3660 C   0  0  0  0  0  2  0  0  0  0  0  0
  -30.9750  -17.5260   21.7140 C   0  0  0  0  0  2  0  0  0  0  0  0
  -29.3250  -16.4130   19.6150 C   0  0  0  0  0  2  0  0  0  0  0  0
  -30.1660  -16.2160   21.9010 C   0  0  0  0  0  2  0  0  0  0  0  0
  -30.4260  -18.3400   20.6270 N   0  0  0  0  0  0  0  0  0  0  0  0
  -29.9100  -15.5270   20.6290 N   0  0  0  0  0  0  0  0  0  0  0  0
  -25.2130  -13.8850   20.4710 C   0  0  0  0  0  0  0  0  0  0  0  0
  -24.1620  -13.1030   20.8700 C   0  0  0  0  0  0  0  0  0  0  0  0
  -24.6260  -11.7540   20.8010 C   0  0  0  0  0  0  0  0  0  0  0  0
  -26.2530  -13.0100   20.1940 N   0  0  0  0  0  0  0  0  0  0  0  0
  -25.9040  -11.7230   20.4480 N   0  0  0  0  0  0  0  0  0  0  0  0
  -23.9140  -10.4870   20.9980 C   0  0  0  0  0  0  0  0  0  0  0  0
  -24.3750   -9.5200   21.9200 C   0  0  0  0  0  3  0  0  0  0  0  0
  -23.6640   -8.3140   22.1050 C   0  0  0  0  0  3  0  0  0  0  0  0
  -22.4810   -8.0700   21.3700 C   0  0  0  0  0  0  0  0  0  0  0  0
  -22.0390   -9.0260   20.4380 C   0  0  0  0  0  3  0  0  0  0  0  0
  -22.7490  -10.2240   20.2490 C   0  0  0  0  0  3  0  0  0  0  0  0
  -21.7380   -6.9190   21.4670 O   0  0  0  0  0  0  0  0  0  0  0  0
  -21.6980   -6.1830   22.6250 C   0  0  0  0  0  0  0  0  0  0  0  0
  -21.2670   -6.7400   23.8480 C   0  0  0  0  0  3  0  0  0  0  0  0
  -21.1790   -5.9300   24.9980 C   0  0  0  0  0  3  0  0  0  0  0  0
  -21.5120   -4.5650   24.9250 C   0  0  0  0  0  0  0  0  0  0  0  0
  -21.9340   -4.0060   23.7040 C   0  0  0  0  0  3  0  0  0  0  0  0
  -22.0250   -4.8130   22.5580 C   0  0  0  0  0  0  0  0  0  0  0  0
  -22.4140   -4.2670   21.3810 F   0  0  0  0  0  0  0  0  0  0  0  0
  -21.4180   -3.7830   26.0250 F   0  0  0  0  0  0  0  0  0  0  0  0
  -22.7760  -13.5720   21.2030 C   0  0  0  0  0  0  0  0  0  0  0  0
  -22.0790  -12.8580   22.0820 N   0  0  0  0  0  0  0  0  0  0  0  0
  -22.3170  -14.6060   20.7190 O   0  0  0  0  0  0  0  0  0  0  0  0
  -22.4600  -12.0220   22.4980 H   0  0  0  0  0  0  0  0  0  0  0  0
  -21.1510  -13.1580   22.3470 H   0  0  0  0  0  0  0  0  0  0  0  0
  -25.3610  -15.2590   20.3040 N   0  0  0  0  0  0  0  0  0  0  0  0
  -24.5930  -15.9040   20.4540 H   0  0  0  0  0  0  0  0  0  0  0  0
  -26.2030  -15.7110   19.9730 H   0  0  0  0  0  0  0  0  0  0  0  0
  -31.6700  -23.9860   20.1710 C   0  0  0  0  0  2  0  0  0  0  0  0
  -30.6220  -24.8920   20.6910 N   0  0  0  0  0  4  0  0  0  0  0  0
  -30.5950  -24.8070   21.6950 H   0  0  0  0  0  0  0  0  0  0  0  0
  -29.7320  -24.5850   20.3360 H   0  0  0  0  0  0  0  0  0  0  0  0
  -30.8010  -26.3120   20.3020 C   0  0  0  0  0  2  0  0  0  0  0  0
  -29.6210  -27.1990   20.7370 C   0  0  0  0  0  2  0  0  0  0  0  0
  -28.4260  -26.7170   20.1210 O   0  0  0  0  0  0  0  0  0  0  0  0
  -24.5500  -31.8920   23.2280 C   0  0  0  0  0  0  0  0  0  0  0  0
  -27.2780  -27.4830   20.1900 C   0  0  0  0  0  0  0  0  0  0  0  0
  -23.3640  -30.4740   21.5790 C   0  0  0  0  0  3  0  0  0  0  0  0
  -24.8440  -28.9320   20.1830 C   0  0  0  0  0  0  0  0  0  0  0  0
  -25.8840  -30.8540   21.4030 C   0  0  0  0  0  2  0  0  0  0  0  0
  -25.9870  -29.4790   20.7790 C   0  0  0  0  0  0  0  0  0  0  0  0
  -27.2000  -28.7600   20.7950 C   0  0  0  0  0  3  0  0  0  0  0  0
  -26.1160  -26.9430   19.6000 C   0  0  0  0  0  3  0  0  0  0  0  0
  -24.8990  -27.6550   19.5980 C   0  0  0  0  0  3  0  0  0  0  0  0
  -23.5890  -29.7730   20.2110 C   0  0  0  0  0  2  0  0  0  0  0  0
  -24.6170  -31.0880   22.1290 N   0  0  0  0  0  0  0  0  0  0  0  0
  -23.4660  -32.1620   23.7590 O   0  0  0  0  0  0  0  0  0  0  0  0
  -22.7090  -29.4600   22.5430 C   0  0  0  0  0  0  0  0  0  0  0  0
  -21.3870  -29.2780   22.4060 N   0  0  0  0  0  0  0  0  0  0  0  0
  -23.3870  -28.8360   23.3640 O   0  0  0  0  0  0  0  0  0  0  0  0
  -20.9020  -29.8300   21.7110 H   0  0  0  0  0  0  0  0  0  0  0  0
  -18.0030  -28.1110   22.8960 C   0  0  0  0  0  0  0  0  0  0  0  0
  -20.5620  -28.3420   23.1700 C   0  0  0  0  0  3  0  0  0  0  0  0
  -20.6520  -26.9140   22.5830 C   0  0  0  0  0  2  0  0  0  0  0  0
  -19.5460  -26.6090   21.5680 C   0  0  0  0  0  2  0  0  0  0  0  0
  -18.1660  -26.7640   22.2130 C   0  0  0  0  0  2  0  0  0  0  0  0
  -19.1280  -28.8600   23.3300 C   0  0  0  0  0  0  0  0  0  0  0  0
  -18.9220  -30.1240   23.9250 C   0  0  0  0  0  3  0  0  0  0  0  0
  -17.6220  -30.6370   24.0930 C   0  0  0  0  0  3  0  0  0  0  0  0
  -16.5100  -29.8840   23.6790 C   0  0  0  0  0  3  0  0  0  0  0  0
  -16.7010  -28.6220   23.0860 C   0  0  0  0  0  3  0  0  0  0  0  0
  -25.8320  -32.5260   23.8570 C   0  0  0  0  0  3  0  0  0  0  0  0
  -26.3440  -31.7580   25.1370 C   0  0  1  0  0  0  0  0  0  0  0  0
  -25.2460  -31.5170   26.1980 C   0  0  0  0  0  1  0  0  0  0  0  0
  -26.9340  -30.3810   24.7500 C   0  0  0  0  0  1  0  0  0  0  0  0
  -27.4870  -32.5570   25.8070 C   0  0  0  0  0  1  0  0  0  0  0  0
  -25.5210  -33.9240   24.1790 N   0  0  0  0  0  0  0  0  0  0  0  0
  -25.8680  -34.9720   23.4210 C   0  0  0  0  0  0  0  0  0  0  0  0
  -26.5570  -34.8650   22.4020 O   0  0  0  0  0  0  0  0  0  0  0  0
  -24.9130  -34.0820   24.9690 H   0  0  0  0  0  0  0  0  0  0  0  0
  -24.1560  -36.7690   23.0180 C   0  0  0  0  0  1  0  0  0  0  0  0
  -25.3750  -36.3630   23.8630 C   0  0  0  0  0  3  0  0  0  0  0  0
  -27.4900  -37.2400   24.7480 C   0  0  0  0  0  1  0  0  0  0  0  0
  -26.4140  -37.4120   23.7750 N   0  0  0  0  0  0  0  0  0  0  0  0
  -26.0070  -38.3330   23.9140 H   0  0  0  0  0  0  0  0  0  0  0  0
  1  2  1  0
  3  6  2  0
  3  4  1  0
  4  1  2  0
  5 20  1  0
  5  2  2  0
  6  5  1  0
  7  6  1  0
  8 21  1  0
  9 14  1  0
 10 11  1  0
 10  9  1  0
 12 11  1  0
 12 25  1  0
 12 13  1  0
 14  8  1  0
 14 13  1  0
 15  8  2  0
 16 18  1  0
 16 20  1  0
 17 19  1  0
 18 21  1  0
 20 17  1  0
 21 19  1  0
 22 23  2  0
 23 42  1  0
 24 23  1  0
 24 27  1  0
 25 26  1  0
 25 22  1  0
 26 24  2  0
 27 28  1  0
 28 29  2  0
 30 33  1  0
 30 29  1  0
 31 30  2  0
 32 31  1  0
 32 27  2  0
 33 34  1  0
 34 35  1  0
 35 36  2  0
 37 36  1  0
 37 41  1  0
 38 37  2  0
 39 34  2  0
 39 38  1  0
 40 39  1  0
 42 43  1  0
 43 46  1  0
 43 45  1  0
 44 42  2  0
 47 48  1  0
 47 22  1  0
 49 47  1  0
 50  4  1  0
 50 51  1  0
 51 52  1  0
 53 51  1  0
 54 51  1  0
 54 55  1  0
 56 58  1  0
 56 55  1  0
 57 68  2  0
 58 63  1  0
 59 67  1  0
 59 69  1  0
 60 66  1  0
 60 62  1  0
 61 67  1  0
 62 63  2  0
 62 61  1  0
 64 58  2  0
 65 64  1  0
 65 60  2  0
 66 59  1  0
 67 57  1  0
 69 71  2  0
 70 69  1  0
 72 70  1  0
 73 82  2  0
 73 78  1  0
 74 70  1  0
 74 78  1  0
 75 74  1  0
 76 77  1  0
 76 75  1  0
 77 73  1  0
 78 79  2  0
 79 80  1  0
 81 80  2  0
 82 81  1  0
 83 57  1  0
 83 88  1  0
 83 84  1  0
 84 87  1  1
 84 85  1  0
 86 84  1  0
 88 91  1  0
 89 93  1  0
 89 88  1  0
 90 89  2  0
 93 92  1  0
 95 93  1  0
 95 96  1  0
 95 94  1  0
M  ISO  4   8 100  21 100  55 101  56 101
M  END
>  <TORSDO>  (77) 
F 20

>  <SCORE>  (77) 
-14.175

>  <name>  (77) 
77

>  <ligand_id>  (77) 
77

>  <original_smiles>  (77) 
[H]c1c([H])c([H])c2c(c1[H])C([H])([H])C([H])([H])C([H])([H])C2([H])N([H])C(=O)C1([H])N(C(=O)C([H])(N([H])C(=O)C([H])(N([H])C([H])([H])[H])C([H])([H])[H])C(C([H])([H])[H])(C([H])([H])[H])C([H])([H])[H])C([H])([H])c2c([H])c(OC([H])([H])C([H])([H])[N+]([H])([H])C([H])([H])c3c([H])c([H])c(N4C([H])([H])C([H])([H])N(C(=O)N5C([H])([H])C([H])([H])C([H])([H])C([H])(n6nc(-c7c([H])c([H])c(Oc8c([H])c([H])c(F)c([H])c8F)c([H])c7[H])c(C(=O)N([H])[H])c6N([H])[H])C5([H])[H])C([H])([H])C4([H])[H])c(F)c3[H])c([H])c([H])c2C1([H])[H]

>  <smiles>  (77) 
[H]c1c([H])c([H])c2c(c1[H])C([H])([H])C([H])([H])C([H])([H])C2([H])N([H])C(=O)C1([H])N(C(=O)C([H])(N([H])C(=O)C([H])(N([H])C([H])([H])[H])C([H])([H])[H])C(C([H])([H])[H])(C([H])([H])[H])C([H])([H])[H])C([H])([H])c2c([H])c(OC([H])([H])C([H])([H])[N+]([H])([H])C([H])([H])c3c([H])c([H])c(N4C([H])([H])C([H])([H])N(C(=O)N5C([H])([H])C([H])([H])C([H])([H])C([H])(n6nc(-c7c([H])c([H])c(Oc8c([H])c([H])c(F)c([H])c8F)c([H])c7[H])c(C(=O)N([H])[H])c6N([H])[H])C5([H])[H])C([H])([H])C4([H])[H])c(F)c3[H])c([H])c([H])c2C1([H])[H]

$$$$
78:0:0
     RDKit          3D

 98107  0  0  1  0  0  0  0  0999 V2000
  -30.8930  -22.5170   20.4010 C   0  0  0  0  0  2  0  0  0  0  0  0
  -28.5190  -18.1040   19.9340 C   0  0  0  0  0  3  0  0  0  0  0  0
  -28.9190  -16.7670   20.1740 C   0  0  0  0  0  3  0  0  0  0  0  0
  -31.1890  -17.4960   20.8170 C   0  0  0  0  0  3  0  0  0  0  0  0
  -29.4810  -19.1020   20.1510 C   0  0  0  0  0  0  0  0  0  0  0  0
  -30.7540  -18.8130   20.5790 C   0  0  0  0  0  0  0  0  0  0  0  0
  -30.2420  -16.4600   20.5980 C   0  0  0  0  0  0  0  0  0  0  0  0
  -29.3820  -20.5750   20.0130 C   0  0  0  0  0  0  0  0  0  0  0  0
  -31.4690  -20.1060   20.7300 C   0  0  0  0  0  0  0  0  0  0  0  0
  -30.5870  -21.0800   20.3790 N   0  0  0  0  0  0  0  0  0  0  0  0
  -28.3770  -21.1930   19.6430 O   0  0  0  0  0  0  0  0  0  0  0  0
  -32.6360  -20.2350   21.1160 O   0  0  0  0  0  0  0  0  0  0  0  0
  -31.0200  -14.2390   19.9240 C   0  0  0  0  0  0  0  0  0  0  0  0
  -30.6760  -12.0110   18.9150 C   0  0  0  0  0  2  0  0  0  0  0  0
  -29.6570  -12.1070   17.7600 C   0  0  0  0  0  2  0  0  0  0  0  0
  -28.2140  -11.9940   18.2880 C   0  0  0  0  0  2  0  0  0  0  0  0
  -27.9410  -12.9450   19.4810 C   0  0  0  0  0  3  0  0  0  0  0  0
  -29.0520  -12.7950   20.5450 C   0  0  0  0  0  2  0  0  0  0  0  0
  -30.3560  -13.0530   19.9000 N   0  0  0  0  0  0  0  0  0  0  0  0
  -31.9990  -14.4920   19.2130 O   0  0  0  0  0  0  0  0  0  0  0  0
  -30.5400  -15.0980   20.8320 N   0  0  0  0  0  0  0  0  0  0  0  0
  -29.8870  -14.6400   21.4480 H   0  0  0  0  0  0  0  0  0  0  0  0
  -25.6240  -13.6370   20.3740 C   0  0  0  0  0  0  0  0  0  0  0  0
  -24.5570  -12.9010   20.8190 C   0  0  0  0  0  0  0  0  0  0  0  0
  -24.9630  -11.5330   20.7380 C   0  0  0  0  0  0  0  0  0  0  0  0
  -26.6140  -12.7210   20.0540 N   0  0  0  0  0  0  0  0  0  0  0  0
  -26.2230  -11.4490   20.3260 N   0  0  0  0  0  0  0  0  0  0  0  0
  -24.2080  -10.2950   20.9730 C   0  0  0  0  0  0  0  0  0  0  0  0
  -24.6320   -9.3420   21.9250 C   0  0  0  0  0  3  0  0  0  0  0  0
  -23.8810   -8.1680   22.1460 C   0  0  0  0  0  3  0  0  0  0  0  0
  -22.6930   -7.9370   21.4130 C   0  0  0  0  0  0  0  0  0  0  0  0
  -22.2880   -8.8790   20.4520 C   0  0  0  0  0  3  0  0  0  0  0  0
  -23.0380  -10.0450   20.2300 C   0  0  0  0  0  3  0  0  0  0  0  0
  -21.9160   -6.8110   21.5390 O   0  0  0  0  0  0  0  0  0  0  0  0
  -21.8000   -6.1470   22.7340 C   0  0  0  0  0  0  0  0  0  0  0  0
  -21.3090   -6.7820   23.8950 C   0  0  0  0  0  3  0  0  0  0  0  0
  -21.1390   -6.0440   25.0830 C   0  0  0  0  0  3  0  0  0  0  0  0
  -21.4520   -4.6720   25.1130 C   0  0  0  0  0  0  0  0  0  0  0  0
  -21.9370   -4.0370   23.9570 C   0  0  0  0  0  3  0  0  0  0  0  0
  -22.1090   -4.7720   22.7700 C   0  0  0  0  0  0  0  0  0  0  0  0
  -22.5570   -4.1500   21.6530 F   0  0  0  0  0  0  0  0  0  0  0  0
  -21.2830   -3.9610   26.2520 F   0  0  0  0  0  0  0  0  0  0  0  0
  -23.2040  -13.4250   21.2070 C   0  0  0  0  0  0  0  0  0  0  0  0
  -22.5310  -12.7570   22.1360 N   0  0  0  0  0  0  0  0  0  0  0  0
  -22.7570  -14.4630   20.7200 O   0  0  0  0  0  0  0  0  0  0  0  0
  -22.9070  -11.9180   22.5550 H   0  0  0  0  0  0  0  0  0  0  0  0
  -21.6280  -13.0920   22.4380 H   0  0  0  0  0  0  0  0  0  0  0  0
  -25.8270  -15.0020   20.1970 N   0  0  0  0  0  0  0  0  0  0  0  0
  -25.0920  -15.6820   20.3570 H   0  0  0  0  0  0  0  0  0  0  0  0
  -26.6530  -15.4050   19.7730 H   0  0  0  0  0  0  0  0  0  0  0  0
  -30.6490  -23.1400   21.7930 C   0  0  0  0  0  2  0  0  0  0  0  0
  -30.9940  -24.6380   21.8840 C   0  0  0  0  0  2  0  0  0  0  0  0
  -29.9260  -25.5070   21.3460 N   0  0  0  0  0  4  0  0  0  0  0  0
  -29.7650  -26.2310   22.0310 H   0  0  0  0  0  0  0  0  0  0  0  0
  -29.0650  -24.9880   21.2670 H   0  0  0  0  0  0  0  0  0  0  0  0
  -30.2340  -26.1640   20.0550 C   0  0  0  0  0  2  0  0  0  0  0  0
  -29.2420  -27.3020   19.7790 C   0  0  0  0  0  2  0  0  0  0  0  0
  -27.9470  -26.7250   19.6290 O   0  0  0  0  0  0  0  0  0  0  0  0
  -24.3860  -31.8180   23.1660 C   0  0  0  0  0  0  0  0  0  0  0  0
  -26.8360  -27.5280   19.7620 C   0  0  0  0  0  0  0  0  0  0  0  0
  -23.0830  -30.5310   21.5000 C   0  0  0  0  0  3  0  0  0  0  0  0
  -24.4500  -29.0380   19.9510 C   0  0  0  0  0  0  0  0  0  0  0  0
  -25.5990  -30.8650   21.2130 C   0  0  0  0  0  2  0  0  0  0  0  0
  -25.6350  -29.5250   20.5110 C   0  0  0  0  0  0  0  0  0  0  0  0
  -26.8290  -28.7840   20.4170 C   0  0  0  0  0  3  0  0  0  0  0  0
  -25.6260  -27.0380   19.2250 C   0  0  0  0  0  3  0  0  0  0  0  0
  -24.4370  -27.7880   19.3080 C   0  0  0  0  0  3  0  0  0  0  0  0
  -23.2250  -29.9150   20.0830 C   0  0  0  0  0  2  0  0  0  0  0  0
  -24.3770  -31.0800   22.0210 N   0  0  0  0  0  0  0  0  0  0  0  0
  -23.3350  -32.0850   23.7610 O   0  0  0  0  0  0  0  0  0  0  0  0
  -22.4470  -29.4760   22.4330 C   0  0  0  0  0  0  0  0  0  0  0  0
  -21.1190  -29.3120   22.3280 N   0  0  0  0  0  0  0  0  0  0  0  0
  -23.1430  -28.8100   23.2030 O   0  0  0  0  0  0  0  0  0  0  0  0
  -20.6190  -29.9030   21.6800 H   0  0  0  0  0  0  0  0  0  0  0  0
  -17.7470  -28.1280   22.8360 C   0  0  0  0  0  0  0  0  0  0  0  0
  -20.3100  -28.3530   23.0770 C   0  0  0  0  0  3  0  0  0  0  0  0
  -20.3910  -26.9440   22.4450 C   0  0  0  0  0  2  0  0  0  0  0  0
  -19.2720  -26.6700   21.4370 C   0  0  0  0  0  2  0  0  0  0  0  0
  -17.9010  -26.8020   22.1090 C   0  0  0  0  0  2  0  0  0  0  0  0
  -18.8790  -28.8630   23.2770 C   0  0  0  0  0  0  0  0  0  0  0  0
  -18.6820  -30.1060   23.9150 C   0  0  0  0  0  3  0  0  0  0  0  0
  -17.3840  -30.6130   24.1200 C   0  0  0  0  0  3  0  0  0  0  0  0
  -16.2680  -29.8730   23.6960 C   0  0  0  0  0  3  0  0  0  0  0  0
  -16.4500  -28.6320   23.0580 C   0  0  0  0  0  3  0  0  0  0  0  0
  -25.7130  -32.3850   23.7660 C   0  0  0  0  0  3  0  0  0  0  0  0
  -25.4580  -33.7740   24.1630 N   0  0  0  0  0  0  0  0  0  0  0  0
  -25.8220  -34.8480   23.4470 C   0  0  0  0  0  0  0  0  0  0  0  0
  -26.4780  -34.7680   22.4050 O   0  0  0  0  0  0  0  0  0  0  0  0
  -24.8730  -33.9140   24.9740 H   0  0  0  0  0  0  0  0  0  0  0  0
  -24.1650  -36.7210   23.1800 C   0  0  0  0  0  1  0  0  0  0  0  0
  -25.3890  -36.2290   23.9710 C   0  0  0  0  0  3  0  0  0  0  0  0
  -27.5530  -36.9890   24.8450 C   0  0  0  0  0  1  0  0  0  0  0  0
  -26.4610  -37.2450   23.9090 N   0  0  0  0  0  0  0  0  0  0  0  0
  -26.0900  -38.1730   24.0970 H   0  0  0  0  0  0  0  0  0  0  0  0
  -26.2550  -31.5440   24.9860 C   0  0  1  0  0  0  0  0  0  0  0  0
  -25.1960  -31.2820   26.0810 C   0  0  0  0  0  1  0  0  0  0  0  0
  -26.7900  -30.1740   24.5060 C   0  0  0  0  0  1  0  0  0  0  0  0
  -27.4520  -32.2770   25.6390 C   0  0  0  0  0  1  0  0  0  0  0  0
  1 51  1  0
  2  5  2  0
  2  3  1  0
  3  7  2  0
  5  6  1  0
  6  9  1  0
  6  4  2  0
  7  4  1  0
  7 21  1  0
  8  5  1  0
  8 10  1  0
  9 12  2  0
 10  1  1  0
 10  9  1  0
 11  8  2  0
 13 21  1  0
 14 19  1  0
 15 16  1  0
 15 14  1  0
 17 16  1  0
 17 26  1  0
 17 18  1  0
 19 13  1  0
 19 18  1  0
 20 13  2  0
 21 22  1  0
 23 24  2  0
 24 43  1  0
 25 24  1  0
 25 28  1  0
 26 27  1  0
 26 23  1  0
 27 25  2  0
 28 29  1  0
 29 30  2  0
 31 34  1  0
 31 30  1  0
 32 31  2  0
 33 32  1  0
 33 28  2  0
 34 35  1  0
 35 40  2  0
 35 36  1  0
 36 37  2  0
 37 38  1  0
 38 42  1  0
 39 38  2  0
 40 39  1  0
 41 40  1  0
 43 44  1  0
 44 47  1  0
 44 46  1  0
 45 43  2  0
 48 49  1  0
 48 23  1  0
 50 48  1  0
 51 52  1  0
 53 52  1  0
 53 54  1  0
 55 53  1  0
 56 53  1  0
 57 56  1  0
 58 60  1  0
 58 57  1  0
 59 70  2  0
 60 65  1  0
 61 69  1  0
 61 71  1  0
 62 68  1  0
 62 64  1  0
 63 69  1  0
 64 63  1  0
 65 64  2  0
 66 67  1  0
 66 60  2  0
 67 62  2  0
 68 61  1  0
 69 59  1  0
 71 73  2  0
 72 71  1  0
 74 72  1  0
 75 84  2  0
 75 80  1  0
 76 72  1  0
 76 80  1  0
 77 76  1  0
 78 79  1  0
 78 77  1  0
 79 75  1  0
 80 81  2  0
 81 82  1  0
 83 82  2  0
 84 83  1  0
 85 59  1  0
 85 86  1  0
 85 95  1  0
 86 89  1  0
 87 91  1  0
 87 86  1  0
 88 87  2  0
 91 90  1  0
 93 91  1  0
 93 94  1  0
 93 92  1  0
 95 98  1  1
 95 96  1  0
 97 95  1  0
M  ISO  4  13 100  21 100  57 101  58 101
M  END
>  <TORSDO>  (78) 
F 22

>  <SCORE>  (78) 
-12.518

>  <name>  (78) 
78

>  <ligand_id>  (78) 
78

>  <original_smiles>  (78) 
[H]c1c([H])c([H])c2c(c1[H])C([H])([H])C([H])([H])C([H])([H])C2([H])N([H])C(=O)C1([H])N(C(=O)C([H])(N([H])C(=O)C([H])(N([H])C([H])([H])[H])C([H])([H])[H])C(C([H])([H])[H])(C([H])([H])[H])C([H])([H])[H])C([H])([H])c2c([H])c(OC([H])([H])C([H])([H])[N+]([H])([H])C([H])([H])C([H])([H])C([H])([H])N3C(=O)c4c([H])c([H])c(N([H])C(=O)N5C([H])([H])C([H])([H])C([H])([H])C([H])(n6nc(-c7c([H])c([H])c(Oc8c([H])c([H])c(F)c([H])c8F)c([H])c7[H])c(C(=O)N([H])[H])c6N([H])[H])C5([H])[H])c([H])c4C3=O)c([H])c([H])c2C1([H])[H]

>  <smiles>  (78) 
[H]c1c([H])c([H])c2c(c1[H])C([H])([H])C([H])([H])C([H])([H])C2([H])N([H])C(=O)C1([H])N(C(=O)C([H])(N([H])C(=O)C([H])(N([H])C([H])([H])[H])C([H])([H])[H])C(C([H])([H])[H])(C([H])([H])[H])C([H])([H])[H])C([H])([H])c2c([H])c(OC([H])([H])C([H])([H])[N+]([H])([H])C([H])([H])C([H])([H])C([H])([H])N3C(=O)c4c([H])c([H])c(N([H])C(=O)N5C([H])([H])C([H])([H])C([H])([H])C([H])(n6nc(-c7c([H])c([H])c(Oc8c([H])c([H])c(F)c([H])c8F)c([H])c7[H])c(C(=O)N([H])[H])c6N([H])[H])C5([H])[H])c([H])c4C3=O)c([H])c([H])c2C1([H])[H]

$$$$
79:0:0
     RDKit          3D

 89 97  0  0  1  0  0  0  0  0999 V2000
  -28.0740  -20.4070   20.5260 C   0  0  0  0  0  3  0  0  0  0  0  0
  -28.2730  -18.9300   20.5300 C   0  0  0  0  0  3  0  0  0  0  0  0
  -30.4800  -19.1800   19.9680 C   0  0  0  0  0  3  0  0  0  0  0  0
  -29.0690  -21.4300   20.2370 C   0  0  0  0  0  0  0  0  0  0  0  0
  -29.4870  -18.1550   20.2580 C   0  0  0  0  0  0  0  0  0  0  0  0
  -30.2900  -20.6600   19.9610 C   0  0  0  0  0  0  0  0  0  0  0  0
  -31.3920  -21.3920   19.6700 F   0  0  0  0  0  0  0  0  0  0  0  0
  -30.4050  -15.3430   20.0910 C   0  0  0  0  0  0  0  0  0  0  0  0
  -30.3950  -12.9140   19.1770 C   0  0  0  0  0  2  0  0  0  0  0  0
  -29.4220  -12.7350   17.9830 C   0  0  0  0  0  2  0  0  0  0  0  0
  -27.9910  -12.4520   18.4750 C   0  0  0  0  0  2  0  0  0  0  0  0
  -27.5840  -13.3860   19.6420 C   0  0  0  0  0  3  0  0  0  0  0  0
  -28.6780  -13.4980   20.7260 C   0  0  0  0  0  2  0  0  0  0  0  0
  -29.8820  -14.0220   20.0600 N   0  0  0  0  0  0  0  0  0  0  0  0
  -31.6040  -15.4070   19.7830 O   0  0  0  0  0  0  0  0  0  0  0  0
  -29.5530  -16.5350   20.2960 N   0  0  0  0  0  0  0  0  0  0  0  0
  -28.6430  -16.1720   20.5340 H   0  0  0  0  0  0  0  0  0  0  0  0
  -25.2460  -13.9180   20.5100 C   0  0  0  0  0  0  0  0  0  0  0  0
  -24.2030  -13.1280   20.9060 C   0  0  0  0  0  0  0  0  0  0  0  0
  -24.6710  -11.7810   20.8160 C   0  0  0  0  0  0  0  0  0  0  0  0
  -26.2790  -13.0540   20.1970 N   0  0  0  0  0  0  0  0  0  0  0  0
  -25.9490  -11.7600   20.4480 N   0  0  0  0  0  0  0  0  0  0  0  0
  -23.9560  -10.5110   21.0010 C   0  0  0  0  0  0  0  0  0  0  0  0
  -24.4000   -9.5400   21.9250 C   0  0  0  0  0  3  0  0  0  0  0  0
  -23.6820   -8.3360   22.1000 C   0  0  0  0  0  3  0  0  0  0  0  0
  -22.5050   -8.0970   21.3510 C   0  0  0  0  0  0  0  0  0  0  0  0
  -22.0800   -9.0580   20.4170 C   0  0  0  0  0  3  0  0  0  0  0  0
  -22.7990  -10.2520   20.2400 C   0  0  0  0  0  3  0  0  0  0  0  0
  -21.7570   -6.9470   21.4360 O   0  0  0  0  0  0  0  0  0  0  0  0
  -21.6790   -6.2250   22.5990 C   0  0  0  0  0  0  0  0  0  0  0  0
  -21.1750   -6.7860   23.7920 C   0  0  0  0  0  3  0  0  0  0  0  0
  -21.0450   -5.9880   24.9460 C   0  0  0  0  0  3  0  0  0  0  0  0
  -21.4100   -4.6300   24.9080 C   0  0  0  0  0  0  0  0  0  0  0  0
  -21.9070   -4.0670   23.7190 C   0  0  0  0  0  3  0  0  0  0  0  0
  -22.0380   -4.8630   22.5670 C   0  0  0  0  0  0  0  0  0  0  0  0
  -22.4970   -4.3100   21.4190 F   0  0  0  0  0  0  0  0  0  0  0  0
  -21.2790   -3.8600   26.0150 F   0  0  0  0  0  0  0  0  0  0  0  0
  -22.8170  -13.5920   21.2450 C   0  0  0  0  0  0  0  0  0  0  0  0
  -22.1290  -12.8750   22.1260 N   0  0  0  0  0  0  0  0  0  0  0  0
  -22.3560  -14.6280   20.7660 O   0  0  0  0  0  0  0  0  0  0  0  0
  -22.5170  -12.0370   22.5330 H   0  0  0  0  0  0  0  0  0  0  0  0
  -21.2010  -13.1670   22.3960 H   0  0  0  0  0  0  0  0  0  0  0  0
  -25.3930  -15.2950   20.3590 N   0  0  0  0  0  0  0  0  0  0  0  0
  -24.6160  -15.9300   20.5010 H   0  0  0  0  0  0  0  0  0  0  0  0
  -26.1890  -15.7400   19.9230 H   0  0  0  0  0  0  0  0  0  0  0  0
  -29.0130  -23.1860   20.2590 C   0  0  0  0  0  2  0  0  0  0  0  0
  -27.8600  -24.3300   20.2980 N   0  0  0  0  0  0  0  0  0  0  0  0
  -27.3380  -24.2150   21.1630 H   0  0  0  0  0  0  0  0  0  0  0  0
  -28.2380  -25.9820   20.2400 O   0  0  0  0  0  0  0  0  0  0  0  0
  -24.6700  -31.9190   23.2550 C   0  0  0  0  0  0  0  0  0  0  0  0
  -27.1990  -27.0460   20.2330 C   0  0  0  0  0  0  0  0  0  0  0  0
  -23.4620  -30.5270   21.6220 C   0  0  0  0  0  3  0  0  0  0  0  0
  -24.8980  -28.9150   20.1960 C   0  0  0  0  0  0  0  0  0  0  0  0
  -26.0260  -30.7330   21.4640 C   0  0  0  0  0  2  0  0  0  0  0  0
  -26.0870  -29.3220   20.8150 C   0  0  0  0  0  0  0  0  0  0  0  0
  -27.2280  -28.4050   20.8150 C   0  0  0  0  0  3  0  0  0  0  0  0
  -25.9840  -26.7880   19.5610 C   0  0  0  0  0  3  0  0  0  0  0  0
  -24.8690  -27.6670   19.5500 C   0  0  0  0  0  3  0  0  0  0  0  0
  -23.6820  -29.8390   20.2460 C   0  0  0  0  0  2  0  0  0  0  0  0
  -24.7410  -31.0870   22.1670 N   0  0  0  0  0  0  0  0  0  0  0  0
  -23.5840  -32.2140   23.7820 O   0  0  0  0  0  0  0  0  0  0  0  0
  -22.7710  -29.5340   22.5920 C   0  0  0  0  0  0  0  0  0  0  0  0
  -21.4430  -29.3560   22.4590 N   0  0  0  0  0  0  0  0  0  0  0  0
  -23.4360  -28.9220   23.4320 O   0  0  0  0  0  0  0  0  0  0  0  0
  -20.9590  -29.9000   21.7580 H   0  0  0  0  0  0  0  0  0  0  0  0
  -18.0660  -28.1310   22.9630 C   0  0  0  0  0  0  0  0  0  0  0  0
  -20.6230  -28.4190   23.2350 C   0  0  0  0  0  3  0  0  0  0  0  0
  -20.7380  -26.9840   22.6710 C   0  0  0  0  0  2  0  0  0  0  0  0
  -19.6420  -26.6450   21.6550 C   0  0  0  0  0  2  0  0  0  0  0  0
  -18.2570  -26.7800   22.2920 C   0  0  0  0  0  2  0  0  0  0  0  0
  -19.1770  -28.9070   23.3900 C   0  0  0  0  0  0  0  0  0  0  0  0
  -18.9420  -30.1670   23.9800 C   0  0  0  0  0  3  0  0  0  0  0  0
  -17.6320  -30.6540   24.1450 C   0  0  0  0  0  3  0  0  0  0  0  0
  -16.5370  -29.8770   23.7300 C   0  0  0  0  0  3  0  0  0  0  0  0
  -16.7540  -28.6170   23.1450 C   0  0  0  0  0  3  0  0  0  0  0  0
  -25.9470  -32.5580   23.8800 C   0  0  0  0  0  3  0  0  0  0  0  0
  -25.6350  -33.9570   24.2190 N   0  0  0  0  0  0  0  0  0  0  0  0
  -25.9380  -35.0180   23.4580 C   0  0  0  0  0  0  0  0  0  0  0  0
  -26.5710  -34.9220   22.4050 O   0  0  0  0  0  0  0  0  0  0  0  0
  -25.0670  -34.1050   25.0400 H   0  0  0  0  0  0  0  0  0  0  0  0
  -24.1830  -36.8050   23.1930 C   0  0  0  0  0  1  0  0  0  0  0  0
  -25.4660  -36.4050   23.9400 C   0  0  0  0  0  3  0  0  0  0  0  0
  -27.6260  -37.3160   24.6750 C   0  0  0  0  0  1  0  0  0  0  0  0
  -26.4850  -37.4650   23.7750 N   0  0  0  0  0  0  0  0  0  0  0  0
  -26.0780  -38.3840   23.9290 H   0  0  0  0  0  0  0  0  0  0  0  0
  -26.4580  -31.7910   25.1620 C   0  0  1  0  0  0  0  0  0  0  0  0
  -25.3610  -31.5590   26.2290 C   0  0  0  0  0  1  0  0  0  0  0  0
  -27.0410  -30.4100   24.7840 C   0  0  0  0  0  1  0  0  0  0  0  0
  -27.6090  -32.5840   25.8250 C   0  0  0  0  0  1  0  0  0  0  0  0
  1  2  1  0
  3  5  1  0
  4 46  1  0
  4  1  2  0
  5 16  1  0
  5  2  2  0
  6  3  2  0
  6  4  1  0
  7  6  1  0
  8 16  1  0
  9 14  1  0
 10 11  1  0
 10  9  1  0
 12 11  1  0
 12 21  1  0
 12 13  1  0
 14  8  1  0
 14 13  1  0
 15  8  2  0
 16 17  1  0
 18 19  2  0
 19 38  1  0
 20 19  1  0
 20 23  1  0
 21 22  1  0
 21 18  1  0
 22 20  2  0
 23 24  1  0
 24 25  2  0
 26 29  1  0
 26 25  1  0
 27 26  2  0
 28 27  1  0
 28 23  2  0
 29 30  1  0
 30 31  1  0
 31 32  2  0
 33 32  1  0
 33 37  1  0
 34 33  2  0
 35 30  2  0
 35 34  1  0
 36 35  1  0
 38 39  1  0
 39 42  1  0
 39 41  1  0
 40 38  2  0
 43 44  1  0
 43 18  1  0
 45 43  1  0
 46 47  1  0
 47 48  1  0
 49 47  1  0
 50 61  2  0
 51 49  1  0
 51 56  1  0
 52 60  1  0
 52 62  1  0
 53 59  1  0
 53 55  1  0
 54 60  1  0
 55 54  1  0
 56 55  2  0
 57 51  2  0
 58 57  1  0
 58 53  2  0
 59 52  1  0
 60 50  1  0
 62 64  2  0
 63 62  1  0
 65 63  1  0
 66 75  2  0
 66 71  1  0
 67 63  1  0
 67 71  1  0
 68 67  1  0
 69 70  1  0
 69 68  1  0
 70 66  1  0
 71 72  2  0
 72 73  1  0
 74 73  2  0
 75 74  1  0
 76 50  1  0
 76 77  1  0
 76 86  1  0
 77 80  1  0
 78 82  1  0
 78 77  1  0
 79 78  2  0
 82 81  1  0
 84 85  1  0
 84 82  1  0
 84 83  1  0
 86 89  1  1
 86 87  1  0
 88 86  1  0
M  ISO  4   8 100  16 100  47 101  49 101
M  END
>  <TORSDO>  (79) 
F 18

>  <SCORE>  (79) 
-16.095

>  <name>  (79) 
79

>  <ligand_id>  (79) 
79

>  <original_smiles>  (79) 
[H]c1c([H])c([H])c2c(c1[H])C([H])([H])C([H])([H])C([H])([H])C2([H])N([H])C(=O)C1([H])N(C(=O)C([H])(N([H])C(=O)C([H])(N([H])C([H])([H])[H])C([H])([H])[H])C(C([H])([H])[H])(C([H])([H])[H])C([H])([H])[H])C([H])([H])c2c([H])c(ON([H])C([H])([H])c3c([H])c([H])c(N([H])C(=O)N4C([H])([H])C([H])([H])C([H])([H])C([H])(n5nc(-c6c([H])c([H])c(Oc7c([H])c([H])c(F)c([H])c7F)c([H])c6[H])c(C(=O)N([H])[H])c5N([H])[H])C4([H])[H])c([H])c3F)c([H])c([H])c2C1([H])[H]

>  <smiles>  (79) 
[H]c1c([H])c([H])c2c(c1[H])C([H])([H])C([H])([H])C([H])([H])C2([H])N([H])C(=O)C1([H])N(C(=O)C([H])(N([H])C(=O)C([H])(N([H])C([H])([H])[H])C([H])([H])[H])C(C([H])([H])[H])(C([H])([H])[H])C([H])([H])[H])C([H])([H])c2c([H])c(ON([H])C([H])([H])c3c([H])c([H])c(N([H])C(=O)N4C([H])([H])C([H])([H])C([H])([H])C([H])(n5nc(-c6c([H])c([H])c(Oc7c([H])c([H])c(F)c([H])c7F)c([H])c6[H])c(C(=O)N([H])[H])c5N([H])[H])C4([H])[H])c([H])c3F)c([H])c([H])c2C1([H])[H]

$$$$
80:0:0
     RDKit          3D

 90 98  0  0  1  0  0  0  0  0999 V2000
  -28.9480  -19.8630   20.5840 C   0  0  0  0  0  3  0  0  0  0  0  0
  -30.7390  -18.4430   18.9860 C   0  0  0  0  0  3  0  0  0  0  0  0
  -29.1020  -18.4140   20.6910 C   0  0  0  0  0  0  0  0  0  0  0  0
  -30.0050  -17.6130   19.8930 C   0  0  0  0  0  0  0  0  0  0  0  0
  -29.6570  -20.6870   19.6500 C   0  0  0  0  0  0  0  0  0  0  0  0
  -30.5640  -19.8830   18.8680 C   0  0  0  0  0  0  0  0  0  0  0  0
  -28.2310  -17.6960   21.7080 C   0  0  0  0  0  1  0  0  0  0  0  0
  -31.3080  -20.5190   17.9300 F   0  0  0  0  0  0  0  0  0  0  0  0
  -30.8020  -14.9870   19.5130 C   0  0  0  0  0  0  0  0  0  0  0  0
  -30.5860  -12.6890   18.4700 C   0  0  0  0  0  2  0  0  0  0  0  0
  -29.5070  -12.7300   17.3610 C   0  0  0  0  0  2  0  0  0  0  0  0
  -28.1020  -12.5010   17.9530 C   0  0  0  0  0  2  0  0  0  0  0  0
  -27.8520  -13.3530   19.2240 C   0  0  0  0  0  3  0  0  0  0  0  0
  -29.0350  -13.2720   20.2140 C   0  0  0  0  0  2  0  0  0  0  0  0
  -30.2370  -13.7150   19.4940 N   0  0  0  0  0  0  0  0  0  0  0  0
  -31.9260  -15.1280   19.0180 O   0  0  0  0  0  0  0  0  0  0  0  0
  -30.0270  -16.0780   19.9800 N   0  0  0  0  0  0  0  0  0  0  0  0
  -29.2240  -15.7210   20.4750 H   0  0  0  0  0  0  0  0  0  0  0  0
  -25.5760  -13.8950   20.2670 C   0  0  0  0  0  0  0  0  0  0  0  0
  -24.5600  -13.1020   20.7220 C   0  0  0  0  0  0  0  0  0  0  0  0
  -25.0080  -11.7540   20.5640 C   0  0  0  0  0  0  0  0  0  0  0  0
  -26.5780  -13.0310   19.8590 N   0  0  0  0  0  0  0  0  0  0  0  0
  -26.2530  -11.7340   20.1000 N   0  0  0  0  0  0  0  0  0  0  0  0
  -24.3010  -10.4840   20.7730 C   0  0  0  0  0  0  0  0  0  0  0  0
  -24.7470   -9.5370   21.7220 C   0  0  0  0  0  3  0  0  0  0  0  0
  -24.0380   -8.3320   21.9170 C   0  0  0  0  0  3  0  0  0  0  0  0
  -22.8690   -8.0650   21.1660 C   0  0  0  0  0  0  0  0  0  0  0  0
  -22.4420   -9.0010   20.2070 C   0  0  0  0  0  3  0  0  0  0  0  0
  -23.1520  -10.1980   20.0090 C   0  0  0  0  0  3  0  0  0  0  0  0
  -22.1310   -6.9100   21.2710 O   0  0  0  0  0  0  0  0  0  0  0  0
  -21.9600   -6.2730   22.4730 C   0  0  0  0  0  0  0  0  0  0  0  0
  -21.3540   -6.9120   23.5760 C   0  0  0  0  0  3  0  0  0  0  0  0
  -21.1350   -6.1970   24.7710 C   0  0  0  0  0  3  0  0  0  0  0  0
  -21.5110   -4.8440   24.8610 C   0  0  0  0  0  0  0  0  0  0  0  0
  -22.1090   -4.2040   23.7620 C   0  0  0  0  0  3  0  0  0  0  0  0
  -22.3300   -4.9160   22.5700 C   0  0  0  0  0  0  0  0  0  0  0  0
  -22.8870   -4.2880   21.5060 F   0  0  0  0  0  0  0  0  0  0  0  0
  -21.2940   -4.1550   26.0070 F   0  0  0  0  0  0  0  0  0  0  0  0
  -23.2080  -13.5640   21.1830 C   0  0  0  0  0  0  0  0  0  0  0  0
  -22.5920  -12.8330   22.1050 N   0  0  0  0  0  0  0  0  0  0  0  0
  -22.7110  -14.6070   20.7590 O   0  0  0  0  0  0  0  0  0  0  0  0
  -23.0090  -11.9900   22.4680 H   0  0  0  0  0  0  0  0  0  0  0  0
  -21.6900  -13.1250   22.4550 H   0  0  0  0  0  0  0  0  0  0  0  0
  -25.7250  -15.2730   20.1400 N   0  0  0  0  0  0  0  0  0  0  0  0
  -24.9680  -15.9120   20.3590 H   0  0  0  0  0  0  0  0  0  0  0  0
  -26.5010  -15.7250   19.6760 H   0  0  0  0  0  0  0  0  0  0  0  0
  -29.5170  -22.1230   19.3730 O   0  0  0  0  0  0  0  0  0  0  0  0
  -28.9280  -23.2950   20.1760 C   0  0  0  0  0  2  0  0  0  0  0  0
  -28.5340  -24.7690   19.4480 C   0  0  0  0  0  2  0  0  0  0  0  0
  -28.4880  -26.2160   20.0290 O   0  0  0  0  0  0  0  0  0  0  0  0
  -24.7490  -31.7690   23.0710 C   0  0  0  0  0  0  0  0  0  0  0  0
  -27.3920  -27.1530   19.9440 C   0  0  0  0  0  0  0  0  0  0  0  0
  -23.5600  -30.3740   21.4230 C   0  0  0  0  0  3  0  0  0  0  0  0
  -25.0250  -28.8500   19.9600 C   0  0  0  0  0  0  0  0  0  0  0  0
  -26.1070  -30.6900   21.2410 C   0  0  0  0  0  2  0  0  0  0  0  0
  -26.1990  -29.3090   20.5680 C   0  0  0  0  0  0  0  0  0  0  0  0
  -27.3780  -28.4750   20.5480 C   0  0  0  0  0  3  0  0  0  0  0  0
  -26.1880  -26.7970   19.2950 C   0  0  0  0  0  3  0  0  0  0  0  0
  -25.0310  -27.6070   19.3110 C   0  0  0  0  0  3  0  0  0  0  0  0
  -23.7810  -29.7210   20.0320 C   0  0  0  0  0  2  0  0  0  0  0  0
  -24.8250  -30.9650   21.9660 N   0  0  0  0  0  0  0  0  0  0  0  0
  -23.6620  -32.0260   23.6120 O   0  0  0  0  0  0  0  0  0  0  0  0
  -22.9100  -29.3390   22.3760 C   0  0  0  0  0  0  0  0  0  0  0  0
  -21.5830  -29.1530   22.2650 N   0  0  0  0  0  0  0  0  0  0  0  0
  -23.6020  -28.7090   23.1810 O   0  0  0  0  0  0  0  0  0  0  0  0
  -21.0810  -29.7130   21.5910 H   0  0  0  0  0  0  0  0  0  0  0  0
  -18.2230  -27.9110   22.8060 C   0  0  0  0  0  0  0  0  0  0  0  0
  -20.7840  -28.1920   23.0320 C   0  0  0  0  0  3  0  0  0  0  0  0
  -20.8890  -26.7720   22.4260 C   0  0  0  0  0  2  0  0  0  0  0  0
  -19.7710  -26.4600   21.4250 C   0  0  0  0  0  2  0  0  0  0  0  0
  -18.4000  -26.5780   22.0970 C   0  0  0  0  0  2  0  0  0  0  0  0
  -19.3430  -28.6760   23.2300 C   0  0  0  0  0  0  0  0  0  0  0  0
  -19.1220  -29.9220   23.8540 C   0  0  0  0  0  3  0  0  0  0  0  0
  -17.8150  -30.4040   24.0580 C   0  0  0  0  0  3  0  0  0  0  0  0
  -16.7100  -29.6380   23.6490 C   0  0  0  0  0  3  0  0  0  0  0  0
  -16.9160  -28.3920   23.0280 C   0  0  0  0  0  3  0  0  0  0  0  0
  -26.0200  -32.4200   23.6950 C   0  0  0  0  0  3  0  0  0  0  0  0
  -26.5830  -31.6190   24.9340 C   0  0  1  0  0  0  0  0  0  0  0  0
  -25.5150  -31.2990   26.0050 C   0  0  0  0  0  1  0  0  0  0  0  0
  -27.2110  -30.2800   24.4830 C   0  0  0  0  0  1  0  0  0  0  0  0
  -27.7120  -32.4290   25.6110 C   0  0  0  0  0  1  0  0  0  0  0  0
  -25.6710  -33.7940   24.0910 N   0  0  0  0  0  0  0  0  0  0  0  0
  -25.9420  -34.8900   23.3680 C   0  0  0  0  0  0  0  0  0  0  0  0
  -26.5790  -34.8520   22.3120 O   0  0  0  0  0  0  0  0  0  0  0  0
  -25.0990  -33.8950   24.9160 H   0  0  0  0  0  0  0  0  0  0  0  0
  -24.1380  -36.6320   23.1600 C   0  0  0  0  0  1  0  0  0  0  0  0
  -25.4270  -36.2420   23.9020 C   0  0  0  0  0  3  0  0  0  0  0  0
  -27.5570  -37.1800   24.6850 C   0  0  0  0  0  1  0  0  0  0  0  0
  -26.4160  -37.3360   23.7870 N   0  0  0  0  0  0  0  0  0  0  0  0
  -25.9820  -38.2350   23.9770 H   0  0  0  0  0  0  0  0  0  0  0  0
  1  3  1  0
  2  4  1  0
  3  7  1  0
  4 17  1  0
  4  3  2  0
  5  1  2  0
  6  2  2  0
  6  5  1  0
  8  6  1  0
  9 17  1  0
 10 15  1  0
 11 12  1  0
 11 10  1  0
 13 12  1  0
 13 22  1  0
 13 14  1  0
 15  9  1  0
 15 14  1  0
 16  9  2  0
 17 18  1  0
 19 20  2  0
 20 39  1  0
 21 20  1  0
 21 24  1  0
 22 23  1  0
 22 19  1  0
 23 21  2  0
 24 25  1  0
 25 26  2  0
 27 30  1  0
 27 26  1  0
 28 27  2  0
 29 28  1  0
 29 24  2  0
 30 31  1  0
 31 36  2  0
 31 32  1  0
 32 33  2  0
 33 34  1  0
 34 38  1  0
 35 34  2  0
 36 35  1  0
 37 36  1  0
 39 40  1  0
 40 43  1  0
 40 42  1  0
 41 39  2  0
 44 19  1  0
 44 45  1  0
 46 44  1  0
 47  5  1  0
 47 48  1  0
 49 50  1  0
 49 48  1  0
 51 62  2  0
 52 50  1  0
 52 57  1  0
 53 61  1  0
 53 63  1  0
 54 60  1  0
 54 56  1  0
 55 61  1  0
 56 55  1  0
 57 56  2  0
 58 59  1  0
 58 52  2  0
 59 54  2  0
 60 53  1  0
 61 51  1  0
 63 65  2  0
 64 63  1  0
 66 64  1  0
 67 76  2  0
 67 72  1  0
 68 64  1  0
 68 72  1  0
 69 68  1  0
 70 71  1  0
 70 69  1  0
 71 67  1  0
 72 73  2  0
 73 74  1  0
 75 74  2  0
 76 75  1  0
 77 51  1  0
 77 82  1  0
 77 78  1  0
 78 81  1  1
 78 79  1  0
 80 78  1  0
 82 85  1  0
 83 87  1  0
 83 82  1  0
 84 83  2  0
 87 86  1  0
 89 87  1  0
 89 90  1  0
 89 88  1  0
M  ISO  4   9 100  17 100  49 101  50 101
M  END
>  <TORSDO>  (80) 
F 19

>  <SCORE>  (80) 
-10.692

>  <name>  (80) 
80

>  <ligand_id>  (80) 
80

>  <original_smiles>  (80) 
[H]c1c([H])c([H])c2c(c1[H])C([H])([H])C([H])([H])C([H])([H])C2([H])N([H])C(=O)C1([H])N(C(=O)C([H])(N([H])C(=O)C([H])(N([H])C([H])([H])[H])C([H])([H])[H])C(C([H])([H])[H])(C([H])([H])[H])C([H])([H])[H])C([H])([H])c2c([H])c(OC([H])([H])C([H])([H])Oc3c([H])c(C([H])([H])[H])c(N([H])C(=O)N4C([H])([H])C([H])([H])C([H])([H])C([H])(n5nc(-c6c([H])c([H])c(Oc7c([H])c([H])c(F)c([H])c7F)c([H])c6[H])c(C(=O)N([H])[H])c5N([H])[H])C4([H])[H])c([H])c3F)c([H])c([H])c2C1([H])[H]

>  <smiles>  (80) 
[H]c1c([H])c([H])c2c(c1[H])C([H])([H])C([H])([H])C([H])([H])C2([H])N([H])C(=O)C1([H])N(C(=O)C([H])(N([H])C(=O)C([H])(N([H])C([H])([H])[H])C([H])([H])[H])C(C([H])([H])[H])(C([H])([H])[H])C([H])([H])[H])C([H])([H])c2c([H])c(OC([H])([H])C([H])([H])Oc3c([H])c(C([H])([H])[H])c(N([H])C(=O)N4C([H])([H])C([H])([H])C([H])([H])C([H])(n5nc(-c6c([H])c([H])c(Oc7c([H])c([H])c(F)c([H])c7F)c([H])c6[H])c(C(=O)N([H])[H])c5N([H])[H])C4([H])[H])c([H])c3F)c([H])c([H])c2C1([H])[H]

$$$$
81:0:0
     RDKit          3D

 97106  0  0  1  0  0  0  0  0999 V2000
  -31.7560  -23.0180   17.5920 C   0  0  0  0  0  2  0  0  0  0  0  0
  -31.1280  -23.7840   18.7670 C   0  0  0  0  0  2  0  0  0  0  0  0
  -29.5830  -22.0570   19.5640 C   0  0  0  0  0  2  0  0  0  0  0  0
  -32.4610  -21.7110   17.9990 C   0  0  0  0  0  2  0  0  0  0  0  0
  -30.2480  -20.8930   18.7930 C   0  0  0  0  0  2  0  0  0  0  0  0
  -29.7230  -23.3890   18.9500 N   0  0  0  0  0  0  0  0  0  0  0  0
  -31.7180  -20.9070   19.0040 N   0  0  1  0  0  4  0  0  0  0  0  0
  -31.8450  -21.3820   19.8820 H   0  0  0  0  0  0  0  0  0  0  0  0
  -32.3500  -19.5770   19.2000 C   0  0  0  0  0  2  0  0  0  0  0  0
  -31.7880  -19.3730   21.7030 C   0  0  0  0  0  3  0  0  0  0  0  0
  -31.3110  -18.6170   22.7930 C   0  0  0  0  0  3  0  0  0  0  0  0
  -31.4450  -17.4580   20.2400 C   0  0  0  0  0  3  0  0  0  0  0  0
  -31.8400  -18.7990   20.4120 C   0  0  0  0  0  0  0  0  0  0  0  0
  -31.0210  -16.6760   21.3420 C   0  0  0  0  0  0  0  0  0  0  0  0
  -30.9270  -17.2730   22.6140 C   0  0  0  0  0  0  0  0  0  0  0  0
  -30.4820  -16.5490   23.6700 F   0  0  0  0  0  0  0  0  0  0  0  0
  -31.1840  -14.3950   20.3950 C   0  0  0  0  0  0  0  0  0  0  0  0
  -30.7640  -12.3150   19.1500 C   0  0  0  0  0  2  0  0  0  0  0  0
  -29.8410  -12.6180   17.9530 C   0  0  0  0  0  2  0  0  0  0  0  0
  -28.3610  -12.5410   18.3760 C   0  0  0  0  0  2  0  0  0  0  0  0
  -28.0630  -13.3530   19.6650 C   0  0  0  0  0  3  0  0  0  0  0  0
  -29.0970  -13.0310   20.7670 C   0  0  0  0  0  2  0  0  0  0  0  0
  -30.4450  -13.2700   20.2210 N   0  0  0  0  0  0  0  0  0  0  0  0
  -32.2630  -14.5810   19.8230 O   0  0  0  0  0  0  0  0  0  0  0  0
  -30.6430  -15.3130   21.2090 N   0  0  0  0  0  0  0  0  0  0  0  0
  -29.8680  -15.0090   21.7800 H   0  0  0  0  0  0  0  0  0  0  0  0
  -25.6740  -14.0460   20.3350 C   0  0  0  0  0  0  0  0  0  0  0  0
  -24.5810  -13.3110   20.7060 C   0  0  0  0  0  0  0  0  0  0  0  0
  -25.0010  -11.9460   20.7000 C   0  0  0  0  0  0  0  0  0  0  0  0
  -26.6960  -13.1300   20.1290 N   0  0  0  0  0  0  0  0  0  0  0  0
  -26.2920  -11.8630   20.4040 N   0  0  0  0  0  0  0  0  0  0  0  0
  -24.2370  -10.7090   20.9050 C   0  0  0  0  0  0  0  0  0  0  0  0
  -24.6260   -9.7510   21.8670 C   0  0  0  0  0  3  0  0  0  0  0  0
  -23.8640   -8.5780   22.0590 C   0  0  0  0  0  3  0  0  0  0  0  0
  -22.6980   -8.3560   21.2880 C   0  0  0  0  0  0  0  0  0  0  0  0
  -22.3270   -9.3010   20.3160 C   0  0  0  0  0  3  0  0  0  0  0  0
  -23.0900  -10.4650   20.1230 C   0  0  0  0  0  3  0  0  0  0  0  0
  -21.9110   -7.2340   21.3870 O   0  0  0  0  0  0  0  0  0  0  0  0
  -21.8000   -6.5330   22.5610 C   0  0  0  0  0  0  0  0  0  0  0  0
  -21.3570   -7.1450   23.7550 C   0  0  0  0  0  3  0  0  0  0  0  0
  -21.1930   -6.3730   24.9220 C   0  0  0  0  0  3  0  0  0  0  0  0
  -21.4590   -4.9910   24.8960 C   0  0  0  0  0  0  0  0  0  0  0  0
  -21.8930   -4.3780   23.7070 C   0  0  0  0  0  3  0  0  0  0  0  0
  -22.0590   -5.1480   22.5420 C   0  0  0  0  0  0  0  0  0  0  0  0
  -22.4580   -4.5510   21.3930 F   0  0  0  0  0  0  0  0  0  0  0  0
  -21.2930   -4.2470   26.0140 F   0  0  0  0  0  0  0  0  0  0  0  0
  -23.1960  -13.8340   20.9610 C   0  0  0  0  0  0  0  0  0  0  0  0
  -22.4460  -13.1800   21.8420 N   0  0  0  0  0  0  0  0  0  0  0  0
  -22.7880  -14.8560   20.4130 O   0  0  0  0  0  0  0  0  0  0  0  0
  -22.7850  -12.3480   22.3020 H   0  0  0  0  0  0  0  0  0  0  0  0
  -21.5190  -13.5150   22.0580 H   0  0  0  0  0  0  0  0  0  0  0  0
  -25.8810  -15.4090   20.1370 N   0  0  0  0  0  0  0  0  0  0  0  0
  -25.1340  -16.0890   20.2410 H   0  0  0  0  0  0  0  0  0  0  0  0
  -26.7560  -15.8230   19.8410 H   0  0  0  0  0  0  0  0  0  0  0  0
  -29.0490  -24.3530   19.8350 C   0  0  0  0  0  2  0  0  0  0  0  0
  -28.7650  -25.7170   19.1710 C   0  0  0  0  0  2  0  0  0  0  0  0
  -28.4220  -26.6440   20.1960 O   0  0  0  0  0  0  0  0  0  0  0  0
  -24.5380  -31.7430   23.2120 C   0  0  0  0  0  0  0  0  0  0  0  0
  -27.2110  -27.2960   20.1740 C   0  0  0  0  0  0  0  0  0  0  0  0
  -23.3460  -30.3380   21.5610 C   0  0  0  0  0  3  0  0  0  0  0  0
  -24.8080  -28.7810   20.1680 C   0  0  0  0  0  0  0  0  0  0  0  0
  -25.8720  -30.6870   21.3940 C   0  0  0  0  0  2  0  0  0  0  0  0
  -25.9560  -29.3120   20.7660 C   0  0  0  0  0  0  0  0  0  0  0  0
  -27.1550  -28.5710   20.7750 C   0  0  0  0  0  3  0  0  0  0  0  0
  -26.0360  -26.7580   19.5980 C   0  0  0  0  0  3  0  0  0  0  0  0
  -24.8400  -27.5000   19.5890 C   0  0  0  0  0  3  0  0  0  0  0  0
  -23.5670  -29.6440   20.1900 C   0  0  0  0  0  2  0  0  0  0  0  0
  -24.6020  -30.9380   22.1140 N   0  0  0  0  0  0  0  0  0  0  0  0
  -23.4530  -32.0250   23.7370 O   0  0  0  0  0  0  0  0  0  0  0  0
  -22.6770  -29.3270   22.5190 C   0  0  0  0  0  0  0  0  0  0  0  0
  -21.3550  -29.1440   22.3660 N   0  0  0  0  0  0  0  0  0  0  0  0
  -23.3440  -28.7080   23.3520 O   0  0  0  0  0  0  0  0  0  0  0  0
  -20.8800  -29.6980   21.6670 H   0  0  0  0  0  0  0  0  0  0  0  0
  -17.9760  -27.9370   22.7760 C   0  0  0  0  0  0  0  0  0  0  0  0
  -20.5210  -28.2150   23.1260 C   0  0  0  0  0  3  0  0  0  0  0  0
  -20.6520  -26.7750   22.5800 C   0  0  0  0  0  2  0  0  0  0  0  0
  -19.5850  -26.4260   21.5380 C   0  0  0  0  0  2  0  0  0  0  0  0
  -18.1810  -26.5760   22.1320 C   0  0  0  0  0  2  0  0  0  0  0  0
  -19.0760  -28.7130   23.2280 C   0  0  0  0  0  0  0  0  0  0  0  0
  -18.8320  -29.9880   23.7840 C   0  0  0  0  0  3  0  0  0  0  0  0
  -17.5210  -30.4860   23.8960 C   0  0  0  0  0  3  0  0  0  0  0  0
  -16.4340  -29.7060   23.4640 C   0  0  0  0  0  3  0  0  0  0  0  0
  -16.6620  -28.4330   22.9100 C   0  0  0  0  0  3  0  0  0  0  0  0
  -25.8210  -32.3670   23.8460 C   0  0  0  0  0  3  0  0  0  0  0  0
  -26.3320  -31.5860   25.1190 C   0  0  1  0  0  0  0  0  0  0  0  0
  -25.2320  -31.3380   26.1780 C   0  0  0  0  0  1  0  0  0  0  0  0
  -26.9170  -30.2120   24.7160 C   0  0  0  0  0  1  0  0  0  0  0  0
  -27.4790  -32.3740   25.7950 C   0  0  0  0  0  1  0  0  0  0  0  0
  -25.5140  -33.7640   24.1810 N   0  0  0  0  0  0  0  0  0  0  0  0
  -25.8460  -34.8180   23.4240 C   0  0  0  0  0  0  0  0  0  0  0  0
  -26.5170  -34.7180   22.3930 O   0  0  0  0  0  0  0  0  0  0  0  0
  -24.9210  -33.9160   24.9830 H   0  0  0  0  0  0  0  0  0  0  0  0
  -24.1110  -36.6040   23.0800 C   0  0  0  0  0  1  0  0  0  0  0  0
  -25.3570  -36.2040   23.8850 C   0  0  0  0  0  3  0  0  0  0  0  0
  -27.4930  -37.0930   24.7050 C   0  0  0  0  0  1  0  0  0  0  0  0
  -26.3860  -37.2600   23.7680 N   0  0  0  0  0  0  0  0  0  0  0  0
  -25.9780  -38.1790   23.9190 H   0  0  0  0  0  0  0  0  0  0  0  0
  1  4  1  0
  1  2  1  0
  2  6  1  0
  4  7  1  0
  5  7  1  0
  5  3  1  0
  6  3  1  0
  6 55  1  0
  7  9  1  0
  7  8  1  1
  9 13  1  0
 10 11  1  0
 12 13  1  0
 12 14  2  0
 13 10  2  0
 14 15  1  0
 15 11  2  0
 15 16  1  0
 17 25  1  0
 18 23  1  0
 19 20  1  0
 19 18  1  0
 21 20  1  0
 21 30  1  0
 21 22  1  0
 23 17  1  0
 23 22  1  0
 24 17  2  0
 25 14  1  0
 25 26  1  0
 27 28  2  0
 28 47  1  0
 29 28  1  0
 29 32  1  0
 30 27  1  0
 30 31  1  0
 31 29  2  0
 32 33  1  0
 33 34  2  0
 35 38  1  0
 35 34  1  0
 36 35  2  0
 37 36  1  0
 37 32  2  0
 38 39  1  0
 39 40  1  0
 40 41  2  0
 42 41  1  0
 42 46  1  0
 43 42  2  0
 44 39  2  0
 44 43  1  0
 45 44  1  0
 47 48  1  0
 48 51  1  0
 48 50  1  0
 49 47  2  0
 52 53  1  0
 52 27  1  0
 54 52  1  0
 56 55  1  0
 56 57  1  0
 58 69  2  0
 59 57  1  0
 59 64  1  0
 60 68  1  0
 60 70  1  0
 61 67  1  0
 61 63  1  0
 62 68  1  0
 63 64  2  0
 63 62  1  0
 65 59  2  0
 66 65  1  0
 66 61  2  0
 67 60  1  0
 68 58  1  0
 70 72  2  0
 71 70  1  0
 73 71  1  0
 74 83  2  0
 74 79  1  0
 75 71  1  0
 75 79  1  0
 76 75  1  0
 77 78  1  0
 77 76  1  0
 78 74  1  0
 79 80  2  0
 80 81  1  0
 82 81  2  0
 83 82  1  0
 84 58  1  0
 84 89  1  0
 84 85  1  0
 85 88  1  1
 85 86  1  0
 87 85  1  0
 89 92  1  0
 90 94  1  0
 90 89  1  0
 91 90  2  0
 94 93  1  0
 96 94  1  0
 96 97  1  0
 96 95  1  0
M  ISO  4  17 100  25 100  56 101  57 101
M  END
>  <TORSDO>  (81) 
F 20

>  <SCORE>  (81) 
-12.936

>  <name>  (81) 
81

>  <ligand_id>  (81) 
81

>  <original_smiles>  (81) 
[H]c1c([H])c([H])c2c(c1[H])C([H])([H])C([H])([H])C([H])([H])C2([H])N([H])C(=O)C1([H])N(C(=O)C([H])(N([H])C(=O)C([H])(N([H])C([H])([H])[H])C([H])([H])[H])C(C([H])([H])[H])(C([H])([H])[H])C([H])([H])[H])C([H])([H])c2c([H])c(OC([H])([H])C([H])([H])N3C([H])([H])C([H])([H])C([H])([H])[N+]([H])(C([H])([H])c4c([H])c([H])c(F)c(N([H])C(=O)N5C([H])([H])C([H])([H])C([H])([H])C([H])(n6nc(-c7c([H])c([H])c(Oc8c([H])c([H])c(F)c([H])c8F)c([H])c7[H])c(C(=O)N([H])[H])c6N([H])[H])C5([H])[H])c4[H])C([H])([H])C3([H])[H])c([H])c([H])c2C1([H])[H]

>  <smiles>  (81) 
[H]c1c([H])c([H])c2c(c1[H])C([H])([H])C([H])([H])C([H])([H])C2([H])N([H])C(=O)C1([H])N(C(=O)C([H])(N([H])C(=O)C([H])(N([H])C([H])([H])[H])C([H])([H])[H])C(C([H])([H])[H])(C([H])([H])[H])C([H])([H])[H])C([H])([H])c2c([H])c(OC([H])([H])C([H])([H])N3C([H])([H])C([H])([H])C([H])([H])[N+]([H])(C([H])([H])c4c([H])c([H])c(F)c(N([H])C(=O)N5C([H])([H])C([H])([H])C([H])([H])C([H])(n6nc(-c7c([H])c([H])c(Oc8c([H])c([H])c(F)c([H])c8F)c([H])c7[H])c(C(=O)N([H])[H])c6N([H])[H])C5([H])[H])c4[H])C([H])([H])C3([H])[H])c([H])c([H])c2C1([H])[H]

$$$$
82:0:0
     RDKit          3D

105115  0  0  1  0  0  0  0  0999 V2000
  -26.2100  -16.8960   20.6600 C   0  0  0  0  0  0  0  0  0  0  0  0
  -25.6250  -15.5910   20.4180 N   0  0  0  0  0  0  0  0  0  0  0  0
  -26.0250  -17.4090   21.7660 O   0  0  0  0  0  0  0  0  0  0  0  0
  -25.8770  -15.2810   19.4920 H   0  0  0  0  0  0  0  0  0  0  0  0
  -28.1040  -16.9100   18.9610 C   0  0  0  0  0  2  0  0  0  0  0  0
  -29.1920  -18.9820   18.7760 C   0  0  0  0  0  2  0  0  0  0  0  0
  -27.0220  -17.8560   19.5030 C   0  0  0  0  0  3  0  0  0  0  0  0
  -27.8610  -19.4130   19.4680 C   0  0  0  0  0  3  0  0  0  0  0  0
  -28.9620  -17.7050   18.0940 N   0  0  0  0  0  4  0  0  0  0  0  0
  -28.4850  -17.8580   17.2220 H   0  0  0  0  0  0  0  0  0  0  0  0
  -29.8270  -17.2280   17.8990 H   0  0  0  0  0  0  0  0  0  0  0  0
  -27.5380  -20.8080   18.7420 N   0  0  0  0  0  0  0  0  0  0  0  0
  -27.0530  -20.6050   17.8700 H   0  0  0  0  0  0  0  0  0  0  0  0
  -28.5450  -22.0290   18.4540 C   0  0  0  0  0  2  0  0  0  0  0  0
  -28.3660  -23.7090   18.8400 C   0  0  0  0  0  2  0  0  0  0  0  0
  -29.0220  -25.0650   18.3020 O   0  0  0  0  0  0  0  0  0  0  0  0
  -26.4640  -29.5840   23.3550 C   0  0  0  0  0  0  0  0  0  0  0  0
  -28.4090  -26.3260   18.5990 C   0  0  0  0  0  0  0  0  0  0  0  0
  -25.2290  -29.3390   21.2380 C   0  0  0  0  0  3  0  0  0  0  0  0
  -26.5580  -28.4220   19.2410 C   0  0  0  0  0  0  0  0  0  0  0  0
  -27.7970  -29.1940   21.2550 C   0  0  0  0  0  2  0  0  0  0  0  0
  -27.7090  -28.2720   20.0310 C   0  0  0  0  0  0  0  0  0  0  0  0
  -28.6590  -27.2370   19.6980 C   0  0  0  0  0  3  0  0  0  0  0  0
  -27.3380  -26.6510   17.7570 C   0  0  0  0  0  3  0  0  0  0  0  0
  -26.4080  -27.6540   18.0800 C   0  0  0  0  0  3  0  0  0  0  0  0
  -25.4810  -29.3910   19.7060 C   0  0  0  0  0  2  0  0  0  0  0  0
  -26.5150  -29.3680   22.0070 N   0  0  0  0  0  0  0  0  0  0  0  0
  -25.3870  -29.7620   23.9450 O   0  0  0  0  0  0  0  0  0  0  0  0
  -24.3500  -28.1090   21.5840 C   0  0  0  0  0  0  0  0  0  0  0  0
  -23.0230  -28.2340   21.4150 N   0  0  0  0  0  0  0  0  0  0  0  0
  -24.8680  -27.0630   21.9900 O   0  0  0  0  0  0  0  0  0  0  0  0
  -22.6670  -29.1240   21.0920 H   0  0  0  0  0  0  0  0  0  0  0  0
  -19.4730  -27.5270   21.4000 C   0  0  0  0  0  0  0  0  0  0  0  0
  -22.0250  -27.1900   21.6520 C   0  0  0  0  0  3  0  0  0  0  0  0
  -21.9130  -26.2370   20.4410 C   0  0  0  0  0  2  0  0  0  0  0  0
  -20.8230  -26.6490   19.4450 C   0  0  0  0  0  2  0  0  0  0  0  0
  -19.4550  -26.6860   20.1350 C   0  0  0  0  0  2  0  0  0  0  0  0
  -20.6820  -27.7740   22.1050 C   0  0  0  0  0  0  0  0  0  0  0  0
  -20.6490  -28.5900   23.2570 C   0  0  0  0  0  3  0  0  0  0  0  0
  -19.4400  -29.1500   23.7080 C   0  0  0  0  0  3  0  0  0  0  0  0
  -18.2440  -28.8900   23.0170 C   0  0  0  0  0  3  0  0  0  0  0  0
  -18.2610  -28.0760   21.8690 C   0  0  0  0  0  3  0  0  0  0  0  0
  -27.7620  -29.6450   24.2170 C   0  0  0  0  0  3  0  0  0  0  0  0
  -27.5020  -30.5450   25.3500 N   0  0  0  0  0  0  0  0  0  0  0  0
  -27.9740  -31.7940   25.4610 C   0  0  0  0  0  0  0  0  0  0  0  0
  -28.7480  -32.2910   24.6390 O   0  0  0  0  0  0  0  0  0  0  0  0
  -26.8350  -30.2230   26.0380 H   0  0  0  0  0  0  0  0  0  0  0  0
  -26.4270  -33.6160   26.2520 C   0  0  0  0  0  1  0  0  0  0  0  0
  -27.5180  -32.6220   26.6800 C   0  0  0  0  0  3  0  0  0  0  0  0
  -29.5650  -32.4720   28.0270 C   0  0  0  0  0  1  0  0  0  0  0  0
  -28.6220  -33.3510   27.3430 N   0  0  0  0  0  0  0  0  0  0  0  0
  -28.2570  -34.0120   28.0220 H   0  0  0  0  0  0  0  0  0  0  0  0
  -28.2320  -28.2300   24.7390 C   0  0  1  0  0  0  0  0  0  0  0  0
  -27.1160  -27.4310   25.4490 C   0  0  0  0  0  1  0  0  0  0  0  0
  -28.7690  -27.3570   23.5810 C   0  0  0  0  0  1  0  0  0  0  0  0
  -29.3990  -28.4000   25.7410 C   0  0  0  0  0  1  0  0  0  0  0  0
  -24.4740  -14.5800   20.9720 C   0  0  0  0  0  2  0  0  0  0  0  0
  -23.6260  -11.8930   21.7590 C   0  0  0  0  0  3  0  0  0  0  0  0
  -26.1390  -13.1970   22.0670 C   0  0  0  0  0  2  0  0  0  0  0  0
  -25.2450   -9.8760   20.4020 C   0  0  0  0  0  2  0  0  0  0  0  0
  -24.6280  -13.1800   21.8990 C   0  0  0  0  0  3  0  0  0  0  0  0
  -23.7430  -10.4260   20.9720 C   0  0  0  0  0  0  0  0  0  0  0  0
  -27.0530  -12.1540   21.4240 C   0  0  1  0  0  0  0  0  0  0  0  0
  -30.1350  -12.6320   21.2560 C   0  0  0  0  0  0  0  0  0  0  0  0
  -31.6320  -10.5520   21.5050 C   0  0  0  0  0  2  0  0  0  0  0  0
  -31.2690   -9.5170   20.3630 C   0  0  0  0  0  2  0  0  0  0  0  0
  -29.7770   -9.0830   20.1870 C   0  0  0  0  0  2  0  0  0  0  0  0
  -28.9740  -10.2870   20.4470 C   0  0  0  0  0  3  0  0  0  0  0  0
  -29.4100  -10.6410   21.9640 C   0  0  0  0  0  2  0  0  0  0  0  0
  -30.4970  -11.4570   21.7850 N   0  0  0  0  0  0  0  0  0  0  0  0
  -31.1790  -13.2530   20.8520 O   0  0  0  0  0  0  0  0  0  0  0  0
  -28.6080  -12.8590   21.1670 N   0  0  0  0  0  0  0  0  0  0  0  0
  -28.4990  -13.8090   20.8370 H   0  0  0  0  0  0  0  0  0  0  0  0
  -26.6680  -11.5590   19.5980 C   0  0  2  0  0  0  0  0  0  0  0  0
  -25.3800  -11.9430   20.4750 C   0  0  0  0  0  3  0  0  0  0  0  0
  -25.7700  -10.0740   22.2790 C   0  0  0  0  0  3  0  0  0  0  0  0
  -27.5580  -10.2410   20.2530 N   0  0  0  0  0  0  0  0  0  0  0  0
  -27.0670   -9.4440   21.6000 N   0  0  0  0  0  2  0  0  0  0  0  0
  -25.0400   -8.6510   22.5990 C   0  0  0  0  0  0  0  0  0  0  0  0
  -24.2090   -8.5230   23.6870 C   0  0  0  0  0  3  0  0  0  0  0  0
  -23.3780   -7.4020   23.8610 C   0  0  0  0  0  3  0  0  0  0  0  0
  -23.2130   -6.4030   22.8700 C   0  0  0  0  0  0  0  0  0  0  0  0
  -24.0670   -6.4340   21.7830 C   0  0  0  0  0  3  0  0  0  0  0  0
  -25.0540   -7.4280   21.7710 C   0  0  0  0  0  3  0  0  0  0  0  0
  -22.3170   -5.3740   22.9520 O   0  0  0  0  0  0  0  0  0  0  0  0
  -21.2000   -5.5370   23.7250 C   0  0  0  0  0  0  0  0  0  0  0  0
  -20.2290   -6.5170   23.4080 C   0  0  0  0  0  3  0  0  0  0  0  0
  -19.0820   -6.6470   24.2090 C   0  0  0  0  0  3  0  0  0  0  0  0
  -18.9120   -5.8170   25.3290 C   0  0  0  0  0  0  0  0  0  0  0  0
  -19.8830   -4.8510   25.6530 C   0  0  0  0  0  3  0  0  0  0  0  0
  -21.0230   -4.7060   24.8450 C   0  0  0  0  0  0  0  0  0  0  0  0
  -21.9450   -3.7570   25.1410 F   0  0  0  0  0  0  0  0  0  0  0  0
  -17.8020   -5.9410   26.0920 F   0  0  0  0  0  0  0  0  0  0  0  0
  -24.0920  -12.2730   19.5600 C   0  0  0  0  0  0  0  0  0  0  0  0
  -22.8870  -12.5350   20.0710 N   0  0  0  0  0  0  0  0  0  0  0  0
  -24.0280  -11.9140   18.4080 O   0  0  0  0  0  0  0  0  0  0  0  0
  -22.7860  -12.7110   21.0550 H   0  0  0  0  0  0  0  0  0  0  0  0
  -22.0730  -12.5210   19.4700 H   0  0  0  0  0  0  0  0  0  0  0  0
  -27.1890  -12.4720   18.7370 N   0  0  0  0  0  0  0  0  0  0  0  0
  -26.6150  -13.1720   18.2900 H   0  0  0  0  0  0  0  0  0  0  0  0
  -28.0730  -12.3380   18.2630 H   0  0  0  0  0  0  0  0  0  0  0  0
  -22.4560   -9.6170   20.6930 C   0  0  1  0  0  0  0  0  0  0  0  0
  -21.7000   -9.5490   21.7890 F   0  0  0  0  0  0  0  0  0  0  0  0
  -21.6750  -10.1280   19.7460 F   0  0  0  0  0  0  0  0  0  0  0  0
  -22.7660   -8.3860   20.2870 F   0  0  0  0  0  0  0  0  0  0  0  0
  1  3  2  0
  2  1  1  0
  2 57  1  0
  4  2  1  0
  5  7  1  0
  6  8  1  0
  7  1  1  0
  8 12  1  0
  8  7  1  0
  9  6  1  0
  9  5  1  0
 10  9  1  0
 11  9  1  0
 13 12  1  0
 14 12  1  0
 14 15  1  0
 16 18  1  0
 16 15  1  0
 17 28  2  0
 18 23  1  0
 19 29  1  0
 19 27  1  0
 20 26  1  0
 20 22  1  0
 21 27  1  0
 22 21  1  0
 23 22  2  0
 24 25  1  0
 24 18  2  0
 25 20  2  0
 26 19  1  0
 27 17  1  0
 29 31  2  0
 30 29  1  0
 32 30  1  0
 33 42  2  0
 33 38  1  0
 34 30  1  0
 34 38  1  0
 35 34  1  0
 36 37  1  0
 36 35  1  0
 37 33  1  0
 38 39  2  0
 39 40  1  0
 41 40  2  0
 42 41  1  0
 43 17  1  0
 43 53  1  0
 43 44  1  0
 44 45  1  0
 44 47  1  0
 45 49  1  0
 46 45  2  0
 49 48  1  0
 49 51  1  0
 51 52  1  0
 51 50  1  0
 53 54  1  1
 53 56  1  0
 55 53  1  0
 58 61  1  0
 60 62  1  0
 60 76  1  0
 61 57  1  0
 61 59  1  0
 62 58  2  0
 63 59  1  6
 64 70  1  0
 65 70  1  0
 66 65  1  0
 67 66  1  0
 68 67  1  0
 68 69  1  0
 70 69  1  0
 71 64  2  0
 72 64  1  0
 72 63  1  0
 73 72  1  0
 74 99  1  1
 74 77  1  0
 74 75  1  0
 74 63  1  0
 75 94  1  0
 75 63  1  0
 76 79  1  0
 77 68  1  0
 77 78  1  0
 78 76  1  0
 79 80  1  0
 80 81  2  0
 82 85  1  0
 82 81  1  0
 83 82  2  0
 84 83  1  0
 84 79  2  0
 85 86  1  0
 86 91  1  0
 87 86  2  0
 87 88  1  0
 88 89  2  0
 89 90  1  0
 89 93  1  0
 91 92  1  0
 91 90  2  0
 94 95  1  0
 95 97  1  0
 96 94  2  0
 98 95  1  0
100 99  1  0
101 99  1  0
102 62  1  0
102103  1  1
104102  1  0
105102  1  0
M  ISO  4  15 101  16 101  64 100  72 100
M  END
>  <TORSDO>  (82) 
F 23

>  <SCORE>  (82) 
-0.896

>  <name>  (82) 
82

>  <ligand_id>  (82) 
82

>  <original_smiles>  (82) 
[H]c1c([H])c([H])c2c(c1[H])C([H])([H])C([H])([H])C([H])([H])C2([H])N([H])C(=O)C1([H])N(C(=O)C([H])(N([H])C(=O)C([H])(N([H])C([H])([H])[H])C([H])([H])[H])C(C([H])([H])[H])(C([H])([H])[H])C([H])([H])[H])C([H])([H])c2c([H])c(OC([H])([H])C([H])([H])N([H])C3([H])C([H])(C(=O)N([H])C([H])([H])c4c([H])c(N([H])C(=O)N5C([H])([H])C([H])([H])C([H])([H])C([H])(n6nc(-c7c([H])c([H])c(Oc8c([H])c([H])c(F)c([H])c8F)c([H])c7[H])c(C(=O)N([H])[H])c6N([H])[H])C5([H])[H])c([H])c(C(F)(F)F)c4[H])C([H])([H])[N+]([H])([H])C3([H])[H])c([H])c([H])c2C1([H])[H]

>  <smiles>  (82) 
[H]c1c([H])c([H])c2c(c1[H])C([H])([H])C([H])([H])C([H])([H])C2([H])N([H])C(=O)C1([H])N(C(=O)C([H])(N([H])C(=O)C([H])(N([H])C([H])([H])[H])C([H])([H])[H])C(C([H])([H])[H])(C([H])([H])[H])C([H])([H])[H])C([H])([H])c2c([H])c(OC([H])([H])C([H])([H])N([H])C3([H])C([H])(C(=O)N([H])C([H])([H])c4c([H])c(N([H])C(=O)N5C([H])([H])C([H])([H])C([H])([H])C([H])(n6nc(-c7c([H])c([H])c(Oc8c([H])c([H])c(F)c([H])c8F)c([H])c7[H])c(C(=O)N([H])[H])c6N([H])[H])C5([H])[H])c([H])c(C(F)(F)F)c4[H])C([H])([H])[N+]([H])([H])C3([H])[H])c([H])c([H])c2C1([H])[H]

$$$$
83:0:0
     RDKit          3D

 91 99  0  0  1  0  0  0  0  0999 V2000
  -28.7930  -20.5320   19.3670 O   0  0  0  0  0  0  0  0  0  0  0  0
  -29.4180  -16.8900   19.2440 C   0  0  0  0  0  3  0  0  0  0  0  0
  -29.0540  -18.2060   18.8880 C   0  0  0  0  0  3  0  0  0  0  0  0
  -29.5550  -18.9580   21.1280 C   0  0  0  0  0  3  0  0  0  0  0  0
  -29.8900  -16.5740   20.5460 C   0  0  0  0  0  0  0  0  0  0  0  0
  -29.1320  -19.2640   19.8140 C   0  0  0  0  0  0  0  0  0  0  0  0
  -29.9260  -17.6440   21.4900 C   0  0  0  0  0  0  0  0  0  0  0  0
  -30.3300  -17.4570   22.7700 F   0  0  0  0  0  0  0  0  0  0  0  0
  -30.7400  -14.3490   19.9310 C   0  0  0  0  0  0  0  0  0  0  0  0
  -30.2150  -12.3280   18.6010 C   0  0  0  0  0  2  0  0  0  0  0  0
  -29.1470  -12.6300   17.5310 C   0  0  0  0  0  2  0  0  0  0  0  0
  -27.7280  -12.4880   18.1170 C   0  0  0  0  0  2  0  0  0  0  0  0
  -27.5600  -13.2510   19.4560 C   0  0  0  0  0  3  0  0  0  0  0  0
  -28.7140  -12.9150   20.4200 C   0  0  0  0  0  2  0  0  0  0  0  0
  -29.9860  -13.2290   19.7430 N   0  0  0  0  0  0  0  0  0  0  0  0
  -31.7390  -14.6030   19.2470 O   0  0  0  0  0  0  0  0  0  0  0  0
  -30.6220  -14.8450   22.2640 C   0  0  0  0  0  1  0  0  0  0  0  0
  -30.3050  -15.2190   20.8770 N   0  0  0  0  0  0  0  0  0  0  0  0
  -25.2770  -13.8800   20.4650 C   0  0  0  0  0  0  0  0  0  0  0  0
  -24.2310  -13.1150   20.9040 C   0  0  0  0  0  0  0  0  0  0  0  0
  -24.6400  -11.7560   20.7440 C   0  0  0  0  0  0  0  0  0  0  0  0
  -26.2590  -12.9870   20.0650 N   0  0  0  0  0  0  0  0  0  0  0  0
  -25.8850  -11.7010   20.2890 N   0  0  0  0  0  0  0  0  0  0  0  0
  -23.8980  -10.5040   20.9400 C   0  0  0  0  0  0  0  0  0  0  0  0
  -24.3900   -9.4780   21.7780 C   0  0  0  0  0  3  0  0  0  0  0  0
  -23.6510   -8.2910   21.9650 C   0  0  0  0  0  3  0  0  0  0  0  0
  -22.4050   -8.1200   21.3140 C   0  0  0  0  0  0  0  0  0  0  0  0
  -21.9300   -9.1340   20.4640 C   0  0  0  0  0  3  0  0  0  0  0  0
  -22.6710  -10.3140   20.2750 C   0  0  0  0  0  3  0  0  0  0  0  0
  -21.6300   -6.9900   21.4160 O   0  0  0  0  0  0  0  0  0  0  0  0
  -21.6530   -6.2010   22.5380 C   0  0  0  0  0  0  0  0  0  0  0  0
  -21.3580   -6.7180   23.8180 C   0  0  0  0  0  3  0  0  0  0  0  0
  -21.3250   -5.8570   24.9330 C   0  0  0  0  0  3  0  0  0  0  0  0
  -21.5740   -4.4820   24.7700 C   0  0  0  0  0  0  0  0  0  0  0  0
  -21.8620   -3.9640   23.4950 C   0  0  0  0  0  3  0  0  0  0  0  0
  -21.8980   -4.8220   22.3810 C   0  0  0  0  0  0  0  0  0  0  0  0
  -22.1560   -4.3160   21.1510 F   0  0  0  0  0  0  0  0  0  0  0  0
  -21.5340   -3.6530   25.8400 F   0  0  0  0  0  0  0  0  0  0  0  0
  -22.8890  -13.6110   21.3630 C   0  0  0  0  0  0  0  0  0  0  0  0
  -22.2470  -12.8890   22.2740 N   0  0  0  0  0  0  0  0  0  0  0  0
  -22.4230  -14.6720   20.9470 O   0  0  0  0  0  0  0  0  0  0  0  0
  -22.6390  -12.0290   22.6280 H   0  0  0  0  0  0  0  0  0  0  0  0
  -21.3500  -13.1990   22.6200 H   0  0  0  0  0  0  0  0  0  0  0  0
  -25.4700  -15.2540   20.3510 N   0  0  0  0  0  0  0  0  0  0  0  0
  -24.7490  -15.9260   20.5900 H   0  0  0  0  0  0  0  0  0  0  0  0
  -26.3000  -15.6840   19.9640 H   0  0  0  0  0  0  0  0  0  0  0  0
  -28.7980  -21.6330   20.2830 C   0  0  0  0  0  2  0  0  0  0  0  0
  -28.6830  -22.9520   19.4860 C   0  0  0  0  0  2  0  0  0  0  0  0
  -28.5600  -24.2310   20.3530 C   0  0  0  0  0  2  0  0  0  0  0  0
  -28.7750  -25.5360   19.5490 C   0  0  0  0  0  2  0  0  0  0  0  0
  -28.5640  -26.7200   20.3340 O   0  0  0  0  0  0  0  0  0  0  0  0
  -24.6100  -31.8780   23.2490 C   0  0  0  0  0  0  0  0  0  0  0  0
  -27.3550  -27.3910   20.2990 C   0  0  0  0  0  0  0  0  0  0  0  0
  -23.4490  -30.4360   21.6080 C   0  0  0  0  0  3  0  0  0  0  0  0
  -24.9410  -28.8800   20.2470 C   0  0  0  0  0  0  0  0  0  0  0  0
  -25.9750  -30.8070   21.4570 C   0  0  0  0  0  2  0  0  0  0  0  0
  -26.0820  -29.4230   20.8480 C   0  0  0  0  0  0  0  0  0  0  0  0
  -27.2870  -28.6830   20.8750 C   0  0  0  0  0  3  0  0  0  0  0  0
  -26.1820  -26.8540   19.7160 C   0  0  0  0  0  3  0  0  0  0  0  0
  -24.9860  -27.5930   19.6830 C   0  0  0  0  0  3  0  0  0  0  0  0
  -23.6920  -29.7320   20.2470 C   0  0  0  0  0  2  0  0  0  0  0  0
  -24.6960  -31.0570   22.1630 N   0  0  0  0  0  0  0  0  0  0  0  0
  -23.5160  -32.1530   23.7590 O   0  0  0  0  0  0  0  0  0  0  0  0
  -22.7820  -29.4290   22.5730 C   0  0  0  0  0  0  0  0  0  0  0  0
  -21.4610  -29.2420   22.4250 N   0  0  0  0  0  0  0  0  0  0  0  0
  -23.4520  -28.8190   23.4100 O   0  0  0  0  0  0  0  0  0  0  0  0
  -20.9810  -29.7880   21.7230 H   0  0  0  0  0  0  0  0  0  0  0  0
  -18.0820  -28.0480   22.8760 C   0  0  0  0  0  0  0  0  0  0  0  0
  -20.6320  -28.3140   23.1940 C   0  0  0  0  0  3  0  0  0  0  0  0
  -20.7490  -26.8750   22.6400 C   0  0  0  0  0  2  0  0  0  0  0  0
  -19.6660  -26.5350   21.6100 C   0  0  0  0  0  2  0  0  0  0  0  0
  -18.2730  -26.6880   22.2250 C   0  0  0  0  0  2  0  0  0  0  0  0
  -19.1910  -28.8180   23.3160 C   0  0  0  0  0  0  0  0  0  0  0  0
  -18.9590  -30.0910   23.8810 C   0  0  0  0  0  3  0  0  0  0  0  0
  -17.6510  -30.5930   24.0150 C   0  0  0  0  0  3  0  0  0  0  0  0
  -16.5570  -29.8190   23.5930 C   0  0  0  0  0  3  0  0  0  0  0  0
  -16.7720  -28.5490   23.0280 C   0  0  0  0  0  3  0  0  0  0  0  0
  -25.8780  -32.5280   23.8850 C   0  0  0  0  0  3  0  0  0  0  0  0
  -25.5520  -33.9290   24.1850 N   0  0  0  0  0  0  0  0  0  0  0  0
  -25.8890  -34.9710   23.4140 C   0  0  0  0  0  0  0  0  0  0  0  0
  -26.5790  -34.8550   22.3970 O   0  0  0  0  0  0  0  0  0  0  0  0
  -24.9430  -34.0940   24.9730 H   0  0  0  0  0  0  0  0  0  0  0  0
  -24.1490  -36.7380   22.9980 C   0  0  0  0  0  1  0  0  0  0  0  0
  -25.3800  -36.3610   23.8380 C   0  0  0  0  0  3  0  0  0  0  0  0
  -27.4970  -37.2750   24.6810 C   0  0  0  0  0  1  0  0  0  0  0  0
  -26.4010  -37.4250   23.7280 N   0  0  0  0  0  0  0  0  0  0  0  0
  -25.9830  -38.3390   23.8710 H   0  0  0  0  0  0  0  0  0  0  0  0
  -26.3770  -31.7800   25.1820 C   0  0  1  0  0  0  0  0  0  0  0  0
  -25.2650  -31.5430   26.2290 C   0  0  0  0  0  1  0  0  0  0  0  0
  -26.9820  -30.4040   24.8170 C   0  0  0  0  0  1  0  0  0  0  0  0
  -27.5040  -32.5930   25.8580 C   0  0  0  0  0  1  0  0  0  0  0  0
  1  6  1  0
  1 47  1  0
  2  5  1  0
  3  2  2  0
  3  6  1  0
  4  7  1  0
  5 18  1  0
  5  7  2  0
  6  4  2  0
  7  8  1  0
  9 18  1  0
 10 15  1  0
 11 12  1  0
 11 10  1  0
 13 12  1  0
 13 22  1  0
 13 14  1  0
 15  9  1  0
 15 14  1  0
 16  9  2  0
 18 17  1  0
 19 20  2  0
 20 39  1  0
 21 20  1  0
 21 24  1  0
 22 23  1  0
 22 19  1  0
 23 21  2  0
 24 25  1  0
 25 26  2  0
 27 30  1  0
 27 26  1  0
 28 27  2  0
 29 28  1  0
 29 24  2  0
 30 31  1  0
 31 32  1  0
 32 33  2  0
 34 33  1  0
 34 38  1  0
 35 34  2  0
 36 31  2  0
 36 35  1  0
 37 36  1  0
 39 40  1  0
 40 43  1  0
 40 42  1  0
 41 39  2  0
 44 19  1  0
 44 45  1  0
 46 44  1  0
 48 47  1  0
 48 49  1  0
 50 51  1  0
 50 49  1  0
 52 63  2  0
 53 51  1  0
 53 58  1  0
 54 62  1  0
 54 64  1  0
 55 61  1  0
 55 57  1  0
 56 62  1  0
 57 58  2  0
 57 56  1  0
 59 53  2  0
 60 59  1  0
 60 55  2  0
 61 54  1  0
 62 52  1  0
 64 66  2  0
 65 64  1  0
 67 65  1  0
 68 77  2  0
 68 73  1  0
 69 65  1  0
 69 73  1  0
 70 69  1  0
 71 72  1  0
 71 70  1  0
 72 68  1  0
 73 74  2  0
 74 75  1  0
 76 75  2  0
 77 76  1  0
 78 52  1  0
 78 79  1  0
 78 88  1  0
 79 82  1  0
 80 84  1  0
 80 79  1  0
 81 80  2  0
 84 83  1  0
 86 84  1  0
 86 87  1  0
 86 85  1  0
 88 91  1  1
 88 89  1  0
 90 88  1  0
M  ISO  4   9 100  18 100  50 101  51 101
M  END
>  <TORSDO>  (83) 
F 21

>  <SCORE>  (83) 
-12.065

>  <name>  (83) 
83

>  <ligand_id>  (83) 
83

>  <original_smiles>  (83) 
[H]c1c([H])c([H])c2c(c1[H])C([H])([H])C([H])([H])C([H])([H])C2([H])N([H])C(=O)C1([H])N(C(=O)C([H])(N([H])C(=O)C([H])(N([H])C([H])([H])[H])C([H])([H])[H])C(C([H])([H])[H])(C([H])([H])[H])C([H])([H])[H])C([H])([H])c2c([H])c(OC([H])([H])C([H])([H])C([H])([H])C([H])([H])Oc3c([H])c([H])c(N(C(=O)N4C([H])([H])C([H])([H])C([H])([H])C([H])(n5nc(-c6c([H])c([H])c(Oc7c([H])c([H])c(F)c([H])c7F)c([H])c6[H])c(C(=O)N([H])[H])c5N([H])[H])C4([H])[H])C([H])([H])[H])c(F)c3[H])c([H])c([H])c2C1([H])[H]

>  <smiles>  (83) 
[H]c1c([H])c([H])c2c(c1[H])C([H])([H])C([H])([H])C([H])([H])C2([H])N([H])C(=O)C1([H])N(C(=O)C([H])(N([H])C(=O)C([H])(N([H])C([H])([H])[H])C([H])([H])[H])C(C([H])([H])[H])(C([H])([H])[H])C([H])([H])[H])C([H])([H])c2c([H])c(OC([H])([H])C([H])([H])C([H])([H])C([H])([H])Oc3c([H])c([H])c(N(C(=O)N4C([H])([H])C([H])([H])C([H])([H])C([H])(n5nc(-c6c([H])c([H])c(Oc7c([H])c([H])c(F)c([H])c7F)c([H])c6[H])c(C(=O)N([H])[H])c5N([H])[H])C4([H])[H])C([H])([H])[H])c(F)c3[H])c([H])c([H])c2C1([H])[H]

$$$$
84:0:0
     RDKit          3D

 93102  0  0  1  0  0  0  0  0999 V2000
  -32.2880  -18.2580   21.8490 C   0  0  0  0  0  3  0  0  0  0  0  0
  -31.6920  -20.5740   21.3580 C   0  0  0  0  0  3  0  0  0  0  0  0
  -31.9500  -16.8930   21.8450 C   0  0  0  0  0  3  0  0  0  0  0  0
  -30.7530  -21.5240   20.9160 C   0  0  0  0  0  3  0  0  0  0  0  0
  -29.6470  -17.4620   21.2440 C   0  0  0  0  0  3  0  0  0  0  0  0
  -29.0540  -19.7860   20.7700 C   0  0  0  0  0  3  0  0  0  0  0  0
  -31.3280  -19.2200   21.4770 C   0  0  0  0  0  0  0  0  0  0  0  0
  -30.0010  -18.8250   21.1850 C   0  0  0  0  0  0  0  0  0  0  0  0
  -30.6420  -16.4970   21.4940 C   0  0  0  0  0  0  0  0  0  0  0  0
  -29.4310  -21.1350   20.5830 C   0  0  0  0  0  0  0  0  0  0  0  0
  -30.5970  -14.4920   20.1610 C   0  0  0  0  0  0  0  0  0  0  0  0
  -30.1400  -12.4810   18.8160 C   0  0  0  0  0  2  0  0  0  0  0  0
  -29.0700  -12.7200   17.7350 C   0  0  0  0  0  2  0  0  0  0  0  0
  -27.6630  -12.4930   18.3140 C   0  0  0  0  0  2  0  0  0  0  0  0
  -27.4350  -13.2830   19.6270 C   0  0  0  0  0  3  0  0  0  0  0  0
  -28.5920  -13.0370   20.6200 C   0  0  0  0  0  2  0  0  0  0  0  0
  -29.8690  -13.3670   19.9570 N   0  0  0  0  0  0  0  0  0  0  0  0
  -31.5010  -14.8570   19.4010 O   0  0  0  0  0  0  0  0  0  0  0  0
  -30.3270  -15.1380   21.3030 N   0  0  0  0  0  0  0  0  0  0  0  0
  -29.5710  -14.7510   21.8490 H   0  0  0  0  0  0  0  0  0  0  0  0
  -25.0900  -13.7940   20.5670 C   0  0  0  0  0  0  0  0  0  0  0  0
  -24.0900  -12.9730   21.0190 C   0  0  0  0  0  0  0  0  0  0  0  0
  -24.5930  -11.6410   20.9120 C   0  0  0  0  0  0  0  0  0  0  0  0
  -26.1380  -12.9560   20.2230 N   0  0  0  0  0  0  0  0  0  0  0  0
  -25.8470  -11.6560   20.4840 N   0  0  0  0  0  0  0  0  0  0  0  0
  -23.9370  -10.3480   21.1390 C   0  0  0  0  0  0  0  0  0  0  0  0
  -24.4250   -9.4290   22.0950 C   0  0  0  0  0  3  0  0  0  0  0  0
  -23.7660   -8.1990   22.3070 C   0  0  0  0  0  3  0  0  0  0  0  0
  -22.6070   -7.8780   21.5620 C   0  0  0  0  0  0  0  0  0  0  0  0
  -22.1390   -8.7840   20.5960 C   0  0  0  0  0  3  0  0  0  0  0  0
  -22.7990  -10.0070   20.3820 C   0  0  0  0  0  3  0  0  0  0  0  0
  -21.9170   -6.6950   21.6830 O   0  0  0  0  0  0  0  0  0  0  0  0
  -21.8260   -6.0330   22.8810 C   0  0  0  0  0  0  0  0  0  0  0  0
  -21.2620   -6.6380   24.0250 C   0  0  0  0  0  3  0  0  0  0  0  0
  -21.1240   -5.8980   25.2180 C   0  0  0  0  0  3  0  0  0  0  0  0
  -21.5430   -4.5550   25.2660 C   0  0  0  0  0  0  0  0  0  0  0  0
  -22.1010   -3.9490   24.1260 C   0  0  0  0  0  3  0  0  0  0  0  0
  -22.2380   -4.6870   22.9360 C   0  0  0  0  0  0  0  0  0  0  0  0
  -22.7560   -4.0920   21.8340 F   0  0  0  0  0  0  0  0  0  0  0  0
  -21.4060   -3.8410   26.4070 F   0  0  0  0  0  0  0  0  0  0  0  0
  -22.7070  -13.3890   21.4330 C   0  0  0  0  0  0  0  0  0  0  0  0
  -22.0900  -12.6400   22.3440 N   0  0  0  0  0  0  0  0  0  0  0  0
  -22.1840  -14.4090   20.9880 O   0  0  0  0  0  0  0  0  0  0  0  0
  -22.5270  -11.8130   22.7230 H   0  0  0  0  0  0  0  0  0  0  0  0
  -21.1680  -12.9010   22.6670 H   0  0  0  0  0  0  0  0  0  0  0  0
  -25.1930  -15.1720   20.4060 N   0  0  0  0  0  0  0  0  0  0  0  0
  -24.4250  -15.8060   20.5920 H   0  0  0  0  0  0  0  0  0  0  0  0
  -26.0010  -15.6370   20.0130 H   0  0  0  0  0  0  0  0  0  0  0  0
  -28.4790  -22.0120   20.1040 O   0  0  0  0  0  0  0  0  0  0  0  0
  -28.9070  -23.1060   19.2820 C   0  0  0  0  0  2  0  0  0  0  0  0
  -28.1490  -24.3910   19.6810 C   0  0  0  0  0  2  0  0  0  0  0  0
  -28.6230  -25.6470   18.9100 C   0  0  0  0  0  2  0  0  0  0  0  0
  -28.4850  -26.8660   19.6570 O   0  0  0  0  0  0  0  0  0  0  0  0
  -24.6750  -31.7510   23.1490 C   0  0  0  0  0  0  0  0  0  0  0  0
  -27.2810  -27.5440   19.7090 C   0  0  0  0  0  0  0  0  0  0  0  0
  -23.4480  -30.4720   21.4240 C   0  0  0  0  0  3  0  0  0  0  0  0
  -24.8820  -29.0490   19.8640 C   0  0  0  0  0  0  0  0  0  0  0  0
  -25.9670  -30.8490   21.2160 C   0  0  0  0  0  2  0  0  0  0  0  0
  -26.0450  -29.5230   20.4820 C   0  0  0  0  0  0  0  0  0  0  0  0
  -27.2410  -28.7740   20.4100 C   0  0  0  0  0  3  0  0  0  0  0  0
  -26.0960  -27.0820   19.0920 C   0  0  0  0  0  3  0  0  0  0  0  0
  -24.9040  -27.8260   19.1700 C   0  0  0  0  0  3  0  0  0  0  0  0
  -23.6400  -29.9010   19.9950 C   0  0  0  0  0  2  0  0  0  0  0  0
  -24.7160  -31.0350   21.9900 N   0  0  0  0  0  0  0  0  0  0  0  0
  -23.6010  -31.9810   23.7240 O   0  0  0  0  0  0  0  0  0  0  0  0
  -22.8140  -29.3780   22.3150 C   0  0  0  0  0  0  0  0  0  0  0  0
  -21.4860  -29.2170   22.2060 N   0  0  0  0  0  0  0  0  0  0  0  0
  -23.5130  -28.6860   23.0600 O   0  0  0  0  0  0  0  0  0  0  0  0
  -20.9870  -29.8290   21.5750 H   0  0  0  0  0  0  0  0  0  0  0  0
  -18.1090  -28.0230   22.6880 C   0  0  0  0  0  0  0  0  0  0  0  0
  -20.6760  -28.2240   22.9130 C   0  0  0  0  0  3  0  0  0  0  0  0
  -20.7460  -26.8490   22.2120 C   0  0  0  0  0  2  0  0  0  0  0  0
  -19.6130  -26.6290   21.2030 C   0  0  0  0  0  2  0  0  0  0  0  0
  -18.2490  -26.7340   21.8950 C   0  0  0  0  0  2  0  0  0  0  0  0
  -19.2490  -28.7290   23.1520 C   0  0  0  0  0  0  0  0  0  0  0  0
  -19.0650  -29.9400   23.8540 C   0  0  0  0  0  3  0  0  0  0  0  0
  -17.7730  -30.4430   24.0950 C   0  0  0  0  0  3  0  0  0  0  0  0
  -16.6480  -29.7290   23.6510 C   0  0  0  0  0  3  0  0  0  0  0  0
  -16.8150  -28.5210   22.9520 C   0  0  0  0  0  3  0  0  0  0  0  0
  -25.9670  -32.3400   23.7990 C   0  0  0  0  0  3  0  0  0  0  0  0
  -26.4550  -31.5240   25.0570 C   0  0  1  0  0  0  0  0  0  0  0  0
  -25.3440  -31.2750   26.1060 C   0  0  0  0  0  1  0  0  0  0  0  0
  -27.0130  -30.1490   24.6240 C   0  0  0  0  0  1  0  0  0  0  0  0
  -27.6140  -32.2770   25.7540 C   0  0  0  0  0  1  0  0  0  0  0  0
  -25.6850  -33.7350   24.1600 N   0  0  0  0  0  0  0  0  0  0  0  0
  -26.0590  -34.7980   23.4360 C   0  0  0  0  0  0  0  0  0  0  0  0
  -26.7470  -34.7060   22.4160 O   0  0  0  0  0  0  0  0  0  0  0  0
  -25.0750  -33.8830   24.9520 H   0  0  0  0  0  0  0  0  0  0  0  0
  -24.3830  -36.6410   23.0900 C   0  0  0  0  0  1  0  0  0  0  0  0
  -25.5950  -36.1850   23.9200 C   0  0  0  0  0  3  0  0  0  0  0  0
  -27.7250  -36.9960   24.8300 C   0  0  0  0  0  1  0  0  0  0  0  0
  -26.6550  -37.2130   23.8590 N   0  0  0  0  0  0  0  0  0  0  0  0
  -26.2690  -38.1380   24.0210 H   0  0  0  0  0  0  0  0  0  0  0  0
  2  7  1  0
  3  1  1  0
  4  2  2  0
  5  9  1  0
  6  8  1  0
  7  1  2  0
  8  5  2  0
  8  7  1  0
  9  3  2  0
 10  6  2  0
 10  4  1  0
 11 19  1  0
 12 17  1  0
 13 14  1  0
 13 12  1  0
 15 14  1  0
 15 24  1  0
 15 16  1  0
 17 11  1  0
 17 16  1  0
 18 11  2  0
 19  9  1  0
 19 20  1  0
 21 22  2  0
 22 41  1  0
 23 22  1  0
 23 26  1  0
 24 25  1  0
 24 21  1  0
 25 23  2  0
 26 27  1  0
 27 28  2  0
 29 32  1  0
 29 28  1  0
 30 29  2  0
 31 30  1  0
 31 26  2  0
 32 33  1  0
 33 38  2  0
 33 34  1  0
 34 35  2  0
 35 36  1  0
 36 40  1  0
 37 36  2  0
 38 37  1  0
 39 38  1  0
 41 42  1  0
 42 45  1  0
 42 44  1  0
 43 41  2  0
 46 21  1  0
 46 47  1  0
 48 46  1  0
 49 10  1  0
 50 51  1  0
 50 49  1  0
 52 53  1  0
 52 51  1  0
 53 55  1  0
 54 65  2  0
 55 60  1  0
 56 64  1  0
 56 66  1  0
 57 63  1  0
 57 59  1  0
 58 64  1  0
 59 58  1  0
 60 59  2  0
 61 62  1  0
 61 55  2  0
 62 57  2  0
 63 56  1  0
 64 54  1  0
 66 68  2  0
 67 66  1  0
 69 67  1  0
 70 79  2  0
 70 75  1  0
 71 67  1  0
 71 75  1  0
 72 71  1  0
 73 74  1  0
 73 72  1  0
 74 70  1  0
 75 76  2  0
 76 77  1  0
 78 77  2  0
 79 78  1  0
 80 54  1  0
 80 85  1  0
 80 81  1  0
 81 84  1  1
 81 82  1  0
 83 81  1  0
 85 88  1  0
 86 90  1  0
 86 85  1  0
 87 86  2  0
 90 89  1  0
 92 90  1  0
 92 93  1  0
 92 91  1  0
M  ISO  4  11 100  19 100  52 101  53 101
M  END
>  <TORSDO>  (84) 
F 20

>  <SCORE>  (84) 
-12.040

>  <name>  (84) 
84

>  <ligand_id>  (84) 
84

>  <original_smiles>  (84) 
[H]c1c([H])c([H])c2c(c1[H])C([H])([H])C([H])([H])C([H])([H])C2([H])N([H])C(=O)C1([H])N(C(=O)C([H])(N([H])C(=O)C([H])(N([H])C([H])([H])[H])C([H])([H])[H])C(C([H])([H])[H])(C([H])([H])[H])C([H])([H])[H])C([H])([H])c2c([H])c(OC([H])([H])C([H])([H])C([H])([H])Oc3c([H])c([H])c4c([H])c([H])c(N([H])C(=O)N5C([H])([H])C([H])([H])C([H])([H])C([H])(n6nc(-c7c([H])c([H])c(Oc8c([H])c([H])c(F)c([H])c8F)c([H])c7[H])c(C(=O)N([H])[H])c6N([H])[H])C5([H])[H])c([H])c4c3[H])c([H])c([H])c2C1([H])[H]

>  <smiles>  (84) 
[H]c1c([H])c([H])c2c(c1[H])C([H])([H])C([H])([H])C([H])([H])C2([H])N([H])C(=O)C1([H])N(C(=O)C([H])(N([H])C(=O)C([H])(N([H])C([H])([H])[H])C([H])([H])[H])C(C([H])([H])[H])(C([H])([H])[H])C([H])([H])[H])C([H])([H])c2c([H])c(OC([H])([H])C([H])([H])C([H])([H])Oc3c([H])c([H])c4c([H])c([H])c(N([H])C(=O)N5C([H])([H])C([H])([H])C([H])([H])C([H])(n6nc(-c7c([H])c([H])c(Oc8c([H])c([H])c(F)c([H])c8F)c([H])c7[H])c(C(=O)N([H])[H])c6N([H])[H])C5([H])[H])c([H])c4c3[H])c([H])c([H])c2C1([H])[H]

$$$$
85:0:0
     RDKit          3D

107117  0  0  1  0  0  0  0  0999 V2000
  -29.7580  -25.2050   23.8030 C   0  0  0  0  0  3  0  0  0  0  0  0
  -33.2590  -25.0050   26.1200 C   0  0  0  0  0  2  0  0  0  0  0  0
  -33.0720  -23.4810   26.0210 C   0  0  0  0  0  2  0  0  0  0  0  0
  -32.9210  -25.8200   24.8500 C   0  0  0  0  0  2  0  0  0  0  0  0
  -31.6240  -22.9400   26.0220 C   0  0  0  0  0  2  0  0  0  0  0  0
  -29.8580  -24.9030   25.9970 C   0  0  0  0  0  2  0  0  0  0  0  0
  -33.0270  -25.0750   23.4940 C   0  0  0  0  0  2  0  0  0  0  0  0
  -30.4770  -23.6880   25.2940 C   0  0  0  0  0  3  0  0  0  0  0  0
  -29.3050  -25.6870   24.9070 N   0  0  0  0  0  2  0  0  0  0  0  0
  -30.6290  -24.1360   23.9180 N   0  0  0  0  0  0  0  0  0  0  0  0
  -29.4510  -25.6870   22.5430 N   0  0  0  0  0  0  0  0  0  0  0  0
  -31.9230  -24.1320   23.1240 N   0  0  2  0  0  4  0  0  0  0  0  0
  -29.3600  -25.0840   21.7270 H   0  0  0  0  0  0  0  0  0  0  0  0
  -31.6450  -24.5510   22.2500 H   0  0  0  0  0  0  0  0  0  0  0  0
  -29.0560  -27.0720   22.2830 C   0  0  0  0  0  2  0  0  0  0  0  0
  -27.5890  -27.3940   22.6330 C   0  0  0  0  0  2  0  0  0  0  0  0
  -27.4210  -28.8070   22.5800 O   0  0  0  0  0  0  0  0  0  0  0  0
  -26.8210  -31.5510   29.1200 C   0  0  0  0  0  0  0  0  0  0  0  0
  -26.5900  -29.2960   23.5530 C   0  0  0  0  0  0  0  0  0  0  0  0
  -24.6960  -30.9380   28.0030 C   0  0  0  0  0  3  0  0  0  0  0  0
  -24.8750  -30.3510   25.5250 C   0  0  0  0  0  0  0  0  0  0  0  0
  -26.7460  -31.5960   26.6260 C   0  0  0  0  0  2  0  0  0  0  0  0
  -26.2390  -30.6760   25.5390 C   0  0  0  0  0  0  0  0  0  0  0  0
  -27.0980  -30.1490   24.5540 C   0  0  0  0  0  3  0  0  0  0  0  0
  -25.2200  -28.9680   23.5480 C   0  0  0  0  0  3  0  0  0  0  0  0
  -24.3620  -29.4900   24.5370 C   0  0  0  0  0  3  0  0  0  0  0  0
  -24.0190  -30.9710   26.6070 C   0  0  0  0  0  2  0  0  0  0  0  0
  -26.1380  -31.3520   27.9550 N   0  0  0  0  0  0  0  0  0  0  0  0
  -26.2660  -31.4370   30.2200 O   0  0  0  0  0  0  0  0  0  0  0  0
  -24.4830  -29.5360   28.6160 C   0  0  0  0  0  0  0  0  0  0  0  0
  -23.3550  -29.3560   29.3190 N   0  0  0  0  0  0  0  0  0  0  0  0
  -25.3010  -28.6350   28.4250 O   0  0  0  0  0  0  0  0  0  0  0  0
  -22.7400  -30.1500   29.4330 H   0  0  0  0  0  0  0  0  0  0  0  0
  -20.8380  -27.9250   31.4750 C   0  0  0  0  0  0  0  0  0  0  0  0
  -22.9170  -28.1110   29.9520 C   0  0  0  0  0  3  0  0  0  0  0  0
  -22.1420  -27.2190   28.9530 C   0  0  0  0  0  2  0  0  0  0  0  0
  -20.6280  -27.4400   29.0020 C   0  0  0  0  0  2  0  0  0  0  0  0
  -20.0860  -27.1520   30.4040 C   0  0  0  0  0  2  0  0  0  0  0  0
  -22.1620  -28.3870   31.2570 C   0  0  0  0  0  0  0  0  0  0  0  0
  -22.8020  -29.1320   32.2710 C   0  0  0  0  0  3  0  0  0  0  0  0
  -22.1480  -29.4030   33.4870 C   0  0  0  0  0  3  0  0  0  0  0  0
  -20.8460  -28.9170   33.7080 C   0  0  0  0  0  3  0  0  0  0  0  0
  -20.1930  -28.1840   32.7030 C   0  0  0  0  0  3  0  0  0  0  0  0
  -28.3290  -31.9500   29.1200 C   0  0  0  0  0  3  0  0  0  0  0  0
  -28.5100  -32.9890   30.1340 N   0  0  0  0  0  0  0  0  0  0  0  0
  -28.5650  -34.3040   29.8760 C   0  0  0  0  0  0  0  0  0  0  0  0
  -28.5280  -34.7650   28.7310 O   0  0  0  0  0  0  0  0  0  0  0  0
  -28.4700  -32.6900   31.0980 H   0  0  0  0  0  0  0  0  0  0  0  0
  -27.2700  -35.8110   31.4200 C   0  0  0  0  0  1  0  0  0  0  0  0
  -28.6660  -35.2610   31.0790 C   0  0  0  0  0  3  0  0  0  0  0  0
  -31.0010  -35.9570   30.7730 C   0  0  0  0  0  1  0  0  0  0  0  0
  -29.6050  -36.3820   30.8620 N   0  0  0  0  0  0  0  0  0  0  0  0
  -29.5330  -37.0630   31.6120 H   0  0  0  0  0  0  0  0  0  0  0  0
  -29.2910  -30.7300   29.3890 C   0  0  1  0  0  0  0  0  0  0  0  0
  -28.9150  -29.9120   30.6470 C   0  0  0  0  0  1  0  0  0  0  0  0
  -29.3050  -29.7690   28.1780 C   0  0  0  0  0  1  0  0  0  0  0  0
  -30.7430  -31.2350   29.5710 C   0  0  0  0  0  1  0  0  0  0  0  0
  -32.3750  -22.7780   22.7070 C   0  0  0  0  0  2  0  0  0  0  0  0
  -31.9010  -22.4010   21.2920 C   0  0  0  0  0  2  0  0  0  0  0  0
  -32.4220  -21.0170   20.8570 C   0  0  0  0  0  2  0  0  0  0  0  0
  -31.7920  -20.5340   19.5480 C   0  0  0  0  0  2  0  0  0  0  0  0
  -30.3870  -20.5940   19.7400 O   0  0  0  0  0  0  0  0  0  0  0  0
  -29.1870  -22.0200   16.5070 C   0  0  0  0  0  3  0  0  0  0  0  0
  -30.0200  -21.3490   17.4240 C   0  0  0  0  0  3  0  0  0  0  0  0
  -27.5410  -22.3770   18.2640 C   0  0  0  0  0  3  0  0  0  0  0  0
  -27.9470  -22.5580   16.9260 C   0  0  0  0  0  0  0  0  0  0  0  0
  -29.6210  -21.2010   18.7740 C   0  0  0  0  0  0  0  0  0  0  0  0
  -28.3700  -21.7040   19.1790 C   0  0  0  0  0  0  0  0  0  0  0  0
  -27.9630  -21.5510   20.4640 F   0  0  0  0  0  0  0  0  0  0  0  0
  -27.2540  -23.7860   14.8530 C   0  0  0  0  0  0  0  0  0  0  0  0
  -26.0750  -24.6050   12.8410 C   0  0  0  0  0  2  0  0  0  0  0  0
  -26.0240  -26.1390   12.7520 C   0  0  0  0  0  2  0  0  0  0  0  0
  -24.8220  -26.6930   13.5380 C   0  0  0  0  0  2  0  0  0  0  0  0
  -24.7390  -26.1210   14.9770 C   0  0  0  0  0  3  0  0  0  0  0  0
  -24.8640  -24.5830   14.9580 C   0  0  0  0  0  2  0  0  0  0  0  0
  -26.1120  -24.2130   14.2580 N   0  0  0  0  0  0  0  0  0  0  0  0
  -28.3560  -23.8100   14.2970 O   0  0  0  0  0  0  0  0  0  0  0  0
  -27.0480  -23.2310   16.0580 N   0  0  0  0  0  0  0  0  0  0  0  0
  -26.1010  -23.3270   16.3900 H   0  0  0  0  0  0  0  0  0  0  0  0
  -23.3580  -27.2100   16.8640 C   0  0  0  0  0  0  0  0  0  0  0  0
  -22.0130  -27.4300   17.0020 C   0  0  0  0  0  0  0  0  0  0  0  0
  -21.4020  -26.8830   15.8320 C   0  0  0  0  0  0  0  0  0  0  0  0
  -23.5140  -26.5490   15.6540 N   0  0  0  0  0  0  0  0  0  0  0  0
  -22.3160  -26.3100   15.0590 N   0  0  0  0  0  0  0  0  0  0  0  0
  -20.0080  -26.9230   15.3750 C   0  0  0  0  0  0  0  0  0  0  0  0
  -19.3240  -25.7490   14.9860 C   0  0  0  0  0  3  0  0  0  0  0  0
  -17.9770  -25.8110   14.5640 C   0  0  0  0  0  3  0  0  0  0  0  0
  -17.2990  -27.0520   14.5340 C   0  0  0  0  0  0  0  0  0  0  0  0
  -17.9910  -28.2200   14.9000 C   0  0  0  0  0  3  0  0  0  0  0  0
  -19.3320  -28.1600   15.3150 C   0  0  0  0  0  3  0  0  0  0  0  0
  -16.0000  -27.2110   14.1150 O   0  0  0  0  0  0  0  0  0  0  0  0
  -15.0900  -26.1880   14.1920 C   0  0  0  0  0  0  0  0  0  0  0  0
  -14.8040  -25.5350   15.4120 C   0  0  0  0  0  3  0  0  0  0  0  0
  -13.8100  -24.5370   15.4590 C   0  0  0  0  0  3  0  0  0  0  0  0
  -13.0950  -24.1980   14.2950 C   0  0  0  0  0  0  0  0  0  0  0  0
  -13.3730  -24.8530   13.0820 C   0  0  0  0  0  3  0  0  0  0  0  0
  -14.3640  -25.8470   13.0330 C   0  0  0  0  0  0  0  0  0  0  0  0
  -14.6140  -26.4880   11.8650 F   0  0  0  0  0  0  0  0  0  0  0  0
  -12.1340  -23.2450   14.3430 F   0  0  0  0  0  0  0  0  0  0  0  0
  -21.3370  -28.1900   18.1080 C   0  0  0  0  0  0  0  0  0  0  0  0
  -20.0990  -27.8360   18.4310 N   0  0  0  0  0  0  0  0  0  0  0  0
  -21.9260  -29.0770   18.7260 O   0  0  0  0  0  0  0  0  0  0  0  0
  -19.6220  -27.0910   17.9430 H   0  0  0  0  0  0  0  0  0  0  0  0
  -19.6170  -28.3150   19.1790 H   0  0  0  0  0  0  0  0  0  0  0  0
  -24.4580  -27.5290   17.6540 N   0  0  0  0  0  0  0  0  0  0  0  0
  -24.3750  -28.0590   18.5130 H   0  0  0  0  0  0  0  0  0  0  0  0
  -25.4180  -27.3230   17.4070 H   0  0  0  0  0  0  0  0  0  0  0  0
  1 11  1  0
  1 10  1  0
  1  9  1  0
  3  5  1  0
  3  2  1  0
  4  2  1  0
  7  4  1  0
  8  6  1  0
  8  5  1  0
  9  6  1  0
 10 12  1  0
 10  8  1  0
 12  7  1  0
 13 11  1  0
 12 14  1  6
 15 11  1  0
 15 16  1  0
 17 16  1  0
 17 19  1  0
 18 29  2  0
 19 24  1  0
 20 30  1  0
 21 23  1  0
 21 27  1  0
 22 28  1  0
 23 22  1  0
 24 23  2  0
 25 19  2  0
 25 26  1  0
 26 21  2  0
 27 20  1  0
 28 20  1  0
 28 18  1  0
 30 31  1  0
 31 33  1  0
 32 30  2  0
 34 43  1  0
 35 31  1  0
 35 39  1  0
 36 37  1  0
 36 35  1  0
 37 38  1  0
 38 34  1  0
 39 34  2  0
 39 40  1  0
 40 41  2  0
 41 42  1  0
 43 42  2  0
 44 18  1  0
 44 54  1  0
 44 45  1  0
 45 48  1  0
 46 45  1  0
 46 50  1  0
 47 46  2  0
 50 49  1  0
 51 52  1  0
 52 50  1  0
 52 53  1  0
 54 57  1  1
 54 55  1  0
 56 54  1  0
 58 12  1  0
 59 58  1  0
 60 59  1  0
 61 62  1  0
 61 60  1  0
 63 66  2  0
 63 64  1  0
 64 67  2  0
 65 68  2  0
 66 65  1  0
 67 68  1  0
 67 62  1  0
 68 69  1  0
 70 78  1  0
 71 76  1  0
 72 71  1  0
 72 73  1  0
 74 73  1  0
 74 83  1  0
 75 74  1  0
 76 70  1  0
 76 75  1  0
 77 70  2  0
 78 79  1  0
 78 66  1  0
 80 81  2  0
 80105  1  0
 81100  1  0
 82 81  1  0
 83 80  1  0
 84 83  1  0
 84 82  2  0
 85 82  1  0
 86 85  2  0
 87 86  1  0
 88 87  2  0
 88 89  1  0
 89 90  2  0
 90 85  1  0
 91 92  1  0
 91 88  1  0
 92 93  1  0
 93 94  2  0
 95 99  1  0
 95 94  1  0
 96 95  2  0
 97 96  1  0
 97 92  2  0
 98 97  1  0
100101  1  0
100102  2  0
101104  1  0
103101  1  0
105106  1  0
107105  1  0
M  ISO  4  16 101  17 101  70 100  78 100
M  END
>  <TORSDO>  (85) 
F 24

>  <SCORE>  (85) 
55.659

>  <name>  (85) 
85

>  <ligand_id>  (85) 
85

>  <original_smiles>  (85) 
[H]c1c([H])c([H])c2c(c1[H])C([H])([H])C([H])([H])C([H])([H])C2([H])N([H])C(=O)C1([H])N(C(=O)C([H])(N([H])C(=O)C([H])(N([H])C([H])([H])[H])C([H])([H])[H])C(C([H])([H])[H])(C([H])([H])[H])C([H])([H])[H])C([H])([H])c2c([H])c(OC([H])([H])C([H])([H])N([H])C3=NC([H])([H])C4([H])N3[N+]([H])(C([H])([H])C([H])([H])C([H])([H])C([H])([H])Oc3c([H])c([H])c(N([H])C(=O)N5C([H])([H])C([H])([H])C([H])([H])C([H])(n6nc(-c7c([H])c([H])c(Oc8c([H])c([H])c(F)c([H])c8F)c([H])c7[H])c(C(=O)N([H])[H])c6N([H])[H])C5([H])[H])c([H])c3F)C([H])([H])C([H])([H])C([H])([H])C([H])([H])C4([H])[H])c([H])c([H])c2C1([H])[H]

>  <smiles>  (85) 
[H]c1c([H])c([H])c2c(c1[H])C([H])([H])C([H])([H])C([H])([H])C2([H])N([H])C(=O)C1([H])N(C(=O)C([H])(N([H])C(=O)C([H])(N([H])C([H])([H])[H])C([H])([H])[H])C(C([H])([H])[H])(C([H])([H])[H])C([H])([H])[H])C([H])([H])c2c([H])c(OC([H])([H])C([H])([H])N([H])C3=NC([H])([H])C4([H])N3[N+]([H])(C([H])([H])C([H])([H])C([H])([H])C([H])([H])Oc3c([H])c([H])c(N([H])C(=O)N5C([H])([H])C([H])([H])C([H])([H])C([H])(n6nc(-c7c([H])c([H])c(Oc8c([H])c([H])c(F)c([H])c8F)c([H])c7[H])c(C(=O)N([H])[H])c6N([H])[H])C5([H])[H])c([H])c3F)C([H])([H])C([H])([H])C([H])([H])C([H])([H])C4([H])[H])c([H])c([H])c2C1([H])[H]

$$$$
86:0:0
     RDKit          3D

 95103  0  0  1  0  0  0  0  0999 V2000
  -30.8370  -21.4140   22.2030 C   0  0  0  0  0  1  0  0  0  0  0  0
  -30.5190  -22.0710   20.9090 N   0  0  1  0  0  4  0  0  0  0  0  0
  -31.3630  -22.5650   20.6640 H   0  0  0  0  0  0  0  0  0  0  0  0
  -30.2580  -21.1140   19.7830 C   0  0  0  0  0  2  0  0  0  0  0  0
  -29.5820  -18.8470   20.7300 C   0  0  0  0  0  3  0  0  0  0  0  0
  -31.8920  -17.5650   19.7970 C   0  0  0  0  0  3  0  0  0  0  0  0
  -30.5490  -19.6150   20.0440 C   0  0  0  0  0  0  0  0  0  0  0  0
  -29.7480  -17.4580   20.9370 C   0  0  0  0  0  0  0  0  0  0  0  0
  -31.7220  -18.9580   19.5840 C   0  0  0  0  0  0  0  0  0  0  0  0
  -30.9040  -16.7940   20.4610 C   0  0  0  0  0  0  0  0  0  0  0  0
  -28.6500  -16.6890   21.6560 C   0  0  0  0  0  1  0  0  0  0  0  0
  -32.8040  -19.7180   18.8350 C   0  0  0  0  0  1  0  0  0  0  0  0
  -31.5530  -14.4180   19.8760 C   0  0  0  0  0  0  0  0  0  0  0  0
  -31.1010  -12.2720   18.7400 C   0  0  0  0  0  2  0  0  0  0  0  0
  -30.0780  -12.5210   17.6110 C   0  0  0  0  0  2  0  0  0  0  0  0
  -28.6340  -12.4530   18.1470 C   0  0  0  0  0  2  0  0  0  0  0  0
  -28.4330  -13.3000   19.4310 C   0  0  0  0  0  3  0  0  0  0  0  0
  -29.5490  -13.0000   20.4560 C   0  0  0  0  0  2  0  0  0  0  0  0
  -30.8490  -13.2540   19.8050 N   0  0  0  0  0  0  0  0  0  0  0  0
  -32.6140  -14.5960   19.2690 O   0  0  0  0  0  0  0  0  0  0  0  0
  -30.9750  -15.3710   20.6350 N   0  0  0  0  0  0  0  0  0  0  0  0
  -30.2590  -14.9990   21.2390 H   0  0  0  0  0  0  0  0  0  0  0  0
  -26.1510  -14.0360   20.3730 C   0  0  0  0  0  0  0  0  0  0  0  0
  -25.0590  -13.3220   20.7860 C   0  0  0  0  0  0  0  0  0  0  0  0
  -25.4090  -11.9450   20.6360 C   0  0  0  0  0  0  0  0  0  0  0  0
  -27.1030  -13.0970   20.0040 N   0  0  0  0  0  0  0  0  0  0  0  0
  -26.6620  -11.8320   20.2160 N   0  0  0  0  0  0  0  0  0  0  0  0
  -24.6040  -10.7290   20.8140 C   0  0  0  0  0  0  0  0  0  0  0  0
  -24.9540   -9.7440   21.7620 C   0  0  0  0  0  3  0  0  0  0  0  0
  -24.1560   -8.5930   21.9270 C   0  0  0  0  0  3  0  0  0  0  0  0
  -22.9910   -8.4180   21.1420 C   0  0  0  0  0  0  0  0  0  0  0  0
  -22.6600   -9.3920   20.1830 C   0  0  0  0  0  3  0  0  0  0  0  0
  -23.4580  -10.5340   20.0160 C   0  0  0  0  0  3  0  0  0  0  0  0
  -22.1690   -7.3200   21.2150 O   0  0  0  0  0  0  0  0  0  0  0  0
  -21.9330   -6.6750   22.4020 C   0  0  0  0  0  0  0  0  0  0  0  0
  -21.4280   -7.3550   23.5320 C   0  0  0  0  0  3  0  0  0  0  0  0
  -21.1340   -6.6410   24.7110 C   0  0  0  0  0  3  0  0  0  0  0  0
  -21.3340   -5.2490   24.7600 C   0  0  0  0  0  0  0  0  0  0  0  0
  -21.8310   -4.5690   23.6340 C   0  0  0  0  0  3  0  0  0  0  0  0
  -22.1270   -5.2800   22.4580 C   0  0  0  0  0  0  0  0  0  0  0  0
  -22.5850   -4.6170   21.3690 F   0  0  0  0  0  0  0  0  0  0  0  0
  -21.0450   -4.5610   25.8890 F   0  0  0  0  0  0  0  0  0  0  0  0
  -23.7310  -13.8820   21.2070 C   0  0  0  0  0  0  0  0  0  0  0  0
  -23.0570  -13.2230   22.1450 N   0  0  0  0  0  0  0  0  0  0  0  0
  -23.3020  -14.9360   20.7410 O   0  0  0  0  0  0  0  0  0  0  0  0
  -23.4180  -12.3680   22.5430 H   0  0  0  0  0  0  0  0  0  0  0  0
  -22.1690  -13.5780   22.4690 H   0  0  0  0  0  0  0  0  0  0  0  0
  -26.4080  -15.4000   20.2610 N   0  0  0  0  0  0  0  0  0  0  0  0
  -25.7070  -16.1020   20.4710 H   0  0  0  0  0  0  0  0  0  0  0  0
  -27.2630  -15.7940   19.8880 H   0  0  0  0  0  0  0  0  0  0  0  0
  -29.4550  -23.1170   21.0770 C   0  0  0  0  0  2  0  0  0  0  0  0
  -29.4800  -24.2830   20.0480 C   0  0  0  0  0  2  0  0  0  0  0  0
  -28.6420  -25.3910   20.5250 N   0  0  0  0  0  0  0  0  0  0  0  0
  -29.0590  -25.8040   21.3550 H   0  0  0  0  0  0  0  0  0  0  0  0
  -28.6850  -26.4360   19.5180 O   0  0  0  0  0  0  0  0  0  0  0  0
  -24.8100  -31.3160   23.0160 C   0  0  0  0  0  0  0  0  0  0  0  0
  -27.5390  -27.1950   19.5840 C   0  0  0  0  0  0  0  0  0  0  0  0
  -23.6590  -30.1140   21.1850 C   0  0  0  0  0  3  0  0  0  0  0  0
  -25.1570  -28.7160   19.6630 C   0  0  0  0  0  0  0  0  0  0  0  0
  -26.1930  -30.4590   21.1270 C   0  0  0  0  0  2  0  0  0  0  0  0
  -26.2950  -29.1600   20.3510 C   0  0  0  0  0  0  0  0  0  0  0  0
  -27.4900  -28.4050   20.3140 C   0  0  0  0  0  3  0  0  0  0  0  0
  -26.3910  -26.7640   18.8920 C   0  0  0  0  0  3  0  0  0  0  0  0
  -25.2000  -27.5140   18.9310 C   0  0  0  0  0  3  0  0  0  0  0  0
  -23.9190  -29.5800   19.7510 C   0  0  0  0  0  2  0  0  0  0  0  0
  -24.9030  -30.6380   21.8360 N   0  0  0  0  0  0  0  0  0  0  0  0
  -23.7110  -31.5430   23.5390 O   0  0  0  0  0  0  0  0  0  0  0  0
  -22.9600  -29.0060   22.0050 C   0  0  0  0  0  0  0  0  0  0  0  0
  -21.6220  -28.9380   21.9010 N   0  0  0  0  0  0  0  0  0  0  0  0
  -23.6170  -28.2180   22.6900 O   0  0  0  0  0  0  0  0  0  0  0  0
  -21.1570  -29.6260   21.3260 H   0  0  0  0  0  0  0  0  0  0  0  0
  -18.1750  -28.0120   22.4680 C   0  0  0  0  0  0  0  0  0  0  0  0
  -20.7580  -27.9510   22.5490 C   0  0  0  0  0  3  0  0  0  0  0  0
  -20.6530  -26.6610   21.7030 C   0  0  0  0  0  2  0  0  0  0  0  0
  -19.4520  -26.6610   20.7510 C   0  0  0  0  0  2  0  0  0  0  0  0
  -18.1460  -26.8140   21.5340 C   0  0  0  0  0  2  0  0  0  0  0  0
  -19.4030  -28.5560   22.9320 C   0  0  0  0  0  0  0  0  0  0  0  0
  -19.3760  -29.6920   23.7700 C   0  0  0  0  0  3  0  0  0  0  0  0
  -18.1530  -30.2800   24.1460 C   0  0  0  0  0  3  0  0  0  0  0  0
  -16.9420  -29.7280   23.6970 C   0  0  0  0  0  3  0  0  0  0  0  0
  -16.9530  -28.5960   22.8630 C   0  0  0  0  0  3  0  0  0  0  0  0
  -26.0770  -31.8580   23.7490 C   0  0  0  0  0  3  0  0  0  0  0  0
  -25.7630  -33.2090   24.2340 N   0  0  0  0  0  0  0  0  0  0  0  0
  -26.1610  -34.3420   23.6380 C   0  0  0  0  0  0  0  0  0  0  0  0
  -26.8990  -34.3550   22.6490 O   0  0  0  0  0  0  0  0  0  0  0  0
  -25.1180  -33.2750   25.0080 H   0  0  0  0  0  0  0  0  0  0  0  0
  -24.5130  -36.2210   23.3700 C   0  0  0  0  0  1  0  0  0  0  0  0
  -25.6580  -35.6710   24.2330 C   0  0  0  0  0  3  0  0  0  0  0  0
  -27.7190  -36.3630   25.3760 C   0  0  0  0  0  1  0  0  0  0  0  0
  -26.7190  -36.6940   24.3650 N   0  0  0  0  0  0  0  0  0  0  0  0
  -26.3190  -37.5980   24.5990 H   0  0  0  0  0  0  0  0  0  0  0  0
  -26.5500  -30.9350   24.9390 C   0  0  1  0  0  0  0  0  0  0  0  0
  -25.4220  -30.5720   25.9320 C   0  0  0  0  0  1  0  0  0  0  0  0
  -27.1460  -29.6150   24.3980 C   0  0  0  0  0  1  0  0  0  0  0  0
  -27.6770  -31.6380   25.7320 C   0  0  0  0  0  1  0  0  0  0  0  0
  2 51  1  0
  2  1  1  0
  2  3  1  6
  4  7  1  0
  4  2  1  0
  5  8  1  0
  6 10  1  0
  7  5  2  0
  8 11  1  0
  9  6  2  0
  9  7  1  0
 10 21  1  0
 10  8  2  0
 12  9  1  0
 13 21  1  0
 14 19  1  0
 15 16  1  0
 15 14  1  0
 17 16  1  0
 17 26  1  0
 17 18  1  0
 19 13  1  0
 19 18  1  0
 20 13  2  0
 21 22  1  0
 23 24  2  0
 24 43  1  0
 25 24  1  0
 25 28  1  0
 26 27  1  0
 26 23  1  0
 27 25  2  0
 28 29  1  0
 29 30  2  0
 31 34  1  0
 31 30  1  0
 32 31  2  0
 33 32  1  0
 33 28  2  0
 34 35  1  0
 35 40  2  0
 35 36  1  0
 36 37  2  0
 37 38  1  0
 38 42  1  0
 39 38  2  0
 40 39  1  0
 41 40  1  0
 43 44  1  0
 44 47  1  0
 44 46  1  0
 45 43  2  0
 48 23  1  0
 48 49  1  0
 50 48  1  0
 52 53  1  0
 52 51  1  0
 53 54  1  0
 55 57  1  0
 55 53  1  0
 56 67  2  0
 57 62  1  0
 58 66  1  0
 58 68  1  0
 59 65  1  0
 59 61  1  0
 60 66  1  0
 61 60  1  0
 62 61  2  0
 63 64  1  0
 63 57  2  0
 64 59  2  0
 65 58  1  0
 66 56  1  0
 68 70  2  0
 69 68  1  0
 71 69  1  0
 72 81  2  0
 72 77  1  0
 73 69  1  0
 73 77  1  0
 74 73  1  0
 75 76  1  0
 75 74  1  0
 76 72  1  0
 77 78  2  0
 78 79  1  0
 80 79  2  0
 81 80  1  0
 82 56  1  0
 82 83  1  0
 82 92  1  0
 83 86  1  0
 84 88  1  0
 84 83  1  0
 85 84  2  0
 88 87  1  0
 88 90  1  0
 90 91  1  0
 90 89  1  0
 92 95  1  1
 92 93  1  0
 94 92  1  0
M  ISO  4  13 100  21 100  53 101  55 101
M  END
>  <TORSDO>  (86) 
F 21

>  <SCORE>  (86) 
-10.641

>  <name>  (86) 
86

>  <ligand_id>  (86) 
86

>  <original_smiles>  (86) 
[H]c1c([H])c([H])c2c(c1[H])C([H])([H])C([H])([H])C([H])([H])C2([H])N([H])C(=O)C1([H])N(C(=O)C([H])(N([H])C(=O)C([H])(N([H])C([H])([H])[H])C([H])([H])[H])C(C([H])([H])[H])(C([H])([H])[H])C([H])([H])[H])C([H])([H])c2c([H])c(ON([H])C([H])([H])C([H])([H])[N+]([H])(C([H])([H])[H])C([H])([H])c3c([H])c(C([H])([H])[H])c(N([H])C(=O)N4C([H])([H])C([H])([H])C([H])([H])C([H])(n5nc(-c6c([H])c([H])c(Oc7c([H])c([H])c(F)c([H])c7F)c([H])c6[H])c(C(=O)N([H])[H])c5N([H])[H])C4([H])[H])c([H])c3C([H])([H])[H])c([H])c([H])c2C1([H])[H]

>  <smiles>  (86) 
[H]c1c([H])c([H])c2c(c1[H])C([H])([H])C([H])([H])C([H])([H])C2([H])N([H])C(=O)C1([H])N(C(=O)C([H])(N([H])C(=O)C([H])(N([H])C([H])([H])[H])C([H])([H])[H])C(C([H])([H])[H])(C([H])([H])[H])C([H])([H])[H])C([H])([H])c2c([H])c(ON([H])C([H])([H])C([H])([H])[N+]([H])(C([H])([H])[H])C([H])([H])c3c([H])c(C([H])([H])[H])c(N([H])C(=O)N4C([H])([H])C([H])([H])C([H])([H])C([H])(n5nc(-c6c([H])c([H])c(Oc7c([H])c([H])c(F)c([H])c7F)c([H])c6[H])c(C(=O)N([H])[H])c5N([H])[H])C4([H])[H])c([H])c3C([H])([H])[H])c([H])c([H])c2C1([H])[H]

$$$$
87:0:0
     RDKit          3D

 90 99  0  0  1  0  0  0  0  0999 V2000
  -29.7380  -24.0940   20.1540 C   0  0  0  0  0  2  0  0  0  0  0  0
  -27.4540  -23.6330   20.5790 C   0  0  0  0  0  2  0  0  0  0  0  0
  -29.9560  -22.5700   19.6970 C   0  0  0  0  0  2  0  0  0  0  0  0
  -27.6950  -22.0880   20.1200 C   0  0  0  0  0  2  0  0  0  0  0  0
  -28.3330  -24.7670   19.8970 C   0  0  0  0  0  3  0  0  0  0  0  0
  -29.0690  -21.5000   20.2700 N   0  0  0  0  0  0  0  0  0  0  0  0
  -29.9770  -18.6890   17.8690 C   0  0  0  0  0  3  0  0  0  0  0  0
  -29.6210  -19.9300   18.4310 C   0  0  0  0  0  3  0  0  0  0  0  0
  -30.0520  -17.5060   18.6290 C   0  0  0  0  0  3  0  0  0  0  0  0
  -29.3980  -18.8190   20.5680 C   0  0  0  0  0  3  0  0  0  0  0  0
  -29.3380  -20.1020   19.8090 C   0  0  0  0  0  0  0  0  0  0  0  0
  -29.7510  -17.4800   20.0070 C   0  0  0  0  0  0  0  0  0  0  0  0
  -29.7260  -16.1630   20.6430 O   0  0  0  0  0  0  0  0  0  0  0  0
  -30.5900  -14.9440   20.3170 C   0  0  0  0  0  0  0  0  0  0  0  0
  -30.4160  -12.5840   19.3810 C   0  0  0  0  0  2  0  0  0  0  0  0
  -29.5070  -12.6200   18.1310 C   0  0  0  0  0  2  0  0  0  0  0  0
  -28.0320  -12.4330   18.5330 C   0  0  0  0  0  2  0  0  0  0  0  0
  -27.6230  -13.3400   19.7240 C   0  0  0  0  0  3  0  0  0  0  0  0
  -28.6520  -13.3140   20.8720 C   0  0  0  0  0  2  0  0  0  0  0  0
  -29.9580  -13.6530   20.3070 N   0  0  0  0  0  0  0  0  0  0  0  0
  -31.7610  -15.0480   19.9400 O   0  0  0  0  0  0  0  0  0  0  0  0
  -25.2320  -13.9200   20.4220 C   0  0  0  0  0  0  0  0  0  0  0  0
  -24.1640  -13.1460   20.7850 C   0  0  0  0  0  0  0  0  0  0  0  0
  -24.6310  -11.7960   20.7760 C   0  0  0  0  0  0  0  0  0  0  0  0
  -26.2780  -13.0420   20.2030 N   0  0  0  0  0  0  0  0  0  0  0  0
  -25.9260  -11.7590   20.4830 N   0  0  0  0  0  0  0  0  0  0  0  0
  -23.9040  -10.5340   20.9700 C   0  0  0  0  0  0  0  0  0  0  0  0
  -24.3260   -9.5750   21.9170 C   0  0  0  0  0  3  0  0  0  0  0  0
  -23.5970   -8.3790   22.0990 C   0  0  0  0  0  3  0  0  0  0  0  0
  -22.4320   -8.1350   21.3340 C   0  0  0  0  0  0  0  0  0  0  0  0
  -22.0290   -9.0840   20.3770 C   0  0  0  0  0  3  0  0  0  0  0  0
  -22.7580  -10.2690   20.1930 C   0  0  0  0  0  3  0  0  0  0  0  0
  -21.6760   -6.9910   21.4240 O   0  0  0  0  0  0  0  0  0  0  0  0
  -21.6160   -6.2570   22.5810 C   0  0  0  0  0  0  0  0  0  0  0  0
  -21.1850   -6.8210   23.8010 C   0  0  0  0  0  3  0  0  0  0  0  0
  -21.0720   -6.0130   24.9500 C   0  0  0  0  0  3  0  0  0  0  0  0
  -21.3820   -4.6420   24.8800 C   0  0  0  0  0  0  0  0  0  0  0  0
  -21.8060   -4.0770   23.6640 C   0  0  0  0  0  3  0  0  0  0  0  0
  -21.9200   -4.8820   22.5170 C   0  0  0  0  0  0  0  0  0  0  0  0
  -22.3090   -4.3280   21.3440 F   0  0  0  0  0  0  0  0  0  0  0  0
  -21.2670   -3.8630   25.9810 F   0  0  0  0  0  0  0  0  0  0  0  0
  -22.7630  -13.6250   21.0310 C   0  0  0  0  0  0  0  0  0  0  0  0
  -22.0240  -12.9370   21.8950 N   0  0  0  0  0  0  0  0  0  0  0  0
  -22.3320  -14.6430   20.4920 O   0  0  0  0  0  0  0  0  0  0  0  0
  -22.3860  -12.1140   22.3520 H   0  0  0  0  0  0  0  0  0  0  0  0
  -21.0830  -13.2410   22.1020 H   0  0  0  0  0  0  0  0  0  0  0  0
  -25.3980  -15.2890   20.2370 N   0  0  0  0  0  0  0  0  0  0  0  0
  -24.6350  -15.9490   20.3420 H   0  0  0  0  0  0  0  0  0  0  0  0
  -26.2630  -15.7260   19.9450 H   0  0  0  0  0  0  0  0  0  0  0  0
  -28.2990  -26.2690   20.2830 O   0  0  0  0  0  0  0  0  0  0  0  0
  -24.6350  -31.8650   23.2450 C   0  0  0  0  0  0  0  0  0  0  0  0
  -27.2050  -27.1900   20.1840 C   0  0  0  0  0  0  0  0  0  0  0  0
  -23.4230  -30.4710   21.6080 C   0  0  0  0  0  3  0  0  0  0  0  0
  -24.8630  -28.9000   20.1670 C   0  0  0  0  0  0  0  0  0  0  0  0
  -25.9700  -30.7510   21.4210 C   0  0  0  0  0  2  0  0  0  0  0  0
  -26.0410  -29.3620   20.7670 C   0  0  0  0  0  0  0  0  0  0  0  0
  -27.2090  -28.5200   20.7600 C   0  0  0  0  0  3  0  0  0  0  0  0
  -26.0050  -26.8160   19.5440 C   0  0  0  0  0  3  0  0  0  0  0  0
  -24.8570  -27.6420   19.5400 C   0  0  0  0  0  3  0  0  0  0  0  0
  -23.6330  -29.7930   20.2270 C   0  0  0  0  0  2  0  0  0  0  0  0
  -24.6960  -31.0510   22.1470 N   0  0  0  0  0  0  0  0  0  0  0  0
  -23.5530  -32.1470   23.7830 O   0  0  0  0  0  0  0  0  0  0  0  0
  -22.7560  -29.4620   22.5750 C   0  0  0  0  0  0  0  0  0  0  0  0
  -21.4270  -29.2880   22.4560 N   0  0  0  0  0  0  0  0  0  0  0  0
  -23.4330  -28.8380   23.3950 O   0  0  0  0  0  0  0  0  0  0  0  0
  -20.9370  -29.8430   21.7680 H   0  0  0  0  0  0  0  0  0  0  0  0
  -18.0550  -28.0700   22.9610 C   0  0  0  0  0  0  0  0  0  0  0  0
  -20.6120  -28.3490   23.2300 C   0  0  0  0  0  3  0  0  0  0  0  0
  -20.7230  -26.9160   22.6600 C   0  0  0  0  0  2  0  0  0  0  0  0
  -19.6240  -26.5820   21.6460 C   0  0  0  0  0  2  0  0  0  0  0  0
  -18.2410  -26.7200   22.2880 C   0  0  0  0  0  2  0  0  0  0  0  0
  -19.1690  -28.8410   23.3890 C   0  0  0  0  0  0  0  0  0  0  0  0
  -18.9390  -30.1040   23.9790 C   0  0  0  0  0  3  0  0  0  0  0  0
  -17.6310  -30.5950   24.1450 C   0  0  0  0  0  3  0  0  0  0  0  0
  -16.5320  -29.8210   23.7330 C   0  0  0  0  0  3  0  0  0  0  0  0
  -16.7460  -28.5600   23.1470 C   0  0  0  0  0  3  0  0  0  0  0  0
  -25.9180  -32.5000   23.8640 C   0  0  0  0  0  3  0  0  0  0  0  0
  -25.6100  -33.9000   24.1980 N   0  0  0  0  0  0  0  0  0  0  0  0
  -25.9320  -34.9560   23.4390 C   0  0  0  0  0  0  0  0  0  0  0  0
  -26.5860  -34.8540   22.3980 O   0  0  0  0  0  0  0  0  0  0  0  0
  -25.0260  -34.0510   25.0080 H   0  0  0  0  0  0  0  0  0  0  0  0
  -24.1940  -36.7490   23.1240 C   0  0  0  0  0  1  0  0  0  0  0  0
  -25.4530  -36.3440   23.9080 C   0  0  0  0  0  3  0  0  0  0  0  0
  -27.6050  -37.2340   24.6910 C   0  0  0  0  0  1  0  0  0  0  0  0
  -26.4820  -37.3990   23.7710 N   0  0  0  0  0  0  0  0  0  0  0  0
  -26.0770  -38.3190   23.9260 H   0  0  0  0  0  0  0  0  0  0  0  0
  -26.4360  -31.7310   25.1430 C   0  0  1  0  0  0  0  0  0  0  0  0
  -25.3440  -31.5030   26.2160 C   0  0  0  0  0  1  0  0  0  0  0  0
  -27.0110  -30.3510   24.7580 C   0  0  0  0  0  1  0  0  0  0  0  0
  -27.5910  -32.5240   25.7990 C   0  0  0  0  0  1  0  0  0  0  0  0
  3  1  1  0
  3  6  1  0
  4  6  1  0
  4  2  1  0
  5  1  1  0
  5 50  1  0
  5  2  1  0
  7  8  2  0
  7  9  1  0
  8 11  1  0
  9 12  2  0
 11  6  1  0
 11 10  2  0
 12 10  1  0
 12 13  1  0
 14 13  1  0
 15 20  1  0
 16 17  1  0
 16 15  1  0
 18 17  1  0
 18 25  1  0
 18 19  1  0
 20 14  1  0
 20 19  1  0
 21 14  2  0
 22 23  2  0
 23 42  1  0
 24 23  1  0
 24 27  1  0
 25 22  1  0
 25 26  1  0
 26 24  2  0
 27 28  1  0
 28 29  2  0
 30 33  1  0
 30 29  1  0
 31 30  2  0
 32 31  1  0
 32 27  2  0
 33 34  1  0
 34 35  1  0
 35 36  2  0
 37 36  1  0
 37 41  1  0
 38 37  2  0
 39 34  2  0
 39 38  1  0
 40 39  1  0
 42 43  1  0
 43 46  1  0
 43 45  1  0
 44 42  2  0
 47 48  1  0
 47 22  1  0
 49 47  1  0
 51 62  2  0
 52 50  1  0
 52 57  1  0
 53 61  1  0
 53 63  1  0
 54 60  1  0
 54 56  1  0
 55 61  1  0
 56 55  1  0
 57 56  2  0
 58 52  2  0
 59 58  1  0
 59 54  2  0
 60 53  1  0
 61 51  1  0
 63 65  2  0
 64 63  1  0
 66 64  1  0
 67 76  2  0
 67 72  1  0
 68 64  1  0
 68 72  1  0
 69 68  1  0
 70 71  1  0
 70 69  1  0
 71 67  1  0
 72 73  2  0
 73 74  1  0
 75 74  2  0
 76 75  1  0
 77 51  1  0
 77 78  1  0
 77 87  1  0
 78 81  1  0
 79 83  1  0
 79 78  1  0
 80 79  2  0
 83 82  1  0
 85 83  1  0
 85 86  1  0
 85 84  1  0
 87 90  1  1
 87 88  1  0
 89 87  1  0
M  ISO  4   5 101  13 100  14 100  50 101
M  END
>  <TORSDO>  (87) 
F 18

>  <SCORE>  (87) 
-14.594

>  <name>  (87) 
87

>  <ligand_id>  (87) 
87

>  <original_smiles>  (87) 
[H]c1c([H])c(OC(=O)N2C([H])([H])C([H])([H])C([H])([H])C([H])(n3nc(-c4c([H])c([H])c(Oc5c([H])c([H])c(F)c([H])c5F)c([H])c4[H])c(C(=O)N([H])[H])c3N([H])[H])C2([H])[H])c([H])c(N2C([H])([H])C([H])([H])C([H])(Oc3c([H])c([H])c4c(c3[H])C([H])([H])N(C(=O)C([H])(N([H])C(=O)C([H])(N([H])C([H])([H])[H])C([H])([H])[H])C(C([H])([H])[H])(C([H])([H])[H])C([H])([H])[H])C([H])(C(=O)N([H])C3([H])c5c([H])c([H])c([H])c([H])c5C([H])([H])C([H])([H])C3([H])[H])C4([H])[H])C([H])([H])C2([H])[H])c1[H]

>  <smiles>  (87) 
[H]c1c([H])c(OC(=O)N2C([H])([H])C([H])([H])C([H])([H])C([H])(n3nc(-c4c([H])c([H])c(Oc5c([H])c([H])c(F)c([H])c5F)c([H])c4[H])c(C(=O)N([H])[H])c3N([H])[H])C2([H])[H])c([H])c(N2C([H])([H])C([H])([H])C([H])(Oc3c([H])c([H])c4c(c3[H])C([H])([H])N(C(=O)C([H])(N([H])C(=O)C([H])(N([H])C([H])([H])[H])C([H])([H])[H])C(C([H])([H])[H])(C([H])([H])[H])C([H])([H])[H])C([H])(C(=O)N([H])C3([H])c5c([H])c([H])c([H])c([H])c5C([H])([H])C([H])([H])C3([H])[H])C4([H])[H])C([H])([H])C2([H])[H])c1[H]

$$$$
88:0:0
     RDKit          3D

 96105  0  0  1  0  0  0  0  0999 V2000
  -30.2890  -19.5150   21.1340 C   0  0  0  0  0  3  0  0  0  0  0  0
  -29.7390  -20.9430   21.3560 C   0  0  0  0  0  2  0  0  0  0  0  0
  -28.7930  -16.9160   18.0460 C   0  0  0  0  0  2  0  0  0  0  0  0
  -28.3000  -18.3550   18.1470 C   0  0  0  0  0  2  0  0  0  0  0  0
  -30.2600  -16.8900   18.4680 C   0  0  0  0  0  2  0  0  0  0  0  0
  -28.6320  -20.5800   19.1990 C   0  0  0  0  0  2  0  0  0  0  0  0
  -28.5440  -19.0570   19.5150 C   0  0  0  0  0  3  0  0  0  0  0  0
  -30.3860  -17.2220   19.9680 C   0  0  0  0  0  3  0  0  0  0  0  0
  -29.7560  -18.5950   20.2650 N   0  0  0  0  0  0  0  0  0  0  0  0
  -31.3600  -19.1920   21.8860 N   0  0  0  0  0  0  0  0  0  0  0  0
  -28.7990  -21.5160   20.3390 N   0  0  2  0  0  4  0  0  0  0  0  0
  -31.7480  -19.8560   22.5410 H   0  0  0  0  0  0  0  0  0  0  0  0
  -31.7730  -18.2720   21.8780 H   0  0  0  0  0  0  0  0  0  0  0  0
  -27.8960  -21.5550   20.7880 H   0  0  0  0  0  0  0  0  0  0  0  0
  -30.7650  -14.9050   20.9040 C   0  0  0  0  0  0  0  0  0  0  0  0
  -30.6480  -12.6170   19.9910 C   0  0  0  0  0  2  0  0  0  0  0  0
  -29.8140  -12.6730   18.6930 C   0  0  0  0  0  2  0  0  0  0  0  0
  -28.3160  -12.5020   19.0110 C   0  0  0  0  0  2  0  0  0  0  0  0
  -27.8370  -13.4070   20.1780 C   0  0  0  0  0  3  0  0  0  0  0  0
  -28.8080  -13.3700   21.3790 C   0  0  0  0  0  2  0  0  0  0  0  0
  -30.1470  -13.6870   20.8750 N   0  0  0  0  0  0  0  0  0  0  0  0
  -31.9780  -15.0050   20.7130 O   0  0  0  0  0  0  0  0  0  0  0  0
  -29.9690  -16.0180   20.7810 N   0  0  0  0  0  0  0  0  0  0  0  0
  -28.9840  -15.8950   20.9540 H   0  0  0  0  0  0  0  0  0  0  0  0
  -25.3920  -13.9680   20.7170 C   0  0  0  0  0  0  0  0  0  0  0  0
  -24.3160  -13.1770   21.0160 C   0  0  0  0  0  0  0  0  0  0  0  0
  -24.8050  -11.8360   21.0320 C   0  0  0  0  0  0  0  0  0  0  0  0
  -26.4650  -13.1050   20.5700 N   0  0  0  0  0  0  0  0  0  0  0  0
  -26.1140  -11.8190   20.8230 N   0  0  0  0  0  0  0  0  0  0  0  0
  -24.0920  -10.5600   21.1790 C   0  0  0  0  0  0  0  0  0  0  0  0
  -24.4650   -9.6140   22.1600 C   0  0  0  0  0  3  0  0  0  0  0  0
  -23.7500   -8.4050   22.2940 C   0  0  0  0  0  3  0  0  0  0  0  0
  -22.6500   -8.1330   21.4460 C   0  0  0  0  0  0  0  0  0  0  0  0
  -22.3000   -9.0680   20.4550 C   0  0  0  0  0  3  0  0  0  0  0  0
  -23.0150  -10.2690   20.3200 C   0  0  0  0  0  3  0  0  0  0  0  0
  -21.9120   -6.9750   21.4880 O   0  0  0  0  0  0  0  0  0  0  0  0
  -21.7740   -6.2520   22.6450 C   0  0  0  0  0  0  0  0  0  0  0  0
  -21.1670   -6.7970   23.7980 C   0  0  0  0  0  3  0  0  0  0  0  0
  -20.9810   -5.9960   24.9420 C   0  0  0  0  0  3  0  0  0  0  0  0
  -21.3930   -4.6500   24.9340 C   0  0  0  0  0  0  0  0  0  0  0  0
  -21.9940   -4.1040   23.7850 C   0  0  0  0  0  3  0  0  0  0  0  0
  -22.1810   -4.9020   22.6430 C   0  0  0  0  0  0  0  0  0  0  0  0
  -22.7410   -4.3640   21.5330 F   0  0  0  0  0  0  0  0  0  0  0  0
  -21.2090   -3.8780   26.0300 F   0  0  0  0  0  0  0  0  0  0  0  0
  -22.8940  -13.6310   21.1730 C   0  0  0  0  0  0  0  0  0  0  0  0
  -22.1120  -12.9290   21.9860 N   0  0  0  0  0  0  0  0  0  0  0  0
  -22.4800  -14.6450   20.6130 O   0  0  0  0  0  0  0  0  0  0  0  0
  -22.4560  -12.1100   22.4660 H   0  0  0  0  0  0  0  0  0  0  0  0
  -21.1550  -13.2160   22.1330 H   0  0  0  0  0  0  0  0  0  0  0  0
  -25.5400  -15.3400   20.5340 N   0  0  0  0  0  0  0  0  0  0  0  0
  -24.7440  -15.9670   20.5700 H   0  0  0  0  0  0  0  0  0  0  0  0
  -26.3810  -15.7900   20.2060 H   0  0  0  0  0  0  0  0  0  0  0  0
  -29.1090  -22.9270   19.8360 C   0  0  0  0  0  2  0  0  0  0  0  0
  -28.5480  -24.2080   20.5860 C   0  0  0  0  0  2  0  0  0  0  0  0
  -28.7820  -25.5630   19.7900 C   0  0  0  0  0  2  0  0  0  0  0  0
  -28.6020  -26.8590   20.4540 O   0  0  0  0  0  0  0  0  0  0  0  0
  -24.6100  -32.0210   23.4250 C   0  0  0  0  0  0  0  0  0  0  0  0
  -27.4190  -27.5940   20.3800 C   0  0  0  0  0  0  0  0  0  0  0  0
  -23.4780  -30.5980   21.7530 C   0  0  0  0  0  3  0  0  0  0  0  0
  -24.9970  -29.0990   20.3490 C   0  0  0  0  0  0  0  0  0  0  0  0
  -26.0070  -31.0010   21.6180 C   0  0  0  0  0  2  0  0  0  0  0  0
  -26.1360  -29.6310   20.9650 C   0  0  0  0  0  0  0  0  0  0  0  0
  -27.3470  -28.8880   20.9720 C   0  0  0  0  0  3  0  0  0  0  0  0
  -26.2520  -27.0900   19.7650 C   0  0  0  0  0  3  0  0  0  0  0  0
  -25.0550  -27.8320   19.7450 C   0  0  0  0  0  3  0  0  0  0  0  0
  -23.7370  -29.9370   20.3740 C   0  0  0  0  0  2  0  0  0  0  0  0
  -24.7150  -31.2240   22.3230 N   0  0  0  0  0  0  0  0  0  0  0  0
  -23.5080  -32.2630   23.9410 O   0  0  0  0  0  0  0  0  0  0  0  0
  -22.8290  -29.5570   22.6940 C   0  0  0  0  0  0  0  0  0  0  0  0
  -21.5150  -29.3300   22.5270 N   0  0  0  0  0  0  0  0  0  0  0  0
  -23.5070  -28.9570   23.5330 O   0  0  0  0  0  0  0  0  0  0  0  0
  -21.0280  -29.8690   21.8260 H   0  0  0  0  0  0  0  0  0  0  0  0
  -18.1650  -28.0360   22.9540 C   0  0  0  0  0  0  0  0  0  0  0  0
  -20.7100  -28.3630   23.2740 C   0  0  0  0  0  3  0  0  0  0  0  0
  -20.8620  -26.9410   22.6900 C   0  0  0  0  0  2  0  0  0  0  0  0
  -19.7870  -26.5960   21.6520 C   0  0  0  0  0  2  0  0  0  0  0  0
  -18.3900  -26.6990   22.2710 C   0  0  0  0  0  2  0  0  0  0  0  0
  -19.2540  -28.8250   23.4120 C   0  0  0  0  0  0  0  0  0  0  0  0
  -18.9900  -30.0750   24.0110 C   0  0  0  0  0  3  0  0  0  0  0  0
  -17.6690  -30.5400   24.1570 C   0  0  0  0  0  3  0  0  0  0  0  0
  -16.5940  -29.7500   23.7140 C   0  0  0  0  0  3  0  0  0  0  0  0
  -16.8430  -28.5000   23.1200 C   0  0  0  0  0  3  0  0  0  0  0  0
  -25.8620  -32.6850   24.0770 C   0  0  0  0  0  3  0  0  0  0  0  0
  -26.3260  -31.9710   25.4060 C   0  0  1  0  0  0  0  0  0  0  0  0
  -25.1760  -31.7260   26.4120 C   0  0  0  0  0  1  0  0  0  0  0  0
  -26.9790  -30.6040   25.0940 C   0  0  0  0  0  1  0  0  0  0  0  0
  -27.4100  -32.8220   26.1070 C   0  0  0  0  0  1  0  0  0  0  0  0
  -25.5340  -34.0940   24.3350 N   0  0  0  0  0  0  0  0  0  0  0  0
  -25.9040  -35.1170   23.5520 C   0  0  0  0  0  0  0  0  0  0  0  0
  -26.6250  -34.9740   22.5610 O   0  0  0  0  0  0  0  0  0  0  0  0
  -24.8980  -34.2790   25.0970 H   0  0  0  0  0  0  0  0  0  0  0  0
  -24.2010  -36.8940   23.0310 C   0  0  0  0  0  1  0  0  0  0  0  0
  -25.3930  -36.5230   23.9280 C   0  0  0  0  0  3  0  0  0  0  0  0
  -27.4720  -37.4430   24.8530 C   0  0  0  0  0  1  0  0  0  0  0  0
  -26.4330  -37.5710   23.8350 N   0  0  0  0  0  0  0  0  0  0  0  0
  -26.0210  -38.4960   23.9150 H   0  0  0  0  0  0  0  0  0  0  0  0
  1  2  1  0
  1 10  1  0
  3  4  1  0
  3  5  1  0
  5  8  1  0
  6  7  1  0
  6 11  1  0
  7  4  1  0
  7  9  1  0
  8  9  1  0
  8 23  1  0
  9  1  1  0
 10 12  1  0
 11 14  1  1
 11  2  1  0
 13 10  1  0
 16 21  1  0
 17 18  1  0
 17 16  1  0
 18 19  1  0
 19 28  1  0
 19 20  1  0
 21 15  1  0
 21 20  1  0
 22 15  2  0
 23 15  1  0
 23 24  1  0
 25 26  2  0
 26 27  1  0
 26 45  1  0
 27 30  1  0
 28 25  1  0
 28 29  1  0
 29 27  2  0
 30 31  1  0
 31 32  2  0
 33 36  1  0
 33 32  1  0
 34 33  2  0
 35 34  1  0
 35 30  2  0
 36 37  1  0
 37 38  1  0
 38 39  2  0
 40 39  1  0
 40 44  1  0
 41 40  2  0
 42 37  2  0
 42 41  1  0
 43 42  1  0
 45 46  1  0
 46 49  1  0
 46 48  1  0
 47 45  2  0
 50 51  1  0
 50 25  1  0
 52 50  1  0
 53 11  1  0
 53 54  1  0
 55 56  1  0
 55 54  1  0
 57 68  2  0
 57 83  1  0
 58 56  1  0
 58 63  1  0
 59 67  1  0
 59 69  1  0
 60 66  1  0
 60 62  1  0
 61 67  1  0
 62 63  2  0
 62 61  1  0
 64 58  2  0
 65 64  1  0
 65 60  2  0
 66 59  1  0
 67 57  1  0
 69 71  2  0
 70 69  1  0
 70 74  1  0
 72 70  1  0
 73 82  2  0
 73 78  1  0
 74 78  1  0
 75 74  1  0
 76 77  1  0
 76 75  1  0
 77 73  1  0
 78 79  2  0
 79 80  1  0
 81 80  2  0
 82 81  1  0
 83 88  1  0
 83 84  1  0
 84 87  1  1
 84 85  1  0
 86 84  1  0
 88 91  1  0
 89 93  1  0
 89 88  1  0
 90 89  2  0
 92 93  1  0
 95 96  1  0
 95 93  1  0
 95 94  1  0
M  ISO  4  15 100  23 100  55 101  56 101
M  END
>  <TORSDO>  (88) 
F 19

>  <SCORE>  (88) 
-13.568

>  <name>  (88) 
88

>  <ligand_id>  (88) 
88

>  <original_smiles>  (88) 
[H]c1c([H])c([H])c2c(c1[H])C([H])([H])C([H])([H])C([H])([H])C2([H])N([H])C(=O)C1([H])N(C(=O)C([H])(N([H])C(=O)C([H])(N([H])C([H])([H])[H])C([H])([H])[H])C(C([H])([H])[H])(C([H])([H])[H])C([H])([H])[H])C([H])([H])c2c([H])c(OC([H])([H])C([H])([H])C([H])([H])[N+]3([H])C([H])([H])C(=[N+]([H])[H])N4C([H])(N([H])C(=O)N5C([H])([H])C([H])([H])C([H])([H])C([H])(n6nc(-c7c([H])c([H])c(Oc8c([H])c([H])c(F)c([H])c8F)c([H])c7[H])c(C(=O)N([H])[H])c6N([H])[H])C5([H])[H])C([H])([H])C([H])([H])C([H])([H])C4([H])C3([H])[H])c([H])c([H])c2C1([H])[H]

>  <smiles>  (88) 
[H]c1c([H])c([H])c2c(c1[H])C([H])([H])C([H])([H])C([H])([H])C2([H])N([H])C(=O)C1([H])N(C(=O)C([H])(N([H])C(=O)C([H])(N([H])C([H])([H])[H])C([H])([H])[H])C(C([H])([H])[H])(C([H])([H])[H])C([H])([H])[H])C([H])([H])c2c([H])c(OC([H])([H])C([H])([H])C([H])([H])[N+]3([H])C([H])([H])C(=[N+]([H])[H])N4C([H])(N([H])C(=O)N5C([H])([H])C([H])([H])C([H])([H])C([H])(n6nc(-c7c([H])c([H])c(Oc8c([H])c([H])c(F)c([H])c8F)c([H])c7[H])c(C(=O)N([H])[H])c6N([H])[H])C5([H])[H])C([H])([H])C([H])([H])C([H])([H])C4([H])C3([H])[H])c([H])c([H])c2C1([H])[H]

$$$$
89:0:0
     RDKit          3D

 92100  0  0  1  0  0  0  0  0999 V2000
  -28.9640  -21.5520   20.6720 C   0  0  0  0  0  2  0  0  0  0  0  0
  -30.3740  -19.4430   19.6870 C   0  0  0  0  0  3  0  0  0  0  0  0
  -30.5820  -18.0180   19.6060 C   0  0  0  0  0  3  0  0  0  0  0  0
  -28.4940  -19.0710   21.1240 C   0  0  0  0  0  3  0  0  0  0  0  0
  -29.3040  -20.0140   20.4450 C   0  0  0  0  0  0  0  0  0  0  0  0
  -28.7050  -17.6660   21.0730 C   0  0  0  0  0  0  0  0  0  0  0  0
  -29.7480  -17.0870   20.2990 C   0  0  0  0  0  0  0  0  0  0  0  0
  -27.7900  -16.7730   21.8980 C   0  0  0  0  0  1  0  0  0  0  0  0
  -30.5170  -14.6410   19.6210 C   0  0  0  0  0  0  0  0  0  0  0  0
  -30.1470  -12.4680   18.4530 C   0  0  0  0  0  2  0  0  0  0  0  0
  -29.0520  -12.6780   17.3810 C   0  0  0  0  0  2  0  0  0  0  0  0
  -27.6420  -12.5230   17.9860 C   0  0  0  0  0  2  0  0  0  0  0  0
  -27.4730  -13.3110   19.3110 C   0  0  0  0  0  3  0  0  0  0  0  0
  -28.6580  -13.0500   20.2690 C   0  0  0  0  0  2  0  0  0  0  0  0
  -29.8940  -13.4190   19.5540 N   0  0  0  0  0  0  0  0  0  0  0  0
  -31.5980  -14.8460   19.0580 O   0  0  0  0  0  0  0  0  0  0  0  0
  -29.7950  -15.6180   20.2570 N   0  0  0  0  0  0  0  0  0  0  0  0
  -29.0280  -15.2030   20.7640 H   0  0  0  0  0  0  0  0  0  0  0  0
  -25.2180  -13.9290   20.3760 C   0  0  0  0  0  0  0  0  0  0  0  0
  -24.1760  -13.1650   20.8290 C   0  0  0  0  0  0  0  0  0  0  0  0
  -24.5670  -11.8070   20.6230 C   0  0  0  0  0  0  0  0  0  0  0  0
  -26.1840  -13.0360   19.9420 N   0  0  0  0  0  0  0  0  0  0  0  0
  -25.8030  -11.7480   20.1430 N   0  0  0  0  0  0  0  0  0  0  0  0
  -23.8090  -10.5610   20.7960 C   0  0  0  0  0  0  0  0  0  0  0  0
  -24.2820   -9.5190   21.6230 C   0  0  0  0  0  3  0  0  0  0  0  0
  -23.5280   -8.3380   21.7860 C   0  0  0  0  0  3  0  0  0  0  0  0
  -22.2860   -8.1920   21.1240 C   0  0  0  0  0  0  0  0  0  0  0  0
  -21.8310   -9.2230   20.2830 C   0  0  0  0  0  3  0  0  0  0  0  0
  -22.5850  -10.3950   20.1170 C   0  0  0  0  0  3  0  0  0  0  0  0
  -21.4960   -7.0700   21.2050 O   0  0  0  0  0  0  0  0  0  0  0  0
  -21.4800   -6.2810   22.3270 C   0  0  0  0  0  0  0  0  0  0  0  0
  -21.1590   -6.8020   23.6010 C   0  0  0  0  0  3  0  0  0  0  0  0
  -21.0880   -5.9420   24.7150 C   0  0  0  0  0  3  0  0  0  0  0  0
  -21.3280   -4.5630   24.5580 C   0  0  0  0  0  0  0  0  0  0  0  0
  -21.6410   -4.0430   23.2890 C   0  0  0  0  0  3  0  0  0  0  0  0
  -21.7160   -4.9000   22.1770 C   0  0  0  0  0  0  0  0  0  0  0  0
  -21.9980   -4.3900   20.9550 F   0  0  0  0  0  0  0  0  0  0  0  0
  -21.2520   -3.7370   25.6260 F   0  0  0  0  0  0  0  0  0  0  0  0
  -22.8520  -13.6690   21.3270 C   0  0  0  0  0  0  0  0  0  0  0  0
  -22.2240  -12.9410   22.2460 N   0  0  0  0  0  0  0  0  0  0  0  0
  -22.3870  -14.7400   20.9370 O   0  0  0  0  0  0  0  0  0  0  0  0
  -22.6110  -12.0710   22.5810 H   0  0  0  0  0  0  0  0  0  0  0  0
  -21.3440  -13.2630   22.6210 H   0  0  0  0  0  0  0  0  0  0  0  0
  -25.4090  -15.3010   20.2620 N   0  0  0  0  0  0  0  0  0  0  0  0
  -24.6130  -15.9210   20.3710 H   0  0  0  0  0  0  0  0  0  0  0  0
  -26.1240  -15.6870   19.6590 H   0  0  0  0  0  0  0  0  0  0  0  0
  -29.3810  -22.6380   19.7070 N   0  0  0  0  0  4  0  0  0  0  0  0
  -29.4260  -22.1840   18.8100 H   0  0  0  0  0  0  0  0  0  0  0  0
  -30.3220  -22.9260   19.9250 H   0  0  0  0  0  0  0  0  0  0  0  0
  -28.4940  -23.8770   19.4890 C   0  0  0  0  0  2  0  0  0  0  0  0
  -28.5650  -25.1300   20.4740 C   0  0  0  0  0  2  0  0  0  0  0  0
  -28.5050  -26.5120   19.9300 O   0  0  0  0  0  0  0  0  0  0  0  0
  -24.4570  -31.6480   23.0120 C   0  0  0  0  0  0  0  0  0  0  0  0
  -27.3180  -27.2540   19.9540 C   0  0  0  0  0  0  0  0  0  0  0  0
  -23.3370  -30.2090   21.3410 C   0  0  0  0  0  3  0  0  0  0  0  0
  -24.8750  -28.7350   19.9240 C   0  0  0  0  0  0  0  0  0  0  0  0
  -25.8550  -30.6550   21.1840 C   0  0  0  0  0  2  0  0  0  0  0  0
  -26.0100  -29.2860   20.5310 C   0  0  0  0  0  0  0  0  0  0  0  0
  -27.2360  -28.5610   20.5260 C   0  0  0  0  0  3  0  0  0  0  0  0
  -26.1600  -26.7420   19.3350 C   0  0  0  0  0  3  0  0  0  0  0  0
  -24.9510  -27.4690   19.3170 C   0  0  0  0  0  3  0  0  0  0  0  0
  -23.6000  -29.5530   19.9580 C   0  0  0  0  0  2  0  0  0  0  0  0
  -24.5670  -30.8560   21.9040 N   0  0  0  0  0  0  0  0  0  0  0  0
  -23.3580  -31.8680   23.5410 O   0  0  0  0  0  0  0  0  0  0  0  0
  -22.7130  -29.1560   22.2870 C   0  0  0  0  0  0  0  0  0  0  0  0
  -21.3990  -28.9140   22.1400 N   0  0  0  0  0  0  0  0  0  0  0  0
  -23.4120  -28.5600   23.1090 O   0  0  0  0  0  0  0  0  0  0  0  0
  -20.8950  -29.4550   21.4510 H   0  0  0  0  0  0  0  0  0  0  0  0
  -18.0780  -27.5440   22.5670 C   0  0  0  0  0  0  0  0  0  0  0  0
  -20.6150  -27.9320   22.8890 C   0  0  0  0  0  3  0  0  0  0  0  0
  -20.8010  -26.5120   22.3060 C   0  0  0  0  0  2  0  0  0  0  0  0
  -19.7350  -26.1420   21.2680 C   0  0  0  0  0  2  0  0  0  0  0  0
  -18.3360  -26.2090   21.8880 C   0  0  0  0  0  2  0  0  0  0  0  0
  -19.1490  -28.3580   23.0230 C   0  0  0  0  0  0  0  0  0  0  0  0
  -18.8550  -29.6040   23.6210 C   0  0  0  0  0  3  0  0  0  0  0  0
  -17.5240  -30.0370   23.7660 C   0  0  0  0  0  3  0  0  0  0  0  0
  -16.4680  -29.2180   23.3300 C   0  0  0  0  0  3  0  0  0  0  0  0
  -16.7450  -27.9750   22.7340 C   0  0  0  0  0  3  0  0  0  0  0  0
  -25.7050  -32.3300   23.6560 C   0  0  0  0  0  3  0  0  0  0  0  0
  -26.2750  -31.5390   24.8970 C   0  0  1  0  0  0  0  0  0  0  0  0
  -25.2040  -31.1860   25.9540 C   0  0  0  0  0  1  0  0  0  0  0  0
  -26.9470  -30.2230   24.4420 C   0  0  0  0  0  1  0  0  0  0  0  0
  -27.3700  -32.3800   25.5940 C   0  0  0  0  0  1  0  0  0  0  0  0
  -25.3170  -33.6930   24.0480 N   0  0  0  0  0  0  0  0  0  0  0  0
  -25.5780  -34.7950   23.3320 C   0  0  0  0  0  0  0  0  0  0  0  0
  -26.2390  -34.7740   22.2900 O   0  0  0  0  0  0  0  0  0  0  0  0
  -24.7320  -33.7780   24.8660 H   0  0  0  0  0  0  0  0  0  0  0  0
  -23.7470  -36.4980   23.0580 C   0  0  0  0  0  1  0  0  0  0  0  0
  -25.0110  -36.1310   23.8520 C   0  0  0  0  0  3  0  0  0  0  0  0
  -27.0920  -37.1010   24.7190 C   0  0  0  0  0  1  0  0  0  0  0  0
  -25.9790  -37.2460   23.7850 N   0  0  0  0  0  0  0  0  0  0  0  0
  -25.5220  -38.1340   23.9710 H   0  0  0  0  0  0  0  0  0  0  0  0
  2  5  1  0
  3  2  2  0
  3  7  1  0
  5  1  1  0
  5  4  2  0
  6  4  1  0
  6  8  1  0
  7  6  2  0
  9 17  1  0
 10 15  1  0
 11 12  1  0
 11 10  1  0
 13 12  1  0
 13 22  1  0
 13 14  1  0
 15  9  1  0
 15 14  1  0
 16  9  2  0
 17  7  1  0
 17 18  1  0
 19 20  2  0
 20 39  1  0
 21 24  1  0
 21 20  1  0
 22 23  1  0
 22 19  1  0
 23 21  2  0
 24 25  1  0
 25 26  2  0
 27 30  1  0
 27 26  1  0
 28 27  2  0
 29 28  1  0
 29 24  2  0
 30 31  1  0
 31 32  1  0
 32 33  2  0
 34 33  1  0
 34 38  1  0
 35 34  2  0
 36 31  2  0
 36 35  1  0
 37 36  1  0
 39 40  1  0
 40 42  1  0
 40 43  1  0
 41 39  2  0
 44 45  1  0
 44 19  1  0
 46 44  1  0
 47 49  1  0
 47  1  1  0
 48 47  1  0
 50 47  1  0
 50 51  1  0
 52 54  1  0
 52 51  1  0
 53 64  2  0
 54 59  1  0
 55 63  1  0
 55 65  1  0
 56 62  1  0
 56 58  1  0
 57 63  1  0
 58 57  1  0
 59 58  2  0
 60 54  2  0
 61 60  1  0
 61 56  2  0
 62 55  1  0
 63 53  1  0
 65 67  2  0
 66 65  1  0
 68 66  1  0
 69 78  2  0
 69 74  1  0
 70 66  1  0
 70 74  1  0
 71 70  1  0
 72 73  1  0
 72 71  1  0
 73 69  1  0
 74 75  2  0
 75 76  1  0
 77 76  2  0
 78 77  1  0
 79 53  1  0
 79 84  1  0
 79 80  1  0
 80 83  1  1
 80 81  1  0
 82 80  1  0
 84 87  1  0
 85 89  1  0
 85 84  1  0
 86 85  2  0
 89 88  1  0
 91 89  1  0
 91 92  1  0
 91 90  1  0
M  ISO  4   9 100  17 100  51 101  52 101
M  END
>  <TORSDO>  (89) 
F 20

>  <SCORE>  (89) 
-8.481

>  <name>  (89) 
89

>  <ligand_id>  (89) 
89

>  <original_smiles>  (89) 
[H]c1c([H])c([H])c2c(c1[H])C([H])([H])C([H])([H])C([H])([H])C2([H])N([H])C(=O)C1([H])N(C(=O)C([H])(N([H])C(=O)C([H])(N([H])C([H])([H])[H])C([H])([H])[H])C(C([H])([H])[H])(C([H])([H])[H])C([H])([H])[H])C([H])([H])c2c([H])c(OC([H])([H])C([H])([H])[N+]([H])([H])C([H])([H])c3c([H])c([H])c(N([H])C(=O)N4C([H])([H])C([H])([H])C([H])([H])C([H])(n5nc(-c6c([H])c([H])c(Oc7c([H])c([H])c(F)c([H])c7F)c([H])c6[H])c(C(=O)N([H])[H])c5N([H])[H])C4([H])[H])c(C([H])([H])[H])c3[H])c([H])c([H])c2C1([H])[H]

>  <smiles>  (89) 
[H]c1c([H])c([H])c2c(c1[H])C([H])([H])C([H])([H])C([H])([H])C2([H])N([H])C(=O)C1([H])N(C(=O)C([H])(N([H])C(=O)C([H])(N([H])C([H])([H])[H])C([H])([H])[H])C(C([H])([H])[H])(C([H])([H])[H])C([H])([H])[H])C([H])([H])c2c([H])c(OC([H])([H])C([H])([H])[N+]([H])([H])C([H])([H])c3c([H])c([H])c(N([H])C(=O)N4C([H])([H])C([H])([H])C([H])([H])C([H])(n5nc(-c6c([H])c([H])c(Oc7c([H])c([H])c(F)c([H])c7F)c([H])c6[H])c(C(=O)N([H])[H])c5N([H])[H])C4([H])[H])c(C([H])([H])[H])c3[H])c([H])c([H])c2C1([H])[H]

$$$$
90:0:0
     RDKit          3D

 95104  0  0  1  0  0  0  0  0999 V2000
  -29.4950  -22.0130   17.5290 C   0  0  0  0  0  2  0  0  0  0  0  0
  -30.5400  -21.1370   18.2230 C   0  0  0  0  0  2  0  0  0  0  0  0
  -28.2510  -21.8910   18.4010 C   0  0  0  0  0  2  0  0  0  0  0  0
  -30.1120  -21.0050   19.7050 C   0  0  0  0  0  3  0  0  0  0  0  0
  -28.7940  -21.8250   19.8450 C   0  0  0  0  0  3  0  0  0  0  0  0
  -31.1810  -18.9210   20.6970 C   0  0  0  0  0  3  0  0  0  0  0  0
  -28.8960  -18.7340   19.8870 C   0  0  0  0  0  3  0  0  0  0  0  0
  -31.1770  -17.5540   21.0450 C   0  0  0  0  0  3  0  0  0  0  0  0
  -28.8810  -17.3730   20.2520 C   0  0  0  0  0  3  0  0  0  0  0  0
  -30.0440  -19.5260   20.1130 C   0  0  0  0  0  0  0  0  0  0  0  0
  -30.0260  -16.7690   20.8130 C   0  0  0  0  0  0  0  0  0  0  0  0
  -30.6740  -14.4330   20.5350 C   0  0  0  0  0  0  0  0  0  0  0  0
  -30.3830  -12.3020   19.3420 C   0  0  0  0  0  2  0  0  0  0  0  0
  -29.4320  -12.5230   18.1460 C   0  0  0  0  0  2  0  0  0  0  0  0
  -27.9570  -12.3860   18.5730 C   0  0  0  0  0  2  0  0  0  0  0  0
  -27.6240  -13.2110   19.8460 C   0  0  0  0  0  3  0  0  0  0  0  0
  -28.6770  -12.9460   20.9480 C   0  0  0  0  0  2  0  0  0  0  0  0
  -30.0090  -13.2550   20.3960 N   0  0  0  0  0  0  0  0  0  0  0  0
  -31.7850  -14.6450   20.0450 O   0  0  0  0  0  0  0  0  0  0  0  0
  -29.9710  -15.3940   21.1540 N   0  0  0  0  0  0  0  0  0  0  0  0
  -29.0870  -15.0680   21.5140 H   0  0  0  0  0  0  0  0  0  0  0  0
  -25.2200  -13.8290   20.5430 C   0  0  0  0  0  0  0  0  0  0  0  0
  -24.1470  -13.0620   20.9110 C   0  0  0  0  0  0  0  0  0  0  0  0
  -24.6040  -11.7090   20.8810 C   0  0  0  0  0  0  0  0  0  0  0  0
  -26.2650  -12.9450   20.3180 N   0  0  0  0  0  0  0  0  0  0  0  0
  -25.8960  -11.6640   20.5760 N   0  0  0  0  0  0  0  0  0  0  0  0
  -23.8760  -10.4490   21.0700 C   0  0  0  0  0  0  0  0  0  0  0  0
  -24.3110   -9.4780   21.9990 C   0  0  0  0  0  3  0  0  0  0  0  0
  -23.5860   -8.2790   22.1750 C   0  0  0  0  0  3  0  0  0  0  0  0
  -22.4120   -8.0440   21.4220 C   0  0  0  0  0  0  0  0  0  0  0  0
  -21.9950   -9.0030   20.4840 C   0  0  0  0  0  3  0  0  0  0  0  0
  -22.7200  -10.1940   20.3050 C   0  0  0  0  0  3  0  0  0  0  0  0
  -21.6570   -6.8990   21.5080 O   0  0  0  0  0  0  0  0  0  0  0  0
  -21.6150   -6.1490   22.6560 C   0  0  0  0  0  0  0  0  0  0  0  0
  -21.1960   -6.6950   23.8890 C   0  0  0  0  0  3  0  0  0  0  0  0
  -21.1050   -5.8710   25.0280 C   0  0  0  0  0  3  0  0  0  0  0  0
  -21.4170   -4.5020   24.9340 C   0  0  0  0  0  0  0  0  0  0  0  0
  -21.8260   -3.9540   23.7050 C   0  0  0  0  0  3  0  0  0  0  0  0
  -21.9220   -4.7760   22.5690 C   0  0  0  0  0  0  0  0  0  0  0  0
  -22.2970   -4.2400   21.3820 F   0  0  0  0  0  0  0  0  0  0  0  0
  -21.3210   -3.7080   26.0260 F   0  0  0  0  0  0  0  0  0  0  0  0
  -22.7500  -13.5430   21.1770 C   0  0  0  0  0  0  0  0  0  0  0  0
  -22.0110  -12.8490   22.0370 N   0  0  0  0  0  0  0  0  0  0  0  0
  -22.3180  -14.5710   20.6560 O   0  0  0  0  0  0  0  0  0  0  0  0
  -22.3730  -12.0200   22.4860 H   0  0  0  0  0  0  0  0  0  0  0  0
  -21.0710  -13.1520   22.2500 H   0  0  0  0  0  0  0  0  0  0  0  0
  -25.3870  -15.1980   20.3620 N   0  0  0  0  0  0  0  0  0  0  0  0
  -24.6200  -15.8530   20.4610 H   0  0  0  0  0  0  0  0  0  0  0  0
  -26.2310  -15.6270   20.0070 H   0  0  0  0  0  0  0  0  0  0  0  0
  -29.0880  -23.1690   20.4270 N   0  0  0  0  0  4  0  0  0  0  0  0
  -30.0370  -23.4050   20.1810 H   0  0  0  0  0  0  0  0  0  0  0  0
  -29.0710  -23.0620   21.4310 H   0  0  0  0  0  0  0  0  0  0  0  0
  -28.2150  -24.3160   20.0470 C   0  0  0  0  0  2  0  0  0  0  0  0
  -28.4640  -25.5730   20.9060 C   0  0  0  0  0  2  0  0  0  0  0  0
  -28.3990  -26.7650   20.1200 O   0  0  0  0  0  0  0  0  0  0  0  0
  -24.5720  -31.8830   23.2270 C   0  0  0  0  0  0  0  0  0  0  0  0
  -27.2110  -27.4530   20.1560 C   0  0  0  0  0  0  0  0  0  0  0  0
  -23.3610  -30.4780   21.5880 C   0  0  0  0  0  3  0  0  0  0  0  0
  -24.8110  -28.9310   20.1680 C   0  0  0  0  0  0  0  0  0  0  0  0
  -25.8810  -30.8420   21.3790 C   0  0  0  0  0  2  0  0  0  0  0  0
  -25.9650  -29.4690   20.7490 C   0  0  0  0  0  0  0  0  0  0  0  0
  -27.1720  -28.7370   20.7370 C   0  0  0  0  0  3  0  0  0  0  0  0
  -26.0440  -26.9170   19.5730 C   0  0  0  0  0  3  0  0  0  0  0  0
  -24.8430  -27.6520   19.5810 C   0  0  0  0  0  3  0  0  0  0  0  0
  -23.5650  -29.7870   20.2110 C   0  0  0  0  0  2  0  0  0  0  0  0
  -24.6230  -31.0840   22.1240 N   0  0  0  0  0  0  0  0  0  0  0  0
  -23.4930  -32.1560   23.7700 O   0  0  0  0  0  0  0  0  0  0  0  0
  -22.7100  -29.4610   22.5520 C   0  0  0  0  0  0  0  0  0  0  0  0
  -21.3840  -29.2860   22.4300 N   0  0  0  0  0  0  0  0  0  0  0  0
  -23.3960  -28.8300   23.3610 O   0  0  0  0  0  0  0  0  0  0  0  0
  -20.8920  -29.8480   21.7510 H   0  0  0  0  0  0  0  0  0  0  0  0
  -18.0060  -28.1190   22.9440 C   0  0  0  0  0  0  0  0  0  0  0  0
  -20.5670  -28.3490   23.2010 C   0  0  0  0  0  3  0  0  0  0  0  0
  -20.6520  -26.9220   22.6120 C   0  0  0  0  0  2  0  0  0  0  0  0
  -19.5400  -26.6170   21.6040 C   0  0  0  0  0  2  0  0  0  0  0  0
  -18.1650  -26.7710   22.2580 C   0  0  0  0  0  2  0  0  0  0  0  0
  -19.1340  -28.8670   23.3710 C   0  0  0  0  0  0  0  0  0  0  0  0
  -18.9330  -30.1310   23.9670 C   0  0  0  0  0  3  0  0  0  0  0  0
  -17.6340  -30.6450   24.1430 C   0  0  0  0  0  3  0  0  0  0  0  0
  -16.5200  -29.8930   23.7320 C   0  0  0  0  0  3  0  0  0  0  0  0
  -16.7070  -28.6320   23.1390 C   0  0  0  0  0  3  0  0  0  0  0  0
  -25.8600  -32.5090   23.8450 C   0  0  0  0  0  3  0  0  0  0  0  0
  -26.3820  -31.7330   25.1170 C   0  0  1  0  0  0  0  0  0  0  0  0
  -25.2950  -31.4980   26.1920 C   0  0  0  0  0  1  0  0  0  0  0  0
  -26.9580  -30.3550   24.7140 C   0  0  0  0  0  1  0  0  0  0  0  0
  -27.5400  -32.5200   25.7770 C   0  0  0  0  0  1  0  0  0  0  0  0
  -25.5600  -33.9080   24.1790 N   0  0  0  0  0  0  0  0  0  0  0  0
  -25.8960  -34.9590   23.4210 C   0  0  0  0  0  0  0  0  0  0  0  0
  -26.5660  -34.8550   22.3890 O   0  0  0  0  0  0  0  0  0  0  0  0
  -24.9700  -34.0640   24.9830 H   0  0  0  0  0  0  0  0  0  0  0  0
  -24.1740  -36.7550   23.0620 C   0  0  0  0  0  1  0  0  0  0  0  0
  -25.4110  -36.3470   23.8790 C   0  0  0  0  0  3  0  0  0  0  0  0
  -27.5460  -37.2210   24.7200 C   0  0  0  0  0  1  0  0  0  0  0  0
  -26.4480  -37.3980   23.7740 N   0  0  0  0  0  0  0  0  0  0  0  0
  -26.0450  -38.3200   23.9220 H   0  0  0  0  0  0  0  0  0  0  0  0
  1  2  1  0
  1  3  1  0
  2  4  1  0
  3  5  1  0
  4  5  1  0
  4 10  1  0
  5 50  1  0
  6  8  1  0
  7 10  1  0
  7  9  2  0
  9 11  1  0
 10  6  2  0
 11  8  2  0
 11 20  1  0
 12 20  1  0
 13 18  1  0
 14 15  1  0
 14 13  1  0
 16 15  1  0
 16 25  1  0
 16 17  1  0
 18 12  1  0
 18 17  1  0
 19 12  2  0
 20 21  1  0
 22 23  2  0
 23 42  1  0
 24 23  1  0
 24 27  1  0
 25 22  1  0
 25 26  1  0
 26 24  2  0
 27 28  1  0
 28 29  2  0
 30 33  1  0
 30 29  1  0
 31 30  2  0
 32 31  1  0
 32 27  2  0
 33 34  1  0
 34 35  1  0
 35 36  2  0
 37 36  1  0
 37 41  1  0
 38 37  2  0
 39 34  2  0
 39 38  1  0
 40 39  1  0
 42 43  1  0
 43 46  1  0
 43 45  1  0
 44 42  2  0
 47 48  1  0
 47 22  1  0
 49 47  1  0
 50 52  1  0
 51 50  1  0
 53 50  1  0
 53 54  1  0
 55 57  1  0
 55 54  1  0
 56 67  2  0
 57 62  1  0
 58 66  1  0
 58 68  1  0
 59 65  1  0
 59 61  1  0
 60 66  1  0
 61 60  1  0
 62 61  2  0
 63 64  1  0
 63 57  2  0
 64 59  2  0
 65 58  1  0
 66 56  1  0
 68 70  2  0
 69 68  1  0
 71 69  1  0
 72 81  2  0
 72 77  1  0
 73 69  1  0
 73 77  1  0
 74 73  1  0
 75 76  1  0
 75 74  1  0
 76 72  1  0
 77 78  2  0
 78 79  1  0
 80 79  2  0
 81 80  1  0
 82 56  1  0
 82 87  1  0
 82 83  1  0
 83 86  1  1
 83 84  1  0
 85 83  1  0
 87 90  1  0
 88 92  1  0
 88 87  1  0
 89 88  2  0
 92 91  1  0
 94 92  1  0
 94 95  1  0
 94 93  1  0
M  ISO  4  12 100  20 100  54 101  55 101
M  END
>  <TORSDO>  (90) 
F 20

>  <SCORE>  (90) 
-14.161

>  <name>  (90) 
90

>  <ligand_id>  (90) 
90

>  <original_smiles>  (90) 
[H]c1c([H])c([H])c2c(c1[H])C([H])([H])C([H])([H])C([H])([H])C2([H])N([H])C(=O)C1([H])N(C(=O)C([H])(N([H])C(=O)C([H])(N([H])C([H])([H])[H])C([H])([H])[H])C(C([H])([H])[H])(C([H])([H])[H])C([H])([H])[H])C([H])([H])c2c([H])c(OC([H])([H])C([H])([H])[N+]([H])([H])C3([H])C([H])([H])C([H])([H])C([H])([H])C3([H])c3c([H])c([H])c(N([H])C(=O)N4C([H])([H])C([H])([H])C([H])([H])C([H])(n5nc(-c6c([H])c([H])c(Oc7c([H])c([H])c(F)c([H])c7F)c([H])c6[H])c(C(=O)N([H])[H])c5N([H])[H])C4([H])[H])c([H])c3[H])c([H])c([H])c2C1([H])[H]

>  <smiles>  (90) 
[H]c1c([H])c([H])c2c(c1[H])C([H])([H])C([H])([H])C([H])([H])C2([H])N([H])C(=O)C1([H])N(C(=O)C([H])(N([H])C(=O)C([H])(N([H])C([H])([H])[H])C([H])([H])[H])C(C([H])([H])[H])(C([H])([H])[H])C([H])([H])[H])C([H])([H])c2c([H])c(OC([H])([H])C([H])([H])[N+]([H])([H])C3([H])C([H])([H])C([H])([H])C([H])([H])C3([H])c3c([H])c([H])c(N([H])C(=O)N4C([H])([H])C([H])([H])C([H])([H])C([H])(n5nc(-c6c([H])c([H])c(Oc7c([H])c([H])c(F)c([H])c7F)c([H])c6[H])c(C(=O)N([H])[H])c5N([H])[H])C4([H])[H])c([H])c3[H])c([H])c([H])c2C1([H])[H]

$$$$
91:0:0
     RDKit          3D

 92100  0  0  1  0  0  0  0  0999 V2000
  -28.9880  -21.7130   20.4490 N   0  0  0  0  0  4  0  0  0  0  0  0
  -28.3960  -21.4960   19.6630 H   0  0  0  0  0  0  0  0  0  0  0  0
  -29.9430  -21.7210   20.1310 H   0  0  0  0  0  0  0  0  0  0  0  0
  -28.8230  -20.6450   21.4710 C   0  0  0  0  0  2  0  0  0  0  0  0
  -28.4770  -18.2230   20.7040 C   0  0  0  0  0  3  0  0  0  0  0  0
  -30.7080  -18.9200   21.3760 C   0  0  0  0  0  3  0  0  0  0  0  0
  -28.9250  -16.8880   20.5870 C   0  0  0  0  0  3  0  0  0  0  0  0
  -31.1550  -17.5840   21.2680 C   0  0  0  0  0  3  0  0  0  0  0  0
  -29.3580  -19.2500   21.1210 C   0  0  0  0  0  0  0  0  0  0  0  0
  -30.2650  -16.5570   20.8820 C   0  0  0  0  0  0  0  0  0  0  0  0
  -30.9060  -14.4760   19.8100 C   0  0  0  0  0  0  0  0  0  0  0  0
  -30.3670  -12.4290   18.5350 C   0  0  0  0  0  2  0  0  0  0  0  0
  -29.2930  -12.6980   17.4650 C   0  0  0  0  0  2  0  0  0  0  0  0
  -27.8860  -12.5400   18.0650 C   0  0  0  0  0  2  0  0  0  0  0  0
  -27.7120  -13.3350   19.3850 C   0  0  0  0  0  3  0  0  0  0  0  0
  -28.8830  -13.0630   20.3540 C   0  0  0  0  0  2  0  0  0  0  0  0
  -30.1480  -13.3560   19.6570 N   0  0  0  0  0  0  0  0  0  0  0  0
  -31.8520  -14.7510   19.0660 O   0  0  0  0  0  0  0  0  0  0  0  0
  -30.6880  -15.2000   20.9160 N   0  0  0  0  0  0  0  0  0  0  0  0
  -31.4700  -15.0740   21.5430 H   0  0  0  0  0  0  0  0  0  0  0  0
  -25.4240  -13.9410   20.3980 C   0  0  0  0  0  0  0  0  0  0  0  0
  -24.3940  -13.1670   20.8620 C   0  0  0  0  0  0  0  0  0  0  0  0
  -24.8220  -11.8130   20.7140 C   0  0  0  0  0  0  0  0  0  0  0  0
  -26.4190  -13.0590   20.0050 N   0  0  0  0  0  0  0  0  0  0  0  0
  -26.0650  -11.7700   20.2480 N   0  0  0  0  0  0  0  0  0  0  0  0
  -24.1000  -10.5520   20.9300 C   0  0  0  0  0  0  0  0  0  0  0  0
  -24.5750   -9.5720   21.8260 C   0  0  0  0  0  3  0  0  0  0  0  0
  -23.8520   -8.3770   22.0310 C   0  0  0  0  0  3  0  0  0  0  0  0
  -22.6380   -8.1560   21.3390 C   0  0  0  0  0  0  0  0  0  0  0  0
  -22.1790   -9.1270   20.4320 C   0  0  0  0  0  3  0  0  0  0  0  0
  -22.9040  -10.3120   20.2250 C   0  0  0  0  0  3  0  0  0  0  0  0
  -21.8830   -7.0130   21.4540 O   0  0  0  0  0  0  0  0  0  0  0  0
  -21.8290   -6.3000   22.6240 C   0  0  0  0  0  0  0  0  0  0  0  0
  -21.4000   -6.8870   23.8360 C   0  0  0  0  0  3  0  0  0  0  0  0
  -21.2950   -6.1000   25.0000 C   0  0  0  0  0  3  0  0  0  0  0  0
  -21.6080   -4.7290   24.9540 C   0  0  0  0  0  0  0  0  0  0  0  0
  -22.0310   -4.1420   23.7490 C   0  0  0  0  0  3  0  0  0  0  0  0
  -22.1380   -4.9250   22.5860 C   0  0  0  0  0  0  0  0  0  0  0  0
  -22.5250   -4.3500   21.4220 F   0  0  0  0  0  0  0  0  0  0  0  0
  -21.4990   -3.9710   26.0710 F   0  0  0  0  0  0  0  0  0  0  0  0
  -23.0490  -13.6510   21.3240 C   0  0  0  0  0  0  0  0  0  0  0  0
  -22.4220  -12.9340   22.2490 N   0  0  0  0  0  0  0  0  0  0  0  0
  -22.5690  -14.7020   20.9020 O   0  0  0  0  0  0  0  0  0  0  0  0
  -22.8260  -12.0840   22.6130 H   0  0  0  0  0  0  0  0  0  0  0  0
  -21.5260  -13.2400   22.5990 H   0  0  0  0  0  0  0  0  0  0  0  0
  -25.5840  -15.3160   20.2550 N   0  0  0  0  0  0  0  0  0  0  0  0
  -24.8290  -15.9630   20.4560 H   0  0  0  0  0  0  0  0  0  0  0  0
  -26.3600  -15.7490   19.7740 H   0  0  0  0  0  0  0  0  0  0  0  0
  -28.6370  -23.0510   21.0070 C   0  0  0  0  0  2  0  0  0  0  0  0
  -28.7550  -24.2730   20.0580 C   0  0  0  0  0  2  0  0  0  0  0  0
  -28.4430  -25.5730   20.8420 C   0  0  0  0  0  2  0  0  0  0  0  0
  -28.4980  -26.7810   20.0700 O   0  0  0  0  0  0  0  0  0  0  0  0
  -24.6380  -31.8850   23.2260 C   0  0  0  0  0  0  0  0  0  0  0  0
  -27.3310  -27.5100   20.0940 C   0  0  0  0  0  0  0  0  0  0  0  0
  -23.4380  -30.4600   21.5970 C   0  0  0  0  0  3  0  0  0  0  0  0
  -24.9030  -28.9540   20.1510 C   0  0  0  0  0  0  0  0  0  0  0  0
  -25.9530  -30.8720   21.3660 C   0  0  0  0  0  2  0  0  0  0  0  0
  -26.0610  -29.5070   20.7200 C   0  0  0  0  0  0  0  0  0  0  0  0
  -27.2800  -28.7920   20.6850 C   0  0  0  0  0  3  0  0  0  0  0  0
  -26.1590  -26.9640   19.5300 C   0  0  0  0  0  3  0  0  0  0  0  0
  -24.9460  -27.6790   19.5580 C   0  0  0  0  0  3  0  0  0  0  0  0
  -23.6420  -29.7850   20.2150 C   0  0  0  0  0  2  0  0  0  0  0  0
  -24.6950  -31.0880   22.1210 N   0  0  0  0  0  0  0  0  0  0  0  0
  -23.5600  -32.1330   23.7820 O   0  0  0  0  0  0  0  0  0  0  0  0
  -22.8230  -29.4210   22.5620 C   0  0  0  0  0  0  0  0  0  0  0  0
  -21.5030  -29.2040   22.4450 N   0  0  0  0  0  0  0  0  0  0  0  0
  -23.5280  -28.8160   23.3730 O   0  0  0  0  0  0  0  0  0  0  0  0
  -20.9940  -29.7500   21.7650 H   0  0  0  0  0  0  0  0  0  0  0  0
  -18.1650  -27.9240   22.9620 C   0  0  0  0  0  0  0  0  0  0  0  0
  -20.7160  -28.2450   23.2190 C   0  0  0  0  0  3  0  0  0  0  0  0
  -20.8530  -26.8170   22.6400 C   0  0  0  0  0  2  0  0  0  0  0  0
  -19.7500  -26.4620   21.6370 C   0  0  0  0  0  2  0  0  0  0  0  0
  -18.3710  -26.5770   22.2920 C   0  0  0  0  0  2  0  0  0  0  0  0
  -19.2660  -28.7140   23.3870 C   0  0  0  0  0  0  0  0  0  0  0  0
  -19.0200  -29.9720   23.9770 C   0  0  0  0  0  3  0  0  0  0  0  0
  -17.7040  -30.4410   24.1480 C   0  0  0  0  0  3  0  0  0  0  0  0
  -16.6160  -29.6480   23.7450 C   0  0  0  0  0  3  0  0  0  0  0  0
  -16.8480  -28.3920   23.1550 C   0  0  0  0  0  3  0  0  0  0  0  0
  -25.9200  -32.5390   23.8280 C   0  0  0  0  0  3  0  0  0  0  0  0
  -25.5860  -33.9280   24.1720 N   0  0  0  0  0  0  0  0  0  0  0  0
  -25.8810  -34.9890   23.4100 C   0  0  0  0  0  0  0  0  0  0  0  0
  -26.5340  -34.9060   22.3660 O   0  0  0  0  0  0  0  0  0  0  0  0
  -25.0090  -34.0660   24.9870 H   0  0  0  0  0  0  0  0  0  0  0  0
  -24.1070  -36.7430   23.0890 C   0  0  0  0  0  1  0  0  0  0  0  0
  -25.3680  -36.3640   23.8830 C   0  0  0  0  0  3  0  0  0  0  0  0
  -27.4930  -37.2910   24.6910 C   0  0  0  0  0  1  0  0  0  0  0  0
  -26.3770  -37.4400   23.7620 N   0  0  0  0  0  0  0  0  0  0  0  0
  -25.9520  -38.3500   23.9180 H   0  0  0  0  0  0  0  0  0  0  0  0
  -26.4780  -31.7710   25.0900 C   0  0  1  0  0  0  0  0  0  0  0  0
  -25.4040  -31.4900   26.1680 C   0  0  0  0  0  1  0  0  0  0  0  0
  -27.0990  -30.4170   24.6750 C   0  0  0  0  0  1  0  0  0  0  0  0
  -27.6110  -32.5940   25.7480 C   0  0  0  0  0  1  0  0  0  0  0  0
  1 49  1  0
  1  4  1  0
  2  1  1  0
  3  1  1  0
  5  9  1  0
  7  5  2  0
  7 10  1  0
  8  6  1  0
  9  6  2  0
  9  4  1  0
 10 19  1  0
 10  8  2  0
 11 19  1  0
 12 17  1  0
 13 14  1  0
 13 12  1  0
 15 14  1  0
 15 24  1  0
 15 16  1  0
 17 11  1  0
 17 16  1  0
 18 11  2  0
 19 20  1  0
 21 22  2  0
 22 41  1  0
 23 22  1  0
 23 26  1  0
 24 25  1  0
 24 21  1  0
 25 23  2  0
 26 27  1  0
 27 28  2  0
 29 32  1  0
 29 28  1  0
 30 29  2  0
 31 30  1  0
 31 26  2  0
 32 33  1  0
 33 34  1  0
 34 35  2  0
 36 35  1  0
 36 40  1  0
 37 36  2  0
 38 33  2  0
 38 37  1  0
 39 38  1  0
 41 42  1  0
 42 45  1  0
 42 44  1  0
 43 41  2  0
 46 21  1  0
 46 47  1  0
 48 46  1  0
 50 51  1  0
 50 49  1  0
 52 54  1  0
 52 51  1  0
 53 64  2  0
 54 59  1  0
 55 63  1  0
 55 65  1  0
 56 62  1  0
 56 58  1  0
 57 63  1  0
 58 57  1  0
 59 58  2  0
 60 61  1  0
 60 54  2  0
 61 56  2  0
 62 55  1  0
 63 53  1  0
 65 67  2  0
 66 65  1  0
 68 66  1  0
 69 78  2  0
 69 74  1  0
 70 66  1  0
 70 74  1  0
 71 70  1  0
 72 73  1  0
 72 71  1  0
 73 69  1  0
 74 75  2  0
 75 76  1  0
 77 76  2  0
 78 77  1  0
 79 53  1  0
 79 80  1  0
 79 89  1  0
 80 83  1  0
 81 85  1  0
 81 80  1  0
 82 81  2  0
 85 84  1  0
 87 85  1  0
 87 88  1  0
 87 86  1  0
 89 92  1  1
 89 90  1  0
 91 89  1  0
M  ISO  4  11 100  19 100  51 101  52 101
M  END
>  <TORSDO>  (91) 
F 21

>  <SCORE>  (91) 
-12.277

>  <name>  (91) 
91

>  <ligand_id>  (91) 
91

>  <original_smiles>  (91) 
[H]c1c([H])c([H])c2c(c1[H])C([H])([H])C([H])([H])C([H])([H])C2([H])N([H])C(=O)C1([H])N(C(=O)C([H])(N([H])C(=O)C([H])(N([H])C([H])([H])[H])C([H])([H])[H])C(C([H])([H])[H])(C([H])([H])[H])C([H])([H])[H])C([H])([H])c2c([H])c(OC([H])([H])C([H])([H])C([H])([H])[N+]([H])([H])C([H])([H])c3c([H])c([H])c(N([H])C(=O)N4C([H])([H])C([H])([H])C([H])([H])C([H])(n5nc(-c6c([H])c([H])c(Oc7c([H])c([H])c(F)c([H])c7F)c([H])c6[H])c(C(=O)N([H])[H])c5N([H])[H])C4([H])[H])c([H])c3[H])c([H])c([H])c2C1([H])[H]

>  <smiles>  (91) 
[H]c1c([H])c([H])c2c(c1[H])C([H])([H])C([H])([H])C([H])([H])C2([H])N([H])C(=O)C1([H])N(C(=O)C([H])(N([H])C(=O)C([H])(N([H])C([H])([H])[H])C([H])([H])[H])C(C([H])([H])[H])(C([H])([H])[H])C([H])([H])[H])C([H])([H])c2c([H])c(OC([H])([H])C([H])([H])C([H])([H])[N+]([H])([H])C([H])([H])c3c([H])c([H])c(N([H])C(=O)N4C([H])([H])C([H])([H])C([H])([H])C([H])(n5nc(-c6c([H])c([H])c(Oc7c([H])c([H])c(F)c([H])c7F)c([H])c6[H])c(C(=O)N([H])[H])c5N([H])[H])C4([H])[H])c([H])c3[H])c([H])c([H])c2C1([H])[H]

$$$$
92:0:0
     RDKit          3D

 99109  0  0  1  0  0  0  0  0999 V2000
  -29.2360  -21.1010   20.2220 N   0  0  0  0  0  0  0  0  0  0  0  0
  -29.9330  -21.8390   20.2420 H   0  0  0  0  0  0  0  0  0  0  0  0
  -29.4630  -17.3560   20.4620 C   0  0  0  0  0  3  0  0  0  0  0  0
  -28.9150  -18.6430   20.2670 C   0  0  0  0  0  3  0  0  0  0  0  0
  -31.6360  -18.3580   20.9020 C   0  0  0  0  0  3  0  0  0  0  0  0
  -30.8330  -17.2050   20.7790 C   0  0  0  0  0  0  0  0  0  0  0  0
  -29.7240  -19.7960   20.3960 C   0  0  0  0  0  0  0  0  0  0  0  0
  -31.0880  -19.6400   20.7170 C   0  0  0  0  0  0  0  0  0  0  0  0
  -31.8800  -20.7340   20.8510 F   0  0  0  0  0  0  0  0  0  0  0  0
  -30.5340  -14.2110   19.4380 C   0  0  0  0  0  0  0  0  0  0  0  0
  -29.7220  -12.4020   17.9640 C   0  0  0  0  0  2  0  0  0  0  0  0
  -28.5820  -12.8190   17.0190 C   0  0  0  0  0  2  0  0  0  0  0  0
  -27.2210  -12.6360   17.7080 C   0  0  0  0  0  2  0  0  0  0  0  0
  -27.1790  -13.3130   19.0980 C   0  0  0  0  0  3  0  0  0  0  0  0
  -28.4050  -12.9360   19.9510 C   0  0  0  0  0  2  0  0  0  0  0  0
  -29.6500  -13.1990   19.2020 N   0  0  0  0  0  0  0  0  0  0  0  0
  -31.2430  -14.6740   18.5350 O   0  0  0  0  0  0  0  0  0  0  0  0
  -31.8310  -14.2190   22.7880 C   0  0  0  0  0  2  0  0  0  0  0  0
  -31.9070  -15.7060   22.5080 C   0  0  0  0  0  2  0  0  0  0  0  0
  -30.6860  -13.7520   21.8930 C   0  0  0  0  0  2  0  0  0  0  0  0
  -31.4810  -15.8440   21.0410 C   0  0  0  0  0  3  0  0  0  0  0  0
  -30.6740  -14.6480   20.7220 N   0  0  0  0  0  0  0  0  0  0  0  0
  -24.9670  -13.8810   20.2880 C   0  0  0  0  0  0  0  0  0  0  0  0
  -23.9720  -13.0890   20.7980 C   0  0  0  0  0  0  0  0  0  0  0  0
  -24.3960  -11.7410   20.5900 C   0  0  0  0  0  0  0  0  0  0  0  0
  -25.9330  -13.0130   19.8020 N   0  0  0  0  0  0  0  0  0  0  0  0
  -25.6030  -11.7170   20.0410 N   0  0  0  0  0  0  0  0  0  0  0  0
  -23.6960  -10.4710   20.8270 C   0  0  0  0  0  0  0  0  0  0  0  0
  -24.2630   -9.4500   21.6210 C   0  0  0  0  0  3  0  0  0  0  0  0
  -23.5620   -8.2480   21.8490 C   0  0  0  0  0  3  0  0  0  0  0  0
  -22.2780   -8.0560   21.2840 C   0  0  0  0  0  0  0  0  0  0  0  0
  -21.7290   -9.0650   20.4750 C   0  0  0  0  0  3  0  0  0  0  0  0
  -22.4320  -10.2610   20.2440 C   0  0  0  0  0  3  0  0  0  0  0  0
  -21.5350   -6.9100   21.4300 O   0  0  0  0  0  0  0  0  0  0  0  0
  -21.6610   -6.1050   22.5340 C   0  0  0  0  0  0  0  0  0  0  0  0
  -21.4530   -6.5970   23.8410 C   0  0  0  0  0  3  0  0  0  0  0  0
  -21.5230   -5.7200   24.9420 C   0  0  0  0  0  3  0  0  0  0  0  0
  -21.7900   -4.3530   24.7390 C   0  0  0  0  0  0  0  0  0  0  0  0
  -21.9930   -3.8610   23.4370 C   0  0  0  0  0  3  0  0  0  0  0  0
  -21.9240   -4.7350   22.3390 C   0  0  0  0  0  0  0  0  0  0  0  0
  -22.0980   -4.2520   21.0850 F   0  0  0  0  0  0  0  0  0  0  0  0
  -21.8510   -3.5080   25.7950 F   0  0  0  0  0  0  0  0  0  0  0  0
  -22.6590  -13.5520   21.3590 C   0  0  0  0  0  0  0  0  0  0  0  0
  -22.1010  -12.8070   22.3070 N   0  0  0  0  0  0  0  0  0  0  0  0
  -22.1420  -14.6070   20.9920 O   0  0  0  0  0  0  0  0  0  0  0  0
  -22.5350  -11.9510   22.6210 H   0  0  0  0  0  0  0  0  0  0  0  0
  -21.2270  -13.0950   22.7230 H   0  0  0  0  0  0  0  0  0  0  0  0
  -25.1210  -15.2600   20.1780 N   0  0  0  0  0  0  0  0  0  0  0  0
  -24.4050  -15.9110   20.4790 H   0  0  0  0  0  0  0  0  0  0  0  0
  -25.9100  -15.7150   19.7360 H   0  0  0  0  0  0  0  0  0  0  0  0
  -28.1110  -21.3520   19.3340 C   0  0  0  0  0  2  0  0  0  0  0  0
  -28.3120  -23.9280   19.0220 C   0  0  0  0  0  3  0  0  0  0  0  0
  -28.4880  -22.6300   18.6350 C   0  0  0  0  0  0  0  0  0  0  0  0
  -29.1660  -22.6290   17.4160 N   0  0  0  0  0  0  0  0  0  0  0  0
  -29.3680  -23.8520   17.0340 N   0  0  0  0  0  0  0  0  0  0  0  0
  -28.8730  -24.6680   17.9980 N   0  0  0  0  0  0  0  0  0  0  0  0
  -28.9170  -26.1120   17.7940 C   0  0  0  0  0  2  0  0  0  0  0  0
  -29.4040  -26.9260   19.0110 C   0  0  0  0  0  2  0  0  0  0  0  0
  -28.5910  -26.7700   20.1740 O   0  0  0  0  0  0  0  0  0  0  0  0
  -24.6980  -31.8770   23.2410 C   0  0  0  0  0  0  0  0  0  0  0  0
  -27.4220  -27.4890   20.1730 C   0  0  0  0  0  0  0  0  0  0  0  0
  -23.5190  -30.4540   21.5920 C   0  0  0  0  0  3  0  0  0  0  0  0
  -25.0010  -28.9320   20.1840 C   0  0  0  0  0  0  0  0  0  0  0  0
  -26.0390  -30.8530   21.4100 C   0  0  0  0  0  2  0  0  0  0  0  0
  -26.1460  -29.4840   20.7730 C   0  0  0  0  0  0  0  0  0  0  0  0
  -27.3610  -28.7660   20.7710 C   0  0  0  0  0  3  0  0  0  0  0  0
  -26.2590  -26.9300   19.6110 C   0  0  0  0  0  3  0  0  0  0  0  0
  -25.0490  -27.6500   19.6070 C   0  0  0  0  0  3  0  0  0  0  0  0
  -23.7450  -29.7720   20.2180 C   0  0  0  0  0  2  0  0  0  0  0  0
  -24.7690  -31.0750   22.1400 N   0  0  0  0  0  0  0  0  0  0  0  0
  -23.6090  -32.1420   23.7690 O   0  0  0  0  0  0  0  0  0  0  0  0
  -22.8710  -29.4310   22.5540 C   0  0  0  0  0  0  0  0  0  0  0  0
  -21.5550  -29.2150   22.3960 N   0  0  0  0  0  0  0  0  0  0  0  0
  -23.5490  -28.8350   23.3960 O   0  0  0  0  0  0  0  0  0  0  0  0
  -21.0690  -29.7530   21.6920 H   0  0  0  0  0  0  0  0  0  0  0  0
  -18.2140  -27.9040   22.7830 C   0  0  0  0  0  0  0  0  0  0  0  0
  -20.7440  -28.2670   23.1590 C   0  0  0  0  0  3  0  0  0  0  0  0
  -20.9250  -26.8260   22.6280 C   0  0  0  0  0  2  0  0  0  0  0  0
  -19.8810  -26.4330   21.5770 C   0  0  0  0  0  2  0  0  0  0  0  0
  -18.4690  -26.5450   22.1570 C   0  0  0  0  0  2  0  0  0  0  0  0
  -19.2830  -28.7200   23.2380 C   0  0  0  0  0  0  0  0  0  0  0  0
  -18.9910  -29.9890   23.7790 C   0  0  0  0  0  3  0  0  0  0  0  0
  -17.6610  -30.4420   23.8820 C   0  0  0  0  0  3  0  0  0  0  0  0
  -16.6070  -29.6240   23.4420 C   0  0  0  0  0  3  0  0  0  0  0  0
  -16.8840  -28.3580   22.8960 C   0  0  0  0  0  3  0  0  0  0  0  0
  -25.9710  -32.5230   23.8700 C   0  0  0  0  0  3  0  0  0  0  0  0
  -25.6430  -33.9140   24.2090 N   0  0  0  0  0  0  0  0  0  0  0  0
  -25.9630  -34.9750   23.4580 C   0  0  0  0  0  0  0  0  0  0  0  0
  -26.6380  -34.8870   22.4270 O   0  0  0  0  0  0  0  0  0  0  0  0
  -25.0400  -34.0560   25.0070 H   0  0  0  0  0  0  0  0  0  0  0  0
  -24.2070  -36.7420   23.1130 C   0  0  0  0  0  1  0  0  0  0  0  0
  -25.4520  -36.3510   23.9240 C   0  0  0  0  0  3  0  0  0  0  0  0
  -27.5750  -37.2570   24.7580 C   0  0  0  0  0  1  0  0  0  0  0  0
  -26.4710  -37.4190   23.8160 N   0  0  0  0  0  0  0  0  0  0  0  0
  -26.0530  -38.3310   23.9790 H   0  0  0  0  0  0  0  0  0  0  0  0
  -26.5030  -31.7510   25.1370 C   0  0  1  0  0  0  0  0  0  0  0  0
  -25.4150  -31.4680   26.2000 C   0  0  0  0  0  1  0  0  0  0  0  0
  -27.1230  -30.3950   24.7250 C   0  0  0  0  0  1  0  0  0  0  0  0
  -27.6290  -32.5680   25.8140 C   0  0  0  0  0  1  0  0  0  0  0  0
  1  2  1  0
  1  7  1  0
  3  6  1  0
  4  7  1  0
  4  3  2  0
  6  5  2  0
  7  8  2  0
  8  9  1  0
  8  5  1  0
 10 22  1  0
 11 16  1  0
 12 13  1  0
 12 11  1  0
 14 13  1  0
 14 26  1  0
 14 15  1  0
 16 10  1  0
 16 15  1  0
 17 10  2  0
 19 18  1  0
 20 18  1  0
 21  6  1  0
 21 19  1  0
 22 21  1  0
 22 20  1  0
 23 24  2  0
 24 43  1  0
 25 24  1  0
 25 28  1  0
 26 27  1  0
 26 23  1  0
 27 25  2  0
 28 29  1  0
 29 30  2  0
 31 34  1  0
 31 30  1  0
 32 31  2  0
 33 32  1  0
 33 28  2  0
 34 35  1  0
 35 36  1  0
 36 37  2  0
 38 37  1  0
 38 42  1  0
 39 38  2  0
 40 35  2  0
 40 39  1  0
 41 40  1  0
 43 44  1  0
 44 46  1  0
 44 47  1  0
 45 43  2  0
 48 23  1  0
 48 49  1  0
 50 48  1  0
 51  1  1  0
 53 52  2  0
 53 51  1  0
 54 53  1  0
 55 54  2  0
 55 56  1  0
 56 52  1  0
 57 56  1  0
 57 58  1  0
 58 59  1  0
 60 71  2  0
 61 59  1  0
 61 66  1  0
 62 70  1  0
 62 72  1  0
 63 69  1  0
 63 65  1  0
 64 70  1  0
 65 64  1  0
 66 65  2  0
 67 61  2  0
 68 67  1  0
 68 63  2  0
 69 62  1  0
 70 60  1  0
 72 74  2  0
 73 72  1  0
 75 73  1  0
 76 85  2  0
 76 81  1  0
 77 73  1  0
 77 81  1  0
 78 77  1  0
 79 80  1  0
 79 78  1  0
 80 76  1  0
 81 82  2  0
 82 83  1  0
 84 83  2  0
 85 84  1  0
 86 60  1  0
 86 87  1  0
 86 96  1  0
 87 90  1  0
 88 92  1  0
 88 87  1  0
 89 88  2  0
 92 91  1  0
 94 92  1  0
 94 95  1  0
 94 93  1  0
 96 99  1  1
 96 97  1  0
 98 96  1  0
M  ISO  4  10 100  22 100  58 101  59 101
M  END
>  <TORSDO>  (92) 
F 21

>  <SCORE>  (92) 
-7.690

>  <name>  (92) 
92

>  <ligand_id>  (92) 
92

>  <original_smiles>  (92) 
[H]c1c([H])c([H])c2c(c1[H])C([H])([H])C([H])([H])C([H])([H])C2([H])N([H])C(=O)C1([H])N(C(=O)C([H])(N([H])C(=O)C([H])(N([H])C([H])([H])[H])C([H])([H])[H])C(C([H])([H])[H])(C([H])([H])[H])C([H])([H])[H])C([H])([H])c2c([H])c(OC([H])([H])C([H])([H])n3nnc(C([H])([H])N([H])c4c([H])c([H])c(C5([H])N(C(=O)N6C([H])([H])C([H])([H])C([H])([H])C([H])(n7nc(-c8c([H])c([H])c(Oc9c([H])c([H])c(F)c([H])c9F)c([H])c8[H])c(C(=O)N([H])[H])c7N([H])[H])C6([H])[H])C([H])([H])C([H])([H])C5([H])[H])c([H])c4F)c3[H])c([H])c([H])c2C1([H])[H]

>  <smiles>  (92) 
[H]c1c([H])c([H])c2c(c1[H])C([H])([H])C([H])([H])C([H])([H])C2([H])N([H])C(=O)C1([H])N(C(=O)C([H])(N([H])C(=O)C([H])(N([H])C([H])([H])[H])C([H])([H])[H])C(C([H])([H])[H])(C([H])([H])[H])C([H])([H])[H])C([H])([H])c2c([H])c(OC([H])([H])C([H])([H])n3nnc(C([H])([H])N([H])c4c([H])c([H])c(C5([H])N(C(=O)N6C([H])([H])C([H])([H])C([H])([H])C([H])(n7nc(-c8c([H])c([H])c(Oc9c([H])c([H])c(F)c([H])c9F)c([H])c8[H])c(C(=O)N([H])[H])c7N([H])[H])C6([H])[H])C([H])([H])C([H])([H])C5([H])[H])c([H])c4F)c3[H])c([H])c([H])c2C1([H])[H]

$$$$
93:0:0
     RDKit          3D

 94103  0  0  1  0  0  0  0  0999 V2000
  -31.8530  -19.0170   20.3080 C   0  0  0  0  0  3  0  0  0  0  0  0
  -30.1350  -19.4020   21.9530 C   0  0  0  0  0  3  0  0  0  0  0  0
  -32.0440  -20.4210   20.2140 C   0  0  0  0  0  3  0  0  0  0  0  0
  -30.2930  -20.8040   21.8250 C   0  0  0  0  0  3  0  0  0  0  0  0
  -30.7670  -18.5050   21.0540 C   0  0  0  0  0  0  0  0  0  0  0  0
  -31.1660  -21.3520   20.8560 C   0  0  0  0  0  0  0  0  0  0  0  0
  -30.5870  -14.9500   20.0340 C   0  0  0  0  0  0  0  0  0  0  0  0
  -30.3170  -12.7000   18.9890 C   0  0  0  0  0  2  0  0  0  0  0  0
  -29.2890  -12.7180   17.8380 C   0  0  0  0  0  2  0  0  0  0  0  0
  -27.8670  -12.4440   18.3820 C   0  0  0  0  0  2  0  0  0  0  0  0
  -27.5080  -13.3240   19.5920 C   0  0  0  0  0  3  0  0  0  0  0  0
  -28.6610  -13.3920   20.6380 C   0  0  0  0  0  2  0  0  0  0  0  0
  -29.9270  -13.7390   19.9600 N   0  0  0  0  0  0  0  0  0  0  0  0
  -31.8130  -15.0110   19.9150 O   0  0  0  0  0  0  0  0  0  0  0  0
  -28.3500  -17.4490   18.4060 C   0  0  0  0  0  2  0  0  0  0  0  0
  -29.2710  -18.3490   19.1420 C   0  0  0  0  0  2  0  0  0  0  0  0
  -28.6470  -16.1100   19.0360 C   0  0  0  0  0  2  0  0  0  0  0  0
  -29.7700  -17.5470   20.3650 C   0  0  0  0  0  3  0  0  0  0  0  0
  -29.8030  -16.0980   19.9430 N   0  0  0  0  0  0  0  0  0  0  0  0
  -25.1940  -13.9530   20.5070 C   0  0  0  0  0  0  0  0  0  0  0  0
  -24.1530  -13.1710   20.9140 C   0  0  0  0  0  0  0  0  0  0  0  0
  -24.6210  -11.8270   20.8260 C   0  0  0  0  0  0  0  0  0  0  0  0
  -26.2180  -13.0650   20.1910 N   0  0  0  0  0  0  0  0  0  0  0  0
  -25.8910  -11.7900   20.4550 N   0  0  0  0  0  0  0  0  0  0  0  0
  -23.9270  -10.5580   21.0120 C   0  0  0  0  0  0  0  0  0  0  0  0
  -24.4030   -9.5970   21.9280 C   0  0  0  0  0  3  0  0  0  0  0  0
  -23.7170   -8.3780   22.0940 C   0  0  0  0  0  3  0  0  0  0  0  0
  -22.5440   -8.1190   21.3470 C   0  0  0  0  0  0  0  0  0  0  0  0
  -22.0940   -9.0690   20.4160 C   0  0  0  0  0  3  0  0  0  0  0  0
  -22.7800  -10.2820   20.2460 C   0  0  0  0  0  3  0  0  0  0  0  0
  -21.8210   -6.9550   21.4310 O   0  0  0  0  0  0  0  0  0  0  0  0
  -21.7620   -6.2310   22.5940 C   0  0  0  0  0  0  0  0  0  0  0  0
  -21.2680   -6.7870   23.7940 C   0  0  0  0  0  3  0  0  0  0  0  0
  -21.1640   -5.9860   24.9500 C   0  0  0  0  0  3  0  0  0  0  0  0
  -21.5400   -4.6300   24.9000 C   0  0  0  0  0  0  0  0  0  0  0  0
  -22.0250   -4.0730   23.7030 C   0  0  0  0  0  3  0  0  0  0  0  0
  -22.1320   -4.8730   22.5520 C   0  0  0  0  0  0  0  0  0  0  0  0
  -22.5800   -4.3300   21.3930 F   0  0  0  0  0  0  0  0  0  0  0  0
  -21.4340   -3.8550   26.0050 F   0  0  0  0  0  0  0  0  0  0  0  0
  -22.7660  -13.6300   21.2680 C   0  0  0  0  0  0  0  0  0  0  0  0
  -22.0860  -12.8960   22.1410 N   0  0  0  0  0  0  0  0  0  0  0  0
  -22.2980  -14.6690   20.8060 O   0  0  0  0  0  0  0  0  0  0  0  0
  -22.4790  -12.0560   22.5410 H   0  0  0  0  0  0  0  0  0  0  0  0
  -21.1570  -13.1810   22.4200 H   0  0  0  0  0  0  0  0  0  0  0  0
  -25.3280  -15.3310   20.3520 N   0  0  0  0  0  0  0  0  0  0  0  0
  -24.5610  -15.9680   20.5400 H   0  0  0  0  0  0  0  0  0  0  0  0
  -26.1560  -15.8040   20.0220 H   0  0  0  0  0  0  0  0  0  0  0  0
  -31.6410  -23.1620   19.2880 C   0  0  0  0  0  3  0  0  0  0  0  0
  -31.1140  -22.7690   20.4730 N   0  0  0  0  0  0  0  0  0  0  0  0
  -31.9240  -24.3240   18.9820 O   0  0  0  0  0  0  0  0  0  0  0  0
  -30.4610  -23.8270   21.3090 C   0  0  0  0  0  2  0  0  0  0  0  0
  -29.0110  -24.2740   20.8820 C   0  0  0  0  0  2  0  0  0  0  0  0
  -28.8310  -25.4530   19.8550 C   0  0  0  0  0  2  0  0  0  0  0  0
  -28.6110  -26.7770   20.4020 O   0  0  0  0  0  0  0  0  0  0  0  0
  -24.6070  -31.9310   23.2400 C   0  0  0  0  0  0  0  0  0  0  0  0
  -27.4000  -27.4580   20.3010 C   0  0  0  0  0  0  0  0  0  0  0  0
  -23.4610  -30.4910   21.5860 C   0  0  0  0  0  3  0  0  0  0  0  0
  -24.9720  -28.9530   20.2160 C   0  0  0  0  0  0  0  0  0  0  0  0
  -25.9860  -30.8800   21.4430 C   0  0  0  0  0  2  0  0  0  0  0  0
  -26.1080  -29.4980   20.8250 C   0  0  0  0  0  0  0  0  0  0  0  0
  -27.3170  -28.7610   20.8580 C   0  0  0  0  0  3  0  0  0  0  0  0
  -26.2330  -26.9310   19.6910 C   0  0  0  0  0  3  0  0  0  0  0  0
  -25.0330  -27.6700   19.6460 C   0  0  0  0  0  3  0  0  0  0  0  0
  -23.7140  -29.7950   20.2210 C   0  0  0  0  0  2  0  0  0  0  0  0
  -24.7020  -31.1180   22.1490 N   0  0  0  0  0  0  0  0  0  0  0  0
  -23.5090  -32.1930   23.7510 O   0  0  0  0  0  0  0  0  0  0  0  0
  -22.8010  -29.4740   22.5470 C   0  0  0  0  0  0  0  0  0  0  0  0
  -21.4800  -29.2810   22.4010 N   0  0  0  0  0  0  0  0  0  0  0  0
  -23.4760  -28.8610   23.3790 O   0  0  0  0  0  0  0  0  0  0  0  0
  -20.9970  -29.8270   21.7010 H   0  0  0  0  0  0  0  0  0  0  0  0
  -18.1050  -28.0760   22.8760 C   0  0  0  0  0  0  0  0  0  0  0  0
  -20.6600  -28.3410   23.1660 C   0  0  0  0  0  3  0  0  0  0  0  0
  -20.7700  -26.9100   22.5910 C   0  0  0  0  0  2  0  0  0  0  0  0
  -19.6770  -26.5830   21.5690 C   0  0  0  0  0  2  0  0  0  0  0  0
  -18.2910  -26.7270   22.2020 C   0  0  0  0  0  2  0  0  0  0  0  0
  -19.2190  -28.8400   23.3150 C   0  0  0  0  0  0  0  0  0  0  0  0
  -18.9940  -30.1040   23.9050 C   0  0  0  0  0  3  0  0  0  0  0  0
  -17.6870  -30.6020   24.0610 C   0  0  0  0  0  3  0  0  0  0  0  0
  -16.5880  -29.8360   23.6370 C   0  0  0  0  0  3  0  0  0  0  0  0
  -16.7970  -28.5740   23.0530 C   0  0  0  0  0  3  0  0  0  0  0  0
  -25.8680  -32.5890   23.8820 C   0  0  0  0  0  3  0  0  0  0  0  0
  -26.3720  -31.8370   25.1740 C   0  0  1  0  0  0  0  0  0  0  0  0
  -25.2610  -31.5850   26.2190 C   0  0  0  0  0  1  0  0  0  0  0  0
  -26.9910  -30.4690   24.8030 C   0  0  0  0  0  1  0  0  0  0  0  0
  -27.4940  -32.6570   25.8540 C   0  0  0  0  0  1  0  0  0  0  0  0
  -25.5280  -33.9830   24.1950 N   0  0  0  0  0  0  0  0  0  0  0  0
  -25.8550  -35.0370   23.4330 C   0  0  0  0  0  0  0  0  0  0  0  0
  -26.5470  -34.9360   22.4170 O   0  0  0  0  0  0  0  0  0  0  0  0
  -24.9160  -34.1330   24.9840 H   0  0  0  0  0  0  0  0  0  0  0  0
  -24.1070  -36.7950   23.0220 C   0  0  0  0  0  1  0  0  0  0  0  0
  -25.3340  -36.4190   23.8680 C   0  0  0  0  0  3  0  0  0  0  0  0
  -27.4330  -37.3450   24.7450 C   0  0  0  0  0  1  0  0  0  0  0  0
  -26.3520  -37.4880   23.7720 N   0  0  0  0  0  0  0  0  0  0  0  0
  -25.9280  -38.4030   23.8990 H   0  0  0  0  0  0  0  0  0  0  0  0
  1  5  1  0
  3  1  2  0
  3  6  1  0
  4  2  1  0
  5  2  2  0
  6  4  2  0
  8 13  1  0
  9 10  1  0
  9  8  1  0
 11 10  1  0
 11 23  1  0
 11 12  1  0
 13  7  1  0
 13 12  1  0
 14  7  2  0
 15 17  1  0
 15 16  1  0
 16 18  1  0
 17 19  1  0
 18  5  1  0
 19  7  1  0
 19 18  1  0
 20 21  2  0
 21 40  1  0
 22 21  1  0
 22 25  1  0
 23 24  1  0
 23 20  1  0
 24 22  2  0
 25 26  1  0
 26 27  2  0
 28 31  1  0
 28 27  1  0
 29 28  2  0
 30 29  1  0
 30 25  2  0
 31 32  1  0
 32 33  1  0
 33 34  2  0
 35 34  1  0
 35 39  1  0
 36 35  2  0
 37 32  2  0
 37 36  1  0
 38 37  1  0
 40 41  1  0
 41 44  1  0
 41 43  1  0
 42 40  2  0
 45 20  1  0
 45 46  1  0
 47 45  1  0
 48 49  1  0
 49  6  1  0
 49 51  1  0
 50 48  2  0
 52 51  1  0
 53 54  1  0
 53 52  1  0
 55 66  2  0
 56 54  1  0
 56 61  1  0
 57 65  1  0
 57 67  1  0
 58 64  1  0
 58 60  1  0
 59 65  1  0
 60 61  2  0
 60 59  1  0
 62 56  2  0
 63 62  1  0
 63 58  2  0
 64 57  1  0
 65 55  1  0
 67 69  2  0
 68 67  1  0
 70 68  1  0
 71 80  2  0
 71 76  1  0
 72 68  1  0
 72 76  1  0
 73 72  1  0
 74 75  1  0
 74 73  1  0
 75 71  1  0
 76 77  2  0
 77 78  1  0
 79 78  2  0
 80 79  1  0
 81 55  1  0
 81 86  1  0
 81 82  1  0
 82 85  1  1
 82 83  1  0
 84 82  1  0
 86 89  1  0
 87 91  1  0
 87 86  1  0
 88 87  2  0
 91 90  1  0
 93 91  1  0
 93 94  1  0
 93 92  1  0
M  ISO  4   7 100  19 100  53 101  54 101
M  END
>  <TORSDO>  (93) 
F 20

>  <SCORE>  (93) 
-13.854

>  <name>  (93) 
93

>  <ligand_id>  (93) 
93

>  <original_smiles>  (93) 
[H]C(=O)N(c1c([H])c([H])c(C2([H])N(C(=O)N3C([H])([H])C([H])([H])C([H])([H])C([H])(n4nc(-c5c([H])c([H])c(Oc6c([H])c([H])c(F)c([H])c6F)c([H])c5[H])c(C(=O)N([H])[H])c4N([H])[H])C3([H])[H])C([H])([H])C([H])([H])C2([H])[H])c([H])c1[H])C([H])([H])C([H])([H])C([H])([H])Oc1c([H])c([H])c2c(c1[H])C([H])([H])N(C(=O)C([H])(N([H])C(=O)C([H])(N([H])C([H])([H])[H])C([H])([H])[H])C(C([H])([H])[H])(C([H])([H])[H])C([H])([H])[H])C([H])(C(=O)N([H])C1([H])c3c([H])c([H])c([H])c([H])c3C([H])([H])C([H])([H])C1([H])[H])C2([H])[H]

>  <smiles>  (93) 
[H]C(=O)N(c1c([H])c([H])c(C2([H])N(C(=O)N3C([H])([H])C([H])([H])C([H])([H])C([H])(n4nc(-c5c([H])c([H])c(Oc6c([H])c([H])c(F)c([H])c6F)c([H])c5[H])c(C(=O)N([H])[H])c4N([H])[H])C3([H])[H])C([H])([H])C([H])([H])C2([H])[H])c([H])c1[H])C([H])([H])C([H])([H])C([H])([H])Oc1c([H])c([H])c2c(c1[H])C([H])([H])N(C(=O)C([H])(N([H])C(=O)C([H])(N([H])C([H])([H])[H])C([H])([H])[H])C(C([H])([H])[H])(C([H])([H])[H])C([H])([H])[H])C([H])(C(=O)N([H])C1([H])c3c([H])c([H])c([H])c([H])c3C([H])([H])C([H])([H])C1([H])[H])C2([H])[H]

$$$$
94:0:0
     RDKit          3D

 88 95  0  0  1  0  0  0  0  0999 V2000
  -28.5320  -21.0260   20.2380 C   0  0  0  0  0  2  0  0  0  0  0  0
  -30.3380  -15.3910   20.1790 C   0  0  0  0  0  0  0  0  0  0  0  0
  -30.3980  -12.9440   19.2810 C   0  0  0  0  0  2  0  0  0  0  0  0
  -29.4450  -12.7350   18.0730 C   0  0  0  0  0  2  0  0  0  0  0  0
  -28.0070  -12.4420   18.5420 C   0  0  0  0  0  2  0  0  0  0  0  0
  -27.5700  -13.3870   19.6870 C   0  0  0  0  0  3  0  0  0  0  0  0
  -28.6420  -13.5090   20.7920 C   0  0  0  0  0  2  0  0  0  0  0  0
  -29.8530  -14.0500   20.1490 N   0  0  0  0  0  0  0  0  0  0  0  0
  -31.5410  -15.5040   19.8820 O   0  0  0  0  0  0  0  0  0  0  0  0
  -28.9720  -18.1380   20.3900 C   0  0  0  0  0  0  0  0  0  0  0  0
  -27.6690  -18.2400   20.6930 N   0  0  0  0  0  4  0  0  0  0  0  0
  -29.3350  -16.6690   20.3730 N   0  0  0  0  0  0  0  0  0  0  0  0
  -29.4030  -19.5580   20.2150 N   0  0  0  0  0  0  0  0  0  0  0  0
  -27.2460  -19.1530   20.7340 H   0  0  0  0  0  0  0  0  0  0  0  0
  -27.0610  -17.4650   20.9260 H   0  0  0  0  0  0  0  0  0  0  0  0
  -28.4350  -16.2900   20.5920 H   0  0  0  0  0  0  0  0  0  0  0  0
  -30.3810  -19.6680   19.9720 H   0  0  0  0  0  0  0  0  0  0  0  0
  -25.2150  -13.9280   20.5080 C   0  0  0  0  0  0  0  0  0  0  0  0
  -24.1670  -13.1420   20.8970 C   0  0  0  0  0  0  0  0  0  0  0  0
  -24.6370  -11.7940   20.8250 C   0  0  0  0  0  0  0  0  0  0  0  0
  -26.2530  -13.0590   20.2180 N   0  0  0  0  0  0  0  0  0  0  0  0
  -25.9180  -11.7690   20.4760 N   0  0  0  0  0  0  0  0  0  0  0  0
  -23.9180  -10.5250   21.0060 C   0  0  0  0  0  0  0  0  0  0  0  0
  -24.3570   -9.5520   21.9290 C   0  0  0  0  0  3  0  0  0  0  0  0
  -23.6370   -8.3500   22.1020 C   0  0  0  0  0  3  0  0  0  0  0  0
  -22.4630   -8.1120   21.3490 C   0  0  0  0  0  0  0  0  0  0  0  0
  -22.0420   -9.0740   20.4130 C   0  0  0  0  0  3  0  0  0  0  0  0
  -22.7630  -10.2670   20.2400 C   0  0  0  0  0  3  0  0  0  0  0  0
  -21.7130   -6.9630   21.4310 O   0  0  0  0  0  0  0  0  0  0  0  0
  -21.6450   -6.2300   22.5880 C   0  0  0  0  0  0  0  0  0  0  0  0
  -21.1520   -6.7800   23.7920 C   0  0  0  0  0  3  0  0  0  0  0  0
  -21.0340   -5.9710   24.9400 C   0  0  0  0  0  3  0  0  0  0  0  0
  -21.3990   -4.6130   24.8850 C   0  0  0  0  0  0  0  0  0  0  0  0
  -21.8860   -4.0620   23.6860 C   0  0  0  0  0  3  0  0  0  0  0  0
  -22.0050   -4.8670   22.5400 C   0  0  0  0  0  0  0  0  0  0  0  0
  -22.4540   -4.3270   21.3820 F   0  0  0  0  0  0  0  0  0  0  0  0
  -21.2790   -3.8330   25.9850 F   0  0  0  0  0  0  0  0  0  0  0  0
  -22.7750  -13.6090   21.2040 C   0  0  0  0  0  0  0  0  0  0  0  0
  -22.0690  -12.9000   22.0780 N   0  0  0  0  0  0  0  0  0  0  0  0
  -22.3240  -14.6390   20.7050 O   0  0  0  0  0  0  0  0  0  0  0  0
  -22.4470  -12.0680   22.5060 H   0  0  0  0  0  0  0  0  0  0  0  0
  -21.1360  -13.1970   22.3280 H   0  0  0  0  0  0  0  0  0  0  0  0
  -25.3670  -15.3030   20.3340 N   0  0  0  0  0  0  0  0  0  0  0  0
  -24.5010  -15.8320   20.3550 H   0  0  0  0  0  0  0  0  0  0  0  0
  -25.9540  -15.5940   19.5630 H   0  0  0  0  0  0  0  0  0  0  0  0
  -28.9470  -22.7880   20.2590 C   0  0  0  0  0  3  0  0  0  0  0  0
  -27.9390  -24.3000   20.1880 C   0  0  0  0  0  3  0  0  0  0  0  0
  -28.1900  -25.9370   20.2790 O   0  0  0  0  0  0  0  0  0  0  0  0
  -24.6560  -31.9270   23.2680 C   0  0  0  0  0  0  0  0  0  0  0  0
  -27.1760  -27.0370   20.2330 C   0  0  0  0  0  0  0  0  0  0  0  0
  -23.4480  -30.5410   21.6300 C   0  0  0  0  0  3  0  0  0  0  0  0
  -24.8830  -28.9300   20.2000 C   0  0  0  0  0  0  0  0  0  0  0  0
  -26.0160  -30.7390   21.4740 C   0  0  0  0  0  2  0  0  0  0  0  0
  -26.0770  -29.3290   20.8140 C   0  0  0  0  0  0  0  0  0  0  0  0
  -27.2170  -28.4050   20.8020 C   0  0  0  0  0  3  0  0  0  0  0  0
  -25.9480  -26.7900   19.5770 C   0  0  0  0  0  3  0  0  0  0  0  0
  -24.8440  -27.6810   19.5600 C   0  0  0  0  0  3  0  0  0  0  0  0
  -23.6690  -29.8580   20.2540 C   0  0  0  0  0  2  0  0  0  0  0  0
  -24.7290  -31.0960   22.1780 N   0  0  0  0  0  0  0  0  0  0  0  0
  -23.5710  -32.2230   23.7920 O   0  0  0  0  0  0  0  0  0  0  0  0
  -22.7500  -29.5500   22.5970 C   0  0  0  0  0  0  0  0  0  0  0  0
  -21.4210  -29.3820   22.4660 N   0  0  0  0  0  0  0  0  0  0  0  0
  -23.4120  -28.9290   23.4330 O   0  0  0  0  0  0  0  0  0  0  0  0
  -20.9400  -29.9320   21.7690 H   0  0  0  0  0  0  0  0  0  0  0  0
  -18.0390  -28.1650   22.9590 C   0  0  0  0  0  0  0  0  0  0  0  0
  -20.5960  -28.4440   23.2360 C   0  0  0  0  0  3  0  0  0  0  0  0
  -20.7070  -27.0110   22.6690 C   0  0  0  0  0  2  0  0  0  0  0  0
  -19.6130  -26.6780   21.6500 C   0  0  0  0  0  2  0  0  0  0  0  0
  -18.2270  -26.8160   22.2860 C   0  0  0  0  0  2  0  0  0  0  0  0
  -19.1510  -28.9370   23.3910 C   0  0  0  0  0  0  0  0  0  0  0  0
  -18.9190  -30.1960   23.9850 C   0  0  0  0  0  3  0  0  0  0  0  0
  -17.6100  -30.6870   24.1480 C   0  0  0  0  0  3  0  0  0  0  0  0
  -16.5130  -29.9130   23.7310 C   0  0  0  0  0  3  0  0  0  0  0  0
  -16.7280  -28.6540   23.1430 C   0  0  0  0  0  3  0  0  0  0  0  0
  -25.9320  -32.5610   23.8990 C   0  0  0  0  0  3  0  0  0  0  0  0
  -25.6260  -33.9640   24.2310 N   0  0  0  0  0  0  0  0  0  0  0  0
  -25.9330  -35.0210   23.4680 C   0  0  0  0  0  0  0  0  0  0  0  0
  -26.5660  -34.9180   22.4140 O   0  0  0  0  0  0  0  0  0  0  0  0
  -25.0570  -34.1160   25.0500 H   0  0  0  0  0  0  0  0  0  0  0  0
  -24.1820  -36.8120   23.2020 C   0  0  0  0  0  1  0  0  0  0  0  0
  -25.4660  -36.4120   23.9450 C   0  0  0  0  0  3  0  0  0  0  0  0
  -27.6340  -37.3190   24.6660 C   0  0  0  0  0  1  0  0  0  0  0  0
  -26.4880  -37.4690   23.7720 N   0  0  0  0  0  0  0  0  0  0  0  0
  -26.0840  -38.3880   23.9280 H   0  0  0  0  0  0  0  0  0  0  0  0
  -26.4320  -31.7960   25.1860 C   0  0  1  0  0  0  0  0  0  0  0  0
  -25.3280  -31.5740   26.2470 C   0  0  0  0  0  1  0  0  0  0  0  0
  -27.0090  -30.4110   24.8170 C   0  0  0  0  0  1  0  0  0  0  0  0
  -27.5830  -32.5880   25.8520 C   0  0  0  0  0  1  0  0  0  0  0  0
  1 46  1  0
  2 12  1  0
  3  8  1  0
  4  5  1  0
  4  3  1  0
  6  5  1  0
  6 21  1  0
  6  7  1  0
  8  2  1  0
  8  7  1  0
  9  2  2  0
 10 11  2  0
 11 14  1  0
 11 15  1  0
 12 10  1  0
 12 16  1  0
 13  1  1  0
 13 10  1  0
 17 13  1  0
 18 19  2  0
 19 38  1  0
 20 19  1  0
 20 23  1  0
 21 22  1  0
 21 18  1  0
 22 20  2  0
 23 24  1  0
 24 25  2  0
 26 29  1  0
 26 25  1  0
 27 26  2  0
 28 27  1  0
 28 23  2  0
 29 30  1  0
 30 31  1  0
 31 32  2  0
 33 32  1  0
 33 37  1  0
 34 33  2  0
 35 30  2  0
 35 34  1  0
 36 35  1  0
 38 39  1  0
 39 42  1  0
 39 41  1  0
 40 38  2  0
 43 44  1  0
 43 18  1  0
 45 43  1  0
 47 46  2  0
 47 48  1  0
 49 60  2  0
 50 48  1  0
 50 55  1  0
 51 59  1  0
 51 61  1  0
 52 58  1  0
 52 54  1  0
 53 59  1  0
 54 53  1  0
 55 54  2  0
 56 50  2  0
 57 56  1  0
 57 52  2  0
 58 51  1  0
 59 49  1  0
 61 63  2  0
 62 61  1  0
 64 62  1  0
 65 74  2  0
 65 70  1  0
 66 62  1  0
 66 70  1  0
 67 66  1  0
 68 69  1  0
 68 67  1  0
 69 65  1  0
 70 71  2  0
 71 72  1  0
 73 72  2  0
 74 73  1  0
 75 49  1  0
 75 76  1  0
 75 85  1  0
 76 79  1  0
 77 81  1  0
 77 76  1  0
 78 77  2  0
 81 80  1  0
 83 84  1  0
 83 81  1  0
 83 82  1  0
 85 88  1  1
 85 86  1  0
 87 85  1  0
M  ISO  4   2 100  12 100  47 101  48 101
M  END
>  <TORSDO>  (94) 
F 18

>  <SCORE>  (94) 
-16.609

>  <name>  (94) 
94

>  <ligand_id>  (94) 
94

>  <original_smiles>  (94) 
[H]c1c([H])c([H])c2c(c1[H])C([H])([H])C([H])([H])C([H])([H])C2([H])N([H])C(=O)C1([H])N(C(=O)C([H])(N([H])C(=O)C([H])(N([H])C([H])([H])[H])C([H])([H])[H])C(C([H])([H])[H])(C([H])([H])[H])C([H])([H])[H])C([H])([H])c2c([H])c(OC([H])([H])C([H])([H])C([H])([H])[N+]([H])=C(N([H])[H])N([H])C(=O)N3C([H])([H])C([H])([H])C([H])([H])C([H])(n4nc(-c5c([H])c([H])c(Oc6c([H])c([H])c(F)c([H])c6F)c([H])c5[H])c(C(=O)N([H])[H])c4N([H])[H])C3([H])[H])c([H])c([H])c2C1([H])[H]

>  <smiles>  (94) 
[H]c1c([H])c([H])c2c(c1[H])C([H])([H])C([H])([H])C([H])([H])C2([H])N([H])C(=O)C1([H])N(C(=O)C([H])(N([H])C(=O)C([H])(N([H])C([H])([H])[H])C([H])([H])[H])C(C([H])([H])[H])(C([H])([H])[H])C([H])([H])[H])C([H])([H])c2c([H])c(OC([H])([H])C([H])([H])C([H])([H])[N+]([H])=C(N([H])[H])N([H])C(=O)N3C([H])([H])C([H])([H])C([H])([H])C([H])(n4nc(-c5c([H])c([H])c(Oc6c([H])c([H])c(F)c([H])c6F)c([H])c5[H])c(C(=O)N([H])[H])c4N([H])[H])C3([H])[H])c([H])c([H])c2C1([H])[H]

$$$$
95:0:0
     RDKit          3D

104114  0  0  1  0  0  0  0  0999 V2000
  -31.6640  -23.4020   21.4260 C   0  0  0  0  0  2  0  0  0  0  0  0
  -30.7420  -22.3350   20.8400 C   0  0  0  0  0  2  0  0  0  0  0  0
  -32.8190  -23.5020   20.4220 C   0  0  0  0  0  2  0  0  0  0  0  0
  -30.9790  -22.4270   19.3230 C   0  0  0  0  0  3  0  0  0  0  0  0
  -32.4200  -22.7530   19.2000 N   0  0  2  0  0  4  0  0  0  0  0  0
  -32.4590  -23.3940   18.4160 H   0  0  0  0  0  0  0  0  0  0  0  0
  -30.1490  -23.5600   18.6720 C   0  0  0  0  0  0  0  0  0  0  0  0
  -28.8190  -23.5560   18.8540 N   0  0  0  0  0  0  0  0  0  0  0  0
  -30.7270  -24.4490   18.0400 O   0  0  0  0  0  0  0  0  0  0  0  0
  -28.4200  -22.7590   19.3330 H   0  0  0  0  0  0  0  0  0  0  0  0
  -27.9020  -24.6580   18.5380 C   0  0  0  0  0  2  0  0  0  0  0  0
  -27.9360  -25.7350   19.6440 C   0  0  0  0  0  2  0  0  0  0  0  0
  -27.8510  -27.0540   19.1060 O   0  0  0  0  0  0  0  0  0  0  0  0
  -24.4880  -31.6220   23.4250 C   0  0  0  0  0  0  0  0  0  0  0  0
  -26.7040  -27.7490   19.4050 C   0  0  0  0  0  0  0  0  0  0  0  0
  -23.0880  -30.5360   21.6960 C   0  0  0  0  0  3  0  0  0  0  0  0
  -24.3570  -29.2360   19.9020 C   0  0  0  0  0  0  0  0  0  0  0  0
  -25.5910  -30.8930   21.3140 C   0  0  0  0  0  2  0  0  0  0  0  0
  -25.5770  -29.6460   20.4560 C   0  0  0  0  0  0  0  0  0  0  0  0
  -26.7550  -28.9060   20.2110 C   0  0  0  0  0  3  0  0  0  0  0  0
  -25.4730  -27.3430   18.8520 C   0  0  0  0  0  3  0  0  0  0  0  0
  -24.2970  -28.0790   19.1040 C   0  0  0  0  0  3  0  0  0  0  0  0
  -23.1440  -30.0870   20.2100 C   0  0  0  0  0  2  0  0  0  0  0  0
  -24.4110  -31.0240   22.2020 N   0  0  0  0  0  0  0  0  0  0  0  0
  -23.4720  -31.8130   24.1090 O   0  0  0  0  0  0  0  0  0  0  0  0
  -22.5010  -29.3790   22.5330 C   0  0  0  0  0  0  0  0  0  0  0  0
  -21.1990  -29.1040   22.3450 N   0  0  0  0  0  0  0  0  0  0  0  0
  -23.2130  -28.7310   23.3050 O   0  0  0  0  0  0  0  0  0  0  0  0
  -20.6820  -29.6880   21.7020 H   0  0  0  0  0  0  0  0  0  0  0  0
  -17.9830  -27.4620   22.4410 C   0  0  0  0  0  0  0  0  0  0  0  0
  -20.4450  -28.0310   22.9900 C   0  0  0  0  0  3  0  0  0  0  0  0
  -20.7920  -26.6550   22.3740 C   0  0  0  0  0  2  0  0  0  0  0  0
  -19.8480  -26.2460   21.2400 C   0  0  0  0  0  2  0  0  0  0  0  0
  -18.4020  -26.1810   21.7390 C   0  0  0  0  0  2  0  0  0  0  0  0
  -18.9430  -28.3380   23.0130 C   0  0  0  0  0  0  0  0  0  0  0  0
  -18.5030  -29.5330   23.6200 C   0  0  0  0  0  3  0  0  0  0  0  0
  -17.1330  -29.8540   23.6700 C   0  0  0  0  0  3  0  0  0  0  0  0
  -16.1850  -28.9750   23.1170 C   0  0  0  0  0  3  0  0  0  0  0  0
  -16.6110  -27.7830   22.5060 C   0  0  0  0  0  3  0  0  0  0  0  0
  -25.8480  -32.1180   24.0120 C   0  0  0  0  0  3  0  0  0  0  0  0
  -25.6890  -33.5380   24.3500 N   0  0  0  0  0  0  0  0  0  0  0  0
  -26.0910  -34.5550   23.5770 C   0  0  0  0  0  0  0  0  0  0  0  0
  -26.7070  -34.3910   22.5200 O   0  0  0  0  0  0  0  0  0  0  0  0
  -25.1470  -33.7450   25.1760 H   0  0  0  0  0  0  0  0  0  0  0  0
  -24.5300  -36.5070   23.2950 C   0  0  0  0  0  1  0  0  0  0  0  0
  -25.7560  -35.9810   24.0550 C   0  0  0  0  0  3  0  0  0  0  0  0
  -28.0020  -36.6420   24.7920 C   0  0  0  0  0  1  0  0  0  0  0  0
  -26.8790  -36.9310   23.9050 N   0  0  0  0  0  0  0  0  0  0  0  0
  -26.5690  -37.8820   24.0860 H   0  0  0  0  0  0  0  0  0  0  0  0
  -26.3230  -31.2950   25.2720 C   0  0  1  0  0  0  0  0  0  0  0  0
  -25.1950  -31.0070   26.2910 C   0  0  0  0  0  1  0  0  0  0  0  0
  -26.9260  -29.9380   24.8400 C   0  0  0  0  0  1  0  0  0  0  0  0
  -27.4420  -32.0670   26.0110 C   0  0  0  0  0  1  0  0  0  0  0  0
  -33.3400  -21.6140   18.9460 C   0  0  0  0  0  2  0  0  0  0  0  0
  -31.8220  -19.9720   20.1390 C   0  0  0  0  0  3  0  0  0  0  0  0
  -33.2610  -19.1220   18.3760 C   0  0  0  0  0  3  0  0  0  0  0  0
  -31.4150  -18.6600   20.4800 C   0  0  0  0  0  0  0  0  0  0  0  0
  -32.7770  -20.2080   19.1300 C   0  0  0  0  0  0  0  0  0  0  0  0
  -31.9620  -17.5630   19.7600 C   0  0  0  0  0  0  0  0  0  0  0  0
  -32.8360  -17.8110   18.6690 C   0  0  0  0  0  0  0  0  0  0  0  0
  -33.2720  -16.7970   17.8820 F   0  0  0  0  0  0  0  0  0  0  0  0
  -32.3850  -15.1390   20.0200 C   0  0  0  0  0  0  0  0  0  0  0  0
  -32.4140  -12.6750   20.1520 C   0  0  0  0  0  2  0  0  0  0  0  0
  -31.5900  -12.0830   18.9910 C   0  0  0  0  0  2  0  0  0  0  0  0
  -30.1030  -11.9780   19.3780 C   0  0  0  0  0  2  0  0  0  0  0  0
  -29.5470  -13.2930   19.9850 C   0  0  0  0  0  3  0  0  0  0  0  0
  -30.4940  -13.8390   21.0780 C   0  0  0  0  0  2  0  0  0  0  0  0
  -31.8360  -13.9850   20.4860 N   0  0  0  0  0  0  0  0  0  0  0  0
  -33.5030  -15.1770   19.5010 O   0  0  0  0  0  0  0  0  0  0  0  0
  -31.6030  -16.2290   20.1180 N   0  0  0  0  0  0  0  0  0  0  0  0
  -30.7390  -16.1050   20.6220 H   0  0  0  0  0  0  0  0  0  0  0  0
  -27.2660  -14.0730   20.8870 C   0  0  0  0  0  0  0  0  0  0  0  0
  -26.1220  -13.3870   21.2020 C   0  0  0  0  0  0  0  0  0  0  0  0
  -26.4120  -12.0090   20.9630 C   0  0  0  0  0  0  0  0  0  0  0  0
  -28.1860  -13.1170   20.4880 N   0  0  0  0  0  0  0  0  0  0  0  0
  -27.6770  -11.8610   20.5870 N   0  0  0  0  0  0  0  0  0  0  0  0
  -25.5420  -10.8270   21.0160 C   0  0  0  0  0  0  0  0  0  0  0  0
  -25.8110   -9.7510   21.8890 C   0  0  0  0  0  3  0  0  0  0  0  0
  -24.9480   -8.6340   21.9350 C   0  0  0  0  0  3  0  0  0  0  0  0
  -23.8020   -8.5870   21.1060 C   0  0  0  0  0  0  0  0  0  0  0  0
  -23.5520   -9.6500   20.2210 C   0  0  0  0  0  3  0  0  0  0  0  0
  -24.4140  -10.7590   20.1730 C   0  0  0  0  0  3  0  0  0  0  0  0
  -22.9240   -7.5310   21.0650 O   0  0  0  0  0  0  0  0  0  0  0  0
  -22.4460   -6.9460   22.2100 C   0  0  0  0  0  0  0  0  0  0  0  0
  -21.7110   -7.6770   23.1700 C   0  0  0  0  0  3  0  0  0  0  0  0
  -21.1800   -7.0210   24.2980 C   0  0  0  0  0  3  0  0  0  0  0  0
  -21.3720   -5.6360   24.4650 C   0  0  0  0  0  0  0  0  0  0  0  0
  -22.0990   -4.9070   23.5080 C   0  0  0  0  0  3  0  0  0  0  0  0
  -22.6310   -5.5600   22.3820 C   0  0  0  0  0  0  0  0  0  0  0  0
  -23.3120   -4.8470   21.4520 F   0  0  0  0  0  0  0  0  0  0  0  0
  -20.8560   -5.0050   25.5440 F   0  0  0  0  0  0  0  0  0  0  0  0
  -24.8060  -13.9820   21.6090 C   0  0  0  0  0  0  0  0  0  0  0  0
  -24.0550  -13.2900   22.4600 N   0  0  0  0  0  0  0  0  0  0  0  0
  -24.4540  -15.0920   21.2090 O   0  0  0  0  0  0  0  0  0  0  0  0
  -24.3530  -12.3890   22.8040 H   0  0  0  0  0  0  0  0  0  0  0  0
  -23.1720  -13.6670   22.7730 H   0  0  0  0  0  0  0  0  0  0  0  0
  -27.5910  -15.4270   20.8920 N   0  0  0  0  0  0  0  0  0  0  0  0
  -26.9170  -16.1440   21.1360 H   0  0  0  0  0  0  0  0  0  0  0  0
  -28.4800  -15.8050   20.5870 H   0  0  0  0  0  0  0  0  0  0  0  0
  -28.9290  -20.3600   21.6440 C   0  0  0  0  0  2  0  0  0  0  0  0
  -29.8320  -20.4910   22.8770 C   0  0  0  0  0  2  0  0  0  0  0  0
  -28.9980  -18.8870   21.2370 C   0  0  0  0  0  2  0  0  0  0  0  0
  -30.6940  -19.2160   22.9200 C   0  0  0  0  0  2  0  0  0  0  0  0
  -30.4110  -18.4320   21.6220 C   0  0  0  0  0  3  0  0  0  0  0  0
  2  1  1  0
  3  1  1  0
  4  7  1  0
  4  2  1  0
  5  4  1  0
  5  3  1  0
  5  6  1  6
  7  8  1  0
  8 10  1  0
  9  7  2  0
 11  8  1  0
 11 12  1  0
 13 15  1  0
 13 12  1  0
 14 25  2  0
 15 20  1  0
 16 24  1  0
 16 26  1  0
 17 23  1  0
 17 19  1  0
 18 24  1  0
 19 18  1  0
 20 19  2  0
 21 22  1  0
 21 15  2  0
 22 17  2  0
 23 16  1  0
 24 14  1  0
 26 28  2  0
 27 26  1  0
 29 27  1  0
 30 39  2  0
 30 35  1  0
 31 27  1  0
 31 35  1  0
 32 31  1  0
 33 34  1  0
 33 32  1  0
 34 30  1  0
 35 36  2  0
 36 37  1  0
 38 37  2  0
 39 38  1  0
 40 14  1  0
 40 41  1  0
 40 50  1  0
 41 44  1  0
 42 46  1  0
 42 41  1  0
 43 42  2  0
 46 45  1  0
 48 46  1  0
 48 49  1  0
 48 47  1  0
 50 53  1  1
 50 51  1  0
 52 50  1  0
 54 58  1  0
 54  5  1  0
 55 57  1  0
 56 60  2  0
 56 58  1  0
 57104  1  0
 58 55  2  0
 59 70  1  0
 59 57  2  0
 60 59  1  0
 61 60  1  0
 62 70  1  0
 62 68  1  0
 63 68  1  0
 64 65  1  0
 64 63  1  0
 66 65  1  0
 66 75  1  0
 66 67  1  0
 68 67  1  0
 69 62  2  0
 70 71  1  0
 72 97  1  0
 72 73  2  0
 73 92  1  0
 74 77  1  0
 74 73  1  0
 75 76  1  0
 75 72  1  0
 76 74  2  0
 77 78  1  0
 78 79  2  0
 80 79  1  0
 81 80  2  0
 82 81  1  0
 82 77  2  0
 83 80  1  0
 83 84  1  0
 84 89  2  0
 84 85  1  0
 85 86  2  0
 86 87  1  0
 87 91  1  0
 88 87  2  0
 89 88  1  0
 90 89  1  0
 92 93  1  0
 93 96  1  0
 93 95  1  0
 94 92  2  0
 97 98  1  0
 99 97  1  0
100101  1  0
101103  1  0
102104  1  0
102100  1  0
104103  1  0
M  ISO  4  12 101  13 101  62 100  70 100
M  END
>  <TORSDO>  (95) 
F 22

>  <SCORE>  (95) 
-7.694

>  <name>  (95) 
95

>  <ligand_id>  (95) 
95

>  <original_smiles>  (95) 
[H]c1c([H])c([H])c2c(c1[H])C([H])([H])C([H])([H])C([H])([H])C2([H])N([H])C(=O)C1([H])N(C(=O)C([H])(N([H])C(=O)C([H])(N([H])C([H])([H])[H])C([H])([H])[H])C(C([H])([H])[H])(C([H])([H])[H])C([H])([H])[H])C([H])([H])c2c([H])c(OC([H])([H])C([H])([H])N([H])C(=O)C3([H])C([H])([H])C([H])([H])C([H])([H])[N+]3([H])C([H])([H])c3c([H])c(F)c(N([H])C(=O)N4C([H])([H])C([H])([H])C([H])([H])C([H])(n5nc(-c6c([H])c([H])c(Oc7c([H])c([H])c(F)c([H])c7F)c([H])c6[H])c(C(=O)N([H])[H])c5N([H])[H])C4([H])[H])c(C4([H])C([H])([H])C([H])([H])C([H])([H])C4([H])[H])c3[H])c([H])c([H])c2C1([H])[H]

>  <smiles>  (95) 
[H]c1c([H])c([H])c2c(c1[H])C([H])([H])C([H])([H])C([H])([H])C2([H])N([H])C(=O)C1([H])N(C(=O)C([H])(N([H])C(=O)C([H])(N([H])C([H])([H])[H])C([H])([H])[H])C(C([H])([H])[H])(C([H])([H])[H])C([H])([H])[H])C([H])([H])c2c([H])c(OC([H])([H])C([H])([H])N([H])C(=O)C3([H])C([H])([H])C([H])([H])C([H])([H])[N+]3([H])C([H])([H])c3c([H])c(F)c(N([H])C(=O)N4C([H])([H])C([H])([H])C([H])([H])C([H])(n5nc(-c6c([H])c([H])c(Oc7c([H])c([H])c(F)c([H])c7F)c([H])c6[H])c(C(=O)N([H])[H])c5N([H])[H])C4([H])[H])c(C4([H])C([H])([H])C([H])([H])C([H])([H])C4([H])[H])c3[H])c([H])c([H])c2C1([H])[H]

$$$$
96:0:0
     RDKit          3D

104114  0  0  1  0  0  0  0  0999 V2000
  -30.3860  -23.0830   20.1080 C   0  0  0  0  0  0  0  0  0  0  0  0
  -30.2580  -21.8110   19.6960 N   0  0  0  0  0  0  0  0  0  0  0  0
  -29.6040  -23.5880   20.9200 O   0  0  0  0  0  0  0  0  0  0  0  0
  -30.9160  -21.4510   19.0170 H   0  0  0  0  0  0  0  0  0  0  0  0
  -30.9230  -19.0840   20.7050 C   0  0  0  0  0  3  0  0  0  0  0  0
  -31.2670  -17.7290   20.9150 C   0  0  0  0  0  3  0  0  0  0  0  0
  -29.6150  -19.4450   20.2960 C   0  0  0  0  0  0  0  0  0  0  0  0
  -28.6500  -18.4220   20.0990 C   0  0  0  0  0  0  0  0  0  0  0  0
  -30.2940  -16.7230   20.7310 C   0  0  0  0  0  0  0  0  0  0  0  0
  -28.9960  -17.0780   20.3330 C   0  0  0  0  0  0  0  0  0  0  0  0
  -27.2370  -18.7320   19.6080 C   0  0  0  0  0  2  0  0  0  0  0  0
  -27.9280  -21.0640   19.2790 C   0  0  0  0  0  2  0  0  0  0  0  0
  -29.1930  -20.9130   20.1550 C   0  0  0  0  0  3  0  0  0  0  0  0
  -26.8700  -20.1540   19.7470 N   0  0  0  0  0  4  0  0  0  0  0  0
  -28.0740  -16.1010   20.1650 F   0  0  0  0  0  0  0  0  0  0  0  0
  -26.6730  -20.3500   20.7140 H   0  0  0  0  0  0  0  0  0  0  0  0
  -26.0260  -20.3220   19.2240 H   0  0  0  0  0  0  0  0  0  0  0  0
  -31.0190  -14.4790   20.0940 C   0  0  0  0  0  0  0  0  0  0  0  0
  -30.6840  -12.2780   19.0290 C   0  0  0  0  0  2  0  0  0  0  0  0
  -29.6830  -12.4060   17.8640 C   0  0  0  0  0  2  0  0  0  0  0  0
  -28.2330  -12.2700   18.3680 C   0  0  0  0  0  2  0  0  0  0  0  0
  -27.9400  -13.1810   19.5910 C   0  0  0  0  0  3  0  0  0  0  0  0
  -29.0410  -13.0140   20.6620 C   0  0  0  0  0  2  0  0  0  0  0  0
  -30.3510  -13.2950   20.0360 N   0  0  0  0  0  0  0  0  0  0  0  0
  -32.0210  -14.7330   19.4200 O   0  0  0  0  0  0  0  0  0  0  0  0
  -30.5160  -15.3470   20.9770 N   0  0  0  0  0  0  0  0  0  0  0  0
  -29.7760  -14.9250   21.5190 H   0  0  0  0  0  0  0  0  0  0  0  0
  -25.5920  -13.8230   20.4460 C   0  0  0  0  0  0  0  0  0  0  0  0
  -24.5310  -13.0670   20.8600 C   0  0  0  0  0  0  0  0  0  0  0  0
  -24.9580  -11.7070   20.7680 C   0  0  0  0  0  0  0  0  0  0  0  0
  -26.6070  -12.9280   20.1390 N   0  0  0  0  0  0  0  0  0  0  0  0
  -26.2270  -11.6470   20.3810 N   0  0  0  0  0  0  0  0  0  0  0  0
  -24.2150  -10.4580   20.9720 C   0  0  0  0  0  0  0  0  0  0  0  0
  -24.6290   -9.5010   21.9240 C   0  0  0  0  0  3  0  0  0  0  0  0
  -23.8880   -8.3150   22.1130 C   0  0  0  0  0  3  0  0  0  0  0  0
  -22.7190   -8.0790   21.3520 C   0  0  0  0  0  0  0  0  0  0  0  0
  -22.3240   -9.0250   20.3900 C   0  0  0  0  0  3  0  0  0  0  0  0
  -23.0650  -10.2030   20.1990 C   0  0  0  0  0  3  0  0  0  0  0  0
  -21.9510   -6.9430   21.4470 O   0  0  0  0  0  0  0  0  0  0  0  0
  -21.8070   -6.2710   22.6350 C   0  0  0  0  0  0  0  0  0  0  0  0
  -21.3110   -6.9060   23.7940 C   0  0  0  0  0  3  0  0  0  0  0  0
  -21.1120   -6.1610   24.9730 C   0  0  0  0  0  3  0  0  0  0  0  0
  -21.3970   -4.7830   24.9940 C   0  0  0  0  0  0  0  0  0  0  0  0
  -21.8850   -4.1480   23.8390 C   0  0  0  0  0  3  0  0  0  0  0  0
  -22.0860   -4.8900   22.6610 C   0  0  0  0  0  0  0  0  0  0  0  0
  -22.5360   -4.2680   21.5440 F   0  0  0  0  0  0  0  0  0  0  0  0
  -21.1980   -4.0660   26.1240 F   0  0  0  0  0  0  0  0  0  0  0  0
  -23.1660  -13.5700   21.2370 C   0  0  0  0  0  0  0  0  0  0  0  0
  -22.4890  -12.8800   22.1480 N   0  0  0  0  0  0  0  0  0  0  0  0
  -22.7140  -14.6100   20.7620 O   0  0  0  0  0  0  0  0  0  0  0  0
  -22.8670  -12.0400   22.5570 H   0  0  0  0  0  0  0  0  0  0  0  0
  -21.5760  -13.2010   22.4420 H   0  0  0  0  0  0  0  0  0  0  0  0
  -25.7720  -15.1930   20.2960 N   0  0  0  0  0  0  0  0  0  0  0  0
  -25.0510  -15.8530   20.5610 H   0  0  0  0  0  0  0  0  0  0  0  0
  -26.6960  -15.6070   20.2300 H   0  0  0  0  0  0  0  0  0  0  0  0
  -33.0690  -24.3890   21.3670 C   0  0  0  0  0  2  0  0  0  0  0  0
  -32.8960  -23.5130   20.1290 C   0  0  0  0  0  2  0  0  0  0  0  0
  -32.4280  -25.7080   20.9340 C   0  0  0  0  0  2  0  0  0  0  0  0
  -31.5350  -23.9420   19.5500 C   0  0  0  0  0  3  0  0  0  0  0  0
  -31.3260  -25.3430   20.0080 N   0  0  2  0  0  4  0  0  0  0  0  0
  -30.4810  -25.2230   20.5630 H   0  0  0  0  0  0  0  0  0  0  0  0
  -31.0260  -26.3470   18.9510 C   0  0  0  0  0  2  0  0  0  0  0  0
  -30.0680  -27.4450   19.4540 C   0  0  0  0  0  2  0  0  0  0  0  0
  -28.9170  -26.7760   19.9590 O   0  0  0  0  0  0  0  0  0  0  0  0
  -24.7390  -31.6520   23.0890 C   0  0  0  0  0  0  0  0  0  0  0  0
  -27.7440  -27.4900   19.9660 C   0  0  0  0  0  0  0  0  0  0  0  0
  -23.6710  -30.2430   21.3580 C   0  0  0  0  0  3  0  0  0  0  0  0
  -25.2620  -28.8320   19.9490 C   0  0  0  0  0  0  0  0  0  0  0  0
  -26.1780  -30.7500   21.2670 C   0  0  0  0  0  2  0  0  0  0  0  0
  -26.3670  -29.4100   20.5890 C   0  0  0  0  0  0  0  0  0  0  0  0
  -27.6150  -28.7470   20.5960 C   0  0  0  0  0  3  0  0  0  0  0  0
  -26.6190  -26.9050   19.3520 C   0  0  0  0  0  3  0  0  0  0  0  0
  -25.3810  -27.5740   19.3310 C   0  0  0  0  0  3  0  0  0  0  0  0
  -23.9710  -29.6170   19.9680 C   0  0  0  0  0  2  0  0  0  0  0  0
  -24.8780  -30.8950   21.9640 N   0  0  0  0  0  0  0  0  0  0  0  0
  -23.6250  -31.8490   23.5950 O   0  0  0  0  0  0  0  0  0  0  0  0
  -23.0400  -29.1610   22.2610 C   0  0  0  0  0  0  0  0  0  0  0  0
  -21.7180  -28.9610   22.1200 N   0  0  0  0  0  0  0  0  0  0  0  0
  -23.7330  -28.5050   23.0420 O   0  0  0  0  0  0  0  0  0  0  0  0
  -21.2180  -29.5440   21.4630 H   0  0  0  0  0  0  0  0  0  0  0  0
  -18.3570  -27.7240   22.5890 C   0  0  0  0  0  0  0  0  0  0  0  0
  -20.9180  -27.9690   22.8360 C   0  0  0  0  0  3  0  0  0  0  0  0
  -21.0130  -26.5820   22.1570 C   0  0  0  0  0  2  0  0  0  0  0  0
  -19.8920  -26.3300   21.1400 C   0  0  0  0  0  2  0  0  0  0  0  0
  -18.5220  -26.4270   21.8170 C   0  0  0  0  0  2  0  0  0  0  0  0
  -19.4820  -28.4560   23.0530 C   0  0  0  0  0  0  0  0  0  0  0  0
  -19.2720  -29.6740   23.7360 C   0  0  0  0  0  3  0  0  0  0  0  0
  -17.9710  -30.1600   23.9590 C   0  0  0  0  0  3  0  0  0  0  0  0
  -16.8600  -29.4240   23.5110 C   0  0  0  0  0  3  0  0  0  0  0  0
  -17.0540  -28.2080   22.8320 C   0  0  0  0  0  3  0  0  0  0  0  0
  -25.9650  -32.3270   23.7780 C   0  0  0  0  0  3  0  0  0  0  0  0
  -26.4710  -31.5460   25.0530 C   0  0  1  0  0  0  0  0  0  0  0  0
  -25.3490  -31.2150   26.0650 C   0  0  0  0  0  1  0  0  0  0  0  0
  -27.1450  -30.2160   24.6440 C   0  0  0  0  0  1  0  0  0  0  0  0
  -27.5460  -32.3810   25.7870 C   0  0  0  0  0  1  0  0  0  0  0  0
  -25.5760  -33.6990   24.1290 N   0  0  0  0  0  0  0  0  0  0  0  0
  -25.8690  -34.7820   23.3950 C   0  0  0  0  0  0  0  0  0  0  0  0
  -26.5630  -34.7340   22.3760 O   0  0  0  0  0  0  0  0  0  0  0  0
  -24.9570  -33.8070   24.9190 H   0  0  0  0  0  0  0  0  0  0  0  0
  -24.0470  -36.4780   23.0420 C   0  0  0  0  0  1  0  0  0  0  0  0
  -25.2970  -36.1330   23.8660 C   0  0  0  0  0  3  0  0  0  0  0  0
  -27.3660  -37.1220   24.7420 C   0  0  0  0  0  1  0  0  0  0  0  0
  -26.2710  -37.2440   23.7840 N   0  0  0  0  0  0  0  0  0  0  0  0
  -25.8120  -38.1370   23.9400 H   0  0  0  0  0  0  0  0  0  0  0  0
  1  3  2  0
  2  1  1  0
  4  2  1  0
  5  6  1  0
  7  5  2  0
  8  7  1  0
  8 10  2  0
  9  6  2  0
  9 26  1  0
 10  9  1  0
 11 14  1  0
 11  8  1  0
 12 14  1  0
 12 13  1  0
 13  2  1  0
 13  7  1  0
 14 16  1  0
 15 10  1  0
 17 14  1  0
 18 26  1  0
 19 24  1  0
 20 21  1  0
 20 19  1  0
 22 21  1  0
 22 31  1  0
 22 23  1  0
 24 18  1  0
 24 23  1  0
 25 18  2  0
 26 27  1  0
 28 29  2  0
 29 48  1  0
 30 29  1  0
 30 33  1  0
 31 32  1  0
 31 28  1  0
 32 30  2  0
 33 34  1  0
 34 35  2  0
 36 39  1  0
 36 35  1  0
 37 36  2  0
 38 37  1  0
 38 33  2  0
 39 40  1  0
 40 45  2  0
 40 41  1  0
 41 42  2  0
 42 43  1  0
 43 47  1  0
 44 43  2  0
 45 44  1  0
 46 45  1  0
 48 49  1  0
 49 52  1  0
 49 51  1  0
 50 48  2  0
 53 28  1  0
 53 54  1  0
 55 53  1  0
 57 56  1  0
 58 56  1  0
 59 60  1  0
 59  1  1  0
 59 57  1  0
 60 61  1  1
 60 58  1  0
 62 63  1  0
 62 60  1  0
 63 64  1  0
 64 66  1  0
 65 76  2  0
 66 71  1  0
 67 75  1  0
 67 77  1  0
 68 74  1  0
 68 70  1  0
 69 75  1  0
 70 71  2  0
 70 69  1  0
 72 66  2  0
 73 72  1  0
 73 68  2  0
 74 67  1  0
 75 65  1  0
 77 79  2  0
 78 77  1  0
 80 78  1  0
 81 90  2  0
 81 86  1  0
 82 78  1  0
 82 86  1  0
 83 82  1  0
 84 85  1  0
 84 83  1  0
 85 81  1  0
 86 87  2  0
 87 88  1  0
 89 88  2  0
 90 89  1  0
 91 65  1  0
 91 96  1  0
 91 92  1  0
 92 95  1  1
 92 93  1  0
 94 92  1  0
 96 99  1  0
 97101  1  0
 97 96  1  0
 98 97  2  0
101100  1  0
103101  1  0
103104  1  0
103102  1  0
M  ISO  4  18 100  26 100  63 101  64 101
M  END
>  <TORSDO>  (96) 
F 20

>  <SCORE>  (96) 
-11.428

>  <name>  (96) 
96

>  <ligand_id>  (96) 
96

>  <original_smiles>  (96) 
[H]c1c([H])c([H])c2c(c1[H])C([H])([H])C([H])([H])C([H])([H])C2([H])N([H])C(=O)C1([H])N(C(=O)C([H])(N([H])C(=O)C([H])(N([H])C([H])([H])[H])C([H])([H])[H])C(C([H])([H])[H])(C([H])([H])[H])C([H])([H])[H])C([H])([H])c2c([H])c(OC([H])([H])C([H])([H])[N+]3([H])C([H])([H])C([H])([H])C([H])([H])C3([H])C(=O)N([H])C3([H])c4c([H])c([H])c(N([H])C(=O)N5C([H])([H])C([H])([H])C([H])([H])C([H])(n6nc(-c7c([H])c([H])c(Oc8c([H])c([H])c(F)c([H])c8F)c([H])c7[H])c(C(=O)N([H])[H])c6N([H])[H])C5([H])[H])c(F)c4C([H])([H])[N+]([H])([H])C3([H])[H])c([H])c([H])c2C1([H])[H]

>  <smiles>  (96) 
[H]c1c([H])c([H])c2c(c1[H])C([H])([H])C([H])([H])C([H])([H])C2([H])N([H])C(=O)C1([H])N(C(=O)C([H])(N([H])C(=O)C([H])(N([H])C([H])([H])[H])C([H])([H])[H])C(C([H])([H])[H])(C([H])([H])[H])C([H])([H])[H])C([H])([H])c2c([H])c(OC([H])([H])C([H])([H])[N+]3([H])C([H])([H])C([H])([H])C([H])([H])C3([H])C(=O)N([H])C3([H])c4c([H])c([H])c(N([H])C(=O)N5C([H])([H])C([H])([H])C([H])([H])C([H])(n6nc(-c7c([H])c([H])c(Oc8c([H])c([H])c(F)c([H])c8F)c([H])c7[H])c(C(=O)N([H])[H])c6N([H])[H])C5([H])[H])c(F)c4C([H])([H])[N+]([H])([H])C3([H])[H])c([H])c([H])c2C1([H])[H]

$$$$
