0:0:0
     RDKit          3D

100109  0  0  1  0  0  0  0  0999 V2000
  -29.5800  -19.3020   19.6790 C   0  0  0  0  0  3  0  0  0  0  0  0
  -29.6900  -16.8800   19.4480 C   0  0  0  0  0  3  0  0  0  0  0  0
  -29.4180  -18.1470   18.8740 C   0  0  0  0  0  0  0  0  0  0  0  0
  -30.0050  -19.2180   21.0270 C   0  0  0  0  0  0  0  0  0  0  0  0
  -30.2150  -17.9190   21.5990 C   0  0  0  0  0  0  0  0  0  0  0  0
  -30.0710  -16.7460   20.8060 C   0  0  0  0  0  0  0  0  0  0  0  0
  -30.5150  -17.7170   23.0810 C   0  0  0  0  0  1  0  0  0  0  0  0
  -30.9030  -14.4000   21.0090 C   0  0  0  0  0  0  0  0  0  0  0  0
  -30.7100  -12.1670   19.9900 C   0  0  0  0  0  2  0  0  0  0  0  0
  -29.8600  -12.3150   18.7080 C   0  0  0  0  0  2  0  0  0  0  0  0
  -28.3550  -12.2150   19.0180 C   0  0  0  0  0  2  0  0  0  0  0  0
  -27.9390  -13.1060   20.2180 C   0  0  0  0  0  3  0  0  0  0  0  0
  -28.9010  -12.9110   21.4150 C   0  0  0  0  0  2  0  0  0  0  0  0
  -30.2650  -13.1950   20.9440 N   0  0  0  0  0  0  0  0  0  0  0  0
  -32.0670  -14.5510   20.6370 O   0  0  0  0  0  0  0  0  0  0  0  0
  -30.1350  -15.4420   21.4050 N   0  0  0  0  0  0  0  0  0  0  0  0
  -29.3080  -15.1800   21.9220 H   0  0  0  0  0  0  0  0  0  0  0  0
  -25.5330  -13.8060   20.8020 C   0  0  0  0  0  0  0  0  0  0  0  0
  -24.4050  -13.0760   21.0540 C   0  0  0  0  0  0  0  0  0  0  0  0
  -24.7950  -11.7030   20.9680 C   0  0  0  0  0  0  0  0  0  0  0  0
  -26.5460  -12.8830   20.5900 N   0  0  0  0  0  0  0  0  0  0  0  0
  -26.0990  -11.6090   20.7440 N   0  0  0  0  0  0  0  0  0  0  0  0
  -23.9950  -10.4730   21.0320 C   0  0  0  0  0  0  0  0  0  0  0  0
  -24.3530   -9.4000   21.8760 C   0  0  0  0  0  3  0  0  0  0  0  0
  -23.5550   -8.2380   21.9300 C   0  0  0  0  0  3  0  0  0  0  0  0
  -22.3850   -8.1420   21.1380 C   0  0  0  0  0  0  0  0  0  0  0  0
  -22.0510   -9.2040   20.2810 C   0  0  0  0  0  3  0  0  0  0  0  0
  -22.8500  -10.3580   20.2230 C   0  0  0  0  0  3  0  0  0  0  0  0
  -21.5610   -7.0430   21.1090 O   0  0  0  0  0  0  0  0  0  0  0  0
  -21.4800   -6.1770   22.1700 C   0  0  0  0  0  0  0  0  0  0  0  0
  -21.1160   -6.6120   23.4640 C   0  0  0  0  0  3  0  0  0  0  0  0
  -20.9800   -5.6760   24.5080 C   0  0  0  0  0  3  0  0  0  0  0  0
  -21.1970   -4.3080   24.2600 C   0  0  0  0  0  0  0  0  0  0  0  0
  -21.5570   -3.8720   22.9720 C   0  0  0  0  0  3  0  0  0  0  0  0
  -21.6960   -4.8040   21.9300 C   0  0  0  0  0  0  0  0  0  0  0  0
  -22.0190   -4.3770   20.6860 F   0  0  0  0  0  0  0  0  0  0  0  0
  -21.0570   -3.4090   25.2620 F   0  0  0  0  0  0  0  0  0  0  0  0
  -23.0190  -13.6120   21.2660 C   0  0  0  0  0  0  0  0  0  0  0  0
  -22.2070  -12.9180   22.0550 N   0  0  0  0  0  0  0  0  0  0  0  0
  -22.6660  -14.6820   20.7690 O   0  0  0  0  0  0  0  0  0  0  0  0
  -22.5080  -12.0510   22.4770 H   0  0  0  0  0  0  0  0  0  0  0  0
  -21.2740  -13.2590   22.2400 H   0  0  0  0  0  0  0  0  0  0  0  0
  -25.7880  -15.1730   20.7160 N   0  0  0  0  0  0  0  0  0  0  0  0
  -25.0620  -15.8730   20.8220 H   0  0  0  0  0  0  0  0  0  0  0  0
  -26.6910  -15.5670   20.4910 H   0  0  0  0  0  0  0  0  0  0  0  0
  -28.8440  -18.2180   17.4410 C   0  0  0  0  0  2  0  0  0  0  0  0
  -29.7470  -20.8310   14.9170 C   0  0  0  0  0  2  0  0  0  0  0  0
  -29.3800  -19.6250   14.0660 C   0  0  0  0  0  2  0  0  0  0  0  0
  -29.4790  -20.3950   16.3530 C   0  0  0  0  0  2  0  0  0  0  0  0
  -29.4810  -18.4140   15.0150 C   0  0  0  0  0  2  0  0  0  0  0  0
  -29.6660  -18.9200   16.4050 N   0  0  2  0  0  4  0  0  0  0  0  0
  -30.6330  -18.7300   16.6210 H   0  0  0  0  0  0  0  0  0  0  0  0
  -30.1580  -20.5140   21.8600 C   0  0  0  0  0  2  0  0  0  0  0  0
  -31.6520  -22.4360   21.4740 C   0  0  0  0  0  1  0  0  0  0  0  0
  -30.3540  -21.8070   21.1170 N   0  0  2  0  0  4  0  0  0  0  0  0
  -30.4480  -21.5470   20.1480 H   0  0  0  0  0  0  0  0  0  0  0  0
  -29.1800  -22.7450   21.2080 C   0  0  0  0  0  2  0  0  0  0  0  0
  -29.3940  -24.2090   20.6700 C   0  0  0  0  0  2  0  0  0  0  0  0
  -28.1060  -25.0880   20.6540 C   0  0  0  0  0  2  0  0  0  0  0  0
  -28.3000  -26.4740   20.2610 O   0  0  0  0  0  0  0  0  0  0  0  0
  -24.5930  -31.7920   23.2780 C   0  0  0  0  0  0  0  0  0  0  0  0
  -27.1580  -27.2640   20.2290 C   0  0  0  0  0  0  0  0  0  0  0  0
  -23.3680  -30.4140   21.6280 C   0  0  0  0  0  3  0  0  0  0  0  0
  -24.7990  -28.8540   20.2070 C   0  0  0  0  0  0  0  0  0  0  0  0
  -25.9030  -30.7180   21.4460 C   0  0  0  0  0  2  0  0  0  0  0  0
  -25.9670  -29.3430   20.8060 C   0  0  0  0  0  0  0  0  0  0  0  0
  -27.1470  -28.5530   20.8190 C   0  0  0  0  0  3  0  0  0  0  0  0
  -25.9730  -26.8090   19.6060 C   0  0  0  0  0  3  0  0  0  0  0  0
  -24.8010  -27.5890   19.6020 C   0  0  0  0  0  3  0  0  0  0  0  0
  -23.5740  -29.7330   20.2470 C   0  0  0  0  0  2  0  0  0  0  0  0
  -24.6380  -30.9910   22.1750 N   0  0  0  0  0  0  0  0  0  0  0  0
  -23.5150  -32.0850   23.8150 O   0  0  0  0  0  0  0  0  0  0  0  0
  -22.6910  -29.4050   22.5870 C   0  0  0  0  0  0  0  0  0  0  0  0
  -21.3750  -29.2040   22.4210 N   0  0  0  0  0  0  0  0  0  0  0  0
  -23.3550  -28.8040   23.4380 O   0  0  0  0  0  0  0  0  0  0  0  0
  -20.9000  -29.7370   21.7070 H   0  0  0  0  0  0  0  0  0  0  0  0
  -18.0170  -27.9250   22.7890 C   0  0  0  0  0  0  0  0  0  0  0  0
  -20.5470  -28.2690   23.1850 C   0  0  0  0  0  3  0  0  0  0  0  0
  -20.7210  -26.8210   22.6670 C   0  0  0  0  0  2  0  0  0  0  0  0
  -19.6840  -26.4300   21.6100 C   0  0  0  0  0  2  0  0  0  0  0  0
  -18.2680  -26.5570   22.1750 C   0  0  0  0  0  2  0  0  0  0  0  0
  -19.0880  -28.7360   23.2500 C   0  0  0  0  0  0  0  0  0  0  0  0
  -18.8000  -30.0130   23.7770 C   0  0  0  0  0  3  0  0  0  0  0  0
  -17.4730  -30.4800   23.8550 C   0  0  0  0  0  3  0  0  0  0  0  0
  -16.4170  -29.6650   23.4130 C   0  0  0  0  0  3  0  0  0  0  0  0
  -16.6880  -28.3910   22.8850 C   0  0  0  0  0  3  0  0  0  0  0  0
  -25.8900  -32.4020   23.8970 C   0  0  0  0  0  3  0  0  0  0  0  0
  -25.6130  -33.8120   24.2060 N   0  0  0  0  0  0  0  0  0  0  0  0
  -25.9810  -34.8480   23.4380 C   0  0  0  0  0  0  0  0  0  0  0  0
  -26.6610  -34.7130   22.4170 O   0  0  0  0  0  0  0  0  0  0  0  0
  -25.0160  -33.9890   25.0000 H   0  0  0  0  0  0  0  0  0  0  0  0
  -24.3040  -36.6780   23.0390 C   0  0  0  0  0  1  0  0  0  0  0  0
  -25.5210  -36.2510   23.8740 C   0  0  0  0  0  3  0  0  0  0  0  0
  -27.6620  -37.0940   24.7290 C   0  0  0  0  0  1  0  0  0  0  0  0
  -26.5790  -37.2770   23.7660 N   0  0  0  0  0  0  0  0  0  0  0  0
  -26.1920  -38.2060   23.9000 H   0  0  0  0  0  0  0  0  0  0  0  0
  -26.3830  -31.6370   25.1860 C   0  0  1  0  0  0  0  0  0  0  0  0
  -25.2790  -31.4380   26.2510 C   0  0  0  0  0  1  0  0  0  0  0  0
  -26.9360  -30.2420   24.8150 C   0  0  0  0  0  1  0  0  0  0  0  0
  -27.5460  -32.4130   25.8470 C   0  0  0  0  0  1  0  0  0  0  0  0
  1  4  1  0
  2  6  2  0
  3  2  1  0
  3  1  2  0
  4  5  2  0
  4 53  1  0
  5  7  1  0
  6 16  1  0
  6  5  1  0
  8 16  1  0
  9 14  1  0
 10 11  1  0
 10  9  1  0
 12 11  1  0
 12 21  1  0
 12 13  1  0
 14  8  1  0
 14 13  1  0
 15  8  2  0
 16 17  1  0
 18 19  2  0
 19 38  1  0
 20 23  1  0
 20 19  1  0
 21 22  1  0
 21 18  1  0
 22 20  2  0
 23 24  1  0
 24 25  2  0
 26 25  1  0
 27 26  2  0
 28 27  1  0
 28 23  2  0
 29 26  1  0
 29 30  1  0
 30 31  1  0
 31 32  2  0
 33 32  1  0
 33 37  1  0
 34 33  2  0
 35 30  2  0
 35 34  1  0
 36 35  1  0
 38 39  1  0
 39 42  1  0
 39 41  1  0
 40 38  2  0
 43 18  1  0
 43 44  1  0
 45 43  1  0
 46  3  1  0
 47 49  1  0
 48 47  1  0
 48 50  1  0
 49 51  1  0
 50 51  1  0
 51 52  1  1
 51 46  1  0
 55 57  1  0
 55 54  1  0
 55 53  1  0
 55 56  1  6
 58 57  1  0
 59 58  1  0
 60 59  1  0
 61 72  2  0
 62 60  1  0
 62 67  1  0
 63 71  1  0
 63 73  1  0
 64 70  1  0
 64 66  1  0
 65 71  1  0
 66 67  2  0
 66 65  1  0
 68 62  2  0
 69 68  1  0
 69 64  2  0
 70 63  1  0
 71 61  1  0
 73 75  2  0
 74 73  1  0
 76 74  1  0
 77 86  2  0
 77 82  1  0
 78 74  1  0
 78 82  1  0
 79 78  1  0
 80 81  1  0
 80 79  1  0
 81 77  1  0
 82 83  2  0
 83 84  1  0
 85 84  2  0
 86 85  1  0
 87 61  1  0
 87 88  1  0
 87 97  1  0
 88 91  1  0
 89 93  1  0
 89 88  1  0
 90 89  2  0
 93 92  1  0
 95 93  1  0
 95 96  1  0
 95 94  1  0
 97100  1  1
 97 98  1  0
 99 97  1  0
M  ISO  4   8 100  16 100  59 101  60 101
M  END
>  <TORSDO>  (1) 
F 23

>  <SCORE>  (1) 
-11.558

>  <name>  (1) 
0

>  <ligand_id>  (1) 
0

>  <original_smiles>  (1) 
[H]c1c([H])c([H])c2c(c1[H])C([H])([H])C([H])([H])C([H])([H])C2([H])N([H])C(=O)C1([H])N(C(=O)C([H])(N([H])C(=O)C([H])(N([H])C([H])([H])[H])C([H])([H])[H])C(C([H])([H])[H])(C([H])([H])[H])C([H])([H])[H])C([H])([H])c2c([H])c(OC([H])([H])C([H])([H])C([H])([H])[N+]([H])(C([H])([H])[H])C([H])([H])c3c([H])c(C([H])([H])[N+]4([H])C([H])([H])C([H])([H])C([H])([H])C4([H])[H])c([H])c(N([H])C(=O)N4C([H])([H])C([H])([H])C([H])([H])C([H])(n5nc(-c6c([H])c([H])c(Oc7c([H])c([H])c(F)c([H])c7F)c([H])c6[H])c(C(=O)N([H])[H])c5N([H])[H])C4([H])[H])c3C([H])([H])[H])c([H])c([H])c2C1([H])[H]

>  <smiles>  (1) 
[H]c1c([H])c([H])c2c(c1[H])C([H])([H])C([H])([H])C([H])([H])C2([H])N([H])C(=O)C1([H])N(C(=O)C([H])(N([H])C(=O)C([H])(N([H])C([H])([H])[H])C([H])([H])[H])C(C([H])([H])[H])(C([H])([H])[H])C([H])([H])[H])C([H])([H])c2c([H])c(OC([H])([H])C([H])([H])C([H])([H])[N+]([H])(C([H])([H])[H])C([H])([H])c3c([H])c(C([H])([H])[N+]4([H])C([H])([H])C([H])([H])C([H])([H])C4([H])[H])c([H])c(N([H])C(=O)N4C([H])([H])C([H])([H])C([H])([H])C([H])(n5nc(-c6c([H])c([H])c(Oc7c([H])c([H])c(F)c([H])c7F)c([H])c6[H])c(C(=O)N([H])[H])c5N([H])[H])C4([H])[H])c3C([H])([H])[H])c([H])c([H])c2C1([H])[H]

$$$$
1:0:0
     RDKit          3D

 88 96  0  0  1  0  0  0  0  0999 V2000
  -30.3810  -20.9850   20.1060 C   0  0  0  0  0  3  0  0  0  0  0  0
  -29.9550  -22.4060   20.0450 C   0  0  0  0  0  3  0  0  0  0  0  0
  -28.1960  -20.2710   20.1550 C   0  0  0  0  0  3  0  0  0  0  0  0
  -29.5580  -19.7760   20.1580 C   0  0  0  0  0  0  0  0  0  0  0  0
  -28.5900  -22.8980   20.0410 C   0  0  0  0  0  0  0  0  0  0  0  0
  -27.7580  -21.6910   20.0950 C   0  0  0  0  0  0  0  0  0  0  0  0
  -26.4190  -21.8890   20.0560 F   0  0  0  0  0  0  0  0  0  0  0  0
  -30.2490  -18.1820   20.2170 C   0  0  0  0  0  2  0  0  0  0  0  0
  -30.4970  -15.3320   20.1400 C   0  0  0  0  0  0  0  0  0  0  0  0
  -30.4030  -12.9290   19.2070 C   0  0  0  0  0  2  0  0  0  0  0  0
  -29.4590  -12.7780   17.9890 C   0  0  0  0  0  2  0  0  0  0  0  0
  -28.0150  -12.5190   18.4520 C   0  0  0  0  0  2  0  0  0  0  0  0
  -27.5960  -13.4600   19.6100 C   0  0  0  0  0  3  0  0  0  0  0  0
  -28.6660  -13.5650   20.7180 C   0  0  0  0  0  2  0  0  0  0  0  0
  -29.8960  -14.0510   20.0710 N   0  0  0  0  0  0  0  0  0  0  0  0
  -31.7090  -15.3220   19.8920 O   0  0  0  0  0  0  0  0  0  0  0  0
  -29.7780  -16.6090   20.2770 N   0  0  0  0  0  0  0  0  0  0  0  0
  -28.7870  -16.4900   20.4240 H   0  0  0  0  0  0  0  0  0  0  0  0
  -25.2280  -14.0080   20.3840 C   0  0  0  0  0  0  0  0  0  0  0  0
  -24.1750  -13.2250   20.7680 C   0  0  0  0  0  0  0  0  0  0  0  0
  -24.6520  -11.8780   20.7410 C   0  0  0  0  0  0  0  0  0  0  0  0
  -26.2740  -13.1390   20.1350 N   0  0  0  0  0  0  0  0  0  0  0  0
  -25.9410  -11.8520   20.4180 N   0  0  0  0  0  0  0  0  0  0  0  0
  -23.9380  -10.6110   20.9430 C   0  0  0  0  0  0  0  0  0  0  0  0
  -24.3650   -9.6650   21.9000 C   0  0  0  0  0  3  0  0  0  0  0  0
  -23.6470   -8.4640   22.0900 C   0  0  0  0  0  3  0  0  0  0  0  0
  -22.4870   -8.2020   21.3240 C   0  0  0  0  0  0  0  0  0  0  0  0
  -22.0780   -9.1380   20.3570 C   0  0  0  0  0  3  0  0  0  0  0  0
  -22.7970  -10.3280   20.1660 C   0  0  0  0  0  3  0  0  0  0  0  0
  -21.7410   -7.0520   21.4240 O   0  0  0  0  0  0  0  0  0  0  0  0
  -21.6710   -6.3380   22.5930 C   0  0  0  0  0  0  0  0  0  0  0  0
  -21.1700   -6.9060   23.7840 C   0  0  0  0  0  3  0  0  0  0  0  0
  -21.0510   -6.1150   24.9450 C   0  0  0  0  0  3  0  0  0  0  0  0
  -21.4230   -4.7590   24.9150 C   0  0  0  0  0  0  0  0  0  0  0  0
  -21.9170   -4.1900   23.7280 C   0  0  0  0  0  3  0  0  0  0  0  0
  -22.0390   -4.9780   22.5700 C   0  0  0  0  0  0  0  0  0  0  0  0
  -22.4950   -4.4190   21.4230 F   0  0  0  0  0  0  0  0  0  0  0  0
  -21.3020   -3.9970   26.0270 F   0  0  0  0  0  0  0  0  0  0  0  0
  -22.7770  -13.6930   21.0450 C   0  0  0  0  0  0  0  0  0  0  0  0
  -22.0600  -12.9970   21.9190 N   0  0  0  0  0  0  0  0  0  0  0  0
  -22.3290  -14.7130   20.5210 O   0  0  0  0  0  0  0  0  0  0  0  0
  -22.4370  -12.1730   22.3650 H   0  0  0  0  0  0  0  0  0  0  0  0
  -21.1210  -13.2910   22.1480 H   0  0  0  0  0  0  0  0  0  0  0  0
  -25.3740  -15.3790   20.1960 N   0  0  0  0  0  0  0  0  0  0  0  0
  -24.5990  -16.0220   20.3040 H   0  0  0  0  0  0  0  0  0  0  0  0
  -26.2040  -15.8210   19.8200 H   0  0  0  0  0  0  0  0  0  0  0  0
  -27.9200  -24.4800   19.7810 C   0  0  0  0  0  2  0  0  0  0  0  0
  -28.2740  -26.0250   20.1400 O   0  0  0  0  0  0  0  0  0  0  0  0
  -24.6560  -31.8530   23.2300 C   0  0  0  0  0  0  0  0  0  0  0  0
  -27.2710  -27.1180   20.0860 C   0  0  0  0  0  0  0  0  0  0  0  0
  -23.4800  -30.4920   21.5500 C   0  0  0  0  0  3  0  0  0  0  0  0
  -24.9490  -28.9530   20.0880 C   0  0  0  0  0  0  0  0  0  0  0  0
  -26.0430  -30.7430   21.4150 C   0  0  0  0  0  2  0  0  0  0  0  0
  -26.1310  -29.3570   20.7220 C   0  0  0  0  0  0  0  0  0  0  0  0
  -27.2880  -28.4600   20.7020 C   0  0  0  0  0  3  0  0  0  0  0  0
  -26.0590  -26.8650   19.4030 C   0  0  0  0  0  3  0  0  0  0  0  0
  -24.9360  -27.7270   19.4090 C   0  0  0  0  0  3  0  0  0  0  0  0
  -23.7200  -29.8530   20.1550 C   0  0  0  0  0  2  0  0  0  0  0  0
  -24.7470  -31.0540   22.1200 N   0  0  0  0  0  0  0  0  0  0  0  0
  -23.5620  -32.1160   23.7550 O   0  0  0  0  0  0  0  0  0  0  0  0
  -22.7950  -29.4600   22.4820 C   0  0  0  0  0  0  0  0  0  0  0  0
  -21.4660  -29.2910   22.3520 N   0  0  0  0  0  0  0  0  0  0  0  0
  -23.4650  -28.8130   23.2910 O   0  0  0  0  0  0  0  0  0  0  0  0
  -20.9790  -29.8650   21.6780 H   0  0  0  0  0  0  0  0  0  0  0  0
  -18.0860  -28.0710   22.8460 C   0  0  0  0  0  0  0  0  0  0  0  0
  -20.6480  -28.3270   23.0960 C   0  0  0  0  0  3  0  0  0  0  0  0
  -20.7430  -26.9170   22.4690 C   0  0  0  0  0  2  0  0  0  0  0  0
  -19.6320  -26.6320   21.4540 C   0  0  0  0  0  2  0  0  0  0  0  0
  -18.2560  -26.7490   22.1160 C   0  0  0  0  0  2  0  0  0  0  0  0
  -19.2080  -28.8190   23.2930 C   0  0  0  0  0  0  0  0  0  0  0  0
  -18.9920  -30.0550   23.9390 C   0  0  0  0  0  3  0  0  0  0  0  0
  -17.6870  -30.5450   24.1400 C   0  0  0  0  0  3  0  0  0  0  0  0
  -16.5800  -29.7950   23.7080 C   0  0  0  0  0  3  0  0  0  0  0  0
  -16.7800  -28.5590   23.0670 C   0  0  0  0  0  3  0  0  0  0  0  0
  -25.9200  -32.4890   23.8830 C   0  0  0  0  0  3  0  0  0  0  0  0
  -25.6030  -33.8890   24.2130 N   0  0  0  0  0  0  0  0  0  0  0  0
  -25.9140  -34.9470   23.4510 C   0  0  0  0  0  0  0  0  0  0  0  0
  -26.5620  -34.8460   22.4050 O   0  0  0  0  0  0  0  0  0  0  0  0
  -25.0230  -34.0400   25.0260 H   0  0  0  0  0  0  0  0  0  0  0  0
  -24.1530  -36.7230   23.1620 C   0  0  0  0  0  1  0  0  0  0  0  0
  -25.4330  -36.3350   23.9190 C   0  0  0  0  0  3  0  0  0  0  0  0
  -27.5860  -37.2590   24.6580 C   0  0  0  0  0  1  0  0  0  0  0  0
  -26.4480  -37.3990   23.7530 N   0  0  0  0  0  0  0  0  0  0  0  0
  -26.0370  -38.3160   23.9020 H   0  0  0  0  0  0  0  0  0  0  0  0
  -26.4000  -31.7210   25.1770 C   0  0  1  0  0  0  0  0  0  0  0  0
  -25.2790  -31.4930   26.2180 C   0  0  0  0  0  1  0  0  0  0  0  0
  -26.9870  -30.3390   24.8120 C   0  0  0  0  0  1  0  0  0  0  0  0
  -27.5360  -32.5140   25.8650 C   0  0  0  0  0  1  0  0  0  0  0  0
  1  4  1  0
  2  1  2  0
  3  4  2  0
  4  8  1  0
  5  2  1  0
  5  6  2  0
  6  3  1  0
  7  6  1  0
  8 17  1  0
  9 17  1  0
 10 15  1  0
 11 12  1  0
 11 10  1  0
 13 12  1  0
 13 22  1  0
 13 14  1  0
 15  9  1  0
 15 14  1  0
 16  9  2  0
 17 18  1  0
 19 20  2  0
 20 39  1  0
 21 20  1  0
 21 24  1  0
 22 19  1  0
 22 23  1  0
 23 21  2  0
 24 25  1  0
 25 26  2  0
 27 30  1  0
 27 26  1  0
 28 27  2  0
 29 28  1  0
 29 24  2  0
 30 31  1  0
 31 32  1  0
 32 33  2  0
 34 33  1  0
 34 38  1  0
 35 34  2  0
 36 31  2  0
 36 35  1  0
 37 36  1  0
 39 40  1  0
 40 43  1  0
 40 42  1  0
 41 39  2  0
 44 45  1  0
 44 19  1  0
 46 44  1  0
 47  5  1  0
 47 48  1  0
 49 60  2  0
 50 48  1  0
 50 55  1  0
 51 59  1  0
 51 61  1  0
 52 58  1  0
 52 54  1  0
 53 59  1  0
 54 53  1  0
 55 54  2  0
 56 57  1  0
 56 50  2  0
 57 52  2  0
 58 51  1  0
 59 49  1  0
 61 63  2  0
 62 61  1  0
 64 62  1  0
 65 74  2  0
 65 70  1  0
 66 62  1  0
 66 70  1  0
 67 66  1  0
 68 69  1  0
 68 67  1  0
 69 65  1  0
 70 71  2  0
 71 72  1  0
 73 72  2  0
 74 73  1  0
 75 49  1  0
 75 76  1  0
 75 85  1  0
 76 79  1  0
 77 81  1  0
 77 76  1  0
 78 77  2  0
 81 80  1  0
 83 84  1  0
 83 81  1  0
 83 82  1  0
 85 88  1  1
 85 86  1  0
 87 85  1  0
M  ISO  4   9 100  17 100  47 101  48 101
M  END
>  <TORSDO>  (2) 
F 18

>  <SCORE>  (2) 
-15.644

>  <name>  (2) 
1

>  <ligand_id>  (2) 
1

>  <original_smiles>  (2) 
[H]c1c([H])c([H])c2c(c1[H])C([H])([H])C([H])([H])C([H])([H])C2([H])N([H])C(=O)C1([H])N(C(=O)C([H])(N([H])C(=O)C([H])(N([H])C([H])([H])[H])C([H])([H])[H])C(C([H])([H])[H])(C([H])([H])[H])C([H])([H])[H])C([H])([H])c2c([H])c(OC([H])([H])c3c([H])c([H])c(C([H])([H])N([H])C(=O)N4C([H])([H])C([H])([H])C([H])([H])C([H])(n5nc(-c6c([H])c([H])c(Oc7c([H])c([H])c(F)c([H])c7F)c([H])c6[H])c(C(=O)N([H])[H])c5N([H])[H])C4([H])[H])c([H])c3F)c([H])c([H])c2C1([H])[H]

>  <smiles>  (2) 
[H]c1c([H])c([H])c2c(c1[H])C([H])([H])C([H])([H])C([H])([H])C2([H])N([H])C(=O)C1([H])N(C(=O)C([H])(N([H])C(=O)C([H])(N([H])C([H])([H])[H])C([H])([H])[H])C(C([H])([H])[H])(C([H])([H])[H])C([H])([H])[H])C([H])([H])c2c([H])c(OC([H])([H])c3c([H])c([H])c(C([H])([H])N([H])C(=O)N4C([H])([H])C([H])([H])C([H])([H])C([H])(n5nc(-c6c([H])c([H])c(Oc7c([H])c([H])c(F)c([H])c7F)c([H])c6[H])c(C(=O)N([H])[H])c5N([H])[H])C4([H])[H])c([H])c3F)c([H])c([H])c2C1([H])[H]

$$$$
2:0:0
     RDKit          3D

 93102  0  0  1  0  0  0  0  0999 V2000
  -27.7660  -23.1580   20.1750 C   0  0  0  0  0  2  0  0  0  0  0  0
  -29.7270  -23.1260   19.5850 C   0  0  0  0  0  2  0  0  0  0  0  0
  -28.8440  -24.2500   20.1610 C   0  0  0  0  0  3  0  0  0  0  0  0
  -28.8200  -22.1290   20.1720 N   0  0  2  0  0  4  0  0  0  0  0  0
  -29.0860  -21.8940   21.1170 H   0  0  0  0  0  0  0  0  0  0  0  0
  -28.5250  -20.9070   19.3610 C   0  0  0  0  0  2  0  0  0  0  0  0
  -28.3940  -18.8090   20.8060 C   0  0  0  0  0  3  0  0  0  0  0  0
  -28.7550  -17.4820   21.1250 C   0  0  0  0  0  3  0  0  0  0  0  0
  -30.6200  -17.6160   19.5870 C   0  0  0  0  0  3  0  0  0  0  0  0
  -29.1130  -19.5580   19.8460 C   0  0  0  0  0  0  0  0  0  0  0  0
  -30.2620  -18.9540   19.2620 C   0  0  0  0  0  0  0  0  0  0  0  0
  -29.8480  -16.8480   20.4960 C   0  0  0  0  0  0  0  0  0  0  0  0
  -31.0990  -19.6970   18.2330 C   0  0  0  0  0  1  0  0  0  0  0  0
  -30.7290  -14.5130   20.0960 C   0  0  0  0  0  0  0  0  0  0  0  0
  -30.3980  -12.3640   18.9230 C   0  0  0  0  0  2  0  0  0  0  0  0
  -29.3940  -12.6040   17.7740 C   0  0  0  0  0  2  0  0  0  0  0  0
  -27.9410  -12.4670   18.2720 C   0  0  0  0  0  2  0  0  0  0  0  0
  -27.6770  -13.2680   19.5750 C   0  0  0  0  0  3  0  0  0  0  0  0
  -28.7830  -12.9940   20.6190 C   0  0  0  0  0  2  0  0  0  0  0  0
  -30.0830  -13.3160   20.0000 N   0  0  0  0  0  0  0  0  0  0  0  0
  -31.8100  -14.7320   19.5410 O   0  0  0  0  0  0  0  0  0  0  0  0
  -30.0600  -15.4580   20.7930 N   0  0  0  0  0  0  0  0  0  0  0  0
  -29.3420  -15.0540   21.3730 H   0  0  0  0  0  0  0  0  0  0  0  0
  -25.3200  -13.8830   20.4080 C   0  0  0  0  0  0  0  0  0  0  0  0
  -24.2630  -13.1140   20.8150 C   0  0  0  0  0  0  0  0  0  0  0  0
  -24.7100  -11.7580   20.7380 C   0  0  0  0  0  0  0  0  0  0  0  0
  -26.3450  -12.9970   20.1110 N   0  0  0  0  0  0  0  0  0  0  0  0
  -25.9830  -11.7130   20.3650 N   0  0  0  0  0  0  0  0  0  0  0  0
  -23.9830  -10.4990   20.9440 C   0  0  0  0  0  0  0  0  0  0  0  0
  -24.4340   -9.5280   21.8650 C   0  0  0  0  0  3  0  0  0  0  0  0
  -23.7100   -8.3330   22.0600 C   0  0  0  0  0  3  0  0  0  0  0  0
  -22.5180   -8.1000   21.3340 C   0  0  0  0  0  0  0  0  0  0  0  0
  -22.0840   -9.0600   20.4020 C   0  0  0  0  0  3  0  0  0  0  0  0
  -22.8090  -10.2470   20.2060 C   0  0  0  0  0  3  0  0  0  0  0  0
  -21.7630   -6.9570   21.4380 O   0  0  0  0  0  0  0  0  0  0  0  0
  -21.7120   -6.2300   22.6000 C   0  0  0  0  0  0  0  0  0  0  0  0
  -21.2960   -6.8050   23.8210 C   0  0  0  0  0  3  0  0  0  0  0  0
  -21.1920   -6.0050   24.9770 C   0  0  0  0  0  3  0  0  0  0  0  0
  -21.4930   -4.6320   24.9120 C   0  0  0  0  0  0  0  0  0  0  0  0
  -21.9020   -4.0570   23.6970 C   0  0  0  0  0  3  0  0  0  0  0  0
  -22.0090   -4.8540   22.5430 C   0  0  0  0  0  0  0  0  0  0  0  0
  -22.3820   -4.2900   21.3690 F   0  0  0  0  0  0  0  0  0  0  0  0
  -21.3870   -3.8610   26.0200 F   0  0  0  0  0  0  0  0  0  0  0  0
  -22.8860  -13.5980   21.1680 C   0  0  0  0  0  0  0  0  0  0  0  0
  -22.1990  -12.8950   22.0620 N   0  0  0  0  0  0  0  0  0  0  0  0
  -22.4290  -14.6340   20.6870 O   0  0  0  0  0  0  0  0  0  0  0  0
  -22.5810  -12.0560   22.4720 H   0  0  0  0  0  0  0  0  0  0  0  0
  -21.2760  -13.2010   22.3380 H   0  0  0  0  0  0  0  0  0  0  0  0
  -25.4900  -15.2540   20.2460 N   0  0  0  0  0  0  0  0  0  0  0  0
  -24.7360  -15.9140   20.4030 H   0  0  0  0  0  0  0  0  0  0  0  0
  -26.3370  -15.6910   19.9050 H   0  0  0  0  0  0  0  0  0  0  0  0
  -28.6610  -25.5710   19.3690 C   0  0  0  0  0  2  0  0  0  0  0  0
  -28.4150  -26.7280   20.1930 O   0  0  0  0  0  0  0  0  0  0  0  0
  -24.5860  -31.9020   23.2390 C   0  0  0  0  0  0  0  0  0  0  0  0
  -27.2150  -27.4220   20.1630 C   0  0  0  0  0  0  0  0  0  0  0  0
  -23.3700  -30.4900   21.6130 C   0  0  0  0  0  3  0  0  0  0  0  0
  -24.8140  -28.9400   20.1880 C   0  0  0  0  0  0  0  0  0  0  0  0
  -25.8950  -30.8410   21.3990 C   0  0  0  0  0  2  0  0  0  0  0  0
  -25.9750  -29.4650   20.7660 C   0  0  0  0  0  0  0  0  0  0  0  0
  -27.1720  -28.7100   20.7530 C   0  0  0  0  0  3  0  0  0  0  0  0
  -26.0250  -26.9090   19.5960 C   0  0  0  0  0  3  0  0  0  0  0  0
  -24.8340  -27.6610   19.6040 C   0  0  0  0  0  3  0  0  0  0  0  0
  -23.5700  -29.8010   20.2370 C   0  0  0  0  0  2  0  0  0  0  0  0
  -24.6360  -31.0940   22.1410 N   0  0  0  0  0  0  0  0  0  0  0  0
  -23.5080  -32.1780   23.7830 O   0  0  0  0  0  0  0  0  0  0  0  0
  -22.7240  -29.4760   22.5840 C   0  0  0  0  0  0  0  0  0  0  0  0
  -21.4000  -29.2880   22.4610 N   0  0  0  0  0  0  0  0  0  0  0  0
  -23.4120  -28.8600   23.4040 O   0  0  0  0  0  0  0  0  0  0  0  0
  -20.9070  -29.8360   21.7710 H   0  0  0  0  0  0  0  0  0  0  0  0
  -18.0340  -28.0720   22.9600 C   0  0  0  0  0  0  0  0  0  0  0  0
  -20.5880  -28.3540   23.2400 C   0  0  0  0  0  3  0  0  0  0  0  0
  -20.7050  -26.9160   22.6840 C   0  0  0  0  0  2  0  0  0  0  0  0
  -19.6120  -26.5710   21.6690 C   0  0  0  0  0  2  0  0  0  0  0  0
  -18.2250  -26.7150   22.3040 C   0  0  0  0  0  2  0  0  0  0  0  0
  -19.1440  -28.8480   23.3850 C   0  0  0  0  0  0  0  0  0  0  0  0
  -18.9130  -30.1170   23.9570 C   0  0  0  0  0  3  0  0  0  0  0  0
  -17.6040  -30.6110   24.1090 C   0  0  0  0  0  3  0  0  0  0  0  0
  -16.5070  -29.8320   23.7000 C   0  0  0  0  0  3  0  0  0  0  0  0
  -16.7240  -28.5640   23.1320 C   0  0  0  0  0  3  0  0  0  0  0  0
  -25.8760  -32.5370   23.8470 C   0  0  0  0  0  3  0  0  0  0  0  0
  -26.4050  -31.7700   25.1210 C   0  0  1  0  0  0  0  0  0  0  0  0
  -25.3220  -31.5350   26.2000 C   0  0  0  0  0  1  0  0  0  0  0  0
  -26.9870  -30.3930   24.7260 C   0  0  0  0  0  1  0  0  0  0  0  0
  -27.5600  -32.5680   25.7710 C   0  0  0  0  0  1  0  0  0  0  0  0
  -25.5680  -33.9360   24.1740 N   0  0  0  0  0  0  0  0  0  0  0  0
  -25.8940  -34.9850   23.4090 C   0  0  0  0  0  0  0  0  0  0  0  0
  -26.5560  -34.8780   22.3730 O   0  0  0  0  0  0  0  0  0  0  0  0
  -24.9780  -34.0930   24.9790 H   0  0  0  0  0  0  0  0  0  0  0  0
  -24.1600  -36.7730   23.0580 C   0  0  0  0  0  1  0  0  0  0  0  0
  -25.4080  -36.3750   23.8630 C   0  0  0  0  0  3  0  0  0  0  0  0
  -27.5470  -37.2650   24.6740 C   0  0  0  0  0  1  0  0  0  0  0  0
  -26.4380  -37.4280   23.7380 N   0  0  0  0  0  0  0  0  0  0  0  0
  -26.0310  -38.3490   23.8840 H   0  0  0  0  0  0  0  0  0  0  0  0
  2  3  1  0
  2  4  1  0
  3 52  1  0
  3  1  1  0
  4  1  1  0
  4  5  1  1
  6 10  1  0
  6  4  1  0
  7  8  1  0
  9 12  1  0
 10  7  2  0
 11  9  2  0
 11 10  1  0
 12 22  1  0
 12  8  2  0
 13 11  1  0
 14 22  1  0
 15 20  1  0
 16 17  1  0
 16 15  1  0
 18 17  1  0
 18 27  1  0
 18 19  1  0
 20 14  1  0
 20 19  1  0
 21 14  2  0
 22 23  1  0
 24 25  2  0
 25 44  1  0
 26 25  1  0
 26 29  1  0
 27 28  1  0
 27 24  1  0
 28 26  2  0
 29 30  1  0
 30 31  2  0
 32 35  1  0
 32 31  1  0
 33 32  2  0
 34 33  1  0
 34 29  2  0
 35 36  1  0
 36 37  1  0
 37 38  2  0
 39 38  1  0
 39 43  1  0
 40 39  2  0
 41 36  2  0
 41 40  1  0
 42 41  1  0
 44 45  1  0
 45 48  1  0
 45 47  1  0
 46 44  2  0
 49 50  1  0
 49 24  1  0
 51 49  1  0
 52 53  1  0
 54 65  2  0
 55 53  1  0
 55 60  1  0
 56 64  1  0
 56 66  1  0
 57 63  1  0
 57 59  1  0
 58 64  1  0
 59 58  1  0
 60 59  2  0
 61 62  1  0
 61 55  2  0
 62 57  2  0
 63 56  1  0
 64 54  1  0
 66 68  2  0
 67 66  1  0
 69 67  1  0
 70 79  2  0
 70 75  1  0
 71 67  1  0
 71 75  1  0
 72 71  1  0
 73 74  1  0
 73 72  1  0
 74 70  1  0
 75 76  2  0
 76 77  1  0
 78 77  2  0
 79 78  1  0
 80 54  1  0
 80 85  1  0
 80 81  1  0
 81 84  1  1
 81 82  1  0
 83 81  1  0
 85 88  1  0
 86 90  1  0
 86 85  1  0
 87 86  2  0
 90 89  1  0
 92 90  1  0
 92 93  1  0
 92 91  1  0
M  ISO  4  14 100  22 100  52 101  53 101
M  END
>  <TORSDO>  (3) 
F 19

>  <SCORE>  (3) 
-13.721

>  <name>  (3) 
2

>  <ligand_id>  (3) 
2

>  <original_smiles>  (3) 
[H]c1c([H])c([H])c2c(c1[H])C([H])([H])C([H])([H])C([H])([H])C2([H])N([H])C(=O)C1([H])N(C(=O)C([H])(N([H])C(=O)C([H])(N([H])C([H])([H])[H])C([H])([H])[H])C(C([H])([H])[H])(C([H])([H])[H])C([H])([H])[H])C([H])([H])c2c([H])c(OC([H])([H])C3([H])C([H])([H])[N+]([H])(C([H])([H])c4c([H])c([H])c(N([H])C(=O)N5C([H])([H])C([H])([H])C([H])([H])C([H])(n6nc(-c7c([H])c([H])c(Oc8c([H])c([H])c(F)c([H])c8F)c([H])c7[H])c(C(=O)N([H])[H])c6N([H])[H])C5([H])[H])c([H])c4C([H])([H])[H])C3([H])[H])c([H])c([H])c2C1([H])[H]

>  <smiles>  (3) 
[H]c1c([H])c([H])c2c(c1[H])C([H])([H])C([H])([H])C([H])([H])C2([H])N([H])C(=O)C1([H])N(C(=O)C([H])(N([H])C(=O)C([H])(N([H])C([H])([H])[H])C([H])([H])[H])C(C([H])([H])[H])(C([H])([H])[H])C([H])([H])[H])C([H])([H])c2c([H])c(OC([H])([H])C3([H])C([H])([H])[N+]([H])(C([H])([H])c4c([H])c([H])c(N([H])C(=O)N5C([H])([H])C([H])([H])C([H])([H])C([H])(n6nc(-c7c([H])c([H])c(Oc8c([H])c([H])c(F)c([H])c8F)c([H])c7[H])c(C(=O)N([H])[H])c6N([H])[H])C5([H])[H])c([H])c4C([H])([H])[H])C3([H])[H])c([H])c([H])c2C1([H])[H]

$$$$
3:0:0
     RDKit          3D

 93101  0  0  1  0  0  0  0  0999 V2000
  -28.9340  -23.0700   20.1210 C   0  0  0  0  0  0  0  0  0  0  0  0
  -28.7180  -21.7610   20.4140 N   0  0  0  0  0  0  0  0  0  0  0  0
  -29.8580  -23.4310   19.3900 O   0  0  0  0  0  0  0  0  0  0  0  0
  -27.9570  -21.5590   21.0490 H   0  0  0  0  0  0  0  0  0  0  0  0
  -29.2860  -20.5880   19.7000 C   0  0  0  0  0  2  0  0  0  0  0  0
  -31.2760  -17.2930   21.8190 C   0  0  0  0  0  3  0  0  0  0  0  0
  -31.6160  -18.6360   22.0910 C   0  0  0  0  0  3  0  0  0  0  0  0
  -29.5590  -18.0740   20.2770 C   0  0  0  0  0  3  0  0  0  0  0  0
  -29.9170  -19.4350   20.5210 C   0  0  0  0  0  0  0  0  0  0  0  0
  -30.2440  -16.9910   20.9040 C   0  0  0  0  0  0  0  0  0  0  0  0
  -30.9520  -19.6980   21.4450 C   0  0  0  0  0  0  0  0  0  0  0  0
  -31.3380  -20.9710   21.6990 F   0  0  0  0  0  0  0  0  0  0  0  0
  -30.6070  -14.5700   20.2960 C   0  0  0  0  0  0  0  0  0  0  0  0
  -30.3100  -12.3900   19.1590 C   0  0  0  0  0  2  0  0  0  0  0  0
  -29.3310  -12.5630   17.9790 C   0  0  0  0  0  2  0  0  0  0  0  0
  -27.8700  -12.4110   18.4530 C   0  0  0  0  0  2  0  0  0  0  0  0
  -27.5560  -13.2560   19.7160 C   0  0  0  0  0  3  0  0  0  0  0  0
  -28.6460  -13.0620   20.7950 C   0  0  0  0  0  2  0  0  0  0  0  0
  -29.9460  -13.3840   20.1830 N   0  0  0  0  0  0  0  0  0  0  0  0
  -31.7580  -14.7270   19.8760 O   0  0  0  0  0  0  0  0  0  0  0  0
  -29.8450  -15.6250   20.6810 N   0  0  0  0  0  0  0  0  0  0  0  0
  -28.8620  -15.4260   20.7860 H   0  0  0  0  0  0  0  0  0  0  0  0
  -25.1830  -13.8550   20.5110 C   0  0  0  0  0  0  0  0  0  0  0  0
  -24.1270  -13.0800   20.9060 C   0  0  0  0  0  0  0  0  0  0  0  0
  -24.5870  -11.7290   20.8490 C   0  0  0  0  0  0  0  0  0  0  0  0
  -26.2200  -12.9760   20.2370 N   0  0  0  0  0  0  0  0  0  0  0  0
  -25.8670  -11.6920   20.5020 N   0  0  0  0  0  0  0  0  0  0  0  0
  -23.8660  -10.4650   21.0500 C   0  0  0  0  0  0  0  0  0  0  0  0
  -24.3330   -9.4860   21.9550 C   0  0  0  0  0  3  0  0  0  0  0  0
  -23.6150   -8.2860   22.1440 C   0  0  0  0  0  3  0  0  0  0  0  0
  -22.4150   -8.0560   21.4290 C   0  0  0  0  0  0  0  0  0  0  0  0
  -21.9670   -9.0240   20.5130 C   0  0  0  0  0  3  0  0  0  0  0  0
  -22.6860  -10.2160   20.3220 C   0  0  0  0  0  3  0  0  0  0  0  0
  -21.6640   -6.9090   21.5300 O   0  0  0  0  0  0  0  0  0  0  0  0
  -21.6690   -6.1430   22.6670 C   0  0  0  0  0  0  0  0  0  0  0  0
  -21.3060   -6.6740   23.9240 C   0  0  0  0  0  3  0  0  0  0  0  0
  -21.2570   -5.8350   25.0550 C   0  0  0  0  0  3  0  0  0  0  0  0
  -21.5600   -4.4660   24.9310 C   0  0  0  0  0  0  0  0  0  0  0  0
  -21.9160   -3.9340   23.6800 C   0  0  0  0  0  3  0  0  0  0  0  0
  -21.9670   -4.7700   22.5500 C   0  0  0  0  0  0  0  0  0  0  0  0
  -22.2900   -4.2480   21.3430 F   0  0  0  0  0  0  0  0  0  0  0  0
  -21.5060   -3.6580   26.0160 F   0  0  0  0  0  0  0  0  0  0  0  0
  -22.7370  -13.5550   21.2210 C   0  0  0  0  0  0  0  0  0  0  0  0
  -22.0330  -12.8530   22.1020 N   0  0  0  0  0  0  0  0  0  0  0  0
  -22.2860  -14.5830   20.7200 O   0  0  0  0  0  0  0  0  0  0  0  0
  -22.4090  -12.0220   22.5320 H   0  0  0  0  0  0  0  0  0  0  0  0
  -21.1030  -13.1560   22.3520 H   0  0  0  0  0  0  0  0  0  0  0  0
  -25.3420  -15.2270   20.3400 N   0  0  0  0  0  0  0  0  0  0  0  0
  -24.5750  -15.8770   20.4800 H   0  0  0  0  0  0  0  0  0  0  0  0
  -26.1720  -15.6740   19.9710 H   0  0  0  0  0  0  0  0  0  0  0  0
  -27.9280  -24.1260   20.6590 C   0  0  0  0  0  2  0  0  0  0  0  0
  -28.4710  -25.5420   21.0740 C   0  0  0  0  0  2  0  0  0  0  0  0
  -28.3870  -26.6420   20.1310 O   0  0  0  0  0  0  0  0  0  0  0  0
  -24.6010  -31.8860   23.2460 C   0  0  0  0  0  0  0  0  0  0  0  0
  -27.2380  -27.4110   20.1730 C   0  0  0  0  0  0  0  0  0  0  0  0
  -23.3970  -30.4880   21.5990 C   0  0  0  0  0  3  0  0  0  0  0  0
  -24.8520  -28.9460   20.1750 C   0  0  0  0  0  0  0  0  0  0  0  0
  -25.9270  -30.8350   21.4090 C   0  0  0  0  0  2  0  0  0  0  0  0
  -26.0120  -29.4620   20.7690 C   0  0  0  0  0  0  0  0  0  0  0  0
  -27.2110  -28.7030   20.7620 C   0  0  0  0  0  3  0  0  0  0  0  0
  -26.0620  -26.9240   19.5680 C   0  0  0  0  0  3  0  0  0  0  0  0
  -24.8750  -27.6790   19.5690 C   0  0  0  0  0  3  0  0  0  0  0  0
  -23.6090  -29.8090   20.2210 C   0  0  0  0  0  2  0  0  0  0  0  0
  -24.6600  -31.0860   22.1430 N   0  0  0  0  0  0  0  0  0  0  0  0
  -23.5180  -32.1570   23.7860 O   0  0  0  0  0  0  0  0  0  0  0  0
  -22.7410  -29.4670   22.5570 C   0  0  0  0  0  0  0  0  0  0  0  0
  -21.4170  -29.2840   22.4260 N   0  0  0  0  0  0  0  0  0  0  0  0
  -23.4220  -28.8420   23.3760 O   0  0  0  0  0  0  0  0  0  0  0  0
  -20.9300  -29.8380   21.7360 H   0  0  0  0  0  0  0  0  0  0  0  0
  -18.0440  -28.0750   22.9030 C   0  0  0  0  0  0  0  0  0  0  0  0
  -20.5990  -28.3430   23.1910 C   0  0  0  0  0  3  0  0  0  0  0  0
  -20.7110  -26.9120   22.6170 C   0  0  0  0  0  2  0  0  0  0  0  0
  -19.6180  -26.5840   21.5950 C   0  0  0  0  0  2  0  0  0  0  0  0
  -18.2310  -26.7250   22.2300 C   0  0  0  0  0  2  0  0  0  0  0  0
  -19.1570  -28.8420   23.3400 C   0  0  0  0  0  0  0  0  0  0  0  0
  -18.9300  -30.1050   23.9280 C   0  0  0  0  0  3  0  0  0  0  0  0
  -17.6220  -30.6020   24.0830 C   0  0  0  0  0  3  0  0  0  0  0  0
  -16.5240  -29.8330   23.6630 C   0  0  0  0  0  3  0  0  0  0  0  0
  -16.7350  -28.5700   23.0800 C   0  0  0  0  0  3  0  0  0  0  0  0
  -25.8860  -32.5140   23.8690 C   0  0  0  0  0  3  0  0  0  0  0  0
  -26.4010  -31.7410   25.1450 C   0  0  1  0  0  0  0  0  0  0  0  0
  -25.3080  -31.5060   26.2140 C   0  0  0  0  0  1  0  0  0  0  0  0
  -26.9830  -30.3640   24.7520 C   0  0  0  0  0  1  0  0  0  0  0  0
  -27.5540  -32.5330   25.8060 C   0  0  0  0  0  1  0  0  0  0  0  0
  -25.5790  -33.9120   24.2000 N   0  0  0  0  0  0  0  0  0  0  0  0
  -25.9140  -34.9650   23.4420 C   0  0  0  0  0  0  0  0  0  0  0  0
  -26.5850  -34.8610   22.4110 O   0  0  0  0  0  0  0  0  0  0  0  0
  -24.9830  -34.0670   24.9990 H   0  0  0  0  0  0  0  0  0  0  0  0
  -24.1880  -36.7590   23.0850 C   0  0  0  0  0  1  0  0  0  0  0  0
  -25.4280  -36.3540   23.8990 C   0  0  0  0  0  3  0  0  0  0  0  0
  -27.5640  -37.2320   24.7290 C   0  0  0  0  0  1  0  0  0  0  0  0
  -26.4610  -37.4070   23.7870 N   0  0  0  0  0  0  0  0  0  0  0  0
  -26.0560  -38.3250   23.9410 H   0  0  0  0  0  0  0  0  0  0  0  0
  1  2  1  0
  1 51  1  0
  2  4  1  0
  3  1  2  0
  5  2  1  0
  5  9  1  0
  6  7  1  0
  8  9  2  0
  8 10  1  0
  9 11  1  0
 10  6  2  0
 11 12  1  0
 11  7  2  0
 13 21  1  0
 14 19  1  0
 15 16  1  0
 15 14  1  0
 17 16  1  0
 17 26  1  0
 17 18  1  0
 19 13  1  0
 19 18  1  0
 20 13  2  0
 21 22  1  0
 21 10  1  0
 23 24  2  0
 24 43  1  0
 25 24  1  0
 25 28  1  0
 26 27  1  0
 26 23  1  0
 27 25  2  0
 28 29  1  0
 29 30  2  0
 31 34  1  0
 31 30  1  0
 32 31  2  0
 33 32  1  0
 33 28  2  0
 34 35  1  0
 35 36  1  0
 36 37  2  0
 38 37  1  0
 38 42  1  0
 39 38  2  0
 40 35  2  0
 40 39  1  0
 41 40  1  0
 43 44  1  0
 44 47  1  0
 44 46  1  0
 45 43  2  0
 48 49  1  0
 48 23  1  0
 50 48  1  0
 51 52  1  0
 53 55  1  0
 53 52  1  0
 54 65  2  0
 55 60  1  0
 56 64  1  0
 56 66  1  0
 57 63  1  0
 57 59  1  0
 58 64  1  0
 59 58  1  0
 60 59  2  0
 61 62  1  0
 61 55  2  0
 62 57  2  0
 63 56  1  0
 64 54  1  0
 66 68  2  0
 67 66  1  0
 69 67  1  0
 70 79  2  0
 70 75  1  0
 71 67  1  0
 71 75  1  0
 72 71  1  0
 73 74  1  0
 73 72  1  0
 74 70  1  0
 75 76  2  0
 76 77  1  0
 78 77  2  0
 79 78  1  0
 80 54  1  0
 80 85  1  0
 80 81  1  0
 81 84  1  1
 81 82  1  0
 83 81  1  0
 85 88  1  0
 86 90  1  0
 86 85  1  0
 87 86  2  0
 90 89  1  0
 92 90  1  0
 92 93  1  0
 92 91  1  0
M  ISO  4  13 100  21 100  52 101  53 101
M  END
>  <TORSDO>  (4) 
F 20

>  <SCORE>  (4) 
-13.931

>  <name>  (4) 
3

>  <ligand_id>  (4) 
3

>  <original_smiles>  (4) 
[H]c1c([H])c([H])c2c(c1[H])C([H])([H])C([H])([H])C([H])([H])C2([H])N([H])C(=O)C1([H])N(C(=O)C([H])(N([H])C(=O)C([H])(N([H])C([H])([H])[H])C([H])([H])[H])C(C([H])([H])[H])(C([H])([H])[H])C([H])([H])[H])C([H])([H])c2c([H])c(OC([H])([H])C([H])([H])C(=O)N([H])C([H])([H])c3c([H])c(N([H])C(=O)N4C([H])([H])C([H])([H])C([H])([H])C([H])(n5nc(-c6c([H])c([H])c(Oc7c([H])c([H])c(F)c([H])c7F)c([H])c6[H])c(C(=O)N([H])[H])c5N([H])[H])C4([H])[H])c([H])c([H])c3F)c([H])c([H])c2C1([H])[H]

>  <smiles>  (4) 
[H]c1c([H])c([H])c2c(c1[H])C([H])([H])C([H])([H])C([H])([H])C2([H])N([H])C(=O)C1([H])N(C(=O)C([H])(N([H])C(=O)C([H])(N([H])C([H])([H])[H])C([H])([H])[H])C(C([H])([H])[H])(C([H])([H])[H])C([H])([H])[H])C([H])([H])c2c([H])c(OC([H])([H])C([H])([H])C(=O)N([H])C([H])([H])c3c([H])c(N([H])C(=O)N4C([H])([H])C([H])([H])C([H])([H])C([H])(n5nc(-c6c([H])c([H])c(Oc7c([H])c([H])c(F)c([H])c7F)c([H])c6[H])c(C(=O)N([H])[H])c5N([H])[H])C4([H])[H])c([H])c([H])c3F)c([H])c([H])c2C1([H])[H]

$$$$
4:0:0
     RDKit          3D

 96104  0  0  1  0  0  0  0  0999 V2000
  -28.2810  -20.5510   18.6040 N   0  0  1  0  0  4  0  0  0  0  0  0
  -29.2330  -20.7260   18.8720 H   0  0  0  0  0  0  0  0  0  0  0  0
  -27.8710  -19.4850   19.5720 C   0  0  0  0  0  2  0  0  0  0  0  0
  -28.9890  -17.4360   20.6130 C   0  0  0  0  0  3  0  0  0  0  0  0
  -30.2450  -19.5270   20.5790 C   0  0  0  0  0  3  0  0  0  0  0  0
  -31.2340  -17.5160   21.5620 C   0  0  0  0  0  3  0  0  0  0  0  0
  -29.0660  -18.8110   20.2680 C   0  0  0  0  0  0  0  0  0  0  0  0
  -30.0780  -16.7690   21.2360 C   0  0  0  0  0  0  0  0  0  0  0  0
  -31.3200  -18.8820   21.2290 C   0  0  0  0  0  0  0  0  0  0  0  0
  -32.4400  -19.5840   21.5140 F   0  0  0  0  0  0  0  0  0  0  0  0
  -30.6840  -14.4100   20.8370 C   0  0  0  0  0  0  0  0  0  0  0  0
  -30.3770  -12.4030   19.4390 C   0  0  0  0  0  2  0  0  0  0  0  0
  -29.4650  -12.7700   18.2480 C   0  0  0  0  0  2  0  0  0  0  0  0
  -27.9740  -12.6290   18.6280 C   0  0  0  0  0  2  0  0  0  0  0  0
  -27.6310  -13.3040   19.9860 C   0  0  0  0  0  3  0  0  0  0  0  0
  -28.6590  -12.9300   21.0760 C   0  0  0  0  0  2  0  0  0  0  0  0
  -30.0020  -13.2610   20.5750 N   0  0  0  0  0  0  0  0  0  0  0  0
  -31.8180  -14.6170   20.3840 O   0  0  0  0  0  0  0  0  0  0  0  0
  -29.9910  -15.3630   21.5000 N   0  0  0  0  0  0  0  0  0  0  0  0
  -29.1280  -15.0430   21.9220 H   0  0  0  0  0  0  0  0  0  0  0  0
  -25.2100  -13.8610   20.6610 C   0  0  0  0  0  0  0  0  0  0  0  0
  -24.1390  -13.0710   20.9860 C   0  0  0  0  0  0  0  0  0  0  0  0
  -24.6080  -11.7230   20.9060 C   0  0  0  0  0  0  0  0  0  0  0  0
  -26.2650  -12.9980   20.4160 N   0  0  0  0  0  0  0  0  0  0  0  0
  -25.9050  -11.7010   20.6180 N   0  0  0  0  0  0  0  0  0  0  0  0
  -23.8830  -10.4530   21.0390 C   0  0  0  0  0  0  0  0  0  0  0  0
  -24.3260   -9.4440   21.9210 C   0  0  0  0  0  3  0  0  0  0  0  0
  -23.6120   -8.2340   22.0430 C   0  0  0  0  0  3  0  0  0  0  0  0
  -22.4380   -8.0230   21.2810 C   0  0  0  0  0  0  0  0  0  0  0  0
  -22.0090   -9.0210   20.3910 C   0  0  0  0  0  3  0  0  0  0  0  0
  -22.7250  -10.2230   20.2680 C   0  0  0  0  0  3  0  0  0  0  0  0
  -21.6880   -6.8740   21.3140 O   0  0  0  0  0  0  0  0  0  0  0  0
  -21.6600   -6.0620   22.4190 C   0  0  0  0  0  0  0  0  0  0  0  0
  -21.2230   -6.5280   23.6770 C   0  0  0  0  0  3  0  0  0  0  0  0
  -21.1480   -5.6400   24.7700 C   0  0  0  0  0  3  0  0  0  0  0  0
  -21.5040   -4.2880   24.6060 C   0  0  0  0  0  0  0  0  0  0  0  0
  -21.9350   -3.8230   23.3520 C   0  0  0  0  0  3  0  0  0  0  0  0
  -22.0110   -4.7070   22.2620 C   0  0  0  0  0  0  0  0  0  0  0  0
  -22.4100   -4.2450   21.0510 F   0  0  0  0  0  0  0  0  0  0  0  0
  -21.4250   -3.4350   25.6540 F   0  0  0  0  0  0  0  0  0  0  0  0
  -22.7310  -13.5300   21.2470 C   0  0  0  0  0  0  0  0  0  0  0  0
  -22.0000  -12.8130   22.0940 N   0  0  0  0  0  0  0  0  0  0  0  0
  -22.2860  -14.5560   20.7310 O   0  0  0  0  0  0  0  0  0  0  0  0
  -22.3800  -11.9900   22.5360 H   0  0  0  0  0  0  0  0  0  0  0  0
  -21.0510  -13.0960   22.3000 H   0  0  0  0  0  0  0  0  0  0  0  0
  -25.3750  -15.2370   20.5370 N   0  0  0  0  0  0  0  0  0  0  0  0
  -24.6020  -15.8900   20.6270 H   0  0  0  0  0  0  0  0  0  0  0  0
  -26.2240  -15.6640   20.1910 H   0  0  0  0  0  0  0  0  0  0  0  0
  -28.3660  -20.0840   17.1940 C   0  0  0  0  0  2  0  0  0  0  0  0
  -30.2290  -19.0270   15.7890 C   0  0  0  0  0  1  0  0  0  0  0  0
  -29.7710  -20.2610   16.5810 C   0  0  0  0  0  2  0  0  0  0  0  0
  -27.5830  -21.8570   18.7950 C   0  0  0  0  0  2  0  0  0  0  0  0
  -28.5860  -23.0200   18.9680 C   0  0  0  0  0  2  0  0  0  0  0  0
  -28.0100  -24.2550   19.6940 C   0  0  0  0  0  2  0  0  0  0  0  0
  -28.5650  -25.5930   19.1610 C   0  0  0  0  0  2  0  0  0  0  0  0
  -28.3640  -26.6670   20.0810 O   0  0  0  0  0  0  0  0  0  0  0  0
  -24.5790  -31.7800   23.2550 C   0  0  0  0  0  0  0  0  0  0  0  0
  -27.1630  -27.3480   20.1000 C   0  0  0  0  0  0  0  0  0  0  0  0
  -23.3500  -30.4090   21.6050 C   0  0  0  0  0  3  0  0  0  0  0  0
  -24.7730  -28.8700   20.1590 C   0  0  0  0  0  0  0  0  0  0  0  0
  -25.8760  -30.7390   21.4020 C   0  0  0  0  0  2  0  0  0  0  0  0
  -25.9360  -29.3710   20.7540 C   0  0  0  0  0  0  0  0  0  0  0  0
  -27.1250  -28.6080   20.7380 C   0  0  0  0  0  3  0  0  0  0  0  0
  -25.9720  -26.8560   19.5070 C   0  0  0  0  0  3  0  0  0  0  0  0
  -24.7830  -27.6080   19.5380 C   0  0  0  0  0  3  0  0  0  0  0  0
  -23.5430  -29.7490   20.2130 C   0  0  0  0  0  2  0  0  0  0  0  0
  -24.6200  -30.9890   22.1480 N   0  0  0  0  0  0  0  0  0  0  0  0
  -23.5030  -32.0610   23.8020 O   0  0  0  0  0  0  0  0  0  0  0  0
  -22.6950  -29.3810   22.5570 C   0  0  0  0  0  0  0  0  0  0  0  0
  -21.3690  -29.2130   22.4290 N   0  0  0  0  0  0  0  0  0  0  0  0
  -23.3730  -28.7410   23.3630 O   0  0  0  0  0  0  0  0  0  0  0  0
  -20.8880  -29.7780   21.7430 H   0  0  0  0  0  0  0  0  0  0  0  0
  -17.9770  -28.0760   22.9300 C   0  0  0  0  0  0  0  0  0  0  0  0
  -20.5390  -28.2830   23.1930 C   0  0  0  0  0  3  0  0  0  0  0  0
  -20.6150  -26.8590   22.5970 C   0  0  0  0  0  2  0  0  0  0  0  0
  -19.5020  -26.5690   21.5860 C   0  0  0  0  0  2  0  0  0  0  0  0
  -18.1260  -26.7340   22.2390 C   0  0  0  0  0  2  0  0  0  0  0  0
  -19.1110  -28.8120   23.3640 C   0  0  0  0  0  0  0  0  0  0  0  0
  -18.9220  -30.0740   23.9710 C   0  0  0  0  0  3  0  0  0  0  0  0
  -17.6270  -30.5960   24.1540 C   0  0  0  0  0  3  0  0  0  0  0  0
  -16.5060  -29.8570   23.7400 C   0  0  0  0  0  3  0  0  0  0  0  0
  -16.6820  -28.6020   23.1300 C   0  0  0  0  0  3  0  0  0  0  0  0
  -25.8780  -32.3900   23.8710 C   0  0  0  0  0  3  0  0  0  0  0  0
  -25.6000  -33.7980   24.1810 N   0  0  0  0  0  0  0  0  0  0  0  0
  -25.9690  -34.8320   23.4130 C   0  0  0  0  0  0  0  0  0  0  0  0
  -26.6540  -34.6990   22.3940 O   0  0  0  0  0  0  0  0  0  0  0  0
  -25.0030  -33.9740   24.9760 H   0  0  0  0  0  0  0  0  0  0  0  0
  -24.2970  -36.6610   22.9970 C   0  0  0  0  0  1  0  0  0  0  0  0
  -25.5080  -36.2370   23.8430 C   0  0  0  0  0  3  0  0  0  0  0  0
  -27.6370  -37.0800   24.7270 C   0  0  0  0  0  1  0  0  0  0  0  0
  -26.5690  -37.2630   23.7470 N   0  0  0  0  0  0  0  0  0  0  0  0
  -26.1810  -38.1950   23.8700 H   0  0  0  0  0  0  0  0  0  0  0  0
  -26.3710  -31.6230   25.1600 C   0  0  1  0  0  0  0  0  0  0  0  0
  -25.2650  -31.4160   26.2190 C   0  0  0  0  0  1  0  0  0  0  0  0
  -26.9350  -30.2340   24.7820 C   0  0  0  0  0  1  0  0  0  0  0  0
  -27.5250  -32.4100   25.8280 C   0  0  0  0  0  1  0  0  0  0  0  0
  1 52  1  0
  1  2  1  1
  1  3  1  0
  3  7  1  0
  4  8  1  0
  5  9  2  0
  7  5  1  0
  7  4  2  0
  8 19  1  0
  8  6  2  0
  9 10  1  0
  9  6  1  0
 11 19  1  0
 12 17  1  0
 13 14  1  0
 13 12  1  0
 15 14  1  0
 15 24  1  0
 15 16  1  0
 17 11  1  0
 17 16  1  0
 18 11  2  0
 19 20  1  0
 21 22  2  0
 22 41  1  0
 23 22  1  0
 23 26  1  0
 24 25  1  0
 24 21  1  0
 25 23  2  0
 26 27  1  0
 27 28  2  0
 29 32  1  0
 29 28  1  0
 30 29  2  0
 31 30  1  0
 31 26  2  0
 32 33  1  0
 33 34  1  0
 34 35  2  0
 36 35  1  0
 36 40  1  0
 37 36  2  0
 38 33  2  0
 38 37  1  0
 39 38  1  0
 41 42  1  0
 42 45  1  0
 42 44  1  0
 43 41  2  0
 46 47  1  0
 46 21  1  0
 48 46  1  0
 49  1  1  0
 50 51  1  0
 51 49  1  0
 52 53  1  0
 53 54  1  0
 55 54  1  0
 55 56  1  0
 56 58  1  0
 57 68  2  0
 58 63  1  0
 59 67  1  0
 59 69  1  0
 60 66  1  0
 60 62  1  0
 61 67  1  0
 62 61  1  0
 63 62  2  0
 64 65  1  0
 64 58  2  0
 65 60  2  0
 66 59  1  0
 67 57  1  0
 69 71  2  0
 70 69  1  0
 72 70  1  0
 73 82  2  0
 73 78  1  0
 74 70  1  0
 74 78  1  0
 75 74  1  0
 76 77  1  0
 76 75  1  0
 77 73  1  0
 78 79  2  0
 79 80  1  0
 81 80  2  0
 82 81  1  0
 83 57  1  0
 83 84  1  0
 83 93  1  0
 84 87  1  0
 85 89  1  0
 85 84  1  0
 86 85  2  0
 89 88  1  0
 91 89  1  0
 91 92  1  0
 91 90  1  0
 93 96  1  1
 93 94  1  0
 95 93  1  0
M  ISO  4  11 100  19 100  55 101  56 101
M  END
>  <TORSDO>  (5) 
F 24

>  <SCORE>  (5) 
-12.806

>  <name>  (5) 
4

>  <ligand_id>  (5) 
4

>  <original_smiles>  (5) 
[H]c1c([H])c([H])c2c(c1[H])C([H])([H])C([H])([H])C([H])([H])C2([H])N([H])C(=O)C1([H])N(C(=O)C([H])(N([H])C(=O)C([H])(N([H])C([H])([H])[H])C([H])([H])[H])C(C([H])([H])[H])(C([H])([H])[H])C([H])([H])[H])C([H])([H])c2c([H])c(OC([H])([H])C([H])([H])C([H])([H])C([H])([H])[N+]([H])(C([H])([H])c3c([H])c(F)c([H])c(N([H])C(=O)N4C([H])([H])C([H])([H])C([H])([H])C([H])(n5nc(-c6c([H])c([H])c(Oc7c([H])c([H])c(F)c([H])c7F)c([H])c6[H])c(C(=O)N([H])[H])c5N([H])[H])C4([H])[H])c3[H])C([H])([H])C([H])([H])C([H])([H])[H])c([H])c([H])c2C1([H])[H]

>  <smiles>  (5) 
[H]c1c([H])c([H])c2c(c1[H])C([H])([H])C([H])([H])C([H])([H])C2([H])N([H])C(=O)C1([H])N(C(=O)C([H])(N([H])C(=O)C([H])(N([H])C([H])([H])[H])C([H])([H])[H])C(C([H])([H])[H])(C([H])([H])[H])C([H])([H])[H])C([H])([H])c2c([H])c(OC([H])([H])C([H])([H])C([H])([H])C([H])([H])[N+]([H])(C([H])([H])c3c([H])c(F)c([H])c(N([H])C(=O)N4C([H])([H])C([H])([H])C([H])([H])C([H])(n5nc(-c6c([H])c([H])c(Oc7c([H])c([H])c(F)c([H])c7F)c([H])c6[H])c(C(=O)N([H])[H])c5N([H])[H])C4([H])[H])c3[H])C([H])([H])C([H])([H])C([H])([H])[H])c([H])c([H])c2C1([H])[H]

$$$$
5:0:0
     RDKit          3D

 96104  0  0  1  0  0  0  0  0999 V2000
  -29.9500  -23.7890   20.2190 N   0  0  0  0  0  0  0  0  0  0  0  0
  -29.8640  -19.9860   19.8030 C   0  0  0  0  0  3  0  0  0  0  0  0
  -29.8020  -21.3740   19.5030 C   0  0  0  0  0  3  0  0  0  0  0  0
  -30.4420  -21.9080   21.7610 C   0  0  0  0  0  3  0  0  0  0  0  0
  -30.2040  -19.5400   21.1060 C   0  0  0  0  0  0  0  0  0  0  0  0
  -30.0630  -22.3820   20.4770 C   0  0  0  0  0  0  0  0  0  0  0  0
  -30.5130  -20.5310   22.0660 C   0  0  0  0  0  0  0  0  0  0  0  0
  -30.8640  -20.1610   23.3230 F   0  0  0  0  0  0  0  0  0  0  0  0
  -30.1830  -18.0510   21.5420 C   0  0  0  0  0  3  0  0  0  0  0  0
  -30.6990  -16.9750   20.5250 C   0  0  0  0  0  3  0  0  0  0  0  0
  -31.0900  -14.5960   20.0660 C   0  0  0  0  0  0  0  0  0  0  0  0
  -30.5650  -12.5130   18.8330 C   0  0  0  0  0  2  0  0  0  0  0  0
  -29.5560  -12.7590   17.6930 C   0  0  0  0  0  2  0  0  0  0  0  0
  -28.1260  -12.5930   18.2320 C   0  0  0  0  0  2  0  0  0  0  0  0
  -27.8770  -13.4140   19.5220 C   0  0  0  0  0  3  0  0  0  0  0  0
  -29.0060  -13.2610   20.5700 C   0  0  0  0  0  2  0  0  0  0  0  0
  -30.3020  -13.4920   19.9060 N   0  0  0  0  0  0  0  0  0  0  0  0
  -32.1010  -14.7810   19.3790 O   0  0  0  0  0  0  0  0  0  0  0  0
  -31.1750  -15.3040   22.3260 C   0  0  0  0  0  1  0  0  0  0  0  0
  -30.6950  -15.5430   20.9600 N   0  0  0  0  0  0  0  0  0  0  0  0
  -25.5470  -14.0060   20.4260 C   0  0  0  0  0  0  0  0  0  0  0  0
  -24.4950  -13.2260   20.8320 C   0  0  0  0  0  0  0  0  0  0  0  0
  -24.9390  -11.8750   20.7210 C   0  0  0  0  0  0  0  0  0  0  0  0
  -26.5630  -13.1260   20.0910 N   0  0  0  0  0  0  0  0  0  0  0  0
  -26.2090  -11.8390   20.3330 N   0  0  0  0  0  0  0  0  0  0  0  0
  -24.2100  -10.6120   20.9150 C   0  0  0  0  0  0  0  0  0  0  0  0
  -24.6430   -9.6530   21.8570 C   0  0  0  0  0  3  0  0  0  0  0  0
  -23.9170   -8.4560   22.0460 C   0  0  0  0  0  3  0  0  0  0  0  0
  -22.7430   -8.2100   21.2920 C   0  0  0  0  0  0  0  0  0  0  0  0
  -22.3260   -9.1560   20.3400 C   0  0  0  0  0  3  0  0  0  0  0  0
  -23.0540  -10.3460   20.1480 C   0  0  0  0  0  3  0  0  0  0  0  0
  -21.9950   -7.0610   21.3850 O   0  0  0  0  0  0  0  0  0  0  0  0
  -21.8820   -6.3630   22.5610 C   0  0  0  0  0  0  0  0  0  0  0  0
  -21.3800   -6.9620   23.7370 C   0  0  0  0  0  3  0  0  0  0  0  0
  -21.2200   -6.1930   24.9070 C   0  0  0  0  0  3  0  0  0  0  0  0
  -21.5460   -4.8240   24.9020 C   0  0  0  0  0  0  0  0  0  0  0  0
  -22.0360   -4.2230   23.7290 C   0  0  0  0  0  3  0  0  0  0  0  0
  -22.2000   -4.9900   22.5610 C   0  0  0  0  0  0  0  0  0  0  0  0
  -22.6550   -4.3990   21.4320 F   0  0  0  0  0  0  0  0  0  0  0  0
  -21.3870   -4.0830   26.0230 F   0  0  0  0  0  0  0  0  0  0  0  0
  -23.1280  -13.7070   21.2150 C   0  0  0  0  0  0  0  0  0  0  0  0
  -22.4620  -13.0070   22.1290 N   0  0  0  0  0  0  0  0  0  0  0  0
  -22.6530  -14.7350   20.7380 O   0  0  0  0  0  0  0  0  0  0  0  0
  -22.8490  -12.1690   22.5380 H   0  0  0  0  0  0  0  0  0  0  0  0
  -21.5540  -13.3330   22.4270 H   0  0  0  0  0  0  0  0  0  0  0  0
  -25.7210  -15.3800   20.3030 N   0  0  0  0  0  0  0  0  0  0  0  0
  -25.0330  -16.0660   20.5950 H   0  0  0  0  0  0  0  0  0  0  0  0
  -26.6040  -15.7960   20.0380 H   0  0  0  0  0  0  0  0  0  0  0  0
  -30.2560  -24.3080   18.8790 C   0  0  0  0  0  2  0  0  0  0  0  0
  -31.6940  -24.8660   18.7790 C   0  0  0  0  0  2  0  0  0  0  0  0
  -33.4620  -26.1330   17.4490 C   0  0  0  0  0  1  0  0  0  0  0  0
  -31.0630  -26.3360   16.7190 C   0  0  0  0  0  1  0  0  0  0  0  0
  -32.1040  -25.4100   17.3870 C   0  0  0  0  0  3  0  0  0  0  0  0
  -29.0990  -24.6120   21.1270 C   0  0  0  0  0  2  0  0  0  0  0  0
  -29.2200  -26.1780   21.0540 C   0  0  0  0  0  2  0  0  0  0  0  0
  -28.5200  -26.7370   19.9360 O   0  0  0  0  0  0  0  0  0  0  0  0
  -24.7000  -31.8960   23.2230 C   0  0  0  0  0  0  0  0  0  0  0  0
  -27.3520  -27.4560   20.1220 C   0  0  0  0  0  0  0  0  0  0  0  0
  -23.4850  -30.4870   21.5920 C   0  0  0  0  0  3  0  0  0  0  0  0
  -24.9400  -28.9440   20.1710 C   0  0  0  0  0  0  0  0  0  0  0  0
  -26.0100  -30.8520   21.3760 C   0  0  0  0  0  2  0  0  0  0  0  0
  -26.1010  -29.4750   20.7500 C   0  0  0  0  0  0  0  0  0  0  0  0
  -27.3120  -28.7360   20.7270 C   0  0  0  0  0  3  0  0  0  0  0  0
  -26.1740  -26.9440   19.5420 C   0  0  0  0  0  3  0  0  0  0  0  0
  -24.9690  -27.6740   19.5690 C   0  0  0  0  0  3  0  0  0  0  0  0
  -23.6890  -29.7960   20.2170 C   0  0  0  0  0  2  0  0  0  0  0  0
  -24.7490  -31.0940   22.1220 N   0  0  0  0  0  0  0  0  0  0  0  0
  -23.6200  -32.1680   23.7700 O   0  0  0  0  0  0  0  0  0  0  0  0
  -22.8410  -29.4680   22.5600 C   0  0  0  0  0  0  0  0  0  0  0  0
  -21.5170  -29.2790   22.4400 N   0  0  0  0  0  0  0  0  0  0  0  0
  -23.5320  -28.8480   23.3740 O   0  0  0  0  0  0  0  0  0  0  0  0
  -21.0190  -29.8350   21.7560 H   0  0  0  0  0  0  0  0  0  0  0  0
  -18.1470  -28.0880   22.9710 C   0  0  0  0  0  0  0  0  0  0  0  0
  -20.7080  -28.3380   23.2140 C   0  0  0  0  0  3  0  0  0  0  0  0
  -20.7990  -26.9100   22.6280 C   0  0  0  0  0  2  0  0  0  0  0  0
  -19.6840  -26.5960   21.6240 C   0  0  0  0  0  2  0  0  0  0  0  0
  -18.3110  -26.7420   22.2860 C   0  0  0  0  0  2  0  0  0  0  0  0
  -19.2720  -28.8460   23.3910 C   0  0  0  0  0  0  0  0  0  0  0  0
  -19.0660  -30.1080   23.9880 C   0  0  0  0  0  3  0  0  0  0  0  0
  -17.7650  -30.6130   24.1710 C   0  0  0  0  0  3  0  0  0  0  0  0
  -16.6540  -29.8530   23.7680 C   0  0  0  0  0  3  0  0  0  0  0  0
  -16.8450  -28.5920   23.1740 C   0  0  0  0  0  3  0  0  0  0  0  0
  -25.9900  -32.5300   23.8330 C   0  0  0  0  0  3  0  0  0  0  0  0
  -25.6800  -33.9290   24.1610 N   0  0  0  0  0  0  0  0  0  0  0  0
  -26.0310  -34.9820   23.4090 C   0  0  0  0  0  0  0  0  0  0  0  0
  -26.7170  -34.8770   22.3890 O   0  0  0  0  0  0  0  0  0  0  0  0
  -25.0760  -34.0840   24.9530 H   0  0  0  0  0  0  0  0  0  0  0  0
  -24.3390  -36.7960   22.9990 C   0  0  0  0  0  1  0  0  0  0  0  0
  -25.5390  -36.3710   23.8600 C   0  0  0  0  0  3  0  0  0  0  0  0
  -27.6460  -37.2200   24.7920 C   0  0  0  0  0  1  0  0  0  0  0  0
  -26.5870  -37.4130   23.8060 N   0  0  0  0  0  0  0  0  0  0  0  0
  -26.1840  -38.3350   23.9490 H   0  0  0  0  0  0  0  0  0  0  0  0
  -26.5180  -31.7630   25.1050 C   0  0  1  0  0  0  0  0  0  0  0  0
  -25.4340  -31.5250   26.1830 C   0  0  0  0  0  1  0  0  0  0  0  0
  -27.0990  -30.3860   24.7110 C   0  0  0  0  0  1  0  0  0  0  0  0
  -27.6710  -32.5600   25.7590 C   0  0  0  0  0  1  0  0  0  0  0  0
  1  6  1  0
  1 54  1  0
  2  5  1  0
  3  2  2  0
  3  6  1  0
  4  7  1  0
  5  9  1  0
  5  7  2  0
  6  4  2  0
  7  8  1  0
 10 20  1  0
 10  9  2  0
 11 20  1  0
 12 17  1  0
 13 14  1  0
 13 12  1  0
 15 14  1  0
 15 24  1  0
 15 16  1  0
 17 11  1  0
 17 16  1  0
 18 11  2  0
 20 19  1  0
 21 22  2  0
 22 41  1  0
 23 22  1  0
 23 26  1  0
 24 25  1  0
 24 21  1  0
 25 23  2  0
 26 27  1  0
 27 28  2  0
 29 32  1  0
 29 28  1  0
 30 29  2  0
 31 30  1  0
 31 26  2  0
 32 33  1  0
 33 38  2  0
 33 34  1  0
 34 35  2  0
 36 35  1  0
 36 40  1  0
 37 36  2  0
 38 37  1  0
 39 38  1  0
 41 42  1  0
 42 45  1  0
 42 44  1  0
 43 41  2  0
 46 21  1  0
 46 47  1  0
 48 46  1  0
 49  1  1  0
 50 49  1  0
 52 53  1  0
 53 51  1  0
 53 50  1  0
 55 54  1  0
 56 58  1  0
 56 55  1  0
 57 68  2  0
 58 63  1  0
 59 67  1  0
 59 69  1  0
 60 66  1  0
 60 62  1  0
 61 67  1  0
 62 61  1  0
 63 62  2  0
 64 65  1  0
 64 58  2  0
 65 60  2  0
 66 59  1  0
 67 57  1  0
 69 71  2  0
 70 69  1  0
 72 70  1  0
 73 82  2  0
 73 78  1  0
 74 70  1  0
 74 78  1  0
 75 74  1  0
 76 77  1  0
 76 75  1  0
 77 73  1  0
 78 79  2  0
 79 80  1  0
 81 80  2  0
 82 81  1  0
 83 57  1  0
 83 84  1  0
 83 93  1  0
 84 87  1  0
 85 89  1  0
 85 84  1  0
 86 85  2  0
 89 88  1  0
 91 89  1  0
 91 92  1  0
 91 90  1  0
 93 96  1  1
 93 94  1  0
 95 93  1  0
M  ISO  4  11 100  20 100  55 101  56 101
M  END
>  <TORSDO>  (6) 
F 24

>  <SCORE>  (6) 
-11.676

>  <name>  (6) 
5

>  <ligand_id>  (6) 
5

>  <original_smiles>  (6) 
[H]c1c([H])c([H])c2c(c1[H])C([H])([H])C([H])([H])C([H])([H])C2([H])N([H])C(=O)C1([H])N(C(=O)C([H])(N([H])C(=O)C([H])(N([H])C([H])([H])[H])C([H])([H])[H])C(C([H])([H])[H])(C([H])([H])[H])C([H])([H])[H])C([H])([H])c2c([H])c(OC([H])([H])C([H])([H])N(c3c([H])c([H])c(C([H])([H])C([H])([H])N(C(=O)N4C([H])([H])C([H])([H])C([H])([H])C([H])(n5nc(-c6c([H])c([H])c(Oc7c([H])c([H])c(F)c([H])c7F)c([H])c6[H])c(C(=O)N([H])[H])c5N([H])[H])C4([H])[H])C([H])([H])[H])c(F)c3[H])C([H])([H])C([H])([H])C([H])(C([H])([H])[H])C([H])([H])[H])c([H])c([H])c2C1([H])[H]

>  <smiles>  (6) 
[H]c1c([H])c([H])c2c(c1[H])C([H])([H])C([H])([H])C([H])([H])C2([H])N([H])C(=O)C1([H])N(C(=O)C([H])(N([H])C(=O)C([H])(N([H])C([H])([H])[H])C([H])([H])[H])C(C([H])([H])[H])(C([H])([H])[H])C([H])([H])[H])C([H])([H])c2c([H])c(OC([H])([H])C([H])([H])N(c3c([H])c([H])c(C([H])([H])C([H])([H])N(C(=O)N4C([H])([H])C([H])([H])C([H])([H])C([H])(n5nc(-c6c([H])c([H])c(Oc7c([H])c([H])c(F)c([H])c7F)c([H])c6[H])c(C(=O)N([H])[H])c5N([H])[H])C4([H])[H])C([H])([H])[H])c(F)c3[H])C([H])([H])C([H])([H])C([H])(C([H])([H])[H])C([H])([H])[H])c([H])c([H])c2C1([H])[H]

$$$$
6:0:0
     RDKit          3D

 93101  0  0  1  0  0  0  0  0999 V2000
  -31.2610  -22.1540   19.4510 C   0  0  0  0  0  1  0  0  0  0  0  0
  -30.3260  -22.0560   20.5990 N   0  0  1  0  0  4  0  0  0  0  0  0
  -29.4990  -21.5930   20.2550 H   0  0  0  0  0  0  0  0  0  0  0  0
  -30.8620  -21.1860   21.6850 C   0  0  0  0  0  2  0  0  0  0  0  0
  -31.9720  -18.8920   21.5900 C   0  0  0  0  0  3  0  0  0  0  0  0
  -31.9410  -17.4890   21.4360 C   0  0  0  0  0  3  0  0  0  0  0  0
  -29.5810  -17.6240   20.8750 C   0  0  0  0  0  3  0  0  0  0  0  0
  -30.8120  -19.6790   21.3950 C   0  0  0  0  0  0  0  0  0  0  0  0
  -29.6070  -19.0300   21.0200 C   0  0  0  0  0  0  0  0  0  0  0  0
  -30.7350  -16.8410   21.0850 C   0  0  0  0  0  0  0  0  0  0  0  0
  -28.3140  -19.8020   20.8000 C   0  0  0  0  0  1  0  0  0  0  0  0
  -31.2110  -14.5350   20.1880 C   0  0  0  0  0  0  0  0  0  0  0  0
  -30.8260  -12.4390   18.9380 C   0  0  0  0  0  2  0  0  0  0  0  0
  -29.8540  -12.7140   17.7720 C   0  0  0  0  0  2  0  0  0  0  0  0
  -28.3850  -12.6210   18.2360 C   0  0  0  0  0  2  0  0  0  0  0  0
  -28.1170  -13.4260   19.5350 C   0  0  0  0  0  3  0  0  0  0  0  0
  -29.1840  -13.0910   20.6010 C   0  0  0  0  0  2  0  0  0  0  0  0
  -30.5120  -13.3800   20.0220 N   0  0  0  0  0  0  0  0  0  0  0  0
  -32.2900  -14.7550   19.6280 O   0  0  0  0  0  0  0  0  0  0  0  0
  -30.5810  -15.4310   20.9680 N   0  0  0  0  0  0  0  0  0  0  0  0
  -29.7290  -15.0620   21.3640 H   0  0  0  0  0  0  0  0  0  0  0  0
  -25.7550  -14.1210   20.2980 C   0  0  0  0  0  0  0  0  0  0  0  0
  -24.6660  -13.3860   20.6820 C   0  0  0  0  0  0  0  0  0  0  0  0
  -25.0760  -12.0190   20.6270 C   0  0  0  0  0  0  0  0  0  0  0  0
  -26.7610  -13.2030   20.0360 N   0  0  0  0  0  0  0  0  0  0  0  0
  -26.3560  -11.9330   20.2890 N   0  0  0  0  0  0  0  0  0  0  0  0
  -24.3100  -10.7810   20.8240 C   0  0  0  0  0  0  0  0  0  0  0  0
  -24.6720   -9.8370   21.8090 C   0  0  0  0  0  3  0  0  0  0  0  0
  -23.9110   -8.6630   21.9890 C   0  0  0  0  0  3  0  0  0  0  0  0
  -22.7720   -8.4250   21.1840 C   0  0  0  0  0  0  0  0  0  0  0  0
  -22.4280   -9.3570   20.1900 C   0  0  0  0  0  3  0  0  0  0  0  0
  -23.1890  -10.5230   20.0070 C   0  0  0  0  0  3  0  0  0  0  0  0
  -21.9870   -7.2990   21.2700 O   0  0  0  0  0  0  0  0  0  0  0  0
  -21.7660   -6.6670   22.4670 C   0  0  0  0  0  0  0  0  0  0  0  0
  -21.1880   -7.3360   23.5670 C   0  0  0  0  0  3  0  0  0  0  0  0
  -20.9130   -6.6300   24.7560 C   0  0  0  0  0  3  0  0  0  0  0  0
  -21.2050   -5.2560   24.8430 C   0  0  0  0  0  0  0  0  0  0  0  0
  -21.7760   -4.5870   23.7460 C   0  0  0  0  0  3  0  0  0  0  0  0
  -22.0520   -5.2900   22.5600 C   0  0  0  0  0  0  0  0  0  0  0  0
  -22.5820   -4.6360   21.4990 F   0  0  0  0  0  0  0  0  0  0  0  0
  -20.9350   -4.5760   25.9810 F   0  0  0  0  0  0  0  0  0  0  0  0
  -23.2940  -13.9110   20.9910 C   0  0  0  0  0  0  0  0  0  0  0  0
  -22.5740  -13.2510   21.8910 N   0  0  0  0  0  0  0  0  0  0  0  0
  -22.8690  -14.9400   20.4680 O   0  0  0  0  0  0  0  0  0  0  0  0
  -22.9290  -12.4190   22.3370 H   0  0  0  0  0  0  0  0  0  0  0  0
  -21.6520  -13.5830   22.1380 H   0  0  0  0  0  0  0  0  0  0  0  0
  -25.9720  -15.4870   20.1340 N   0  0  0  0  0  0  0  0  0  0  0  0
  -25.2400  -16.1750   20.2750 H   0  0  0  0  0  0  0  0  0  0  0  0
  -26.8360  -15.8910   19.7980 H   0  0  0  0  0  0  0  0  0  0  0  0
  -29.8890  -23.3810   21.1380 C   0  0  0  0  0  2  0  0  0  0  0  0
  -29.4750  -24.4530   20.0920 C   0  0  0  0  0  2  0  0  0  0  0  0
  -28.8430  -25.7010   20.7430 C   0  0  0  0  0  2  0  0  0  0  0  0
  -28.7300  -26.7780   19.8090 O   0  0  0  0  0  0  0  0  0  0  0  0
  -24.7060  -31.6690   23.0750 C   0  0  0  0  0  0  0  0  0  0  0  0
  -27.5370  -27.4530   19.8640 C   0  0  0  0  0  0  0  0  0  0  0  0
  -23.5570  -30.2660   21.3890 C   0  0  0  0  0  3  0  0  0  0  0  0
  -25.0760  -28.8340   19.9230 C   0  0  0  0  0  0  0  0  0  0  0  0
  -26.0640  -30.7440   21.2020 C   0  0  0  0  0  2  0  0  0  0  0  0
  -26.2100  -29.3970   20.5240 C   0  0  0  0  0  0  0  0  0  0  0  0
  -27.4460  -28.7150   20.4920 C   0  0  0  0  0  3  0  0  0  0  0  0
  -26.3910  -26.8930   19.2650 C   0  0  0  0  0  3  0  0  0  0  0  0
  -25.1600  -27.5780   19.2920 C   0  0  0  0  0  3  0  0  0  0  0  0
  -23.7950  -29.6350   19.9910 C   0  0  0  0  0  2  0  0  0  0  0  0
  -24.7930  -30.9060   21.9480 N   0  0  0  0  0  0  0  0  0  0  0  0
  -23.6150  -31.8780   23.6240 O   0  0  0  0  0  0  0  0  0  0  0  0
  -22.9520  -29.1900   22.3180 C   0  0  0  0  0  0  0  0  0  0  0  0
  -21.6340  -28.9620   22.1880 N   0  0  0  0  0  0  0  0  0  0  0  0
  -23.6620  -28.5650   23.1090 O   0  0  0  0  0  0  0  0  0  0  0  0
  -21.1200  -29.5220   21.5230 H   0  0  0  0  0  0  0  0  0  0  0  0
  -18.3080  -27.6350   22.6610 C   0  0  0  0  0  0  0  0  0  0  0  0
  -20.8570  -27.9700   22.9290 C   0  0  0  0  0  3  0  0  0  0  0  0
  -21.0040  -26.5640   22.3020 C   0  0  0  0  0  2  0  0  0  0  0  0
  -19.9090  -26.2410   21.2820 C   0  0  0  0  0  2  0  0  0  0  0  0
  -18.5260  -26.3180   21.9350 C   0  0  0  0  0  2  0  0  0  0  0  0
  -19.4030  -28.4190   23.1120 C   0  0  0  0  0  0  0  0  0  0  0  0
  -19.1450  -29.6520   23.7490 C   0  0  0  0  0  3  0  0  0  0  0  0
  -17.8260  -30.1040   23.9360 C   0  0  0  0  0  3  0  0  0  0  0  0
  -16.7460  -29.3160   23.5030 C   0  0  0  0  0  3  0  0  0  0  0  0
  -16.9870  -28.0830   22.8710 C   0  0  0  0  0  3  0  0  0  0  0  0
  -25.9660  -32.3320   23.7130 C   0  0  0  0  0  3  0  0  0  0  0  0
  -25.6040  -33.7060   24.0820 N   0  0  0  0  0  0  0  0  0  0  0  0
  -25.8980  -34.7910   23.3530 C   0  0  0  0  0  0  0  0  0  0  0  0
  -26.5760  -34.7420   22.3230 O   0  0  0  0  0  0  0  0  0  0  0  0
  -25.0020  -33.8150   24.8850 H   0  0  0  0  0  0  0  0  0  0  0  0
  -24.1000  -36.5200   23.0380 C   0  0  0  0  0  1  0  0  0  0  0  0
  -25.3530  -36.1450   23.8450 C   0  0  0  0  0  3  0  0  0  0  0  0
  -27.4440  -37.0910   24.7140 C   0  0  0  0  0  1  0  0  0  0  0  0
  -26.3420  -37.2410   23.7680 N   0  0  0  0  0  0  0  0  0  0  0  0
  -25.8980  -38.1390   23.9400 H   0  0  0  0  0  0  0  0  0  0  0  0
  -26.5170  -31.5450   24.9660 C   0  0  1  0  0  0  0  0  0  0  0  0
  -25.4360  -31.2330   26.0270 C   0  0  0  0  0  1  0  0  0  0  0  0
  -27.1540  -30.2050   24.5290 C   0  0  0  0  0  1  0  0  0  0  0  0
  -27.6340  -32.3660   25.6510 C   0  0  0  0  0  1  0  0  0  0  0  0
  1  2  1  0
  2 50  1  0
  2  4  1  0
  2  3  1  6
  6  5  1  0
  7  9  2  0
  7 10  1  0
  8  5  2  0
  8  4  1  0
  9  8  1  0
 10  6  2  0
 11  9  1  0
 12 20  1  0
 13 18  1  0
 14 15  1  0
 14 13  1  0
 16 15  1  0
 16 25  1  0
 16 17  1  0
 18 12  1  0
 18 17  1  0
 19 12  2  0
 20 10  1  0
 20 21  1  0
 22 23  2  0
 23 42  1  0
 24 23  1  0
 24 27  1  0
 25 26  1  0
 25 22  1  0
 26 24  2  0
 27 28  1  0
 28 29  2  0
 30 33  1  0
 30 29  1  0
 31 30  2  0
 32 31  1  0
 32 27  2  0
 33 34  1  0
 34 39  2  0
 34 35  1  0
 35 36  2  0
 36 37  1  0
 37 41  1  0
 38 37  2  0
 39 38  1  0
 40 39  1  0
 42 43  1  0
 43 46  1  0
 43 45  1  0
 44 42  2  0
 47 48  1  0
 47 22  1  0
 49 47  1  0
 51 52  1  0
 51 50  1  0
 53 55  1  0
 53 52  1  0
 54 65  2  0
 55 60  1  0
 56 64  1  0
 56 66  1  0
 57 63  1  0
 57 59  1  0
 58 64  1  0
 59 58  1  0
 60 59  2  0
 61 62  1  0
 61 55  2  0
 62 57  2  0
 63 56  1  0
 64 54  1  0
 66 68  2  0
 67 66  1  0
 69 67  1  0
 70 79  2  0
 70 75  1  0
 71 67  1  0
 71 75  1  0
 72 71  1  0
 73 74  1  0
 73 72  1  0
 74 70  1  0
 75 76  2  0
 76 77  1  0
 78 77  2  0
 79 78  1  0
 80 54  1  0
 80 81  1  0
 80 90  1  0
 81 84  1  0
 82 86  1  0
 82 81  1  0
 83 82  2  0
 86 85  1  0
 88 86  1  0
 88 89  1  0
 88 87  1  0
 90 93  1  1
 90 91  1  0
 92 90  1  0
M  ISO  4  12 100  20 100  52 101  53 101
M  END
>  <TORSDO>  (7) 
F 21

>  <SCORE>  (7) 
-12.202

>  <name>  (7) 
6

>  <ligand_id>  (7) 
6

>  <original_smiles>  (7) 
[H]c1c([H])c([H])c2c(c1[H])C([H])([H])C([H])([H])C([H])([H])C2([H])N([H])C(=O)C1([H])N(C(=O)C([H])(N([H])C(=O)C([H])(N([H])C([H])([H])[H])C([H])([H])[H])C(C([H])([H])[H])(C([H])([H])[H])C([H])([H])[H])C([H])([H])c2c([H])c(OC([H])([H])C([H])([H])C([H])([H])[N+]([H])(C([H])([H])[H])C([H])([H])c3c([H])c([H])c(N([H])C(=O)N4C([H])([H])C([H])([H])C([H])([H])C([H])(n5nc(-c6c([H])c([H])c(Oc7c([H])c([H])c(F)c([H])c7F)c([H])c6[H])c(C(=O)N([H])[H])c5N([H])[H])C4([H])[H])c([H])c3C([H])([H])[H])c([H])c([H])c2C1([H])[H]

>  <smiles>  (7) 
[H]c1c([H])c([H])c2c(c1[H])C([H])([H])C([H])([H])C([H])([H])C2([H])N([H])C(=O)C1([H])N(C(=O)C([H])(N([H])C(=O)C([H])(N([H])C([H])([H])[H])C([H])([H])[H])C(C([H])([H])[H])(C([H])([H])[H])C([H])([H])[H])C([H])([H])c2c([H])c(OC([H])([H])C([H])([H])C([H])([H])[N+]([H])(C([H])([H])[H])C([H])([H])c3c([H])c([H])c(N([H])C(=O)N4C([H])([H])C([H])([H])C([H])([H])C([H])(n5nc(-c6c([H])c([H])c(Oc7c([H])c([H])c(F)c([H])c7F)c([H])c6[H])c(C(=O)N([H])[H])c5N([H])[H])C4([H])[H])c([H])c3C([H])([H])[H])c([H])c([H])c2C1([H])[H]

$$$$
7:0:0
     RDKit          3D

105114  0  0  1  0  0  0  0  0999 V2000
  -28.3920  -19.9780   18.8440 C   0  0  0  0  0  2  0  0  0  0  0  0
  -30.1610  -19.9240   17.1220 C   0  0  0  0  0  2  0  0  0  0  0  0
  -29.0340  -21.2200   19.5330 C   0  0  0  0  0  2  0  0  0  0  0  0
  -30.8270  -21.1750   17.7610 C   0  0  0  0  0  2  0  0  0  0  0  0
  -29.4580  -19.0420   18.1880 C   0  0  0  0  0  3  0  0  0  0  0  0
  -29.9060  -22.1290   18.6120 C   0  0  1  0  0  0  0  0  0  0  0  0
  -28.9870  -22.9400   17.6590 C   0  0  0  0  0  1  0  0  0  0  0  0
  -28.2840  -16.8410   18.5340 C   0  0  0  0  0  0  0  0  0  0  0  0
  -28.8020  -17.3930   16.3090 C   0  0  0  0  0  1  0  0  0  0  0  0
  -29.0340  -17.6520   17.7480 N   0  0  0  0  0  0  0  0  0  0  0  0
  -27.1000  -17.1170   18.7540 O   0  0  0  0  0  0  0  0  0  0  0  0
  -28.3620  -15.3800   20.7650 C   0  0  0  0  0  3  0  0  0  0  0  0
  -28.7200  -14.1190   21.7220 C   0  0  0  0  0  2  0  0  0  0  0  0
  -30.1210  -12.7980   19.8920 C   0  0  0  0  0  2  0  0  0  0  0  0
  -28.8620  -15.6240   19.2370 C   0  0  0  0  0  0  0  0  0  0  0  0
  -29.7140  -12.9150   21.3600 C   0  0  0  0  0  3  0  0  0  0  0  0
  -29.8490  -14.4320   18.5740 C   0  0  0  0  0  3  0  0  0  0  0  0
  -30.3540  -14.7060   17.3360 F   0  0  0  0  0  0  0  0  0  0  0  0
  -32.2820  -13.3180   21.0000 C   0  0  0  0  0  0  0  0  0  0  0  0
  -32.0770  -11.6690   18.8270 C   0  0  0  0  0  3  0  0  0  0  0  0
  -30.5580  -10.7530   18.1620 C   0  0  0  0  0  3  0  0  0  0  0  0
  -28.7180  -11.1620   18.4060 C   0  0  0  0  0  2  0  0  0  0  0  0
  -28.1520  -12.7860   19.2820 C   0  0  0  0  0  2  0  0  0  0  0  0
  -30.9460  -14.2630   19.8930 C   0  0  0  0  0  3  0  0  0  0  0  0
  -32.1440  -13.1650   19.6960 N   0  0  0  0  0  0  0  0  0  0  0  0
  -33.2520  -14.0520   21.1400 O   0  0  0  0  0  0  0  0  0  0  0  0
  -31.1620  -12.9910   21.8770 N   0  0  0  0  0  0  0  0  0  0  0  0
  -31.2760  -13.2260   22.8520 H   0  0  0  0  0  0  0  0  0  0  0  0
  -26.1950  -13.5440   20.4100 C   0  0  0  0  0  0  0  0  0  0  0  0
  -25.1120  -12.8790   20.8130 C   0  0  0  0  0  0  0  0  0  0  0  0
  -25.4420  -11.4880   20.7910 C   0  0  0  0  0  0  0  0  0  0  0  0
  -27.0880  -12.5600   20.1490 N   0  0  0  0  0  0  0  0  0  0  0  0
  -26.7090  -11.3120   20.4710 N   0  0  0  0  0  0  0  0  0  0  0  0
  -24.5960  -10.3240   20.9560 C   0  0  0  0  0  0  0  0  0  0  0  0
  -24.8960   -9.3290   21.9060 C   0  0  0  0  0  3  0  0  0  0  0  0
  -24.0060   -8.2590   22.1040 C   0  0  0  0  0  3  0  0  0  0  0  0
  -22.8150   -8.1830   21.3490 C   0  0  0  0  0  0  0  0  0  0  0  0
  -22.5530   -9.1580   20.3700 C   0  0  0  0  0  3  0  0  0  0  0  0
  -23.4410  -10.2180   20.1640 C   0  0  0  0  0  3  0  0  0  0  0  0
  -21.8980   -7.1710   21.4650 O   0  0  0  0  0  0  0  0  0  0  0  0
  -21.7400   -6.4820   22.6380 C   0  0  0  0  0  0  0  0  0  0  0  0
  -21.3720   -7.1360   23.8330 C   0  0  0  0  0  3  0  0  0  0  0  0
  -21.1610   -6.3860   25.0070 C   0  0  0  0  0  3  0  0  0  0  0  0
  -21.3030   -4.9850   24.9810 C   0  0  0  0  0  0  0  0  0  0  0  0
  -21.6550   -4.3320   23.7860 C   0  0  0  0  0  3  0  0  0  0  0  0
  -21.8770   -5.0800   22.6170 C   0  0  0  0  0  0  0  0  0  0  0  0
  -22.2080   -4.4590   21.4580 F   0  0  0  0  0  0  0  0  0  0  0  0
  -21.0800   -4.2520   26.0960 F   0  0  0  0  0  0  0  0  0  0  0  0
  -23.8040  -13.5420   21.0100 C   0  0  0  0  0  0  0  0  0  0  0  0
  -23.0070  -12.9990   21.9050 N   0  0  0  0  0  0  0  0  0  0  0  0
  -23.5270  -14.5850   20.4140 O   0  0  0  0  0  0  0  0  0  0  0  0
  -23.2590  -12.1410   22.3780 H   0  0  0  0  0  0  0  0  0  0  0  0
  -22.1030  -13.4130   22.0930 H   0  0  0  0  0  0  0  0  0  0  0  0
  -26.3980  -14.8810   20.0880 N   0  0  0  0  0  0  0  0  0  0  0  0
  -25.7050  -15.6020   20.2260 H   0  0  0  0  0  0  0  0  0  0  0  0
  -27.1900  -15.1880   19.5360 H   0  0  0  0  0  0  0  0  0  0  0  0
  -31.9900  -23.5910   18.8410 C   0  0  0  0  0  1  0  0  0  0  0  0
  -30.7420  -23.0670   19.4820 N   0  0  1  0  0  4  0  0  0  0  0  0
  -31.1030  -22.4660   20.2070 H   0  0  0  0  0  0  0  0  0  0  0  0
  -29.9960  -24.1170   20.2600 C   0  0  0  0  0  2  0  0  0  0  0  0
  -30.9040  -25.0340   21.1330 C   0  0  0  0  0  2  0  0  0  0  0  0
  -30.5540  -24.9310   23.6540 C   0  0  0  0  0  1  0  0  0  0  0  0
  -30.2660  -25.7190   22.3650 C   0  0  0  0  0  3  0  0  0  0  0  0
  -28.7650  -26.0450   22.2370 C   0  0  0  0  0  2  0  0  0  0  0  0
  -28.5030  -26.6580   20.9860 O   0  0  0  0  0  0  0  0  0  0  0  0
  -24.5210  -32.0140   23.5010 C   0  0  0  0  0  0  0  0  0  0  0  0
  -27.3270  -27.3570   20.9470 C   0  0  0  0  0  0  0  0  0  0  0  0
  -23.4050  -30.4790   21.9120 C   0  0  0  0  0  3  0  0  0  0  0  0
  -24.9320  -28.8200   20.7180 C   0  0  0  0  0  0  0  0  0  0  0  0
  -25.9380  -30.8180   21.8410 C   0  0  0  0  0  2  0  0  0  0  0  0
  -26.0500  -29.4000   21.3290 C   0  0  0  0  0  0  0  0  0  0  0  0
  -27.2510  -28.6710   21.4510 C   0  0  0  0  0  3  0  0  0  0  0  0
  -26.1950  -26.7750   20.3420 C   0  0  0  0  0  3  0  0  0  0  0  0
  -24.9930  -27.5020   20.2300 C   0  0  0  0  0  3  0  0  0  0  0  0
  -23.6910  -29.6780   20.6120 C   0  0  0  0  0  2  0  0  0  0  0  0
  -24.6350  -31.1240   22.4760 N   0  0  0  0  0  0  0  0  0  0  0  0
  -23.4120  -32.3340   23.9510 O   0  0  0  0  0  0  0  0  0  0  0  0
  -22.6900  -29.5460   22.9150 C   0  0  0  0  0  0  0  0  0  0  0  0
  -21.3980  -29.2770   22.6630 N   0  0  0  0  0  0  0  0  0  0  0  0
  -23.2990  -29.0610   23.8710 O   0  0  0  0  0  0  0  0  0  0  0  0
  -20.9700  -29.7190   21.8620 H   0  0  0  0  0  0  0  0  0  0  0  0
  -18.0480  -27.9500   22.9080 C   0  0  0  0  0  0  0  0  0  0  0  0
  -20.5370  -28.3940   23.4480 C   0  0  0  0  0  3  0  0  0  0  0  0
  -20.7750  -26.9110   23.0810 C   0  0  0  0  0  2  0  0  0  0  0  0
  -19.8270  -26.3990   21.9930 C   0  0  0  0  0  2  0  0  0  0  0  0
  -18.3690  -26.5400   22.4410 C   0  0  0  0  0  2  0  0  0  0  0  0
  -19.0680  -28.8250   23.3660 C   0  0  0  0  0  0  0  0  0  0  0  0
  -18.7210  -30.1380   23.7550 C   0  0  0  0  0  3  0  0  0  0  0  0
  -17.3860  -30.5760   23.6960 C   0  0  0  0  0  3  0  0  0  0  0  0
  -16.3780  -29.7000   23.2580 C   0  0  0  0  0  3  0  0  0  0  0  0
  -16.7090  -28.3900   22.8700 C   0  0  0  0  0  3  0  0  0  0  0  0
  -25.7750  -32.6900   24.1410 C   0  0  0  0  0  3  0  0  0  0  0  0
  -26.2300  -32.0070   25.4890 C   0  0  1  0  0  0  0  0  0  0  0  0
  -25.0720  -31.7760   26.4890 C   0  0  0  0  0  1  0  0  0  0  0  0
  -26.8960  -30.6390   25.2130 C   0  0  0  0  0  1  0  0  0  0  0  0
  -27.2960  -32.8840   26.1860 C   0  0  0  0  0  1  0  0  0  0  0  0
  -25.4510  -34.1060   24.3590 N   0  0  0  0  0  0  0  0  0  0  0  0
  -25.8320  -35.1050   23.5520 C   0  0  0  0  0  0  0  0  0  0  0  0
  -26.5630  -34.9330   22.5710 O   0  0  0  0  0  0  0  0  0  0  0  0
  -24.8100  -34.3140   25.1100 H   0  0  0  0  0  0  0  0  0  0  0  0
  -24.1250  -36.8610   22.9780 C   0  0  0  0  0  1  0  0  0  0  0  0
  -25.3210  -36.5190   23.8830 C   0  0  0  0  0  3  0  0  0  0  0  0
  -27.4110  -37.4640   24.7610 C   0  0  0  0  0  1  0  0  0  0  0  0
  -26.3570  -37.5660   23.7540 N   0  0  0  0  0  0  0  0  0  0  0  0
  -25.9440  -38.4930   23.8210 H   0  0  0  0  0  0  0  0  0  0  0  0
  1  3  1  0
  2  4  1  0
  2  5  1  0
  4  6  1  0
  5 10  1  0
  5  1  1  0
  6  7  1  6
  6 58  1  0
  6  3  1  0
  8 11  2  0
  8 15  1  0
  9 10  1  0
 10  8  1  0
 12 13  1  0
 15 12  2  0
 16 14  1  0
 16 13  1  0
 16 27  1  0
 17 18  1  0
 17 15  1  0
 17 24  1  0
 19 26  2  0
 19 27  1  0
 20 25  1  0
 21 22  1  0
 21 20  2  0
 22 23  1  0
 23 32  1  0
 24 14  1  0
 25 24  1  0
 25 19  1  0
 27 28  1  0
 29 30  2  0
 30 49  1  0
 31 30  1  0
 31 34  1  0
 32 29  1  0
 32 33  1  0
 33 31  2  0
 34 35  1  0
 35 36  2  0
 37 40  1  0
 37 36  1  0
 38 37  2  0
 39 38  1  0
 39 34  2  0
 40 41  1  0
 41 42  1  0
 42 43  2  0
 44 43  1  0
 44 48  1  0
 45 44  2  0
 46 41  2  0
 46 45  1  0
 47 46  1  0
 49 50  1  0
 50 53  1  0
 50 52  1  0
 51 49  2  0
 54 55  1  0
 54 29  1  0
 56 54  1  0
 57 58  1  0
 58 59  1  1
 58 60  1  0
 60 61  1  0
 61 63  1  0
 63 62  1  0
 64 63  1  0
 65 64  1  0
 66 77  2  0
 67 65  1  0
 67 72  1  0
 68 76  1  0
 68 78  1  0
 69 71  1  0
 70 76  1  0
 71 72  2  0
 71 70  1  0
 73 67  2  0
 74 73  1  0
 74 69  2  0
 75 69  1  0
 75 68  1  0
 76 66  1  0
 78 80  2  0
 79 78  1  0
 81 79  1  0
 82 87  1  0
 83 79  1  0
 84 83  1  0
 85 86  1  0
 85 84  1  0
 86 82  1  0
 87 83  1  0
 87 88  2  0
 89 88  1  0
 90 89  2  0
 91 82  2  0
 91 90  1  0
 92 66  1  0
 92 97  1  0
 92 93  1  0
 93 96  1  1
 93 94  1  0
 95 93  1  0
 97100  1  0
 98102  1  0
 98 97  1  0
 99 98  2  0
102101  1  0
104105  1  0
104102  1  0
104103  1  0
M  ISO  4  19 100  27 100  64 101  65 101
M  END
>  <TORSDO>  (8) 
F 23

>  <SCORE>  (8) 
-6.074

>  <name>  (8) 
7

>  <ligand_id>  (8) 
7

>  <original_smiles>  (8) 
[H]c1c([H])c([H])c2c(c1[H])C([H])([H])C([H])([H])C([H])([H])C2([H])N([H])C(=O)C1([H])N(C(=O)C([H])(N([H])C(=O)C([H])(N([H])C([H])([H])[H])C([H])([H])[H])C(C([H])([H])[H])(C([H])([H])[H])C([H])([H])[H])C([H])([H])c2c([H])c(OC([H])([H])C([H])(C([H])([H])[H])C([H])([H])C([H])([H])[N+]([H])(C([H])([H])[H])C3(C([H])([H])[H])C([H])([H])C([H])([H])C([H])(N(C(=O)c4c([H])c([H])c(N([H])C(=O)N5C([H])([H])C([H])([H])C([H])([H])C([H])(n6nc(-c7c([H])c([H])c(Oc8c([H])c([H])c(F)c([H])c8F)c([H])c7[H])c(C(=O)N([H])[H])c6N([H])[H])C5([H])[H])c([H])c4F)C([H])([H])[H])C([H])([H])C3([H])[H])c([H])c([H])c2C1([H])[H]

>  <smiles>  (8) 
[H]c1c([H])c([H])c2c(c1[H])C([H])([H])C([H])([H])C([H])([H])C2([H])N([H])C(=O)C1([H])N(C(=O)C([H])(N([H])C(=O)C([H])(N([H])C([H])([H])[H])C([H])([H])[H])C(C([H])([H])[H])(C([H])([H])[H])C([H])([H])[H])C([H])([H])c2c([H])c(OC([H])([H])C([H])(C([H])([H])[H])C([H])([H])C([H])([H])[N+]([H])(C([H])([H])[H])C3(C([H])([H])[H])C([H])([H])C([H])([H])C([H])(N(C(=O)c4c([H])c([H])c(N([H])C(=O)N5C([H])([H])C([H])([H])C([H])([H])C([H])(n6nc(-c7c([H])c([H])c(Oc8c([H])c([H])c(F)c([H])c8F)c([H])c7[H])c(C(=O)N([H])[H])c6N([H])[H])C5([H])[H])c([H])c4F)C([H])([H])[H])C([H])([H])C3([H])[H])c([H])c([H])c2C1([H])[H]

$$$$
8:0:0
     RDKit          3D

 93101  0  0  1  0  0  0  0  0999 V2000
  -28.4280  -21.3760   18.4740 C   0  0  0  0  0  1  0  0  0  0  0  0
  -29.2940  -21.8000   19.6030 N   0  0  1  0  0  4  0  0  0  0  0  0
  -28.7820  -21.6050   20.4490 H   0  0  0  0  0  0  0  0  0  0  0  0
  -30.5330  -20.9730   19.7010 C   0  0  0  0  0  2  0  0  0  0  0  0
  -30.0050  -18.5160   19.0900 C   0  0  0  0  0  3  0  0  0  0  0  0
  -29.9610  -17.1430   19.4280 C   0  0  0  0  0  3  0  0  0  0  0  0
  -30.5580  -19.0570   21.3800 C   0  0  0  0  0  3  0  0  0  0  0  0
  -30.3270  -19.4900   20.0600 C   0  0  0  0  0  0  0  0  0  0  0  0
  -30.2780  -16.6860   20.7380 C   0  0  0  0  0  0  0  0  0  0  0  0
  -30.5480  -17.6890   21.7170 C   0  0  0  0  0  0  0  0  0  0  0  0
  -30.8410  -17.3780   23.0010 F   0  0  0  0  0  0  0  0  0  0  0  0
  -30.7510  -14.3780   20.0890 C   0  0  0  0  0  0  0  0  0  0  0  0
  -30.2430  -12.3460   18.7730 C   0  0  0  0  0  2  0  0  0  0  0  0
  -29.2230  -12.6470   17.6590 C   0  0  0  0  0  2  0  0  0  0  0  0
  -27.7800  -12.5220   18.1860 C   0  0  0  0  0  2  0  0  0  0  0  0
  -27.5640  -13.2810   19.5200 C   0  0  0  0  0  3  0  0  0  0  0  0
  -28.6850  -12.9670   20.5280 C   0  0  0  0  0  2  0  0  0  0  0  0
  -29.9830  -13.2650   19.8940 N   0  0  0  0  0  0  0  0  0  0  0  0
  -31.7520  -14.6150   19.4010 O   0  0  0  0  0  0  0  0  0  0  0  0
  -30.4850  -14.8030   22.4320 C   0  0  0  0  0  1  0  0  0  0  0  0
  -30.3470  -15.2610   21.0370 N   0  0  0  0  0  0  0  0  0  0  0  0
  -25.2460  -13.8890   20.4580 C   0  0  0  0  0  0  0  0  0  0  0  0
  -24.1990  -13.1150   20.8810 C   0  0  0  0  0  0  0  0  0  0  0  0
  -24.6320  -11.7590   20.7560 C   0  0  0  0  0  0  0  0  0  0  0  0
  -26.2490  -13.0040   20.0960 N   0  0  0  0  0  0  0  0  0  0  0  0
  -25.8890  -11.7160   20.3320 N   0  0  0  0  0  0  0  0  0  0  0  0
  -23.9000  -10.5000   20.9520 C   0  0  0  0  0  0  0  0  0  0  0  0
  -24.3670   -9.5040   21.8370 C   0  0  0  0  0  3  0  0  0  0  0  0
  -23.6370   -8.3090   22.0200 C   0  0  0  0  0  3  0  0  0  0  0  0
  -22.4240   -8.1040   21.3190 C   0  0  0  0  0  0  0  0  0  0  0  0
  -21.9750   -9.0900   20.4230 C   0  0  0  0  0  3  0  0  0  0  0  0
  -22.7050  -10.2750   20.2370 C   0  0  0  0  0  3  0  0  0  0  0  0
  -21.6620   -6.9650   21.4150 O   0  0  0  0  0  0  0  0  0  0  0  0
  -21.6380   -6.2080   22.5590 C   0  0  0  0  0  0  0  0  0  0  0  0
  -21.2590   -6.7530   23.8060 C   0  0  0  0  0  3  0  0  0  0  0  0
  -21.1820   -5.9240   24.9430 C   0  0  0  0  0  3  0  0  0  0  0  0
  -21.4720   -4.5500   24.8350 C   0  0  0  0  0  0  0  0  0  0  0  0
  -21.8430   -4.0050   23.5920 C   0  0  0  0  0  3  0  0  0  0  0  0
  -21.9220   -4.8320   22.4590 C   0  0  0  0  0  0  0  0  0  0  0  0
  -22.2600   -4.2960   21.2610 F   0  0  0  0  0  0  0  0  0  0  0  0
  -21.3900   -3.7520   25.9240 F   0  0  0  0  0  0  0  0  0  0  0  0
  -22.8370  -13.5980   21.2930 C   0  0  0  0  0  0  0  0  0  0  0  0
  -22.1830  -12.8940   22.2090 N   0  0  0  0  0  0  0  0  0  0  0  0
  -22.3640  -14.6390   20.8350 O   0  0  0  0  0  0  0  0  0  0  0  0
  -22.5790  -12.0510   22.6030 H   0  0  0  0  0  0  0  0  0  0  0  0
  -21.2730  -13.2010   22.5220 H   0  0  0  0  0  0  0  0  0  0  0  0
  -25.4240  -15.2630   20.3320 N   0  0  0  0  0  0  0  0  0  0  0  0
  -24.6940  -15.9290   20.5530 H   0  0  0  0  0  0  0  0  0  0  0  0
  -26.2660  -15.7020   19.9830 H   0  0  0  0  0  0  0  0  0  0  0  0
  -29.5800  -23.2750   19.6150 C   0  0  0  0  0  2  0  0  0  0  0  0
  -28.3230  -24.1770   19.8170 C   0  0  0  0  0  2  0  0  0  0  0  0
  -28.5230  -25.4490   20.7000 C   0  0  0  0  0  2  0  0  0  0  0  0
  -28.5250  -26.7180   20.0260 O   0  0  0  0  0  0  0  0  0  0  0  0
  -24.6120  -31.8410   23.1180 C   0  0  0  0  0  0  0  0  0  0  0  0
  -27.3420  -27.4250   20.0620 C   0  0  0  0  0  0  0  0  0  0  0  0
  -23.4360  -30.4170   21.4770 C   0  0  0  0  0  3  0  0  0  0  0  0
  -24.9200  -28.8860   20.0750 C   0  0  0  0  0  0  0  0  0  0  0  0
  -25.9550  -30.8160   21.2810 C   0  0  0  0  0  2  0  0  0  0  0  0
  -26.0700  -29.4400   20.6530 C   0  0  0  0  0  0  0  0  0  0  0  0
  -27.2890  -28.7190   20.6330 C   0  0  0  0  0  3  0  0  0  0  0  0
  -26.1670  -26.8750   19.5070 C   0  0  0  0  0  3  0  0  0  0  0  0
  -24.9630  -27.6030   19.5040 C   0  0  0  0  0  3  0  0  0  0  0  0
  -23.6630  -29.7290   20.1020 C   0  0  0  0  0  2  0  0  0  0  0  0
  -24.6870  -31.0410   22.0180 N   0  0  0  0  0  0  0  0  0  0  0  0
  -23.5250  -32.0980   23.6530 O   0  0  0  0  0  0  0  0  0  0  0  0
  -22.7920  -29.3920   22.4390 C   0  0  0  0  0  0  0  0  0  0  0  0
  -21.4650  -29.2210   22.3320 N   0  0  0  0  0  0  0  0  0  0  0  0
  -23.4840  -28.7530   23.2360 O   0  0  0  0  0  0  0  0  0  0  0  0
  -20.9680  -29.7880   21.6590 H   0  0  0  0  0  0  0  0  0  0  0  0
  -18.0860  -28.0680   22.8950 C   0  0  0  0  0  0  0  0  0  0  0  0
  -20.6550  -28.2820   23.1050 C   0  0  0  0  0  3  0  0  0  0  0  0
  -20.7200  -26.8610   22.4990 C   0  0  0  0  0  2  0  0  0  0  0  0
  -19.5880  -26.5750   21.5080 C   0  0  0  0  0  2  0  0  0  0  0  0
  -18.2240  -26.7290   22.1900 C   0  0  0  0  0  2  0  0  0  0  0  0
  -19.2270  -28.8040   23.3100 C   0  0  0  0  0  0  0  0  0  0  0  0
  -19.0460  -30.0600   23.9290 C   0  0  0  0  0  3  0  0  0  0  0  0
  -17.7540  -30.5780   24.1380 C   0  0  0  0  0  3  0  0  0  0  0  0
  -16.6270  -29.8390   23.7410 C   0  0  0  0  0  3  0  0  0  0  0  0
  -16.7950  -28.5860   23.1230 C   0  0  0  0  0  3  0  0  0  0  0  0
  -25.8840  -32.4960   23.7450 C   0  0  0  0  0  3  0  0  0  0  0  0
  -25.5430  -33.8830   24.0910 N   0  0  0  0  0  0  0  0  0  0  0  0
  -25.8340  -34.9500   23.3360 C   0  0  0  0  0  0  0  0  0  0  0  0
  -26.4910  -34.8730   22.2930 O   0  0  0  0  0  0  0  0  0  0  0  0
  -24.9600  -34.0140   24.9050 H   0  0  0  0  0  0  0  0  0  0  0  0
  -24.0460  -36.6920   23.0360 C   0  0  0  0  0  1  0  0  0  0  0  0
  -25.3180  -36.3210   23.8150 C   0  0  0  0  0  3  0  0  0  0  0  0
  -27.4490  -37.2630   24.5920 C   0  0  0  0  0  1  0  0  0  0  0  0
  -26.3170  -37.4060   23.6810 N   0  0  0  0  0  0  0  0  0  0  0  0
  -25.8890  -38.3120   23.8490 H   0  0  0  0  0  0  0  0  0  0  0  0
  -26.4220  -31.7220   25.0100 C   0  0  1  0  0  0  0  0  0  0  0  0
  -25.3390  -31.4460   26.0790 C   0  0  0  0  0  1  0  0  0  0  0  0
  -27.0350  -30.3650   24.5910 C   0  0  0  0  0  1  0  0  0  0  0  0
  -27.5620  -32.5310   25.6740 C   0  0  0  0  0  1  0  0  0  0  0  0
  1  2  1  0
  2 50  1  0
  2  4  1  0
  2  3  1  1
  4  8  1  0
  5  6  2  0
  5  8  1  0
  6  9  1  0
  7 10  1  0
  8  7  2  0
  9 21  1  0
  9 10  2  0
 10 11  1  0
 12 21  1  0
 13 18  1  0
 14 15  1  0
 14 13  1  0
 16 15  1  0
 16 25  1  0
 16 17  1  0
 18 12  1  0
 18 17  1  0
 19 12  2  0
 21 20  1  0
 22 23  2  0
 23 42  1  0
 24 23  1  0
 24 27  1  0
 25 26  1  0
 25 22  1  0
 26 24  2  0
 27 28  1  0
 28 29  2  0
 30 33  1  0
 30 29  1  0
 31 30  2  0
 32 31  1  0
 32 27  2  0
 33 34  1  0
 34 35  1  0
 35 36  2  0
 37 36  1  0
 37 41  1  0
 38 37  2  0
 39 34  2  0
 39 38  1  0
 40 39  1  0
 42 43  1  0
 43 46  1  0
 43 45  1  0
 44 42  2  0
 47 22  1  0
 47 48  1  0
 49 47  1  0
 50 51  1  0
 51 52  1  0
 53 55  1  0
 53 52  1  0
 54 65  2  0
 55 60  1  0
 56 64  1  0
 56 66  1  0
 57 63  1  0
 57 59  1  0
 58 64  1  0
 59 58  1  0
 60 59  2  0
 61 55  2  0
 62 61  1  0
 62 57  2  0
 63 56  1  0
 64 54  1  0
 66 68  2  0
 67 66  1  0
 69 67  1  0
 70 79  2  0
 70 75  1  0
 71 67  1  0
 71 75  1  0
 72 71  1  0
 73 74  1  0
 73 72  1  0
 74 70  1  0
 75 76  2  0
 76 77  1  0
 78 77  2  0
 79 78  1  0
 80 54  1  0
 80 81  1  0
 80 90  1  0
 81 84  1  0
 82 86  1  0
 82 81  1  0
 83 82  2  0
 86 85  1  0
 88 86  1  0
 88 89  1  0
 88 87  1  0
 90 93  1  1
 90 91  1  0
 92 90  1  0
M  ISO  4  12 100  21 100  52 101  53 101
M  END
>  <TORSDO>  (9) 
F 21

>  <SCORE>  (9) 
-12.189

>  <name>  (9) 
8

>  <ligand_id>  (9) 
8

>  <original_smiles>  (9) 
[H]c1c([H])c([H])c2c(c1[H])C([H])([H])C([H])([H])C([H])([H])C2([H])N([H])C(=O)C1([H])N(C(=O)C([H])(N([H])C(=O)C([H])(N([H])C([H])([H])[H])C([H])([H])[H])C(C([H])([H])[H])(C([H])([H])[H])C([H])([H])[H])C([H])([H])c2c([H])c(OC([H])([H])C([H])([H])C([H])([H])[N+]([H])(C([H])([H])[H])C([H])([H])c3c([H])c([H])c(N(C(=O)N4C([H])([H])C([H])([H])C([H])([H])C([H])(n5nc(-c6c([H])c([H])c(Oc7c([H])c([H])c(F)c([H])c7F)c([H])c6[H])c(C(=O)N([H])[H])c5N([H])[H])C4([H])[H])C([H])([H])[H])c(F)c3[H])c([H])c([H])c2C1([H])[H]

>  <smiles>  (9) 
[H]c1c([H])c([H])c2c(c1[H])C([H])([H])C([H])([H])C([H])([H])C2([H])N([H])C(=O)C1([H])N(C(=O)C([H])(N([H])C(=O)C([H])(N([H])C([H])([H])[H])C([H])([H])[H])C(C([H])([H])[H])(C([H])([H])[H])C([H])([H])[H])C([H])([H])c2c([H])c(OC([H])([H])C([H])([H])C([H])([H])[N+]([H])(C([H])([H])[H])C([H])([H])c3c([H])c([H])c(N(C(=O)N4C([H])([H])C([H])([H])C([H])([H])C([H])(n5nc(-c6c([H])c([H])c(Oc7c([H])c([H])c(F)c([H])c7F)c([H])c6[H])c(C(=O)N([H])[H])c5N([H])[H])C4([H])[H])C([H])([H])[H])c(F)c3[H])c([H])c([H])c2C1([H])[H]

$$$$
9:0:0
     RDKit          3D

 89 97  0  0  1  0  0  0  0  0999 V2000
  -30.2570  -23.3810   19.3910 C   0  0  0  0  0  1  0  0  0  0  0  0
  -29.7540  -23.4000   21.8310 C   0  0  0  0  0  1  0  0  0  0  0  0
  -29.1880  -23.0340   20.4440 C   0  0  2  0  0  0  0  0  0  0  0  0
  -28.1880  -20.3040   19.9640 C   0  0  0  0  0  3  0  0  0  0  0  0
  -30.2990  -20.4660   20.8560 C   0  0  0  0  0  3  0  0  0  0  0  0
  -28.3460  -18.8220   19.9600 C   0  0  0  0  0  3  0  0  0  0  0  0
  -30.4630  -18.9930   20.8460 C   0  0  0  0  0  3  0  0  0  0  0  0
  -29.1610  -21.2850   20.4240 C   0  0  0  0  0  0  0  0  0  0  0  0
  -29.4970  -18.0160   20.3830 C   0  0  0  0  0  0  0  0  0  0  0  0
  -30.3890  -15.2290   20.2770 C   0  0  0  0  0  0  0  0  0  0  0  0
  -30.3950  -12.8090   19.3600 C   0  0  0  0  0  2  0  0  0  0  0  0
  -29.4730  -12.6900   18.1210 C   0  0  0  0  0  2  0  0  0  0  0  0
  -28.0130  -12.4210   18.5420 C   0  0  0  0  0  2  0  0  0  0  0  0
  -27.5760  -13.3340   19.7170 C   0  0  0  0  0  3  0  0  0  0  0  0
  -28.6290  -13.3950   20.8390 C   0  0  0  0  0  2  0  0  0  0  0  0
  -29.8670  -13.9120   20.2330 N   0  0  0  0  0  0  0  0  0  0  0  0
  -31.5980  -15.3000   20.0040 O   0  0  0  0  0  0  0  0  0  0  0  0
  -29.5250  -16.4080   20.4230 N   0  0  0  0  0  0  0  0  0  0  0  0
  -28.5860  -16.0570   20.5470 H   0  0  0  0  0  0  0  0  0  0  0  0
  -25.2060  -13.8690   20.4900 C   0  0  0  0  0  0  0  0  0  0  0  0
  -24.1560  -13.0830   20.8710 C   0  0  0  0  0  0  0  0  0  0  0  0
  -24.6320  -11.7380   20.8240 C   0  0  0  0  0  0  0  0  0  0  0  0
  -26.2510  -13.0040   20.2230 N   0  0  0  0  0  0  0  0  0  0  0  0
  -25.9200  -11.7130   20.4940 N   0  0  0  0  0  0  0  0  0  0  0  0
  -23.9140  -10.4690   21.0160 C   0  0  0  0  0  0  0  0  0  0  0  0
  -24.3590   -9.5030   21.9460 C   0  0  0  0  0  3  0  0  0  0  0  0
  -23.6420   -8.3000   22.1270 C   0  0  0  0  0  3  0  0  0  0  0  0
  -22.4670   -8.0540   21.3750 C   0  0  0  0  0  0  0  0  0  0  0  0
  -22.0410   -9.0080   20.4330 C   0  0  0  0  0  3  0  0  0  0  0  0
  -22.7600  -10.2030   20.2520 C   0  0  0  0  0  3  0  0  0  0  0  0
  -21.7200   -6.9040   21.4650 O   0  0  0  0  0  0  0  0  0  0  0  0
  -21.6740   -6.1610   22.6180 C   0  0  0  0  0  0  0  0  0  0  0  0
  -21.2220   -6.7080   23.8390 C   0  0  0  0  0  3  0  0  0  0  0  0
  -21.1290   -5.8930   24.9840 C   0  0  0  0  0  3  0  0  0  0  0  0
  -21.4730   -4.5300   24.9080 C   0  0  0  0  0  0  0  0  0  0  0  0
  -21.9170   -3.9820   23.6920 C   0  0  0  0  0  3  0  0  0  0  0  0
  -22.0140   -4.7950   22.5500 C   0  0  0  0  0  0  0  0  0  0  0  0
  -22.4220   -4.2580   21.3750 F   0  0  0  0  0  0  0  0  0  0  0  0
  -21.3740   -3.7450   26.0050 F   0  0  0  0  0  0  0  0  0  0  0  0
  -22.7580  -13.5460   21.1560 C   0  0  0  0  0  0  0  0  0  0  0  0
  -22.0420  -12.8490   22.0300 N   0  0  0  0  0  0  0  0  0  0  0  0
  -22.3080  -14.5650   20.6330 O   0  0  0  0  0  0  0  0  0  0  0  0
  -22.4230  -12.0300   22.4820 H   0  0  0  0  0  0  0  0  0  0  0  0
  -21.1000  -13.1360   22.2510 H   0  0  0  0  0  0  0  0  0  0  0  0
  -25.3490  -15.2430   20.3260 N   0  0  0  0  0  0  0  0  0  0  0  0
  -24.5760  -15.8780   20.4920 H   0  0  0  0  0  0  0  0  0  0  0  0
  -26.1490  -15.6940   19.9040 H   0  0  0  0  0  0  0  0  0  0  0  0
  -28.0080  -24.3420   20.2220 C   0  0  0  0  0  2  0  0  0  0  0  0
  -28.2210  -25.9620   20.3070 O   0  0  0  0  0  0  0  0  0  0  0  0
  -24.6560  -31.8920   23.2220 C   0  0  0  0  0  0  0  0  0  0  0  0
  -27.1970  -27.0280   20.2310 C   0  0  0  0  0  0  0  0  0  0  0  0
  -23.4530  -30.4970   21.5840 C   0  0  0  0  0  3  0  0  0  0  0  0
  -24.8980  -28.8850   20.1680 C   0  0  0  0  0  0  0  0  0  0  0  0
  -26.0150  -30.7100   21.4320 C   0  0  0  0  0  2  0  0  0  0  0  0
  -26.0820  -29.2970   20.7910 C   0  0  0  0  0  0  0  0  0  0  0  0
  -27.2240  -28.3860   20.8010 C   0  0  0  0  0  3  0  0  0  0  0  0
  -25.9890  -26.7600   19.5500 C   0  0  0  0  0  3  0  0  0  0  0  0
  -24.8760  -27.6370   19.5220 C   0  0  0  0  0  3  0  0  0  0  0  0
  -23.6800  -29.8040   20.2110 C   0  0  0  0  0  2  0  0  0  0  0  0
  -24.7290  -31.0590   22.1340 N   0  0  0  0  0  0  0  0  0  0  0  0
  -23.5700  -32.1870   23.7450 O   0  0  0  0  0  0  0  0  0  0  0  0
  -22.7570  -29.5100   22.5560 C   0  0  0  0  0  0  0  0  0  0  0  0
  -21.4250  -29.3490   22.4320 N   0  0  0  0  0  0  0  0  0  0  0  0
  -23.4180  -28.8860   23.3900 O   0  0  0  0  0  0  0  0  0  0  0  0
  -20.9450  -29.9020   21.7360 H   0  0  0  0  0  0  0  0  0  0  0  0
  -18.0380  -28.1500   22.9340 C   0  0  0  0  0  0  0  0  0  0  0  0
  -20.5980  -28.4190   23.2090 C   0  0  0  0  0  3  0  0  0  0  0  0
  -20.7020  -26.9820   22.6470 C   0  0  0  0  0  2  0  0  0  0  0  0
  -19.6050  -26.6490   21.6310 C   0  0  0  0  0  2  0  0  0  0  0  0
  -18.2200  -26.7970   22.2680 C   0  0  0  0  0  2  0  0  0  0  0  0
  -19.1550  -28.9180   23.3620 C   0  0  0  0  0  0  0  0  0  0  0  0
  -18.9280  -30.1810   23.9510 C   0  0  0  0  0  3  0  0  0  0  0  0
  -17.6210  -30.6780   24.1130 C   0  0  0  0  0  3  0  0  0  0  0  0
  -16.5200  -29.9080   23.7000 C   0  0  0  0  0  3  0  0  0  0  0  0
  -16.7300  -28.6460   23.1150 C   0  0  0  0  0  3  0  0  0  0  0  0
  -25.9330  -32.5290   23.8500 C   0  0  0  0  0  3  0  0  0  0  0  0
  -25.6260  -33.9330   24.1790 N   0  0  0  0  0  0  0  0  0  0  0  0
  -25.9330  -34.9860   23.4090 C   0  0  0  0  0  0  0  0  0  0  0  0
  -26.5680  -34.8780   22.3560 O   0  0  0  0  0  0  0  0  0  0  0  0
  -25.0540  -34.0890   24.9960 H   0  0  0  0  0  0  0  0  0  0  0  0
  -24.1830  -36.7750   23.1300 C   0  0  0  0  0  1  0  0  0  0  0  0
  -25.4640  -36.3790   23.8790 C   0  0  0  0  0  3  0  0  0  0  0  0
  -27.6350  -37.2900   24.5850 C   0  0  0  0  0  1  0  0  0  0  0  0
  -26.4840  -37.4360   23.6980 N   0  0  0  0  0  0  0  0  0  0  0  0
  -26.0800  -38.3560   23.8490 H   0  0  0  0  0  0  0  0  0  0  0  0
  -26.4340  -31.7640   25.1370 C   0  0  1  0  0  0  0  0  0  0  0  0
  -25.3320  -31.5480   26.2000 C   0  0  0  0  0  1  0  0  0  0  0  0
  -27.0020  -30.3750   24.7670 C   0  0  0  0  0  1  0  0  0  0  0  0
  -27.5870  -32.5530   25.8010 C   0  0  0  0  0  1  0  0  0  0  0  0
  3  1  1  6
  3  2  1  0
  4  8  1  0
  6  4  2  0
  6  9  1  0
  7  5  1  0
  8  3  1  0
  8  5  2  0
  9 18  1  0
  9  7  2  0
 10 18  1  0
 11 16  1  0
 12 13  1  0
 12 11  1  0
 14 13  1  0
 14 23  1  0
 14 15  1  0
 16 10  1  0
 16 15  1  0
 17 10  2  0
 18 19  1  0
 20 21  2  0
 21 40  1  0
 22 21  1  0
 22 25  1  0
 23 20  1  0
 23 24  1  0
 24 22  2  0
 25 26  1  0
 26 27  2  0
 28 31  1  0
 28 27  1  0
 29 28  2  0
 30 29  1  0
 30 25  2  0
 31 32  1  0
 32 33  1  0
 33 34  2  0
 35 34  1  0
 35 39  1  0
 36 35  2  0
 37 32  2  0
 37 36  1  0
 38 37  1  0
 40 41  1  0
 41 44  1  0
 41 43  1  0
 42 40  2  0
 45 20  1  0
 45 46  1  0
 47 45  1  0
 48 49  1  0
 48  3  1  0
 50 61  2  0
 51 49  1  0
 51 56  1  0
 52 60  1  0
 52 62  1  0
 53 59  1  0
 53 55  1  0
 54 60  1  0
 55 56  2  0
 55 54  1  0
 57 51  2  0
 58 57  1  0
 58 53  2  0
 59 52  1  0
 60 50  1  0
 62 64  2  0
 63 62  1  0
 65 63  1  0
 66 75  2  0
 66 71  1  0
 67 63  1  0
 67 71  1  0
 68 67  1  0
 69 70  1  0
 69 68  1  0
 70 66  1  0
 71 72  2  0
 72 73  1  0
 74 73  2  0
 75 74  1  0
 76 50  1  0
 76 77  1  0
 76 86  1  0
 77 80  1  0
 78 82  1  0
 78 77  1  0
 79 78  2  0
 82 81  1  0
 84 85  1  0
 84 82  1  0
 84 83  1  0
 86 89  1  1
 86 87  1  0
 88 86  1  0
M  ISO  4  10 100  18 100  48 101  49 101
M  END
>  <TORSDO>  (10) 
F 18

>  <SCORE>  (10) 
-15.916

>  <name>  (10) 
9

>  <ligand_id>  (10) 
9

>  <original_smiles>  (10) 
[H]c1c([H])c([H])c2c(c1[H])C([H])([H])C([H])([H])C([H])([H])C2([H])N([H])C(=O)C1([H])N(C(=O)C([H])(N([H])C(=O)C([H])(N([H])C([H])([H])[H])C([H])([H])[H])C(C([H])([H])[H])(C([H])([H])[H])C([H])([H])[H])C([H])([H])c2c([H])c(OC([H])([H])C(c3c([H])c([H])c(N([H])C(=O)N4C([H])([H])C([H])([H])C([H])([H])C([H])(n5nc(-c6c([H])c([H])c(Oc7c([H])c([H])c(F)c([H])c7F)c([H])c6[H])c(C(=O)N([H])[H])c5N([H])[H])C4([H])[H])c([H])c3[H])(C([H])([H])[H])C([H])([H])[H])c([H])c([H])c2C1([H])[H]

>  <smiles>  (10) 
[H]c1c([H])c([H])c2c(c1[H])C([H])([H])C([H])([H])C([H])([H])C2([H])N([H])C(=O)C1([H])N(C(=O)C([H])(N([H])C(=O)C([H])(N([H])C([H])([H])[H])C([H])([H])[H])C(C([H])([H])[H])(C([H])([H])[H])C([H])([H])[H])C([H])([H])c2c([H])c(OC([H])([H])C(c3c([H])c([H])c(N([H])C(=O)N4C([H])([H])C([H])([H])C([H])([H])C([H])(n5nc(-c6c([H])c([H])c(Oc7c([H])c([H])c(F)c([H])c7F)c([H])c6[H])c(C(=O)N([H])[H])c5N([H])[H])C4([H])[H])c([H])c3[H])(C([H])([H])[H])C([H])([H])[H])c([H])c([H])c2C1([H])[H]

$$$$
10:0:0
     RDKit          3D

 95103  0  0  1  0  0  0  0  0999 V2000
  -29.0960  -22.0000   19.5530 N   0  0  1  0  0  4  0  0  0  0  0  0
  -28.6930  -21.9790   20.4770 H   0  0  0  0  0  0  0  0  0  0  0  0
  -28.1310  -21.3870   18.5920 C   0  0  0  0  0  2  0  0  0  0  0  0
  -25.6300  -22.3110   18.9780 C   0  0  0  0  0  3  0  0  0  0  0  0
  -26.7710  -21.9060   18.8320 C   0  0  0  0  0  0  0  0  0  0  0  0
  -30.3730  -21.2210   19.6640 C   0  0  0  0  0  2  0  0  0  0  0  0
  -30.4990  -19.3030   21.3600 C   0  0  0  0  0  3  0  0  0  0  0  0
  -30.5350  -17.9260   21.6730 C   0  0  0  0  0  3  0  0  0  0  0  0
  -30.0460  -18.7430   19.0580 C   0  0  0  0  0  3  0  0  0  0  0  0
  -30.2750  -19.7300   20.0390 C   0  0  0  0  0  0  0  0  0  0  0  0
  -30.3400  -16.9130   20.6890 C   0  0  0  0  0  0  0  0  0  0  0  0
  -30.0400  -17.3650   19.3620 C   0  0  0  0  0  0  0  0  0  0  0  0
  -29.6180  -16.3270   18.0440 Cl  0  0  0  0  0  0  0  0  0  0  0  0
  -30.9360  -14.5730   20.2180 C   0  0  0  0  0  0  0  0  0  0  0  0
  -30.4830  -12.4960   18.9570 C   0  0  0  0  0  2  0  0  0  0  0  0
  -29.4920  -12.7290   17.8000 C   0  0  0  0  0  2  0  0  0  0  0  0
  -28.0370  -12.6050   18.2930 C   0  0  0  0  0  2  0  0  0  0  0  0
  -27.7680  -13.4040   19.5990 C   0  0  0  0  0  3  0  0  0  0  0  0
  -28.8720  -13.1450   20.6480 C   0  0  0  0  0  2  0  0  0  0  0  0
  -30.1770  -13.4500   20.0340 N   0  0  0  0  0  0  0  0  0  0  0  0
  -31.9910  -14.7680   19.6110 O   0  0  0  0  0  0  0  0  0  0  0  0
  -30.7190  -15.1970   22.4920 C   0  0  0  0  0  1  0  0  0  0  0  0
  -30.4670  -15.5130   21.0770 N   0  0  0  0  0  0  0  0  0  0  0  0
  -25.4000  -13.9890   20.4200 C   0  0  0  0  0  0  0  0  0  0  0  0
  -24.3480  -13.2100   20.8160 C   0  0  0  0  0  0  0  0  0  0  0  0
  -24.8040  -11.8590   20.7360 C   0  0  0  0  0  0  0  0  0  0  0  0
  -26.4350  -13.1160   20.1280 N   0  0  0  0  0  0  0  0  0  0  0  0
  -26.0830  -11.8270   20.3750 N   0  0  0  0  0  0  0  0  0  0  0  0
  -24.0830  -10.5920   20.9240 C   0  0  0  0  0  0  0  0  0  0  0  0
  -24.4980   -9.6420   21.8840 C   0  0  0  0  0  3  0  0  0  0  0  0
  -23.7800   -8.4400   22.0620 C   0  0  0  0  0  3  0  0  0  0  0  0
  -22.6300   -8.1800   21.2780 C   0  0  0  0  0  0  0  0  0  0  0  0
  -22.2320   -9.1170   20.3090 C   0  0  0  0  0  3  0  0  0  0  0  0
  -22.9520  -10.3100   20.1300 C   0  0  0  0  0  3  0  0  0  0  0  0
  -21.8860   -7.0280   21.3640 O   0  0  0  0  0  0  0  0  0  0  0  0
  -21.7460   -6.3480   22.5470 C   0  0  0  0  0  0  0  0  0  0  0  0
  -21.2050   -6.9580   23.6990 C   0  0  0  0  0  3  0  0  0  0  0  0
  -21.0140   -6.2030   24.8730 C   0  0  0  0  0  3  0  0  0  0  0  0
  -21.3520   -4.8370   24.8950 C   0  0  0  0  0  0  0  0  0  0  0  0
  -21.8870   -4.2250   23.7470 C   0  0  0  0  0  3  0  0  0  0  0  0
  -22.0810   -4.9790   22.5760 C   0  0  0  0  0  0  0  0  0  0  0  0
  -22.5750   -4.3790   21.4660 F   0  0  0  0  0  0  0  0  0  0  0  0
  -21.1620   -4.1090   26.0190 F   0  0  0  0  0  0  0  0  0  0  0  0
  -22.9610  -13.6800   21.1590 C   0  0  0  0  0  0  0  0  0  0  0  0
  -22.2740  -12.9750   22.0480 N   0  0  0  0  0  0  0  0  0  0  0  0
  -22.5000  -14.7120   20.6710 O   0  0  0  0  0  0  0  0  0  0  0  0
  -22.6680  -12.1450   22.4660 H   0  0  0  0  0  0  0  0  0  0  0  0
  -21.3440  -13.2690   22.3130 H   0  0  0  0  0  0  0  0  0  0  0  0
  -25.5630  -15.3620   20.2680 N   0  0  0  0  0  0  0  0  0  0  0  0
  -24.8130  -16.0230   20.4380 H   0  0  0  0  0  0  0  0  0  0  0  0
  -26.4080  -15.7890   19.9090 H   0  0  0  0  0  0  0  0  0  0  0  0
  -29.4170  -23.4290   19.2190 C   0  0  0  0  0  2  0  0  0  0  0  0
  -28.3240  -24.4820   19.5540 C   0  0  0  0  0  2  0  0  0  0  0  0
  -28.6990  -25.9010   19.0870 C   0  0  0  0  0  2  0  0  0  0  0  0
  -28.4790  -26.8880   20.1070 O   0  0  0  0  0  0  0  0  0  0  0  0
  -24.5710  -31.9300   23.3160 C   0  0  0  0  0  0  0  0  0  0  0  0
  -27.2730  -27.5580   20.1540 C   0  0  0  0  0  0  0  0  0  0  0  0
  -23.3850  -30.5280   21.6610 C   0  0  0  0  0  3  0  0  0  0  0  0
  -24.8550  -29.0190   20.2320 C   0  0  0  0  0  0  0  0  0  0  0  0
  -25.9110  -30.9190   21.4730 C   0  0  0  0  0  2  0  0  0  0  0  0
  -26.0100  -29.5570   20.8110 C   0  0  0  0  0  0  0  0  0  0  0  0
  -27.2250  -28.8350   20.7640 C   0  0  0  0  0  3  0  0  0  0  0  0
  -26.0870  -27.0230   19.6040 C   0  0  0  0  0  3  0  0  0  0  0  0
  -24.8850  -27.7500   19.6330 C   0  0  0  0  0  3  0  0  0  0  0  0
  -23.6120  -29.8730   20.2750 C   0  0  0  0  0  2  0  0  0  0  0  0
  -24.6390  -31.1410   22.2080 N   0  0  0  0  0  0  0  0  0  0  0  0
  -23.4870  -32.1910   23.8550 O   0  0  0  0  0  0  0  0  0  0  0  0
  -22.7410  -29.4890   22.6130 C   0  0  0  0  0  0  0  0  0  0  0  0
  -21.4180  -29.2980   22.4820 N   0  0  0  0  0  0  0  0  0  0  0  0
  -23.4290  -28.8620   23.4250 O   0  0  0  0  0  0  0  0  0  0  0  0
  -20.9340  -29.8670   21.8030 H   0  0  0  0  0  0  0  0  0  0  0  0
  -18.0420  -28.0770   22.9430 C   0  0  0  0  0  0  0  0  0  0  0  0
  -20.5980  -28.3480   23.2360 C   0  0  0  0  0  3  0  0  0  0  0  0
  -20.7110  -26.9240   22.6430 C   0  0  0  0  0  2  0  0  0  0  0  0
  -19.6150  -26.6050   21.6200 C   0  0  0  0  0  2  0  0  0  0  0  0
  -18.2300  -26.7340   22.2570 C   0  0  0  0  0  2  0  0  0  0  0  0
  -19.1530  -28.8430   23.3870 C   0  0  0  0  0  0  0  0  0  0  0  0
  -18.9260  -30.0990   23.9870 C   0  0  0  0  0  3  0  0  0  0  0  0
  -17.6160  -30.5920   24.1460 C   0  0  0  0  0  3  0  0  0  0  0  0
  -16.5190  -29.8230   23.7190 C   0  0  0  0  0  3  0  0  0  0  0  0
  -16.7330  -28.5650   23.1250 C   0  0  0  0  0  3  0  0  0  0  0  0
  -25.8530  -32.5670   23.9400 C   0  0  0  0  0  3  0  0  0  0  0  0
  -25.5450  -33.9720   24.2350 N   0  0  0  0  0  0  0  0  0  0  0  0
  -25.9020  -35.0070   23.4610 C   0  0  0  0  0  0  0  0  0  0  0  0
  -26.5960  -34.8780   22.4480 O   0  0  0  0  0  0  0  0  0  0  0  0
  -24.9250  -34.1420   25.0140 H   0  0  0  0  0  0  0  0  0  0  0  0
  -24.1990  -36.8050   23.0190 C   0  0  0  0  0  1  0  0  0  0  0  0
  -25.4120  -36.4080   23.8750 C   0  0  0  0  0  3  0  0  0  0  0  0
  -27.5280  -37.2930   24.7540 C   0  0  0  0  0  1  0  0  0  0  0  0
  -26.4570  -37.4510   23.7750 N   0  0  0  0  0  0  0  0  0  0  0  0
  -26.0530  -38.3740   23.8970 H   0  0  0  0  0  0  0  0  0  0  0  0
  -26.3450  -31.8150   25.2370 C   0  0  1  0  0  0  0  0  0  0  0  0
  -25.2380  -31.5980   26.2930 C   0  0  0  0  0  1  0  0  0  0  0  0
  -26.9280  -30.4270   24.8770 C   0  0  0  0  0  1  0  0  0  0  0  0
  -27.4850  -32.6200   25.9040 C   0  0  0  0  0  1  0  0  0  0  0  0
  1  6  1  0
  1  2  1  1
  3  5  1  0
  3  1  1  0
  5  4  3  0
  6 10  1  0
  7  8  1  0
  9 12  2  0
  9 10  1  0
 10  7  2  0
 11 23  1  0
 11  8  2  0
 12 11  1  0
 13 12  1  0
 14 23  1  0
 15 20  1  0
 16 17  1  0
 16 15  1  0
 18 17  1  0
 18 27  1  0
 18 19  1  0
 20 14  1  0
 20 19  1  0
 21 14  2  0
 23 22  1  0
 24 25  2  0
 25 44  1  0
 26 25  1  0
 26 29  1  0
 27 28  1  0
 27 24  1  0
 28 26  2  0
 29 30  1  0
 30 31  2  0
 32 35  1  0
 32 31  1  0
 33 32  2  0
 34 33  1  0
 34 29  2  0
 35 36  1  0
 36 41  2  0
 36 37  1  0
 37 38  2  0
 38 39  1  0
 39 43  1  0
 40 39  2  0
 41 40  1  0
 42 41  1  0
 44 45  1  0
 45 48  1  0
 45 47  1  0
 46 44  2  0
 49 24  1  0
 49 50  1  0
 51 49  1  0
 52  1  1  0
 52 53  1  0
 54 53  1  0
 54 55  1  0
 55 57  1  0
 56 67  2  0
 57 62  1  0
 58 66  1  0
 58 68  1  0
 59 65  1  0
 59 61  1  0
 60 66  1  0
 61 60  1  0
 62 61  2  0
 63 64  1  0
 63 57  2  0
 64 59  2  0
 65 58  1  0
 66 56  1  0
 68 70  2  0
 69 68  1  0
 71 69  1  0
 72 81  2  0
 72 77  1  0
 73 69  1  0
 73 77  1  0
 74 73  1  0
 75 76  1  0
 75 74  1  0
 76 72  1  0
 77 78  2  0
 78 79  1  0
 80 79  2  0
 81 80  1  0
 82 56  1  0
 82 83  1  0
 82 92  1  0
 83 86  1  0
 84 88  1  0
 84 83  1  0
 85 84  2  0
 88 87  1  0
 90 88  1  0
 90 91  1  0
 90 89  1  0
 92 95  1  1
 92 93  1  0
 94 92  1  0
M  ISO  4  14 100  23 100  54 101  55 101
M  END
>  <TORSDO>  (11) 
F 23

>  <SCORE>  (11) 
-11.307

>  <name>  (11) 
10

>  <ligand_id>  (11) 
10

>  <original_smiles>  (11) 
[H]C#CC([H])([H])[N+]([H])(C([H])([H])c1c([H])c([H])c(N(C(=O)N2C([H])([H])C([H])([H])C([H])([H])C([H])(n3nc(-c4c([H])c([H])c(Oc5c([H])c([H])c(F)c([H])c5F)c([H])c4[H])c(C(=O)N([H])[H])c3N([H])[H])C2([H])[H])C([H])([H])[H])c(Cl)c1[H])C([H])([H])C([H])([H])C([H])([H])Oc1c([H])c([H])c2c(c1[H])C([H])([H])N(C(=O)C([H])(N([H])C(=O)C([H])(N([H])C([H])([H])[H])C([H])([H])[H])C(C([H])([H])[H])(C([H])([H])[H])C([H])([H])[H])C([H])(C(=O)N([H])C1([H])c3c([H])c([H])c([H])c([H])c3C([H])([H])C([H])([H])C1([H])[H])C2([H])[H]

>  <smiles>  (11) 
[H]C#CC([H])([H])[N+]([H])(C([H])([H])c1c([H])c([H])c(N(C(=O)N2C([H])([H])C([H])([H])C([H])([H])C([H])(n3nc(-c4c([H])c([H])c(Oc5c([H])c([H])c(F)c([H])c5F)c([H])c4[H])c(C(=O)N([H])[H])c3N([H])[H])C2([H])[H])C([H])([H])[H])c(Cl)c1[H])C([H])([H])C([H])([H])C([H])([H])Oc1c([H])c([H])c2c(c1[H])C([H])([H])N(C(=O)C([H])(N([H])C(=O)C([H])(N([H])C([H])([H])[H])C([H])([H])[H])C(C([H])([H])[H])(C([H])([H])[H])C([H])([H])[H])C([H])(C(=O)N([H])C1([H])c3c([H])c([H])c([H])c([H])c3C([H])([H])C([H])([H])C1([H])[H])C2([H])[H]

$$$$
11:0:0
     RDKit          3D

 93101  0  0  1  0  0  0  0  0999 V2000
  -31.1690  -22.9430   22.6360 C   0  0  0  0  0  1  0  0  0  0  0  0
  -31.2860  -22.9420   21.1530 N   0  0  1  0  0  4  0  0  0  0  0  0
  -31.9410  -23.6860   20.9630 H   0  0  0  0  0  0  0  0  0  0  0  0
  -32.0240  -21.7590   20.6230 C   0  0  0  0  0  2  0  0  0  0  0  0
  -31.5790  -17.9800   20.1350 C   0  0  0  0  0  3  0  0  0  0  0  0
  -29.4860  -18.8270   21.0230 C   0  0  0  0  0  3  0  0  0  0  0  0
  -32.1210  -19.2780   20.1850 C   0  0  0  0  0  3  0  0  0  0  0  0
  -30.0260  -20.1260   21.0730 C   0  0  0  0  0  3  0  0  0  0  0  0
  -30.2560  -17.7420   20.5580 C   0  0  0  0  0  0  0  0  0  0  0  0
  -31.3530  -20.3740   20.6430 C   0  0  0  0  0  0  0  0  0  0  0  0
  -29.6180  -16.3590   20.4520 C   0  0  0  0  0  2  0  0  0  0  0  0
  -30.8980  -14.3140   20.0820 C   0  0  0  0  0  0  0  0  0  0  0  0
  -30.4350  -12.1910   18.9340 C   0  0  0  0  0  2  0  0  0  0  0  0
  -29.4600  -12.4340   17.7670 C   0  0  0  0  0  2  0  0  0  0  0  0
  -27.9990  -12.3700   18.2540 C   0  0  0  0  0  2  0  0  0  0  0  0
  -27.7430  -13.2340   19.5130 C   0  0  0  0  0  3  0  0  0  0  0  0
  -28.8230  -12.9670   20.5850 C   0  0  0  0  0  2  0  0  0  0  0  0
  -30.1490  -13.1890   19.9700 N   0  0  0  0  0  0  0  0  0  0  0  0
  -31.9430  -14.5080   19.4530 O   0  0  0  0  0  0  0  0  0  0  0  0
  -31.0200  -15.3310   22.2660 C   0  0  0  0  0  1  0  0  0  0  0  0
  -30.4210  -15.2290   20.9380 N   0  0  0  0  0  0  0  0  0  0  0  0
  -25.3920  -13.9520   20.2940 C   0  0  0  0  0  0  0  0  0  0  0  0
  -24.3070  -13.2300   20.7050 C   0  0  0  0  0  0  0  0  0  0  0  0
  -24.7080  -11.8580   20.6730 C   0  0  0  0  0  0  0  0  0  0  0  0
  -26.3940  -13.0260   20.0400 N   0  0  0  0  0  0  0  0  0  0  0  0
  -25.9850  -11.7620   20.3240 N   0  0  0  0  0  0  0  0  0  0  0  0
  -23.9350  -10.6310   20.8990 C   0  0  0  0  0  0  0  0  0  0  0  0
  -24.3570   -9.6580   21.8310 C   0  0  0  0  0  3  0  0  0  0  0  0
  -23.5920   -8.4910   22.0430 C   0  0  0  0  0  3  0  0  0  0  0  0
  -22.3910   -8.2870   21.3230 C   0  0  0  0  0  0  0  0  0  0  0  0
  -21.9870   -9.2500   20.3820 C   0  0  0  0  0  3  0  0  0  0  0  0
  -22.7500  -10.4090   20.1680 C   0  0  0  0  0  3  0  0  0  0  0  0
  -21.5980   -7.1720   21.4430 O   0  0  0  0  0  0  0  0  0  0  0  0
  -21.5490   -6.4470   22.6070 C   0  0  0  0  0  0  0  0  0  0  0  0
  -21.1930   -7.0380   23.8370 C   0  0  0  0  0  3  0  0  0  0  0  0
  -21.0810   -6.2410   24.9950 C   0  0  0  0  0  3  0  0  0  0  0  0
  -21.3190   -4.8550   24.9260 C   0  0  0  0  0  0  0  0  0  0  0  0
  -21.6690   -4.2640   23.7000 C   0  0  0  0  0  3  0  0  0  0  0  0
  -21.7800   -5.0580   22.5430 C   0  0  0  0  0  0  0  0  0  0  0  0
  -22.0960   -4.4780   21.3590 F   0  0  0  0  0  0  0  0  0  0  0  0
  -21.2090   -4.0900   26.0360 F   0  0  0  0  0  0  0  0  0  0  0  0
  -22.9400  -13.7680   21.0240 C   0  0  0  0  0  0  0  0  0  0  0  0
  -22.2150  -13.1180   21.9250 N   0  0  0  0  0  0  0  0  0  0  0  0
  -22.5270  -14.8020   20.5020 O   0  0  0  0  0  0  0  0  0  0  0  0
  -22.5650  -12.2810   22.3700 H   0  0  0  0  0  0  0  0  0  0  0  0
  -21.3000  -13.4660   22.1790 H   0  0  0  0  0  0  0  0  0  0  0  0
  -25.6070  -15.3140   20.0920 N   0  0  0  0  0  0  0  0  0  0  0  0
  -24.8610  -15.9950   20.1790 H   0  0  0  0  0  0  0  0  0  0  0  0
  -26.4520  -15.7080   19.7030 H   0  0  0  0  0  0  0  0  0  0  0  0
  -30.0590  -23.3480   20.3990 C   0  0  0  0  0  2  0  0  0  0  0  0
  -29.8060  -24.8760   20.4620 C   0  0  0  0  0  2  0  0  0  0  0  0
  -28.4960  -25.3790   19.8160 C   0  0  0  0  0  2  0  0  0  0  0  0
  -28.4420  -26.7920   20.0370 O   0  0  0  0  0  0  0  0  0  0  0  0
  -24.4980  -31.8260   23.1390 C   0  0  0  0  0  0  0  0  0  0  0  0
  -27.2260  -27.4460   20.0330 C   0  0  0  0  0  0  0  0  0  0  0  0
  -23.3170  -30.4230   21.4730 C   0  0  0  0  0  3  0  0  0  0  0  0
  -24.8000  -28.9090   20.0520 C   0  0  0  0  0  0  0  0  0  0  0  0
  -25.8410  -30.8090   21.3030 C   0  0  0  0  0  2  0  0  0  0  0  0
  -25.9450  -29.4450   20.6500 C   0  0  0  0  0  0  0  0  0  0  0  0
  -27.1560  -28.7200   20.6390 C   0  0  0  0  0  3  0  0  0  0  0  0
  -26.0590  -26.9170   19.4320 C   0  0  0  0  0  3  0  0  0  0  0  0
  -24.8500  -27.6410   19.4450 C   0  0  0  0  0  3  0  0  0  0  0  0
  -23.5450  -29.7520   20.0930 C   0  0  0  0  0  2  0  0  0  0  0  0
  -24.5690  -31.0340   22.0310 N   0  0  0  0  0  0  0  0  0  0  0  0
  -23.4120  -32.0840   23.6760 O   0  0  0  0  0  0  0  0  0  0  0  0
  -22.6690  -29.3900   22.4240 C   0  0  0  0  0  0  0  0  0  0  0  0
  -21.3470  -29.1980   22.2840 N   0  0  0  0  0  0  0  0  0  0  0  0
  -23.3530  -28.7650   23.2410 O   0  0  0  0  0  0  0  0  0  0  0  0
  -20.8560  -29.7530   21.5980 H   0  0  0  0  0  0  0  0  0  0  0  0
  -17.9850  -27.9600   22.7360 C   0  0  0  0  0  0  0  0  0  0  0  0
  -20.5350  -28.2470   23.0420 C   0  0  0  0  0  3  0  0  0  0  0  0
  -20.6630  -26.8190   22.4590 C   0  0  0  0  0  2  0  0  0  0  0  0
  -19.5780  -26.4890   21.4290 C   0  0  0  0  0  2  0  0  0  0  0  0
  -18.1880  -26.6160   22.0560 C   0  0  0  0  0  2  0  0  0  0  0  0
  -19.0890  -28.7330   23.1840 C   0  0  0  0  0  0  0  0  0  0  0  0
  -18.8500  -29.9910   23.7780 C   0  0  0  0  0  3  0  0  0  0  0  0
  -17.5380  -30.4800   23.9260 C   0  0  0  0  0  3  0  0  0  0  0  0
  -16.4480  -29.7030   23.4950 C   0  0  0  0  0  3  0  0  0  0  0  0
  -16.6720  -28.4450   22.9070 C   0  0  0  0  0  3  0  0  0  0  0  0
  -25.7760  -32.4620   23.7720 C   0  0  0  0  0  3  0  0  0  0  0  0
  -25.4500  -33.8520   24.1210 N   0  0  0  0  0  0  0  0  0  0  0  0
  -25.7730  -34.9210   23.3800 C   0  0  0  0  0  0  0  0  0  0  0  0
  -26.4460  -34.8400   22.3480 O   0  0  0  0  0  0  0  0  0  0  0  0
  -24.8590  -33.9880   24.9280 H   0  0  0  0  0  0  0  0  0  0  0  0
  -24.0190  -36.6880   23.0470 C   0  0  0  0  0  1  0  0  0  0  0  0
  -25.2640  -36.2930   23.8570 C   0  0  0  0  0  3  0  0  0  0  0  0
  -27.3850  -37.1930   24.7060 C   0  0  0  0  0  1  0  0  0  0  0  0
  -26.2820  -37.3610   23.7640 N   0  0  0  0  0  0  0  0  0  0  0  0
  -25.8600  -38.2700   23.9280 H   0  0  0  0  0  0  0  0  0  0  0  0
  -26.3060  -31.6770   25.0340 C   0  0  1  0  0  0  0  0  0  0  0  0
  -25.2160  -31.4070   26.0970 C   0  0  0  0  0  1  0  0  0  0  0  0
  -26.9070  -30.3140   24.6180 C   0  0  0  0  0  1  0  0  0  0  0  0
  -27.4450  -32.4770   25.7120 C   0  0  0  0  0  1  0  0  0  0  0  0
  2  1  1  0
  2  3  1  1
  4 10  1  0
  4  2  1  0
  5  7  2  0
  5  9  1  0
  6  8  1  0
  7 10  1  0
  9  6  2  0
 10  8  2  0
 11  9  1  0
 11 21  1  0
 12 21  1  0
 13 18  1  0
 14 15  1  0
 14 13  1  0
 16 15  1  0
 16 25  1  0
 16 17  1  0
 18 12  1  0
 18 17  1  0
 19 12  2  0
 21 20  1  0
 22 23  2  0
 23 42  1  0
 24 23  1  0
 24 27  1  0
 25 22  1  0
 25 26  1  0
 26 24  2  0
 27 28  1  0
 28 29  2  0
 30 33  1  0
 30 29  1  0
 31 30  2  0
 32 31  1  0
 32 27  2  0
 33 34  1  0
 34 35  1  0
 35 36  2  0
 37 36  1  0
 37 41  1  0
 38 37  2  0
 39 34  2  0
 39 38  1  0
 40 39  1  0
 42 43  1  0
 43 46  1  0
 43 45  1  0
 44 42  2  0
 47 48  1  0
 47 22  1  0
 49 47  1  0
 50 51  1  0
 50  2  1  0
 52 53  1  0
 52 51  1  0
 54 65  2  0
 55 53  1  0
 55 60  1  0
 56 64  1  0
 56 66  1  0
 57 63  1  0
 57 59  1  0
 58 64  1  0
 59 58  1  0
 60 59  2  0
 61 62  1  0
 61 55  2  0
 62 57  2  0
 63 56  1  0
 64 54  1  0
 66 68  2  0
 67 66  1  0
 69 67  1  0
 70 79  2  0
 70 75  1  0
 71 67  1  0
 71 75  1  0
 72 71  1  0
 73 74  1  0
 73 72  1  0
 74 70  1  0
 75 76  2  0
 76 77  1  0
 78 77  2  0
 79 78  1  0
 80 54  1  0
 80 81  1  0
 80 90  1  0
 81 84  1  0
 82 86  1  0
 82 81  1  0
 83 82  2  0
 86 85  1  0
 88 86  1  0
 88 89  1  0
 88 87  1  0
 90 93  1  1
 90 91  1  0
 92 90  1  0
M  ISO  4  12 100  21 100  52 101  53 101
M  END
>  <TORSDO>  (12) 
F 22

>  <SCORE>  (12) 
-11.962

>  <name>  (12) 
11

>  <ligand_id>  (12) 
11

>  <original_smiles>  (12) 
[H]c1c([H])c([H])c2c(c1[H])C([H])([H])C([H])([H])C([H])([H])C2([H])N([H])C(=O)C1([H])N(C(=O)C([H])(N([H])C(=O)C([H])(N([H])C([H])([H])[H])C([H])([H])[H])C(C([H])([H])[H])(C([H])([H])[H])C([H])([H])[H])C([H])([H])c2c([H])c(OC([H])([H])C([H])([H])C([H])([H])[N+]([H])(C([H])([H])[H])C([H])([H])c3c([H])c([H])c(C([H])([H])N(C(=O)N4C([H])([H])C([H])([H])C([H])([H])C([H])(n5nc(-c6c([H])c([H])c(Oc7c([H])c([H])c(F)c([H])c7F)c([H])c6[H])c(C(=O)N([H])[H])c5N([H])[H])C4([H])[H])C([H])([H])[H])c([H])c3[H])c([H])c([H])c2C1([H])[H]

>  <smiles>  (12) 
[H]c1c([H])c([H])c2c(c1[H])C([H])([H])C([H])([H])C([H])([H])C2([H])N([H])C(=O)C1([H])N(C(=O)C([H])(N([H])C(=O)C([H])(N([H])C([H])([H])[H])C([H])([H])[H])C(C([H])([H])[H])(C([H])([H])[H])C([H])([H])[H])C([H])([H])c2c([H])c(OC([H])([H])C([H])([H])C([H])([H])[N+]([H])(C([H])([H])[H])C([H])([H])c3c([H])c([H])c(C([H])([H])N(C(=O)N4C([H])([H])C([H])([H])C([H])([H])C([H])(n5nc(-c6c([H])c([H])c(Oc7c([H])c([H])c(F)c([H])c7F)c([H])c6[H])c(C(=O)N([H])[H])c5N([H])[H])C4([H])[H])C([H])([H])[H])c([H])c3[H])c([H])c([H])c2C1([H])[H]

$$$$
12:0:0
     RDKit          3D

 92100  0  0  1  0  0  0  0  0999 V2000
  -30.0670  -21.6640   20.7520 C   0  0  0  0  0  2  0  0  0  0  0  0
  -31.2660  -19.3570   20.4240 C   0  0  0  0  0  3  0  0  0  0  0  0
  -31.2940  -17.9270   20.4300 C   0  0  0  0  0  3  0  0  0  0  0  0
  -28.8970  -17.9110   20.6420 C   0  0  0  0  0  3  0  0  0  0  0  0
  -30.0580  -20.1010   20.5470 C   0  0  0  0  0  0  0  0  0  0  0  0
  -30.1030  -17.1630   20.5580 C   0  0  0  0  0  0  0  0  0  0  0  0
  -28.8690  -19.3370   20.6370 C   0  0  0  0  0  0  0  0  0  0  0  0
  -27.6800  -19.9770   20.7500 F   0  0  0  0  0  0  0  0  0  0  0  0
  -30.7820  -14.6890   20.0850 C   0  0  0  0  0  0  0  0  0  0  0  0
  -30.4820  -12.4950   18.9560 C   0  0  0  0  0  2  0  0  0  0  0  0
  -29.4670  -12.6760   17.8030 C   0  0  0  0  0  2  0  0  0  0  0  0
  -28.0180  -12.5310   18.3110 C   0  0  0  0  0  2  0  0  0  0  0  0
  -27.7500  -13.3590   19.5970 C   0  0  0  0  0  3  0  0  0  0  0  0
  -28.8660  -13.1340   20.6430 C   0  0  0  0  0  2  0  0  0  0  0  0
  -30.1490  -13.4770   20.0060 N   0  0  0  0  0  0  0  0  0  0  0  0
  -31.9030  -14.8660   19.5980 O   0  0  0  0  0  0  0  0  0  0  0  0
  -30.0260  -15.7020   20.6090 N   0  0  0  0  0  0  0  0  0  0  0  0
  -29.1760  -15.3450   21.0190 H   0  0  0  0  0  0  0  0  0  0  0  0
  -25.4120  -13.9850   20.4640 C   0  0  0  0  0  0  0  0  0  0  0  0
  -24.3510  -13.2220   20.8720 C   0  0  0  0  0  0  0  0  0  0  0  0
  -24.7830  -11.8620   20.7740 C   0  0  0  0  0  0  0  0  0  0  0  0
  -26.4220  -13.0910   20.1440 N   0  0  0  0  0  0  0  0  0  0  0  0
  -26.0520  -11.8090   20.3880 N   0  0  0  0  0  0  0  0  0  0  0  0
  -24.0430  -10.6090   20.9660 C   0  0  0  0  0  0  0  0  0  0  0  0
  -24.4810   -9.6230   21.8780 C   0  0  0  0  0  3  0  0  0  0  0  0
  -23.7400   -8.4350   22.0590 C   0  0  0  0  0  3  0  0  0  0  0  0
  -22.5460   -8.2250   21.3280 C   0  0  0  0  0  0  0  0  0  0  0  0
  -22.1280   -9.1990   20.4030 C   0  0  0  0  0  3  0  0  0  0  0  0
  -22.8700  -10.3770   20.2200 C   0  0  0  0  0  3  0  0  0  0  0  0
  -21.7760   -7.0900   21.4200 O   0  0  0  0  0  0  0  0  0  0  0  0
  -21.7050   -6.3620   22.5810 C   0  0  0  0  0  0  0  0  0  0  0  0
  -21.2480   -6.9290   23.7900 C   0  0  0  0  0  3  0  0  0  0  0  0
  -21.1230   -6.1260   24.9410 C   0  0  0  0  0  3  0  0  0  0  0  0
  -21.4470   -4.7580   24.8850 C   0  0  0  0  0  0  0  0  0  0  0  0
  -21.8960   -4.1900   23.6800 C   0  0  0  0  0  3  0  0  0  0  0  0
  -22.0220   -4.9900   22.5300 C   0  0  0  0  0  0  0  0  0  0  0  0
  -22.4350   -4.4330   21.3670 F   0  0  0  0  0  0  0  0  0  0  0  0
  -21.3210   -3.9840   25.9880 F   0  0  0  0  0  0  0  0  0  0  0  0
  -22.9820  -13.7170   21.2410 C   0  0  0  0  0  0  0  0  0  0  0  0
  -22.3010  -13.0180   22.1410 N   0  0  0  0  0  0  0  0  0  0  0  0
  -22.5300  -14.7590   20.7660 O   0  0  0  0  0  0  0  0  0  0  0  0
  -22.6820  -12.1740   22.5450 H   0  0  0  0  0  0  0  0  0  0  0  0
  -21.3850  -13.3290   22.4310 H   0  0  0  0  0  0  0  0  0  0  0  0
  -25.5970  -15.3570   20.3180 N   0  0  0  0  0  0  0  0  0  0  0  0
  -24.8560  -16.0250   20.4950 H   0  0  0  0  0  0  0  0  0  0  0  0
  -26.4270  -15.7830   19.9280 H   0  0  0  0  0  0  0  0  0  0  0  0
  -29.5040  -22.2290   18.4140 C   0  0  0  0  0  1  0  0  0  0  0  0
  -29.2830  -22.5860   19.8360 N   0  0  2  0  0  4  0  0  0  0  0  0
  -28.3110  -22.3860   20.0310 H   0  0  0  0  0  0  0  0  0  0  0  0
  -29.4750  -24.0800   20.1160 C   0  0  0  0  0  3  0  0  0  0  0  0
  -28.3670  -25.0820   19.5650 C   0  0  0  0  0  3  0  0  0  0  0  0
  -28.4920  -26.5280   19.8510 O   0  0  0  0  0  0  0  0  0  0  0  0
  -24.5810  -31.6850   23.0190 C   0  0  0  0  0  0  0  0  0  0  0  0
  -27.3330  -27.3200   19.8160 C   0  0  0  0  0  0  0  0  0  0  0  0
  -23.4140  -30.2890   21.3510 C   0  0  0  0  0  3  0  0  0  0  0  0
  -24.9080  -28.8370   19.8690 C   0  0  0  0  0  0  0  0  0  0  0  0
  -25.9400  -30.7030   21.1600 C   0  0  0  0  0  2  0  0  0  0  0  0
  -26.0620  -29.3490   20.4760 C   0  0  0  0  0  0  0  0  0  0  0  0
  -27.2750  -28.6020   20.4420 C   0  0  0  0  0  3  0  0  0  0  0  0
  -26.1550  -26.8640   19.1770 C   0  0  0  0  0  3  0  0  0  0  0  0
  -24.9570  -27.6010   19.2090 C   0  0  0  0  0  3  0  0  0  0  0  0
  -23.6410  -29.6620   19.9510 C   0  0  0  0  0  2  0  0  0  0  0  0
  -24.6640  -30.9100   21.9000 N   0  0  0  0  0  0  0  0  0  0  0  0
  -23.4930  -31.9100   23.5680 O   0  0  0  0  0  0  0  0  0  0  0  0
  -22.7980  -29.2220   22.2860 C   0  0  0  0  0  0  0  0  0  0  0  0
  -21.4780  -29.0090   22.1680 N   0  0  0  0  0  0  0  0  0  0  0  0
  -23.5060  -28.5910   23.0760 O   0  0  0  0  0  0  0  0  0  0  0  0
  -20.9680  -29.5670   21.4970 H   0  0  0  0  0  0  0  0  0  0  0  0
  -18.1350  -27.7270   22.6890 C   0  0  0  0  0  0  0  0  0  0  0  0
  -20.6920  -28.0280   22.9180 C   0  0  0  0  0  3  0  0  0  0  0  0
  -20.8120  -26.6220   22.2840 C   0  0  0  0  0  2  0  0  0  0  0  0
  -19.6950  -26.3160   21.2820 C   0  0  0  0  0  2  0  0  0  0  0  0
  -18.3240  -26.4080   21.9590 C   0  0  0  0  0  2  0  0  0  0  0  0
  -19.2470  -28.4950   23.1260 C   0  0  0  0  0  0  0  0  0  0  0  0
  -19.0150  -29.7310   23.7680 C   0  0  0  0  0  3  0  0  0  0  0  0
  -17.7040  -30.1950   23.9840 C   0  0  0  0  0  3  0  0  0  0  0  0
  -16.6070  -29.4240   23.5640 C   0  0  0  0  0  3  0  0  0  0  0  0
  -16.8230  -28.1940   22.9200 C   0  0  0  0  0  3  0  0  0  0  0  0
  -25.8460  -32.3450   23.6490 C   0  0  0  0  0  3  0  0  0  0  0  0
  -26.4040  -31.5510   24.8940 C   0  0  1  0  0  0  0  0  0  0  0  0
  -25.3270  -31.2310   25.9580 C   0  0  0  0  0  1  0  0  0  0  0  0
  -27.0390  -30.2120   24.4500 C   0  0  0  0  0  1  0  0  0  0  0  0
  -27.5270  -32.3670   25.5750 C   0  0  0  0  0  1  0  0  0  0  0  0
  -25.4870  -33.7180   24.0300 N   0  0  0  0  0  0  0  0  0  0  0  0
  -25.7770  -34.8090   23.3090 C   0  0  0  0  0  0  0  0  0  0  0  0
  -26.4460  -34.7670   22.2720 O   0  0  0  0  0  0  0  0  0  0  0  0
  -24.8890  -33.8210   24.8370 H   0  0  0  0  0  0  0  0  0  0  0  0
  -23.9830  -36.5500   23.0270 C   0  0  0  0  0  1  0  0  0  0  0  0
  -25.2420  -36.1610   23.8170 C   0  0  0  0  0  3  0  0  0  0  0  0
  -27.3410  -37.1000   24.6790 C   0  0  0  0  0  1  0  0  0  0  0  0
  -26.2350  -37.2550   23.7390 N   0  0  0  0  0  0  0  0  0  0  0  0
  -25.7950  -38.1540   23.9150 H   0  0  0  0  0  0  0  0  0  0  0  0
  2  3  2  0
  2  5  1  0
  3  6  1  0
  5  7  2  0
  5  1  1  0
  6 17  1  0
  6  4  2  0
  7  4  1  0
  7  8  1  0
  9 17  1  0
 10 15  1  0
 11 12  1  0
 11 10  1  0
 13 12  1  0
 13 22  1  0
 13 14  1  0
 15  9  1  0
 15 14  1  0
 16  9  2  0
 17 18  1  0
 19 20  2  0
 20 39  1  0
 21 20  1  0
 21 24  1  0
 22 23  1  0
 22 19  1  0
 23 21  2  0
 24 25  1  0
 25 26  2  0
 27 30  1  0
 27 26  1  0
 28 27  2  0
 29 28  1  0
 29 24  2  0
 30 31  1  0
 31 32  1  0
 32 33  2  0
 34 33  1  0
 34 38  1  0
 35 34  2  0
 36 31  2  0
 36 35  1  0
 37 36  1  0
 39 40  1  0
 40 43  1  0
 40 42  1  0
 41 39  2  0
 44 19  1  0
 44 45  1  0
 46 44  1  0
 47 48  1  0
 48 49  1  1
 48 50  1  0
 48  1  1  0
 51 52  1  0
 51 50  2  0
 53 64  2  0
 54 52  1  0
 54 59  1  0
 55 63  1  0
 55 65  1  0
 56 62  1  0
 56 58  1  0
 57 63  1  0
 58 57  1  0
 59 58  2  0
 60 61  1  0
 60 54  2  0
 61 56  2  0
 62 55  1  0
 63 53  1  0
 65 67  2  0
 66 65  1  0
 68 66  1  0
 69 78  2  0
 69 74  1  0
 70 66  1  0
 70 74  1  0
 71 70  1  0
 72 73  1  0
 72 71  1  0
 73 69  1  0
 74 75  2  0
 75 76  1  0
 77 76  2  0
 78 77  1  0
 79 53  1  0
 79 84  1  0
 79 80  1  0
 80 83  1  1
 80 81  1  0
 82 80  1  0
 84 87  1  0
 85 89  1  0
 85 84  1  0
 86 85  2  0
 89 88  1  0
 91 89  1  0
 91 92  1  0
 91 90  1  0
M  ISO  4   9 100  17 100  51 101  52 101
M  END
>  <TORSDO>  (13) 
F 20

>  <SCORE>  (13) 
-13.419

>  <name>  (13) 
12

>  <ligand_id>  (13) 
12

>  <original_smiles>  (13) 
[H]c1c([H])c([H])c2c(c1[H])C([H])([H])C([H])([H])C([H])([H])C2([H])N([H])C(=O)C1([H])N(C(=O)C([H])(N([H])C(=O)C([H])(N([H])C([H])([H])[H])C([H])([H])[H])C(C([H])([H])[H])(C([H])([H])[H])C([H])([H])[H])C([H])([H])c2c([H])c(OC([H])([H])C([H])([H])[N+]([H])(C([H])([H])[H])C([H])([H])c3c([H])c([H])c(N([H])C(=O)N4C([H])([H])C([H])([H])C([H])([H])C([H])(n5nc(-c6c([H])c([H])c(Oc7c([H])c([H])c(F)c([H])c7F)c([H])c6[H])c(C(=O)N([H])[H])c5N([H])[H])C4([H])[H])c([H])c3F)c([H])c([H])c2C1([H])[H]

>  <smiles>  (13) 
[H]c1c([H])c([H])c2c(c1[H])C([H])([H])C([H])([H])C([H])([H])C2([H])N([H])C(=O)C1([H])N(C(=O)C([H])(N([H])C(=O)C([H])(N([H])C([H])([H])[H])C([H])([H])[H])C(C([H])([H])[H])(C([H])([H])[H])C([H])([H])[H])C([H])([H])c2c([H])c(OC([H])([H])C([H])([H])[N+]([H])(C([H])([H])[H])C([H])([H])c3c([H])c([H])c(N([H])C(=O)N4C([H])([H])C([H])([H])C([H])([H])C([H])(n5nc(-c6c([H])c([H])c(Oc7c([H])c([H])c(F)c([H])c7F)c([H])c6[H])c(C(=O)N([H])[H])c5N([H])[H])C4([H])[H])c([H])c3F)c([H])c([H])c2C1([H])[H]

$$$$
13:0:0
     RDKit          3D

 92100  0  0  1  0  0  0  0  0999 V2000
  -29.6930  -18.7040   21.9930 C   0  0  0  0  0  3  0  0  0  0  0  0
  -29.4740  -20.0970   21.8820 C   0  0  0  0  0  3  0  0  0  0  0  0
  -31.0480  -20.2020   20.0410 C   0  0  0  0  0  3  0  0  0  0  0  0
  -30.6290  -18.0480   21.1620 C   0  0  0  0  0  0  0  0  0  0  0  0
  -30.1710  -20.8760   20.9270 C   0  0  0  0  0  0  0  0  0  0  0  0
  -31.2810  -18.8100   20.1620 C   0  0  0  0  0  0  0  0  0  0  0  0
  -32.1940  -18.2230   19.3510 F   0  0  0  0  0  0  0  0  0  0  0  0
  -31.2070  -22.7360   21.8550 C   0  0  0  0  0  1  0  0  0  0  0  0
  -30.1050  -22.2910   20.9980 N   0  0  0  0  0  0  0  0  0  0  0  0
  -29.9040  -23.0250   19.7310 C   0  0  0  0  0  2  0  0  0  0  0  0
  -29.8470  -24.5900   19.8370 C   0  0  0  0  0  2  0  0  0  0  0  0
  -28.4540  -25.2490   19.6780 C   0  0  0  0  0  2  0  0  0  0  0  0
  -28.5130  -26.6800   19.8690 O   0  0  0  0  0  0  0  0  0  0  0  0
  -24.6190  -31.6930   23.1370 C   0  0  0  0  0  0  0  0  0  0  0  0
  -27.3210  -27.3880   19.8900 C   0  0  0  0  0  0  0  0  0  0  0  0
  -23.4270  -30.3230   21.4620 C   0  0  0  0  0  3  0  0  0  0  0  0
  -24.8960  -28.8630   19.9750 C   0  0  0  0  0  0  0  0  0  0  0  0
  -25.9460  -30.7330   21.2540 C   0  0  0  0  0  2  0  0  0  0  0  0
  -26.0530  -29.3850   20.5650 C   0  0  0  0  0  0  0  0  0  0  0  0
  -27.2670  -28.6580   20.5150 C   0  0  0  0  0  3  0  0  0  0  0  0
  -26.1380  -26.8850   19.2970 C   0  0  0  0  0  3  0  0  0  0  0  0
  -24.9360  -27.6150   19.3360 C   0  0  0  0  0  3  0  0  0  0  0  0
  -23.6370  -29.6930   20.0600 C   0  0  0  0  0  2  0  0  0  0  0  0
  -24.6830  -30.9300   22.0090 N   0  0  0  0  0  0  0  0  0  0  0  0
  -23.5380  -31.9240   23.6950 O   0  0  0  0  0  0  0  0  0  0  0  0
  -22.8010  -29.2580   22.3930 C   0  0  0  0  0  0  0  0  0  0  0  0
  -21.4800  -29.0530   22.2680 N   0  0  0  0  0  0  0  0  0  0  0  0
  -23.5040  -28.6210   23.1830 O   0  0  0  0  0  0  0  0  0  0  0  0
  -20.9730  -29.6210   21.6040 H   0  0  0  0  0  0  0  0  0  0  0  0
  -18.1320  -27.7830   22.7560 C   0  0  0  0  0  0  0  0  0  0  0  0
  -20.6870  -28.0750   23.0130 C   0  0  0  0  0  3  0  0  0  0  0  0
  -20.8090  -26.6660   22.3850 C   0  0  0  0  0  2  0  0  0  0  0  0
  -19.7030  -26.3620   21.3710 C   0  0  0  0  0  2  0  0  0  0  0  0
  -18.3250  -26.4610   22.0340 C   0  0  0  0  0  2  0  0  0  0  0  0
  -19.2420  -28.5470   23.2030 C   0  0  0  0  0  0  0  0  0  0  0  0
  -19.0090  -29.7870   23.8380 C   0  0  0  0  0  3  0  0  0  0  0  0
  -17.6970  -30.2610   24.0320 C   0  0  0  0  0  3  0  0  0  0  0  0
  -16.6020  -29.4920   23.6030 C   0  0  0  0  0  3  0  0  0  0  0  0
  -16.8200  -28.2550   22.9700 C   0  0  0  0  0  3  0  0  0  0  0  0
  -25.8970  -32.3300   23.7680 C   0  0  0  0  0  3  0  0  0  0  0  0
  -25.5730  -33.7170   24.1220 N   0  0  0  0  0  0  0  0  0  0  0  0
  -25.8890  -34.7870   23.3790 C   0  0  0  0  0  0  0  0  0  0  0  0
  -26.5610  -34.7100   22.3470 O   0  0  0  0  0  0  0  0  0  0  0  0
  -24.9740  -33.8490   24.9240 H   0  0  0  0  0  0  0  0  0  0  0  0
  -24.1410  -36.5680   23.0570 C   0  0  0  0  0  1  0  0  0  0  0  0
  -25.3850  -36.1600   23.8630 C   0  0  0  0  0  3  0  0  0  0  0  0
  -27.5010  -37.0610   24.7240 C   0  0  0  0  0  1  0  0  0  0  0  0
  -26.4050  -37.2270   23.7720 N   0  0  0  0  0  0  0  0  0  0  0  0
  -25.9860  -38.1390   23.9310 H   0  0  0  0  0  0  0  0  0  0  0  0
  -26.4290  -31.5420   25.0280 C   0  0  1  0  0  0  0  0  0  0  0  0
  -25.3420  -31.2700   26.0940 C   0  0  0  0  0  1  0  0  0  0  0  0
  -27.0300  -30.1800   24.6070 C   0  0  0  0  0  1  0  0  0  0  0  0
  -27.5680  -32.3410   25.7040 C   0  0  0  0  0  1  0  0  0  0  0  0
  -31.0740  -16.6070   21.4740 C   0  0  0  0  0  2  0  0  0  0  0  0
  -30.7670  -14.5240   20.1290 C   0  0  0  0  0  0  0  0  0  0  0  0
  -30.3310  -12.4200   18.9080 C   0  0  0  0  0  2  0  0  0  0  0  0
  -29.3170  -12.6340   17.7690 C   0  0  0  0  0  2  0  0  0  0  0  0
  -27.8750  -12.4920   18.2910 C   0  0  0  0  0  2  0  0  0  0  0  0
  -27.6220  -13.3100   19.5850 C   0  0  0  0  0  3  0  0  0  0  0  0
  -28.7440  -13.0790   20.6210 C   0  0  0  0  0  2  0  0  0  0  0  0
  -30.0300  -13.3900   19.9740 N   0  0  0  0  0  0  0  0  0  0  0  0
  -31.8290  -14.6980   19.5250 O   0  0  0  0  0  0  0  0  0  0  0  0
  -30.2810  -15.4730   20.9510 N   0  0  0  0  0  0  0  0  0  0  0  0
  -29.3850  -15.2930   21.3830 H   0  0  0  0  0  0  0  0  0  0  0  0
  -25.2790  -13.9130   20.4560 C   0  0  0  0  0  0  0  0  0  0  0  0
  -24.2310  -13.1390   20.8760 C   0  0  0  0  0  0  0  0  0  0  0  0
  -24.6790  -11.7850   20.7880 C   0  0  0  0  0  0  0  0  0  0  0  0
  -26.3000  -13.0310   20.1410 N   0  0  0  0  0  0  0  0  0  0  0  0
  -25.9480  -11.7450   20.3990 N   0  0  0  0  0  0  0  0  0  0  0  0
  -23.9560  -10.5240   20.9960 C   0  0  0  0  0  0  0  0  0  0  0  0
  -24.4230   -9.5460   21.9020 C   0  0  0  0  0  3  0  0  0  0  0  0
  -23.7020   -8.3480   22.0950 C   0  0  0  0  0  3  0  0  0  0  0  0
  -22.5000   -8.1200   21.3830 C   0  0  0  0  0  0  0  0  0  0  0  0
  -22.0540   -9.0860   20.4620 C   0  0  0  0  0  3  0  0  0  0  0  0
  -22.7760  -10.2750   20.2680 C   0  0  0  0  0  3  0  0  0  0  0  0
  -21.7460   -6.9760   21.4880 O   0  0  0  0  0  0  0  0  0  0  0  0
  -21.7160   -6.2380   22.6450 C   0  0  0  0  0  0  0  0  0  0  0  0
  -21.2760   -6.7870   23.8700 C   0  0  0  0  0  3  0  0  0  0  0  0
  -21.1960   -5.9740   25.0170 C   0  0  0  0  0  3  0  0  0  0  0  0
  -21.5450   -4.6120   24.9420 C   0  0  0  0  0  0  0  0  0  0  0  0
  -21.9780   -4.0620   23.7230 C   0  0  0  0  0  3  0  0  0  0  0  0
  -22.0600   -4.8730   22.5770 C   0  0  0  0  0  0  0  0  0  0  0  0
  -22.4580   -4.3330   21.3990 F   0  0  0  0  0  0  0  0  0  0  0  0
  -21.4590   -3.8280   26.0410 F   0  0  0  0  0  0  0  0  0  0  0  0
  -22.8570  -13.6190   21.2440 C   0  0  0  0  0  0  0  0  0  0  0  0
  -22.1750  -12.9070   22.1360 N   0  0  0  0  0  0  0  0  0  0  0  0
  -22.3960  -14.6610   20.7770 O   0  0  0  0  0  0  0  0  0  0  0  0
  -22.5600  -12.0660   22.5410 H   0  0  0  0  0  0  0  0  0  0  0  0
  -21.2550  -13.2090   22.4210 H   0  0  0  0  0  0  0  0  0  0  0  0
  -25.4460  -15.2850   20.3000 N   0  0  0  0  0  0  0  0  0  0  0  0
  -24.6940  -15.9470   20.4640 H   0  0  0  0  0  0  0  0  0  0  0  0
  -26.2780  -15.7220   19.9200 H   0  0  0  0  0  0  0  0  0  0  0  0
  2  1  1  0
  3  6  2  0
  3  5  1  0
  4 54  1  0
  4  1  2  0
  5  9  1  0
  5  2  2  0
  6  4  1  0
  7  6  1  0
  9  8  1  0
 10 11  1  0
 10  9  1  0
 12 11  1  0
 12 13  1  0
 13 15  1  0
 14 25  2  0
 15 20  1  0
 16 24  1  0
 16 26  1  0
 17 23  1  0
 17 19  1  0
 18 24  1  0
 19 18  1  0
 20 19  2  0
 21 22  1  0
 21 15  2  0
 22 17  2  0
 23 16  1  0
 24 14  1  0
 26 28  2  0
 27 26  1  0
 29 27  1  0
 30 39  2  0
 30 35  1  0
 31 27  1  0
 31 35  1  0
 32 31  1  0
 33 34  1  0
 33 32  1  0
 34 30  1  0
 35 36  2  0
 36 37  1  0
 38 37  2  0
 39 38  1  0
 40 14  1  0
 40 41  1  0
 40 50  1  0
 41 44  1  0
 42 46  1  0
 42 41  1  0
 43 42  2  0
 46 45  1  0
 48 46  1  0
 48 49  1  0
 48 47  1  0
 50 53  1  1
 50 51  1  0
 52 50  1  0
 55 63  1  0
 56 61  1  0
 57 58  1  0
 57 56  1  0
 59 58  1  0
 59 68  1  0
 59 60  1  0
 61 55  1  0
 61 60  1  0
 62 55  2  0
 63 64  1  0
 63 54  1  0
 65 66  2  0
 66 85  1  0
 67 66  1  0
 67 70  1  0
 68 69  1  0
 68 65  1  0
 69 67  2  0
 70 71  1  0
 71 72  2  0
 73 76  1  0
 73 72  1  0
 74 73  2  0
 75 74  1  0
 75 70  2  0
 76 77  1  0
 77 78  1  0
 78 79  2  0
 80 79  1  0
 80 84  1  0
 81 80  2  0
 82 77  2  0
 82 81  1  0
 83 82  1  0
 85 86  1  0
 86 89  1  0
 86 88  1  0
 87 85  2  0
 90 65  1  0
 90 91  1  0
 92 90  1  0
M  ISO  4  12 101  13 101  55 100  63 100
M  END
>  <TORSDO>  (14) 
F 21

>  <SCORE>  (14) 
-11.862

>  <name>  (14) 
13

>  <ligand_id>  (14) 
13

>  <original_smiles>  (14) 
[H]c1c([H])c([H])c2c(c1[H])C([H])([H])C([H])([H])C([H])([H])C2([H])N([H])C(=O)C1([H])N(C(=O)C([H])(N([H])C(=O)C([H])(N([H])C([H])([H])[H])C([H])([H])[H])C(C([H])([H])[H])(C([H])([H])[H])C([H])([H])[H])C([H])([H])c2c([H])c(OC([H])([H])C([H])([H])C([H])([H])N(c3c([H])c([H])c(C([H])([H])N([H])C(=O)N4C([H])([H])C([H])([H])C([H])([H])C([H])(n5nc(-c6c([H])c([H])c(Oc7c([H])c([H])c(F)c([H])c7F)c([H])c6[H])c(C(=O)N([H])[H])c5N([H])[H])C4([H])[H])c(F)c3[H])C([H])([H])[H])c([H])c([H])c2C1([H])[H]

>  <smiles>  (14) 
[H]c1c([H])c([H])c2c(c1[H])C([H])([H])C([H])([H])C([H])([H])C2([H])N([H])C(=O)C1([H])N(C(=O)C([H])(N([H])C(=O)C([H])(N([H])C([H])([H])[H])C([H])([H])[H])C(C([H])([H])[H])(C([H])([H])[H])C([H])([H])[H])C([H])([H])c2c([H])c(OC([H])([H])C([H])([H])C([H])([H])N(c3c([H])c([H])c(C([H])([H])N([H])C(=O)N4C([H])([H])C([H])([H])C([H])([H])C([H])(n5nc(-c6c([H])c([H])c(Oc7c([H])c([H])c(F)c([H])c7F)c([H])c6[H])c(C(=O)N([H])[H])c5N([H])[H])C4([H])[H])c(F)c3[H])C([H])([H])[H])c([H])c([H])c2C1([H])[H]

$$$$
14:0:0
     RDKit          3D

 91 99  0  0  1  0  0  0  0  0999 V2000
  -31.5530  -22.1380   20.5320 C   0  0  0  0  0  1  0  0  0  0  0  0
  -30.2870  -21.5960   20.0310 N   0  0  0  0  0  0  0  0  0  0  0  0
  -31.3760  -17.9350   20.0490 C   0  0  0  0  0  3  0  0  0  0  0  0
  -31.3470  -19.3530   19.9110 C   0  0  0  0  0  3  0  0  0  0  0  0
  -29.0280  -17.9780   20.5340 C   0  0  0  0  0  3  0  0  0  0  0  0
  -30.2100  -17.2040   20.3860 C   0  0  0  0  0  0  0  0  0  0  0  0
  -30.1780  -20.1500   20.1060 C   0  0  0  0  0  0  0  0  0  0  0  0
  -28.9940  -19.3970   20.4040 C   0  0  0  0  0  0  0  0  0  0  0  0
  -27.4560  -20.1460   20.6680 Cl  0  0  0  0  0  0  0  0  0  0  0  0
  -30.9030  -14.7110   20.1290 C   0  0  0  0  0  0  0  0  0  0  0  0
  -30.6560  -12.4610   19.1030 C   0  0  0  0  0  2  0  0  0  0  0  0
  -29.6690  -12.5720   17.9180 C   0  0  0  0  0  2  0  0  0  0  0  0
  -28.2100  -12.4250   18.3990 C   0  0  0  0  0  2  0  0  0  0  0  0
  -27.8940  -13.3080   19.6340 C   0  0  0  0  0  3  0  0  0  0  0  0
  -28.9900  -13.1580   20.7160 C   0  0  0  0  0  2  0  0  0  0  0  0
  -30.2830  -13.4880   20.0940 N   0  0  0  0  0  0  0  0  0  0  0  0
  -32.0390  -14.8680   19.6750 O   0  0  0  0  0  0  0  0  0  0  0  0
  -30.1260  -15.7530   20.5560 N   0  0  0  0  0  0  0  0  0  0  0  0
  -29.2690  -15.4330   20.9790 H   0  0  0  0  0  0  0  0  0  0  0  0
  -25.5380  -13.9250   20.4610 C   0  0  0  0  0  0  0  0  0  0  0  0
  -24.4730  -13.1570   20.8510 C   0  0  0  0  0  0  0  0  0  0  0  0
  -24.9130  -11.8000   20.7670 C   0  0  0  0  0  0  0  0  0  0  0  0
  -26.5580  -13.0360   20.1630 N   0  0  0  0  0  0  0  0  0  0  0  0
  -26.1900  -11.7520   20.4060 N   0  0  0  0  0  0  0  0  0  0  0  0
  -24.1770  -10.5430   20.9530 C   0  0  0  0  0  0  0  0  0  0  0  0
  -24.5880   -9.5780   21.8980 C   0  0  0  0  0  3  0  0  0  0  0  0
  -23.8500   -8.3870   22.0720 C   0  0  0  0  0  3  0  0  0  0  0  0
  -22.6890   -8.1520   21.2960 C   0  0  0  0  0  0  0  0  0  0  0  0
  -22.2980   -9.1060   20.3410 C   0  0  0  0  0  3  0  0  0  0  0  0
  -23.0370  -10.2880   20.1660 C   0  0  0  0  0  3  0  0  0  0  0  0
  -21.9280   -7.0110   21.3780 O   0  0  0  0  0  0  0  0  0  0  0  0
  -21.7840   -6.3240   22.5570 C   0  0  0  0  0  0  0  0  0  0  0  0
  -21.2460   -6.9330   23.7130 C   0  0  0  0  0  3  0  0  0  0  0  0
  -21.0480   -6.1710   24.8810 C   0  0  0  0  0  3  0  0  0  0  0  0
  -21.3810   -4.8030   24.8950 C   0  0  0  0  0  0  0  0  0  0  0  0
  -21.9130   -4.1950   23.7460 C   0  0  0  0  0  3  0  0  0  0  0  0
  -22.1110   -4.9540   22.5780 C   0  0  0  0  0  0  0  0  0  0  0  0
  -22.6030   -4.3580   21.4650 F   0  0  0  0  0  0  0  0  0  0  0  0
  -21.1850   -4.0700   26.0160 F   0  0  0  0  0  0  0  0  0  0  0  0
  -23.0950  -13.6450   21.1920 C   0  0  0  0  0  0  0  0  0  0  0  0
  -22.3960  -12.9470   22.0780 N   0  0  0  0  0  0  0  0  0  0  0  0
  -22.6490  -14.6860   20.7090 O   0  0  0  0  0  0  0  0  0  0  0  0
  -22.7710  -12.1070   22.4950 H   0  0  0  0  0  0  0  0  0  0  0  0
  -21.4760  -13.2620   22.3500 H   0  0  0  0  0  0  0  0  0  0  0  0
  -25.7150  -15.2980   20.3170 N   0  0  0  0  0  0  0  0  0  0  0  0
  -24.9610  -15.9590   20.4780 H   0  0  0  0  0  0  0  0  0  0  0  0
  -26.5430  -15.7340   19.9310 H   0  0  0  0  0  0  0  0  0  0  0  0
  -29.1540  -22.5720   19.9600 C   0  0  0  0  0  2  0  0  0  0  0  0
  -29.5180  -24.1000   19.6730 C   0  0  0  0  0  3  0  0  0  0  0  0
  -28.3040  -25.0880   19.4780 C   0  0  0  0  0  3  0  0  0  0  0  0
  -28.5160  -26.5450   19.5910 O   0  0  0  0  0  0  0  0  0  0  0  0
  -24.6920  -31.6010   23.0440 C   0  0  0  0  0  0  0  0  0  0  0  0
  -27.3700  -27.3540   19.6310 C   0  0  0  0  0  0  0  0  0  0  0  0
  -23.5050  -30.3120   21.3080 C   0  0  0  0  0  3  0  0  0  0  0  0
  -24.9750  -28.9070   19.7670 C   0  0  0  0  0  0  0  0  0  0  0  0
  -26.0390  -30.6920   21.1430 C   0  0  0  0  0  2  0  0  0  0  0  0
  -26.1400  -29.3750   20.3860 C   0  0  0  0  0  0  0  0  0  0  0  0
  -27.3420  -28.6120   20.3060 C   0  0  0  0  0  3  0  0  0  0  0  0
  -26.1750  -26.9370   19.0010 C   0  0  0  0  0  3  0  0  0  0  0  0
  -24.9920  -27.6920   19.0690 C   0  0  0  0  0  3  0  0  0  0  0  0
  -23.7230  -29.7500   19.8810 C   0  0  0  0  0  2  0  0  0  0  0  0
  -24.7650  -30.8820   21.8880 N   0  0  0  0  0  0  0  0  0  0  0  0
  -23.6060  -31.8180   23.6020 O   0  0  0  0  0  0  0  0  0  0  0  0
  -22.8680  -29.2110   22.1890 C   0  0  0  0  0  0  0  0  0  0  0  0
  -21.5380  -29.0430   22.0780 N   0  0  0  0  0  0  0  0  0  0  0  0
  -23.5650  -28.5150   22.9310 O   0  0  0  0  0  0  0  0  0  0  0  0
  -21.0350  -29.6570   21.4550 H   0  0  0  0  0  0  0  0  0  0  0  0
  -18.1630  -27.8640   22.6190 C   0  0  0  0  0  0  0  0  0  0  0  0
  -20.7370  -28.0420   22.7840 C   0  0  0  0  0  3  0  0  0  0  0  0
  -20.7750  -26.6810   22.0530 C   0  0  0  0  0  2  0  0  0  0  0  0
  -19.6170  -26.4910   21.0680 C   0  0  0  0  0  2  0  0  0  0  0  0
  -18.2720  -26.5920   21.7930 C   0  0  0  0  0  2  0  0  0  0  0  0
  -19.3200  -28.5520   23.0710 C   0  0  0  0  0  0  0  0  0  0  0  0
  -19.1620  -29.7480   23.8060 C   0  0  0  0  0  3  0  0  0  0  0  0
  -17.8780  -30.2510   24.0930 C   0  0  0  0  0  3  0  0  0  0  0  0
  -16.7370  -29.5580   23.6550 C   0  0  0  0  0  3  0  0  0  0  0  0
  -16.8800  -28.3650   22.9250 C   0  0  0  0  0  3  0  0  0  0  0  0
  -25.9670  -32.2070   23.7060 C   0  0  0  0  0  3  0  0  0  0  0  0
  -26.4770  -31.3760   24.9470 C   0  0  1  0  0  0  0  0  0  0  0  0
  -25.3780  -31.0850   25.9960 C   0  0  0  0  0  1  0  0  0  0  0  0
  -27.0690  -30.0210   24.4950 C   0  0  0  0  0  1  0  0  0  0  0  0
  -27.6210  -32.1420   25.6530 C   0  0  0  0  0  1  0  0  0  0  0  0
  -25.6450  -33.5850   24.1040 N   0  0  0  0  0  0  0  0  0  0  0  0
  -25.9380  -34.6740   23.3810 C   0  0  0  0  0  0  0  0  0  0  0  0
  -26.5790  -34.6270   22.3270 O   0  0  0  0  0  0  0  0  0  0  0  0
  -25.0700  -33.6950   24.9260 H   0  0  0  0  0  0  0  0  0  0  0  0
  -24.1550  -36.4380   23.1830 C   0  0  0  0  0  1  0  0  0  0  0  0
  -25.4450  -36.0330   23.9150 C   0  0  0  0  0  3  0  0  0  0  0  0
  -27.5930  -36.9430   24.6790 C   0  0  0  0  0  1  0  0  0  0  0  0
  -26.4460  -37.1140   23.7900 N   0  0  0  0  0  0  0  0  0  0  0  0
  -26.0260  -38.0190   23.9850 H   0  0  0  0  0  0  0  0  0  0  0  0
  2  7  1  0
  2  1  1  0
  3  6  1  0
  4  3  2  0
  4  7  1  0
  6  5  2  0
  6 18  1  0
  7  8  2  0
  8  5  1  0
  8  9  1  0
 10 18  1  0
 11 16  1  0
 12 13  1  0
 12 11  1  0
 14 13  1  0
 14 23  1  0
 14 15  1  0
 16 10  1  0
 16 15  1  0
 17 10  2  0
 18 19  1  0
 20 21  2  0
 21 40  1  0
 22 21  1  0
 22 25  1  0
 23 24  1  0
 23 20  1  0
 24 22  2  0
 25 26  1  0
 26 27  2  0
 28 31  1  0
 28 27  1  0
 29 28  2  0
 30 29  1  0
 30 25  2  0
 31 32  1  0
 32 37  2  0
 32 33  1  0
 33 34  2  0
 34 35  1  0
 35 39  1  0
 36 35  2  0
 37 36  1  0
 38 37  1  0
 40 41  1  0
 41 44  1  0
 41 43  1  0
 42 40  2  0
 45 20  1  0
 45 46  1  0
 47 45  1  0
 48  2  1  0
 49 48  1  0
 50 51  1  0
 50 49  2  0
 51 53  1  0
 52 63  2  0
 53 58  1  0
 54 62  1  0
 54 64  1  0
 55 61  1  0
 55 57  1  0
 56 62  1  0
 57 56  1  0
 58 57  2  0
 59 60  1  0
 59 53  2  0
 60 55  2  0
 61 54  1  0
 62 52  1  0
 64 66  2  0
 65 64  1  0
 67 65  1  0
 68 77  2  0
 68 73  1  0
 69 65  1  0
 69 73  1  0
 70 69  1  0
 71 72  1  0
 71 70  1  0
 72 68  1  0
 73 74  2  0
 74 75  1  0
 76 75  2  0
 77 76  1  0
 78 52  1  0
 78 83  1  0
 78 79  1  0
 79 82  1  1
 79 80  1  0
 81 79  1  0
 83 86  1  0
 84 88  1  0
 84 83  1  0
 85 84  2  0
 88 87  1  0
 90 88  1  0
 90 91  1  0
 90 89  1  0
M  ISO  4  10 100  18 100  50 101  51 101
M  END
>  <TORSDO>  (15) 
F 20

>  <SCORE>  (15) 
-12.791

>  <name>  (15) 
14

>  <ligand_id>  (15) 
14

>  <original_smiles>  (15) 
[H]c1c([H])c([H])c2c(c1[H])C([H])([H])C([H])([H])C([H])([H])C2([H])N([H])C(=O)C1([H])N(C(=O)C([H])(N([H])C(=O)C([H])(N([H])C([H])([H])[H])C([H])([H])[H])C(C([H])([H])[H])(C([H])([H])[H])C([H])([H])[H])C([H])([H])c2c([H])c(OC([H])([H])C([H])([H])C([H])([H])N(c3c([H])c([H])c(N([H])C(=O)N4C([H])([H])C([H])([H])C([H])([H])C([H])(n5nc(-c6c([H])c([H])c(Oc7c([H])c([H])c(F)c([H])c7F)c([H])c6[H])c(C(=O)N([H])[H])c5N([H])[H])C4([H])[H])c([H])c3Cl)C([H])([H])[H])c([H])c([H])c2C1([H])[H]

>  <smiles>  (15) 
[H]c1c([H])c([H])c2c(c1[H])C([H])([H])C([H])([H])C([H])([H])C2([H])N([H])C(=O)C1([H])N(C(=O)C([H])(N([H])C(=O)C([H])(N([H])C([H])([H])[H])C([H])([H])[H])C(C([H])([H])[H])(C([H])([H])[H])C([H])([H])[H])C([H])([H])c2c([H])c(OC([H])([H])C([H])([H])C([H])([H])N(c3c([H])c([H])c(N([H])C(=O)N4C([H])([H])C([H])([H])C([H])([H])C([H])(n5nc(-c6c([H])c([H])c(Oc7c([H])c([H])c(F)c([H])c7F)c([H])c6[H])c(C(=O)N([H])[H])c5N([H])[H])C4([H])[H])c([H])c3Cl)C([H])([H])[H])c([H])c([H])c2C1([H])[H]

$$$$
15:0:0
     RDKit          3D

 88 96  0  0  1  0  0  0  0  0999 V2000
  -29.2390  -19.9700   18.6760 C   0  0  0  0  0  3  0  0  0  0  0  0
  -28.9690  -21.2000   18.0090 C   0  0  0  0  0  3  0  0  0  0  0  0
  -28.9360  -21.2300   20.7080 C   0  0  0  0  0  3  0  0  0  0  0  0
  -29.2670  -19.8410   20.0800 C   0  0  0  0  0  0  0  0  0  0  0  0
  -28.6210  -22.6060   20.0430 C   0  0  0  0  0  0  0  0  0  0  0  0
  -28.6780  -22.4460   18.6390 C   0  0  0  0  0  0  0  0  0  0  0  0
  -28.4100  -23.5130   17.8500 F   0  0  0  0  0  0  0  0  0  0  0  0
  -29.8040  -18.2760   20.7170 C   0  0  0  0  0  2  0  0  0  0  0  0
  -30.3920  -15.3440   20.3190 C   0  0  0  0  0  0  0  0  0  0  0  0
  -30.4020  -12.8810   19.4390 C   0  0  0  0  0  2  0  0  0  0  0  0
  -29.4880  -12.6140   18.2160 C   0  0  0  0  0  2  0  0  0  0  0  0
  -28.0440  -12.3270   18.6610 C   0  0  0  0  0  2  0  0  0  0  0  0
  -27.5740  -13.3050   19.7650 C   0  0  0  0  0  3  0  0  0  0  0  0
  -28.6170  -13.5000   20.8840 C   0  0  0  0  0  2  0  0  0  0  0  0
  -29.8280  -14.0320   20.2340 N   0  0  0  0  0  0  0  0  0  0  0  0
  -31.6250  -15.3250   20.1870 O   0  0  0  0  0  0  0  0  0  0  0  0
  -29.6210  -16.6310   20.3540 N   0  0  0  0  0  0  0  0  0  0  0  0
  -28.6390  -16.4150   20.2770 H   0  0  0  0  0  0  0  0  0  0  0  0
  -25.2020  -13.8540   20.5160 C   0  0  0  0  0  0  0  0  0  0  0  0
  -24.1420  -13.0750   20.8830 C   0  0  0  0  0  0  0  0  0  0  0  0
  -24.6150  -11.7260   20.8590 C   0  0  0  0  0  0  0  0  0  0  0  0
  -26.2480  -12.9830   20.2780 N   0  0  0  0  0  0  0  0  0  0  0  0
  -25.9080  -11.6970   20.5540 N   0  0  0  0  0  0  0  0  0  0  0  0
  -23.8900  -10.4620   21.0480 C   0  0  0  0  0  0  0  0  0  0  0  0
  -24.3240   -9.4920   21.9790 C   0  0  0  0  0  3  0  0  0  0  0  0
  -23.5970   -8.2960   22.1580 C   0  0  0  0  0  3  0  0  0  0  0  0
  -22.4210   -8.0600   21.4050 C   0  0  0  0  0  0  0  0  0  0  0  0
  -22.0070   -9.0190   20.4650 C   0  0  0  0  0  3  0  0  0  0  0  0
  -22.7340  -10.2060   20.2830 C   0  0  0  0  0  3  0  0  0  0  0  0
  -21.6660   -6.9160   21.4940 O   0  0  0  0  0  0  0  0  0  0  0  0
  -21.6280   -6.1660   22.6430 C   0  0  0  0  0  0  0  0  0  0  0  0
  -21.2200   -6.7150   23.8780 C   0  0  0  0  0  3  0  0  0  0  0  0
  -21.1290   -5.8910   25.0180 C   0  0  0  0  0  3  0  0  0  0  0  0
  -21.4340   -4.5210   24.9240 C   0  0  0  0  0  0  0  0  0  0  0  0
  -21.8350   -3.9710   23.6930 C   0  0  0  0  0  3  0  0  0  0  0  0
  -21.9280   -4.7920   22.5550 C   0  0  0  0  0  0  0  0  0  0  0  0
  -22.2940   -4.2520   21.3670 F   0  0  0  0  0  0  0  0  0  0  0  0
  -21.3390   -3.7280   26.0170 F   0  0  0  0  0  0  0  0  0  0  0  0
  -22.7410  -13.5480   21.1380 C   0  0  0  0  0  0  0  0  0  0  0  0
  -22.0080  -12.8550   22.0020 N   0  0  0  0  0  0  0  0  0  0  0  0
  -22.3050  -14.5690   20.6070 O   0  0  0  0  0  0  0  0  0  0  0  0
  -22.3730  -12.0290   22.4520 H   0  0  0  0  0  0  0  0  0  0  0  0
  -21.0670  -13.1540   22.2170 H   0  0  0  0  0  0  0  0  0  0  0  0
  -25.3560  -15.2260   20.3330 N   0  0  0  0  0  0  0  0  0  0  0  0
  -24.5810  -15.8710   20.4350 H   0  0  0  0  0  0  0  0  0  0  0  0
  -26.1910  -15.6670   19.9710 H   0  0  0  0  0  0  0  0  0  0  0  0
  -28.0270  -24.1700   20.6340 C   0  0  0  0  0  2  0  0  0  0  0  0
  -28.2340  -25.7790   20.2320 O   0  0  0  0  0  0  0  0  0  0  0  0
  -24.6520  -31.8290   23.1950 C   0  0  0  0  0  0  0  0  0  0  0  0
  -27.2200  -26.8900   20.2440 C   0  0  0  0  0  0  0  0  0  0  0  0
  -23.4670  -30.4190   21.5650 C   0  0  0  0  0  3  0  0  0  0  0  0
  -24.9230  -28.7930   20.1700 C   0  0  0  0  0  0  0  0  0  0  0  0
  -26.0370  -30.6210   21.4280 C   0  0  0  0  0  2  0  0  0  0  0  0
  -26.1120  -29.1990   20.7890 C   0  0  0  0  0  0  0  0  0  0  0  0
  -27.2570  -28.2720   20.7930 C   0  0  0  0  0  3  0  0  0  0  0  0
  -25.9970  -26.6440   19.5810 C   0  0  0  0  0  3  0  0  0  0  0  0
  -24.8910  -27.5370   19.5440 C   0  0  0  0  0  3  0  0  0  0  0  0
  -23.7050  -29.7190   20.1990 C   0  0  0  0  0  2  0  0  0  0  0  0
  -24.7410  -30.9850   22.1160 N   0  0  0  0  0  0  0  0  0  0  0  0
  -23.5600  -32.1240   23.7080 O   0  0  0  0  0  0  0  0  0  0  0  0
  -22.7660  -29.4330   22.5380 C   0  0  0  0  0  0  0  0  0  0  0  0
  -21.4340  -29.2800   22.4200 N   0  0  0  0  0  0  0  0  0  0  0  0
  -23.4300  -28.8070   23.3690 O   0  0  0  0  0  0  0  0  0  0  0  0
  -20.9520  -29.8350   21.7260 H   0  0  0  0  0  0  0  0  0  0  0  0
  -18.0450  -28.0970   22.9520 C   0  0  0  0  0  0  0  0  0  0  0  0
  -20.6080  -28.3490   23.1970 C   0  0  0  0  0  3  0  0  0  0  0  0
  -20.6970  -26.9150   22.6250 C   0  0  0  0  0  2  0  0  0  0  0  0
  -19.5870  -26.5970   21.6190 C   0  0  0  0  0  2  0  0  0  0  0  0
  -18.2110  -26.7480   22.2720 C   0  0  0  0  0  2  0  0  0  0  0  0
  -19.1700  -28.8550   23.3720 C   0  0  0  0  0  0  0  0  0  0  0  0
  -18.9590  -30.1160   23.9720 C   0  0  0  0  0  3  0  0  0  0  0  0
  -17.6560  -30.6180   24.1520 C   0  0  0  0  0  3  0  0  0  0  0  0
  -16.5460  -29.8580   23.7460 C   0  0  0  0  0  3  0  0  0  0  0  0
  -16.7420  -28.5980   23.1520 C   0  0  0  0  0  3  0  0  0  0  0  0
  -25.9180  -32.4810   23.8290 C   0  0  0  0  0  3  0  0  0  0  0  0
  -25.5930  -33.8790   24.1620 N   0  0  0  0  0  0  0  0  0  0  0  0
  -25.9200  -34.9440   23.4180 C   0  0  0  0  0  0  0  0  0  0  0  0
  -26.5910  -34.8520   22.3870 O   0  0  0  0  0  0  0  0  0  0  0  0
  -24.9960  -34.0240   24.9640 H   0  0  0  0  0  0  0  0  0  0  0  0
  -24.1840  -36.7390   23.0900 C   0  0  0  0  0  1  0  0  0  0  0  0
  -25.4320  -36.3290   23.8900 C   0  0  0  0  0  3  0  0  0  0  0  0
  -27.5660  -37.2210   24.7150 C   0  0  0  0  0  1  0  0  0  0  0  0
  -26.4590  -37.3880   23.7790 N   0  0  0  0  0  0  0  0  0  0  0  0
  -26.0500  -38.3060   23.9330 H   0  0  0  0  0  0  0  0  0  0  0  0
  -26.4250  -31.7230   25.1190 C   0  0  1  0  0  0  0  0  0  0  0  0
  -25.3240  -31.4950   26.1810 C   0  0  0  0  0  1  0  0  0  0  0  0
  -27.0130  -30.3410   24.7530 C   0  0  0  0  0  1  0  0  0  0  0  0
  -27.5700  -32.5230   25.7820 C   0  0  0  0  0  1  0  0  0  0  0  0
  1  4  1  0
  2  6  1  0
  2  1  2  0
  4  3  2  0
  4  8  1  0
  5 47  1  0
  5  3  1  0
  6  5  2  0
  7  6  1  0
  9 17  1  0
 10 15  1  0
 11 12  1  0
 11 10  1  0
 13 12  1  0
 13 22  1  0
 13 14  1  0
 15  9  1  0
 15 14  1  0
 16  9  2  0
 17  8  1  0
 18 17  1  0
 19 20  2  0
 20 39  1  0
 21 20  1  0
 21 24  1  0
 22 19  1  0
 22 23  1  0
 23 21  2  0
 24 25  1  0
 25 26  2  0
 27 30  1  0
 27 26  1  0
 28 27  2  0
 29 28  1  0
 29 24  2  0
 30 31  1  0
 31 32  1  0
 32 33  2  0
 34 33  1  0
 34 38  1  0
 35 34  2  0
 36 31  2  0
 36 35  1  0
 37 36  1  0
 39 40  1  0
 40 43  1  0
 40 42  1  0
 41 39  2  0
 44 45  1  0
 44 19  1  0
 46 44  1  0
 48 50  1  0
 48 47  1  0
 49 60  2  0
 50 55  1  0
 51 59  1  0
 51 61  1  0
 52 58  1  0
 52 54  1  0
 53 59  1  0
 54 55  2  0
 54 53  1  0
 56 50  2  0
 57 56  1  0
 57 52  2  0
 58 51  1  0
 59 49  1  0
 61 63  2  0
 62 61  1  0
 64 62  1  0
 65 74  2  0
 65 70  1  0
 66 62  1  0
 66 70  1  0
 67 66  1  0
 68 69  1  0
 68 67  1  0
 69 65  1  0
 70 71  2  0
 71 72  1  0
 73 72  2  0
 74 73  1  0
 75 49  1  0
 75 76  1  0
 75 85  1  0
 76 79  1  0
 77 81  1  0
 77 76  1  0
 78 77  2  0
 81 80  1  0
 83 81  1  0
 83 84  1  0
 83 82  1  0
 85 88  1  1
 85 86  1  0
 87 85  1  0
M  ISO  4   9 100  17 100  47 101  48 101
M  END
>  <TORSDO>  (16) 
F 18

>  <SCORE>  (16) 
-16.602

>  <name>  (16) 
15

>  <ligand_id>  (16) 
15

>  <original_smiles>  (16) 
[H]c1c([H])c([H])c2c(c1[H])C([H])([H])C([H])([H])C([H])([H])C2([H])N([H])C(=O)C1([H])N(C(=O)C([H])(N([H])C(=O)C([H])(N([H])C([H])([H])[H])C([H])([H])[H])C(C([H])([H])[H])(C([H])([H])[H])C([H])([H])[H])C([H])([H])c2c([H])c(OC([H])([H])c3c([H])c(C([H])([H])N([H])C(=O)N4C([H])([H])C([H])([H])C([H])([H])C([H])(n5nc(-c6c([H])c([H])c(Oc7c([H])c([H])c(F)c([H])c7F)c([H])c6[H])c(C(=O)N([H])[H])c5N([H])[H])C4([H])[H])c([H])c([H])c3F)c([H])c([H])c2C1([H])[H]

>  <smiles>  (16) 
[H]c1c([H])c([H])c2c(c1[H])C([H])([H])C([H])([H])C([H])([H])C2([H])N([H])C(=O)C1([H])N(C(=O)C([H])(N([H])C(=O)C([H])(N([H])C([H])([H])[H])C([H])([H])[H])C(C([H])([H])[H])(C([H])([H])[H])C([H])([H])[H])C([H])([H])c2c([H])c(OC([H])([H])c3c([H])c(C([H])([H])N([H])C(=O)N4C([H])([H])C([H])([H])C([H])([H])C([H])(n5nc(-c6c([H])c([H])c(Oc7c([H])c([H])c(F)c([H])c7F)c([H])c6[H])c(C(=O)N([H])[H])c5N([H])[H])C4([H])[H])c([H])c([H])c3F)c([H])c([H])c2C1([H])[H]

$$$$
16:0:0
     RDKit          3D

 88 96  0  0  1  0  0  0  0  0999 V2000
  -30.3810  -20.9850   20.1060 C   0  0  0  0  0  3  0  0  0  0  0  0
  -29.9550  -22.4060   20.0450 C   0  0  0  0  0  3  0  0  0  0  0  0
  -28.1960  -20.2710   20.1550 C   0  0  0  0  0  3  0  0  0  0  0  0
  -29.5580  -19.7760   20.1580 C   0  0  0  0  0  0  0  0  0  0  0  0
  -28.5900  -22.8980   20.0410 C   0  0  0  0  0  0  0  0  0  0  0  0
  -27.7580  -21.6910   20.0950 C   0  0  0  0  0  0  0  0  0  0  0  0
  -26.4190  -21.8890   20.0560 F   0  0  0  0  0  0  0  0  0  0  0  0
  -30.2490  -18.1820   20.2170 C   0  0  0  0  0  2  0  0  0  0  0  0
  -30.4970  -15.3320   20.1400 C   0  0  0  0  0  0  0  0  0  0  0  0
  -30.4030  -12.9290   19.2070 C   0  0  0  0  0  2  0  0  0  0  0  0
  -29.4590  -12.7780   17.9890 C   0  0  0  0  0  2  0  0  0  0  0  0
  -28.0150  -12.5190   18.4520 C   0  0  0  0  0  2  0  0  0  0  0  0
  -27.5960  -13.4600   19.6100 C   0  0  0  0  0  3  0  0  0  0  0  0
  -28.6660  -13.5650   20.7180 C   0  0  0  0  0  2  0  0  0  0  0  0
  -29.8960  -14.0510   20.0710 N   0  0  0  0  0  0  0  0  0  0  0  0
  -31.7090  -15.3220   19.8920 O   0  0  0  0  0  0  0  0  0  0  0  0
  -29.7780  -16.6090   20.2770 N   0  0  0  0  0  0  0  0  0  0  0  0
  -28.7870  -16.4900   20.4240 H   0  0  0  0  0  0  0  0  0  0  0  0
  -25.2280  -14.0080   20.3840 C   0  0  0  0  0  0  0  0  0  0  0  0
  -24.1750  -13.2250   20.7680 C   0  0  0  0  0  0  0  0  0  0  0  0
  -24.6520  -11.8780   20.7410 C   0  0  0  0  0  0  0  0  0  0  0  0
  -26.2740  -13.1390   20.1350 N   0  0  0  0  0  0  0  0  0  0  0  0
  -25.9410  -11.8520   20.4180 N   0  0  0  0  0  0  0  0  0  0  0  0
  -23.9380  -10.6110   20.9430 C   0  0  0  0  0  0  0  0  0  0  0  0
  -24.3650   -9.6650   21.9000 C   0  0  0  0  0  3  0  0  0  0  0  0
  -23.6470   -8.4640   22.0900 C   0  0  0  0  0  3  0  0  0  0  0  0
  -22.4870   -8.2020   21.3240 C   0  0  0  0  0  0  0  0  0  0  0  0
  -22.0780   -9.1380   20.3570 C   0  0  0  0  0  3  0  0  0  0  0  0
  -22.7970  -10.3280   20.1660 C   0  0  0  0  0  3  0  0  0  0  0  0
  -21.7410   -7.0520   21.4240 O   0  0  0  0  0  0  0  0  0  0  0  0
  -21.6710   -6.3380   22.5930 C   0  0  0  0  0  0  0  0  0  0  0  0
  -21.1700   -6.9060   23.7840 C   0  0  0  0  0  3  0  0  0  0  0  0
  -21.0510   -6.1150   24.9450 C   0  0  0  0  0  3  0  0  0  0  0  0
  -21.4230   -4.7590   24.9150 C   0  0  0  0  0  0  0  0  0  0  0  0
  -21.9170   -4.1900   23.7280 C   0  0  0  0  0  3  0  0  0  0  0  0
  -22.0390   -4.9780   22.5700 C   0  0  0  0  0  0  0  0  0  0  0  0
  -22.4950   -4.4190   21.4230 F   0  0  0  0  0  0  0  0  0  0  0  0
  -21.3020   -3.9970   26.0270 F   0  0  0  0  0  0  0  0  0  0  0  0
  -22.7770  -13.6930   21.0450 C   0  0  0  0  0  0  0  0  0  0  0  0
  -22.0600  -12.9970   21.9190 N   0  0  0  0  0  0  0  0  0  0  0  0
  -22.3290  -14.7130   20.5210 O   0  0  0  0  0  0  0  0  0  0  0  0
  -22.4370  -12.1730   22.3650 H   0  0  0  0  0  0  0  0  0  0  0  0
  -21.1210  -13.2910   22.1480 H   0  0  0  0  0  0  0  0  0  0  0  0
  -25.3740  -15.3790   20.1960 N   0  0  0  0  0  0  0  0  0  0  0  0
  -24.5990  -16.0220   20.3040 H   0  0  0  0  0  0  0  0  0  0  0  0
  -26.2040  -15.8210   19.8200 H   0  0  0  0  0  0  0  0  0  0  0  0
  -27.9200  -24.4800   19.7810 C   0  0  0  0  0  2  0  0  0  0  0  0
  -28.2740  -26.0250   20.1400 O   0  0  0  0  0  0  0  0  0  0  0  0
  -24.6560  -31.8530   23.2300 C   0  0  0  0  0  0  0  0  0  0  0  0
  -27.2710  -27.1180   20.0860 C   0  0  0  0  0  0  0  0  0  0  0  0
  -23.4800  -30.4920   21.5500 C   0  0  0  0  0  3  0  0  0  0  0  0
  -24.9490  -28.9530   20.0880 C   0  0  0  0  0  0  0  0  0  0  0  0
  -26.0430  -30.7430   21.4150 C   0  0  0  0  0  2  0  0  0  0  0  0
  -26.1310  -29.3570   20.7220 C   0  0  0  0  0  0  0  0  0  0  0  0
  -27.2880  -28.4600   20.7020 C   0  0  0  0  0  3  0  0  0  0  0  0
  -26.0590  -26.8650   19.4030 C   0  0  0  0  0  3  0  0  0  0  0  0
  -24.9360  -27.7270   19.4090 C   0  0  0  0  0  3  0  0  0  0  0  0
  -23.7200  -29.8530   20.1550 C   0  0  0  0  0  2  0  0  0  0  0  0
  -24.7470  -31.0540   22.1200 N   0  0  0  0  0  0  0  0  0  0  0  0
  -23.5620  -32.1160   23.7550 O   0  0  0  0  0  0  0  0  0  0  0  0
  -22.7950  -29.4600   22.4820 C   0  0  0  0  0  0  0  0  0  0  0  0
  -21.4660  -29.2910   22.3520 N   0  0  0  0  0  0  0  0  0  0  0  0
  -23.4650  -28.8130   23.2910 O   0  0  0  0  0  0  0  0  0  0  0  0
  -20.9790  -29.8650   21.6780 H   0  0  0  0  0  0  0  0  0  0  0  0
  -18.0860  -28.0710   22.8460 C   0  0  0  0  0  0  0  0  0  0  0  0
  -20.6480  -28.3270   23.0960 C   0  0  0  0  0  3  0  0  0  0  0  0
  -20.7430  -26.9170   22.4690 C   0  0  0  0  0  2  0  0  0  0  0  0
  -19.6320  -26.6320   21.4540 C   0  0  0  0  0  2  0  0  0  0  0  0
  -18.2560  -26.7490   22.1160 C   0  0  0  0  0  2  0  0  0  0  0  0
  -19.2080  -28.8190   23.2930 C   0  0  0  0  0  0  0  0  0  0  0  0
  -18.9920  -30.0550   23.9390 C   0  0  0  0  0  3  0  0  0  0  0  0
  -17.6870  -30.5450   24.1400 C   0  0  0  0  0  3  0  0  0  0  0  0
  -16.5800  -29.7950   23.7080 C   0  0  0  0  0  3  0  0  0  0  0  0
  -16.7800  -28.5590   23.0670 C   0  0  0  0  0  3  0  0  0  0  0  0
  -25.9200  -32.4890   23.8830 C   0  0  0  0  0  3  0  0  0  0  0  0
  -25.6030  -33.8890   24.2130 N   0  0  0  0  0  0  0  0  0  0  0  0
  -25.9140  -34.9470   23.4510 C   0  0  0  0  0  0  0  0  0  0  0  0
  -26.5620  -34.8460   22.4050 O   0  0  0  0  0  0  0  0  0  0  0  0
  -25.0230  -34.0400   25.0260 H   0  0  0  0  0  0  0  0  0  0  0  0
  -24.1530  -36.7230   23.1620 C   0  0  0  0  0  1  0  0  0  0  0  0
  -25.4330  -36.3350   23.9190 C   0  0  0  0  0  3  0  0  0  0  0  0
  -27.5860  -37.2590   24.6580 C   0  0  0  0  0  1  0  0  0  0  0  0
  -26.4480  -37.3990   23.7530 N   0  0  0  0  0  0  0  0  0  0  0  0
  -26.0370  -38.3160   23.9020 H   0  0  0  0  0  0  0  0  0  0  0  0
  -26.4000  -31.7210   25.1770 C   0  0  1  0  0  0  0  0  0  0  0  0
  -25.2790  -31.4930   26.2180 C   0  0  0  0  0  1  0  0  0  0  0  0
  -26.9870  -30.3390   24.8120 C   0  0  0  0  0  1  0  0  0  0  0  0
  -27.5360  -32.5140   25.8650 C   0  0  0  0  0  1  0  0  0  0  0  0
  1  4  1  0
  2  1  2  0
  3  4  2  0
  4  8  1  0
  5  2  1  0
  5  6  2  0
  6  3  1  0
  7  6  1  0
  8 17  1  0
  9 17  1  0
 10 15  1  0
 11 12  1  0
 11 10  1  0
 13 12  1  0
 13 22  1  0
 13 14  1  0
 15  9  1  0
 15 14  1  0
 16  9  2  0
 17 18  1  0
 19 20  2  0
 20 39  1  0
 21 20  1  0
 21 24  1  0
 22 19  1  0
 22 23  1  0
 23 21  2  0
 24 25  1  0
 25 26  2  0
 27 30  1  0
 27 26  1  0
 28 27  2  0
 29 28  1  0
 29 24  2  0
 30 31  1  0
 31 32  1  0
 32 33  2  0
 34 33  1  0
 34 38  1  0
 35 34  2  0
 36 31  2  0
 36 35  1  0
 37 36  1  0
 39 40  1  0
 40 43  1  0
 40 42  1  0
 41 39  2  0
 44 45  1  0
 44 19  1  0
 46 44  1  0
 47  5  1  0
 47 48  1  0
 49 60  2  0
 50 48  1  0
 50 55  1  0
 51 59  1  0
 51 61  1  0
 52 58  1  0
 52 54  1  0
 53 59  1  0
 54 53  1  0
 55 54  2  0
 56 57  1  0
 56 50  2  0
 57 52  2  0
 58 51  1  0
 59 49  1  0
 61 63  2  0
 62 61  1  0
 64 62  1  0
 65 74  2  0
 65 70  1  0
 66 62  1  0
 66 70  1  0
 67 66  1  0
 68 69  1  0
 68 67  1  0
 69 65  1  0
 70 71  2  0
 71 72  1  0
 73 72  2  0
 74 73  1  0
 75 49  1  0
 75 76  1  0
 75 85  1  0
 76 79  1  0
 77 81  1  0
 77 76  1  0
 78 77  2  0
 81 80  1  0
 83 84  1  0
 83 81  1  0
 83 82  1  0
 85 88  1  1
 85 86  1  0
 87 85  1  0
M  ISO  4   9 100  17 100  47 101  48 101
M  END
>  <TORSDO>  (17) 
F 18

>  <SCORE>  (17) 
-15.644

>  <name>  (17) 
16

>  <ligand_id>  (17) 
16

>  <original_smiles>  (17) 
[H]c1c([H])c([H])c2c(c1[H])C([H])([H])C([H])([H])C([H])([H])C2([H])N([H])C(=O)C1([H])N(C(=O)C([H])(N([H])C(=O)C([H])(N([H])C([H])([H])[H])C([H])([H])[H])C(C([H])([H])[H])(C([H])([H])[H])C([H])([H])[H])C([H])([H])c2c([H])c(OC([H])([H])c3c([H])c([H])c(C([H])([H])N([H])C(=O)N4C([H])([H])C([H])([H])C([H])([H])C([H])(n5nc(-c6c([H])c([H])c(Oc7c([H])c([H])c(F)c([H])c7F)c([H])c6[H])c(C(=O)N([H])[H])c5N([H])[H])C4([H])[H])c([H])c3F)c([H])c([H])c2C1([H])[H]

>  <smiles>  (17) 
[H]c1c([H])c([H])c2c(c1[H])C([H])([H])C([H])([H])C([H])([H])C2([H])N([H])C(=O)C1([H])N(C(=O)C([H])(N([H])C(=O)C([H])(N([H])C([H])([H])[H])C([H])([H])[H])C(C([H])([H])[H])(C([H])([H])[H])C([H])([H])[H])C([H])([H])c2c([H])c(OC([H])([H])c3c([H])c([H])c(C([H])([H])N([H])C(=O)N4C([H])([H])C([H])([H])C([H])([H])C([H])(n5nc(-c6c([H])c([H])c(Oc7c([H])c([H])c(F)c([H])c7F)c([H])c6[H])c(C(=O)N([H])[H])c5N([H])[H])C4([H])[H])c([H])c3F)c([H])c([H])c2C1([H])[H]

$$$$
17:0:0
     RDKit          3D

 89 97  0  0  1  0  0  0  0  0999 V2000
  -29.2420  -21.0260   18.5320 C   0  0  0  0  0  3  0  0  0  0  0  0
  -29.5930  -19.5260   18.5480 C   0  0  0  0  0  3  0  0  0  0  0  0
  -29.2860  -19.5360   20.7370 C   0  0  0  0  0  3  0  0  0  0  0  0
  -28.8640  -21.9940   19.6160 C   0  0  0  0  0  0  0  0  0  0  0  0
  -29.6500  -18.5430   19.6700 C   0  0  0  0  0  0  0  0  0  0  0  0
  -28.9360  -21.0220   20.7340 C   0  0  0  0  0  0  0  0  0  0  0  0
  -28.5900  -21.5240   21.9440 F   0  0  0  0  0  0  0  0  0  0  0  0
  -30.4970  -15.5080   19.2840 C   0  0  0  0  0  0  0  0  0  0  0  0
  -30.4440  -12.9860   18.3820 C   0  0  0  0  0  2  0  0  0  0  0  0
  -29.3590  -12.6360   17.3220 C   0  0  0  0  0  2  0  0  0  0  0  0
  -28.0200  -12.2800   17.9870 C   0  0  0  0  0  2  0  0  0  0  0  0
  -27.7120  -13.2410   19.1550 C   0  0  0  0  0  3  0  0  0  0  0  0
  -28.9170  -13.4730   20.0930 C   0  0  0  0  0  2  0  0  0  0  0  0
  -29.9830  -14.1320   19.2960 N   0  0  0  0  0  0  0  0  0  0  0  0
  -31.6100  -15.4880   18.7210 O   0  0  0  0  0  0  0  0  0  0  0  0
  -29.8760  -16.8260   19.8620 N   0  0  0  0  0  0  0  0  0  0  0  0
  -25.5520  -13.7600   20.3910 C   0  0  0  0  0  0  0  0  0  0  0  0
  -24.5480  -12.9760   20.8830 C   0  0  0  0  0  0  0  0  0  0  0  0
  -24.9460  -11.6250   20.6390 C   0  0  0  0  0  0  0  0  0  0  0  0
  -26.4960  -12.8920   19.8760 N   0  0  0  0  0  0  0  0  0  0  0  0
  -26.1560  -11.5920   20.0860 N   0  0  0  0  0  0  0  0  0  0  0  0
  -24.2110  -10.3680   20.8450 C   0  0  0  0  0  0  0  0  0  0  0  0
  -24.6660   -9.3830   21.7480 C   0  0  0  0  0  3  0  0  0  0  0  0
  -23.9280   -8.1960   21.9440 C   0  0  0  0  0  3  0  0  0  0  0  0
  -22.7200   -7.9850   21.2370 C   0  0  0  0  0  0  0  0  0  0  0  0
  -22.2840   -8.9580   20.3220 C   0  0  0  0  0  3  0  0  0  0  0  0
  -23.0220  -10.1370   20.1240 C   0  0  0  0  0  3  0  0  0  0  0  0
  -21.9510   -6.8510   21.3440 O   0  0  0  0  0  0  0  0  0  0  0  0
  -21.7790   -6.2090   22.5440 C   0  0  0  0  0  0  0  0  0  0  0  0
  -21.2440   -6.8690   23.6720 C   0  0  0  0  0  3  0  0  0  0  0  0
  -21.0180   -6.1530   24.8650 C   0  0  0  0  0  3  0  0  0  0  0  0
  -21.3170   -4.7800   24.9300 C   0  0  0  0  0  0  0  0  0  0  0  0
  -21.8450   -4.1200   23.8060 C   0  0  0  0  0  3  0  0  0  0  0  0
  -22.0720   -4.8320   22.6160 C   0  0  0  0  0  0  0  0  0  0  0  0
  -22.5600   -4.1870   21.5300 F   0  0  0  0  0  0  0  0  0  0  0  0
  -21.0930   -4.0900   26.0730 F   0  0  0  0  0  0  0  0  0  0  0  0
  -23.2480  -13.4590   21.4540 C   0  0  0  0  0  0  0  0  0  0  0  0
  -22.6800  -12.7170   22.3960 N   0  0  0  0  0  0  0  0  0  0  0  0
  -22.7540  -14.5290   21.0990 O   0  0  0  0  0  0  0  0  0  0  0  0
  -23.0970  -11.8490   22.7000 H   0  0  0  0  0  0  0  0  0  0  0  0
  -21.8140  -13.0200   22.8200 H   0  0  0  0  0  0  0  0  0  0  0  0
  -25.7290  -15.1370   20.3050 N   0  0  0  0  0  0  0  0  0  0  0  0
  -25.0390  -15.7960   20.6480 H   0  0  0  0  0  0  0  0  0  0  0  0
  -26.5550  -15.5840   19.9310 H   0  0  0  0  0  0  0  0  0  0  0  0
  -29.7160  -16.5440   21.3060 C   0  0  0  0  0  2  0  0  0  0  0  0
  -28.7570  -14.3610   22.1560 C   0  0  0  0  0  2  0  0  0  0  0  0
  -28.5850  -15.5720   21.6050 C   0  0  0  0  0  3  0  0  0  0  0  0
  -28.0980  -23.6990   19.5320 C   0  0  0  0  0  2  0  0  0  0  0  0
  -28.3830  -25.3990   19.8190 O   0  0  0  0  0  0  0  0  0  0  0  0
  -24.9540  -31.5390   23.0870 C   0  0  0  0  0  0  0  0  0  0  0  0
  -27.4230  -26.6200   19.8180 C   0  0  0  0  0  0  0  0  0  0  0  0
  -23.7330  -30.2210   21.4080 C   0  0  0  0  0  3  0  0  0  0  0  0
  -25.1540  -28.6420   19.8940 C   0  0  0  0  0  0  0  0  0  0  0  0
  -26.3090  -30.3720   21.2450 C   0  0  0  0  0  2  0  0  0  0  0  0
  -26.3600  -28.9730   20.5220 C   0  0  0  0  0  0  0  0  0  0  0  0
  -27.4790  -27.9890   20.4560 C   0  0  0  0  0  3  0  0  0  0  0  0
  -26.1830  -26.5000   19.1410 C   0  0  0  0  0  3  0  0  0  0  0  0
  -25.1020  -27.4330   19.1800 C   0  0  0  0  0  3  0  0  0  0  0  0
  -23.9470  -29.5880   20.0020 C   0  0  0  0  0  2  0  0  0  0  0  0
  -25.0230  -30.7400   21.9660 N   0  0  0  0  0  0  0  0  0  0  0  0
  -23.8710  -31.8150   23.6320 O   0  0  0  0  0  0  0  0  0  0  0  0
  -23.0340  -29.1990   22.3450 C   0  0  0  0  0  0  0  0  0  0  0  0
  -21.7050  -29.0200   22.2080 N   0  0  0  0  0  0  0  0  0  0  0  0
  -23.6980  -28.5670   23.1700 O   0  0  0  0  0  0  0  0  0  0  0  0
  -21.2180  -29.5820   21.5240 H   0  0  0  0  0  0  0  0  0  0  0  0
  -18.3370  -27.7420   22.6850 C   0  0  0  0  0  0  0  0  0  0  0  0
  -20.8950  -28.0450   22.9480 C   0  0  0  0  0  3  0  0  0  0  0  0
  -21.0170  -26.6350   22.3260 C   0  0  0  0  0  2  0  0  0  0  0  0
  -19.9180  -26.3290   21.3030 C   0  0  0  0  0  2  0  0  0  0  0  0
  -18.5360  -26.4240   21.9560 C   0  0  0  0  0  2  0  0  0  0  0  0
  -19.4440  -28.5110   23.1360 C   0  0  0  0  0  0  0  0  0  0  0  0
  -19.2000  -29.7410   23.7840 C   0  0  0  0  0  3  0  0  0  0  0  0
  -17.8850  -30.2050   23.9790 C   0  0  0  0  0  3  0  0  0  0  0  0
  -16.7950  -29.4350   23.5390 C   0  0  0  0  0  3  0  0  0  0  0  0
  -17.0220  -28.2050   22.8990 C   0  0  0  0  0  3  0  0  0  0  0  0
  -26.2300  -32.1570   23.7330 C   0  0  0  0  0  3  0  0  0  0  0  0
  -26.7570  -31.3300   24.9720 C   0  0  1  0  0  0  0  0  0  0  0  0
  -25.6720  -31.0420   26.0370 C   0  0  0  0  0  1  0  0  0  0  0  0
  -27.3420  -29.9730   24.5250 C   0  0  0  0  0  1  0  0  0  0  0  0
  -27.9090  -32.0980   25.6620 C   0  0  0  0  0  1  0  0  0  0  0  0
  -25.9120  -33.5370   24.1540 N   0  0  0  0  0  0  0  0  0  0  0  0
  -26.1280  -34.6370   23.4200 C   0  0  0  0  0  0  0  0  0  0  0  0
  -26.6740  -34.5990   22.3140 O   0  0  0  0  0  0  0  0  0  0  0  0
  -25.4110  -33.6360   25.0240 H   0  0  0  0  0  0  0  0  0  0  0  0
  -24.3100  -36.3820   23.3980 C   0  0  0  0  0  1  0  0  0  0  0  0
  -25.6710  -35.9920   24.0000 C   0  0  0  0  0  3  0  0  0  0  0  0
  -27.8680  -36.9430   24.5530 C   0  0  0  0  0  1  0  0  0  0  0  0
  -26.6390  -37.0890   23.7770 N   0  0  0  0  0  0  0  0  0  0  0  0
  -26.2240  -37.9890   24.0070 H   0  0  0  0  0  0  0  0  0  0  0  0
  1  2  2  0
  1  4  1  0
  2  5  1  0
  4  6  2  0
  5 16  1  0
  5  3  2  0
  6  3  1  0
  6  7  1  0
  8 14  1  0
  8 16  1  0
  9 14  1  0
 10 11  1  0
 10  9  1  0
 12 11  1  0
 12 20  1  0
 12 13  1  0
 14 13  1  0
 15  8  2  0
 16 45  1  0
 17 18  2  0
 18 37  1  0
 19 22  1  0
 19 18  1  0
 20 21  1  0
 20 17  1  0
 21 19  2  0
 22 23  1  0
 23 24  2  0
 25 28  1  0
 25 24  1  0
 26 25  2  0
 27 26  1  0
 27 22  2  0
 28 29  1  0
 29 34  2  0
 29 30  1  0
 30 31  2  0
 31 32  1  0
 32 36  1  0
 33 32  2  0
 34 33  1  0
 35 34  1  0
 37 38  1  0
 38 40  1  0
 38 41  1  0
 39 37  2  0
 42 17  1  0
 42 43  1  0
 44 42  1  0
 45 47  1  0
 47 46  2  0
 48  4  1  0
 48 49  1  0
 50 61  2  0
 51 49  1  0
 51 56  1  0
 52 60  1  0
 52 62  1  0
 53 59  1  0
 53 55  1  0
 54 60  1  0
 55 54  1  0
 56 55  2  0
 57 58  1  0
 57 51  2  0
 58 53  2  0
 59 52  1  0
 60 50  1  0
 62 64  2  0
 63 62  1  0
 65 63  1  0
 66 75  2  0
 66 71  1  0
 67 63  1  0
 67 71  1  0
 68 67  1  0
 69 70  1  0
 69 68  1  0
 70 66  1  0
 71 72  2  0
 72 73  1  0
 74 73  2  0
 75 74  1  0
 76 50  1  0
 76 81  1  0
 76 77  1  0
 77 80  1  1
 77 78  1  0
 79 77  1  0
 81 84  1  0
 82 86  1  0
 82 81  1  0
 83 82  2  0
 86 85  1  0
 88 86  1  0
 88 89  1  0
 88 87  1  0
M  ISO  4   8 100  16 100  48 101  49 101
M  END
>  <TORSDO>  (18) 
F 19

>  <SCORE>  (18) 
-11.183

>  <name>  (18) 
17

>  <ligand_id>  (18) 
17

>  <original_smiles>  (18) 
[H]C([H])=C([H])C([H])([H])N(C(=O)N1C([H])([H])C([H])([H])C([H])([H])C([H])(n2nc(-c3c([H])c([H])c(Oc4c([H])c([H])c(F)c([H])c4F)c([H])c3[H])c(C(=O)N([H])[H])c2N([H])[H])C1([H])[H])c1c([H])c([H])c(C([H])([H])Oc2c([H])c([H])c3c(c2[H])C([H])([H])N(C(=O)C([H])(N([H])C(=O)C([H])(N([H])C([H])([H])[H])C([H])([H])[H])C(C([H])([H])[H])(C([H])([H])[H])C([H])([H])[H])C([H])(C(=O)N([H])C2([H])c4c([H])c([H])c([H])c([H])c4C([H])([H])C([H])([H])C2([H])[H])C3([H])[H])c(F)c1[H]

>  <smiles>  (18) 
[H]C([H])=C([H])C([H])([H])N(C(=O)N1C([H])([H])C([H])([H])C([H])([H])C([H])(n2nc(-c3c([H])c([H])c(Oc4c([H])c([H])c(F)c([H])c4F)c([H])c3[H])c(C(=O)N([H])[H])c2N([H])[H])C1([H])[H])c1c([H])c([H])c(C([H])([H])Oc2c([H])c([H])c3c(c2[H])C([H])([H])N(C(=O)C([H])(N([H])C(=O)C([H])(N([H])C([H])([H])[H])C([H])([H])[H])C(C([H])([H])[H])(C([H])([H])[H])C([H])([H])[H])C([H])(C(=O)N([H])C2([H])c4c([H])c([H])c([H])c([H])c4C([H])([H])C([H])([H])C2([H])[H])C3([H])[H])c(F)c1[H]

$$$$
18:0:0
     RDKit          3D

 95103  0  0  1  0  0  0  0  0999 V2000
  -31.7010  -21.8440   20.0290 C   0  0  0  0  0  2  0  0  0  0  0  0
  -31.3160  -18.7640   22.3040 C   0  0  0  0  0  3  0  0  0  0  0  0
  -31.0360  -19.3920   19.5920 C   0  0  0  0  0  3  0  0  0  0  0  0
  -30.9470  -17.7410   21.4070 C   0  0  0  0  0  0  0  0  0  0  0  0
  -31.3800  -20.4180   20.5020 C   0  0  0  0  0  0  0  0  0  0  0  0
  -30.7730  -18.0770   20.0400 C   0  0  0  0  0  0  0  0  0  0  0  0
  -31.5090  -20.0880   21.8660 C   0  0  0  0  0  0  0  0  0  0  0  0
  -30.3570  -17.1650   19.1310 F   0  0  0  0  0  0  0  0  0  0  0  0
  -31.8450  -21.0350   22.7740 F   0  0  0  0  0  0  0  0  0  0  0  0
  -30.8280  -16.3270   21.9930 C   0  0  0  0  0  2  0  0  0  0  0  0
  -30.7370  -14.3990   20.4230 C   0  0  0  0  0  0  0  0  0  0  0  0
  -30.3750  -12.3330   19.1240 C   0  0  0  0  0  2  0  0  0  0  0  0
  -29.4120  -12.5800   17.9470 C   0  0  0  0  0  2  0  0  0  0  0  0
  -27.9390  -12.4740   18.3910 C   0  0  0  0  0  2  0  0  0  0  0  0
  -27.6380  -13.2730   19.6880 C   0  0  0  0  0  3  0  0  0  0  0  0
  -28.6950  -12.9590   20.7650 C   0  0  0  0  0  2  0  0  0  0  0  0
  -30.0170  -13.2710   20.1950 N   0  0  0  0  0  0  0  0  0  0  0  0
  -31.8460  -14.6050   19.9240 O   0  0  0  0  0  0  0  0  0  0  0  0
  -30.1450  -15.2910   21.2280 N   0  0  0  0  0  0  0  0  0  0  0  0
  -29.1850  -15.1050   21.4780 H   0  0  0  0  0  0  0  0  0  0  0  0
  -25.2430  -13.9050   20.3960 C   0  0  0  0  0  0  0  0  0  0  0  0
  -24.1700  -13.1430   20.7740 C   0  0  0  0  0  0  0  0  0  0  0  0
  -24.6230  -11.7890   20.7560 C   0  0  0  0  0  0  0  0  0  0  0  0
  -26.2840  -13.0160   20.1720 N   0  0  0  0  0  0  0  0  0  0  0  0
  -25.9110  -11.7380   20.4420 N   0  0  0  0  0  0  0  0  0  0  0  0
  -23.8900  -10.5330   20.9560 C   0  0  0  0  0  0  0  0  0  0  0  0
  -24.3170   -9.5710   21.8990 C   0  0  0  0  0  3  0  0  0  0  0  0
  -23.5870   -8.3770   22.0850 C   0  0  0  0  0  3  0  0  0  0  0  0
  -22.4150   -8.1380   21.3280 C   0  0  0  0  0  0  0  0  0  0  0  0
  -22.0050   -9.0900   20.3750 C   0  0  0  0  0  3  0  0  0  0  0  0
  -22.7370  -10.2760   20.1880 C   0  0  0  0  0  3  0  0  0  0  0  0
  -21.6510   -6.9990   21.4260 O   0  0  0  0  0  0  0  0  0  0  0  0
  -21.6000   -6.2670   22.5870 C   0  0  0  0  0  0  0  0  0  0  0  0
  -21.1720   -6.8330   23.8070 C   0  0  0  0  0  3  0  0  0  0  0  0
  -21.0620   -6.0250   24.9570 C   0  0  0  0  0  3  0  0  0  0  0  0
  -21.3720   -4.6540   24.8870 C   0  0  0  0  0  0  0  0  0  0  0  0
  -21.7920   -4.0860   23.6700 C   0  0  0  0  0  3  0  0  0  0  0  0
  -21.9020   -4.8910   22.5240 C   0  0  0  0  0  0  0  0  0  0  0  0
  -22.2840   -4.3340   21.3500 F   0  0  0  0  0  0  0  0  0  0  0  0
  -21.2620   -3.8770   25.9900 F   0  0  0  0  0  0  0  0  0  0  0  0
  -22.7750  -13.6330   21.0410 C   0  0  0  0  0  0  0  0  0  0  0  0
  -22.0410  -12.9530   21.9140 N   0  0  0  0  0  0  0  0  0  0  0  0
  -22.3450  -14.6560   20.5110 O   0  0  0  0  0  0  0  0  0  0  0  0
  -22.3960  -12.1270   22.3720 H   0  0  0  0  0  0  0  0  0  0  0  0
  -21.1050  -13.2670   22.1280 H   0  0  0  0  0  0  0  0  0  0  0  0
  -25.4210  -15.2740   20.2090 N   0  0  0  0  0  0  0  0  0  0  0  0
  -24.6680  -15.9440   20.3230 H   0  0  0  0  0  0  0  0  0  0  0  0
  -26.2770  -15.6940   19.8720 H   0  0  0  0  0  0  0  0  0  0  0  0
  -30.1850  -22.3640   18.1480 C   0  0  0  0  0  1  0  0  0  0  0  0
  -30.5360  -22.6630   19.5610 N   0  0  2  0  0  4  0  0  0  0  0  0
  -29.7500  -22.3620   20.1180 H   0  0  0  0  0  0  0  0  0  0  0  0
  -30.7160  -24.1290   19.8700 C   0  0  0  0  0  2  0  0  0  0  0  0
  -29.9940  -25.1850   18.9710 C   0  0  0  0  0  2  0  0  0  0  0  0
  -28.5370  -25.5770   19.3200 C   0  0  0  0  0  2  0  0  0  0  0  0
  -28.4410  -26.7640   20.1320 O   0  0  0  0  0  0  0  0  0  0  0  0
  -24.5830  -31.9340   23.2380 C   0  0  0  0  0  0  0  0  0  0  0  0
  -27.2440  -27.4660   20.1550 C   0  0  0  0  0  0  0  0  0  0  0  0
  -23.3810  -30.5210   21.6020 C   0  0  0  0  0  3  0  0  0  0  0  0
  -24.8350  -28.9710   20.1960 C   0  0  0  0  0  0  0  0  0  0  0  0
  -25.9110  -30.8670   21.4120 C   0  0  0  0  0  2  0  0  0  0  0  0
  -25.9950  -29.4910   20.7830 C   0  0  0  0  0  0  0  0  0  0  0  0
  -27.1980  -28.7450   20.7640 C   0  0  0  0  0  3  0  0  0  0  0  0
  -26.0500  -26.9560   19.5890 C   0  0  0  0  0  3  0  0  0  0  0  0
  -24.8580  -27.7020   19.5980 C   0  0  0  0  0  3  0  0  0  0  0  0
  -23.5900  -29.8230   20.2340 C   0  0  0  0  0  2  0  0  0  0  0  0
  -24.6420  -31.1250   22.1400 N   0  0  0  0  0  0  0  0  0  0  0  0
  -23.5000  -32.2100   23.7730 O   0  0  0  0  0  0  0  0  0  0  0  0
  -22.7240  -29.5100   22.5700 C   0  0  0  0  0  0  0  0  0  0  0  0
  -21.4000  -29.3300   22.4380 N   0  0  0  0  0  0  0  0  0  0  0  0
  -23.4040  -28.8880   23.3910 O   0  0  0  0  0  0  0  0  0  0  0  0
  -20.9140  -29.8780   21.7410 H   0  0  0  0  0  0  0  0  0  0  0  0
  -18.0200  -28.1380   22.9290 C   0  0  0  0  0  0  0  0  0  0  0  0
  -20.5780  -28.3950   23.2090 C   0  0  0  0  0  3  0  0  0  0  0  0
  -20.6820  -26.9600   22.6410 C   0  0  0  0  0  2  0  0  0  0  0  0
  -19.5830  -26.6320   21.6250 C   0  0  0  0  0  2  0  0  0  0  0  0
  -18.1990  -26.7850   22.2610 C   0  0  0  0  0  2  0  0  0  0  0  0
  -19.1390  -28.9000   23.3590 C   0  0  0  0  0  0  0  0  0  0  0  0
  -18.9190  -30.1660   23.9430 C   0  0  0  0  0  3  0  0  0  0  0  0
  -17.6150  -30.6760   24.0920 C   0  0  0  0  0  3  0  0  0  0  0  0
  -16.5120  -29.9070   23.6840 C   0  0  0  0  0  3  0  0  0  0  0  0
  -16.7140  -28.6400   23.1110 C   0  0  0  0  0  3  0  0  0  0  0  0
  -25.8690  -32.5660   23.8580 C   0  0  0  0  0  3  0  0  0  0  0  0
  -25.5630  -33.9660   24.1820 N   0  0  0  0  0  0  0  0  0  0  0  0
  -25.9040  -35.0140   23.4220 C   0  0  0  0  0  0  0  0  0  0  0  0
  -26.5770  -34.9050   22.3910 O   0  0  0  0  0  0  0  0  0  0  0  0
  -24.9720  -34.1270   24.9830 H   0  0  0  0  0  0  0  0  0  0  0  0
  -24.1840  -36.8090   23.0510 C   0  0  0  0  0  1  0  0  0  0  0  0
  -25.4190  -36.4040   23.8720 C   0  0  0  0  0  3  0  0  0  0  0  0
  -27.5470  -37.2800   24.7230 C   0  0  0  0  0  1  0  0  0  0  0  0
  -26.4560  -37.4540   23.7690 N   0  0  0  0  0  0  0  0  0  0  0  0
  -26.0530  -38.3770   23.9160 H   0  0  0  0  0  0  0  0  0  0  0  0
  -26.3910  -31.7990   25.1350 C   0  0  1  0  0  0  0  0  0  0  0  0
  -25.3000  -31.5640   26.2030 C   0  0  0  0  0  1  0  0  0  0  0  0
  -26.9740  -30.4220   24.7430 C   0  0  0  0  0  1  0  0  0  0  0  0
  -27.5440  -32.5970   25.7890 C   0  0  0  0  0  1  0  0  0  0  0  0
  1  5  1  0
  3  6  2  0
  3  5  1  0
  4 10  1  0
  4  2  2  0
  5  7  2  0
  6  4  1  0
  7  2  1  0
  7  9  1  0
  8  6  1  0
 11 19  1  0
 12 17  1  0
 13 14  1  0
 13 12  1  0
 15 14  1  0
 15 24  1  0
 15 16  1  0
 17 11  1  0
 17 16  1  0
 18 11  2  0
 19 20  1  0
 19 10  1  0
 21 22  2  0
 22 41  1  0
 23 22  1  0
 23 26  1  0
 24 21  1  0
 24 25  1  0
 25 23  2  0
 26 27  1  0
 27 28  2  0
 29 32  1  0
 29 28  1  0
 30 29  2  0
 31 30  1  0
 31 26  2  0
 32 33  1  0
 33 34  1  0
 34 35  2  0
 36 35  1  0
 36 40  1  0
 37 36  2  0
 38 33  2  0
 38 37  1  0
 39 38  1  0
 41 42  1  0
 42 45  1  0
 42 44  1  0
 43 41  2  0
 46 47  1  0
 46 21  1  0
 48 46  1  0
 49 50  1  0
 50 52  1  0
 50  1  1  0
 50 51  1  1
 53 54  1  0
 53 52  1  0
 54 55  1  0
 55 57  1  0
 56 67  2  0
 57 62  1  0
 58 66  1  0
 58 68  1  0
 59 65  1  0
 59 61  1  0
 60 66  1  0
 61 60  1  0
 62 61  2  0
 63 64  1  0
 63 57  2  0
 64 59  2  0
 65 58  1  0
 66 56  1  0
 68 70  2  0
 69 68  1  0
 71 69  1  0
 72 81  2  0
 72 77  1  0
 73 69  1  0
 73 77  1  0
 74 73  1  0
 75 76  1  0
 75 74  1  0
 76 72  1  0
 77 78  2  0
 78 79  1  0
 80 79  2  0
 81 80  1  0
 82 56  1  0
 82 83  1  0
 82 92  1  0
 83 86  1  0
 84 88  1  0
 84 83  1  0
 85 84  2  0
 88 87  1  0
 90 88  1  0
 90 91  1  0
 90 89  1  0
 92 95  1  1
 92 93  1  0
 94 92  1  0
M  ISO  4  11 100  19 100  54 101  55 101
M  END
>  <TORSDO>  (19) 
F 22

>  <SCORE>  (19) 
-13.464

>  <name>  (19) 
18

>  <ligand_id>  (19) 
18

>  <original_smiles>  (19) 
[H]c1c([H])c([H])c2c(c1[H])C([H])([H])C([H])([H])C([H])([H])C2([H])N([H])C(=O)C1([H])N(C(=O)C([H])(N([H])C(=O)C([H])(N([H])C([H])([H])[H])C([H])([H])[H])C(C([H])([H])[H])(C([H])([H])[H])C([H])([H])[H])C([H])([H])c2c([H])c(OC([H])([H])C([H])([H])C([H])([H])[N+]([H])(C([H])([H])[H])C([H])([H])c3c([H])c(F)c(C([H])([H])N([H])C(=O)N4C([H])([H])C([H])([H])C([H])([H])C([H])(n5nc(-c6c([H])c([H])c(Oc7c([H])c([H])c(F)c([H])c7F)c([H])c6[H])c(C(=O)N([H])[H])c5N([H])[H])C4([H])[H])c([H])c3F)c([H])c([H])c2C1([H])[H]

>  <smiles>  (19) 
[H]c1c([H])c([H])c2c(c1[H])C([H])([H])C([H])([H])C([H])([H])C2([H])N([H])C(=O)C1([H])N(C(=O)C([H])(N([H])C(=O)C([H])(N([H])C([H])([H])[H])C([H])([H])[H])C(C([H])([H])[H])(C([H])([H])[H])C([H])([H])[H])C([H])([H])c2c([H])c(OC([H])([H])C([H])([H])C([H])([H])[N+]([H])(C([H])([H])[H])C([H])([H])c3c([H])c(F)c(C([H])([H])N([H])C(=O)N4C([H])([H])C([H])([H])C([H])([H])C([H])(n5nc(-c6c([H])c([H])c(Oc7c([H])c([H])c(F)c([H])c7F)c([H])c6[H])c(C(=O)N([H])[H])c5N([H])[H])C4([H])[H])c([H])c3F)c([H])c([H])c2C1([H])[H]

$$$$
19:0:0
     RDKit          3D

 97105  0  0  1  0  0  0  0  0999 V2000
  -28.7160  -23.2130   20.4450 N   0  0  2  0  0  4  0  0  0  0  0  0
  -29.1390  -23.0990   19.5360 H   0  0  0  0  0  0  0  0  0  0  0  0
  -26.2930  -23.2450   21.3090 C   0  0  0  0  0  1  0  0  0  0  0  0
  -27.2730  -23.4200   20.1220 C   0  0  0  0  0  2  0  0  0  0  0  0
  -29.0600  -21.9160   21.1530 C   0  0  0  0  0  2  0  0  0  0  0  0
  -27.7710  -20.2080   19.6780 C   0  0  0  0  0  3  0  0  0  0  0  0
  -27.6350  -18.9560   19.0540 C   0  0  0  0  0  3  0  0  0  0  0  0
  -29.9410  -19.5370   20.5300 C   0  0  0  0  0  3  0  0  0  0  0  0
  -28.9380  -20.5510   20.4020 C   0  0  0  0  0  0  0  0  0  0  0  0
  -29.7870  -18.2410   19.9460 C   0  0  0  0  0  0  0  0  0  0  0  0
  -28.6390  -17.9850   19.1700 C   0  0  0  0  0  0  0  0  0  0  0  0
  -28.4820  -16.8030   18.5330 F   0  0  0  0  0  0  0  0  0  0  0  0
  -30.8590  -17.1380   20.1090 C   0  0  0  0  0  2  0  0  0  0  0  0
  -31.0150  -14.6540   20.1090 C   0  0  0  0  0  0  0  0  0  0  0  0
  -30.6550  -12.4790   18.9690 C   0  0  0  0  0  2  0  0  0  0  0  0
  -29.6810  -12.6290   17.7810 C   0  0  0  0  0  2  0  0  0  0  0  0
  -28.2150  -12.5060   18.2470 C   0  0  0  0  0  2  0  0  0  0  0  0
  -27.9120  -13.3610   19.5040 C   0  0  0  0  0  3  0  0  0  0  0  0
  -28.9920  -13.1330   20.5790 C   0  0  0  0  0  2  0  0  0  0  0  0
  -30.2940  -13.4900   19.9900 N   0  0  0  0  0  0  0  0  0  0  0  0
  -32.1190  -14.7560   19.5620 O   0  0  0  0  0  0  0  0  0  0  0  0
  -29.7090  -15.8700   21.8700 C   0  0  0  0  0  1  0  0  0  0  0  0
  -30.4050  -15.7910   20.5790 N   0  0  0  0  0  0  0  0  0  0  0  0
  -25.5540  -14.0180   20.2970 C   0  0  0  0  0  0  0  0  0  0  0  0
  -24.4820  -13.2670   20.6960 C   0  0  0  0  0  0  0  0  0  0  0  0
  -24.9150  -11.9060   20.6420 C   0  0  0  0  0  0  0  0  0  0  0  0
  -26.5710  -13.1150   20.0230 N   0  0  0  0  0  0  0  0  0  0  0  0
  -26.1910  -11.8390   20.2890 N   0  0  0  0  0  0  0  0  0  0  0  0
  -24.1740  -10.6580   20.8530 C   0  0  0  0  0  0  0  0  0  0  0  0
  -24.5860   -9.7120   21.8160 C   0  0  0  0  0  3  0  0  0  0  0  0
  -23.8460   -8.5260   22.0150 C   0  0  0  0  0  3  0  0  0  0  0  0
  -22.6810   -8.2790   21.2510 C   0  0  0  0  0  0  0  0  0  0  0  0
  -22.2890   -9.2140   20.2750 C   0  0  0  0  0  3  0  0  0  0  0  0
  -23.0300  -10.3910   20.0760 C   0  0  0  0  0  3  0  0  0  0  0  0
  -21.9140   -7.1440   21.3570 O   0  0  0  0  0  0  0  0  0  0  0  0
  -21.7910   -6.4640   22.5420 C   0  0  0  0  0  0  0  0  0  0  0  0
  -21.2990   -7.0860   23.7100 C   0  0  0  0  0  3  0  0  0  0  0  0
  -21.1240   -6.3340   24.8880 C   0  0  0  0  0  3  0  0  0  0  0  0
  -21.4290   -4.9590   24.8980 C   0  0  0  0  0  0  0  0  0  0  0  0
  -21.9090   -4.3370   23.7330 C   0  0  0  0  0  3  0  0  0  0  0  0
  -22.0880   -5.0860   22.5580 C   0  0  0  0  0  0  0  0  0  0  0  0
  -22.5300   -4.4750   21.4320 F   0  0  0  0  0  0  0  0  0  0  0  0
  -21.2530   -4.2350   26.0280 F   0  0  0  0  0  0  0  0  0  0  0  0
  -23.1020  -13.7670   21.0130 C   0  0  0  0  0  0  0  0  0  0  0  0
  -22.3940  -13.0900   21.9090 N   0  0  0  0  0  0  0  0  0  0  0  0
  -22.6590  -14.7920   20.4990 O   0  0  0  0  0  0  0  0  0  0  0  0
  -22.7630  -12.2610   22.3520 H   0  0  0  0  0  0  0  0  0  0  0  0
  -21.4680  -13.4070   22.1570 H   0  0  0  0  0  0  0  0  0  0  0  0
  -25.7470  -15.3860   20.1270 N   0  0  0  0  0  0  0  0  0  0  0  0
  -25.0230  -16.0700   20.3170 H   0  0  0  0  0  0  0  0  0  0  0  0
  -26.6160  -15.8030   19.8090 H   0  0  0  0  0  0  0  0  0  0  0  0
  -29.4380  -24.4370   20.9920 C   0  0  0  0  0  3  0  0  0  0  0  0
  -30.7060  -24.9170   18.7710 C   0  0  0  0  0  1  0  0  0  0  0  0
  -31.7350  -25.6270   20.9790 C   0  0  0  0  0  1  0  0  0  0  0  0
  -30.8120  -24.6150   20.2780 C   0  0  0  0  0  3  0  0  0  0  0  0
  -28.6290  -25.7840   21.2450 C   0  0  0  0  0  2  0  0  0  0  0  0
  -28.4710  -26.7000   20.1420 O   0  0  0  0  0  0  0  0  0  0  0  0
  -24.4750  -31.8150   23.2050 C   0  0  0  0  0  0  0  0  0  0  0  0
  -27.3110  -27.4530   20.1580 C   0  0  0  0  0  0  0  0  0  0  0  0
  -23.3470  -30.3950   21.5220 C   0  0  0  0  0  3  0  0  0  0  0  0
  -24.8790  -28.9090   20.1230 C   0  0  0  0  0  0  0  0  0  0  0  0
  -25.8670  -30.8180   21.3910 C   0  0  0  0  0  2  0  0  0  0  0  0
  -26.0100  -29.4510   20.7500 C   0  0  0  0  0  0  0  0  0  0  0  0
  -27.2290  -28.7280   20.7730 C   0  0  0  0  0  3  0  0  0  0  0  0
  -26.1690  -26.9440   19.5070 C   0  0  0  0  0  3  0  0  0  0  0  0
  -24.9540  -27.6530   19.5000 C   0  0  0  0  0  3  0  0  0  0  0  0
  -23.6110  -29.7350   20.1430 C   0  0  0  0  0  2  0  0  0  0  0  0
  -24.5790  -31.0240   22.0980 N   0  0  0  0  0  0  0  0  0  0  0  0
  -23.3760  -32.0520   23.7220 O   0  0  0  0  0  0  0  0  0  0  0  0
  -22.7000  -29.3490   22.4590 C   0  0  0  0  0  0  0  0  0  0  0  0
  -21.3840  -29.1340   22.3000 N   0  0  0  0  0  0  0  0  0  0  0  0
  -23.3810  -28.7350   23.2850 O   0  0  0  0  0  0  0  0  0  0  0  0
  -20.8940  -29.6830   21.6090 H   0  0  0  0  0  0  0  0  0  0  0  0
  -18.0330  -27.8390   22.7070 C   0  0  0  0  0  0  0  0  0  0  0  0
  -20.5760  -28.1670   23.0460 C   0  0  0  0  0  3  0  0  0  0  0  0
  -20.7330  -26.7430   22.4630 C   0  0  0  0  0  2  0  0  0  0  0  0
  -19.6660  -26.3970   21.4190 C   0  0  0  0  0  2  0  0  0  0  0  0
  -18.2650  -26.4990   22.0290 C   0  0  0  0  0  2  0  0  0  0  0  0
  -19.1200  -28.6290   23.1700 C   0  0  0  0  0  0  0  0  0  0  0  0
  -18.8500  -29.8810   23.7650 C   0  0  0  0  0  3  0  0  0  0  0  0
  -17.5280  -30.3450   23.8990 C   0  0  0  0  0  3  0  0  0  0  0  0
  -16.4560  -29.5520   23.4530 C   0  0  0  0  0  3  0  0  0  0  0  0
  -16.7110  -28.3010   22.8640 C   0  0  0  0  0  3  0  0  0  0  0  0
  -25.7290  -32.4740   23.8580 C   0  0  0  0  0  3  0  0  0  0  0  0
  -25.3840  -33.8650   24.1750 N   0  0  0  0  0  0  0  0  0  0  0  0
  -25.7090  -34.9220   23.4180 C   0  0  0  0  0  0  0  0  0  0  0  0
  -26.4010  -34.8280   22.4000 O   0  0  0  0  0  0  0  0  0  0  0  0
  -24.7720  -34.0120   24.9640 H   0  0  0  0  0  0  0  0  0  0  0  0
  -23.9440  -36.6680   23.0210 C   0  0  0  0  0  1  0  0  0  0  0  0
  -25.1800  -36.3010   23.8570 C   0  0  0  0  0  3  0  0  0  0  0  0
  -27.2760  -37.2420   24.7200 C   0  0  0  0  0  1  0  0  0  0  0  0
  -26.1890  -37.3770   23.7550 N   0  0  0  0  0  0  0  0  0  0  0  0
  -25.7580  -38.2880   23.8890 H   0  0  0  0  0  0  0  0  0  0  0  0
  -26.2320  -31.7140   25.1460 C   0  0  1  0  0  0  0  0  0  0  0  0
  -25.1180  -31.4470   26.1850 C   0  0  0  0  0  1  0  0  0  0  0  0
  -26.8570  -30.3530   24.7640 C   0  0  0  0  0  1  0  0  0  0  0  0
  -27.3470  -32.5350   25.8360 C   0  0  0  0  0  1  0  0  0  0  0  0
  1 52  1  0
  1  5  1  0
  1  2  1  6
  4  1  1  0
  4  3  1  0
  6  9  1  0
  7 11  1  0
  7  6  2  0
  9  8  2  0
  9  5  1  0
 10 13  1  0
 10  8  1  0
 11 10  2  0
 12 11  1  0
 13 23  1  0
 14 23  1  0
 15 20  1  0
 16 17  1  0
 16 15  1  0
 18 17  1  0
 18 27  1  0
 18 19  1  0
 20 14  1  0
 20 19  1  0
 21 14  2  0
 23 22  1  0
 24 25  2  0
 25 44  1  0
 26 25  1  0
 26 29  1  0
 27 28  1  0
 27 24  1  0
 28 26  2  0
 29 30  1  0
 30 31  2  0
 32 35  1  0
 32 31  1  0
 33 32  2  0
 34 33  1  0
 34 29  2  0
 35 36  1  0
 36 41  2  0
 36 37  1  0
 37 38  2  0
 38 39  1  0
 39 43  1  0
 40 39  2  0
 41 40  1  0
 42 41  1  0
 44 45  1  0
 45 48  1  0
 45 47  1  0
 46 44  2  0
 49 24  1  0
 49 50  1  0
 51 49  1  0
 52 56  1  0
 53 55  1  0
 55 54  1  0
 55 52  1  0
 57 59  1  0
 57 56  1  0
 58 69  2  0
 59 64  1  0
 60 68  1  0
 60 70  1  0
 61 67  1  0
 61 63  1  0
 62 68  1  0
 63 64  2  0
 63 62  1  0
 65 59  2  0
 66 65  1  0
 66 61  2  0
 67 60  1  0
 68 58  1  0
 70 72  2  0
 71 70  1  0
 73 71  1  0
 74 83  2  0
 74 79  1  0
 75 71  1  0
 75 79  1  0
 76 75  1  0
 77 78  1  0
 77 76  1  0
 78 74  1  0
 79 80  2  0
 80 81  1  0
 82 81  2  0
 83 82  1  0
 84 58  1  0
 84 85  1  0
 84 94  1  0
 85 88  1  0
 86 90  1  0
 86 85  1  0
 87 86  2  0
 90 89  1  0
 92 90  1  0
 92 93  1  0
 92 91  1  0
 94 97  1  1
 94 95  1  0
 96 94  1  0
M  ISO  4  14 100  23 100  56 101  57 101
M  END
>  <TORSDO>  (20) 
F 23

>  <SCORE>  (20) 
-12.721

>  <name>  (20) 
19

>  <ligand_id>  (20) 
19

>  <original_smiles>  (20) 
[H]c1c([H])c([H])c2c(c1[H])C([H])([H])C([H])([H])C([H])([H])C2([H])N([H])C(=O)C1([H])N(C(=O)C([H])(N([H])C(=O)C([H])(N([H])C([H])([H])[H])C([H])([H])[H])C(C([H])([H])[H])(C([H])([H])[H])C([H])([H])[H])C([H])([H])c2c([H])c(OC([H])([H])C([H])(C([H])(C([H])([H])[H])C([H])([H])[H])[N+]([H])(C([H])([H])c3c([H])c([H])c(F)c(C([H])([H])N(C(=O)N4C([H])([H])C([H])([H])C([H])([H])C([H])(n5nc(-c6c([H])c([H])c(Oc7c([H])c([H])c(F)c([H])c7F)c([H])c6[H])c(C(=O)N([H])[H])c5N([H])[H])C4([H])[H])C([H])([H])[H])c3[H])C([H])([H])C([H])([H])[H])c([H])c([H])c2C1([H])[H]

>  <smiles>  (20) 
[H]c1c([H])c([H])c2c(c1[H])C([H])([H])C([H])([H])C([H])([H])C2([H])N([H])C(=O)C1([H])N(C(=O)C([H])(N([H])C(=O)C([H])(N([H])C([H])([H])[H])C([H])([H])[H])C(C([H])([H])[H])(C([H])([H])[H])C([H])([H])[H])C([H])([H])c2c([H])c(OC([H])([H])C([H])(C([H])(C([H])([H])[H])C([H])([H])[H])[N+]([H])(C([H])([H])c3c([H])c([H])c(F)c(C([H])([H])N(C(=O)N4C([H])([H])C([H])([H])C([H])([H])C([H])(n5nc(-c6c([H])c([H])c(Oc7c([H])c([H])c(F)c([H])c7F)c([H])c6[H])c(C(=O)N([H])[H])c5N([H])[H])C4([H])[H])C([H])([H])[H])c3[H])C([H])([H])C([H])([H])[H])c([H])c([H])c2C1([H])[H]

$$$$
20:0:0
     RDKit          3D

100108  0  0  1  0  0  0  0  0999 V2000
  -30.7020  -17.9170   18.9170 C   0  0  0  0  0  3  0  0  0  0  0  0
  -30.6310  -18.9910   18.0180 C   0  0  0  0  0  3  0  0  0  0  0  0
  -30.8160  -18.1510   20.3000 C   0  0  0  0  0  0  0  0  0  0  0  0
  -30.7340  -20.6110   19.8570 C   0  0  0  0  0  0  0  0  0  0  0  0
  -30.6960  -20.3320   18.4560 C   0  0  0  0  0  0  0  0  0  0  0  0
  -30.7950  -19.5020   20.7610 C   0  0  0  0  0  0  0  0  0  0  0  0
  -30.8850  -19.7410   22.0920 F   0  0  0  0  0  0  0  0  0  0  0  0
  -31.0230  -16.9450   21.2530 C   0  0  0  0  0  2  0  0  0  0  0  0
  -30.7590  -14.6000   20.3610 C   0  0  0  0  0  0  0  0  0  0  0  0
  -30.3850  -12.5290   19.0420 C   0  0  0  0  0  2  0  0  0  0  0  0
  -29.3920  -12.7930   17.8900 C   0  0  0  0  0  2  0  0  0  0  0  0
  -27.9390  -12.5990   18.3630 C   0  0  0  0  0  2  0  0  0  0  0  0
  -27.6540  -13.3220   19.7030 C   0  0  0  0  0  3  0  0  0  0  0  0
  -28.7640  -13.0090   20.7380 C   0  0  0  0  0  2  0  0  0  0  0  0
  -30.0370  -13.4460   20.1500 N   0  0  0  0  0  0  0  0  0  0  0  0
  -31.9040  -14.6800   19.9060 O   0  0  0  0  0  0  0  0  0  0  0  0
  -28.7910  -16.0620   21.1600 C   0  0  0  0  0  1  0  0  0  0  0  0
  -30.2110  -15.7180   20.9700 N   0  0  0  0  0  0  0  0  0  0  0  0
  -25.2710  -13.9060   20.4690 C   0  0  0  0  0  0  0  0  0  0  0  0
  -24.2200  -13.1180   20.8550 C   0  0  0  0  0  0  0  0  0  0  0  0
  -24.6980  -11.7730   20.8010 C   0  0  0  0  0  0  0  0  0  0  0  0
  -26.3210  -13.0360   20.2140 N   0  0  0  0  0  0  0  0  0  0  0  0
  -25.9830  -11.7490   20.4680 N   0  0  0  0  0  0  0  0  0  0  0  0
  -23.9940  -10.5020   20.9940 C   0  0  0  0  0  0  0  0  0  0  0  0
  -24.4320   -9.5520   21.9410 C   0  0  0  0  0  3  0  0  0  0  0  0
  -23.7280   -8.3420   22.1210 C   0  0  0  0  0  3  0  0  0  0  0  0
  -22.5720   -8.0750   21.3500 C   0  0  0  0  0  0  0  0  0  0  0  0
  -22.1520   -9.0140   20.3910 C   0  0  0  0  0  3  0  0  0  0  0  0
  -22.8570  -10.2150   20.2110 C   0  0  0  0  0  3  0  0  0  0  0  0
  -21.8400   -6.9160   21.4380 O   0  0  0  0  0  0  0  0  0  0  0  0
  -21.7660   -6.1970   22.6040 C   0  0  0  0  0  0  0  0  0  0  0  0
  -21.2710   -6.7650   23.7990 C   0  0  0  0  0  3  0  0  0  0  0  0
  -21.1470   -5.9710   24.9570 C   0  0  0  0  0  3  0  0  0  0  0  0
  -21.5100   -4.6110   24.9200 C   0  0  0  0  0  0  0  0  0  0  0  0
  -21.9990   -4.0440   23.7300 C   0  0  0  0  0  3  0  0  0  0  0  0
  -22.1240   -4.8340   22.5750 C   0  0  0  0  0  0  0  0  0  0  0  0
  -22.5750   -4.2780   21.4250 F   0  0  0  0  0  0  0  0  0  0  0  0
  -21.3840   -3.8460   26.0290 F   0  0  0  0  0  0  0  0  0  0  0  0
  -22.8240  -13.5760   21.1610 C   0  0  0  0  0  0  0  0  0  0  0  0
  -22.1200  -12.8560   22.0270 N   0  0  0  0  0  0  0  0  0  0  0  0
  -22.3660  -14.6050   20.6670 O   0  0  0  0  0  0  0  0  0  0  0  0
  -22.5030  -12.0230   22.4470 H   0  0  0  0  0  0  0  0  0  0  0  0
  -21.1840  -13.1420   22.2740 H   0  0  0  0  0  0  0  0  0  0  0  0
  -25.4100  -15.2790   20.2970 N   0  0  0  0  0  0  0  0  0  0  0  0
  -24.6340  -15.9190   20.4350 H   0  0  0  0  0  0  0  0  0  0  0  0
  -26.2480  -15.7390   19.9680 H   0  0  0  0  0  0  0  0  0  0  0  0
  -30.8900  -22.0590   20.3940 C   0  0  0  0  0  2  0  0  0  0  0  0
  -29.6370  -22.8700   20.5060 N   0  0  0  0  0  4  0  0  0  0  0  0
  -29.1290  -22.5510   21.3180 H   0  0  0  0  0  0  0  0  0  0  0  0
  -29.0760  -22.6550   19.6990 H   0  0  0  0  0  0  0  0  0  0  0  0
  -29.8110  -24.3650   20.5900 C   0  0  0  0  0  2  0  0  0  0  0  0
  -28.5090  -25.1720   20.2730 C   0  0  0  0  0  2  0  0  0  0  0  0
  -28.5970  -26.6080   20.4800 O   0  0  0  0  0  0  0  0  0  0  0  0
  -24.6880  -31.9190   23.2740 C   0  0  0  0  0  0  0  0  0  0  0  0
  -27.4200  -27.3500   20.4080 C   0  0  0  0  0  0  0  0  0  0  0  0
  -23.5260  -30.4620   21.6520 C   0  0  0  0  0  3  0  0  0  0  0  0
  -25.0160  -28.8780   20.3170 C   0  0  0  0  0  0  0  0  0  0  0  0
  -26.0600  -30.8070   21.5100 C   0  0  0  0  0  2  0  0  0  0  0  0
  -26.1640  -29.4140   20.9130 C   0  0  0  0  0  0  0  0  0  0  0  0
  -27.3650  -28.6620   20.9510 C   0  0  0  0  0  3  0  0  0  0  0  0
  -26.2440  -26.8390   19.8040 C   0  0  0  0  0  3  0  0  0  0  0  0
  -25.0540  -27.5900   19.7600 C   0  0  0  0  0  3  0  0  0  0  0  0
  -23.7710  -29.7380   20.3030 C   0  0  0  0  0  2  0  0  0  0  0  0
  -24.7750  -31.0810   22.2010 N   0  0  0  0  0  0  0  0  0  0  0  0
  -23.5940  -32.2070   23.7790 O   0  0  0  0  0  0  0  0  0  0  0  0
  -22.8510  -29.4730   22.6310 C   0  0  0  0  0  0  0  0  0  0  0  0
  -21.5370  -29.2560   22.4530 N   0  0  0  0  0  0  0  0  0  0  0  0
  -23.5080  -28.8990   23.5030 O   0  0  0  0  0  0  0  0  0  0  0  0
  -21.0680  -29.7710   21.7210 H   0  0  0  0  0  0  0  0  0  0  0  0
  -18.1640  -28.0230   22.8700 C   0  0  0  0  0  0  0  0  0  0  0  0
  -20.7040  -28.3370   23.2300 C   0  0  0  0  0  3  0  0  0  0  0  0
  -20.8520  -26.8860   22.7180 C   0  0  0  0  0  2  0  0  0  0  0  0
  -19.7960  -26.5020   21.6770 C   0  0  0  0  0  2  0  0  0  0  0  0
  -18.3880  -26.6500   22.2610 C   0  0  0  0  0  2  0  0  0  0  0  0
  -19.2530  -28.8210   23.3120 C   0  0  0  0  0  0  0  0  0  0  0  0
  -18.9920  -30.1050   23.8390 C   0  0  0  0  0  3  0  0  0  0  0  0
  -17.6740  -30.5900   23.9320 C   0  0  0  0  0  3  0  0  0  0  0  0
  -16.5990  -29.7900   23.5080 C   0  0  0  0  0  3  0  0  0  0  0  0
  -16.8440  -28.5080   22.9850 C   0  0  0  0  0  3  0  0  0  0  0  0
  -25.9570  -32.5740   23.9040 C   0  0  0  0  0  3  0  0  0  0  0  0
  -26.4730  -31.8190   25.1910 C   0  0  1  0  0  0  0  0  0  0  0  0
  -25.3680  -31.5500   26.2390 C   0  0  0  0  0  1  0  0  0  0  0  0
  -27.1030  -30.4590   24.8100 C   0  0  0  0  0  1  0  0  0  0  0  0
  -27.5880  -32.6470   25.8720 C   0  0  0  0  0  1  0  0  0  0  0  0
  -25.6250  -33.9700   24.2200 N   0  0  0  0  0  0  0  0  0  0  0  0
  -25.9380  -35.0200   23.4500 C   0  0  0  0  0  0  0  0  0  0  0  0
  -26.6110  -34.9170   22.4200 O   0  0  0  0  0  0  0  0  0  0  0  0
  -25.0280  -34.1220   25.0210 H   0  0  0  0  0  0  0  0  0  0  0  0
  -24.1810  -36.7790   23.0730 C   0  0  0  0  0  1  0  0  0  0  0  0
  -25.4260  -36.4030   23.8920 C   0  0  0  0  0  3  0  0  0  0  0  0
  -27.5390  -37.3370   24.7270 C   0  0  0  0  0  1  0  0  0  0  0  0
  -26.4420  -37.4740   23.7720 N   0  0  0  0  0  0  0  0  0  0  0  0
  -26.0180  -38.3890   23.9040 H   0  0  0  0  0  0  0  0  0  0  0  0
  -30.8320  -21.3110   17.4510 N   0  0  0  0  0  0  0  0  0  0  0  0
  -31.8100  -21.0110   16.3990 C   0  0  0  0  0  2  0  0  0  0  0  0
  -34.1240  -21.4500   15.4620 C   0  0  0  0  0  1  0  0  0  0  0  0
  -33.0810  -21.8620   16.5090 C   0  0  0  0  0  2  0  0  0  0  0  0
  -30.1030  -22.5770   17.5100 C   0  0  0  0  0  2  0  0  0  0  0  0
  -29.2100  -24.5910   16.2330 C   0  0  0  0  0  1  0  0  0  0  0  0
  -29.8060  -23.1820   16.1290 C   0  0  0  0  0  2  0  0  0  0  0  0
  1  3  1  0
  2  5  1  0
  2  1  2  0
  3  6  2  0
  3  8  1  0
  4 47  1  0
  4  6  1  0
  5  4  2  0
  6  7  1  0
  9 18  1  0
 10 15  1  0
 11 12  1  0
 11 10  1  0
 13 12  1  0
 13 22  1  0
 13 14  1  0
 15  9  1  0
 15 14  1  0
 16  9  2  0
 18 17  1  0
 18  8  1  0
 19 20  2  0
 20 39  1  0
 21 20  1  0
 21 24  1  0
 22 23  1  0
 22 19  1  0
 23 21  2  0
 24 25  1  0
 25 26  2  0
 27 30  1  0
 27 26  1  0
 28 27  2  0
 29 28  1  0
 29 24  2  0
 30 31  1  0
 31 32  1  0
 32 33  2  0
 34 33  1  0
 34 38  1  0
 35 34  2  0
 36 31  2  0
 36 35  1  0
 37 36  1  0
 39 40  1  0
 40 43  1  0
 40 42  1  0
 41 39  2  0
 44 45  1  0
 44 19  1  0
 46 44  1  0
 47 48  1  0
 48 51  1  0
 48 49  1  0
 50 48  1  0
 52 53  1  0
 52 51  1  0
 54 65  2  0
 55 53  1  0
 55 60  1  0
 56 64  1  0
 56 66  1  0
 57 59  1  0
 58 64  1  0
 59 60  2  0
 59 58  1  0
 61 55  2  0
 62 61  1  0
 62 57  2  0
 63 57  1  0
 63 56  1  0
 64 54  1  0
 66 68  2  0
 67 66  1  0
 69 67  1  0
 70 79  2  0
 70 75  1  0
 71 67  1  0
 71 75  1  0
 72 71  1  0
 73 74  1  0
 73 72  1  0
 74 70  1  0
 75 76  2  0
 76 77  1  0
 78 77  2  0
 79 78  1  0
 80 54  1  0
 80 85  1  0
 80 81  1  0
 81 84  1  1
 81 82  1  0
 83 81  1  0
 85 88  1  0
 86 90  1  0
 86 85  1  0
 87 86  2  0
 90 89  1  0
 92 90  1  0
 92 93  1  0
 92 91  1  0
 94 98  1  0
 94  5  1  0
 95 97  1  0
 95 94  1  0
 96 97  1  0
100 99  1  0
100 98  1  0
M  ISO  4   9 100  18 100  52 101  53 101
M  END
>  <TORSDO>  (21) 
F 26

>  <SCORE>  (21) 
-11.994

>  <name>  (21) 
20

>  <ligand_id>  (21) 
20

>  <original_smiles>  (21) 
[H]c1c([H])c([H])c2c(c1[H])C([H])([H])C([H])([H])C([H])([H])C2([H])N([H])C(=O)C1([H])N(C(=O)C([H])(N([H])C(=O)C([H])(N([H])C([H])([H])[H])C([H])([H])[H])C(C([H])([H])[H])(C([H])([H])[H])C([H])([H])[H])C([H])([H])c2c([H])c(OC([H])([H])C([H])([H])[N+]([H])([H])C([H])([H])c3c(F)c(C([H])([H])N(C(=O)N4C([H])([H])C([H])([H])C([H])([H])C([H])(n5nc(-c6c([H])c([H])c(Oc7c([H])c([H])c(F)c([H])c7F)c([H])c6[H])c(C(=O)N([H])[H])c5N([H])[H])C4([H])[H])C([H])([H])[H])c([H])c([H])c3N(C([H])([H])C([H])([H])C([H])([H])[H])C([H])([H])C([H])([H])C([H])([H])[H])c([H])c([H])c2C1([H])[H]

>  <smiles>  (21) 
[H]c1c([H])c([H])c2c(c1[H])C([H])([H])C([H])([H])C([H])([H])C2([H])N([H])C(=O)C1([H])N(C(=O)C([H])(N([H])C(=O)C([H])(N([H])C([H])([H])[H])C([H])([H])[H])C(C([H])([H])[H])(C([H])([H])[H])C([H])([H])[H])C([H])([H])c2c([H])c(OC([H])([H])C([H])([H])[N+]([H])([H])C([H])([H])c3c(F)c(C([H])([H])N(C(=O)N4C([H])([H])C([H])([H])C([H])([H])C([H])(n5nc(-c6c([H])c([H])c(Oc7c([H])c([H])c(F)c([H])c7F)c([H])c6[H])c(C(=O)N([H])[H])c5N([H])[H])C4([H])[H])C([H])([H])[H])c([H])c([H])c3N(C([H])([H])C([H])([H])C([H])([H])[H])C([H])([H])C([H])([H])C([H])([H])[H])c([H])c([H])c2C1([H])[H]

$$$$
21:0:0
     RDKit          3D

103106  0  0  1  0  0  0  0  0999 V2000
  -25.3730  -25.9950   22.0000 C   0  0  0  0  0  2  0  0  0  0  0  0
  -23.7770  -26.1460   22.9250 C   0  0  0  0  0  1  0  0  0  0  0  0
  -22.9980  -26.1840   19.4030 C   0  0  0  0  0  1  0  0  0  0  0  0
  -25.5240  -25.9340   20.2180 C   0  0  0  0  0  1  0  0  0  0  0  0
  -21.7910  -26.2760   21.7550 C   0  0  0  0  0  2  0  0  0  0  0  0
  -21.7110  -26.2480   20.1350 C   0  0  0  0  0  3  0  0  0  0  0  0
  -27.8820  -25.7130   18.6530 C   0  0  0  0  0  2  0  0  0  0  0  0
  -31.8980  -24.8680   15.9960 C   0  0  0  0  0  2  0  0  0  0  0  0
  -34.2120  -24.1470   13.7500 C   0  0  0  0  0  2  0  0  0  0  0  0
  -34.6100  -23.0760   12.5420 C   0  0  0  0  0  2  0  0  0  0  0  0
  -35.2420  -21.7650   13.0030 C   0  0  0  0  0  2  0  0  0  0  0  0
  -34.6060  -21.5430   14.3700 C   0  0  0  0  0  3  0  0  0  0  0  0
  -34.4110  -22.8280   15.3920 C   0  0  0  0  0  2  0  0  0  0  0  0
  -33.1920  -23.9040   15.1360 N   0  0  0  0  0  0  0  0  0  0  0  0
  -32.6150  -25.8000   15.3580 O   0  0  0  0  0  1  0  0  0  0  0  0
  -29.9040  -26.4820   16.8070 C   0  0  0  0  0  1  0  0  0  0  0  0
  -30.0670  -25.0730   17.1960 N   0  0  0  0  0  1  0  0  0  0  0  0
  -34.0960  -19.6180   15.8520 C   0  0  0  0  0  0  0  0  0  0  0  0
  -34.6350  -18.4050   16.1410 C   0  0  0  0  0  0  0  0  0  0  0  0
  -35.8350  -18.2930   15.3680 C   0  0  0  0  0  0  0  0  0  0  0  0
  -34.9530  -20.2460   14.9860 N   0  0  0  0  0  0  0  0  0  0  0  0
  -36.0390  -19.4430   14.6890 N   0  0  0  0  0  0  0  0  0  0  0  0
  -36.7330  -17.1180   15.2370 C   0  0  0  0  0  0  0  0  0  0  0  0
  -38.1190  -17.1920   15.5100 C   0  0  0  0  0  3  0  0  0  0  0  0
  -38.9370  -16.0400   15.4290 C   0  0  0  0  0  3  0  0  0  0  0  0
  -38.3790  -14.7870   15.0810 C   0  0  0  0  0  0  0  0  0  0  0  0
  -37.0040  -14.7160   14.7990 C   0  0  0  0  0  3  0  0  0  0  0  0
  -36.1920  -15.8640   14.8720 C   0  0  0  0  0  3  0  0  0  0  0  0
  -39.1040  -13.6230   14.9470 O   0  0  0  0  0  0  0  0  0  0  0  0
  -40.2720  -13.4060   15.6360 C   0  0  0  0  0  0  0  0  0  0  0  0
  -40.3210  -13.4650   17.0460 C   0  0  0  0  0  3  0  0  0  0  0  0
  -41.5200  -13.1690   17.7240 C   0  0  0  0  0  3  0  0  0  0  0  0
  -42.6710  -12.8080   16.9990 C   0  0  0  0  0  0  0  0  0  0  0  0
  -42.6250  -12.7440   15.5950 C   0  0  0  0  0  3  0  0  0  0  0  0
  -41.4290  -13.0370   14.9160 C   0  0  0  0  0  0  0  0  0  0  0  0
  -41.3870  -12.9470   13.5640 F   0  0  0  0  0  0  0  0  0  0  0  0
  -43.8220  -12.5220   17.6510 F   0  0  0  0  0  0  0  0  0  0  0  0
  -33.9810  -17.3810   17.0140 C   0  0  0  0  0  0  0  0  0  0  0  0
  -34.7640  -16.5900   17.7350 N   0  0  0  0  0  0  0  0  0  0  0  0
  -32.7550  -17.3290   17.1090 O   0  0  0  0  0  0  0  0  0  0  0  0
  -35.7690  -16.6550   17.6750 H   0  0  0  0  0  0  0  0  0  0  0  0
  -34.3460  -15.9080   18.3540 H   0  0  0  0  0  0  0  0  0  0  0  0
  -32.9120  -20.2450   16.2290 N   0  0  0  0  0  0  0  0  0  0  0  0
  -32.2010  -19.8090   16.8040 H   0  0  0  0  0  0  0  0  0  0  0  0
  -32.6230  -21.1410   15.8580 H   0  0  0  0  0  0  0  0  0  0  0  0
  -20.1850  -26.2950   22.0930 C   0  0  0  0  0  2  0  0  0  0  0  0
  -17.3170  -28.4650   22.3530 C   0  0  0  0  0  2  0  0  0  0  0  0
  -16.9160  -27.0060   22.1780 C   0  0  0  0  0  2  0  0  0  0  0  0
  -18.8490  -28.4830   22.1370 C   0  0  0  0  0  2  0  0  0  0  0  0
  -17.9130  -26.5410   21.1220 C   0  0  0  0  0  2  0  0  0  0  0  0
  -19.2060  -27.2160   21.4330 N   0  0  2  0  0  4  0  0  0  0  0  0
  -19.6180  -27.4850   20.5580 H   0  0  0  0  0  0  0  0  0  0  0  0
  -20.6090  -25.9650   19.0190 C   0  0  0  0  0  2  0  0  0  0  0  0
  -20.7360  -26.1430   17.4530 N   0  0  2  0  0  4  0  0  0  0  0  0
  -20.2590  -27.0180   17.2870 H   0  0  0  0  0  0  0  0  0  0  0  0
  -19.2930  -23.0710   15.7410 C   0  0  0  0  0  2  0  0  0  0  0  0
  -18.4290  -24.2060   15.1470 C   0  0  0  0  0  2  0  0  0  0  0  0
  -20.4690  -23.7600   16.4430 C   0  0  0  0  0  2  0  0  0  0  0  0
  -19.0820  -25.5240   15.5880 C   0  0  0  0  0  2  0  0  0  0  0  0
  -19.8330  -25.1100   16.8500 C   0  0  0  0  0  3  0  0  0  0  0  0
  -22.0130  -26.3050   16.5630 C   0  0  0  0  0  2  0  0  0  0  0  0
  -22.8780  -27.6860   16.5110 C   0  0  0  0  0  2  0  0  0  0  0  0
  -24.3510  -27.9010   16.7120 O   0  0  0  0  0  0  0  0  0  0  0  0
  -29.5980  -26.9990   22.8770 C   0  0  0  0  0  0  0  0  0  0  0  0
  -25.3190  -26.9920   16.4950 C   0  0  0  0  0  3  0  0  0  0  0  0
  -28.5840  -24.7000   21.8490 C   0  0  0  0  0  2  0  0  0  0  0  0
  -26.7860  -24.4800   18.8420 C   0  0  0  0  0  2  0  0  0  0  0  0
  -28.1890  -27.6120   20.4330 C   0  0  0  0  0  1  0  0  0  0  0  0
  -27.2480  -26.9290   18.7750 C   0  0  0  0  0  2  0  0  0  0  0  0
  -26.5050  -27.7520   17.5700 C   0  0  0  0  0  2  0  0  0  0  0  0
  -24.8920  -25.1420   16.4880 C   0  0  0  0  0  3  0  0  0  0  0  0
  -25.6660  -23.9480   17.6580 C   0  0  0  0  0  3  0  0  0  0  0  0
  -27.4730  -23.6240   20.5250 C   0  0  0  0  0 15  0  0  0  0  0  0
  -28.8390  -26.5090   21.7850 N   0  0  0  0  0  0  0  0  0  0  0  0
  -30.1490  -26.2510   23.7100 O   0  0  0  0  0  0  0  0  0  0  0  0
  -29.9240  -24.0690   21.7920 C   0  0  0  0  0  0  0  0  0  0  0  0
  -29.9550  -22.7580   21.8490 N   0  0  0  0  0  0  0  0  0  0  0  0
  -30.9090  -24.7540   21.5350 O   0  0  0  0  0  0  0  0  0  0  0  0
  -29.1190  -22.2320   22.0740 H   0  0  0  0  0  0  0  0  0  0  0  0
  -30.9410  -19.5580   20.7970 C   0  0  0  0  0  0  0  0  0  0  0  0
  -31.0430  -22.0580   21.2180 C   0  0  0  0  0  3  0  0  0  0  0  0
  -30.9510  -22.2500   19.6910 C   0  0  0  0  0  2  0  0  0  0  0  0
  -30.0940  -21.1790   19.0210 C   0  0  0  0  0  2  0  0  0  0  0  0
  -30.6700  -19.7900   19.3170 C   0  0  0  0  0  2  0  0  0  0  0  0
  -31.0800  -20.6340   21.6980 C   0  0  0  0  0  0  0  0  0  0  0  0
  -31.2610  -20.3940   23.0760 C   0  0  0  0  0  3  0  0  0  0  0  0
  -31.3340  -19.0770   23.5570 C   0  0  0  0  0  3  0  0  0  0  0  0
  -31.2330  -18.0010   22.6540 C   0  0  0  0  0  3  0  0  0  0  0  0
  -31.0420  -18.2420   21.2810 C   0  0  0  0  0  3  0  0  0  0  0  0
  -29.8570  -28.5290   23.1560 C   0  0  0  0  0  3  0  0  0  0  0  0
  -30.0580  -28.7920   24.6160 N   0  0  0  0  0  0  0  0  0  0  0  0
  -29.2900  -29.5240   25.4430 C   0  0  0  0  0  0  0  0  0  0  0  0
  -28.2430  -30.0460   25.0660 O   0  0  0  0  0  0  0  0  0  0  0  0
  -30.8710  -28.3550   25.0220 H   0  0  0  0  0  0  0  0  0  0  0  0
  -28.9620  -28.7800   27.8480 C   0  0  0  0  0  1  0  0  0  0  0  0
  -29.7410  -29.7230   26.9160 C   0  0  0  0  0  3  0  0  0  0  0  0
  -30.4930  -32.0700   26.7900 C   0  0  0  0  0  1  0  0  0  0  0  0
  -29.5870  -31.1110   27.4160 N   0  0  0  0  0  0  0  0  0  0  0  0
  -29.7320  -31.1460   28.4210 H   0  0  0  0  0  0  0  0  0  0  0  0
  -31.1380  -29.0750   22.4110 C   0  0  1  0  0  0  0  0  0  0  0  0
  -32.4210  -28.2840   22.7420 C   0  0  0  0  0  1  0  0  0  0  0  0
  -31.0250  -29.0430   20.8930 C   0  0  0  0  0  1  0  0  0  0  0  0
  -31.3680  -30.5640   22.7510 C   0  0  0  0  0  1  0  0  0  0  0  0
  1  2  1  0
  4  1  1  0
  5 46  1  0
  6  3  1  0
  6  5  1  0
  7 69  1  0
  7 67  1  0
  9 14  1  0
 10 11  1  0
 10  9  1  0
 12 11  1  0
 12 21  1  0
 12 13  1  0
 14 13  1  0
 14  8  1  0
 15  8  1  0
 16 17  1  0
 18 19  2  0
 18 43  1  0
 19 38  1  0
 20 19  1  0
 21 18  1  0
 22 21  1  0
 22 20  2  0
 23 20  1  0
 23 24  1  0
 25 24  2  0
 26 25  1  0
 27 28  1  0
 27 26  2  0
 28 23  2  0
 29 26  1  0
 29 30  1  0
 30 31  1  0
 31 32  2  0
 33 37  1  0
 33 32  1  0
 34 33  2  0
 35 34  1  0
 35 30  2  0
 36 35  1  0
 38 40  2  0
 38 39  1  0
 39 42  1  0
 41 39  1  0
 43 44  1  0
 45 43  1  0
 48 47  1  0
 49 47  1  0
 50 51  1  0
 50 48  1  0
 51 46  1  0
 51 49  1  0
 51 52  1  6
 53  6  1  0
 54 53  1  0
 54 55  1  1
 56 58  1  0
 57 59  1  0
 57 56  1  0
 58 60  1  0
 59 60  1  0
 60 54  1  0
 61 54  1  0
 62 61  1  0
 62 63  1  0
 64 75  2  0
 65 63  1  0
 65 70  1  0
 68 74  1  0
 70 69  1  0
 71 65  1  0
 71 72  2  0
 72 67  1  0
 74 66  1  0
 74 64  1  0
 76 66  1  0
 76 77  1  0
 77 79  1  0
 78 76  2  0
 80 89  2  0
 80 85  1  0
 81 85  1  0
 81 77  1  0
 82 81  1  0
 83 84  1  0
 83 82  1  0
 84 80  1  0
 85 86  2  0
 86 87  1  0
 88 87  2  0
 89 88  1  0
 90 64  1  0
 90 91  1  0
 91 94  1  0
 91 92  1  0
 92 96  1  0
 93 92  2  0
 96 98  1  0
 96 95  1  0
 97 98  1  0
 98 99  1  0
100101  1  6
100103  1  0
100 90  1  0
102100  1  0
M  ISO  4   8 100  17 100  62 101  63 101
M  END
>  <TORSDO>  (22) 
F 24

>  <SCORE>  (22) 
-3.429

>  <name>  (22) 
21

>  <ligand_id>  (22) 
21

>  <original_smiles>  (22) 
[H]c1c([H])c([H])c2c(c1[H])C([H])([H])C([H])([H])C([H])([H])C2([H])N([H])C(=O)C1([H])N(C(=O)C([H])(N([H])C(=O)C([H])(N([H])C([H])([H])[H])C([H])([H])[H])C(C([H])([H])[H])(C([H])([H])[H])C([H])([H])[H])C([H])([H])c2c([H])c(OC([H])([H])C([H])([H])[N+]([H])(C([H])([H])c3c([H])c(C([H])([H])N(C(=O)N4C([H])([H])C([H])([H])C([H])([H])C([H])(n5nc(-c6c([H])c([H])c(Oc7c([H])c([H])c(F)c([H])c7F)c([H])c6[H])c(C(=O)N([H])[H])c5N([H])[H])C4([H])[H])C([H])([H])[H])c([H])c([H])c3C([H])([H])[N+]3([H])C([H])([H])C([H])([H])C([H])([H])C3([H])[H])C3([H])C([H])([H])C([H])([H])C([H])([H])C3([H])[H])c([H])c([H])c2C1([H])[H]

>  <smiles>  (22) 
[H]c1c([H])c([H])c2c(c1[H])C([H])([H])C([H])([H])C([H])([H])C2([H])N([H])C(=O)C1([H])N(C(=O)C([H])(N([H])C(=O)C([H])(N([H])C([H])([H])[H])C([H])([H])[H])C(C([H])([H])[H])(C([H])([H])[H])C([H])([H])[H])C([H])([H])c2c([H])c(OC([H])([H])C([H])([H])[N+]([H])(C([H])([H])c3c([H])c(C([H])([H])N(C(=O)N4C([H])([H])C([H])([H])C([H])([H])C([H])(n5nc(-c6c([H])c([H])c(Oc7c([H])c([H])c(F)c([H])c7F)c([H])c6[H])c(C(=O)N([H])[H])c5N([H])[H])C4([H])[H])C([H])([H])[H])c([H])c([H])c3C([H])([H])[N+]3([H])C([H])([H])C([H])([H])C([H])([H])C3([H])[H])C3([H])C([H])([H])C([H])([H])C([H])([H])C3([H])[H])c([H])c([H])c2C1([H])[H]

$$$$
22:0:0
     RDKit          3D

 87 95  0  0  1  0  0  0  0  0999 V2000
  -30.0060  -21.9610   18.9130 C   0  0  0  0  0  3  0  0  0  0  0  0
  -30.7140  -20.8040   18.4360 C   0  0  0  0  0  3  0  0  0  0  0  0
  -28.9000  -20.3550   20.3030 C   0  0  0  0  0  3  0  0  0  0  0  0
  -28.9950  -21.9440   19.9090 C   0  0  0  0  0  0  0  0  0  0  0  0
  -29.6600  -18.9780   19.8390 C   0  0  0  0  0  0  0  0  0  0  0  0
  -30.5780  -19.4290   18.8490 C   0  0  0  0  0  0  0  0  0  0  0  0
  -31.3590  -18.5160   18.2320 F   0  0  0  0  0  0  0  0  0  0  0  0
  -30.3050  -15.8310   19.8310 C   0  0  0  0  0  0  0  0  0  0  0  0
  -30.3600  -13.2690   18.9210 C   0  0  0  0  0  2  0  0  0  0  0  0
  -29.3860  -12.8640   17.7680 C   0  0  0  0  0  2  0  0  0  0  0  0
  -28.0320  -12.4210   18.3330 C   0  0  0  0  0  2  0  0  0  0  0  0
  -27.5810  -13.3980   19.4380 C   0  0  0  0  0  3  0  0  0  0  0  0
  -28.6850  -13.7230   20.4740 C   0  0  0  0  0  2  0  0  0  0  0  0
  -29.7870  -14.4360   19.7640 N   0  0  0  0  0  0  0  0  0  0  0  0
  -31.5010  -15.7360   19.4840 O   0  0  0  0  0  0  0  0  0  0  0  0
  -28.6130  -17.0440   21.2210 C   0  0  0  0  0  1  0  0  0  0  0  0
  -29.6030  -17.2420   20.1570 N   0  0  0  0  0  0  0  0  0  0  0  0
  -25.2870  -13.8880   20.4090 C   0  0  0  0  0  0  0  0  0  0  0  0
  -24.2590  -13.0910   20.8320 C   0  0  0  0  0  0  0  0  0  0  0  0
  -24.7230  -11.7460   20.7100 C   0  0  0  0  0  0  0  0  0  0  0  0
  -26.3080  -13.0300   20.0480 N   0  0  0  0  0  0  0  0  0  0  0  0
  -25.9900  -11.7330   20.2990 N   0  0  0  0  0  0  0  0  0  0  0  0
  -24.0090  -10.4780   20.9090 C   0  0  0  0  0  0  0  0  0  0  0  0
  -24.4610   -9.5130   21.8370 C   0  0  0  0  0  3  0  0  0  0  0  0
  -23.7430   -8.3110   22.0280 C   0  0  0  0  0  3  0  0  0  0  0  0
  -22.5600   -8.0630   21.2900 C   0  0  0  0  0  0  0  0  0  0  0  0
  -22.1230   -9.0200   20.3550 C   0  0  0  0  0  3  0  0  0  0  0  0
  -22.8430  -10.2130   20.1630 C   0  0  0  0  0  3  0  0  0  0  0  0
  -21.8090   -6.9140   21.3930 O   0  0  0  0  0  0  0  0  0  0  0  0
  -21.7210   -6.2150   22.5700 C   0  0  0  0  0  0  0  0  0  0  0  0
  -21.2120   -6.7990   23.7500 C   0  0  0  0  0  3  0  0  0  0  0  0
  -21.0760   -6.0200   24.9180 C   0  0  0  0  0  3  0  0  0  0  0  0
  -21.4410   -4.6600   24.9040 C   0  0  0  0  0  0  0  0  0  0  0  0
  -21.9450   -4.0770   23.7290 C   0  0  0  0  0  3  0  0  0  0  0  0
  -22.0830   -4.8510   22.5640 C   0  0  0  0  0  0  0  0  0  0  0  0
  -22.5510   -4.2810   21.4280 F   0  0  0  0  0  0  0  0  0  0  0  0
  -21.3030   -3.9080   26.0240 F   0  0  0  0  0  0  0  0  0  0  0  0
  -22.8880  -13.5560   21.2220 C   0  0  0  0  0  0  0  0  0  0  0  0
  -22.2250  -12.8310   22.1180 N   0  0  0  0  0  0  0  0  0  0  0  0
  -22.4150  -14.5980   20.7660 O   0  0  0  0  0  0  0  0  0  0  0  0
  -22.6250  -11.9910   22.5100 H   0  0  0  0  0  0  0  0  0  0  0  0
  -21.3060  -13.1270   22.4140 H   0  0  0  0  0  0  0  0  0  0  0  0
  -25.4270  -15.2630   20.2630 N   0  0  0  0  0  0  0  0  0  0  0  0
  -24.6580  -15.9030   20.4320 H   0  0  0  0  0  0  0  0  0  0  0  0
  -26.2350  -15.7120   19.8540 H   0  0  0  0  0  0  0  0  0  0  0  0
  -28.0860  -23.5900   20.2560 C   0  0  0  0  0  2  0  0  0  0  0  0
  -28.2730  -25.3860   20.1980 O   0  0  0  0  0  0  0  0  0  0  0  0
  -24.6110  -31.7630   23.0650 C   0  0  0  0  0  0  0  0  0  0  0  0
  -27.2800  -26.6190   20.1810 C   0  0  0  0  0  0  0  0  0  0  0  0
  -23.4770  -30.3270   21.4260 C   0  0  0  0  0  3  0  0  0  0  0  0
  -24.9780  -28.6620   20.0730 C   0  0  0  0  0  0  0  0  0  0  0  0
  -26.0580  -30.4840   21.3580 C   0  0  0  0  0  2  0  0  0  0  0  0
  -26.1610  -29.0340   20.7210 C   0  0  0  0  0  0  0  0  0  0  0  0
  -27.2940  -28.0460   20.7340 C   0  0  0  0  0  3  0  0  0  0  0  0
  -26.0490  -26.4760   19.4850 C   0  0  0  0  0  3  0  0  0  0  0  0
  -24.9670  -27.4100   19.4320 C   0  0  0  0  0  3  0  0  0  0  0  0
  -23.7570  -29.5980   20.0780 C   0  0  0  0  0  2  0  0  0  0  0  0
  -24.7400  -30.8960   22.0000 N   0  0  0  0  0  0  0  0  0  0  0  0
  -23.5050  -32.0570   23.5490 O   0  0  0  0  0  0  0  0  0  0  0  0
  -22.7430  -29.3650   22.4020 C   0  0  0  0  0  0  0  0  0  0  0  0
  -21.4080  -29.2270   22.2770 N   0  0  0  0  0  0  0  0  0  0  0  0
  -23.3910  -28.7400   23.2460 O   0  0  0  0  0  0  0  0  0  0  0  0
  -20.9340  -29.7870   21.5840 H   0  0  0  0  0  0  0  0  0  0  0  0
  -18.0050  -28.0520   22.8050 C   0  0  0  0  0  0  0  0  0  0  0  0
  -20.5710  -28.2960   23.0460 C   0  0  0  0  0  3  0  0  0  0  0  0
  -20.6480  -26.8640   22.4650 C   0  0  0  0  0  2  0  0  0  0  0  0
  -19.5350  -26.5600   21.4550 C   0  0  0  0  0  2  0  0  0  0  0  0
  -18.1630  -26.7080   22.1130 C   0  0  0  0  0  2  0  0  0  0  0  0
  -19.1340  -28.8040   23.2300 C   0  0  0  0  0  0  0  0  0  0  0  0
  -18.9250  -30.0590   23.8450 C   0  0  0  0  0  3  0  0  0  0  0  0
  -17.6230  -30.5610   24.0350 C   0  0  0  0  0  3  0  0  0  0  0  0
  -16.5100  -29.8070   23.6200 C   0  0  0  0  0  3  0  0  0  0  0  0
  -16.7030  -28.5540   23.0140 C   0  0  0  0  0  3  0  0  0  0  0  0
  -25.8510  -32.4390   23.7300 C   0  0  0  0  0  3  0  0  0  0  0  0
  -25.4910  -33.8280   24.0720 N   0  0  0  0  0  0  0  0  0  0  0  0
  -25.8150  -34.9140   23.3530 C   0  0  0  0  0  0  0  0  0  0  0  0
  -26.5040  -34.8500   22.3320 O   0  0  0  0  0  0  0  0  0  0  0  0
  -24.8800  -33.9480   24.8670 H   0  0  0  0  0  0  0  0  0  0  0  0
  -24.0680  -36.7000   23.0230 C   0  0  0  0  0  1  0  0  0  0  0  0
  -25.3010  -36.2850   23.8420 C   0  0  0  0  0  3  0  0  0  0  0  0
  -27.4040  -37.1930   24.7340 C   0  0  0  0  0  1  0  0  0  0  0  0
  -26.3160  -37.3600   23.7740 N   0  0  0  0  0  0  0  0  0  0  0  0
  -25.8890  -38.2670   23.9400 H   0  0  0  0  0  0  0  0  0  0  0  0
  -26.3470  -31.6830   25.0260 C   0  0  1  0  0  0  0  0  0  0  0  0
  -25.2300  -31.4290   26.0680 C   0  0  0  0  0  1  0  0  0  0  0  0
  -26.9660  -30.3120   24.6700 C   0  0  0  0  0  1  0  0  0  0  0  0
  -27.4660  -32.5000   25.7120 C   0  0  0  0  0  1  0  0  0  0  0  0
  1  4  1  0
  2  6  1  0
  2  1  2  0
  4 46  1  0
  4  3  2  0
  5 17  1  0
  5  3  1  0
  6  5  2  0
  7  6  1  0
  8 17  1  0
  9 14  1  0
 10 11  1  0
 10  9  1  0
 12 11  1  0
 12 21  1  0
 12 13  1  0
 14  8  1  0
 14 13  1  0
 15  8  2  0
 17 16  1  0
 18 19  2  0
 19 38  1  0
 20 19  1  0
 20 23  1  0
 21 22  1  0
 21 18  1  0
 22 20  2  0
 23 24  1  0
 24 25  2  0
 26 29  1  0
 26 25  1  0
 27 26  2  0
 28 27  1  0
 28 23  2  0
 29 30  1  0
 30 31  1  0
 31 32  2  0
 33 32  1  0
 33 37  1  0
 34 33  2  0
 35 30  2  0
 35 34  1  0
 36 35  1  0
 38 39  1  0
 39 42  1  0
 39 41  1  0
 40 38  2  0
 43 18  1  0
 43 44  1  0
 45 43  1  0
 47 46  1  0
 48 59  2  0
 49 47  1  0
 49 54  1  0
 50 58  1  0
 50 60  1  0
 51 57  1  0
 51 53  1  0
 52 58  1  0
 53 54  2  0
 53 52  1  0
 55 49  2  0
 56 55  1  0
 56 51  2  0
 57 50  1  0
 58 48  1  0
 60 62  2  0
 61 60  1  0
 63 61  1  0
 64 73  2  0
 64 69  1  0
 65 61  1  0
 65 69  1  0
 66 65  1  0
 67 68  1  0
 67 66  1  0
 68 64  1  0
 69 70  2  0
 70 71  1  0
 72 71  2  0
 73 72  1  0
 74 48  1  0
 74 75  1  0
 74 84  1  0
 75 78  1  0
 76 80  1  0
 76 75  1  0
 77 76  2  0
 80 79  1  0
 82 80  1  0
 82 83  1  0
 82 81  1  0
 84 87  1  1
 84 85  1  0
 86 84  1  0
M  ISO  4   8 100  17 100  46 101  47 101
M  END
>  <TORSDO>  (23) 
F 17

>  <SCORE>  (23) 
-15.921

>  <name>  (23) 
22

>  <ligand_id>  (23) 
22

>  <original_smiles>  (23) 
[H]c1c([H])c([H])c2c(c1[H])C([H])([H])C([H])([H])C([H])([H])C2([H])N([H])C(=O)C1([H])N(C(=O)C([H])(N([H])C(=O)C([H])(N([H])C([H])([H])[H])C([H])([H])[H])C(C([H])([H])[H])(C([H])([H])[H])C([H])([H])[H])C([H])([H])c2c([H])c(OC([H])([H])c3c([H])c([H])c(F)c(N(C(=O)N4C([H])([H])C([H])([H])C([H])([H])C([H])(n5nc(-c6c([H])c([H])c(Oc7c([H])c([H])c(F)c([H])c7F)c([H])c6[H])c(C(=O)N([H])[H])c5N([H])[H])C4([H])[H])C([H])([H])[H])c3[H])c([H])c([H])c2C1([H])[H]

>  <smiles>  (23) 
[H]c1c([H])c([H])c2c(c1[H])C([H])([H])C([H])([H])C([H])([H])C2([H])N([H])C(=O)C1([H])N(C(=O)C([H])(N([H])C(=O)C([H])(N([H])C([H])([H])[H])C([H])([H])[H])C(C([H])([H])[H])(C([H])([H])[H])C([H])([H])[H])C([H])([H])c2c([H])c(OC([H])([H])c3c([H])c([H])c(F)c(N(C(=O)N4C([H])([H])C([H])([H])C([H])([H])C([H])(n5nc(-c6c([H])c([H])c(Oc7c([H])c([H])c(F)c([H])c7F)c([H])c6[H])c(C(=O)N([H])[H])c5N([H])[H])C4([H])[H])C([H])([H])[H])c3[H])c([H])c([H])c2C1([H])[H]

$$$$
23:0:0
     RDKit          3D

 90 98  0  0  1  0  0  0  0  0999 V2000
  -30.7010  -19.8590   19.6520 C   0  0  0  0  0  3  0  0  0  0  0  0
  -30.8080  -18.4180   19.7880 C   0  0  0  0  0  3  0  0  0  0  0  0
  -28.4390  -19.8110   20.2760 C   0  0  0  0  0  3  0  0  0  0  0  0
  -29.5200  -20.6730   19.8840 C   0  0  0  0  0  0  0  0  0  0  0  0
  -29.7200  -17.5760   20.1580 C   0  0  0  0  0  0  0  0  0  0  0  0
  -28.5320  -18.3590   20.3930 C   0  0  0  0  0  0  0  0  0  0  0  0
  -27.4120  -17.6810   20.7400 F   0  0  0  0  0  0  0  0  0  0  0  0
  -30.5190  -14.9440   19.9530 C   0  0  0  0  0  0  0  0  0  0  0  0
  -30.3550  -12.6220   18.9590 C   0  0  0  0  0  2  0  0  0  0  0  0
  -29.3370  -12.6350   17.7950 C   0  0  0  0  0  2  0  0  0  0  0  0
  -27.9040  -12.4190   18.3170 C   0  0  0  0  0  2  0  0  0  0  0  0
  -27.5860  -13.3070   19.5480 C   0  0  0  0  0  3  0  0  0  0  0  0
  -28.7120  -13.2590   20.6040 C   0  0  0  0  0  2  0  0  0  0  0  0
  -29.9510  -13.6750   19.9320 N   0  0  0  0  0  0  0  0  0  0  0  0
  -31.6810  -15.0640   19.5500 O   0  0  0  0  0  0  0  0  0  0  0  0
  -29.6990  -16.0500   20.2770 N   0  0  0  0  0  0  0  0  0  0  0  0
  -28.8170  -15.7250   20.6420 H   0  0  0  0  0  0  0  0  0  0  0  0
  -25.2560  -13.8770   20.4490 C   0  0  0  0  0  0  0  0  0  0  0  0
  -24.2120  -13.0970   20.8620 C   0  0  0  0  0  0  0  0  0  0  0  0
  -24.6670  -11.7450   20.7670 C   0  0  0  0  0  0  0  0  0  0  0  0
  -26.2780  -13.0030   20.1200 N   0  0  0  0  0  0  0  0  0  0  0  0
  -25.9360  -11.7130   20.3740 N   0  0  0  0  0  0  0  0  0  0  0  0
  -23.9470  -10.4810   20.9670 C   0  0  0  0  0  0  0  0  0  0  0  0
  -24.4000   -9.5090   21.8840 C   0  0  0  0  0  3  0  0  0  0  0  0
  -23.6780   -8.3110   22.0740 C   0  0  0  0  0  3  0  0  0  0  0  0
  -22.4870   -8.0770   21.3450 C   0  0  0  0  0  0  0  0  0  0  0  0
  -22.0530   -9.0380   20.4150 C   0  0  0  0  0  3  0  0  0  0  0  0
  -22.7760  -10.2270   20.2240 C   0  0  0  0  0  3  0  0  0  0  0  0
  -21.7340   -6.9320   21.4440 O   0  0  0  0  0  0  0  0  0  0  0  0
  -21.6830   -6.2030   22.6050 C   0  0  0  0  0  0  0  0  0  0  0  0
  -21.2310   -6.7660   23.8180 C   0  0  0  0  0  3  0  0  0  0  0  0
  -21.1260   -5.9630   24.9720 C   0  0  0  0  0  3  0  0  0  0  0  0
  -21.4660   -4.5990   24.9120 C   0  0  0  0  0  0  0  0  0  0  0  0
  -21.9100   -4.0350   23.7030 C   0  0  0  0  0  3  0  0  0  0  0  0
  -22.0150   -4.8350   22.5520 C   0  0  0  0  0  0  0  0  0  0  0  0
  -22.4250   -4.2820   21.3850 F   0  0  0  0  0  0  0  0  0  0  0  0
  -21.3580   -3.8250   26.0170 F   0  0  0  0  0  0  0  0  0  0  0  0
  -22.8370  -13.5730   21.2330 C   0  0  0  0  0  0  0  0  0  0  0  0
  -22.1590  -12.8520   22.1210 N   0  0  0  0  0  0  0  0  0  0  0  0
  -22.3770  -14.6170   20.7750 O   0  0  0  0  0  0  0  0  0  0  0  0
  -22.5480  -12.0060   22.5100 H   0  0  0  0  0  0  0  0  0  0  0  0
  -21.2410  -13.1530   22.4150 H   0  0  0  0  0  0  0  0  0  0  0  0
  -25.4150  -15.2530   20.3040 N   0  0  0  0  0  0  0  0  0  0  0  0
  -24.6700  -15.9060   20.5160 H   0  0  0  0  0  0  0  0  0  0  0  0
  -26.2560  -15.7130   19.9810 H   0  0  0  0  0  0  0  0  0  0  0  0
  -30.8240  -22.6670   19.3290 C   0  0  0  0  0  1  0  0  0  0  0  0
  -29.4960  -22.1660   19.6910 N   0  0  0  0  0  0  0  0  0  0  0  0
  -28.5840  -23.3240   20.2180 C   0  0  0  0  0  2  0  0  0  0  0  0
  -28.3960  -24.8050   19.4140 C   0  0  0  0  0  2  0  0  0  0  0  0
  -28.3370  -26.2440   19.9960 O   0  0  0  0  0  0  0  0  0  0  0  0
  -24.6440  -31.7830   23.0820 C   0  0  0  0  0  0  0  0  0  0  0  0
  -27.2430  -27.1750   19.9240 C   0  0  0  0  0  0  0  0  0  0  0  0
  -23.4390  -30.4130   21.4230 C   0  0  0  0  0  3  0  0  0  0  0  0
  -24.8880  -28.8830   19.9540 C   0  0  0  0  0  0  0  0  0  0  0  0
  -25.9870  -30.7110   21.2390 C   0  0  0  0  0  2  0  0  0  0  0  0
  -26.0670  -29.3350   20.5580 C   0  0  0  0  0  0  0  0  0  0  0  0
  -27.2390  -28.4950   20.5320 C   0  0  0  0  0  3  0  0  0  0  0  0
  -26.0310  -26.8160   19.2920 C   0  0  0  0  0  3  0  0  0  0  0  0
  -24.8810  -27.6350   19.3130 C   0  0  0  0  0  3  0  0  0  0  0  0
  -23.6540  -29.7670   20.0280 C   0  0  0  0  0  2  0  0  0  0  0  0
  -24.7100  -30.9890   21.9700 N   0  0  0  0  0  0  0  0  0  0  0  0
  -23.5600  -32.0450   23.6270 O   0  0  0  0  0  0  0  0  0  0  0  0
  -22.7810  -29.3790   22.3700 C   0  0  0  0  0  0  0  0  0  0  0  0
  -21.4530  -29.2040   22.2560 N   0  0  0  0  0  0  0  0  0  0  0  0
  -23.4670  -28.7420   23.1730 O   0  0  0  0  0  0  0  0  0  0  0  0
  -20.9570  -29.7770   21.5890 H   0  0  0  0  0  0  0  0  0  0  0  0
  -18.0820  -27.9800   22.7690 C   0  0  0  0  0  0  0  0  0  0  0  0
  -20.6430  -28.2460   23.0150 C   0  0  0  0  0  3  0  0  0  0  0  0
  -20.7420  -26.8260   22.4080 C   0  0  0  0  0  2  0  0  0  0  0  0
  -19.6300  -26.5220   21.3990 C   0  0  0  0  0  2  0  0  0  0  0  0
  -18.2550  -26.6460   22.0620 C   0  0  0  0  0  2  0  0  0  0  0  0
  -19.2030  -28.7370   23.2020 C   0  0  0  0  0  0  0  0  0  0  0  0
  -18.9870  -29.9830   23.8290 C   0  0  0  0  0  3  0  0  0  0  0  0
  -17.6820  -30.4730   24.0250 C   0  0  0  0  0  3  0  0  0  0  0  0
  -16.5760  -29.7130   23.6080 C   0  0  0  0  0  3  0  0  0  0  0  0
  -16.7760  -28.4700   22.9840 C   0  0  0  0  0  3  0  0  0  0  0  0
  -25.9230  -32.4170   23.7090 C   0  0  0  0  0  3  0  0  0  0  0  0
  -26.4550  -31.6220   24.9650 C   0  0  1  0  0  0  0  0  0  0  0  0
  -25.3720  -31.3550   26.0380 C   0  0  0  0  0  1  0  0  0  0  0  0
  -27.0480  -30.2580   24.5430 C   0  0  0  0  0  1  0  0  0  0  0  0
  -27.6030  -32.4120   25.6350 C   0  0  0  0  0  1  0  0  0  0  0  0
  -25.6010  -33.8040   24.0790 N   0  0  0  0  0  0  0  0  0  0  0  0
  -25.9210  -34.8840   23.3530 C   0  0  0  0  0  0  0  0  0  0  0  0
  -26.5850  -34.8160   22.3140 O   0  0  0  0  0  0  0  0  0  0  0  0
  -25.0110  -33.9290   24.8880 H   0  0  0  0  0  0  0  0  0  0  0  0
  -24.1810  -36.6790   23.0600 C   0  0  0  0  0  1  0  0  0  0  0  0
  -25.4270  -36.2560   23.8560 C   0  0  0  0  0  3  0  0  0  0  0  0
  -27.5570  -37.1310   24.7080 C   0  0  0  0  0  1  0  0  0  0  0  0
  -26.4520  -37.3190   23.7720 N   0  0  0  0  0  0  0  0  0  0  0  0
  -26.0400  -38.2320   23.9440 H   0  0  0  0  0  0  0  0  0  0  0  0
  1  2  2  0
  1  4  1  0
  2  5  1  0
  3  6  1  0
  4  3  2  0
  5 16  1  0
  5  6  2  0
  6  7  1  0
  8 16  1  0
  9 14  1  0
 10 11  1  0
 10  9  1  0
 12 11  1  0
 12 21  1  0
 12 13  1  0
 14  8  1  0
 14 13  1  0
 15  8  2  0
 16 17  1  0
 18 19  2  0
 19 38  1  0
 20 19  1  0
 20 23  1  0
 21 22  1  0
 21 18  1  0
 22 20  2  0
 23 24  1  0
 24 25  2  0
 26 29  1  0
 26 25  1  0
 27 26  2  0
 28 27  1  0
 28 23  2  0
 29 30  1  0
 30 31  1  0
 31 32  2  0
 33 32  1  0
 33 37  1  0
 34 33  2  0
 35 30  2  0
 35 34  1  0
 36 35  1  0
 38 39  1  0
 39 42  1  0
 39 41  1  0
 40 38  2  0
 43 18  1  0
 43 44  1  0
 45 43  1  0
 46 47  1  0
 47  4  1  0
 47 48  1  0
 49 50  1  0
 49 48  1  0
 51 62  2  0
 52 50  1  0
 52 57  1  0
 53 61  1  0
 53 63  1  0
 54 60  1  0
 54 56  1  0
 55 61  1  0
 56 55  1  0
 57 56  2  0
 58 59  1  0
 58 52  2  0
 59 54  2  0
 60 53  1  0
 61 51  1  0
 63 65  2  0
 64 63  1  0
 66 64  1  0
 67 76  2  0
 67 72  1  0
 68 64  1  0
 68 72  1  0
 69 68  1  0
 70 71  1  0
 70 69  1  0
 71 67  1  0
 72 73  2  0
 73 74  1  0
 75 74  2  0
 76 75  1  0
 77 51  1  0
 77 82  1  0
 77 78  1  0
 78 81  1  1
 78 79  1  0
 80 78  1  0
 82 85  1  0
 83 87  1  0
 83 82  1  0
 84 83  2  0
 87 86  1  0
 89 87  1  0
 89 90  1  0
 89 88  1  0
M  ISO  4   8 100  16 100  49 101  50 101
M  END
>  <TORSDO>  (24) 
F 19

>  <SCORE>  (24) 
-14.999

>  <name>  (24) 
23

>  <ligand_id>  (24) 
23

>  <original_smiles>  (24) 
[H]c1c([H])c([H])c2c(c1[H])C([H])([H])C([H])([H])C([H])([H])C2([H])N([H])C(=O)C1([H])N(C(=O)C([H])(N([H])C(=O)C([H])(N([H])C([H])([H])[H])C([H])([H])[H])C(C([H])([H])[H])(C([H])([H])[H])C([H])([H])[H])C([H])([H])c2c([H])c(OC([H])([H])C([H])([H])N(c3c([H])c([H])c(N([H])C(=O)N4C([H])([H])C([H])([H])C([H])([H])C([H])(n5nc(-c6c([H])c([H])c(Oc7c([H])c([H])c(F)c([H])c7F)c([H])c6[H])c(C(=O)N([H])[H])c5N([H])[H])C4([H])[H])c(F)c3[H])C([H])([H])[H])c([H])c([H])c2C1([H])[H]

>  <smiles>  (24) 
[H]c1c([H])c([H])c2c(c1[H])C([H])([H])C([H])([H])C([H])([H])C2([H])N([H])C(=O)C1([H])N(C(=O)C([H])(N([H])C(=O)C([H])(N([H])C([H])([H])[H])C([H])([H])[H])C(C([H])([H])[H])(C([H])([H])[H])C([H])([H])[H])C([H])([H])c2c([H])c(OC([H])([H])C([H])([H])N(c3c([H])c([H])c(N([H])C(=O)N4C([H])([H])C([H])([H])C([H])([H])C([H])(n5nc(-c6c([H])c([H])c(Oc7c([H])c([H])c(F)c([H])c7F)c([H])c6[H])c(C(=O)N([H])[H])c5N([H])[H])C4([H])[H])c(F)c3[H])C([H])([H])[H])c([H])c([H])c2C1([H])[H]

$$$$
24:0:0
     RDKit          3D

 96105  0  0  1  0  0  0  0  0999 V2000
  -29.4780  -21.8660   19.5460 C   0  0  0  0  0  0  0  0  0  0  0  0
  -31.4380  -23.2120   21.1330 C   0  0  0  0  0  2  0  0  0  0  0  0
  -31.0920  -23.9260   19.8340 C   0  0  0  0  0  2  0  0  0  0  0  0
  -31.5840  -21.7170   20.8310 C   0  0  0  0  0  2  0  0  0  0  0  0
  -29.7910  -23.3710   19.2200 C   0  0  0  0  0  3  0  0  0  0  0  0
  -30.3950  -21.0850   20.2170 N   0  0  0  0  0  0  0  0  0  0  0  0
  -28.4050  -21.4230   19.1300 O   0  0  0  0  0  0  0  0  0  0  0  0
  -29.1800  -18.8420   20.3450 C   0  0  0  0  0  3  0  0  0  0  0  0
  -29.2180  -17.4240   20.4030 C   0  0  0  0  0  3  0  0  0  0  0  0
  -31.5910  -18.8930   20.2630 C   0  0  0  0  0  3  0  0  0  0  0  0
  -30.3680  -19.6200   20.2600 C   0  0  0  0  0  0  0  0  0  0  0  0
  -30.4470  -16.7220   20.3970 C   0  0  0  0  0  0  0  0  0  0  0  0
  -31.6350  -17.4830   20.3450 C   0  0  0  0  0  0  0  0  0  0  0  0
  -32.8440  -16.8700   20.3950 F   0  0  0  0  0  0  0  0  0  0  0  0
  -30.7190  -14.5000   19.4530 C   0  0  0  0  0  0  0  0  0  0  0  0
  -30.1150  -12.4810   18.1460 C   0  0  0  0  0  2  0  0  0  0  0  0
  -28.9890  -12.7800   17.1380 C   0  0  0  0  0  2  0  0  0  0  0  0
  -27.6120  -12.5960   17.7980 C   0  0  0  0  0  2  0  0  0  0  0  0
  -27.5030  -13.3390   19.1550 C   0  0  0  0  0  3  0  0  0  0  0  0
  -28.7250  -13.0500   20.0560 C   0  0  0  0  0  2  0  0  0  0  0  0
  -29.9510  -13.3770   19.3070 N   0  0  0  0  0  0  0  0  0  0  0  0
  -31.6140  -14.7790   18.6490 O   0  0  0  0  0  0  0  0  0  0  0  0
  -30.4900  -15.2860   20.5420 N   0  0  0  0  0  0  0  0  0  0  0  0
  -25.2530  -13.8860   20.2730 C   0  0  0  0  0  0  0  0  0  0  0  0
  -24.2590  -13.0890   20.7730 C   0  0  0  0  0  0  0  0  0  0  0  0
  -24.7090  -11.7440   20.6020 C   0  0  0  0  0  0  0  0  0  0  0  0
  -26.2470  -13.0270   19.8340 N   0  0  0  0  0  0  0  0  0  0  0  0
  -25.9320  -11.7300   20.0880 N   0  0  0  0  0  0  0  0  0  0  0  0
  -24.0230  -10.4680   20.8490 C   0  0  0  0  0  0  0  0  0  0  0  0
  -24.5100   -9.5380   21.7950 C   0  0  0  0  0  3  0  0  0  0  0  0
  -23.8220   -8.3270   22.0270 C   0  0  0  0  0  3  0  0  0  0  0  0
  -22.6340   -8.0390   21.3140 C   0  0  0  0  0  0  0  0  0  0  0  0
  -22.1670   -8.9570   20.3580 C   0  0  0  0  0  3  0  0  0  0  0  0
  -22.8550  -10.1590   20.1250 C   0  0  0  0  0  3  0  0  0  0  0  0
  -21.9150   -6.8760   21.4550 O   0  0  0  0  0  0  0  0  0  0  0  0
  -21.8240   -6.2270   22.6600 C   0  0  0  0  0  0  0  0  0  0  0  0
  -21.3100   -6.8620   23.8120 C   0  0  0  0  0  3  0  0  0  0  0  0
  -21.1680   -6.1370   25.0120 C   0  0  0  0  0  3  0  0  0  0  0  0
  -21.5340   -4.7780   25.0600 C   0  0  0  0  0  0  0  0  0  0  0  0
  -22.0420   -4.1430   23.9140 C   0  0  0  0  0  3  0  0  0  0  0  0
  -22.1850   -4.8660   22.7160 C   0  0  0  0  0  0  0  0  0  0  0  0
  -22.6550   -4.2440   21.6090 F   0  0  0  0  0  0  0  0  0  0  0  0
  -21.3900   -4.0790   26.2100 F   0  0  0  0  0  0  0  0  0  0  0  0
  -22.9250  -13.5420   21.2900 C   0  0  0  0  0  0  0  0  0  0  0  0
  -22.3750  -12.8380   22.2740 N   0  0  0  0  0  0  0  0  0  0  0  0
  -22.3820  -14.5570   20.8560 O   0  0  0  0  0  0  0  0  0  0  0  0
  -22.8300  -12.0180   22.6470 H   0  0  0  0  0  0  0  0  0  0  0  0
  -21.4880  -13.1280   22.6610 H   0  0  0  0  0  0  0  0  0  0  0  0
  -25.3830  -15.2660   20.1360 N   0  0  0  0  0  0  0  0  0  0  0  0
  -24.6420  -15.9060   20.3980 H   0  0  0  0  0  0  0  0  0  0  0  0
  -26.1610  -15.7250   19.6800 H   0  0  0  0  0  0  0  0  0  0  0  0
  -30.7900  -15.6940   23.0120 C   0  0  0  0  0  1  0  0  0  0  0  0
  -31.0270  -14.7610   21.8120 C   0  0  0  0  0  2  0  0  0  0  0  0
  -28.5930  -24.3930   19.2530 C   0  0  0  0  0  2  0  0  0  0  0  0
  -28.4500  -25.3570   20.4670 C   0  0  0  0  0  2  0  0  0  0  0  0
  -28.5450  -26.7540   20.0990 O   0  0  0  0  0  0  0  0  0  0  0  0
  -24.7030  -31.9300   23.1570 C   0  0  0  0  0  0  0  0  0  0  0  0
  -27.3710  -27.4860   20.0860 C   0  0  0  0  0  0  0  0  0  0  0  0
  -23.4990  -30.4960   21.5430 C   0  0  0  0  0  3  0  0  0  0  0  0
  -24.9580  -28.9700   20.1070 C   0  0  0  0  0  0  0  0  0  0  0  0
  -26.0180  -30.8900   21.3090 C   0  0  0  0  0  2  0  0  0  0  0  0
  -26.1160  -29.5150   20.6750 C   0  0  0  0  0  0  0  0  0  0  0  0
  -27.3290  -28.7830   20.6530 C   0  0  0  0  0  3  0  0  0  0  0  0
  -26.1950  -26.9620   19.5070 C   0  0  0  0  0  3  0  0  0  0  0  0
  -24.9930  -27.6950   19.5170 C   0  0  0  0  0  3  0  0  0  0  0  0
  -23.7010  -29.8100   20.1640 C   0  0  0  0  0  2  0  0  0  0  0  0
  -24.7580  -31.1220   22.0610 N   0  0  0  0  0  0  0  0  0  0  0  0
  -23.6240  -32.1900   23.7080 O   0  0  0  0  0  0  0  0  0  0  0  0
  -22.8760  -29.4730   22.5180 C   0  0  0  0  0  0  0  0  0  0  0  0
  -21.5540  -29.2610   22.4030 N   0  0  0  0  0  0  0  0  0  0  0  0
  -23.5770  -28.8720   23.3370 O   0  0  0  0  0  0  0  0  0  0  0  0
  -21.0470  -29.8000   21.7150 H   0  0  0  0  0  0  0  0  0  0  0  0
  -18.2120  -27.9920   22.9260 C   0  0  0  0  0  0  0  0  0  0  0  0
  -20.7630  -28.3140   23.1880 C   0  0  0  0  0  3  0  0  0  0  0  0
  -20.8980  -26.8780   22.6310 C   0  0  0  0  0  2  0  0  0  0  0  0
  -19.8010  -26.5160   21.6240 C   0  0  0  0  0  2  0  0  0  0  0  0
  -18.4180  -26.6370   22.2700 C   0  0  0  0  0  2  0  0  0  0  0  0
  -19.3120  -28.7850   23.3430 C   0  0  0  0  0  0  0  0  0  0  0  0
  -19.0650  -30.0520   23.9170 C   0  0  0  0  0  3  0  0  0  0  0  0
  -17.7490  -30.5250   24.0770 C   0  0  0  0  0  3  0  0  0  0  0  0
  -16.6620  -29.7280   23.6770 C   0  0  0  0  0  3  0  0  0  0  0  0
  -16.8950  -28.4640   23.1080 C   0  0  0  0  0  3  0  0  0  0  0  0
  -25.9870  -32.5860   23.7560 C   0  0  0  0  0  3  0  0  0  0  0  0
  -26.5800  -31.7850   24.9790 C   0  0  1  0  0  0  0  0  0  0  0  0
  -25.5300  -31.4230   26.0540 C   0  0  0  0  0  1  0  0  0  0  0  0
  -27.2400  -30.4700   24.5000 C   0  0  0  0  0  1  0  0  0  0  0  0
  -27.6940  -32.6160   25.6600 C   0  0  0  0  0  1  0  0  0  0  0  0
  -25.6400  -33.9570   24.1530 N   0  0  0  0  0  0  0  0  0  0  0  0
  -25.9210  -35.0510   23.4330 C   0  0  0  0  0  0  0  0  0  0  0  0
  -26.5730  -35.0120   22.3850 O   0  0  0  0  0  0  0  0  0  0  0  0
  -25.0580  -34.0580   24.9710 H   0  0  0  0  0  0  0  0  0  0  0  0
  -24.1480  -36.8130   23.1650 C   0  0  0  0  0  1  0  0  0  0  0  0
  -25.3990  -36.4010   23.9580 C   0  0  0  0  0  3  0  0  0  0  0  0
  -27.5100  -37.2960   24.8340 C   0  0  0  0  0  1  0  0  0  0  0  0
  -26.4040  -37.4830   23.8990 N   0  0  0  0  0  0  0  0  0  0  0  0
  -25.9740  -38.3840   24.0930 H   0  0  0  0  0  0  0  0  0  0  0  0
  1  6  1  0
  3  2  1  0
  4  2  1  0
  5 54  1  0
  5  1  1  0
  5  3  1  0
  6 11  1  0
  6  4  1  0
  7  1  2  0
  8  9  1  0
 10 13  2  0
 11 10  1  0
 11  8  2  0
 12  9  2  0
 12 23  1  0
 13 14  1  0
 13 12  1  0
 15 23  1  0
 16 21  1  0
 17 18  1  0
 17 16  1  0
 19 18  1  0
 19 27  1  0
 19 20  1  0
 21 15  1  0
 21 20  1  0
 22 15  2  0
 23 53  1  0
 24 25  2  0
 25 44  1  0
 26 25  1  0
 26 29  1  0
 27 28  1  0
 27 24  1  0
 28 26  2  0
 29 30  1  0
 30 31  2  0
 32 35  1  0
 32 31  1  0
 33 32  2  0
 34 33  1  0
 34 29  2  0
 35 36  1  0
 36 41  2  0
 36 37  1  0
 37 38  2  0
 38 39  1  0
 39 43  1  0
 40 39  2  0
 41 40  1  0
 42 41  1  0
 44 45  1  0
 45 47  1  0
 45 48  1  0
 46 44  2  0
 49 24  1  0
 49 50  1  0
 51 49  1  0
 53 52  1  0
 54 55  1  0
 56 55  1  0
 57 68  2  0
 58 56  1  0
 58 63  1  0
 59 67  1  0
 59 69  1  0
 60 66  1  0
 60 62  1  0
 61 67  1  0
 62 61  1  0
 63 62  2  0
 64 65  1  0
 64 58  2  0
 65 60  2  0
 66 59  1  0
 67 57  1  0
 69 71  2  0
 70 69  1  0
 72 70  1  0
 73 82  2  0
 73 78  1  0
 74 70  1  0
 74 78  1  0
 75 74  1  0
 76 77  1  0
 76 75  1  0
 77 73  1  0
 78 79  2  0
 79 80  1  0
 81 80  2  0
 82 81  1  0
 83 57  1  0
 83 88  1  0
 83 84  1  0
 84 87  1  1
 84 85  1  0
 86 84  1  0
 88 91  1  0
 89 93  1  0
 89 88  1  0
 90 89  2  0
 93 92  1  0
 95 93  1  0
 95 96  1  0
 95 94  1  0
M  ISO  4  15 100  23 100  55 101  56 101
M  END
>  <TORSDO>  (25) 
F 20

>  <SCORE>  (25) 
-10.743

>  <name>  (25) 
24

>  <ligand_id>  (25) 
24

>  <original_smiles>  (25) 
[H]c1c([H])c([H])c2c(c1[H])C([H])([H])C([H])([H])C([H])([H])C2([H])N([H])C(=O)C1([H])N(C(=O)C([H])(N([H])C(=O)C([H])(N([H])C([H])([H])[H])C([H])([H])[H])C(C([H])([H])[H])(C([H])([H])[H])C([H])([H])[H])C([H])([H])c2c([H])c(OC([H])([H])C([H])([H])C3([H])C(=O)N(c4c([H])c([H])c(N(C(=O)N5C([H])([H])C([H])([H])C([H])([H])C([H])(n6nc(-c7c([H])c([H])c(Oc8c([H])c([H])c(F)c([H])c8F)c([H])c7[H])c(C(=O)N([H])[H])c6N([H])[H])C5([H])[H])C([H])([H])C([H])([H])[H])c(F)c4[H])C([H])([H])C([H])([H])C3([H])[H])c([H])c([H])c2C1([H])[H]

>  <smiles>  (25) 
[H]c1c([H])c([H])c2c(c1[H])C([H])([H])C([H])([H])C([H])([H])C2([H])N([H])C(=O)C1([H])N(C(=O)C([H])(N([H])C(=O)C([H])(N([H])C([H])([H])[H])C([H])([H])[H])C(C([H])([H])[H])(C([H])([H])[H])C([H])([H])[H])C([H])([H])c2c([H])c(OC([H])([H])C([H])([H])C3([H])C(=O)N(c4c([H])c([H])c(N(C(=O)N5C([H])([H])C([H])([H])C([H])([H])C([H])(n6nc(-c7c([H])c([H])c(Oc8c([H])c([H])c(F)c([H])c8F)c([H])c7[H])c(C(=O)N([H])[H])c6N([H])[H])C5([H])[H])C([H])([H])C([H])([H])[H])c(F)c4[H])C([H])([H])C([H])([H])C3([H])[H])c([H])c([H])c2C1([H])[H]

$$$$
25:0:0
     RDKit          3D

 92100  0  0  1  0  0  0  0  0999 V2000
  -31.4550  -17.7210   21.0900 C   0  0  0  0  0  3  0  0  0  0  0  0
  -30.9070  -20.1110   20.8910 C   0  0  0  0  0  3  0  0  0  0  0  0
  -30.1700  -17.3340   20.6450 C   0  0  0  0  0  0  0  0  0  0  0  0
  -29.5960  -19.8460   20.4370 C   0  0  0  0  0  0  0  0  0  0  0  0
  -31.8110  -19.0790   21.2100 C   0  0  0  0  0  0  0  0  0  0  0  0
  -29.2510  -18.4180   20.3310 C   0  0  0  0  0  0  0  0  0  0  0  0
  -33.0570  -19.4000   21.6340 F   0  0  0  0  0  0  0  0  0  0  0  0
  -28.0090  -18.0520   19.9250 F   0  0  0  0  0  0  0  0  0  0  0  0
  -30.5830  -14.7570   20.3930 C   0  0  0  0  0  0  0  0  0  0  0  0
  -30.3620  -12.4940   19.3630 C   0  0  0  0  0  2  0  0  0  0  0  0
  -29.4230  -12.5870   18.1410 C   0  0  0  0  0  2  0  0  0  0  0  0
  -27.9520  -12.4190   18.5740 C   0  0  0  0  0  2  0  0  0  0  0  0
  -27.5860  -13.2990   19.7990 C   0  0  0  0  0  3  0  0  0  0  0  0
  -28.6470  -13.1980   20.9160 C   0  0  0  0  0  2  0  0  0  0  0  0
  -29.9430  -13.5420   20.3170 N   0  0  0  0  0  0  0  0  0  0  0  0
  -31.7740  -14.8390   20.0810 O   0  0  0  0  0  0  0  0  0  0  0  0
  -29.8070  -15.8930   20.5710 N   0  0  0  0  0  0  0  0  0  0  0  0
  -28.8170  -15.7120   20.6200 H   0  0  0  0  0  0  0  0  0  0  0  0
  -25.1990  -13.8930   20.5280 C   0  0  0  0  0  0  0  0  0  0  0  0
  -24.1330  -13.1200   20.9000 C   0  0  0  0  0  0  0  0  0  0  0  0
  -24.5970  -11.7690   20.8720 C   0  0  0  0  0  0  0  0  0  0  0  0
  -26.2420  -13.0130   20.2910 N   0  0  0  0  0  0  0  0  0  0  0  0
  -25.8870  -11.7300   20.5630 N   0  0  0  0  0  0  0  0  0  0  0  0
  -23.8690  -10.5060   21.0630 C   0  0  0  0  0  0  0  0  0  0  0  0
  -24.3130   -9.5310   21.9830 C   0  0  0  0  0  3  0  0  0  0  0  0
  -23.5850   -8.3350   22.1630 C   0  0  0  0  0  3  0  0  0  0  0  0
  -22.4000   -8.1060   21.4230 C   0  0  0  0  0  0  0  0  0  0  0  0
  -21.9760   -9.0720   20.4920 C   0  0  0  0  0  3  0  0  0  0  0  0
  -22.7050  -10.2580   20.3100 C   0  0  0  0  0  3  0  0  0  0  0  0
  -21.6420   -6.9640   21.5130 O   0  0  0  0  0  0  0  0  0  0  0  0
  -21.6220   -6.2020   22.6540 C   0  0  0  0  0  0  0  0  0  0  0  0
  -21.2440   -6.7410   23.9040 C   0  0  0  0  0  3  0  0  0  0  0  0
  -21.1700   -5.9070   25.0370 C   0  0  0  0  0  3  0  0  0  0  0  0
  -21.4600   -4.5350   24.9210 C   0  0  0  0  0  0  0  0  0  0  0  0
  -21.8310   -3.9950   23.6770 C   0  0  0  0  0  3  0  0  0  0  0  0
  -21.9070   -4.8260   22.5460 C   0  0  0  0  0  0  0  0  0  0  0  0
  -22.2440   -4.2970   21.3440 F   0  0  0  0  0  0  0  0  0  0  0  0
  -21.3820   -3.7320   26.0080 F   0  0  0  0  0  0  0  0  0  0  0  0
  -22.7360  -13.5990   21.1680 C   0  0  0  0  0  0  0  0  0  0  0  0
  -22.0060  -12.9060   22.0350 N   0  0  0  0  0  0  0  0  0  0  0  0
  -22.3000  -14.6230   20.6440 O   0  0  0  0  0  0  0  0  0  0  0  0
  -22.3700  -12.0770   22.4800 H   0  0  0  0  0  0  0  0  0  0  0  0
  -21.0680  -13.2100   22.2540 H   0  0  0  0  0  0  0  0  0  0  0  0
  -25.3600  -15.2630   20.3460 N   0  0  0  0  0  0  0  0  0  0  0  0
  -24.5860  -15.9090   20.4530 H   0  0  0  0  0  0  0  0  0  0  0  0
  -26.1930  -15.7110   19.9850 H   0  0  0  0  0  0  0  0  0  0  0  0
  -27.5970  -20.7010   19.2550 C   0  0  0  0  0  1  0  0  0  0  0  0
  -28.7700  -20.9990   20.0730 N   0  0  0  0  0  0  0  0  0  0  0  0
  -28.7420  -22.3330   20.8090 C   0  0  0  0  0  2  0  0  0  0  0  0
  -28.6620  -23.7380   19.9990 C   0  0  0  0  0  3  0  0  0  0  0  0
  -28.2200  -25.0730   20.7990 C   0  0  0  0  0  3  0  0  0  0  0  0
  -28.3760  -26.4600   20.2520 O   0  0  0  0  0  0  0  0  0  0  0  0
  -24.6220  -31.9050   23.2540 C   0  0  0  0  0  0  0  0  0  0  0  0
  -27.2630  -27.3190   20.2460 C   0  0  0  0  0  0  0  0  0  0  0  0
  -23.4330  -30.4930   21.6140 C   0  0  0  0  0  3  0  0  0  0  0  0
  -24.8960  -28.9320   20.2090 C   0  0  0  0  0  0  0  0  0  0  0  0
  -25.9730  -30.8160   21.4420 C   0  0  0  0  0  2  0  0  0  0  0  0
  -26.0620  -29.4310   20.8050 C   0  0  0  0  0  0  0  0  0  0  0  0
  -27.2520  -28.6370   20.8070 C   0  0  0  0  0  3  0  0  0  0  0  0
  -26.0750  -26.8750   19.6290 C   0  0  0  0  0  3  0  0  0  0  0  0
  -24.9060  -27.6620   19.6100 C   0  0  0  0  0  3  0  0  0  0  0  0
  -23.6570  -29.8050   20.2410 C   0  0  0  0  0  2  0  0  0  0  0  0
  -24.6950  -31.0900   22.1600 N   0  0  0  0  0  0  0  0  0  0  0  0
  -23.5350  -32.1820   23.7810 O   0  0  0  0  0  0  0  0  0  0  0  0
  -22.7660  -29.4820   22.5780 C   0  0  0  0  0  0  0  0  0  0  0  0
  -21.4390  -29.3060   22.4510 N   0  0  0  0  0  0  0  0  0  0  0  0
  -23.4420  -28.8570   23.4000 O   0  0  0  0  0  0  0  0  0  0  0  0
  -20.9530  -29.8630   21.7620 H   0  0  0  0  0  0  0  0  0  0  0  0
  -18.0600  -28.1170   22.9540 C   0  0  0  0  0  0  0  0  0  0  0  0
  -20.6180  -28.3710   23.2230 C   0  0  0  0  0  3  0  0  0  0  0  0
  -20.7170  -26.9390   22.6490 C   0  0  0  0  0  2  0  0  0  0  0  0
  -19.6140  -26.6170   21.6360 C   0  0  0  0  0  2  0  0  0  0  0  0
  -18.2330  -26.7670   22.2800 C   0  0  0  0  0  2  0  0  0  0  0  0
  -19.1800  -28.8780   23.3830 C   0  0  0  0  0  0  0  0  0  0  0  0
  -18.9630  -30.1420   23.9740 C   0  0  0  0  0  3  0  0  0  0  0  0
  -17.6590  -30.6450   24.1400 C   0  0  0  0  0  3  0  0  0  0  0  0
  -16.5530  -29.8810   23.7280 C   0  0  0  0  0  3  0  0  0  0  0  0
  -16.7540  -28.6190   23.1410 C   0  0  0  0  0  3  0  0  0  0  0  0
  -25.8980  -32.5460   23.8800 C   0  0  0  0  0  3  0  0  0  0  0  0
  -26.4060  -31.7880   25.1680 C   0  0  1  0  0  0  0  0  0  0  0  0
  -25.3060  -31.5590   26.2310 C   0  0  0  0  0  1  0  0  0  0  0  0
  -26.9920  -30.4070   24.7950 C   0  0  0  0  0  1  0  0  0  0  0  0
  -27.5520  -32.5890   25.8300 C   0  0  0  0  0  1  0  0  0  0  0  0
  -25.5840  -33.9480   24.1980 N   0  0  0  0  0  0  0  0  0  0  0  0
  -25.9150  -34.9960   23.4330 C   0  0  0  0  0  0  0  0  0  0  0  0
  -26.5890  -34.8860   22.4050 O   0  0  0  0  0  0  0  0  0  0  0  0
  -24.9850  -34.1060   24.9970 H   0  0  0  0  0  0  0  0  0  0  0  0
  -24.1840  -36.7830   23.0620 C   0  0  0  0  0  1  0  0  0  0  0  0
  -25.4240  -36.3870   23.8800 C   0  0  0  0  0  3  0  0  0  0  0  0
  -27.5560  -37.2820   24.7060 C   0  0  0  0  0  1  0  0  0  0  0  0
  -26.4540  -37.4420   23.7600 N   0  0  0  0  0  0  0  0  0  0  0  0
  -26.0460  -38.3620   23.9030 H   0  0  0  0  0  0  0  0  0  0  0  0
  1  5  1  0
  2  5  2  0
  3  1  2  0
  4  2  1  0
  5  7  1  0
  6  4  2  0
  6  3  1  0
  8  6  1  0
  9 17  1  0
 10 15  1  0
 11 12  1  0
 11 10  1  0
 13 12  1  0
 13 22  1  0
 13 14  1  0
 15  9  1  0
 15 14  1  0
 16  9  2  0
 17 18  1  0
 17  3  1  0
 19 20  2  0
 20 39  1  0
 21 20  1  0
 21 24  1  0
 22 19  1  0
 22 23  1  0
 23 21  2  0
 24 25  1  0
 25 26  2  0
 27 30  1  0
 27 26  1  0
 28 27  2  0
 29 28  1  0
 29 24  2  0
 30 31  1  0
 31 32  1  0
 32 33  2  0
 34 33  1  0
 34 38  1  0
 35 34  2  0
 36 31  2  0
 36 35  1  0
 37 36  1  0
 39 40  1  0
 40 43  1  0
 40 42  1  0
 41 39  2  0
 44 45  1  0
 44 19  1  0
 46 44  1  0
 47 48  1  0
 48  4  1  0
 48 49  1  0
 50 51  2  0
 50 49  1  0
 52 51  1  0
 53 64  2  0
 54 52  1  0
 54 59  1  0
 55 63  1  0
 55 65  1  0
 56 62  1  0
 56 58  1  0
 57 63  1  0
 58 59  2  0
 58 57  1  0
 60 54  2  0
 61 60  1  0
 61 56  2  0
 62 55  1  0
 63 53  1  0
 65 67  2  0
 66 65  1  0
 68 66  1  0
 69 78  2  0
 69 74  1  0
 70 66  1  0
 70 74  1  0
 71 70  1  0
 72 73  1  0
 72 71  1  0
 73 69  1  0
 74 75  2  0
 75 76  1  0
 77 76  2  0
 78 77  1  0
 79 53  1  0
 79 84  1  0
 79 80  1  0
 80 83  1  1
 80 81  1  0
 82 80  1  0
 84 87  1  0
 85 89  1  0
 85 84  1  0
 86 85  2  0
 89 88  1  0
 91 89  1  0
 91 92  1  0
 91 90  1  0
M  ISO  4   9 100  17 100  51 101  52 101
M  END
>  <TORSDO>  (26) 
F 20

>  <SCORE>  (26) 
-14.254

>  <name>  (26) 
25

>  <ligand_id>  (26) 
25

>  <original_smiles>  (26) 
[H]c1c([H])c([H])c2c(c1[H])C([H])([H])C([H])([H])C([H])([H])C2([H])N([H])C(=O)C1([H])N(C(=O)C([H])(N([H])C(=O)C([H])(N([H])C([H])([H])[H])C([H])([H])[H])C(C([H])([H])[H])(C([H])([H])[H])C([H])([H])[H])C([H])([H])c2c([H])c(OC([H])([H])C([H])([H])C([H])([H])N(c3c([H])c(F)c([H])c(N([H])C(=O)N4C([H])([H])C([H])([H])C([H])([H])C([H])(n5nc(-c6c([H])c([H])c(Oc7c([H])c([H])c(F)c([H])c7F)c([H])c6[H])c(C(=O)N([H])[H])c5N([H])[H])C4([H])[H])c3F)C([H])([H])[H])c([H])c([H])c2C1([H])[H]

>  <smiles>  (26) 
[H]c1c([H])c([H])c2c(c1[H])C([H])([H])C([H])([H])C([H])([H])C2([H])N([H])C(=O)C1([H])N(C(=O)C([H])(N([H])C(=O)C([H])(N([H])C([H])([H])[H])C([H])([H])[H])C(C([H])([H])[H])(C([H])([H])[H])C([H])([H])[H])C([H])([H])c2c([H])c(OC([H])([H])C([H])([H])C([H])([H])N(c3c([H])c(F)c([H])c(N([H])C(=O)N4C([H])([H])C([H])([H])C([H])([H])C([H])(n5nc(-c6c([H])c([H])c(Oc7c([H])c([H])c(F)c([H])c7F)c([H])c6[H])c(C(=O)N([H])[H])c5N([H])[H])C4([H])[H])c3F)C([H])([H])[H])c([H])c([H])c2C1([H])[H]

$$$$
26:0:0
     RDKit          3D

 94102  0  0  1  0  0  0  0  0999 V2000
  -28.3750  -21.0320   21.3040 C   0  0  0  0  0  0  0  0  0  0  0  0
  -28.1590  -22.2460   20.7880 N   0  0  0  0  0  0  0  0  0  0  0  0
  -28.4120  -20.8050   22.5150 O   0  0  0  0  0  0  0  0  0  0  0  0
  -28.1870  -22.3430   19.7820 H   0  0  0  0  0  0  0  0  0  0  0  0
  -28.3010  -18.7320   18.2350 C   0  0  0  0  0  3  0  0  0  0  0  0
  -28.0440  -19.8420   19.0690 C   0  0  0  0  0  3  0  0  0  0  0  0
  -29.1700  -17.7070   18.6530 C   0  0  0  0  0  3  0  0  0  0  0  0
  -29.5400  -18.9060   20.7380 C   0  0  0  0  0  3  0  0  0  0  0  0
  -28.6700  -19.9290   20.3310 C   0  0  0  0  0  0  0  0  0  0  0  0
  -29.7920  -17.7910   19.9190 C   0  0  0  0  0  0  0  0  0  0  0  0
  -30.6830  -16.6980   20.4910 C   0  0  0  0  0  2  0  0  0  0  0  0
  -32.0520  -14.7590   20.0840 C   0  0  0  0  0  0  0  0  0  0  0  0
  -31.6400  -12.4730   19.3690 C   0  0  0  0  0  2  0  0  0  0  0  0
  -30.6960  -12.5420   18.1510 C   0  0  0  0  0  2  0  0  0  0  0  0
  -29.2180  -12.5520   18.5970 C   0  0  0  0  0  2  0  0  0  0  0  0
  -28.9250  -13.5940   19.7090 C   0  0  0  0  0  3  0  0  0  0  0  0
  -29.9870  -13.4780   20.8270 C   0  0  0  0  0  2  0  0  0  0  0  0
  -31.3110  -13.6290   20.2060 N   0  0  0  0  0  0  0  0  0  0  0  0
  -33.2710  -14.7250   19.9020 O   0  0  0  0  0  0  0  0  0  0  0  0
  -31.8800  -16.4040   18.3120 C   0  0  0  0  0  1  0  0  0  0  0  0
  -31.3700  -15.8000   19.5610 N   0  0  0  0  0  0  0  0  0  0  0  0
  -26.6400  -14.4550   20.5360 C   0  0  0  0  0  0  0  0  0  0  0  0
  -25.4900  -13.8000   20.8750 C   0  0  0  0  0  0  0  0  0  0  0  0
  -25.7740  -12.4060   20.7360 C   0  0  0  0  0  0  0  0  0  0  0  0
  -27.5610  -13.4680   20.2170 N   0  0  0  0  0  0  0  0  0  0  0  0
  -27.0420  -12.2270   20.3930 N   0  0  0  0  0  0  0  0  0  0  0  0
  -24.8990  -11.2370   20.8580 C   0  0  0  0  0  0  0  0  0  0  0  0
  -25.1970  -10.1830   21.7500 C   0  0  0  0  0  3  0  0  0  0  0  0
  -24.3310   -9.0760   21.8610 C   0  0  0  0  0  3  0  0  0  0  0  0
  -23.1520   -9.0150   21.0850 C   0  0  0  0  0  0  0  0  0  0  0  0
  -22.8750  -10.0530   20.1780 C   0  0  0  0  0  3  0  0  0  0  0  0
  -23.7380  -11.1540   20.0630 C   0  0  0  0  0  3  0  0  0  0  0  0
  -22.2650   -7.9650   21.1110 O   0  0  0  0  0  0  0  0  0  0  0  0
  -22.0050   -7.2700   22.2640 C   0  0  0  0  0  0  0  0  0  0  0  0
  -21.4850   -7.9040   23.4130 C   0  0  0  0  0  3  0  0  0  0  0  0
  -21.1630   -7.1420   24.5540 C   0  0  0  0  0  3  0  0  0  0  0  0
  -21.3520   -5.7470   24.5460 C   0  0  0  0  0  0  0  0  0  0  0  0
  -21.8650   -5.1130   23.4010 C   0  0  0  0  0  3  0  0  0  0  0  0
  -22.1880   -5.8720   22.2620 C   0  0  0  0  0  0  0  0  0  0  0  0
  -22.6600   -5.2540   21.1520 F   0  0  0  0  0  0  0  0  0  0  0  0
  -21.0400   -5.0110   25.6390 F   0  0  0  0  0  0  0  0  0  0  0  0
  -24.1690  -14.4250   21.2240 C   0  0  0  0  0  0  0  0  0  0  0  0
  -23.3940  -13.7820   22.0880 N   0  0  0  0  0  0  0  0  0  0  0  0
  -23.8380  -15.5180   20.7630 O   0  0  0  0  0  0  0  0  0  0  0  0
  -23.6750  -12.8920   22.4740 H   0  0  0  0  0  0  0  0  0  0  0  0
  -22.5070  -14.1800   22.3680 H   0  0  0  0  0  0  0  0  0  0  0  0
  -26.9770  -15.8030   20.4600 N   0  0  0  0  0  0  0  0  0  0  0  0
  -26.3130  -16.5340   20.6870 H   0  0  0  0  0  0  0  0  0  0  0  0
  -27.8950  -16.1670   20.2390 H   0  0  0  0  0  0  0  0  0  0  0  0
  -27.9140  -23.4400   21.5930 C   0  0  0  0  0  2  0  0  0  0  0  0
  -28.8270  -24.6060   21.1980 C   0  0  0  0  0  2  0  0  0  0  0  0
  -28.3220  -25.3410   19.9530 C   0  0  0  0  0  2  0  0  0  0  0  0
  -28.9000  -26.7520   19.7800 C   0  0  0  0  0  2  0  0  0  0  0  0
  -28.2520  -27.3810   18.6830 O   0  0  0  0  0  0  0  0  0  0  0  0
  -24.5490  -31.6500   23.0280 C   0  0  0  0  0  0  0  0  0  0  0  0
  -27.0610  -27.9880   18.9890 C   0  0  0  0  0  0  0  0  0  0  0  0
  -23.2380  -30.4410   21.3110 C   0  0  0  0  0  3  0  0  0  0  0  0
  -24.5980  -29.2510   19.5120 C   0  0  0  0  0  0  0  0  0  0  0  0
  -25.6950  -31.0100   20.9120 C   0  0  0  0  0  2  0  0  0  0  0  0
  -25.7810  -29.7640   20.0590 C   0  0  0  0  0  0  0  0  0  0  0  0
  -27.0160  -29.1330   19.8090 C   0  0  0  0  0  3  0  0  0  0  0  0
  -25.8700  -27.4780   18.4390 C   0  0  0  0  0  3  0  0  0  0  0  0
  -24.6330  -28.0970   18.7060 C   0  0  0  0  0  3  0  0  0  0  0  0
  -23.3220  -29.9950   19.8260 C   0  0  0  0  0  2  0  0  0  0  0  0
  -24.5180  -31.0390   21.8100 N   0  0  0  0  0  0  0  0  0  0  0  0
  -23.5280  -31.7610   23.7170 O   0  0  0  0  0  0  0  0  0  0  0  0
  -22.7560  -29.2420   22.1560 C   0  0  0  0  0  0  0  0  0  0  0  0
  -21.4450  -28.9520   22.0920 N   0  0  0  0  0  0  0  0  0  0  0  0
  -23.5530  -28.5810   22.8230 O   0  0  0  0  0  0  0  0  0  0  0  0
  -20.8540  -29.5470   21.5300 H   0  0  0  0  0  0  0  0  0  0  0  0
  -18.2640  -27.2970   22.5080 C   0  0  0  0  0  0  0  0  0  0  0  0
  -20.7790  -27.8360   22.7640 C   0  0  0  0  0  3  0  0  0  0  0  0
  -21.0350  -26.5010   22.0240 C   0  0  0  0  0  2  0  0  0  0  0  0
  -19.9490  -26.1600   20.9990 C   0  0  0  0  0  2  0  0  0  0  0  0
  -18.5810  -26.0650   21.6790 C   0  0  0  0  0  2  0  0  0  0  0  0
  -19.2950  -28.1400   23.0040 C   0  0  0  0  0  0  0  0  0  0  0  0
  -18.9440  -29.2960   23.7350 C   0  0  0  0  0  3  0  0  0  0  0  0
  -17.5940  -29.6160   23.9740 C   0  0  0  0  0  3  0  0  0  0  0  0
  -16.5780  -28.7700   23.4960 C   0  0  0  0  0  3  0  0  0  0  0  0
  -16.9130  -27.6110   22.7710 C   0  0  0  0  0  3  0  0  0  0  0  0
  -25.8660  -32.2630   23.6010 C   0  0  0  0  0  3  0  0  0  0  0  0
  -25.5610  -33.6260   24.0540 N   0  0  0  0  0  0  0  0  0  0  0  0
  -25.8590  -34.7390   23.3720 C   0  0  0  0  0  0  0  0  0  0  0  0
  -26.4940  -34.7280   22.3120 O   0  0  0  0  0  0  0  0  0  0  0  0
  -24.9890  -33.7060   24.8820 H   0  0  0  0  0  0  0  0  0  0  0  0
  -24.1100  -36.5400   23.2140 C   0  0  0  0  0  1  0  0  0  0  0  0
  -25.3750  -36.0790   23.9550 C   0  0  0  0  0  3  0  0  0  0  0  0
  -27.5220  -36.9130   24.8050 C   0  0  0  0  0  1  0  0  0  0  0  0
  -26.3980  -37.1460   23.9030 N   0  0  0  0  0  0  0  0  0  0  0  0
  -25.9880  -38.0480   24.1320 H   0  0  0  0  0  0  0  0  0  0  0  0
  -26.4890  -31.4090   24.7730 C   0  0  1  0  0  0  0  0  0  0  0  0
  -25.4840  -31.0800   25.9010 C   0  0  0  0  0  1  0  0  0  0  0  0
  -27.0530  -30.0740   24.2350 C   0  0  0  0  0  1  0  0  0  0  0  0
  -27.6790  -32.1720   25.4040 C   0  0  0  0  0  1  0  0  0  0  0  0
  1  3  2  0
  2  1  1  0
  2 50  1  0
  4  2  1  0
  5  7  2  0
  5  6  1  0
  6  9  2  0
  7 10  1  0
  9  8  1  0
  9  1  1  0
 10 11  1  0
 10  8  2  0
 12 18  1  0
 13 18  1  0
 14 15  1  0
 14 13  1  0
 16 15  1  0
 16 25  1  0
 16 17  1  0
 18 17  1  0
 19 12  2  0
 20 21  1  0
 21 12  1  0
 21 11  1  0
 22 23  2  0
 23 42  1  0
 24 27  1  0
 24 23  1  0
 25 26  1  0
 25 22  1  0
 26 24  2  0
 27 28  1  0
 28 29  2  0
 30 33  1  0
 30 29  1  0
 31 30  2  0
 32 31  1  0
 32 27  2  0
 33 34  1  0
 34 35  1  0
 35 36  2  0
 37 36  1  0
 37 41  1  0
 38 37  2  0
 39 34  2  0
 39 38  1  0
 40 39  1  0
 42 43  1  0
 43 46  1  0
 43 45  1  0
 44 42  2  0
 47 22  1  0
 47 48  1  0
 49 47  1  0
 51 50  1  0
 52 51  1  0
 53 52  1  0
 54 56  1  0
 54 53  1  0
 55 66  2  0
 56 61  1  0
 57 65  1  0
 57 67  1  0
 58 64  1  0
 58 60  1  0
 59 65  1  0
 60 59  1  0
 61 60  2  0
 62 63  1  0
 62 56  2  0
 63 58  2  0
 64 57  1  0
 65 55  1  0
 67 69  2  0
 68 67  1  0
 70 68  1  0
 71 80  2  0
 71 76  1  0
 72 68  1  0
 72 76  1  0
 73 72  1  0
 74 75  1  0
 74 73  1  0
 75 71  1  0
 76 77  2  0
 77 78  1  0
 79 78  2  0
 80 79  1  0
 81 55  1  0
 81 82  1  0
 81 91  1  0
 82 85  1  0
 83 87  1  0
 83 82  1  0
 84 83  2  0
 87 86  1  0
 89 87  1  0
 89 90  1  0
 89 88  1  0
 91 94  1  1
 91 92  1  0
 93 91  1  0
M  ISO  4  12 100  21 100  53 101  54 101
M  END
>  <TORSDO>  (27) 
F 22

>  <SCORE>  (27) 
-9.204

>  <name>  (27) 
26

>  <ligand_id>  (27) 
26

>  <original_smiles>  (27) 
[H]c1c([H])c(C(=O)N([H])C([H])([H])C([H])([H])C([H])([H])C([H])([H])Oc2c([H])c([H])c3c(c2[H])C([H])([H])N(C(=O)C([H])(N([H])C(=O)C([H])(N([H])C([H])([H])[H])C([H])([H])[H])C(C([H])([H])[H])(C([H])([H])[H])C([H])([H])[H])C([H])(C(=O)N([H])C2([H])c4c([H])c([H])c([H])c([H])c4C([H])([H])C([H])([H])C2([H])[H])C3([H])[H])c([H])c(C([H])([H])N(C(=O)N2C([H])([H])C([H])([H])C([H])([H])C([H])(n3nc(-c4c([H])c([H])c(Oc5c([H])c([H])c(F)c([H])c5F)c([H])c4[H])c(C(=O)N([H])[H])c3N([H])[H])C2([H])[H])C([H])([H])[H])c1[H]

>  <smiles>  (27) 
[H]c1c([H])c(C(=O)N([H])C([H])([H])C([H])([H])C([H])([H])C([H])([H])Oc2c([H])c([H])c3c(c2[H])C([H])([H])N(C(=O)C([H])(N([H])C(=O)C([H])(N([H])C([H])([H])[H])C([H])([H])[H])C(C([H])([H])[H])(C([H])([H])[H])C([H])([H])[H])C([H])(C(=O)N([H])C2([H])c4c([H])c([H])c([H])c([H])c4C([H])([H])C([H])([H])C2([H])[H])C3([H])[H])c([H])c(C([H])([H])N(C(=O)N2C([H])([H])C([H])([H])C([H])([H])C([H])(n3nc(-c4c([H])c([H])c(Oc5c([H])c([H])c(F)c([H])c5F)c([H])c4[H])c(C(=O)N([H])[H])c3N([H])[H])C2([H])[H])C([H])([H])[H])c1[H]

$$$$
27:0:0
     RDKit          3D

 95103  0  0  1  0  0  0  0  0999 V2000
  -29.8880  -22.1050   19.7110 N   0  0  1  0  0  4  0  0  0  0  0  0
  -29.0680  -22.2170   20.2880 H   0  0  0  0  0  0  0  0  0  0  0  0
  -30.8400  -21.2820   20.5340 C   0  0  0  0  0  2  0  0  0  0  0  0
  -29.6490  -19.1420   21.3530 C   0  0  0  0  0  3  0  0  0  0  0  0
  -31.5050  -18.9200   19.8120 C   0  0  0  0  0  3  0  0  0  0  0  0
  -29.5220  -17.7320   21.3950 C   0  0  0  0  0  3  0  0  0  0  0  0
  -31.3790  -17.5140   19.8530 C   0  0  0  0  0  3  0  0  0  0  0  0
  -30.6440  -19.7530   20.5600 C   0  0  0  0  0  0  0  0  0  0  0  0
  -30.3860  -16.8890   20.6530 C   0  0  0  0  0  0  0  0  0  0  0  0
  -30.8320  -14.4530   20.1090 C   0  0  0  0  0  0  0  0  0  0  0  0
  -30.4290  -12.3320   18.9150 C   0  0  0  0  0  2  0  0  0  0  0  0
  -29.4190  -12.5920   17.7780 C   0  0  0  0  0  2  0  0  0  0  0  0
  -27.9740  -12.4490   18.2940 C   0  0  0  0  0  2  0  0  0  0  0  0
  -27.7260  -13.2490   19.6010 C   0  0  0  0  0  3  0  0  0  0  0  0
  -28.8440  -12.9830   20.6350 C   0  0  0  0  0  2  0  0  0  0  0  0
  -30.1370  -13.2870   19.9990 N   0  0  0  0  0  0  0  0  0  0  0  0
  -31.9380  -14.6030   19.5820 O   0  0  0  0  0  0  0  0  0  0  0  0
  -30.1790  -15.4660   20.7270 N   0  0  0  0  0  0  0  0  0  0  0  0
  -29.3380  -15.1760   21.2020 H   0  0  0  0  0  0  0  0  0  0  0  0
  -25.3750  -13.8610   20.4490 C   0  0  0  0  0  0  0  0  0  0  0  0
  -24.3240  -13.0890   20.8690 C   0  0  0  0  0  0  0  0  0  0  0  0
  -24.7740  -11.7360   20.7950 C   0  0  0  0  0  0  0  0  0  0  0  0
  -26.4000  -12.9770   20.1520 N   0  0  0  0  0  0  0  0  0  0  0  0
  -26.0440  -11.6940   20.4150 N   0  0  0  0  0  0  0  0  0  0  0  0
  -24.0530  -10.4760   21.0120 C   0  0  0  0  0  0  0  0  0  0  0  0
  -24.4840   -9.5330   21.9700 C   0  0  0  0  0  3  0  0  0  0  0  0
  -23.7630   -8.3360   22.1720 C   0  0  0  0  0  3  0  0  0  0  0  0
  -22.5970   -8.0730   21.4140 C   0  0  0  0  0  0  0  0  0  0  0  0
  -22.1860   -9.0040   20.4440 C   0  0  0  0  0  3  0  0  0  0  0  0
  -22.9070  -10.1920   20.2410 C   0  0  0  0  0  3  0  0  0  0  0  0
  -21.8470   -6.9270   21.5240 O   0  0  0  0  0  0  0  0  0  0  0  0
  -21.7210   -6.2610   22.7160 C   0  0  0  0  0  0  0  0  0  0  0  0
  -21.1610   -6.8760   23.8580 C   0  0  0  0  0  3  0  0  0  0  0  0
  -20.9860   -6.1340   25.0420 C   0  0  0  0  0  3  0  0  0  0  0  0
  -21.3590   -4.7770   25.0870 C   0  0  0  0  0  0  0  0  0  0  0  0
  -21.9120   -4.1630   23.9500 C   0  0  0  0  0  3  0  0  0  0  0  0
  -22.0900   -4.9010   22.7680 C   0  0  0  0  0  0  0  0  0  0  0  0
  -22.6030   -4.2980   21.6680 F   0  0  0  0  0  0  0  0  0  0  0  0
  -21.1840   -4.0630   26.2240 F   0  0  0  0  0  0  0  0  0  0  0  0
  -22.9480  -13.5710   21.2270 C   0  0  0  0  0  0  0  0  0  0  0  0
  -22.2690  -12.8700   22.1280 N   0  0  0  0  0  0  0  0  0  0  0  0
  -22.4850  -14.6020   20.7410 O   0  0  0  0  0  0  0  0  0  0  0  0
  -22.6560  -12.0330   22.5390 H   0  0  0  0  0  0  0  0  0  0  0  0
  -21.3460  -13.1720   22.4100 H   0  0  0  0  0  0  0  0  0  0  0  0
  -25.5390  -15.2330   20.2780 N   0  0  0  0  0  0  0  0  0  0  0  0
  -24.7840  -15.8930   20.4320 H   0  0  0  0  0  0  0  0  0  0  0  0
  -26.3760  -15.6680   19.9110 H   0  0  0  0  0  0  0  0  0  0  0  0
  -30.4370  -23.4740   19.4160 C   0  0  0  0  0  2  0  0  0  0  0  0
  -29.8640  -24.6450   20.2620 C   0  0  0  0  0  2  0  0  0  0  0  0
  -28.6400  -25.3750   19.6520 C   0  0  0  0  0  2  0  0  0  0  0  0
  -28.5100  -26.6800   20.2380 O   0  0  0  0  0  0  0  0  0  0  0  0
  -24.5640  -31.7920   23.2010 C   0  0  0  0  0  0  0  0  0  0  0  0
  -27.3120  -27.3690   20.1650 C   0  0  0  0  0  0  0  0  0  0  0  0
  -23.4030  -30.3870   21.5290 C   0  0  0  0  0  3  0  0  0  0  0  0
  -24.8990  -28.8620   20.1290 C   0  0  0  0  0  0  0  0  0  0  0  0
  -25.9310  -30.7590   21.3900 C   0  0  0  0  0  2  0  0  0  0  0  0
  -26.0380  -29.3890   20.7500 C   0  0  0  0  0  0  0  0  0  0  0  0
  -27.2400  -28.6460   20.7710 C   0  0  0  0  0  3  0  0  0  0  0  0
  -26.1530  -26.8610   19.5290 C   0  0  0  0  0  3  0  0  0  0  0  0
  -24.9520  -27.5960   19.5190 C   0  0  0  0  0  3  0  0  0  0  0  0
  -23.6470  -29.7120   20.1530 C   0  0  0  0  0  2  0  0  0  0  0  0
  -24.6490  -30.9950   22.0990 N   0  0  0  0  0  0  0  0  0  0  0  0
  -23.4690  -32.0590   23.7170 O   0  0  0  0  0  0  0  0  0  0  0  0
  -22.7380  -29.3600   22.4720 C   0  0  0  0  0  0  0  0  0  0  0  0
  -21.4170  -29.1740   22.3170 N   0  0  0  0  0  0  0  0  0  0  0  0
  -23.4050  -28.7300   23.2980 O   0  0  0  0  0  0  0  0  0  0  0  0
  -20.9400  -29.7340   21.6230 H   0  0  0  0  0  0  0  0  0  0  0  0
  -18.0320  -27.9850   22.7480 C   0  0  0  0  0  0  0  0  0  0  0  0
  -20.5860  -28.2300   23.0640 C   0  0  0  0  0  3  0  0  0  0  0  0
  -20.6940  -26.8060   22.4730 C   0  0  0  0  0  2  0  0  0  0  0  0
  -19.6070  -26.5000   21.4380 C   0  0  0  0  0  2  0  0  0  0  0  0
  -18.2150  -26.6420   22.0610 C   0  0  0  0  0  2  0  0  0  0  0  0
  -19.1470  -28.7390   23.2040 C   0  0  0  0  0  0  0  0  0  0  0  0
  -18.9230  -29.9980   23.8020 C   0  0  0  0  0  3  0  0  0  0  0  0
  -17.6180  -30.5020   23.9530 C   0  0  0  0  0  3  0  0  0  0  0  0
  -16.5180  -29.7450   23.5130 C   0  0  0  0  0  3  0  0  0  0  0  0
  -16.7260  -28.4900   22.9160 C   0  0  0  0  0  3  0  0  0  0  0  0
  -25.8310  -32.4270   23.8530 C   0  0  0  0  0  3  0  0  0  0  0  0
  -25.5070  -33.8200   24.1840 N   0  0  0  0  0  0  0  0  0  0  0  0
  -25.8340  -34.8780   23.4290 C   0  0  0  0  0  0  0  0  0  0  0  0
  -26.5100  -34.7830   22.4020 O   0  0  0  0  0  0  0  0  0  0  0  0
  -24.8990  -33.9650   24.9760 H   0  0  0  0  0  0  0  0  0  0  0  0
  -24.0850  -36.6520   23.0710 C   0  0  0  0  0  1  0  0  0  0  0  0
  -25.3280  -36.2600   23.8870 C   0  0  0  0  0  3  0  0  0  0  0  0
  -27.4460  -37.1720   24.7290 C   0  0  0  0  0  1  0  0  0  0  0  0
  -26.3490  -37.3240   23.7770 N   0  0  0  0  0  0  0  0  0  0  0  0
  -25.9310  -38.2400   23.9190 H   0  0  0  0  0  0  0  0  0  0  0  0
  -26.3300  -31.6500   25.1320 C   0  0  1  0  0  0  0  0  0  0  0  0
  -25.2170  -31.3950   26.1770 C   0  0  0  0  0  1  0  0  0  0  0  0
  -26.9330  -30.2820   24.7390 C   0  0  0  0  0  1  0  0  0  0  0  0
  -27.4610  -32.4480   25.8220 C   0  0  0  0  0  1  0  0  0  0  0  0
  -29.3900  -21.4350   18.4750 C   0  0  0  0  0  2  0  0  0  0  0  0
  -27.6040  -21.2890   16.6840 C   0  0  0  0  0  1  0  0  0  0  0  0
  -26.9310  -21.8710   19.0490 C   0  0  0  0  0  1  0  0  0  0  0  0
  -28.0320  -21.9940   17.9810 C   0  0  0  0  0  3  0  0  0  0  0  0
  1  2  1  1
  1  3  1  0
  3  8  1  0
  4  6  1  0
  5  7  2  0
  5  8  1  0
  7  9  1  0
  8  4  2  0
  9 18  1  0
  9  6  2  0
 10 18  1  0
 11 16  1  0
 12 13  1  0
 12 11  1  0
 14 13  1  0
 14 23  1  0
 14 15  1  0
 16 10  1  0
 16 15  1  0
 17 10  2  0
 18 19  1  0
 20 21  2  0
 21 40  1  0
 22 21  1  0
 22 25  1  0
 23 24  1  0
 23 20  1  0
 24 22  2  0
 25 26  1  0
 26 27  2  0
 28 31  1  0
 28 27  1  0
 29 28  2  0
 30 29  1  0
 30 25  2  0
 31 32  1  0
 32 37  2  0
 32 33  1  0
 33 34  2  0
 34 35  1  0
 35 39  1  0
 36 35  2  0
 37 36  1  0
 38 37  1  0
 40 41  1  0
 41 44  1  0
 41 43  1  0
 42 40  2  0
 45 46  1  0
 45 20  1  0
 47 45  1  0
 48  1  1  0
 48 49  1  0
 50 51  1  0
 50 49  1  0
 52 63  2  0
 53 51  1  0
 53 58  1  0
 54 62  1  0
 54 64  1  0
 55 61  1  0
 55 57  1  0
 56 62  1  0
 57 58  2  0
 57 56  1  0
 59 53  2  0
 60 59  1  0
 60 55  2  0
 61 54  1  0
 62 52  1  0
 64 66  2  0
 65 64  1  0
 67 65  1  0
 68 77  2  0
 68 73  1  0
 69 65  1  0
 69 73  1  0
 70 69  1  0
 71 72  1  0
 71 70  1  0
 72 68  1  0
 73 74  2  0
 74 75  1  0
 76 75  2  0
 77 76  1  0
 78 52  1  0
 78 79  1  0
 78 88  1  0
 79 82  1  0
 80 84  1  0
 80 79  1  0
 81 80  2  0
 84 83  1  0
 86 84  1  0
 86 87  1  0
 86 85  1  0
 88 91  1  1
 88 89  1  0
 90 88  1  0
 92  1  1  0
 93 95  1  0
 95 92  1  0
 95 94  1  0
M  ISO  4  10 100  18 100  50 101  51 101
M  END
>  <TORSDO>  (28) 
F 23

>  <SCORE>  (28) 
-11.562

>  <name>  (28) 
27

>  <ligand_id>  (28) 
27

>  <original_smiles>  (28) 
[H]c1c([H])c([H])c2c(c1[H])C([H])([H])C([H])([H])C([H])([H])C2([H])N([H])C(=O)C1([H])N(C(=O)C([H])(N([H])C(=O)C([H])(N([H])C([H])([H])[H])C([H])([H])[H])C(C([H])([H])[H])(C([H])([H])[H])C([H])([H])[H])C([H])([H])c2c([H])c(OC([H])([H])C([H])([H])C([H])([H])[N+]([H])(C([H])([H])c3c([H])c([H])c(N([H])C(=O)N4C([H])([H])C([H])([H])C([H])([H])C([H])(n5nc(-c6c([H])c([H])c(Oc7c([H])c([H])c(F)c([H])c7F)c([H])c6[H])c(C(=O)N([H])[H])c5N([H])[H])C4([H])[H])c([H])c3[H])C([H])([H])C([H])(C([H])([H])[H])C([H])([H])[H])c([H])c([H])c2C1([H])[H]

>  <smiles>  (28) 
[H]c1c([H])c([H])c2c(c1[H])C([H])([H])C([H])([H])C([H])([H])C2([H])N([H])C(=O)C1([H])N(C(=O)C([H])(N([H])C(=O)C([H])(N([H])C([H])([H])[H])C([H])([H])[H])C(C([H])([H])[H])(C([H])([H])[H])C([H])([H])[H])C([H])([H])c2c([H])c(OC([H])([H])C([H])([H])C([H])([H])[N+]([H])(C([H])([H])c3c([H])c([H])c(N([H])C(=O)N4C([H])([H])C([H])([H])C([H])([H])C([H])(n5nc(-c6c([H])c([H])c(Oc7c([H])c([H])c(F)c([H])c7F)c([H])c6[H])c(C(=O)N([H])[H])c5N([H])[H])C4([H])[H])c([H])c3[H])C([H])([H])C([H])(C([H])([H])[H])C([H])([H])[H])c([H])c([H])c2C1([H])[H]

$$$$
28:0:0
     RDKit          3D

 88 97  0  0  1  0  0  0  0  0999 V2000
  -29.8970  -20.9340   18.6200 C   0  0  0  0  0  3  0  0  0  0  0  0
  -29.4640  -22.3090   18.9090 C   0  0  0  0  0  3  0  0  0  0  0  0
  -28.6410  -21.5450   20.9550 C   0  0  0  0  0  3  0  0  0  0  0  0
  -29.7250  -19.7700   19.4660 C   0  0  0  0  0  0  0  0  0  0  0  0
  -29.0880  -20.1350   20.6750 C   0  0  0  0  0  0  0  0  0  0  0  0
  -28.7880  -22.7590   20.1020 C   0  0  0  0  0  0  0  0  0  0  0  0
  -30.1980  -18.2110   19.1010 C   0  0  0  0  0  2  0  0  0  0  0  0
  -28.8550  -18.8850   21.5960 C   0  0  0  0  0  2  0  0  0  0  0  0
  -29.7290  -17.5220   21.4020 C   0  0  0  0  0  2  0  0  0  0  0  0
  -29.8280  -16.8220   19.9800 C   0  0  0  0  0  3  0  0  0  0  0  0
  -30.6290  -15.2690   19.8040 C   0  0  0  0  0  0  0  0  0  0  0  0
  -30.5590  -12.8330   18.9240 C   0  0  0  0  0  2  0  0  0  0  0  0
  -29.5410  -12.6620   17.7670 C   0  0  0  0  0  2  0  0  0  0  0  0
  -28.1310  -12.3790   18.3180 C   0  0  0  0  0  2  0  0  0  0  0  0
  -27.7690  -13.3220   19.4910 C   0  0  0  0  0  3  0  0  0  0  0  0
  -28.9040  -13.4560   20.5260 C   0  0  0  0  0  2  0  0  0  0  0  0
  -30.0910  -13.9540   19.8170 N   0  0  0  0  0  0  0  0  0  0  0  0
  -31.8200  -15.2760   19.4620 O   0  0  0  0  0  0  0  0  0  0  0  0
  -25.4880  -13.8460   20.5040 C   0  0  0  0  0  0  0  0  0  0  0  0
  -24.4580  -13.0530   20.9270 C   0  0  0  0  0  0  0  0  0  0  0  0
  -24.9060  -11.7050   20.7730 C   0  0  0  0  0  0  0  0  0  0  0  0
  -26.4930  -12.9830   20.1080 N   0  0  0  0  0  0  0  0  0  0  0  0
  -26.1620  -11.6840   20.3370 N   0  0  0  0  0  0  0  0  0  0  0  0
  -24.1880  -10.4370   20.9590 C   0  0  0  0  0  0  0  0  0  0  0  0
  -24.6350   -9.4590   21.8750 C   0  0  0  0  0  3  0  0  0  0  0  0
  -23.9140   -8.2590   22.0500 C   0  0  0  0  0  3  0  0  0  0  0  0
  -22.7310   -8.0270   21.3090 C   0  0  0  0  0  0  0  0  0  0  0  0
  -22.3030   -8.9920   20.3810 C   0  0  0  0  0  3  0  0  0  0  0  0
  -23.0240  -10.1840   20.2040 C   0  0  0  0  0  3  0  0  0  0  0  0
  -21.9800   -6.8780   21.3940 O   0  0  0  0  0  0  0  0  0  0  0  0
  -21.8530   -6.1860   22.5720 C   0  0  0  0  0  0  0  0  0  0  0  0
  -21.3110   -6.7820   23.7310 C   0  0  0  0  0  3  0  0  0  0  0  0
  -21.1350   -6.0140   24.9000 C   0  0  0  0  0  3  0  0  0  0  0  0
  -21.4910   -4.6530   24.9090 C   0  0  0  0  0  0  0  0  0  0  0  0
  -22.0260   -4.0570   23.7550 C   0  0  0  0  0  3  0  0  0  0  0  0
  -22.2030   -4.8220   22.5880 C   0  0  0  0  0  0  0  0  0  0  0  0
  -22.7000   -4.2370   21.4710 F   0  0  0  0  0  0  0  0  0  0  0  0
  -21.3150   -3.9130   26.0300 F   0  0  0  0  0  0  0  0  0  0  0  0
  -23.0970  -13.5200   21.3540 C   0  0  0  0  0  0  0  0  0  0  0  0
  -22.4510  -12.7850   22.2520 N   0  0  0  0  0  0  0  0  0  0  0  0
  -22.6200  -14.5710   20.9270 O   0  0  0  0  0  0  0  0  0  0  0  0
  -22.8520  -11.9340   22.6170 H   0  0  0  0  0  0  0  0  0  0  0  0
  -21.5410  -13.0780   22.5800 H   0  0  0  0  0  0  0  0  0  0  0  0
  -25.6460  -15.2240   20.3950 N   0  0  0  0  0  0  0  0  0  0  0  0
  -24.9020  -15.8730   20.6280 H   0  0  0  0  0  0  0  0  0  0  0  0
  -26.4670  -15.6820   20.0230 H   0  0  0  0  0  0  0  0  0  0  0  0
  -27.9900  -24.2960   20.3100 C   0  0  0  0  0  2  0  0  0  0  0  0
  -28.3760  -25.8830   20.1950 O   0  0  0  0  0  0  0  0  0  0  0  0
  -24.7290  -31.7990   23.1580 C   0  0  0  0  0  0  0  0  0  0  0  0
  -27.3680  -26.9800   20.1460 C   0  0  0  0  0  0  0  0  0  0  0  0
  -23.5750  -30.4130   21.4840 C   0  0  0  0  0  3  0  0  0  0  0  0
  -25.0600  -28.8380   20.0750 C   0  0  0  0  0  0  0  0  0  0  0  0
  -26.1430  -30.6450   21.3870 C   0  0  0  0  0  2  0  0  0  0  0  0
  -26.2340  -29.2450   20.7210 C   0  0  0  0  0  0  0  0  0  0  0  0
  -27.3860  -28.3380   20.7320 C   0  0  0  0  0  3  0  0  0  0  0  0
  -26.1650  -26.7290   19.4480 C   0  0  0  0  0  3  0  0  0  0  0  0
  -25.0490  -27.6000   19.4190 C   0  0  0  0  0  3  0  0  0  0  0  0
  -23.8340  -29.7480   20.1060 C   0  0  0  0  0  2  0  0  0  0  0  0
  -24.8360  -30.9780   22.0640 N   0  0  0  0  0  0  0  0  0  0  0  0
  -23.6290  -32.0770   23.6600 O   0  0  0  0  0  0  0  0  0  0  0  0
  -22.8700  -29.4010   22.4260 C   0  0  0  0  0  0  0  0  0  0  0  0
  -21.5440  -29.2310   22.2750 N   0  0  0  0  0  0  0  0  0  0  0  0
  -23.5240  -28.7690   23.2600 O   0  0  0  0  0  0  0  0  0  0  0  0
  -21.0700  -29.7920   21.5800 H   0  0  0  0  0  0  0  0  0  0  0  0
  -18.1530  -28.0210   22.7280 C   0  0  0  0  0  0  0  0  0  0  0  0
  -20.7110  -28.2820   23.0210 C   0  0  0  0  0  3  0  0  0  0  0  0
  -20.8170  -26.8590   22.4250 C   0  0  0  0  0  2  0  0  0  0  0  0
  -19.7240  -26.5530   21.3940 C   0  0  0  0  0  2  0  0  0  0  0  0
  -18.3360  -26.6850   22.0280 C   0  0  0  0  0  2  0  0  0  0  0  0
  -19.2670  -28.7770   23.1800 C   0  0  0  0  0  0  0  0  0  0  0  0
  -19.0390  -30.0260   23.7990 C   0  0  0  0  0  3  0  0  0  0  0  0
  -17.7320  -30.5200   23.9660 C   0  0  0  0  0  3  0  0  0  0  0  0
  -16.6330  -29.7610   23.5290 C   0  0  0  0  0  3  0  0  0  0  0  0
  -16.8440  -28.5130   22.9160 C   0  0  0  0  0  3  0  0  0  0  0  0
  -25.9850  -32.4420   23.8200 C   0  0  0  0  0  3  0  0  0  0  0  0
  -25.6470  -33.8320   24.1740 N   0  0  0  0  0  0  0  0  0  0  0  0
  -25.9490  -34.9070   23.4340 C   0  0  0  0  0  0  0  0  0  0  0  0
  -26.6030  -34.8350   22.3910 O   0  0  0  0  0  0  0  0  0  0  0  0
  -25.0630  -33.9600   24.9880 H   0  0  0  0  0  0  0  0  0  0  0  0
  -24.1670  -36.6680   23.1710 C   0  0  0  0  0  1  0  0  0  0  0  0
  -25.4480  -36.2810   23.9270 C   0  0  0  0  0  3  0  0  0  0  0  0
  -27.5860  -37.2160   24.6940 C   0  0  0  0  0  1  0  0  0  0  0  0
  -26.4500  -37.3600   23.7870 N   0  0  0  0  0  0  0  0  0  0  0  0
  -26.0270  -38.2690   23.9500 H   0  0  0  0  0  0  0  0  0  0  0  0
  -26.4780  -31.6600   25.1010 C   0  0  1  0  0  0  0  0  0  0  0  0
  -25.3630  -31.3980   26.1400 C   0  0  0  0  0  1  0  0  0  0  0  0
  -27.0840  -30.2920   24.7130 C   0  0  0  0  0  1  0  0  0  0  0  0
  -27.6060  -32.4570   25.7990 C   0  0  0  0  0  1  0  0  0  0  0  0
  1  2  2  0
  1  4  1  0
  2  6  1  0
  4  5  2  0
  5  3  1  0
  5  8  1  0
  6 47  1  0
  6  3  2  0
  7  4  1  0
  7 10  1  0
  9  8  1  0
 10 11  1  0
 10  9  1  0
 11 17  1  0
 12 17  1  0
 13 14  1  0
 13 12  1  0
 15 14  1  0
 15 22  1  0
 15 16  1  0
 17 16  1  0
 18 11  2  0
 19 20  2  0
 20 39  1  0
 21 20  1  0
 21 24  1  0
 22 23  1  0
 22 19  1  0
 23 21  2  0
 24 25  1  0
 25 26  2  0
 27 30  1  0
 27 26  1  0
 28 27  2  0
 29 28  1  0
 29 24  2  0
 30 31  1  0
 31 36  2  0
 31 32  1  0
 32 33  2  0
 33 34  1  0
 34 38  1  0
 35 34  2  0
 36 35  1  0
 37 36  1  0
 39 40  1  0
 40 43  1  0
 40 42  1  0
 41 39  2  0
 44 19  1  0
 44 45  1  0
 46 44  1  0
 48 47  1  0
 49 60  2  0
 50 48  1  0
 50 55  1  0
 51 59  1  0
 51 61  1  0
 52 58  1  0
 52 54  1  0
 53 59  1  0
 54 55  2  0
 54 53  1  0
 56 50  2  0
 57 56  1  0
 57 52  2  0
 58 51  1  0
 59 49  1  0
 61 63  2  0
 62 61  1  0
 64 62  1  0
 65 74  2  0
 65 70  1  0
 66 62  1  0
 66 70  1  0
 67 66  1  0
 68 69  1  0
 68 67  1  0
 69 65  1  0
 70 71  2  0
 71 72  1  0
 73 72  2  0
 74 73  1  0
 75 49  1  0
 75 76  1  0
 75 85  1  0
 76 79  1  0
 77 81  1  0
 77 76  1  0
 78 77  2  0
 81 80  1  0
 83 81  1  0
 83 84  1  0
 83 82  1  0
 85 88  1  1
 85 86  1  0
 87 85  1  0
M  ISO  4  10 100  11 100  47 101  48 101
M  END
>  <TORSDO>  (29) 
F 17

>  <SCORE>  (29) 
-14.451

>  <name>  (29) 
28

>  <ligand_id>  (29) 
28

>  <original_smiles>  (29) 
[H]c1c([H])c([H])c2c(c1[H])C([H])([H])C([H])([H])C([H])([H])C2([H])N([H])C(=O)C1([H])N(C(=O)C([H])(N([H])C(=O)C([H])(N([H])C([H])([H])[H])C([H])([H])[H])C(C([H])([H])[H])(C([H])([H])[H])C([H])([H])[H])C([H])([H])c2c([H])c(OC([H])([H])c3c([H])c([H])c4c(c3[H])C([H])([H])C([H])([H])C([H])(C(=O)N3C([H])([H])C([H])([H])C([H])([H])C([H])(n5nc(-c6c([H])c([H])c(Oc7c([H])c([H])c(F)c([H])c7F)c([H])c6[H])c(C(=O)N([H])[H])c5N([H])[H])C3([H])[H])C4([H])[H])c([H])c([H])c2C1([H])[H]

>  <smiles>  (29) 
[H]c1c([H])c([H])c2c(c1[H])C([H])([H])C([H])([H])C([H])([H])C2([H])N([H])C(=O)C1([H])N(C(=O)C([H])(N([H])C(=O)C([H])(N([H])C([H])([H])[H])C([H])([H])[H])C(C([H])([H])[H])(C([H])([H])[H])C([H])([H])[H])C([H])([H])c2c([H])c(OC([H])([H])c3c([H])c([H])c4c(c3[H])C([H])([H])C([H])([H])C([H])(C(=O)N3C([H])([H])C([H])([H])C([H])([H])C([H])(n5nc(-c6c([H])c([H])c(Oc7c([H])c([H])c(F)c([H])c7F)c([H])c6[H])c(C(=O)N([H])[H])c5N([H])[H])C3([H])[H])C4([H])[H])c([H])c([H])c2C1([H])[H]

$$$$
29:0:0
     RDKit          3D

 93102  0  0  1  0  0  0  0  0999 V2000
  -30.1310  -21.8570   20.0020 C   0  0  0  0  0  2  0  0  0  0  0  0
  -30.0600  -19.5730   21.4000 C   0  0  0  0  0  3  0  0  0  0  0  0
  -29.9800  -19.4020   19.0210 C   0  0  0  0  0  3  0  0  0  0  0  0
  -29.9840  -20.2660   20.1590 C   0  0  0  0  0  0  0  0  0  0  0  0
  -30.1320  -18.1390   21.4950 C   0  0  0  0  0  0  0  0  0  0  0  0
  -30.1690  -17.2860   20.3430 C   0  0  0  0  0  0  0  0  0  0  0  0
  -30.0700  -17.9710   19.0980 C   0  0  0  0  0  0  0  0  0  0  0  0
  -30.1890  -17.5130   22.8780 C   0  0  0  0  0  1  0  0  0  0  0  0
  -30.0280  -17.2580   17.9470 F   0  0  0  0  0  0  0  0  0  0  0  0
  -30.9400  -14.7860   19.9850 C   0  0  0  0  0  0  0  0  0  0  0  0
  -30.7420  -12.5320   18.9210 C   0  0  0  0  0  2  0  0  0  0  0  0
  -29.7080  -12.6330   17.7750 C   0  0  0  0  0  2  0  0  0  0  0  0
  -28.2760  -12.4220   18.3060 C   0  0  0  0  0  2  0  0  0  0  0  0
  -27.9830  -13.2600   19.5790 C   0  0  0  0  0  3  0  0  0  0  0  0
  -29.1230  -13.1280   20.6130 C   0  0  0  0  0  2  0  0  0  0  0  0
  -30.3720  -13.5320   19.9480 N   0  0  0  0  0  0  0  0  0  0  0  0
  -32.0620  -14.9750   19.5030 O   0  0  0  0  0  0  0  0  0  0  0  0
  -30.1620  -15.8080   20.4910 N   0  0  0  0  0  0  0  0  0  0  0  0
  -29.3720  -15.4610   21.0100 H   0  0  0  0  0  0  0  0  0  0  0  0
  -25.6590  -13.7950   20.5260 C   0  0  0  0  0  0  0  0  0  0  0  0
  -24.6270  -12.9940   20.9350 C   0  0  0  0  0  0  0  0  0  0  0  0
  -25.0870  -11.6500   20.7840 C   0  0  0  0  0  0  0  0  0  0  0  0
  -26.6810  -12.9380   20.1530 N   0  0  0  0  0  0  0  0  0  0  0  0
  -26.3480  -11.6380   20.3690 N   0  0  0  0  0  0  0  0  0  0  0  0
  -24.3800  -10.3740   20.9570 C   0  0  0  0  0  0  0  0  0  0  0  0
  -24.7910   -9.4250   21.9190 C   0  0  0  0  0  3  0  0  0  0  0  0
  -24.0820   -8.2150   22.0790 C   0  0  0  0  0  3  0  0  0  0  0  0
  -22.9490   -7.9440   21.2760 C   0  0  0  0  0  0  0  0  0  0  0  0
  -22.5580   -8.8820   20.3040 C   0  0  0  0  0  3  0  0  0  0  0  0
  -23.2670  -10.0840   20.1430 C   0  0  0  0  0  3  0  0  0  0  0  0
  -22.2160   -6.7840   21.3420 O   0  0  0  0  0  0  0  0  0  0  0  0
  -21.9950   -6.1410   22.5330 C   0  0  0  0  0  0  0  0  0  0  0  0
  -21.3560   -6.7800   23.6180 C   0  0  0  0  0  3  0  0  0  0  0  0
  -21.0860   -6.0600   24.7990 C   0  0  0  0  0  3  0  0  0  0  0  0
  -21.4450   -4.7020   24.8940 C   0  0  0  0  0  0  0  0  0  0  0  0
  -22.0760   -4.0630   23.8130 C   0  0  0  0  0  3  0  0  0  0  0  0
  -22.3470   -4.7790   22.6350 C   0  0  0  0  0  0  0  0  0  0  0  0
  -22.9360   -4.1530   21.5880 F   0  0  0  0  0  0  0  0  0  0  0  0
  -21.1790   -4.0080   26.0250 F   0  0  0  0  0  0  0  0  0  0  0  0
  -23.2560  -13.4460   21.3480 C   0  0  0  0  0  0  0  0  0  0  0  0
  -22.6170  -12.7140   22.2530 N   0  0  0  0  0  0  0  0  0  0  0  0
  -22.7630  -14.4830   20.9040 O   0  0  0  0  0  0  0  0  0  0  0  0
  -23.0300  -11.8740   22.6320 H   0  0  0  0  0  0  0  0  0  0  0  0
  -21.7010  -12.9970   22.5730 H   0  0  0  0  0  0  0  0  0  0  0  0
  -25.8040  -15.1760   20.4170 N   0  0  0  0  0  0  0  0  0  0  0  0
  -25.0430  -15.8140   20.6190 H   0  0  0  0  0  0  0  0  0  0  0  0
  -26.6130  -15.6390   20.0230 H   0  0  0  0  0  0  0  0  0  0  0  0
  -29.4000  -24.0910   21.1210 C   0  0  0  0  0  2  0  0  0  0  0  0
  -28.6560  -23.9020   19.2640 C   0  0  0  0  0  2  0  0  0  0  0  0
  -28.3320  -24.9500   20.3780 C   0  0  0  0  0  3  0  0  0  0  0  0
  -29.0330  -22.8900   20.3050 N   0  0  1  0  0  4  0  0  0  0  0  0
  -28.2130  -22.4450   20.6830 H   0  0  0  0  0  0  0  0  0  0  0  0
  -28.5640  -26.4260   20.1850 O   0  0  0  0  0  0  0  0  0  0  0  0
  -24.7420  -31.8310   23.1620 C   0  0  0  0  0  0  0  0  0  0  0  0
  -27.4480  -27.2900   20.1250 C   0  0  0  0  0  0  0  0  0  0  0  0
  -23.5750  -30.4160   21.5110 C   0  0  0  0  0  3  0  0  0  0  0  0
  -25.0630  -28.8890   20.0920 C   0  0  0  0  0  0  0  0  0  0  0  0
  -26.1140  -30.7660   21.3520 C   0  0  0  0  0  2  0  0  0  0  0  0
  -26.2210  -29.3890   20.7010 C   0  0  0  0  0  0  0  0  0  0  0  0
  -27.4180  -28.6030   20.7020 C   0  0  0  0  0  3  0  0  0  0  0  0
  -26.2680  -26.8570   19.4800 C   0  0  0  0  0  3  0  0  0  0  0  0
  -25.0920  -27.6320   19.4690 C   0  0  0  0  0  3  0  0  0  0  0  0
  -23.8130  -29.7450   20.1320 C   0  0  0  0  0  2  0  0  0  0  0  0
  -24.8280  -31.0240   22.0650 N   0  0  0  0  0  0  0  0  0  0  0  0
  -23.6490  -32.0910   23.6880 O   0  0  0  0  0  0  0  0  0  0  0  0
  -22.9190  -29.3890   22.4650 C   0  0  0  0  0  0  0  0  0  0  0  0
  -21.5980  -29.1810   22.3180 N   0  0  0  0  0  0  0  0  0  0  0  0
  -23.5980  -28.7820   23.2970 O   0  0  0  0  0  0  0  0  0  0  0  0
  -21.1080  -29.7230   21.6200 H   0  0  0  0  0  0  0  0  0  0  0  0
  -18.2470  -27.8880   22.7530 C   0  0  0  0  0  0  0  0  0  0  0  0
  -20.7890  -28.2270   23.0800 C   0  0  0  0  0  3  0  0  0  0  0  0
  -20.9470  -26.7920   22.5220 C   0  0  0  0  0  2  0  0  0  0  0  0
  -19.8800  -26.4270   21.4860 C   0  0  0  0  0  2  0  0  0  0  0  0
  -18.4790  -26.5380   22.0940 C   0  0  0  0  0  2  0  0  0  0  0  0
  -19.3320  -28.6870   23.2010 C   0  0  0  0  0  0  0  0  0  0  0  0
  -19.0630  -29.9480   23.7760 C   0  0  0  0  0  3  0  0  0  0  0  0
  -17.7400  -30.4120   23.9070 C   0  0  0  0  0  3  0  0  0  0  0  0
  -16.6690  -29.6100   23.4770 C   0  0  0  0  0  3  0  0  0  0  0  0
  -16.9220  -28.3510   22.9050 C   0  0  0  0  0  3  0  0  0  0  0  0
  -26.0080  -32.4850   23.7960 C   0  0  0  0  0  3  0  0  0  0  0  0
  -25.6590  -33.8630   24.1680 N   0  0  0  0  0  0  0  0  0  0  0  0
  -25.9550  -34.9480   23.4390 C   0  0  0  0  0  0  0  0  0  0  0  0
  -26.6180  -34.8940   22.4000 O   0  0  0  0  0  0  0  0  0  0  0  0
  -25.0700  -33.9790   24.9790 H   0  0  0  0  0  0  0  0  0  0  0  0
  -24.1760  -36.7020   23.1460 C   0  0  0  0  0  1  0  0  0  0  0  0
  -25.4310  -36.3070   23.9410 C   0  0  0  0  0  3  0  0  0  0  0  0
  -27.5410  -37.2280   24.7960 C   0  0  0  0  0  1  0  0  0  0  0  0
  -26.4320  -37.3930   23.8590 N   0  0  0  0  0  0  0  0  0  0  0  0
  -26.0000  -38.2960   24.0360 H   0  0  0  0  0  0  0  0  0  0  0  0
  -26.5530  -31.6950   25.0510 C   0  0  1  0  0  0  0  0  0  0  0  0
  -25.4720  -31.3970   26.1160 C   0  0  0  0  0  1  0  0  0  0  0  0
  -27.1740  -30.3460   24.6210 C   0  0  0  0  0  1  0  0  0  0  0  0
  -27.6830  -32.5060   25.7280 C   0  0  0  0  0  1  0  0  0  0  0  0
  1  4  1  0
  1 51  1  0
  2  5  1  0
  3  7  2  0
  3  4  1  0
  4  2  2  0
  5  8  1  0
  6 18  1  0
  6  5  2  0
  7  6  1  0
  9  7  1  0
 10 18  1  0
 11 16  1  0
 12 13  1  0
 12 11  1  0
 14 13  1  0
 14 23  1  0
 14 15  1  0
 16 10  1  0
 16 15  1  0
 17 10  2  0
 18 19  1  0
 20 21  2  0
 21 40  1  0
 22 21  1  0
 22 25  1  0
 23 24  1  0
 23 20  1  0
 24 22  2  0
 25 26  1  0
 26 27  2  0
 28 31  1  0
 28 27  1  0
 29 28  2  0
 30 29  1  0
 30 25  2  0
 31 32  1  0
 32 37  2  0
 32 33  1  0
 33 34  2  0
 34 35  1  0
 35 39  1  0
 36 35  2  0
 37 36  1  0
 38 37  1  0
 40 41  1  0
 41 44  1  0
 41 43  1  0
 42 40  2  0
 45 20  1  0
 45 46  1  0
 47 45  1  0
 49 51  1  0
 49 50  1  0
 50 53  1  0
 50 48  1  0
 51 52  1  1
 51 48  1  0
 54 65  2  0
 55 53  1  0
 55 60  1  0
 56 64  1  0
 56 66  1  0
 57 63  1  0
 57 59  1  0
 58 64  1  0
 59 60  2  0
 59 58  1  0
 61 55  2  0
 62 61  1  0
 62 57  2  0
 63 56  1  0
 64 54  1  0
 66 68  2  0
 67 66  1  0
 69 67  1  0
 70 79  2  0
 70 75  1  0
 71 67  1  0
 71 75  1  0
 72 71  1  0
 73 74  1  0
 73 72  1  0
 74 70  1  0
 75 76  2  0
 76 77  1  0
 78 77  2  0
 79 78  1  0
 80 54  1  0
 80 81  1  0
 80 90  1  0
 81 84  1  0
 82 86  1  0
 82 81  1  0
 83 82  2  0
 86 85  1  0
 88 86  1  0
 88 89  1  0
 88 87  1  0
 90 93  1  1
 90 91  1  0
 92 90  1  0
M  ISO  4  10 100  18 100  50 101  53 101
M  END
>  <TORSDO>  (30) 
F 18

>  <SCORE>  (30) 
-13.024

>  <name>  (30) 
29

>  <ligand_id>  (30) 
29

>  <original_smiles>  (30) 
[H]c1c([H])c([H])c2c(c1[H])C([H])([H])C([H])([H])C([H])([H])C2([H])N([H])C(=O)C1([H])N(C(=O)C([H])(N([H])C(=O)C([H])(N([H])C([H])([H])[H])C([H])([H])[H])C(C([H])([H])[H])(C([H])([H])[H])C([H])([H])[H])C([H])([H])c2c([H])c(OC3([H])C([H])([H])[N+]([H])(C([H])([H])c4c([H])c(F)c(N([H])C(=O)N5C([H])([H])C([H])([H])C([H])([H])C([H])(n6nc(-c7c([H])c([H])c(Oc8c([H])c([H])c(F)c([H])c8F)c([H])c7[H])c(C(=O)N([H])[H])c6N([H])[H])C5([H])[H])c(C([H])([H])[H])c4[H])C3([H])[H])c([H])c([H])c2C1([H])[H]

>  <smiles>  (30) 
[H]c1c([H])c([H])c2c(c1[H])C([H])([H])C([H])([H])C([H])([H])C2([H])N([H])C(=O)C1([H])N(C(=O)C([H])(N([H])C(=O)C([H])(N([H])C([H])([H])[H])C([H])([H])[H])C(C([H])([H])[H])(C([H])([H])[H])C([H])([H])[H])C([H])([H])c2c([H])c(OC3([H])C([H])([H])[N+]([H])(C([H])([H])c4c([H])c(F)c(N([H])C(=O)N5C([H])([H])C([H])([H])C([H])([H])C([H])(n6nc(-c7c([H])c([H])c(Oc8c([H])c([H])c(F)c([H])c8F)c([H])c7[H])c(C(=O)N([H])[H])c6N([H])[H])C5([H])[H])c(C([H])([H])[H])c4[H])C3([H])[H])c([H])c([H])c2C1([H])[H]

$$$$
30:0:0
     RDKit          3D

 94102  0  0  1  0  0  0  0  0999 V2000
  -26.3960  -21.4100   19.4770 C   0  0  0  0  0  2  0  0  0  0  0  0
  -28.3500  -20.1260   20.5840 C   0  0  0  0  0  3  0  0  0  0  0  0
  -29.0430  -18.9100   20.7600 C   0  0  0  0  0  3  0  0  0  0  0  0
  -27.1680  -19.1760   18.6840 C   0  0  0  0  0  3  0  0  0  0  0  0
  -27.3600  -20.2380   19.5820 C   0  0  0  0  0  0  0  0  0  0  0  0
  -28.7950  -17.8100   19.9050 C   0  0  0  0  0  0  0  0  0  0  0  0
  -27.8750  -17.9750   18.8410 C   0  0  0  0  0  0  0  0  0  0  0  0
  -27.5760  -16.9450   18.0080 F   0  0  0  0  0  0  0  0  0  0  0  0
  -29.2730  -16.3740   20.1580 C   0  0  0  0  0  2  0  0  0  0  0  0
  -31.1510  -14.8240   20.3350 C   0  0  0  0  0  0  0  0  0  0  0  0
  -30.8500  -12.5900   19.3210 C   0  0  0  0  0  2  0  0  0  0  0  0
  -29.9100  -12.6660   18.1010 C   0  0  0  0  0  2  0  0  0  0  0  0
  -28.4460  -12.4830   18.5410 C   0  0  0  0  0  2  0  0  0  0  0  0
  -28.0640  -13.4290   19.6990 C   0  0  0  0  0  3  0  0  0  0  0  0
  -29.1230  -13.3590   20.8330 C   0  0  0  0  0  2  0  0  0  0  0  0
  -30.4460  -13.6530   20.2590 N   0  0  0  0  0  0  0  0  0  0  0  0
  -32.3140  -14.9100   19.9290 O   0  0  0  0  0  0  0  0  0  0  0  0
  -31.3090  -16.9220   21.5590 C   0  0  0  0  0  1  0  0  0  0  0  0
  -30.5240  -15.9350   20.8170 N   0  0  0  0  0  0  0  0  0  0  0  0
  -25.6920  -14.1190   20.4140 C   0  0  0  0  0  0  0  0  0  0  0  0
  -24.6060  -13.3730   20.7790 C   0  0  0  0  0  0  0  0  0  0  0  0
  -25.0420  -12.0130   20.7520 C   0  0  0  0  0  0  0  0  0  0  0  0
  -26.7150  -13.2080   20.1890 N   0  0  0  0  0  0  0  0  0  0  0  0
  -26.3300  -11.9400   20.4570 N   0  0  0  0  0  0  0  0  0  0  0  0
  -24.2950  -10.7680   20.9280 C   0  0  0  0  0  0  0  0  0  0  0  0
  -24.6570   -9.8290   21.9210 C   0  0  0  0  0  3  0  0  0  0  0  0
  -23.9160   -8.6390   22.0790 C   0  0  0  0  0  3  0  0  0  0  0  0
  -22.8000   -8.3840   21.2500 C   0  0  0  0  0  0  0  0  0  0  0  0
  -22.4610   -9.3100   20.2500 C   0  0  0  0  0  3  0  0  0  0  0  0
  -23.2000  -10.4910   20.0860 C   0  0  0  0  0  3  0  0  0  0  0  0
  -22.0320   -7.2460   21.3220 O   0  0  0  0  0  0  0  0  0  0  0  0
  -21.8180   -6.5990   22.5130 C   0  0  0  0  0  0  0  0  0  0  0  0
  -21.2040   -7.2390   23.6100 C   0  0  0  0  0  3  0  0  0  0  0  0
  -20.9430   -6.5150   24.7910 C   0  0  0  0  0  3  0  0  0  0  0  0
  -21.2810   -5.1490   24.8700 C   0  0  0  0  0  0  0  0  0  0  0  0
  -21.8880   -4.5100   23.7740 C   0  0  0  0  0  3  0  0  0  0  0  0
  -22.1530   -5.2330   22.5990 C   0  0  0  0  0  0  0  0  0  0  0  0
  -22.7190   -4.6060   21.5380 F   0  0  0  0  0  0  0  0  0  0  0  0
  -21.0230   -4.4520   25.9990 F   0  0  0  0  0  0  0  0  0  0  0  0
  -23.2150  -13.8770   21.0370 C   0  0  0  0  0  0  0  0  0  0  0  0
  -22.4660  -13.1980   21.8960 N   0  0  0  0  0  0  0  0  0  0  0  0
  -22.8010  -14.9090   20.5090 O   0  0  0  0  0  0  0  0  0  0  0  0
  -22.8100  -12.3620   22.3460 H   0  0  0  0  0  0  0  0  0  0  0  0
  -21.5340  -13.5200   22.1150 H   0  0  0  0  0  0  0  0  0  0  0  0
  -25.8780  -15.4870   20.2250 N   0  0  0  0  0  0  0  0  0  0  0  0
  -25.0990  -16.1330   20.2810 H   0  0  0  0  0  0  0  0  0  0  0  0
  -26.6940  -15.8900   19.7860 H   0  0  0  0  0  0  0  0  0  0  0  0
  -25.4550  -23.2220   20.8170 C   0  0  0  0  0  1  0  0  0  0  0  0
  -26.7020  -22.5520   20.3740 N   0  0  2  0  0  4  0  0  0  0  0  0
  -27.1130  -22.1460   21.1990 H   0  0  0  0  0  0  0  0  0  0  0  0
  -27.6940  -23.4400   19.7170 C   0  0  0  0  0  2  0  0  0  0  0  0
  -28.0530  -24.7570   20.4350 C   0  0  0  0  0  2  0  0  0  0  0  0
  -28.7180  -25.7090   19.4160 C   0  0  0  0  0  2  0  0  0  0  0  0
  -28.6410  -27.0640   19.8270 O   0  0  0  0  0  0  0  0  0  0  0  0
  -24.6390  -31.8390   23.1680 C   0  0  0  0  0  0  0  0  0  0  0  0
  -27.4160  -27.6930   19.8330 C   0  0  0  0  0  0  0  0  0  0  0  0
  -23.4690  -30.4900   21.4530 C   0  0  0  0  0  3  0  0  0  0  0  0
  -24.9630  -29.0880   19.9370 C   0  0  0  0  0  0  0  0  0  0  0  0
  -25.9740  -30.9500   21.2670 C   0  0  0  0  0  2  0  0  0  0  0  0
  -26.0980  -29.6190   20.5610 C   0  0  0  0  0  0  0  0  0  0  0  0
  -27.3210  -28.9210   20.5150 C   0  0  0  0  0  3  0  0  0  0  0  0
  -26.2580  -27.1800   19.1940 C   0  0  0  0  0  3  0  0  0  0  0  0
  -25.0340  -27.8670   19.2520 C   0  0  0  0  0  3  0  0  0  0  0  0
  -23.6900  -29.8910   20.0360 C   0  0  0  0  0  2  0  0  0  0  0  0
  -24.7120  -31.1070   22.0220 N   0  0  0  0  0  0  0  0  0  0  0  0
  -23.5530  -32.0470   23.7270 O   0  0  0  0  0  0  0  0  0  0  0  0
  -22.8620  -29.3940   22.3600 C   0  0  0  0  0  0  0  0  0  0  0  0
  -21.5490  -29.1600   22.2110 N   0  0  0  0  0  0  0  0  0  0  0  0
  -23.5700  -28.7650   23.1510 O   0  0  0  0  0  0  0  0  0  0  0  0
  -21.0440  -29.7030   21.5280 H   0  0  0  0  0  0  0  0  0  0  0  0
  -18.2320  -27.8260   22.6360 C   0  0  0  0  0  0  0  0  0  0  0  0
  -20.7690  -28.1630   22.9400 C   0  0  0  0  0  3  0  0  0  0  0  0
  -20.9330  -26.7590   22.3110 C   0  0  0  0  0  2  0  0  0  0  0  0
  -19.8590  -26.4410   21.2660 C   0  0  0  0  0  2  0  0  0  0  0  0
  -18.4640  -26.5270   21.8830 C   0  0  0  0  0  2  0  0  0  0  0  0
  -19.3150  -28.6060   23.1190 C   0  0  0  0  0  0  0  0  0  0  0  0
  -19.0420  -29.8260   23.7760 C   0  0  0  0  0  3  0  0  0  0  0  0
  -17.7150  -30.2660   23.9540 C   0  0  0  0  0  3  0  0  0  0  0  0
  -16.6450  -29.4770   23.4940 C   0  0  0  0  0  3  0  0  0  0  0  0
  -16.9080  -28.2620   22.8390 C   0  0  0  0  0  3  0  0  0  0  0  0
  -25.9070  -32.4800   23.8150 C   0  0  0  0  0  3  0  0  0  0  0  0
  -25.5610  -33.8510   24.2070 N   0  0  0  0  0  0  0  0  0  0  0  0
  -25.8640  -34.9450   23.4970 C   0  0  0  0  0  0  0  0  0  0  0  0
  -26.5350  -34.9060   22.4600 O   0  0  0  0  0  0  0  0  0  0  0  0
  -24.9620  -33.9530   25.0150 H   0  0  0  0  0  0  0  0  0  0  0  0
  -24.0830  -36.6960   23.2200 C   0  0  0  0  0  1  0  0  0  0  0  0
  -25.3350  -36.2960   24.0140 C   0  0  0  0  0  3  0  0  0  0  0  0
  -27.4420  -37.2070   24.8870 C   0  0  0  0  0  1  0  0  0  0  0  0
  -26.3380  -37.3810   23.9500 N   0  0  0  0  0  0  0  0  0  0  0  0
  -25.9050  -38.2820   24.1300 H   0  0  0  0  0  0  0  0  0  0  0  0
  -26.4570  -31.6680   25.0510 C   0  0  1  0  0  0  0  0  0  0  0  0
  -25.3800  -31.3450   26.1140 C   0  0  0  0  0  1  0  0  0  0  0  0
  -27.0760  -30.3280   24.5890 C   0  0  0  0  0  1  0  0  0  0  0  0
  -27.5860  -32.4610   25.7470 C   0  0  0  0  0  1  0  0  0  0  0  0
  1  5  1  0
  1 49  1  0
  2  3  1  0
  4  7  2  0
  4  5  1  0
  5  2  2  0
  6  9  1  0
  6  3  2  0
  7  6  1  0
  8  7  1  0
  9 19  1  0
 10 19  1  0
 11 16  1  0
 12 13  1  0
 12 11  1  0
 14 13  1  0
 14 23  1  0
 14 15  1  0
 16 10  1  0
 16 15  1  0
 17 10  2  0
 19 18  1  0
 20 21  2  0
 21 40  1  0
 22 21  1  0
 22 25  1  0
 23 20  1  0
 23 24  1  0
 24 22  2  0
 25 26  1  0
 26 27  2  0
 28 31  1  0
 28 27  1  0
 29 28  2  0
 30 29  1  0
 30 25  2  0
 31 32  1  0
 32 37  2  0
 32 33  1  0
 33 34  2  0
 34 35  1  0
 35 39  1  0
 36 35  2  0
 37 36  1  0
 38 37  1  0
 40 41  1  0
 41 44  1  0
 41 43  1  0
 42 40  2  0
 45 46  1  0
 45 20  1  0
 47 45  1  0
 49 48  1  0
 49 50  1  1
 51 49  1  0
 51 52  1  0
 53 54  1  0
 53 52  1  0
 54 56  1  0
 55 66  2  0
 56 61  1  0
 57 65  1  0
 57 67  1  0
 58 64  1  0
 58 60  1  0
 59 65  1  0
 60 59  1  0
 61 60  2  0
 62 63  1  0
 62 56  2  0
 63 58  2  0
 64 57  1  0
 65 55  1  0
 67 69  2  0
 68 67  1  0
 70 68  1  0
 71 80  2  0
 71 76  1  0
 72 68  1  0
 72 76  1  0
 73 72  1  0
 74 75  1  0
 74 73  1  0
 75 71  1  0
 76 77  2  0
 77 78  1  0
 79 78  2  0
 80 79  1  0
 81 55  1  0
 81 82  1  0
 81 91  1  0
 82 85  1  0
 83 87  1  0
 83 82  1  0
 84 83  2  0
 87 86  1  0
 89 87  1  0
 89 90  1  0
 89 88  1  0
 91 94  1  1
 91 92  1  0
 93 91  1  0
M  ISO  4  10 100  19 100  53 101  54 101
M  END
>  <TORSDO>  (31) 
F 22

>  <SCORE>  (31) 
-12.122

>  <name>  (31) 
30

>  <ligand_id>  (31) 
30

>  <original_smiles>  (31) 
[H]c1c([H])c([H])c2c(c1[H])C([H])([H])C([H])([H])C([H])([H])C2([H])N([H])C(=O)C1([H])N(C(=O)C([H])(N([H])C(=O)C([H])(N([H])C([H])([H])[H])C([H])([H])[H])C(C([H])([H])[H])(C([H])([H])[H])C([H])([H])[H])C([H])([H])c2c([H])c(OC([H])([H])C([H])([H])C([H])([H])[N+]([H])(C([H])([H])[H])C([H])([H])c3c([H])c([H])c(C([H])([H])N(C(=O)N4C([H])([H])C([H])([H])C([H])([H])C([H])(n5nc(-c6c([H])c([H])c(Oc7c([H])c([H])c(F)c([H])c7F)c([H])c6[H])c(C(=O)N([H])[H])c5N([H])[H])C4([H])[H])C([H])([H])[H])c(F)c3[H])c([H])c([H])c2C1([H])[H]

>  <smiles>  (31) 
[H]c1c([H])c([H])c2c(c1[H])C([H])([H])C([H])([H])C([H])([H])C2([H])N([H])C(=O)C1([H])N(C(=O)C([H])(N([H])C(=O)C([H])(N([H])C([H])([H])[H])C([H])([H])[H])C(C([H])([H])[H])(C([H])([H])[H])C([H])([H])[H])C([H])([H])c2c([H])c(OC([H])([H])C([H])([H])C([H])([H])[N+]([H])(C([H])([H])[H])C([H])([H])c3c([H])c([H])c(C([H])([H])N(C(=O)N4C([H])([H])C([H])([H])C([H])([H])C([H])(n5nc(-c6c([H])c([H])c(Oc7c([H])c([H])c(F)c([H])c7F)c([H])c6[H])c(C(=O)N([H])[H])c5N([H])[H])C4([H])[H])C([H])([H])[H])c(F)c3[H])c([H])c([H])c2C1([H])[H]

$$$$
31:0:0
     RDKit          3D

 86 94  0  0  1  0  0  0  0  0999 V2000
  -29.1870  -21.3180   21.2240 C   0  0  0  0  0  3  0  0  0  0  0  0
  -28.3800  -21.1180   19.1690 C   0  0  0  0  0  3  0  0  0  0  0  0
  -29.5320  -19.8170   21.2250 C   0  0  0  0  0  3  0  0  0  0  0  0
  -28.7130  -19.6270   19.1720 C   0  0  0  0  0  3  0  0  0  0  0  0
  -28.5590  -22.1940   20.1860 C   0  0  0  0  0  0  0  0  0  0  0  0
  -29.3450  -18.7470   20.1930 C   0  0  0  0  0  0  0  0  0  0  0  0
  -30.2600  -15.7190   20.1520 C   0  0  0  0  0  0  0  0  0  0  0  0
  -30.3680  -13.1860   19.3140 C   0  0  0  0  0  2  0  0  0  0  0  0
  -29.4450  -12.7990   18.1230 C   0  0  0  0  0  2  0  0  0  0  0  0
  -28.0320  -12.4420   18.6110 C   0  0  0  0  0  2  0  0  0  0  0  0
  -27.5460  -13.4280   19.6970 C   0  0  0  0  0  3  0  0  0  0  0  0
  -28.6050  -13.7230   20.7850 C   0  0  0  0  0  2  0  0  0  0  0  0
  -29.7610  -14.3480   20.1030 N   0  0  0  0  0  0  0  0  0  0  0  0
  -31.4880  -15.6960   19.9420 O   0  0  0  0  0  0  0  0  0  0  0  0
  -29.4300  -17.0280   20.2420 N   0  0  0  0  0  0  0  0  0  0  0  0
  -28.4830  -16.6860   20.3090 H   0  0  0  0  0  0  0  0  0  0  0  0
  -25.2060  -13.9340   20.5460 C   0  0  0  0  0  0  0  0  0  0  0  0
  -24.1600  -13.1410   20.9260 C   0  0  0  0  0  0  0  0  0  0  0  0
  -24.6350  -11.7950   20.8480 C   0  0  0  0  0  0  0  0  0  0  0  0
  -26.2460  -13.0750   20.2480 N   0  0  0  0  0  0  0  0  0  0  0  0
  -25.9180  -11.7780   20.4970 N   0  0  0  0  0  0  0  0  0  0  0  0
  -23.9180  -10.5250   21.0260 C   0  0  0  0  0  0  0  0  0  0  0  0
  -24.3490   -9.5550   21.9580 C   0  0  0  0  0  3  0  0  0  0  0  0
  -23.6270   -8.3540   22.1270 C   0  0  0  0  0  3  0  0  0  0  0  0
  -22.4590   -8.1140   21.3660 C   0  0  0  0  0  0  0  0  0  0  0  0
  -22.0470   -9.0720   20.4240 C   0  0  0  0  0  3  0  0  0  0  0  0
  -22.7690  -10.2640   20.2520 C   0  0  0  0  0  3  0  0  0  0  0  0
  -21.7100   -6.9650   21.4440 O   0  0  0  0  0  0  0  0  0  0  0  0
  -21.6210   -6.2410   22.6070 C   0  0  0  0  0  0  0  0  0  0  0  0
  -21.1120   -6.8040   23.7970 C   0  0  0  0  0  3  0  0  0  0  0  0
  -20.9720   -6.0060   24.9500 C   0  0  0  0  0  3  0  0  0  0  0  0
  -21.3310   -4.6460   24.9130 C   0  0  0  0  0  0  0  0  0  0  0  0
  -21.8340   -4.0820   23.7270 C   0  0  0  0  0  3  0  0  0  0  0  0
  -21.9740   -4.8770   22.5770 C   0  0  0  0  0  0  0  0  0  0  0  0
  -22.4380   -4.3230   21.4310 F   0  0  0  0  0  0  0  0  0  0  0  0
  -21.1910   -3.8770   26.0190 F   0  0  0  0  0  0  0  0  0  0  0  0
  -22.7690  -13.6060   21.2420 C   0  0  0  0  0  0  0  0  0  0  0  0
  -22.0680  -12.8890   22.1130 N   0  0  0  0  0  0  0  0  0  0  0  0
  -22.3150  -14.6380   20.7530 O   0  0  0  0  0  0  0  0  0  0  0  0
  -22.4500  -12.0540   22.5310 H   0  0  0  0  0  0  0  0  0  0  0  0
  -21.1340  -13.1820   22.3670 H   0  0  0  0  0  0  0  0  0  0  0  0
  -25.3510  -15.3100   20.3950 N   0  0  0  0  0  0  0  0  0  0  0  0
  -24.5750  -15.9490   20.5370 H   0  0  0  0  0  0  0  0  0  0  0  0
  -26.1650  -15.7610   20.0010 H   0  0  0  0  0  0  0  0  0  0  0  0
  -27.7930  -23.9010   20.1770 C   0  0  0  0  0  2  0  0  0  0  0  0
  -28.1150  -25.6130   20.3110 O   0  0  0  0  0  0  0  0  0  0  0  0
  -24.6620  -31.9150   23.2510 C   0  0  0  0  0  0  0  0  0  0  0  0
  -27.1570  -26.8350   20.2600 C   0  0  0  0  0  0  0  0  0  0  0  0
  -23.4600  -30.5190   21.6230 C   0  0  0  0  0  3  0  0  0  0  0  0
  -24.8950  -28.8660   20.2080 C   0  0  0  0  0  0  0  0  0  0  0  0
  -26.0380  -30.6560   21.4870 C   0  0  0  0  0  2  0  0  0  0  0  0
  -26.0950  -29.2230   20.8340 C   0  0  0  0  0  0  0  0  0  0  0  0
  -27.2120  -28.2350   20.8280 C   0  0  0  0  0  3  0  0  0  0  0  0
  -25.9230  -26.6850   19.5790 C   0  0  0  0  0  3  0  0  0  0  0  0
  -24.8460  -27.6220   19.5560 C   0  0  0  0  0  3  0  0  0  0  0  0
  -23.6900  -29.8190   20.2540 C   0  0  0  0  0  2  0  0  0  0  0  0
  -24.7450  -31.0630   22.1720 N   0  0  0  0  0  0  0  0  0  0  0  0
  -23.5730  -32.2210   23.7660 O   0  0  0  0  0  0  0  0  0  0  0  0
  -22.7450  -29.5460   22.5990 C   0  0  0  0  0  0  0  0  0  0  0  0
  -21.4140  -29.3860   22.4710 N   0  0  0  0  0  0  0  0  0  0  0  0
  -23.4000  -28.9330   23.4470 O   0  0  0  0  0  0  0  0  0  0  0  0
  -20.9350  -29.9310   21.7680 H   0  0  0  0  0  0  0  0  0  0  0  0
  -18.0320  -28.1550   22.9720 C   0  0  0  0  0  0  0  0  0  0  0  0
  -20.5870  -28.4540   23.2490 C   0  0  0  0  0  3  0  0  0  0  0  0
  -20.7060  -27.0130   22.6990 C   0  0  0  0  0  2  0  0  0  0  0  0
  -19.6170  -26.6650   21.6810 C   0  0  0  0  0  2  0  0  0  0  0  0
  -18.2280  -26.8010   22.3110 C   0  0  0  0  0  2  0  0  0  0  0  0
  -19.1380  -28.9370   23.3980 C   0  0  0  0  0  0  0  0  0  0  0  0
  -18.8970  -30.2000   23.9820 C   0  0  0  0  0  3  0  0  0  0  0  0
  -17.5830  -30.6820   24.1390 C   0  0  0  0  0  3  0  0  0  0  0  0
  -16.4920  -29.8990   23.7250 C   0  0  0  0  0  3  0  0  0  0  0  0
  -16.7170  -28.6360   23.1490 C   0  0  0  0  0  3  0  0  0  0  0  0
  -25.9320  -32.5610   23.8830 C   0  0  0  0  0  3  0  0  0  0  0  0
  -25.6160  -33.9640   24.2200 N   0  0  0  0  0  0  0  0  0  0  0  0
  -25.9160  -35.0270   23.4620 C   0  0  0  0  0  0  0  0  0  0  0  0
  -26.5470  -34.9310   22.4070 O   0  0  0  0  0  0  0  0  0  0  0  0
  -25.0470  -34.1100   25.0410 H   0  0  0  0  0  0  0  0  0  0  0  0
  -24.1590  -36.8170   23.2140 C   0  0  0  0  0  1  0  0  0  0  0  0
  -25.4490  -36.4160   23.9480 C   0  0  0  0  0  3  0  0  0  0  0  0
  -27.6160  -37.3300   24.6580 C   0  0  0  0  0  1  0  0  0  0  0  0
  -26.4640  -37.4780   23.7730 N   0  0  0  0  0  0  0  0  0  0  0  0
  -26.0580  -38.3960   23.9330 H   0  0  0  0  0  0  0  0  0  0  0  0
  -26.4320  -31.8030   25.1750 C   0  0  1  0  0  0  0  0  0  0  0  0
  -25.3290  -31.5820   26.2370 C   0  0  0  0  0  1  0  0  0  0  0  0
  -27.0120  -30.4160   24.8140 C   0  0  0  0  0  1  0  0  0  0  0  0
  -27.5810  -32.5990   25.8380 C   0  0  0  0  0  1  0  0  0  0  0  0
  1  3  1  0
  2  4  2  0
  2  5  1  0
  4  6  1  0
  5  1  2  0
  6 15  1  0
  6  3  2  0
  7 15  1  0
  8 13  1  0
  9 10  1  0
  9  8  1  0
 11 10  1  0
 11 20  1  0
 11 12  1  0
 13  7  1  0
 13 12  1  0
 14  7  2  0
 15 16  1  0
 17 18  2  0
 18 37  1  0
 19 18  1  0
 19 22  1  0
 20 21  1  0
 20 17  1  0
 21 19  2  0
 22 23  1  0
 23 24  2  0
 25 28  1  0
 25 24  1  0
 26 25  2  0
 27 26  1  0
 27 22  2  0
 28 29  1  0
 29 30  1  0
 30 31  2  0
 32 31  1  0
 32 36  1  0
 33 32  2  0
 34 29  2  0
 34 33  1  0
 35 34  1  0
 37 38  1  0
 38 41  1  0
 38 40  1  0
 39 37  2  0
 42 43  1  0
 42 17  1  0
 44 42  1  0
 45  5  1  0
 45 46  1  0
 47 58  2  0
 48 46  1  0
 48 53  1  0
 49 57  1  0
 49 59  1  0
 50 56  1  0
 50 52  1  0
 51 57  1  0
 52 51  1  0
 53 52  2  0
 54 48  2  0
 55 54  1  0
 55 50  2  0
 56 49  1  0
 57 47  1  0
 59 61  2  0
 60 59  1  0
 62 60  1  0
 63 72  2  0
 63 68  1  0
 64 60  1  0
 64 68  1  0
 65 64  1  0
 66 67  1  0
 66 65  1  0
 67 63  1  0
 68 69  2  0
 69 70  1  0
 71 70  2  0
 72 71  1  0
 73 47  1  0
 73 74  1  0
 73 83  1  0
 74 77  1  0
 75 79  1  0
 75 74  1  0
 76 75  2  0
 79 78  1  0
 81 82  1  0
 81 79  1  0
 81 80  1  0
 83 86  1  1
 83 84  1  0
 85 83  1  0
M  ISO  4   7 100  15 100  45 101  46 101
M  END
>  <TORSDO>  (32) 
F 17

>  <SCORE>  (32) 
-16.448

>  <name>  (32) 
31

>  <ligand_id>  (32) 
31

>  <original_smiles>  (32) 
[H]c1c([H])c([H])c2c(c1[H])C([H])([H])C([H])([H])C([H])([H])C2([H])N([H])C(=O)C1([H])N(C(=O)C([H])(N([H])C(=O)C([H])(N([H])C([H])([H])[H])C([H])([H])[H])C(C([H])([H])[H])(C([H])([H])[H])C([H])([H])[H])C([H])([H])c2c([H])c(OC([H])([H])c3c([H])c([H])c(N([H])C(=O)N4C([H])([H])C([H])([H])C([H])([H])C([H])(n5nc(-c6c([H])c([H])c(Oc7c([H])c([H])c(F)c([H])c7F)c([H])c6[H])c(C(=O)N([H])[H])c5N([H])[H])C4([H])[H])c([H])c3[H])c([H])c([H])c2C1([H])[H]

>  <smiles>  (32) 
[H]c1c([H])c([H])c2c(c1[H])C([H])([H])C([H])([H])C([H])([H])C2([H])N([H])C(=O)C1([H])N(C(=O)C([H])(N([H])C(=O)C([H])(N([H])C([H])([H])[H])C([H])([H])[H])C(C([H])([H])[H])(C([H])([H])[H])C([H])([H])[H])C([H])([H])c2c([H])c(OC([H])([H])c3c([H])c([H])c(N([H])C(=O)N4C([H])([H])C([H])([H])C([H])([H])C([H])(n5nc(-c6c([H])c([H])c(Oc7c([H])c([H])c(F)c([H])c7F)c([H])c6[H])c(C(=O)N([H])[H])c5N([H])[H])C4([H])[H])c([H])c3[H])c([H])c([H])c2C1([H])[H]

$$$$
32:0:0
     RDKit          3D

 91 99  0  0  1  0  0  0  0  0999 V2000
  -27.4830  -20.5560   19.6550 C   0  0  0  0  0  1  0  0  0  0  0  0
  -28.7590  -20.9880   20.2190 N   0  0  0  0  0  0  0  0  0  0  0  0
  -32.0460  -19.1220   20.5950 C   0  0  0  0  0  3  0  0  0  0  0  0
  -31.6580  -17.7680   20.6380 C   0  0  0  0  0  3  0  0  0  0  0  0
  -29.3640  -18.4770   20.4010 C   0  0  0  0  0  3  0  0  0  0  0  0
  -31.1150  -20.1780   20.4500 C   0  0  0  0  0  0  0  0  0  0  0  0
  -30.3060  -17.3760   20.5190 C   0  0  0  0  0  0  0  0  0  0  0  0
  -29.7200  -19.9000   20.3850 C   0  0  0  0  0  0  0  0  0  0  0  0
  -31.6870  -21.5850   20.3040 C   0  0  0  0  0  1  0  0  0  0  0  0
  -30.6350  -14.7640   20.3640 C   0  0  0  0  0  0  0  0  0  0  0  0
  -30.3470  -12.5180   19.3140 C   0  0  0  0  0  2  0  0  0  0  0  0
  -29.4000  -12.6390   18.1050 C   0  0  0  0  0  2  0  0  0  0  0  0
  -27.9300  -12.4970   18.5420 C   0  0  0  0  0  2  0  0  0  0  0  0
  -27.5850  -13.3310   19.8070 C   0  0  0  0  0  3  0  0  0  0  0  0
  -28.6710  -13.2230   20.9010 C   0  0  0  0  0  2  0  0  0  0  0  0
  -29.9580  -13.5660   20.2850 N   0  0  0  0  0  0  0  0  0  0  0  0
  -31.8260  -14.7990   20.0590 O   0  0  0  0  0  0  0  0  0  0  0  0
  -29.9040  -15.9380   20.5350 N   0  0  0  0  0  0  0  0  0  0  0  0
  -28.9140  -15.7760   20.6290 H   0  0  0  0  0  0  0  0  0  0  0  0
  -25.2000  -13.8890   20.5680 C   0  0  0  0  0  0  0  0  0  0  0  0
  -24.1450  -13.1030   20.9370 C   0  0  0  0  0  0  0  0  0  0  0  0
  -24.6170  -11.7560   20.8840 C   0  0  0  0  0  0  0  0  0  0  0  0
  -26.2510  -13.0200   20.3120 N   0  0  0  0  0  0  0  0  0  0  0  0
  -25.9060  -11.7300   20.5680 N   0  0  0  0  0  0  0  0  0  0  0  0
  -23.8950  -10.4890   21.0590 C   0  0  0  0  0  0  0  0  0  0  0  0
  -24.3160   -9.5200   21.9980 C   0  0  0  0  0  3  0  0  0  0  0  0
  -23.5910   -8.3200   22.1640 C   0  0  0  0  0  3  0  0  0  0  0  0
  -22.4300   -8.0760   21.3920 C   0  0  0  0  0  0  0  0  0  0  0  0
  -22.0270   -9.0340   20.4460 C   0  0  0  0  0  3  0  0  0  0  0  0
  -22.7530  -10.2250   20.2780 C   0  0  0  0  0  3  0  0  0  0  0  0
  -21.6790   -6.9290   21.4700 O   0  0  0  0  0  0  0  0  0  0  0  0
  -21.5950   -6.1980   22.6270 C   0  0  0  0  0  0  0  0  0  0  0  0
  -21.0840   -6.7500   23.8220 C   0  0  0  0  0  3  0  0  0  0  0  0
  -20.9510   -5.9430   24.9710 C   0  0  0  0  0  3  0  0  0  0  0  0
  -21.3190   -4.5860   24.9230 C   0  0  0  0  0  0  0  0  0  0  0  0
  -21.8230   -4.0320   23.7340 C   0  0  0  0  0  3  0  0  0  0  0  0
  -21.9570   -4.8350   22.5880 C   0  0  0  0  0  0  0  0  0  0  0  0
  -22.4230   -4.2940   21.4370 F   0  0  0  0  0  0  0  0  0  0  0  0
  -21.1850   -3.8070   26.0230 F   0  0  0  0  0  0  0  0  0  0  0  0
  -22.7450  -13.5690   21.2200 C   0  0  0  0  0  0  0  0  0  0  0  0
  -22.0230  -12.8570   22.0770 N   0  0  0  0  0  0  0  0  0  0  0  0
  -22.3030  -14.6000   20.7180 O   0  0  0  0  0  0  0  0  0  0  0  0
  -22.3950  -12.0270   22.5140 H   0  0  0  0  0  0  0  0  0  0  0  0
  -21.0830  -13.1500   22.3020 H   0  0  0  0  0  0  0  0  0  0  0  0
  -25.3440  -15.2640   20.4020 N   0  0  0  0  0  0  0  0  0  0  0  0
  -24.5510  -15.8870   20.5150 H   0  0  0  0  0  0  0  0  0  0  0  0
  -26.1610  -15.7260   20.0210 H   0  0  0  0  0  0  0  0  0  0  0  0
  -28.7330  -22.3150   20.9650 C   0  0  0  0  0  2  0  0  0  0  0  0
  -28.5300  -23.7080   20.1580 C   0  0  0  0  0  3  0  0  0  0  0  0
  -28.1390  -25.0560   20.9630 C   0  0  0  0  0  3  0  0  0  0  0  0
  -28.3510  -26.4340   20.4030 O   0  0  0  0  0  0  0  0  0  0  0  0
  -24.5710  -31.9150   23.2710 C   0  0  0  0  0  0  0  0  0  0  0  0
  -27.2590  -27.3150   20.3430 C   0  0  0  0  0  0  0  0  0  0  0  0
  -23.4150  -30.5000   21.6110 C   0  0  0  0  0  3  0  0  0  0  0  0
  -24.9090  -28.9440   20.2310 C   0  0  0  0  0  0  0  0  0  0  0  0
  -25.9590  -30.8250   21.4920 C   0  0  0  0  0  2  0  0  0  0  0  0
  -26.0610  -29.4380   20.8590 C   0  0  0  0  0  0  0  0  0  0  0  0
  -27.2450  -28.6360   20.9000 C   0  0  0  0  0  3  0  0  0  0  0  0
  -26.0940  -26.8840   19.6790 C   0  0  0  0  0  3  0  0  0  0  0  0
  -24.9300  -27.6770   19.6270 C   0  0  0  0  0  3  0  0  0  0  0  0
  -23.6720  -29.8200   20.2390 C   0  0  0  0  0  2  0  0  0  0  0  0
  -24.6640  -31.0970   22.1810 N   0  0  0  0  0  0  0  0  0  0  0  0
  -23.4740  -32.1940   23.7770 O   0  0  0  0  0  0  0  0  0  0  0  0
  -22.7330  -29.4860   22.5610 C   0  0  0  0  0  0  0  0  0  0  0  0
  -21.4090  -29.3090   22.4110 N   0  0  0  0  0  0  0  0  0  0  0  0
  -23.3940  -28.8630   23.3940 O   0  0  0  0  0  0  0  0  0  0  0  0
  -20.9340  -29.8640   21.7130 H   0  0  0  0  0  0  0  0  0  0  0  0
  -18.0130  -28.1550   22.8810 C   0  0  0  0  0  0  0  0  0  0  0  0
  -20.5740  -28.3780   23.1700 C   0  0  0  0  0  3  0  0  0  0  0  0
  -20.6610  -26.9490   22.5870 C   0  0  0  0  0  2  0  0  0  0  0  0
  -19.5610  -26.6480   21.5630 C   0  0  0  0  0  2  0  0  0  0  0  0
  -18.1770  -26.8080   22.1970 C   0  0  0  0  0  2  0  0  0  0  0  0
  -19.1380  -28.8990   23.3250 C   0  0  0  0  0  0  0  0  0  0  0  0
  -18.9320  -30.1610   23.9240 C   0  0  0  0  0  3  0  0  0  0  0  0
  -17.6310  -30.6770   24.0830 C   0  0  0  0  0  3  0  0  0  0  0  0
  -16.5200  -29.9300   23.6550 C   0  0  0  0  0  3  0  0  0  0  0  0
  -16.7120  -28.6700   23.0590 C   0  0  0  0  0  3  0  0  0  0  0  0
  -25.8350  -32.5570   23.9200 C   0  0  0  0  0  3  0  0  0  0  0  0
  -26.3110  -31.8110   25.2280 C   0  0  1  0  0  0  0  0  0  0  0  0
  -25.1800  -31.5990   26.2610 C   0  0  0  0  0  1  0  0  0  0  0  0
  -26.9030  -30.4230   24.8850 C   0  0  0  0  0  1  0  0  0  0  0  0
  -27.4380  -32.6190   25.9120 C   0  0  0  0  0  1  0  0  0  0  0  0
  -25.5240  -33.9620   24.2120 N   0  0  0  0  0  0  0  0  0  0  0  0
  -25.8850  -34.9990   23.4430 C   0  0  0  0  0  0  0  0  0  0  0  0
  -26.5850  -34.8730   22.4350 O   0  0  0  0  0  0  0  0  0  0  0  0
  -24.9040  -34.1370   24.9900 H   0  0  0  0  0  0  0  0  0  0  0  0
  -24.1880  -36.7990   22.9880 C   0  0  0  0  0  1  0  0  0  0  0  0
  -25.3900  -36.3960   23.8590 C   0  0  0  0  0  3  0  0  0  0  0  0
  -27.4880  -37.2830   24.7750 C   0  0  0  0  0  1  0  0  0  0  0  0
  -26.4340  -37.4400   23.7770 N   0  0  0  0  0  0  0  0  0  0  0  0
  -26.0260  -38.3640   23.8920 H   0  0  0  0  0  0  0  0  0  0  0  0
  1  2  1  0
  2  8  1  0
  2 48  1  0
  3  4  1  0
  5  7  1  0
  6  3  2  0
  7 18  1  0
  7  4  2  0
  8  5  2  0
  8  6  1  0
  9  6  1  0
 10 18  1  0
 11 16  1  0
 12 13  1  0
 12 11  1  0
 14 13  1  0
 14 23  1  0
 14 15  1  0
 16 10  1  0
 16 15  1  0
 17 10  2  0
 18 19  1  0
 20 21  2  0
 21 40  1  0
 22 21  1  0
 22 25  1  0
 23 24  1  0
 23 20  1  0
 24 22  2  0
 25 26  1  0
 26 27  2  0
 28 31  1  0
 28 27  1  0
 29 28  2  0
 30 29  1  0
 30 25  2  0
 31 32  1  0
 32 33  1  0
 33 34  2  0
 35 34  1  0
 35 39  1  0
 36 35  2  0
 37 32  2  0
 37 36  1  0
 38 37  1  0
 40 41  1  0
 41 44  1  0
 41 43  1  0
 42 40  2  0
 45 46  1  0
 45 20  1  0
 47 45  1  0
 49 50  2  0
 49 48  1  0
 51 50  1  0
 52 63  2  0
 53 51  1  0
 53 58  1  0
 54 62  1  0
 54 64  1  0
 55 61  1  0
 55 57  1  0
 56 62  1  0
 57 58  2  0
 57 56  1  0
 59 53  2  0
 60 59  1  0
 60 55  2  0
 61 54  1  0
 62 52  1  0
 64 66  2  0
 65 64  1  0
 67 65  1  0
 68 77  2  0
 68 73  1  0
 69 65  1  0
 69 73  1  0
 70 69  1  0
 71 72  1  0
 71 70  1  0
 72 68  1  0
 73 74  2  0
 74 75  1  0
 76 75  2  0
 77 76  1  0
 78 52  1  0
 78 83  1  0
 78 79  1  0
 79 82  1  1
 79 80  1  0
 81 79  1  0
 83 86  1  0
 84 88  1  0
 84 83  1  0
 85 84  2  0
 88 87  1  0
 90 88  1  0
 90 91  1  0
 90 89  1  0
M  ISO  4  10 100  18 100  50 101  51 101
M  END
>  <TORSDO>  (33) 
F 20

>  <SCORE>  (33) 
-13.963

>  <name>  (33) 
32

>  <ligand_id>  (33) 
32

>  <original_smiles>  (33) 
[H]c1c([H])c([H])c2c(c1[H])C([H])([H])C([H])([H])C([H])([H])C2([H])N([H])C(=O)C1([H])N(C(=O)C([H])(N([H])C(=O)C([H])(N([H])C([H])([H])[H])C([H])([H])[H])C(C([H])([H])[H])(C([H])([H])[H])C([H])([H])[H])C([H])([H])c2c([H])c(OC([H])([H])C([H])([H])C([H])([H])N(c3c([H])c(N([H])C(=O)N4C([H])([H])C([H])([H])C([H])([H])C([H])(n5nc(-c6c([H])c([H])c(Oc7c([H])c([H])c(F)c([H])c7F)c([H])c6[H])c(C(=O)N([H])[H])c5N([H])[H])C4([H])[H])c([H])c([H])c3C([H])([H])[H])C([H])([H])[H])c([H])c([H])c2C1([H])[H]

>  <smiles>  (33) 
[H]c1c([H])c([H])c2c(c1[H])C([H])([H])C([H])([H])C([H])([H])C2([H])N([H])C(=O)C1([H])N(C(=O)C([H])(N([H])C(=O)C([H])(N([H])C([H])([H])[H])C([H])([H])[H])C(C([H])([H])[H])(C([H])([H])[H])C([H])([H])[H])C([H])([H])c2c([H])c(OC([H])([H])C([H])([H])C([H])([H])N(c3c([H])c(N([H])C(=O)N4C([H])([H])C([H])([H])C([H])([H])C([H])(n5nc(-c6c([H])c([H])c(Oc7c([H])c([H])c(F)c([H])c7F)c([H])c6[H])c(C(=O)N([H])[H])c5N([H])[H])C4([H])[H])c([H])c([H])c3C([H])([H])[H])C([H])([H])[H])c([H])c([H])c2C1([H])[H]

$$$$
33:0:0
     RDKit          3D

 96104  0  0  1  0  0  0  0  0999 V2000
  -27.7240  -22.4260   20.2870 N   0  0  0  0  0  0  0  0  0  0  0  0
  -27.4790  -20.0720   19.5180 C   0  0  0  0  0  3  0  0  0  0  0  0
  -29.2180  -20.6460   21.1010 C   0  0  0  0  0  3  0  0  0  0  0  0
  -28.8710  -18.2870   20.4780 C   0  0  0  0  0  0  0  0  0  0  0  0
  -28.1450  -21.0660   20.2790 C   0  0  0  0  0  0  0  0  0  0  0  0
  -27.8210  -18.7080   19.6310 C   0  0  0  0  0  0  0  0  0  0  0  0
  -29.5770  -19.2780   21.1990 C   0  0  0  0  0  0  0  0  0  0  0  0
  -27.1300  -17.7880   18.9140 F   0  0  0  0  0  0  0  0  0  0  0  0
  -30.5980  -18.9160   22.0130 F   0  0  0  0  0  0  0  0  0  0  0  0
  -29.1890  -16.7780   20.6290 C   0  0  0  0  0  2  0  0  0  0  0  0
  -30.8580  -15.0440   19.8660 C   0  0  0  0  0  0  0  0  0  0  0  0
  -30.6010  -12.7790   18.9410 C   0  0  0  0  0  2  0  0  0  0  0  0
  -29.6020  -12.8310   17.7670 C   0  0  0  0  0  2  0  0  0  0  0  0
  -28.1590  -12.6570   18.2830 C   0  0  0  0  0  2  0  0  0  0  0  0
  -27.8320  -13.5850   19.4850 C   0  0  0  0  0  3  0  0  0  0  0  0
  -28.9510  -13.5240   20.5500 C   0  0  0  0  0  2  0  0  0  0  0  0
  -30.2130  -13.8460   19.8760 N   0  0  0  0  0  0  0  0  0  0  0  0
  -32.0510  -15.1130   19.5510 O   0  0  0  0  0  0  0  0  0  0  0  0
  -30.5020  -17.0100   18.5070 C   0  0  0  0  0  1  0  0  0  0  0  0
  -30.0720  -16.1370   19.6150 N   0  0  0  0  0  0  0  0  0  0  0  0
  -25.5130  -14.1600   20.4260 C   0  0  0  0  0  0  0  0  0  0  0  0
  -24.4660  -13.3730   20.8260 C   0  0  0  0  0  0  0  0  0  0  0  0
  -24.9060  -12.0240   20.6680 C   0  0  0  0  0  0  0  0  0  0  0  0
  -26.5240  -13.2880   20.0540 N   0  0  0  0  0  0  0  0  0  0  0  0
  -26.1680  -11.9940   20.2580 N   0  0  0  0  0  0  0  0  0  0  0  0
  -24.1790  -10.7590   20.8220 C   0  0  0  0  0  0  0  0  0  0  0  0
  -24.6320   -9.7510   21.7010 C   0  0  0  0  0  3  0  0  0  0  0  0
  -23.9060   -8.5490   21.8470 C   0  0  0  0  0  3  0  0  0  0  0  0
  -22.7120   -8.3480   21.1130 C   0  0  0  0  0  0  0  0  0  0  0  0
  -22.2800   -9.3450   20.2210 C   0  0  0  0  0  3  0  0  0  0  0  0
  -23.0070  -10.5380   20.0720 C   0  0  0  0  0  3  0  0  0  0  0  0
  -21.9550   -7.2020   21.1700 O   0  0  0  0  0  0  0  0  0  0  0  0
  -21.8810   -6.4450   22.3120 C   0  0  0  0  0  0  0  0  0  0  0  0
  -21.4210   -6.9820   23.5340 C   0  0  0  0  0  3  0  0  0  0  0  0
  -21.2960   -6.1510   24.6660 C   0  0  0  0  0  3  0  0  0  0  0  0
  -21.6200   -4.7840   24.5760 C   0  0  0  0  0  0  0  0  0  0  0  0
  -22.0730   -4.2470   23.3590 C   0  0  0  0  0  3  0  0  0  0  0  0
  -22.2010   -5.0740   22.2290 C   0  0  0  0  0  0  0  0  0  0  0  0
  -22.6170   -4.5470   21.0530 F   0  0  0  0  0  0  0  0  0  0  0  0
  -21.4930   -3.9830   25.6610 F   0  0  0  0  0  0  0  0  0  0  0  0
  -23.1010  -13.8440   21.2340 C   0  0  0  0  0  0  0  0  0  0  0  0
  -22.4440  -13.1080   22.1240 N   0  0  0  0  0  0  0  0  0  0  0  0
  -22.6300  -14.8940   20.8030 O   0  0  0  0  0  0  0  0  0  0  0  0
  -22.8390  -12.2560   22.4920 H   0  0  0  0  0  0  0  0  0  0  0  0
  -21.5310  -13.4010   22.4400 H   0  0  0  0  0  0  0  0  0  0  0  0
  -25.6750  -15.5370   20.3250 N   0  0  0  0  0  0  0  0  0  0  0  0
  -24.9080  -16.1720   20.5090 H   0  0  0  0  0  0  0  0  0  0  0  0
  -26.4510  -15.9960   19.8570 H   0  0  0  0  0  0  0  0  0  0  0  0
  -28.6400  -23.4190   19.7020 C   0  0  0  0  0  2  0  0  0  0  0  0
  -28.5030  -24.8450   20.3170 C   0  0  0  0  0  2  0  0  0  0  0  0
  -29.1100  -25.9710   19.4390 C   0  0  0  0  0  2  0  0  0  0  0  0
  -28.9610  -27.2970   19.9810 O   0  0  0  0  0  0  0  0  0  0  0  0
  -24.7720  -31.9050   23.4180 C   0  0  0  0  0  0  0  0  0  0  0  0
  -27.7300  -27.9310   19.9880 C   0  0  0  0  0  0  0  0  0  0  0  0
  -23.6850  -30.6230   21.6050 C   0  0  0  0  0  3  0  0  0  0  0  0
  -25.2530  -29.3130   20.0760 C   0  0  0  0  0  0  0  0  0  0  0  0
  -26.1940  -31.1230   21.5210 C   0  0  0  0  0  2  0  0  0  0  0  0
  -26.3670  -29.8300   20.7480 C   0  0  0  0  0  0  0  0  0  0  0  0
  -27.6030  -29.1460   20.7040 C   0  0  0  0  0  3  0  0  0  0  0  0
  -26.5930  -27.4250   19.3170 C   0  0  0  0  0  3  0  0  0  0  0  0
  -25.3610  -28.1060   19.3610 C   0  0  0  0  0  3  0  0  0  0  0  0
  -23.9650  -30.1010   20.1700 C   0  0  0  0  0  2  0  0  0  0  0  0
  -24.8990  -31.2290   22.2400 N   0  0  0  0  0  0  0  0  0  0  0  0
  -23.6640  -32.0610   23.9500 O   0  0  0  0  0  0  0  0  0  0  0  0
  -23.0670  -29.4760   22.4340 C   0  0  0  0  0  0  0  0  0  0  0  0
  -21.7580  -29.2390   22.2490 N   0  0  0  0  0  0  0  0  0  0  0  0
  -23.7650  -28.8070   23.2000 O   0  0  0  0  0  0  0  0  0  0  0  0
  -21.2520  -29.8470   21.6210 H   0  0  0  0  0  0  0  0  0  0  0  0
  -18.4440  -27.8270   22.5070 C   0  0  0  0  0  0  0  0  0  0  0  0
  -20.9770  -28.1830   22.8910 C   0  0  0  0  0  3  0  0  0  0  0  0
  -21.1730  -26.8270   22.1720 C   0  0  0  0  0  2  0  0  0  0  0  0
  -20.1220  -26.5610   21.0890 C   0  0  0  0  0  2  0  0  0  0  0  0
  -18.7140  -26.5680   21.6970 C   0  0  0  0  0  2  0  0  0  0  0  0
  -19.5090  -28.5930   23.0510 C   0  0  0  0  0  0  0  0  0  0  0  0
  -19.2100  -29.7760   23.7610 C   0  0  0  0  0  3  0  0  0  0  0  0
  -17.8780  -30.1940   23.9360 C   0  0  0  0  0  3  0  0  0  0  0  0
  -16.8280  -29.4220   23.4100 C   0  0  0  0  0  3  0  0  0  0  0  0
  -17.1090  -28.2400   22.7020 C   0  0  0  0  0  3  0  0  0  0  0  0
  -26.0040  -32.5340   24.1360 C   0  0  0  0  0  3  0  0  0  0  0  0
  -25.6520  -33.9180   24.4820 N   0  0  0  0  0  0  0  0  0  0  0  0
  -26.0110  -34.9970   23.7720 C   0  0  0  0  0  0  0  0  0  0  0  0
  -26.7420  -34.9310   22.7800 O   0  0  0  0  0  0  0  0  0  0  0  0
  -25.0070  -34.0360   25.2490 H   0  0  0  0  0  0  0  0  0  0  0  0
  -24.2700  -36.7650   23.3640 C   0  0  0  0  0  1  0  0  0  0  0  0
  -25.4730  -36.3630   24.2330 C   0  0  0  0  0  3  0  0  0  0  0  0
  -27.5460  -37.2650   25.1970 C   0  0  0  0  0  1  0  0  0  0  0  0
  -26.4920  -37.4370   24.2000 N   0  0  0  0  0  0  0  0  0  0  0  0
  -26.0630  -38.3470   24.3430 H   0  0  0  0  0  0  0  0  0  0  0  0
  -26.4480  -31.7330   25.4220 C   0  0  1  0  0  0  0  0  0  0  0  0
  -25.2920  -31.4450   26.4090 C   0  0  0  0  0  1  0  0  0  0  0  0
  -27.0800  -30.3780   25.0270 C   0  0  0  0  0  1  0  0  0  0  0  0
  -27.5410  -32.5240   26.1780 C   0  0  0  0  0  1  0  0  0  0  0  0
  -26.2820  -22.6320   20.0870 C   0  0  0  0  0  2  0  0  0  0  0  0
  -26.0530  -24.9450   21.1020 C   0  0  0  0  0  1  0  0  0  0  0  0
  -24.1210  -23.3090   21.2410 C   0  0  0  0  0  1  0  0  0  0  0  0
  -25.6490  -23.4650   21.2210 C   0  0  0  0  0  3  0  0  0  0  0  0
  2  6  2  0
  2  5  1  0
  3  7  1  0
  4 10  1  0
  4  7  2  0
  5  1  1  0
  5  3  2  0
  6  4  1  0
  7  9  1  0
  8  6  1  0
 11 17  1  0
 12 17  1  0
 13 14  1  0
 13 12  1  0
 15 14  1  0
 15 24  1  0
 15 16  1  0
 17 16  1  0
 18 11  2  0
 19 20  1  0
 20 11  1  0
 20 10  1  0
 21 22  2  0
 22 41  1  0
 23 26  1  0
 23 22  1  0
 24 25  1  0
 24 21  1  0
 25 23  2  0
 26 27  1  0
 27 28  2  0
 29 32  1  0
 29 28  1  0
 30 29  2  0
 31 30  1  0
 31 26  2  0
 32 33  1  0
 33 34  1  0
 34 35  2  0
 36 35  1  0
 36 40  1  0
 37 36  2  0
 38 33  2  0
 38 37  1  0
 39 38  1  0
 41 42  1  0
 42 45  1  0
 42 44  1  0
 43 41  2  0
 46 21  1  0
 46 47  1  0
 48 46  1  0
 49  1  1  0
 49 50  1  0
 51 52  1  0
 51 50  1  0
 52 54  1  0
 53 64  2  0
 54 59  1  0
 55 63  1  0
 55 65  1  0
 56 62  1  0
 56 58  1  0
 57 63  1  0
 58 57  1  0
 59 58  2  0
 60 61  1  0
 60 54  2  0
 61 56  2  0
 62 55  1  0
 63 53  1  0
 65 67  2  0
 66 65  1  0
 68 66  1  0
 69 78  2  0
 69 74  1  0
 70 66  1  0
 70 74  1  0
 71 70  1  0
 72 73  1  0
 72 71  1  0
 73 69  1  0
 74 75  2  0
 75 76  1  0
 77 76  2  0
 78 77  1  0
 79 53  1  0
 79 80  1  0
 79 89  1  0
 80 83  1  0
 81 85  1  0
 81 80  1  0
 82 81  2  0
 85 84  1  0
 87 85  1  0
 87 88  1  0
 87 86  1  0
 89 92  1  1
 89 90  1  0
 91 89  1  0
 93  1  1  0
 93 96  1  0
 94 96  1  0
 96 95  1  0
M  ISO  4  11 100  20 100  51 101  52 101
M  END
>  <TORSDO>  (34) 
F 23

>  <SCORE>  (34) 
-11.614

>  <name>  (34) 
33

>  <ligand_id>  (34) 
33

>  <original_smiles>  (34) 
[H]c1c([H])c([H])c2c(c1[H])C([H])([H])C([H])([H])C([H])([H])C2([H])N([H])C(=O)C1([H])N(C(=O)C([H])(N([H])C(=O)C([H])(N([H])C([H])([H])[H])C([H])([H])[H])C(C([H])([H])[H])(C([H])([H])[H])C([H])([H])[H])C([H])([H])c2c([H])c(OC([H])([H])C([H])([H])C([H])([H])N(c3c([H])c(F)c(C([H])([H])N(C(=O)N4C([H])([H])C([H])([H])C([H])([H])C([H])(n5nc(-c6c([H])c([H])c(Oc7c([H])c([H])c(F)c([H])c7F)c([H])c6[H])c(C(=O)N([H])[H])c5N([H])[H])C4([H])[H])C([H])([H])[H])c(F)c3[H])C([H])([H])C([H])(C([H])([H])[H])C([H])([H])[H])c([H])c([H])c2C1([H])[H]

>  <smiles>  (34) 
[H]c1c([H])c([H])c2c(c1[H])C([H])([H])C([H])([H])C([H])([H])C2([H])N([H])C(=O)C1([H])N(C(=O)C([H])(N([H])C(=O)C([H])(N([H])C([H])([H])[H])C([H])([H])[H])C(C([H])([H])[H])(C([H])([H])[H])C([H])([H])[H])C([H])([H])c2c([H])c(OC([H])([H])C([H])([H])C([H])([H])N(c3c([H])c(F)c(C([H])([H])N(C(=O)N4C([H])([H])C([H])([H])C([H])([H])C([H])(n5nc(-c6c([H])c([H])c(Oc7c([H])c([H])c(F)c([H])c7F)c([H])c6[H])c(C(=O)N([H])[H])c5N([H])[H])C4([H])[H])C([H])([H])[H])c(F)c3[H])C([H])([H])C([H])(C([H])([H])[H])C([H])([H])[H])c([H])c([H])c2C1([H])[H]

$$$$
34:0:0
     RDKit          3D

 94102  0  0  1  0  0  0  0  0999 V2000
  -30.6490  -20.8740   18.7410 C   0  0  0  0  0  2  0  0  0  0  0  0
  -32.3830  -18.5300   22.0020 C   0  0  0  0  0  3  0  0  0  0  0  0
  -32.9800  -19.7250   21.5510 C   0  0  0  0  0  3  0  0  0  0  0  0
  -30.6440  -18.7480   20.3040 C   0  0  0  0  0  3  0  0  0  0  0  0
  -31.2300  -17.9980   21.3710 C   0  0  0  0  0  0  0  0  0  0  0  0
  -31.2030  -20.0040   19.8940 C   0  0  0  0  0  0  0  0  0  0  0  0
  -32.4010  -20.4430   20.4960 C   0  0  0  0  0  0  0  0  0  0  0  0
  -33.0280  -21.5610   20.0550 F   0  0  0  0  0  0  0  0  0  0  0  0
  -30.6190  -16.7220   22.0180 C   0  0  0  0  0  2  0  0  0  0  0  0
  -30.5960  -14.6510   20.4930 C   0  0  0  0  0  0  0  0  0  0  0  0
  -30.2690  -12.5340   19.2260 C   0  0  0  0  0  2  0  0  0  0  0  0
  -29.2820  -12.6810   18.0500 C   0  0  0  0  0  2  0  0  0  0  0  0
  -27.8280  -12.4930   18.5150 C   0  0  0  0  0  2  0  0  0  0  0  0
  -27.4990  -13.3230   19.7850 C   0  0  0  0  0  3  0  0  0  0  0  0
  -28.5880  -13.1250   20.8650 C   0  0  0  0  0  2  0  0  0  0  0  0
  -29.8900  -13.4960   20.2800 N   0  0  0  0  0  0  0  0  0  0  0  0
  -31.7020  -14.8390   19.9880 O   0  0  0  0  0  0  0  0  0  0  0  0
  -29.9990  -15.6110   21.2440 N   0  0  0  0  0  0  0  0  0  0  0  0
  -29.0670  -15.3810   21.5570 H   0  0  0  0  0  0  0  0  0  0  0  0
  -25.1080  -13.8800   20.5380 C   0  0  0  0  0  0  0  0  0  0  0  0
  -24.0570  -13.0890   20.9220 C   0  0  0  0  0  0  0  0  0  0  0  0
  -24.5400  -11.7470   20.8820 C   0  0  0  0  0  0  0  0  0  0  0  0
  -26.1620  -13.0170   20.2880 N   0  0  0  0  0  0  0  0  0  0  0  0
  -25.8270  -11.7280   20.5550 N   0  0  0  0  0  0  0  0  0  0  0  0
  -23.8360  -10.4710   21.0800 C   0  0  0  0  0  0  0  0  0  0  0  0
  -24.3020   -9.5060   22.0010 C   0  0  0  0  0  3  0  0  0  0  0  0
  -23.5970   -8.2970   22.1880 C   0  0  0  0  0  3  0  0  0  0  0  0
  -22.4130   -8.0460   21.4540 C   0  0  0  0  0  0  0  0  0  0  0  0
  -21.9660   -9.0010   20.5250 C   0  0  0  0  0  3  0  0  0  0  0  0
  -22.6700  -10.2010   20.3340 C   0  0  0  0  0  3  0  0  0  0  0  0
  -21.6730   -6.8910   21.5530 O   0  0  0  0  0  0  0  0  0  0  0  0
  -21.6680   -6.1360   22.6980 C   0  0  0  0  0  0  0  0  0  0  0  0
  -21.2720   -6.6750   23.9420 C   0  0  0  0  0  3  0  0  0  0  0  0
  -21.2140   -5.8460   25.0800 C   0  0  0  0  0  3  0  0  0  0  0  0
  -21.5410   -4.4810   24.9750 C   0  0  0  0  0  0  0  0  0  0  0  0
  -21.9330   -3.9440   23.7350 C   0  0  0  0  0  3  0  0  0  0  0  0
  -21.9940   -4.7690   22.5990 C   0  0  0  0  0  0  0  0  0  0  0  0
  -22.3480   -4.2430   21.4030 F   0  0  0  0  0  0  0  0  0  0  0  0
  -21.4780   -3.6810   26.0660 F   0  0  0  0  0  0  0  0  0  0  0  0
  -22.6600  -13.5460   21.2140 C   0  0  0  0  0  0  0  0  0  0  0  0
  -21.9550  -12.8380   22.0930 N   0  0  0  0  0  0  0  0  0  0  0  0
  -22.2010  -14.5640   20.7030 O   0  0  0  0  0  0  0  0  0  0  0  0
  -22.3410  -12.0140   22.5250 H   0  0  0  0  0  0  0  0  0  0  0  0
  -21.0190  -13.1290   22.3340 H   0  0  0  0  0  0  0  0  0  0  0  0
  -25.2450  -15.2510   20.3610 N   0  0  0  0  0  0  0  0  0  0  0  0
  -24.4690  -15.8900   20.4840 H   0  0  0  0  0  0  0  0  0  0  0  0
  -26.0750  -15.7030   19.9980 H   0  0  0  0  0  0  0  0  0  0  0  0
  -28.2200  -20.6620   18.9550 C   0  0  0  0  0  1  0  0  0  0  0  0
  -29.3520  -21.6150   18.9280 N   0  0  1  0  0  4  0  0  0  0  0  0
  -29.2440  -22.1020   18.0520 H   0  0  0  0  0  0  0  0  0  0  0  0
  -29.2410  -22.6900   19.9870 C   0  0  0  0  0  2  0  0  0  0  0  0
  -29.2280  -24.2010   19.5080 C   0  0  0  0  0  3  0  0  0  0  0  0
  -28.2800  -25.1660   20.3330 C   0  0  0  0  0  3  0  0  0  0  0  0
  -28.3670  -26.6150   20.0940 O   0  0  0  0  0  0  0  0  0  0  0  0
  -24.5890  -31.8970   23.2570 C   0  0  0  0  0  0  0  0  0  0  0  0
  -27.2000  -27.3920   20.1410 C   0  0  0  0  0  0  0  0  0  0  0  0
  -23.3730  -30.5080   21.6150 C   0  0  0  0  0  3  0  0  0  0  0  0
  -24.8140  -28.9610   20.1770 C   0  0  0  0  0  0  0  0  0  0  0  0
  -25.9070  -30.8300   21.4210 C   0  0  0  0  0  2  0  0  0  0  0  0
  -25.9790  -29.4570   20.7710 C   0  0  0  0  0  0  0  0  0  0  0  0
  -27.1710  -28.6790   20.7520 C   0  0  0  0  0  3  0  0  0  0  0  0
  -26.0100  -26.9390   19.5260 C   0  0  0  0  0  3  0  0  0  0  0  0
  -24.8270  -27.7040   19.5520 C   0  0  0  0  0  3  0  0  0  0  0  0
  -23.5820  -29.8400   20.2270 C   0  0  0  0  0  2  0  0  0  0  0  0
  -24.6430  -31.0960   22.1540 N   0  0  0  0  0  0  0  0  0  0  0  0
  -23.5070  -32.1720   23.7990 O   0  0  0  0  0  0  0  0  0  0  0  0
  -22.7150  -29.4870   22.5740 C   0  0  0  0  0  0  0  0  0  0  0  0
  -21.3890  -29.3090   22.4520 N   0  0  0  0  0  0  0  0  0  0  0  0
  -23.3970  -28.8610   23.3870 O   0  0  0  0  0  0  0  0  0  0  0  0
  -20.8970  -29.8740   21.7760 H   0  0  0  0  0  0  0  0  0  0  0  0
  -18.0170  -28.1020   22.9500 C   0  0  0  0  0  0  0  0  0  0  0  0
  -20.5740  -28.3670   23.2210 C   0  0  0  0  0  3  0  0  0  0  0  0
  -20.6790  -26.9370   22.6430 C   0  0  0  0  0  2  0  0  0  0  0  0
  -19.5760  -26.6120   21.6320 C   0  0  0  0  0  2  0  0  0  0  0  0
  -18.1950  -26.7530   22.2770 C   0  0  0  0  0  2  0  0  0  0  0  0
  -19.1330  -28.8670   23.3810 C   0  0  0  0  0  0  0  0  0  0  0  0
  -18.9120  -30.1310   23.9700 C   0  0  0  0  0  3  0  0  0  0  0  0
  -17.6050  -30.6250   24.1380 C   0  0  0  0  0  3  0  0  0  0  0  0
  -16.5030  -29.8590   23.7210 C   0  0  0  0  0  3  0  0  0  0  0  0
  -16.7090  -28.6000   23.1320 C   0  0  0  0  0  3  0  0  0  0  0  0
  -25.8760  -32.5240   23.8750 C   0  0  0  0  0  3  0  0  0  0  0  0
  -25.5760  -33.9270   24.1980 N   0  0  0  0  0  0  0  0  0  0  0  0
  -25.9130  -34.9760   23.4360 C   0  0  0  0  0  0  0  0  0  0  0  0
  -26.5810  -34.8670   22.4050 O   0  0  0  0  0  0  0  0  0  0  0  0
  -24.9900  -34.0850   25.0040 H   0  0  0  0  0  0  0  0  0  0  0  0
  -24.1990  -36.7830   23.0730 C   0  0  0  0  0  1  0  0  0  0  0  0
  -25.4340  -36.3690   23.8900 C   0  0  0  0  0  3  0  0  0  0  0  0
  -27.5680  -37.2470   24.7250 C   0  0  0  0  0  1  0  0  0  0  0  0
  -26.4730  -37.4160   23.7740 N   0  0  0  0  0  0  0  0  0  0  0  0
  -26.0740  -38.3410   23.9050 H   0  0  0  0  0  0  0  0  0  0  0  0
  -26.3850  -31.7580   25.1570 C   0  0  1  0  0  0  0  0  0  0  0  0
  -25.2980  -31.5430   26.2330 C   0  0  0  0  0  1  0  0  0  0  0  0
  -26.9550  -30.3710   24.7760 C   0  0  0  0  0  1  0  0  0  0  0  0
  -27.5380  -32.5500   25.8190 C   0  0  0  0  0  1  0  0  0  0  0  0
  1 49  1  0
  1  6  1  0
  3  2  1  0
  4  5  1  0
  5  2  2  0
  5  9  1  0
  6  4  2  0
  6  7  1  0
  7  3  2  0
  8  7  1  0
 10 18  1  0
 11 16  1  0
 12 13  1  0
 12 11  1  0
 14 13  1  0
 14 23  1  0
 14 15  1  0
 16 10  1  0
 16 15  1  0
 17 10  2  0
 18 19  1  0
 18  9  1  0
 20 21  2  0
 21 40  1  0
 22 21  1  0
 22 25  1  0
 23 20  1  0
 23 24  1  0
 24 22  2  0
 25 26  1  0
 26 27  2  0
 28 31  1  0
 28 27  1  0
 29 28  2  0
 30 29  1  0
 30 25  2  0
 31 32  1  0
 32 33  1  0
 33 34  2  0
 35 34  1  0
 35 39  1  0
 36 35  2  0
 37 32  2  0
 37 36  1  0
 38 37  1  0
 40 41  1  0
 41 44  1  0
 41 43  1  0
 42 40  2  0
 45 46  1  0
 45 20  1  0
 47 45  1  0
 49 48  1  0
 49 51  1  0
 49 50  1  6
 52 51  1  0
 52 53  2  0
 54 56  1  0
 54 53  1  0
 55 66  2  0
 56 61  1  0
 57 65  1  0
 57 67  1  0
 58 64  1  0
 58 60  1  0
 59 65  1  0
 60 59  1  0
 61 60  2  0
 62 63  1  0
 62 56  2  0
 63 58  2  0
 64 57  1  0
 65 55  1  0
 67 69  2  0
 68 67  1  0
 70 68  1  0
 71 80  2  0
 71 76  1  0
 72 68  1  0
 72 76  1  0
 73 72  1  0
 74 75  1  0
 74 73  1  0
 75 71  1  0
 76 77  2  0
 77 78  1  0
 79 78  2  0
 80 79  1  0
 81 55  1  0
 81 82  1  0
 81 91  1  0
 82 85  1  0
 83 87  1  0
 83 82  1  0
 84 83  2  0
 87 86  1  0
 89 87  1  0
 89 90  1  0
 89 88  1  0
 91 94  1  1
 91 92  1  0
 93 91  1  0
M  ISO  4  10 100  18 100  53 101  54 101
M  END
>  <TORSDO>  (35) 
F 22

>  <SCORE>  (35) 
-13.074

>  <name>  (35) 
34

>  <ligand_id>  (35) 
34

>  <original_smiles>  (35) 
[H]c1c([H])c([H])c2c(c1[H])C([H])([H])C([H])([H])C([H])([H])C2([H])N([H])C(=O)C1([H])N(C(=O)C([H])(N([H])C(=O)C([H])(N([H])C([H])([H])[H])C([H])([H])[H])C(C([H])([H])[H])(C([H])([H])[H])C([H])([H])[H])C([H])([H])c2c([H])c(OC([H])([H])C([H])([H])C([H])([H])[N+]([H])(C([H])([H])[H])C([H])([H])c3c([H])c(C([H])([H])N([H])C(=O)N4C([H])([H])C([H])([H])C([H])([H])C([H])(n5nc(-c6c([H])c([H])c(Oc7c([H])c([H])c(F)c([H])c7F)c([H])c6[H])c(C(=O)N([H])[H])c5N([H])[H])C4([H])[H])c([H])c([H])c3F)c([H])c([H])c2C1([H])[H]

>  <smiles>  (35) 
[H]c1c([H])c([H])c2c(c1[H])C([H])([H])C([H])([H])C([H])([H])C2([H])N([H])C(=O)C1([H])N(C(=O)C([H])(N([H])C(=O)C([H])(N([H])C([H])([H])[H])C([H])([H])[H])C(C([H])([H])[H])(C([H])([H])[H])C([H])([H])[H])C([H])([H])c2c([H])c(OC([H])([H])C([H])([H])C([H])([H])[N+]([H])(C([H])([H])[H])C([H])([H])c3c([H])c(C([H])([H])N([H])C(=O)N4C([H])([H])C([H])([H])C([H])([H])C([H])(n5nc(-c6c([H])c([H])c(Oc7c([H])c([H])c(F)c([H])c7F)c([H])c6[H])c(C(=O)N([H])[H])c5N([H])[H])C4([H])[H])c([H])c([H])c3F)c([H])c([H])c2C1([H])[H]

$$$$
35:0:0
     RDKit          3D

 91 99  0  0  1  0  0  0  0  0999 V2000
  -29.5260  -19.1160   17.9470 C   0  0  0  0  0  3  0  0  0  0  0  0
  -29.3190  -19.1790   20.6650 C   0  0  0  0  0  3  0  0  0  0  0  0
  -29.7040  -17.8950   18.6470 C   0  0  0  0  0  0  0  0  0  0  0  0
  -29.2540  -20.3700   18.5490 C   0  0  0  0  0  0  0  0  0  0  0  0
  -29.6210  -17.8250   20.0650 C   0  0  0  0  0  0  0  0  0  0  0  0
  -29.1260  -20.5060   19.9570 C   0  0  0  0  0  0  0  0  0  0  0  0
  -29.9390  -16.6550   17.7960 C   0  0  0  0  0  1  0  0  0  0  0  0
  -29.1570  -21.5700   17.6130 C   0  0  0  0  0  1  0  0  0  0  0  0
  -30.4790  -15.2090   20.5970 C   0  0  0  0  0  0  0  0  0  0  0  0
  -30.4950  -12.7830   19.8250 C   0  0  0  0  0  2  0  0  0  0  0  0
  -29.6550  -12.6300   18.5330 C   0  0  0  0  0  2  0  0  0  0  0  0
  -28.1710  -12.4070   18.8750 C   0  0  0  0  0  2  0  0  0  0  0  0
  -27.6620  -13.3780   19.9720 C   0  0  0  0  0  3  0  0  0  0  0  0
  -28.6360  -13.4880   21.1640 C   0  0  0  0  0  2  0  0  0  0  0  0
  -29.9300  -13.9180   20.6200 N   0  0  0  0  0  0  0  0  0  0  0  0
  -31.6910  -15.2660   20.3520 O   0  0  0  0  0  0  0  0  0  0  0  0
  -29.6800  -16.4060   20.7350 N   0  0  0  0  0  0  0  0  0  0  0  0
  -28.8280  -16.1980   21.2350 H   0  0  0  0  0  0  0  0  0  0  0  0
  -25.2400  -13.9330   20.5680 C   0  0  0  0  0  0  0  0  0  0  0  0
  -24.1660  -13.1510   20.8890 C   0  0  0  0  0  0  0  0  0  0  0  0
  -24.6480  -11.8070   20.9120 C   0  0  0  0  0  0  0  0  0  0  0  0
  -26.3050  -13.0650   20.4000 N   0  0  0  0  0  0  0  0  0  0  0  0
  -25.9550  -11.7820   20.6760 N   0  0  0  0  0  0  0  0  0  0  0  0
  -23.9250  -10.5380   21.0800 C   0  0  0  0  0  0  0  0  0  0  0  0
  -24.3130   -9.5890   22.0520 C   0  0  0  0  0  3  0  0  0  0  0  0
  -23.5870   -8.3880   22.2090 C   0  0  0  0  0  3  0  0  0  0  0  0
  -22.4600   -8.1280   21.3940 C   0  0  0  0  0  0  0  0  0  0  0  0
  -22.0910   -9.0660   20.4130 C   0  0  0  0  0  3  0  0  0  0  0  0
  -22.8170  -10.2580   20.2540 C   0  0  0  0  0  3  0  0  0  0  0  0
  -21.7090   -6.9790   21.4590 O   0  0  0  0  0  0  0  0  0  0  0  0
  -21.6000   -6.2560   22.6200 C   0  0  0  0  0  0  0  0  0  0  0  0
  -21.0940   -6.8250   23.8090 C   0  0  0  0  0  3  0  0  0  0  0  0
  -20.9340   -6.0270   24.9590 C   0  0  0  0  0  3  0  0  0  0  0  0
  -21.2700   -4.6600   24.9200 C   0  0  0  0  0  0  0  0  0  0  0  0
  -21.7720   -4.0910   23.7350 C   0  0  0  0  0  3  0  0  0  0  0  0
  -21.9330   -4.8870   22.5870 C   0  0  0  0  0  0  0  0  0  0  0  0
  -22.3950   -4.3290   21.4430 F   0  0  0  0  0  0  0  0  0  0  0  0
  -21.1100   -3.8910   26.0210 F   0  0  0  0  0  0  0  0  0  0  0  0
  -22.7510  -13.6190   21.0640 C   0  0  0  0  0  0  0  0  0  0  0  0
  -21.9750  -12.9340   21.8970 N   0  0  0  0  0  0  0  0  0  0  0  0
  -22.3390  -14.6300   20.4970 O   0  0  0  0  0  0  0  0  0  0  0  0
  -22.3180  -12.1180   22.3830 H   0  0  0  0  0  0  0  0  0  0  0  0
  -21.0240  -13.2350   22.0540 H   0  0  0  0  0  0  0  0  0  0  0  0
  -25.3960  -15.3020   20.3750 N   0  0  0  0  0  0  0  0  0  0  0  0
  -24.6130  -15.9440   20.4260 H   0  0  0  0  0  0  0  0  0  0  0  0
  -26.2470  -15.7430   20.0520 H   0  0  0  0  0  0  0  0  0  0  0  0
  -29.4670  -21.9750   21.8840 C   0  0  0  0  0  1  0  0  0  0  0  0
  -28.9440  -21.9000   20.5240 N   0  0  0  0  0  0  0  0  0  0  0  0
  -28.0020  -23.1440   20.1760 C   0  0  0  0  0  2  0  0  0  0  0  0
  -28.4170  -24.7480   19.6910 C   0  0  0  0  0  2  0  0  0  0  0  0
  -28.2360  -26.2210   20.2550 O   0  0  0  0  0  0  0  0  0  0  0  0
  -24.5740  -31.9200   23.1910 C   0  0  0  0  0  0  0  0  0  0  0  0
  -27.1690  -27.1980   20.1200 C   0  0  0  0  0  0  0  0  0  0  0  0
  -23.3780  -30.5260   21.5460 C   0  0  0  0  0  3  0  0  0  0  0  0
  -24.8310  -28.9580   20.0980 C   0  0  0  0  0  0  0  0  0  0  0  0
  -25.9310  -30.7920   21.3820 C   0  0  0  0  0  2  0  0  0  0  0  0
  -26.0070  -29.4020   20.7150 C   0  0  0  0  0  0  0  0  0  0  0  0
  -27.1670  -28.5350   20.7130 C   0  0  0  0  0  3  0  0  0  0  0  0
  -25.9700  -26.8660   19.4570 C   0  0  0  0  0  3  0  0  0  0  0  0
  -24.8290  -27.7090   19.4540 C   0  0  0  0  0  3  0  0  0  0  0  0
  -23.5980  -29.8530   20.1630 C   0  0  0  0  0  2  0  0  0  0  0  0
  -24.6480  -31.1050   22.0930 N   0  0  0  0  0  0  0  0  0  0  0  0
  -23.4880  -32.1950   23.7260 O   0  0  0  0  0  0  0  0  0  0  0  0
  -22.7090  -29.5120   22.5080 C   0  0  0  0  0  0  0  0  0  0  0  0
  -21.3820  -29.3350   22.3870 N   0  0  0  0  0  0  0  0  0  0  0  0
  -23.3880  -28.8880   23.3270 O   0  0  0  0  0  0  0  0  0  0  0  0
  -20.8880  -29.8870   21.6990 H   0  0  0  0  0  0  0  0  0  0  0  0
  -18.0140  -28.1020   22.8980 C   0  0  0  0  0  0  0  0  0  0  0  0
  -20.5710  -28.3870   23.1570 C   0  0  0  0  0  3  0  0  0  0  0  0
  -20.6840  -26.9580   22.5760 C   0  0  0  0  0  2  0  0  0  0  0  0
  -19.5820  -26.6310   21.5640 C   0  0  0  0  0  2  0  0  0  0  0  0
  -18.2010  -26.7590   22.2120 C   0  0  0  0  0  2  0  0  0  0  0  0
  -19.1270  -28.8730   23.3290 C   0  0  0  0  0  0  0  0  0  0  0  0
  -18.8960  -30.1280   23.9320 C   0  0  0  0  0  3  0  0  0  0  0  0
  -17.5870  -30.6140   24.1080 C   0  0  0  0  0  3  0  0  0  0  0  0
  -16.4890  -29.8400   23.6930 C   0  0  0  0  0  3  0  0  0  0  0  0
  -16.7030  -28.5860   23.0940 C   0  0  0  0  0  3  0  0  0  0  0  0
  -25.8490  -32.5630   23.8180 C   0  0  0  0  0  3  0  0  0  0  0  0
  -26.3610  -31.8000   25.1020 C   0  0  1  0  0  0  0  0  0  0  0  0
  -25.2640  -31.5680   26.1670 C   0  0  0  0  0  1  0  0  0  0  0  0
  -26.9480  -30.4200   24.7270 C   0  0  0  0  0  1  0  0  0  0  0  0
  -27.5080  -32.6000   25.7640 C   0  0  0  0  0  1  0  0  0  0  0  0
  -25.5310  -33.9610   24.1510 N   0  0  0  0  0  0  0  0  0  0  0  0
  -25.8730  -35.0230   23.4090 C   0  0  0  0  0  0  0  0  0  0  0  0
  -26.5540  -34.9290   22.3850 O   0  0  0  0  0  0  0  0  0  0  0  0
  -24.9250  -34.1090   24.9450 H   0  0  0  0  0  0  0  0  0  0  0  0
  -24.1570  -36.8290   23.0480 C   0  0  0  0  0  1  0  0  0  0  0  0
  -25.3820  -36.4090   23.8750 C   0  0  0  0  0  3  0  0  0  0  0  0
  -27.5050  -37.2810   24.7520 C   0  0  0  0  0  1  0  0  0  0  0  0
  -26.4200  -37.4600   23.7920 N   0  0  0  0  0  0  0  0  0  0  0  0
  -26.0140  -38.3800   23.9400 H   0  0  0  0  0  0  0  0  0  0  0  0
  1  4  2  0
  1  3  1  0
  3  5  2  0
  4  6  1  0
  5  2  1  0
  5 17  1  0
  6 48  1  0
  6  2  2  0
  7  3  1  0
  8  4  1  0
  9 15  1  0
  9 17  1  0
 10 15  1  0
 11 12  1  0
 11 10  1  0
 13 12  1  0
 13 22  1  0
 13 14  1  0
 15 14  1  0
 16  9  2  0
 17 18  1  0
 19 20  2  0
 20 21  1  0
 20 39  1  0
 21 24  1  0
 22 19  1  0
 22 23  1  0
 23 21  2  0
 24 25  1  0
 25 26  2  0
 27 30  1  0
 27 26  1  0
 28 27  2  0
 29 28  1  0
 29 24  2  0
 30 31  1  0
 31 32  1  0
 32 33  2  0
 34 33  1  0
 34 38  1  0
 35 34  2  0
 36 31  2  0
 36 35  1  0
 37 36  1  0
 39 40  1  0
 40 43  1  0
 40 42  1  0
 41 39  2  0
 44 45  1  0
 44 19  1  0
 46 44  1  0
 48 47  1  0
 49 48  1  0
 50 49  1  0
 50 51  1  0
 52 63  2  0
 53 51  1  0
 53 58  1  0
 54 62  1  0
 54 64  1  0
 55 61  1  0
 55 57  1  0
 56 62  1  0
 57 56  1  0
 58 57  2  0
 59 53  2  0
 60 59  1  0
 60 55  2  0
 61 54  1  0
 62 52  1  0
 64 66  2  0
 65 64  1  0
 67 65  1  0
 68 77  2  0
 68 73  1  0
 69 65  1  0
 69 73  1  0
 70 69  1  0
 71 72  1  0
 71 70  1  0
 72 68  1  0
 73 74  2  0
 74 75  1  0
 76 75  2  0
 77 76  1  0
 78 52  1  0
 78 83  1  0
 78 79  1  0
 79 82  1  1
 79 80  1  0
 81 79  1  0
 83 86  1  0
 84 88  1  0
 84 83  1  0
 85 84  2  0
 88 87  1  0
 90 88  1  0
 90 91  1  0
 90 89  1  0
M  ISO  4   9 100  17 100  50 101  51 101
M  END
>  <TORSDO>  (36) 
F 19

>  <SCORE>  (36) 
-14.231

>  <name>  (36) 
35

>  <ligand_id>  (36) 
35

>  <original_smiles>  (36) 
[H]c1c([H])c([H])c2c(c1[H])C([H])([H])C([H])([H])C([H])([H])C2([H])N([H])C(=O)C1([H])N(C(=O)C([H])(N([H])C(=O)C([H])(N([H])C([H])([H])[H])C([H])([H])[H])C(C([H])([H])[H])(C([H])([H])[H])C([H])([H])[H])C([H])([H])c2c([H])c(OC([H])([H])C([H])([H])N(c3c([H])c(N([H])C(=O)N4C([H])([H])C([H])([H])C([H])([H])C([H])(n5nc(-c6c([H])c([H])c(Oc7c([H])c([H])c(F)c([H])c7F)c([H])c6[H])c(C(=O)N([H])[H])c5N([H])[H])C4([H])[H])c(C([H])([H])[H])c([H])c3C([H])([H])[H])C([H])([H])[H])c([H])c([H])c2C1([H])[H]

>  <smiles>  (36) 
[H]c1c([H])c([H])c2c(c1[H])C([H])([H])C([H])([H])C([H])([H])C2([H])N([H])C(=O)C1([H])N(C(=O)C([H])(N([H])C(=O)C([H])(N([H])C([H])([H])[H])C([H])([H])[H])C(C([H])([H])[H])(C([H])([H])[H])C([H])([H])[H])C([H])([H])c2c([H])c(OC([H])([H])C([H])([H])N(c3c([H])c(N([H])C(=O)N4C([H])([H])C([H])([H])C([H])([H])C([H])(n5nc(-c6c([H])c([H])c(Oc7c([H])c([H])c(F)c([H])c7F)c([H])c6[H])c(C(=O)N([H])[H])c5N([H])[H])C4([H])[H])c(C([H])([H])[H])c([H])c3C([H])([H])[H])C([H])([H])[H])c([H])c([H])c2C1([H])[H]

$$$$
36:0:0
     RDKit          3D

 94101  0  0  1  0  0  0  0  0999 V2000
  -28.0580  -18.6720   20.2730 C   0  0  0  0  0  3  0  0  0  0  0  0
  -26.8360  -19.0810   19.7580 C   0  0  0  0  0  3  0  0  0  0  0  0
  -28.8850  -21.1870   20.0340 C   0  0  0  0  0  2  0  0  0  0  0  0
  -27.8220  -21.2000   19.0620 C   0  0  0  0  0  3  0  0  0  0  0  0
  -29.2500  -19.4320   20.2390 C   0  0  0  0  0  3  0  0  0  0  0  0
  -26.7820  -20.2490   19.0130 C   0  0  0  0  0  3  0  0  0  0  0  0
  -25.7440  -20.3940   18.1520 F   0  0  0  0  0  0  0  0  0  0  0  0
  -30.7170  -16.3540   20.8720 C   0  0  0  0  0  0  0  0  0  0  0  0
  -30.9920  -13.6040   20.5880 C   0  0  0  0  0  2  0  0  0  0  0  0
  -30.4240  -12.7150   19.4320 C   0  0  0  0  0  2  0  0  0  0  0  0
  -28.9740  -12.3090   19.7080 C   0  0  0  0  0  2  0  0  0  0  0  0
  -28.2100  -13.4680   20.3840 C   0  0  0  0  0  3  0  0  0  0  0  0
  -28.9850  -14.2430   21.5020 C   0  0  0  0  0  2  0  0  0  0  0  0
  -30.1700  -14.9230   20.8640 N   0  0  0  0  0  0  0  0  0  0  0  0
  -31.9150  -16.0750   21.1610 O   0  0  0  0  0  0  0  0  0  0  0  0
  -31.6420  -18.4630   19.8780 C   0  0  0  0  0  1  0  0  0  0  0  0
  -30.3600  -17.9510   20.3800 N   0  0  0  0  0  0  0  0  0  0  0  0
  -25.7930  -14.0320   20.8450 C   0  0  0  0  0  0  0  0  0  0  0  0
  -24.6700  -13.2840   21.0220 C   0  0  0  0  0  0  0  0  0  0  0  0
  -25.0910  -11.9170   21.0150 C   0  0  0  0  0  0  0  0  0  0  0  0
  -26.8340  -13.1360   20.7290 N   0  0  0  0  0  0  0  0  0  0  0  0
  -26.4180  -11.8490   20.8920 N   0  0  0  0  0  0  0  0  0  0  0  0
  -24.2900  -10.6820   21.0440 C   0  0  0  0  0  0  0  0  0  0  0  0
  -24.5900   -9.6180   21.9220 C   0  0  0  0  0  3  0  0  0  0  0  0
  -23.7810   -8.4610   21.9500 C   0  0  0  0  0  3  0  0  0  0  0  0
  -22.6560   -8.3570   21.0960 C   0  0  0  0  0  0  0  0  0  0  0  0
  -22.3750   -9.4110   20.2070 C   0  0  0  0  0  3  0  0  0  0  0  0
  -23.1870  -10.5570   20.1770 C   0  0  0  0  0  3  0  0  0  0  0  0
  -21.8270   -7.2610   21.0350 O   0  0  0  0  0  0  0  0  0  0  0  0
  -21.6830   -6.4070   22.0990 C   0  0  0  0  0  0  0  0  0  0  0  0
  -21.2110   -6.8520   23.3520 C   0  0  0  0  0  3  0  0  0  0  0  0
  -21.0100   -5.9300   24.3980 C   0  0  0  0  0  3  0  0  0  0  0  0
  -21.2750   -4.5620   24.1930 C   0  0  0  0  0  0  0  0  0  0  0  0
  -21.7370   -4.1150   22.9430 C   0  0  0  0  0  3  0  0  0  0  0  0
  -21.9380   -5.0350   21.8980 C   0  0  0  0  0  0  0  0  0  0  0  0
  -22.3640   -4.5940   20.6890 F   0  0  0  0  0  0  0  0  0  0  0  0
  -21.0760   -3.6730   25.1950 F   0  0  0  0  0  0  0  0  0  0  0  0
  -23.2660  -13.8120   21.0820 C   0  0  0  0  0  0  0  0  0  0  0  0
  -22.3990  -13.1500   21.8310 N   0  0  0  0  0  0  0  0  0  0  0  0
  -22.9480  -14.8540   20.5050 O   0  0  0  0  0  0  0  0  0  0  0  0
  -22.6780  -12.3130   22.3230 H   0  0  0  0  0  0  0  0  0  0  0  0
  -21.4470  -13.4790   21.9110 H   0  0  0  0  0  0  0  0  0  0  0  0
  -26.0140  -15.4040   20.7330 N   0  0  0  0  0  0  0  0  0  0  0  0
  -25.2350  -16.0500   20.6930 H   0  0  0  0  0  0  0  0  0  0  0  0
  -26.9000  -15.8310   20.4950 H   0  0  0  0  0  0  0  0  0  0  0  0
  -27.9850  -21.9980   17.7560 C   0  0  0  0  0  2  0  0  0  0  0  0
  -25.4050  -24.5830   16.8640 C   0  0  0  0  0  2  0  0  0  0  0  0
  -26.5780  -24.9190   15.9390 C   0  0  0  0  0  2  0  0  0  0  0  0
  -25.7870  -23.2340   17.4760 C   0  0  0  0  0  2  0  0  0  0  0  0
  -27.7590  -24.0920   16.4690 C   0  0  0  0  0  2  0  0  0  0  0  0
  -27.2600  -23.2860   17.6150 N   0  0  2  0  0  4  0  0  0  0  0  0
  -27.4450  -23.8210   18.4480 H   0  0  0  0  0  0  0  0  0  0  0  0
  -29.2340  -23.2080   20.2040 C   0  0  0  0  0 15  0  0  0  0  0  0
  -28.6420  -25.0240   20.6950 O   0  0  0  0  0  1  0  0  0  0  0  0
  -24.7740  -31.6930   23.2300 C   0  0  0  0  0  0  0  0  0  0  0  0
  -27.7260  -26.4010   20.4840 C   0  0  0  0  0  0  0  0  0  0  0  0
  -23.8150  -30.2660   21.4760 C   0  0  0  0  0  3  0  0  0  0  0  0
  -25.4580  -28.6180   20.2080 C   0  0  0  0  0  0  0  0  0  0  0  0
  -26.3990  -30.3700   21.6730 C   0  0  0  0  0  2  0  0  0  0  0  0
  -26.5670  -28.9100   21.0080 C   0  0  0  0  0  0  0  0  0  0  0  0
  -27.6590  -27.8390   21.1130 C   0  0  0  0  0  3  0  0  0  0  0  0
  -26.6010  -26.4370   19.6050 C   0  0  0  0  0  3  0  0  0  0  0  0
  -25.5410  -27.4120   19.4850 C   0  0  0  0  0  3  0  0  0  0  0  0
  -24.2300  -29.5720   20.1400 C   0  0  0  0  0  2  0  0  0  0  0  0
  -25.0170  -30.8180   22.1790 N   0  0  0  0  0  0  0  0  0  0  0  0
  -23.6220  -31.9770   23.6090 O   0  0  0  0  0  0  0  0  0  0  0  0
  -22.9970  -29.2870   22.3680 C   0  0  0  0  0  0  0  0  0  0  0  0
  -21.6610  -29.2110   22.1950 N   0  0  0  0  0  0  0  0  0  0  0  0
  -23.5840  -28.5910   23.2010 O   0  0  0  0  0  0  0  0  0  0  0  0
  -21.2240  -29.8400   21.5370 H   0  0  0  0  0  0  0  0  0  0  0  0
  -18.1890  -28.2210   22.6490 C   0  0  0  0  0  0  0  0  0  0  0  0
  -20.7680  -28.2580   22.8750 C   0  0  0  0  0  3  0  0  0  0  0  0
  -20.7420  -26.8970   22.1340 C   0  0  0  0  0  2  0  0  0  0  0  0
  -19.5990  -26.7850   21.1210 C   0  0  0  0  0  2  0  0  0  0  0  0
  -18.2460  -26.9520   21.8140 C   0  0  0  0  0  2  0  0  0  0  0  0
  -19.3730  -28.8400   23.1340 C   0  0  0  0  0  0  0  0  0  0  0  0
  -19.2610  -30.0300   23.8860 C   0  0  0  0  0  3  0  0  0  0  0  0
  -18.0000  -30.5960   24.1550 C   0  0  0  0  0  3  0  0  0  0  0  0
  -16.8320  -29.9720   23.6860 C   0  0  0  0  0  3  0  0  0  0  0  0
  -16.9280  -28.7870   22.9380 C   0  0  0  0  0  3  0  0  0  0  0  0
  -25.9300  -32.3880   24.0150 C   0  0  0  0  0  3  0  0  0  0  0  0
  -26.2550  -31.6810   25.3910 C   0  0  1  0  0  0  0  0  0  0  0  0
  -25.0190  -31.4800   26.2980 C   0  0  0  0  0  1  0  0  0  0  0  0
  -26.8880  -30.2900   25.1720 C   0  0  0  0  0  1  0  0  0  0  0  0
  -27.2910  -32.5150   26.1840 C   0  0  0  0  0  1  0  0  0  0  0  0
  -25.5450  -33.7940   24.2710 N   0  0  0  0  0  0  0  0  0  0  0  0
  -25.9470  -34.8580   23.5650 C   0  0  0  0  0  0  0  0  0  0  0  0
  -26.7400  -34.7630   22.6250 O   0  0  0  0  0  0  0  0  0  0  0  0
  -24.8430  -33.9390   24.9830 H   0  0  0  0  0  0  0  0  0  0  0  0
  -24.2370  -36.6380   23.0300 C   0  0  0  0  0  1  0  0  0  0  0  0
  -25.3970  -36.2500   23.9590 C   0  0  0  0  0  3  0  0  0  0  0  0
  -27.4190  -37.1910   24.9930 C   0  0  0  0  0  1  0  0  0  0  0  0
  -26.4200  -37.3210   23.9350 N   0  0  0  0  0  0  0  0  0  0  0  0
  -25.9850  -38.2370   24.0190 H   0  0  0  0  0  0  0  0  0  0  0  0
  2  1  2  0
  3  5  1  0
  4 46  1  0
  4  3  1  0
  5  1  1  0
  5 17  1  0
  6  7  1  0
  6  4  1  0
  6  2  1  0
  8 15  2  0
  9 14  1  0
 10 11  1  0
 10  9  1  0
 12 11  1  0
 12 21  1  0
 12 13  1  0
 14  8  1  0
 14 13  1  0
 16 17  1  0
 17  8  1  0
 18 19  2  0
 19 38  1  0
 20 19  1  0
 20 23  1  0
 21 18  1  0
 21 22  1  0
 22 20  2  0
 23 24  1  0
 24 25  2  0
 26 25  1  0
 27 26  2  0
 28 27  1  0
 28 23  2  0
 29 26  1  0
 29 30  1  0
 30 31  1  0
 31 32  2  0
 33 32  1  0
 33 37  1  0
 34 33  2  0
 35 30  2  0
 35 34  1  0
 36 35  1  0
 38 39  1  0
 39 42  1  0
 39 41  1  0
 40 38  2  0
 43 18  1  0
 44 43  1  0
 45 43  1  0
 47 49  1  0
 48 50  1  0
 48 47  1  0
 49 51  1  0
 50 51  1  0
 51 46  1  0
 51 52  1  1
 55 66  2  0
 56 54  1  0
 56 61  1  0
 57 65  1  0
 57 67  1  0
 58 60  1  0
 59 65  1  0
 60 61  2  0
 60 59  1  0
 62 56  2  0
 63 62  1  0
 63 58  2  0
 64 58  1  0
 64 57  1  0
 65 55  1  0
 67 69  2  0
 68 67  1  0
 70 68  1  0
 71 80  2  0
 71 76  1  0
 72 68  1  0
 72 76  1  0
 73 72  1  0
 74 75  1  0
 74 73  1  0
 75 71  1  0
 76 77  2  0
 77 78  1  0
 79 78  2  0
 80 79  1  0
 81 55  1  0
 81 86  1  0
 81 82  1  0
 82 85  1  1
 82 83  1  0
 84 82  1  0
 86 89  1  0
 87 91  1  0
 87 86  1  0
 88 87  2  0
 91 90  1  0
 93 91  1  0
 93 94  1  0
 93 92  1  0
M  ISO  4   8 100  17 100  53 101  54 101
M  END
>  <TORSDO>  (37) 
F 19

>  <SCORE>  (37) 
-12.945

>  <name>  (37) 
36

>  <ligand_id>  (37) 
36

>  <original_smiles>  (37) 
[H]c1c([H])c([H])c2c(c1[H])C([H])([H])C([H])([H])C([H])([H])C2([H])N([H])C(=O)C1([H])N(C(=O)C([H])(N([H])C(=O)C([H])(N([H])C([H])([H])[H])C([H])([H])[H])C(C([H])([H])[H])(C([H])([H])[H])C([H])([H])[H])C([H])([H])c2c([H])c(OC([H])([H])c3c(N(C(=O)N4C([H])([H])C([H])([H])C([H])([H])C([H])(n5nc(-c6c([H])c([H])c(Oc7c([H])c([H])c(F)c([H])c7F)c([H])c6[H])c(C(=O)N([H])[H])c5N([H])[H])C4([H])[H])C([H])([H])[H])c([H])c([H])c(F)c3C([H])([H])[N+]3([H])C([H])([H])C([H])([H])C([H])([H])C3([H])[H])c([H])c([H])c2C1([H])[H]

>  <smiles>  (37) 
[H]c1c([H])c([H])c2c(c1[H])C([H])([H])C([H])([H])C([H])([H])C2([H])N([H])C(=O)C1([H])N(C(=O)C([H])(N([H])C(=O)C([H])(N([H])C([H])([H])[H])C([H])([H])[H])C(C([H])([H])[H])(C([H])([H])[H])C([H])([H])[H])C([H])([H])c2c([H])c(OC([H])([H])c3c(N(C(=O)N4C([H])([H])C([H])([H])C([H])([H])C([H])(n5nc(-c6c([H])c([H])c(Oc7c([H])c([H])c(F)c([H])c7F)c([H])c6[H])c(C(=O)N([H])[H])c5N([H])[H])C4([H])[H])C([H])([H])[H])c([H])c([H])c(F)c3C([H])([H])[N+]3([H])C([H])([H])C([H])([H])C([H])([H])C3([H])[H])c([H])c([H])c2C1([H])[H]

$$$$
37:0:0
     RDKit          3D

 97105  0  0  1  0  0  0  0  0999 V2000
  -30.8520  -18.1460   19.5720 C   0  0  0  0  0  3  0  0  0  0  0  0
  -31.4090  -19.4170   19.3480 C   0  0  0  0  0  3  0  0  0  0  0  0
  -30.1480  -18.8550   21.7920 C   0  0  0  0  0  3  0  0  0  0  0  0
  -30.1950  -17.8700   20.7880 C   0  0  0  0  0  0  0  0  0  0  0  0
  -31.3220  -20.4250   20.3370 C   0  0  0  0  0  0  0  0  0  0  0  0
  -30.7140  -20.1320   21.5880 C   0  0  0  0  0  0  0  0  0  0  0  0
  -30.6360  -21.1780   22.7040 C   0  0  1  0  0  0  0  0  0  0  0  0
  -30.0130  -20.7150   23.7870 F   0  0  0  0  0  0  0  0  0  0  0  0
  -31.8640  -21.5530   23.0600 F   0  0  0  0  0  0  0  0  0  0  0  0
  -29.9660  -22.2480   22.2710 F   0  0  0  0  0  0  0  0  0  0  0  0
  -29.5210  -16.5240   21.0110 C   0  0  0  0  0  2  0  0  0  0  0  0
  -30.9400  -14.6330   20.4530 C   0  0  0  0  0  0  0  0  0  0  0  0
  -30.5520  -12.6360   19.0550 C   0  0  0  0  0  2  0  0  0  0  0  0
  -29.5870  -12.9560   17.8980 C   0  0  0  0  0  2  0  0  0  0  0  0
  -28.1220  -12.7890   18.3450 C   0  0  0  0  0  2  0  0  0  0  0  0
  -27.8190  -13.5270   19.6740 C   0  0  0  0  0  3  0  0  0  0  0  0
  -28.8870  -13.1900   20.7380 C   0  0  0  0  0  2  0  0  0  0  0  0
  -30.2140  -13.5170   20.1820 N   0  0  0  0  0  0  0  0  0  0  0  0
  -32.0120  -14.8960   19.8920 O   0  0  0  0  0  0  0  0  0  0  0  0
  -31.1960  -15.6860   22.6290 C   0  0  0  0  0  1  0  0  0  0  0  0
  -30.4320  -15.4410   21.4050 N   0  0  0  0  0  0  0  0  0  0  0  0
  -25.4140  -14.1190   20.3760 C   0  0  0  0  0  0  0  0  0  0  0  0
  -24.3550  -13.3370   20.7530 C   0  0  0  0  0  0  0  0  0  0  0  0
  -24.8330  -11.9910   20.7330 C   0  0  0  0  0  0  0  0  0  0  0  0
  -26.4690  -13.2470   20.1540 N   0  0  0  0  0  0  0  0  0  0  0  0
  -26.1220  -11.9630   20.4230 N   0  0  0  0  0  0  0  0  0  0  0  0
  -24.1230  -10.7220   20.9330 C   0  0  0  0  0  0  0  0  0  0  0  0
  -24.5460   -9.7850   21.9020 C   0  0  0  0  0  3  0  0  0  0  0  0
  -23.8380   -8.5790   22.0880 C   0  0  0  0  0  3  0  0  0  0  0  0
  -22.6930   -8.3000   21.3020 C   0  0  0  0  0  0  0  0  0  0  0  0
  -22.2910   -9.2250   20.3250 C   0  0  0  0  0  3  0  0  0  0  0  0
  -22.9990  -10.4220   20.1370 C   0  0  0  0  0  3  0  0  0  0  0  0
  -21.9590   -7.1420   21.3960 O   0  0  0  0  0  0  0  0  0  0  0  0
  -21.8530   -6.4510   22.5750 C   0  0  0  0  0  0  0  0  0  0  0  0
  -21.3350   -7.0480   23.7450 C   0  0  0  0  0  3  0  0  0  0  0  0
  -21.1780   -6.2820   24.9170 C   0  0  0  0  0  3  0  0  0  0  0  0
  -21.5290   -4.9180   24.9190 C   0  0  0  0  0  0  0  0  0  0  0  0
  -22.0390   -4.3190   23.7540 C   0  0  0  0  0  3  0  0  0  0  0  0
  -22.1970   -5.0850   22.5840 C   0  0  0  0  0  0  0  0  0  0  0  0
  -22.6700   -4.4980   21.4580 F   0  0  0  0  0  0  0  0  0  0  0  0
  -21.3690   -4.1790   26.0410 F   0  0  0  0  0  0  0  0  0  0  0  0
  -22.9520  -13.8000   21.0210 C   0  0  0  0  0  0  0  0  0  0  0  0
  -22.2370  -13.1060   21.9000 N   0  0  0  0  0  0  0  0  0  0  0  0
  -22.4980  -14.8100   20.4870 O   0  0  0  0  0  0  0  0  0  0  0  0
  -22.6170  -12.2900   22.3560 H   0  0  0  0  0  0  0  0  0  0  0  0
  -21.2960  -13.3960   22.1230 H   0  0  0  0  0  0  0  0  0  0  0  0
  -25.5630  -15.4900   20.1840 N   0  0  0  0  0  0  0  0  0  0  0  0
  -24.7850  -16.1340   20.2750 H   0  0  0  0  0  0  0  0  0  0  0  0
  -26.4030  -15.9310   19.8340 H   0  0  0  0  0  0  0  0  0  0  0  0
  -31.8630  -21.8180   20.0120 C   0  0  0  0  0  2  0  0  0  0  0  0
  -30.1610  -22.3930   18.2970 C   0  0  0  0  0  1  0  0  0  0  0  0
  -30.7980  -22.7740   19.5860 N   0  0  2  0  0  4  0  0  0  0  0  0
  -30.0830  -22.7040   20.2970 H   0  0  0  0  0  0  0  0  0  0  0  0
  -31.2980  -24.1770   19.6290 C   0  0  0  0  0  2  0  0  0  0  0  0
  -30.3150  -25.2930   19.1860 C   0  0  0  0  0  2  0  0  0  0  0  0
  -29.0490  -25.5120   20.0450 C   0  0  0  0  0  2  0  0  0  0  0  0
  -28.8390  -26.9250   20.0880 O   0  0  0  0  0  0  0  0  0  0  0  0
  -24.6580  -31.7560   23.1530 C   0  0  0  0  0  0  0  0  0  0  0  0
  -27.5820  -27.4870   20.0900 C   0  0  0  0  0  0  0  0  0  0  0  0
  -23.5530  -30.3280   21.4570 C   0  0  0  0  0  3  0  0  0  0  0  0
  -25.1070  -28.8620   20.0580 C   0  0  0  0  0  0  0  0  0  0  0  0
  -26.0590  -30.8000   21.3290 C   0  0  0  0  0  2  0  0  0  0  0  0
  -26.2190  -29.4390   20.6810 C   0  0  0  0  0  0  0  0  0  0  0  0
  -27.4530  -28.7600   20.6900 C   0  0  0  0  0  3  0  0  0  0  0  0
  -26.4490  -26.9110   19.4700 C   0  0  0  0  0  3  0  0  0  0  0  0
  -25.2170  -27.5960   19.4510 C   0  0  0  0  0  3  0  0  0  0  0  0
  -23.8250  -29.6630   20.0780 C   0  0  0  0  0  2  0  0  0  0  0  0
  -24.7730  -30.9760   22.0400 N   0  0  0  0  0  0  0  0  0  0  0  0
  -23.5540  -31.9740   23.6700 O   0  0  0  0  0  0  0  0  0  0  0  0
  -22.9180  -29.2730   22.3880 C   0  0  0  0  0  0  0  0  0  0  0  0
  -21.5990  -29.0650   22.2420 N   0  0  0  0  0  0  0  0  0  0  0  0
  -23.6080  -28.6400   23.1910 O   0  0  0  0  0  0  0  0  0  0  0  0
  -21.1010  -29.6320   21.5700 H   0  0  0  0  0  0  0  0  0  0  0  0
  -18.2440  -27.8060   22.6870 C   0  0  0  0  0  0  0  0  0  0  0  0
  -20.7960  -28.0890   22.9770 C   0  0  0  0  0  3  0  0  0  0  0  0
  -20.9200  -26.6800   22.3530 C   0  0  0  0  0  2  0  0  0  0  0  0
  -19.8280  -26.3750   21.3230 C   0  0  0  0  0  2  0  0  0  0  0  0
  -18.4420  -26.4800   21.9670 C   0  0  0  0  0  2  0  0  0  0  0  0
  -19.3500  -28.5680   23.1460 C   0  0  0  0  0  0  0  0  0  0  0  0
  -19.1140  -29.8080   23.7770 C   0  0  0  0  0  3  0  0  0  0  0  0
  -17.8030  -30.2840   23.9580 C   0  0  0  0  0  3  0  0  0  0  0  0
  -16.7090  -29.5200   23.5150 C   0  0  0  0  0  3  0  0  0  0  0  0
  -16.9310  -28.2830   22.8840 C   0  0  0  0  0  3  0  0  0  0  0  0
  -25.9020  -32.4280   23.8160 C   0  0  0  0  0  3  0  0  0  0  0  0
  -26.4150  -31.6580   25.0950 C   0  0  1  0  0  0  0  0  0  0  0  0
  -25.3050  -31.3650   26.1300 C   0  0  0  0  0  1  0  0  0  0  0  0
  -27.0580  -30.3100   24.6960 C   0  0  0  0  0  1  0  0  0  0  0  0
  -27.5160  -32.4850   25.8010 C   0  0  0  0  0  1  0  0  0  0  0  0
  -25.5360  -33.8090   24.1540 N   0  0  0  0  0  0  0  0  0  0  0  0
  -25.8410  -34.8820   23.4110 C   0  0  0  0  0  0  0  0  0  0  0  0
  -26.5320  -34.8170   22.3900 O   0  0  0  0  0  0  0  0  0  0  0  0
  -24.9290  -33.9340   24.9500 H   0  0  0  0  0  0  0  0  0  0  0  0
  -24.0400  -36.5990   23.0490 C   0  0  0  0  0  1  0  0  0  0  0  0
  -25.2890  -36.2440   23.8730 C   0  0  0  0  0  3  0  0  0  0  0  0
  -27.3720  -37.2140   24.7340 C   0  0  0  0  0  1  0  0  0  0  0  0
  -26.2760  -37.3420   23.7790 N   0  0  0  0  0  0  0  0  0  0  0  0
  -25.8280  -38.2420   23.9300 H   0  0  0  0  0  0  0  0  0  0  0  0
  1  4  1  0
  2  1  2  0
  2  5  1  0
  4 11  1  0
  4  3  2  0
  5  6  2  0
  6  3  1  0
  6  7  1  0
  7  9  1  1
  7  8  1  0
 10  7  1  0
 11 21  1  0
 12 21  1  0
 13 18  1  0
 14 15  1  0
 14 13  1  0
 16 15  1  0
 16 25  1  0
 16 17  1  0
 18 12  1  0
 18 17  1  0
 19 12  2  0
 21 20  1  0
 22 23  2  0
 23 42  1  0
 24 23  1  0
 24 27  1  0
 25 22  1  0
 25 26  1  0
 26 24  2  0
 27 28  1  0
 28 29  2  0
 30 33  1  0
 30 29  1  0
 31 30  2  0
 32 31  1  0
 32 27  2  0
 33 34  1  0
 34 39  2  0
 34 35  1  0
 35 36  2  0
 36 37  1  0
 37 41  1  0
 38 37  2  0
 39 38  1  0
 40 39  1  0
 42 43  1  0
 43 46  1  0
 43 45  1  0
 44 42  2  0
 47 48  1  0
 47 22  1  0
 49 47  1  0
 50  5  1  0
 51 52  1  0
 52 54  1  0
 52 50  1  0
 52 53  1  1
 55 54  1  0
 55 56  1  0
 56 57  1  0
 57 59  1  0
 58 69  2  0
 59 64  1  0
 60 68  1  0
 60 70  1  0
 61 67  1  0
 61 63  1  0
 62 68  1  0
 63 64  2  0
 63 62  1  0
 65 59  2  0
 66 65  1  0
 66 61  2  0
 67 60  1  0
 68 58  1  0
 70 72  2  0
 71 70  1  0
 73 71  1  0
 74 83  2  0
 74 79  1  0
 75 71  1  0
 75 79  1  0
 76 75  1  0
 77 78  1  0
 77 76  1  0
 78 74  1  0
 79 80  2  0
 80 81  1  0
 82 81  2  0
 83 82  1  0
 84 58  1  0
 84 89  1  0
 84 85  1  0
 85 88  1  1
 85 86  1  0
 87 85  1  0
 89 92  1  0
 90 94  1  0
 90 89  1  0
 91 90  2  0
 94 93  1  0
 96 94  1  0
 96 97  1  0
 96 95  1  0
M  ISO  4  12 100  21 100  56 101  57 101
M  END
>  <TORSDO>  (38) 
F 23

>  <SCORE>  (38) 
-11.947

>  <name>  (38) 
37

>  <ligand_id>  (38) 
37

>  <original_smiles>  (38) 
[H]c1c([H])c([H])c2c(c1[H])C([H])([H])C([H])([H])C([H])([H])C2([H])N([H])C(=O)C1([H])N(C(=O)C([H])(N([H])C(=O)C([H])(N([H])C([H])([H])[H])C([H])([H])[H])C(C([H])([H])[H])(C([H])([H])[H])C([H])([H])[H])C([H])([H])c2c([H])c(OC([H])([H])C([H])([H])C([H])([H])[N+]([H])(C([H])([H])[H])C([H])([H])c3c([H])c([H])c(C([H])([H])N(C(=O)N4C([H])([H])C([H])([H])C([H])([H])C([H])(n5nc(-c6c([H])c([H])c(Oc7c([H])c([H])c(F)c([H])c7F)c([H])c6[H])c(C(=O)N([H])[H])c5N([H])[H])C4([H])[H])C([H])([H])[H])c([H])c3C(F)(F)F)c([H])c([H])c2C1([H])[H]

>  <smiles>  (38) 
[H]c1c([H])c([H])c2c(c1[H])C([H])([H])C([H])([H])C([H])([H])C2([H])N([H])C(=O)C1([H])N(C(=O)C([H])(N([H])C(=O)C([H])(N([H])C([H])([H])[H])C([H])([H])[H])C(C([H])([H])[H])(C([H])([H])[H])C([H])([H])[H])C([H])([H])c2c([H])c(OC([H])([H])C([H])([H])C([H])([H])[N+]([H])(C([H])([H])[H])C([H])([H])c3c([H])c([H])c(C([H])([H])N(C(=O)N4C([H])([H])C([H])([H])C([H])([H])C([H])(n5nc(-c6c([H])c([H])c(Oc7c([H])c([H])c(F)c([H])c7F)c([H])c6[H])c(C(=O)N([H])[H])c5N([H])[H])C4([H])[H])C([H])([H])[H])c([H])c3C(F)(F)F)c([H])c([H])c2C1([H])[H]

$$$$
38:0:0
     RDKit          3D

 94102  0  0  1  0  0  0  0  0999 V2000
  -30.4230  -19.9460   18.9240 C   0  0  0  0  0  3  0  0  0  0  0  0
  -28.6790  -19.8040   20.6030 C   0  0  0  0  0  3  0  0  0  0  0  0
  -29.5210  -20.5990   19.7960 C   0  0  0  0  0  0  0  0  0  0  0  0
  -30.4680  -18.5330   18.8320 C   0  0  0  0  0  0  0  0  0  0  0  0
  -29.6020  -17.7370   19.6300 C   0  0  0  0  0  0  0  0  0  0  0  0
  -28.7180  -18.3950   20.5210 C   0  0  0  0  0  0  0  0  0  0  0  0
  -31.4470  -17.9040   17.8530 C   0  0  0  0  0  1  0  0  0  0  0  0
  -27.8810  -17.6700   21.3020 F   0  0  0  0  0  0  0  0  0  0  0  0
  -29.5390  -16.1990   19.4890 C   0  0  0  0  0  2  0  0  0  0  0  0
  -31.1040  -14.2920   19.3400 C   0  0  0  0  0  0  0  0  0  0  0  0
  -30.5640  -12.0480   18.4530 C   0  0  0  0  0  2  0  0  0  0  0  0
  -29.4870  -12.1470   17.3560 C   0  0  0  0  0  2  0  0  0  0  0  0
  -28.0780  -12.0920   17.9750 C   0  0  0  0  0  2  0  0  0  0  0  0
  -27.9110  -13.0780   19.1600 C   0  0  0  0  0  3  0  0  0  0  0  0
  -29.0940  -12.9720   20.1510 C   0  0  0  0  0  2  0  0  0  0  0  0
  -30.3430  -13.1600   19.3950 N   0  0  0  0  0  0  0  0  0  0  0  0
  -32.1710  -14.3310   18.7220 O   0  0  0  0  0  0  0  0  0  0  0  0
  -31.6160  -16.1240   20.8470 C   0  0  0  0  0  1  0  0  0  0  0  0
  -30.6640  -15.3870   20.0120 N   0  0  0  0  0  0  0  0  0  0  0  0
  -25.7250  -13.8800   20.2490 C   0  0  0  0  0  0  0  0  0  0  0  0
  -24.6440  -13.1970   20.7370 C   0  0  0  0  0  0  0  0  0  0  0  0
  -24.9480  -11.8110   20.5770 C   0  0  0  0  0  0  0  0  0  0  0  0
  -26.6240  -12.9120   19.8260 N   0  0  0  0  0  0  0  0  0  0  0  0
  -26.1690  -11.6600   20.0810 N   0  0  0  0  0  0  0  0  0  0  0  0
  -24.1260  -10.6180   20.8120 C   0  0  0  0  0  0  0  0  0  0  0  0
  -24.5440   -9.5950   21.6900 C   0  0  0  0  0  3  0  0  0  0  0  0
  -23.7270   -8.4670   21.9140 C   0  0  0  0  0  3  0  0  0  0  0  0
  -22.4770   -8.3550   21.2580 C   0  0  0  0  0  0  0  0  0  0  0  0
  -22.0760   -9.3650   20.3670 C   0  0  0  0  0  3  0  0  0  0  0  0
  -22.8940  -10.4850   20.1410 C   0  0  0  0  0  3  0  0  0  0  0  0
  -21.6290   -7.2820   21.3950 O   0  0  0  0  0  0  0  0  0  0  0  0
  -21.5720   -6.5540   22.5560 C   0  0  0  0  0  0  0  0  0  0  0  0
  -21.2200   -7.1430   23.7890 C   0  0  0  0  0  3  0  0  0  0  0  0
  -21.1060   -6.3440   24.9450 C   0  0  0  0  0  3  0  0  0  0  0  0
  -21.3330   -4.9560   24.8670 C   0  0  0  0  0  0  0  0  0  0  0  0
  -21.6790   -4.3670   23.6380 C   0  0  0  0  0  3  0  0  0  0  0  0
  -21.7950   -5.1640   22.4850 C   0  0  0  0  0  0  0  0  0  0  0  0
  -22.1080   -4.5870   21.2990 F   0  0  0  0  0  0  0  0  0  0  0  0
  -21.2160   -4.1870   25.9740 F   0  0  0  0  0  0  0  0  0  0  0  0
  -23.3590  -13.7950   21.2330 C   0  0  0  0  0  0  0  0  0  0  0  0
  -22.6930  -13.1250   22.1670 N   0  0  0  0  0  0  0  0  0  0  0  0
  -22.9630  -14.8870   20.8280 O   0  0  0  0  0  0  0  0  0  0  0  0
  -23.0290  -12.2400   22.5150 H   0  0  0  0  0  0  0  0  0  0  0  0
  -21.8350  -13.5050   22.5400 H   0  0  0  0  0  0  0  0  0  0  0  0
  -26.0060  -15.2360   20.1090 N   0  0  0  0  0  0  0  0  0  0  0  0
  -25.3330  -15.9500   20.3600 H   0  0  0  0  0  0  0  0  0  0  0  0
  -26.8280  -15.6110   19.6560 H   0  0  0  0  0  0  0  0  0  0  0  0
  -29.4840  -22.1380   19.8740 C   0  0  0  0  0  2  0  0  0  0  0  0
  -28.1120  -22.1560   17.7980 C   0  0  0  0  0  1  0  0  0  0  0  0
  -28.3770  -22.8000   19.1110 N   0  0  2  0  0  4  0  0  0  0  0  0
  -27.5350  -22.6480   19.6460 H   0  0  0  0  0  0  0  0  0  0  0  0
  -28.5450  -24.2860   18.9550 C   0  0  0  0  0  2  0  0  0  0  0  0
  -28.1910  -25.1220   20.2120 C   0  0  0  0  0  2  0  0  0  0  0  0
  -28.2930  -26.5420   19.9710 O   0  0  0  0  0  0  0  0  0  0  0  0
  -24.4340  -31.6000   23.1710 C   0  0  0  0  0  0  0  0  0  0  0  0
  -27.1210  -27.2700   19.9690 C   0  0  0  0  0  0  0  0  0  0  0  0
  -23.2520  -30.2640   21.4580 C   0  0  0  0  0  3  0  0  0  0  0  0
  -24.7260  -28.7810   19.9960 C   0  0  0  0  0  0  0  0  0  0  0  0
  -25.7800  -30.6300   21.3090 C   0  0  0  0  0  2  0  0  0  0  0  0
  -25.8760  -29.2830   20.6180 C   0  0  0  0  0  0  0  0  0  0  0  0
  -27.0770  -28.5390   20.5940 C   0  0  0  0  0  3  0  0  0  0  0  0
  -25.9510  -26.7840   19.3410 C   0  0  0  0  0  3  0  0  0  0  0  0
  -24.7600  -27.5330   19.3540 C   0  0  0  0  0  3  0  0  0  0  0  0
  -23.4810  -29.6390   20.0560 C   0  0  0  0  0  2  0  0  0  0  0  0
  -24.5070  -30.8450   22.0390 N   0  0  0  0  0  0  0  0  0  0  0  0
  -23.3450  -31.8520   23.7060 O   0  0  0  0  0  0  0  0  0  0  0  0
  -22.5860  -29.2080   22.3680 C   0  0  0  0  0  0  0  0  0  0  0  0
  -21.2650  -29.0270   22.2090 N   0  0  0  0  0  0  0  0  0  0  0  0
  -23.2560  -28.5540   23.1720 O   0  0  0  0  0  0  0  0  0  0  0  0
  -20.7850  -29.6090   21.5350 H   0  0  0  0  0  0  0  0  0  0  0  0
  -17.8820  -27.8200   22.6060 C   0  0  0  0  0  0  0  0  0  0  0  0
  -20.4350  -28.0600   22.9270 C   0  0  0  0  0  3  0  0  0  0  0  0
  -20.5450  -26.6530   22.2930 C   0  0  0  0  0  2  0  0  0  0  0  0
  -19.4570  -26.3760   21.2510 C   0  0  0  0  0  2  0  0  0  0  0  0
  -18.0670  -26.4990   21.8790 C   0  0  0  0  0  2  0  0  0  0  0  0
  -18.9950  -28.5600   23.0850 C   0  0  0  0  0  0  0  0  0  0  0  0
  -18.7700  -29.8000   23.7230 C   0  0  0  0  0  3  0  0  0  0  0  0
  -17.4640  -30.2980   23.8880 C   0  0  0  0  0  3  0  0  0  0  0  0
  -16.3660  -29.5530   23.4270 C   0  0  0  0  0  3  0  0  0  0  0  0
  -16.5740  -28.3160   22.7920 C   0  0  0  0  0  3  0  0  0  0  0  0
  -25.7110  -32.2050   23.8350 C   0  0  0  0  0  3  0  0  0  0  0  0
  -25.4040  -33.5940   24.2010 N   0  0  0  0  0  0  0  0  0  0  0  0
  -25.7580  -34.6670   23.4800 C   0  0  0  0  0  0  0  0  0  0  0  0
  -26.4470  -34.5890   22.4590 O   0  0  0  0  0  0  0  0  0  0  0  0
  -24.7960  -33.7300   24.9960 H   0  0  0  0  0  0  0  0  0  0  0  0
  -24.0440  -36.4760   23.1440 C   0  0  0  0  0  1  0  0  0  0  0  0
  -25.2680  -36.0430   23.9680 C   0  0  0  0  0  3  0  0  0  0  0  0
  -27.3840  -36.8980   24.8720 C   0  0  0  0  0  1  0  0  0  0  0  0
  -26.3070  -37.0940   23.9060 N   0  0  0  0  0  0  0  0  0  0  0  0
  -25.9000  -38.0110   24.0670 H   0  0  0  0  0  0  0  0  0  0  0  0
  -26.2020  -31.3910   25.0940 C   0  0  1  0  0  0  0  0  0  0  0  0
  -25.0880  -31.1170   26.1310 C   0  0  0  0  0  1  0  0  0  0  0  0
  -26.7930  -30.0280   24.6650 C   0  0  0  0  0  1  0  0  0  0  0  0
  -27.3390  -32.1610   25.8070 C   0  0  0  0  0  1  0  0  0  0  0  0
  1  3  1  0
  3 48  1  0
  3  2  2  0
  4  1  2  0
  4  5  1  0
  5  6  2  0
  6  2  1  0
  6  8  1  0
  7  4  1  0
  9  5  1  0
  9 19  1  0
 10 16  1  0
 10 19  1  0
 11 16  1  0
 12 13  1  0
 12 11  1  0
 14 13  1  0
 14 23  1  0
 14 15  1  0
 16 15  1  0
 17 10  2  0
 19 18  1  0
 20 21  2  0
 21 40  1  0
 22 21  1  0
 22 25  1  0
 23 24  1  0
 23 20  1  0
 24 22  2  0
 25 26  1  0
 26 27  2  0
 28 31  1  0
 28 27  1  0
 29 28  2  0
 30 29  1  0
 30 25  2  0
 31 32  1  0
 32 33  1  0
 33 34  2  0
 35 34  1  0
 35 39  1  0
 36 35  2  0
 37 32  2  0
 37 36  1  0
 38 37  1  0
 40 41  1  0
 41 43  1  0
 41 44  1  0
 42 40  2  0
 45 20  1  0
 45 46  1  0
 47 45  1  0
 49 50  1  0
 50 51  1  1
 50 48  1  0
 52 50  1  0
 52 53  1  0
 54 53  1  0
 55 66  2  0
 56 54  1  0
 56 61  1  0
 57 65  1  0
 57 67  1  0
 58 64  1  0
 58 60  1  0
 59 65  1  0
 60 59  1  0
 61 60  2  0
 62 63  1  0
 62 56  2  0
 63 58  2  0
 64 57  1  0
 65 55  1  0
 67 69  2  0
 68 67  1  0
 70 68  1  0
 71 80  2  0
 71 76  1  0
 72 68  1  0
 72 76  1  0
 73 72  1  0
 74 75  1  0
 74 73  1  0
 75 71  1  0
 76 77  2  0
 77 78  1  0
 79 78  2  0
 80 79  1  0
 81 55  1  0
 81 82  1  0
 81 91  1  0
 82 85  1  0
 83 87  1  0
 83 82  1  0
 84 83  2  0
 87 86  1  0
 89 87  1  0
 89 90  1  0
 89 88  1  0
 91 94  1  1
 91 92  1  0
 93 91  1  0
M  ISO  4  10 100  19 100  53 101  54 101
M  END
>  <TORSDO>  (39) 
F 21

>  <SCORE>  (39) 
-12.142

>  <name>  (39) 
38

>  <ligand_id>  (39) 
38

>  <original_smiles>  (39) 
[H]c1c([H])c([H])c2c(c1[H])C([H])([H])C([H])([H])C([H])([H])C2([H])N([H])C(=O)C1([H])N(C(=O)C([H])(N([H])C(=O)C([H])(N([H])C([H])([H])[H])C([H])([H])[H])C(C([H])([H])[H])(C([H])([H])[H])C([H])([H])[H])C([H])([H])c2c([H])c(OC([H])([H])C([H])([H])[N+]([H])(C([H])([H])[H])C([H])([H])c3c([H])c(F)c(C([H])([H])N(C(=O)N4C([H])([H])C([H])([H])C([H])([H])C([H])(n5nc(-c6c([H])c([H])c(Oc7c([H])c([H])c(F)c([H])c7F)c([H])c6[H])c(C(=O)N([H])[H])c5N([H])[H])C4([H])[H])C([H])([H])[H])c(C([H])([H])[H])c3[H])c([H])c([H])c2C1([H])[H]

>  <smiles>  (39) 
[H]c1c([H])c([H])c2c(c1[H])C([H])([H])C([H])([H])C([H])([H])C2([H])N([H])C(=O)C1([H])N(C(=O)C([H])(N([H])C(=O)C([H])(N([H])C([H])([H])[H])C([H])([H])[H])C(C([H])([H])[H])(C([H])([H])[H])C([H])([H])[H])C([H])([H])c2c([H])c(OC([H])([H])C([H])([H])[N+]([H])(C([H])([H])[H])C([H])([H])c3c([H])c(F)c(C([H])([H])N(C(=O)N4C([H])([H])C([H])([H])C([H])([H])C([H])(n5nc(-c6c([H])c([H])c(Oc7c([H])c([H])c(F)c([H])c7F)c([H])c6[H])c(C(=O)N([H])[H])c5N([H])[H])C4([H])[H])C([H])([H])[H])c(C([H])([H])[H])c3[H])c([H])c([H])c2C1([H])[H]

$$$$
39:0:0
     RDKit          3D

100108  0  0  1  0  0  0  0  0999 V2000
  -29.9510  -19.5720   21.6130 C   0  0  0  0  0  3  0  0  0  0  0  0
  -30.0260  -16.8510   22.0470 C   0  0  0  0  0  3  0  0  0  0  0  0
  -29.3800  -18.7600   20.5850 C   0  0  0  0  0  0  0  0  0  0  0  0
  -30.5140  -19.0900   22.8040 C   0  0  0  0  0  0  0  0  0  0  0  0
  -29.4490  -17.2840   20.8180 C   0  0  0  0  0  0  0  0  0  0  0  0
  -30.5510  -17.7090   23.0160 C   0  0  0  0  0  0  0  0  0  0  0  0
  -31.0850  -17.1950   24.1500 F   0  0  0  0  0  0  0  0  0  0  0  0
  -29.7060  -15.0030   19.6580 C   0  0  0  0  0  0  0  0  0  0  0  0
  -29.5650  -12.7210   18.6360 C   0  0  0  0  0  2  0  0  0  0  0  0
  -28.4810  -12.6650   17.5420 C   0  0  0  0  0  2  0  0  0  0  0  0
  -27.1100  -12.3360   18.1620 C   0  0  0  0  0  2  0  0  0  0  0  0
  -26.7940  -13.2010   19.4120 C   0  0  0  0  0  3  0  0  0  0  0  0
  -27.9890  -13.2710   20.3870 C   0  0  0  0  0  2  0  0  0  0  0  0
  -29.1450  -13.7460   19.6190 N   0  0  0  0  0  0  0  0  0  0  0  0
  -30.8280  -15.1770   19.1750 O   0  0  0  0  0  0  0  0  0  0  0  0
  -28.9530  -16.1140   20.0470 N   0  0  0  0  0  0  0  0  0  0  0  0
  -27.9570  -15.9620   20.0820 H   0  0  0  0  0  0  0  0  0  0  0  0
  -24.5180  -13.5440   20.5360 C   0  0  0  0  0  0  0  0  0  0  0  0
  -23.5760  -12.6620   20.9920 C   0  0  0  0  0  0  0  0  0  0  0  0
  -24.1200  -11.3590   20.7830 C   0  0  0  0  0  0  0  0  0  0  0  0
  -25.5680  -12.7690   20.0760 N   0  0  0  0  0  0  0  0  0  0  0  0
  -25.3490  -11.4460   20.2890 N   0  0  0  0  0  0  0  0  0  0  0  0
  -23.5160  -10.0320   20.9670 C   0  0  0  0  0  0  0  0  0  0  0  0
  -24.0990   -9.0660   21.8190 C   0  0  0  0  0  3  0  0  0  0  0  0
  -23.4890   -7.8060   21.9950 C   0  0  0  0  0  3  0  0  0  0  0  0
  -22.2820   -7.5000   21.3220 C   0  0  0  0  0  0  0  0  0  0  0  0
  -21.7200   -8.4550   20.4570 C   0  0  0  0  0  3  0  0  0  0  0  0
  -22.3320   -9.7070   20.2770 C   0  0  0  0  0  3  0  0  0  0  0  0
  -21.6300   -6.2950   21.4160 O   0  0  0  0  0  0  0  0  0  0  0  0
  -21.6730   -5.5410   22.5600 C   0  0  0  0  0  0  0  0  0  0  0  0
  -21.2260   -6.0430   23.8010 C   0  0  0  0  0  3  0  0  0  0  0  0
  -21.2210   -5.2100   24.9380 C   0  0  0  0  0  3  0  0  0  0  0  0
  -21.6530   -3.8740   24.8350 C   0  0  0  0  0  0  0  0  0  0  0  0
  -22.0930   -3.3700   23.5980 C   0  0  0  0  0  3  0  0  0  0  0  0
  -22.0990   -4.2000   22.4640 C   0  0  0  0  0  0  0  0  0  0  0  0
  -22.5040   -3.7020   21.2700 F   0  0  0  0  0  0  0  0  0  0  0  0
  -21.6420   -3.0700   25.9240 F   0  0  0  0  0  0  0  0  0  0  0  0
  -22.2050  -13.0060   21.5000 C   0  0  0  0  0  0  0  0  0  0  0  0
  -21.6720  -12.2090   22.4180 N   0  0  0  0  0  0  0  0  0  0  0  0
  -21.6170  -14.0150   21.1150 O   0  0  0  0  0  0  0  0  0  0  0  0
  -22.1600  -11.3890   22.7450 H   0  0  0  0  0  0  0  0  0  0  0  0
  -20.7620  -12.4200   22.8010 H   0  0  0  0  0  0  0  0  0  0  0  0
  -24.5570  -14.9320   20.4490 N   0  0  0  0  0  0  0  0  0  0  0  0
  -23.7610  -15.5070   20.7060 H   0  0  0  0  0  0  0  0  0  0  0  0
  -25.3000  -15.4610   20.0140 H   0  0  0  0  0  0  0  0  0  0  0  0
  -27.4330  -19.1550   18.8980 C   0  0  0  0  0  1  0  0  0  0  0  0
  -28.8120  -19.6470   19.3640 C   0  0  0  0  0  3  0  0  0  0  0  0
  -28.8280  -21.1910   19.5870 N   0  0  0  0  0  4  0  0  0  0  0  0
  -28.4660  -21.3430   20.5150 H   0  0  0  0  0  0  0  0  0  0  0  0
  -29.8040  -21.4370   19.6090 H   0  0  0  0  0  0  0  0  0  0  0  0
  -28.1510  -22.2490   18.6970 C   0  0  0  0  0  2  0  0  0  0  0  0
  -28.5560  -23.8210   18.9230 C   0  0  0  0  0  3  0  0  0  0  0  0
  -27.5600  -25.0180   18.4730 C   0  0  0  0  0  3  0  0  0  0  0  0
  -27.8540  -26.4860   18.6820 O   0  0  0  0  0  0  0  0  0  0  0  0
  -24.5300  -31.4860   22.7740 C   0  0  0  0  0  0  0  0  0  0  0  0
  -26.7690  -27.3830   18.8520 C   0  0  0  0  0  0  0  0  0  0  0  0
  -23.1520  -30.3000   21.1090 C   0  0  0  0  0  3  0  0  0  0  0  0
  -24.4290  -28.9850   19.3260 C   0  0  0  0  0  0  0  0  0  0  0  0
  -25.6580  -30.6740   20.6830 C   0  0  0  0  0  2  0  0  0  0  0  0
  -25.6640  -29.3950   19.8500 C   0  0  0  0  0  0  0  0  0  0  0  0
  -26.8360  -28.6040   19.6070 C   0  0  0  0  0  3  0  0  0  0  0  0
  -25.5100  -27.0650   18.2910 C   0  0  0  0  0  3  0  0  0  0  0  0
  -24.3570  -27.8320   18.5360 C   0  0  0  0  0  3  0  0  0  0  0  0
  -23.2060  -29.8250   19.6360 C   0  0  0  0  0  2  0  0  0  0  0  0
  -24.4720  -30.8330   21.5760 N   0  0  0  0  0  0  0  0  0  0  0  0
  -23.5120  -31.6680   23.4610 O   0  0  0  0  0  0  0  0  0  0  0  0
  -22.6060  -29.1510   21.9940 C   0  0  0  0  0  0  0  0  0  0  0  0
  -21.2770  -28.9500   21.9790 N   0  0  0  0  0  0  0  0  0  0  0  0
  -23.3740  -28.4480   22.6540 O   0  0  0  0  0  0  0  0  0  0  0  0
  -20.7100  -29.5710   21.4190 H   0  0  0  0  0  0  0  0  0  0  0  0
  -17.9950  -27.5660   22.6190 C   0  0  0  0  0  0  0  0  0  0  0  0
  -20.5600  -27.8980   22.7010 C   0  0  0  0  0  3  0  0  0  0  0  0
  -20.6560  -26.5460   21.9560 C   0  0  0  0  0  2  0  0  0  0  0  0
  -19.4800  -26.2960   21.0090 C   0  0  0  0  0  2  0  0  0  0  0  0
  -18.1540  -26.3120   21.7760 C   0  0  0  0  0  2  0  0  0  0  0  0
  -19.1220  -28.3190   23.0390 C   0  0  0  0  0  0  0  0  0  0  0  0
  -18.9170  -29.4970   23.7900 C   0  0  0  0  0  3  0  0  0  0  0  0
  -17.6170  -29.9210   24.1230 C   0  0  0  0  0  3  0  0  0  0  0  0
  -16.5050  -29.1650   23.7160 C   0  0  0  0  0  3  0  0  0  0  0  0
  -16.6930  -27.9890   22.9690 C   0  0  0  0  0  3  0  0  0  0  0  0
  -25.8710  -32.0560   23.3270 C   0  0  0  0  0  3  0  0  0  0  0  0
  -25.5900  -33.3800   23.9010 N   0  0  0  0  0  0  0  0  0  0  0  0
  -25.8680  -34.5460   23.3040 C   0  0  0  0  0  0  0  0  0  0  0  0
  -26.4560  -34.6190   22.2210 O   0  0  0  0  0  0  0  0  0  0  0  0
  -25.0660  -33.3990   24.7630 H   0  0  0  0  0  0  0  0  0  0  0  0
  -24.1260  -36.3570   23.3740 C   0  0  0  0  0  1  0  0  0  0  0  0
  -25.4200  -35.8350   24.0180 C   0  0  0  0  0  3  0  0  0  0  0  0
  -27.6080  -36.5900   24.8340 C   0  0  0  0  0  1  0  0  0  0  0  0
  -26.4440  -36.9020   24.0070 N   0  0  0  0  0  0  0  0  0  0  0  0
  -26.0520  -37.7830   24.3280 H   0  0  0  0  0  0  0  0  0  0  0  0
  -26.5450  -31.1210   24.4040 C   0  0  1  0  0  0  0  0  0  0  0  0
  -25.5910  -30.7030   25.5470 C   0  0  0  0  0  1  0  0  0  0  0  0
  -27.0860  -29.8300   23.7450 C   0  0  0  0  0  1  0  0  0  0  0  0
  -27.7630  -31.8360   25.0310 C   0  0  0  0  0  1  0  0  0  0  0  0
  -30.6700  -19.6430   25.1430 C   0  0  0  0  0  1  0  0  0  0  0  0
  -30.9950  -19.9940   23.7630 N   0  0  0  0  0  0  0  0  0  0  0  0
  -31.0290  -22.7690   23.8470 C   0  0  0  0  0  1  0  0  0  0  0  0
  -32.3770  -21.2990   22.0370 O   0  0  0  0  0  0  0  0  0  0  0  0
  -33.1350  -21.2110   24.4770 O   0  0  0  0  0  0  0  0  0  0  0  0
  -32.0650  -21.3240   23.4750 S   0  0  2  0  0  0  0  0  0  0  0  0
  1  4  1  0
  2  6  1  0
  3  5  1  0
  3  1  2  0
  4  6  2  0
  4 96  1  0
  5  2  2  0
  6  7  1  0
  8 16  1  0
  9 14  1  0
 10 11  1  0
 10  9  1  0
 12 11  1  0
 12 21  1  0
 12 13  1  0
 14  8  1  0
 14 13  1  0
 15  8  2  0
 16 17  1  0
 16  5  1  0
 18 19  2  0
 19 38  1  0
 20 23  1  0
 20 19  1  0
 21 22  1  0
 21 18  1  0
 22 20  2  0
 23 24  1  0
 24 25  2  0
 26 29  1  0
 26 25  1  0
 27 26  2  0
 28 27  1  0
 28 23  2  0
 29 30  1  0
 30 31  1  0
 31 32  2  0
 33 32  1  0
 33 37  1  0
 34 33  2  0
 35 30  2  0
 35 34  1  0
 36 35  1  0
 38 39  1  0
 39 41  1  0
 39 42  1  0
 40 38  2  0
 43 18  1  0
 43 44  1  0
 45 43  1  0
 47 46  1  0
 47 48  1  0
 47  3  1  0
 48 50  1  0
 48 49  1  0
 51 52  1  0
 51 48  1  0
 53 54  1  0
 53 52  2  0
 54 56  1  0
 55 66  2  0
 56 61  1  0
 57 65  1  0
 57 67  1  0
 58 64  1  0
 58 60  1  0
 59 65  1  0
 60 59  1  0
 61 60  2  0
 62 63  1  0
 62 56  2  0
 63 58  2  0
 64 57  1  0
 65 55  1  0
 67 69  2  0
 68 67  1  0
 70 68  1  0
 71 80  2  0
 71 76  1  0
 72 68  1  0
 72 76  1  0
 73 72  1  0
 74 75  1  0
 74 73  1  0
 75 71  1  0
 76 77  2  0
 77 78  1  0
 79 78  2  0
 80 79  1  0
 81 55  1  0
 81 82  1  0
 81 91  1  0
 82 85  1  0
 83 82  1  0
 83 87  1  0
 84 83  2  0
 87 86  1  0
 89 87  1  0
 89 90  1  0
 89 88  1  0
 91 94  1  1
 91 92  1  0
 93 91  1  0
 96 95  1  0
 98100  2  0
100 96  1  0
100 97  1  1
100 99  2  0
M  ISO  4   8 100  16 100  53 101  54 101
M  END
>  <TORSDO>  (40) 
F 23

>  <SCORE>  (40) 
-6.646

>  <name>  (40) 
39

>  <ligand_id>  (40) 
39

>  <original_smiles>  (40) 
[H]c1c([H])c([H])c2c(c1[H])C([H])([H])C([H])([H])C([H])([H])C2([H])N([H])C(=O)C1([H])N(C(=O)C([H])(N([H])C(=O)C([H])(N([H])C([H])([H])[H])C([H])([H])[H])C(C([H])([H])[H])(C([H])([H])[H])C([H])([H])[H])C([H])([H])c2c([H])c(OC([H])([H])C([H])([H])C([H])([H])[N+]([H])([H])C([H])(c3c([H])c(N(C([H])([H])[H])S(=O)(=O)C([H])([H])[H])c(F)c([H])c3N([H])C(=O)N3C([H])([H])C([H])([H])C([H])([H])C([H])(n4nc(-c5c([H])c([H])c(Oc6c([H])c([H])c(F)c([H])c6F)c([H])c5[H])c(C(=O)N([H])[H])c4N([H])[H])C3([H])[H])C([H])([H])[H])c([H])c([H])c2C1([H])[H]

>  <smiles>  (40) 
[H]c1c([H])c([H])c2c(c1[H])C([H])([H])C([H])([H])C([H])([H])C2([H])N([H])C(=O)C1([H])N(C(=O)C([H])(N([H])C(=O)C([H])(N([H])C([H])([H])[H])C([H])([H])[H])C(C([H])([H])[H])(C([H])([H])[H])C([H])([H])[H])C([H])([H])c2c([H])c(OC([H])([H])C([H])([H])C([H])([H])[N+]([H])([H])C([H])(c3c([H])c(N(C([H])([H])[H])S(=O)(=O)C([H])([H])[H])c(F)c([H])c3N([H])C(=O)N3C([H])([H])C([H])([H])C([H])([H])C([H])(n4nc(-c5c([H])c([H])c(Oc6c([H])c([H])c(F)c([H])c6F)c([H])c5[H])c(C(=O)N([H])[H])c4N([H])[H])C3([H])[H])C([H])([H])[H])c([H])c([H])c2C1([H])[H]

$$$$
40:0:0
     RDKit          3D

 90 98  0  0  1  0  0  0  0  0999 V2000
  -29.2070  -20.2780   20.5020 N   0  0  0  0  0  0  0  0  0  0  0  0
  -29.4480  -20.2870   21.4910 H   0  0  0  0  0  0  0  0  0  0  0  0
  -31.7220  -18.3970   18.3520 C   0  0  0  0  0  3  0  0  0  0  0  0
  -30.6100  -18.9480   17.6850 C   0  0  0  0  0  3  0  0  0  0  0  0
  -31.5600  -17.8520   19.6410 C   0  0  0  0  0  3  0  0  0  0  0  0
  -29.4260  -19.2010   18.4040 C   0  0  0  0  0  3  0  0  0  0  0  0
  -30.2570  -17.7670   20.1860 C   0  0  0  0  0  0  0  0  0  0  0  0
  -29.4200  -18.9710   19.7970 C   0  0  0  0  0  0  0  0  0  0  0  0
  -30.5470  -15.0300   20.3100 C   0  0  0  0  0  0  0  0  0  0  0  0
  -30.3750  -12.6730   19.3720 C   0  0  0  0  0  2  0  0  0  0  0  0
  -29.4430  -12.6190   18.1420 C   0  0  0  0  0  2  0  0  0  0  0  0
  -27.9840  -12.4050   18.5830 C   0  0  0  0  0  2  0  0  0  0  0  0
  -27.5830  -13.3240   19.7660 C   0  0  0  0  0  3  0  0  0  0  0  0
  -28.6480  -13.3680   20.8820 C   0  0  0  0  0  2  0  0  0  0  0  0
  -29.9060  -13.7870   20.2530 N   0  0  0  0  0  0  0  0  0  0  0  0
  -31.7570  -14.9880   20.0700 O   0  0  0  0  0  0  0  0  0  0  0  0
  -29.8440  -16.2850   20.4310 N   0  0  0  0  0  0  0  0  0  0  0  0
  -28.8590  -16.1660   20.6090 H   0  0  0  0  0  0  0  0  0  0  0  0
  -25.2090  -13.8810   20.5280 C   0  0  0  0  0  0  0  0  0  0  0  0
  -24.1520  -13.0970   20.9020 C   0  0  0  0  0  0  0  0  0  0  0  0
  -24.6260  -11.7500   20.8670 C   0  0  0  0  0  0  0  0  0  0  0  0
  -26.2550  -13.0110   20.2790 N   0  0  0  0  0  0  0  0  0  0  0  0
  -25.9160  -11.7220   20.5510 N   0  0  0  0  0  0  0  0  0  0  0  0
  -23.9070  -10.4820   21.0580 C   0  0  0  0  0  0  0  0  0  0  0  0
  -24.3520   -9.5110   21.9810 C   0  0  0  0  0  3  0  0  0  0  0  0
  -23.6290   -8.3120   22.1630 C   0  0  0  0  0  3  0  0  0  0  0  0
  -22.4500   -8.0750   21.4180 C   0  0  0  0  0  0  0  0  0  0  0  0
  -22.0240   -9.0340   20.4820 C   0  0  0  0  0  3  0  0  0  0  0  0
  -22.7470  -10.2250   20.3000 C   0  0  0  0  0  3  0  0  0  0  0  0
  -21.6990   -6.9270   21.5080 O   0  0  0  0  0  0  0  0  0  0  0  0
  -21.6690   -6.1730   22.6540 C   0  0  0  0  0  0  0  0  0  0  0  0
  -21.2580   -6.7160   23.8910 C   0  0  0  0  0  3  0  0  0  0  0  0
  -21.1750   -5.8910   25.0300 C   0  0  0  0  0  3  0  0  0  0  0  0
  -21.4920   -4.5220   24.9330 C   0  0  0  0  0  0  0  0  0  0  0  0
  -21.8950   -3.9780   23.7000 C   0  0  0  0  0  3  0  0  0  0  0  0
  -21.9800   -4.8020   22.5640 C   0  0  0  0  0  0  0  0  0  0  0  0
  -22.3480   -4.2680   21.3740 F   0  0  0  0  0  0  0  0  0  0  0  0
  -21.4060   -3.7260   26.0240 F   0  0  0  0  0  0  0  0  0  0  0  0
  -22.7520  -13.5650   21.1770 C   0  0  0  0  0  0  0  0  0  0  0  0
  -22.0330  -12.8630   22.0430 N   0  0  0  0  0  0  0  0  0  0  0  0
  -22.3070  -14.5880   20.6590 O   0  0  0  0  0  0  0  0  0  0  0  0
  -22.4080  -12.0360   22.4840 H   0  0  0  0  0  0  0  0  0  0  0  0
  -21.0930  -13.1550   22.2700 H   0  0  0  0  0  0  0  0  0  0  0  0
  -25.3620  -15.2530   20.3510 N   0  0  0  0  0  0  0  0  0  0  0  0
  -24.5890  -15.8990   20.4650 H   0  0  0  0  0  0  0  0  0  0  0  0
  -26.1950  -15.6970   19.9840 H   0  0  0  0  0  0  0  0  0  0  0  0
  -28.6610  -21.6450   19.9090 C   0  0  0  0  0  2  0  0  0  0  0  0
  -28.8050  -23.2110   20.5690 C   0  0  0  0  0  3  0  0  0  0  0  0
  -28.0100  -24.6140   19.9990 C   0  0  0  0  0  3  0  0  0  0  0  0
  -28.2190  -26.1340   20.3510 O   0  0  0  0  0  0  0  0  0  0  0  0
  -24.6370  -31.9120   23.2480 C   0  0  0  0  0  0  0  0  0  0  0  0
  -27.1820  -27.1430   20.2460 C   0  0  0  0  0  0  0  0  0  0  0  0
  -23.4300  -30.5150   21.6160 C   0  0  0  0  0  3  0  0  0  0  0  0
  -24.8690  -28.9240   20.1950 C   0  0  0  0  0  0  0  0  0  0  0  0
  -25.9870  -30.7560   21.4560 C   0  0  0  0  0  2  0  0  0  0  0  0
  -26.0520  -29.3580   20.8090 C   0  0  0  0  0  0  0  0  0  0  0  0
  -27.2060  -28.4840   20.8170 C   0  0  0  0  0  3  0  0  0  0  0  0
  -25.9780  -26.8260   19.5760 C   0  0  0  0  0  3  0  0  0  0  0  0
  -24.8490  -27.6740   19.5610 C   0  0  0  0  0  3  0  0  0  0  0  0
  -23.6480  -29.8310   20.2400 C   0  0  0  0  0  2  0  0  0  0  0  0
  -24.7050  -31.0840   22.1610 N   0  0  0  0  0  0  0  0  0  0  0  0
  -23.5510  -32.2070   23.7710 O   0  0  0  0  0  0  0  0  0  0  0  0
  -22.7420  -29.5190   22.5830 C   0  0  0  0  0  0  0  0  0  0  0  0
  -21.4130  -29.3550   22.4550 N   0  0  0  0  0  0  0  0  0  0  0  0
  -23.4080  -28.8950   23.4140 O   0  0  0  0  0  0  0  0  0  0  0  0
  -20.9320  -29.9100   21.7610 H   0  0  0  0  0  0  0  0  0  0  0  0
  -18.0250  -28.1740   22.9550 C   0  0  0  0  0  0  0  0  0  0  0  0
  -20.5840  -28.4280   23.2290 C   0  0  0  0  0  3  0  0  0  0  0  0
  -20.6810  -26.9910   22.6680 C   0  0  0  0  0  2  0  0  0  0  0  0
  -19.5820  -26.6640   21.6520 C   0  0  0  0  0  2  0  0  0  0  0  0
  -18.1980  -26.8200   22.2900 C   0  0  0  0  0  2  0  0  0  0  0  0
  -19.1440  -28.9360   23.3820 C   0  0  0  0  0  0  0  0  0  0  0  0
  -18.9280  -30.2020   23.9670 C   0  0  0  0  0  3  0  0  0  0  0  0
  -17.6240  -30.7090   24.1260 C   0  0  0  0  0  3  0  0  0  0  0  0
  -16.5190  -29.9450   23.7150 C   0  0  0  0  0  3  0  0  0  0  0  0
  -16.7190  -28.6790   23.1350 C   0  0  0  0  0  3  0  0  0  0  0  0
  -25.9180  -32.5440   23.8740 C   0  0  0  0  0  3  0  0  0  0  0  0
  -26.4190  -31.7820   25.1630 C   0  0  1  0  0  0  0  0  0  0  0  0
  -25.3160  -31.5670   26.2260 C   0  0  0  0  0  1  0  0  0  0  0  0
  -26.9910  -30.3950   24.7950 C   0  0  0  0  0  1  0  0  0  0  0  0
  -27.5720  -32.5720   25.8220 C   0  0  0  0  0  1  0  0  0  0  0  0
  -25.6140  -33.9480   24.1960 N   0  0  0  0  0  0  0  0  0  0  0  0
  -25.9550  -34.9980   23.4370 C   0  0  0  0  0  0  0  0  0  0  0  0
  -26.6250  -34.8860   22.4070 O   0  0  0  0  0  0  0  0  0  0  0  0
  -25.0170  -34.1100   24.9940 H   0  0  0  0  0  0  0  0  0  0  0  0
  -24.2390  -36.8060   23.0870 C   0  0  0  0  0  1  0  0  0  0  0  0
  -25.4800  -36.3920   23.8930 C   0  0  0  0  0  3  0  0  0  0  0  0
  -27.6240  -37.2670   24.7140 C   0  0  0  0  0  1  0  0  0  0  0  0
  -26.5200  -37.4380   23.7710 N   0  0  0  0  0  0  0  0  0  0  0  0
  -26.1220  -38.3610   23.9170 H   0  0  0  0  0  0  0  0  0  0  0  0
  1  2  1  0
  3  5  1  0
  4  3  2  0
  4  6  1  0
  5  7  2  0
  6  8  2  0
  7 17  1  0
  8  7  1  0
  8  1  1  0
  9 17  1  0
 10 15  1  0
 11 12  1  0
 11 10  1  0
 13 12  1  0
 13 22  1  0
 13 14  1  0
 15  9  1  0
 15 14  1  0
 16  9  2  0
 17 18  1  0
 19 20  2  0
 20 39  1  0
 21 20  1  0
 21 24  1  0
 22 19  1  0
 22 23  1  0
 23 21  2  0
 24 25  1  0
 25 26  2  0
 27 30  1  0
 27 26  1  0
 28 27  2  0
 29 28  1  0
 29 24  2  0
 30 31  1  0
 31 32  1  0
 32 33  2  0
 34 33  1  0
 34 38  1  0
 35 34  2  0
 36 31  2  0
 36 35  1  0
 37 36  1  0
 39 40  1  0
 40 43  1  0
 40 42  1  0
 41 39  2  0
 44 45  1  0
 44 19  1  0
 46 44  1  0
 47  1  1  0
 47 48  1  0
 49 50  1  0
 49 48  2  0
 51 62  2  0
 52 50  1  0
 52 57  1  0
 53 61  1  0
 53 63  1  0
 54 60  1  0
 54 56  1  0
 55 61  1  0
 56 57  2  0
 56 55  1  0
 58 52  2  0
 59 58  1  0
 59 54  2  0
 60 53  1  0
 61 51  1  0
 63 65  2  0
 64 63  1  0
 66 64  1  0
 67 76  2  0
 67 72  1  0
 68 64  1  0
 68 72  1  0
 69 68  1  0
 70 71  1  0
 70 69  1  0
 71 67  1  0
 72 73  2  0
 73 74  1  0
 75 74  2  0
 76 75  1  0
 77 51  1  0
 77 82  1  0
 77 78  1  0
 78 81  1  1
 78 79  1  0
 80 78  1  0
 82 85  1  0
 83 87  1  0
 83 82  1  0
 84 83  2  0
 87 86  1  0
 89 87  1  0
 89 90  1  0
 89 88  1  0
M  ISO  4   9 100  17 100  49 101  50 101
M  END
>  <TORSDO>  (41) 
F 20

>  <SCORE>  (41) 
-15.022

>  <name>  (41) 
40

>  <ligand_id>  (41) 
40

>  <original_smiles>  (41) 
[H]c1c([H])c([H])c(N([H])C([H])([H])C([H])([H])C([H])([H])Oc2c([H])c([H])c3c(c2[H])C([H])([H])N(C(=O)C([H])(N([H])C(=O)C([H])(N([H])C([H])([H])[H])C([H])([H])[H])C(C([H])([H])[H])(C([H])([H])[H])C([H])([H])[H])C([H])(C(=O)N([H])C2([H])c4c([H])c([H])c([H])c([H])c4C([H])([H])C([H])([H])C2([H])[H])C3([H])[H])c(N([H])C(=O)N2C([H])([H])C([H])([H])C([H])([H])C([H])(n3nc(-c4c([H])c([H])c(Oc5c([H])c([H])c(F)c([H])c5F)c([H])c4[H])c(C(=O)N([H])[H])c3N([H])[H])C2([H])[H])c1[H]

>  <smiles>  (41) 
[H]c1c([H])c([H])c(N([H])C([H])([H])C([H])([H])C([H])([H])Oc2c([H])c([H])c3c(c2[H])C([H])([H])N(C(=O)C([H])(N([H])C(=O)C([H])(N([H])C([H])([H])[H])C([H])([H])[H])C(C([H])([H])[H])(C([H])([H])[H])C([H])([H])[H])C([H])(C(=O)N([H])C2([H])c4c([H])c([H])c([H])c([H])c4C([H])([H])C([H])([H])C2([H])[H])C3([H])[H])c(N([H])C(=O)N2C([H])([H])C([H])([H])C([H])([H])C([H])(n3nc(-c4c([H])c([H])c(Oc5c([H])c([H])c(F)c([H])c5F)c([H])c4[H])c(C(=O)N([H])[H])c3N([H])[H])C2([H])[H])c1[H]

$$$$
41:0:0
     RDKit          3D

 95103  0  0  1  0  0  0  0  0999 V2000
  -30.3570  -23.3030   19.7220 C   0  0  0  0  0  0  0  0  0  0  0  0
  -30.0950  -22.2650   20.5530 N   0  0  0  0  0  0  0  0  0  0  0  0
  -30.9250  -23.1690   18.6350 O   0  0  0  0  0  0  0  0  0  0  0  0
  -29.6480  -22.5330   21.4170 H   0  0  0  0  0  0  0  0  0  0  0  0
  -30.9320  -18.8300   19.1210 C   0  0  0  0  0  3  0  0  0  0  0  0
  -30.9480  -20.2310   19.3160 C   0  0  0  0  0  3  0  0  0  0  0  0
  -29.3990  -18.5920   20.9820 C   0  0  0  0  0  3  0  0  0  0  0  0
  -30.1360  -17.9960   19.9360 C   0  0  0  0  0  0  0  0  0  0  0  0
  -29.4120  -19.9940   21.1840 C   0  0  0  0  0  0  0  0  0  0  0  0
  -30.1670  -20.8420   20.3320 C   0  0  0  0  0  0  0  0  0  0  0  0
  -28.5780  -20.5740   22.3150 C   0  0  0  0  0  1  0  0  0  0  0  0
  -29.9930  -16.4880   19.6470 C   0  0  0  0  0  2  0  0  0  0  0  0
  -31.4150  -14.5000   19.4400 C   0  0  0  0  0  0  0  0  0  0  0  0
  -30.8520  -12.2690   18.5300 C   0  0  0  0  0  2  0  0  0  0  0  0
  -29.8020  -12.3900   17.4110 C   0  0  0  0  0  2  0  0  0  0  0  0
  -28.3780  -12.3660   17.9990 C   0  0  0  0  0  2  0  0  0  0  0  0
  -28.2070  -13.3480   19.1870 C   0  0  0  0  0  3  0  0  0  0  0  0
  -29.3650  -13.2090   20.2010 C   0  0  0  0  0  2  0  0  0  0  0  0
  -30.6360  -13.3780   19.4750 N   0  0  0  0  0  0  0  0  0  0  0  0
  -32.4640  -14.5540   18.7910 O   0  0  0  0  0  0  0  0  0  0  0  0
  -31.9830  -16.1590   21.1120 C   0  0  0  0  0  1  0  0  0  0  0  0
  -31.0180  -15.5640   20.1820 N   0  0  0  0  0  0  0  0  0  0  0  0
  -26.0070  -14.1720   20.2370 C   0  0  0  0  0  0  0  0  0  0  0  0
  -24.9060  -13.5020   20.6980 C   0  0  0  0  0  0  0  0  0  0  0  0
  -25.1890  -12.1130   20.5280 C   0  0  0  0  0  0  0  0  0  0  0  0
  -26.9010  -13.1950   19.8230 N   0  0  0  0  0  0  0  0  0  0  0  0
  -26.4180  -11.9480   20.0530 N   0  0  0  0  0  0  0  0  0  0  0  0
  -24.3410  -10.9320   20.7360 C   0  0  0  0  0  0  0  0  0  0  0  0
  -24.7200   -9.8960   21.6180 C   0  0  0  0  0  3  0  0  0  0  0  0
  -23.8790   -8.7800   21.8160 C   0  0  0  0  0  3  0  0  0  0  0  0
  -22.6440   -8.6930   21.1320 C   0  0  0  0  0  0  0  0  0  0  0  0
  -22.2810   -9.7160   20.2380 C   0  0  0  0  0  3  0  0  0  0  0  0
  -23.1220  -10.8230   20.0380 C   0  0  0  0  0  3  0  0  0  0  0  0
  -21.7730   -7.6340   21.2430 O   0  0  0  0  0  0  0  0  0  0  0  0
  -21.6570   -6.9180   22.4070 C   0  0  0  0  0  0  0  0  0  0  0  0
  -21.2860   -7.5290   23.6240 C   0  0  0  0  0  3  0  0  0  0  0  0
  -21.1100   -6.7440   24.7810 C   0  0  0  0  0  3  0  0  0  0  0  0
  -21.2950   -5.3490   24.7220 C   0  0  0  0  0  0  0  0  0  0  0  0
  -21.6590   -4.7390   23.5080 C   0  0  0  0  0  3  0  0  0  0  0  0
  -21.8360   -5.5210   22.3540 C   0  0  0  0  0  0  0  0  0  0  0  0
  -22.1660   -4.9240   21.1830 F   0  0  0  0  0  0  0  0  0  0  0  0
  -21.1180   -4.5940   25.8310 F   0  0  0  0  0  0  0  0  0  0  0  0
  -23.6220  -14.1150   21.1780 C   0  0  0  0  0  0  0  0  0  0  0  0
  -22.9330  -13.4540   22.1000 N   0  0  0  0  0  0  0  0  0  0  0  0
  -23.2470  -15.2140   20.7700 O   0  0  0  0  0  0  0  0  0  0  0  0
  -23.2510  -12.5620   22.4500 H   0  0  0  0  0  0  0  0  0  0  0  0
  -22.0760  -13.8460   22.4640 H   0  0  0  0  0  0  0  0  0  0  0  0
  -26.3130  -15.5250   20.1180 N   0  0  0  0  0  0  0  0  0  0  0  0
  -25.6460  -16.2480   20.3610 H   0  0  0  0  0  0  0  0  0  0  0  0
  -27.1510  -15.8910   19.6860 H   0  0  0  0  0  0  0  0  0  0  0  0
  -29.9590  -24.7380   20.1870 C   0  0  0  0  0  2  0  0  0  0  0  0
  -27.5100  -24.4370   20.5530 C   0  0  0  0  0  1  0  0  0  0  0  0
  -28.4370  -25.0930   18.1950 C   0  0  0  0  0  1  0  0  0  0  0  0
  -28.5460  -25.2660   19.7340 C   0  0  2  0  0  0  0  0  0  0  0  0
  -28.4700  -26.6980   20.0490 O   0  0  0  0  0  0  0  0  0  0  0  0
  -24.5140  -31.7520   23.1950 C   0  0  0  0  0  0  0  0  0  0  0  0
  -27.2780  -27.4260   20.0010 C   0  0  0  0  0  0  0  0  0  0  0  0
  -23.3500  -30.3620   21.5180 C   0  0  0  0  0  3  0  0  0  0  0  0
  -24.8470  -28.9160   20.0480 C   0  0  0  0  0  0  0  0  0  0  0  0
  -25.8720  -30.7850   21.3360 C   0  0  0  0  0  2  0  0  0  0  0  0
  -25.9960  -29.4340   20.6560 C   0  0  0  0  0  0  0  0  0  0  0  0
  -27.2100  -28.7000   20.6290 C   0  0  0  0  0  3  0  0  0  0  0  0
  -26.1000  -26.9580   19.3670 C   0  0  0  0  0  3  0  0  0  0  0  0
  -24.8970  -27.6780   19.3980 C   0  0  0  0  0  3  0  0  0  0  0  0
  -23.5810  -29.7380   20.1180 C   0  0  0  0  0  2  0  0  0  0  0  0
  -24.5970  -30.9790   22.0750 N   0  0  0  0  0  0  0  0  0  0  0  0
  -23.4230  -31.9800   23.7390 O   0  0  0  0  0  0  0  0  0  0  0  0
  -22.7290  -29.2920   22.4460 C   0  0  0  0  0  0  0  0  0  0  0  0
  -21.4160  -29.0520   22.2890 N   0  0  0  0  0  0  0  0  0  0  0  0
  -23.4240  -28.6850   23.2640 O   0  0  0  0  0  0  0  0  0  0  0  0
  -20.9130  -29.6010   21.6050 H   0  0  0  0  0  0  0  0  0  0  0  0
  -18.0910  -27.6960   22.7050 C   0  0  0  0  0  0  0  0  0  0  0  0
  -20.6280  -28.0650   23.0300 C   0  0  0  0  0  3  0  0  0  0  0  0
  -20.8090  -26.6500   22.4350 C   0  0  0  0  0  2  0  0  0  0  0  0
  -19.7410  -26.2940   21.3950 C   0  0  0  0  0  2  0  0  0  0  0  0
  -18.3410  -26.3670   22.0130 C   0  0  0  0  0  2  0  0  0  0  0  0
  -19.1650  -28.5000   23.1680 C   0  0  0  0  0  0  0  0  0  0  0  0
  -18.8800  -29.7440   23.7720 C   0  0  0  0  0  3  0  0  0  0  0  0
  -17.5510  -30.1850   23.9190 C   0  0  0  0  0  3  0  0  0  0  0  0
  -16.4900  -29.3780   23.4720 C   0  0  0  0  0  3  0  0  0  0  0  0
  -16.7600  -28.1370   22.8710 C   0  0  0  0  0  3  0  0  0  0  0  0
  -25.7800  -32.4040   23.8320 C   0  0  0  0  0  3  0  0  0  0  0  0
  -26.2950  -31.6390   25.1120 C   0  0  1  0  0  0  0  0  0  0  0  0
  -25.1920  -31.3740   26.1630 C   0  0  0  0  0  1  0  0  0  0  0  0
  -26.9140  -30.2770   24.7230 C   0  0  0  0  0  1  0  0  0  0  0  0
  -27.4170  -32.4580   25.7940 C   0  0  0  0  0  1  0  0  0  0  0  0
  -25.4440  -33.7950   24.1580 N   0  0  0  0  0  0  0  0  0  0  0  0
  -25.7510  -34.8520   23.3940 C   0  0  0  0  0  0  0  0  0  0  0  0
  -26.4200  -34.7590   22.3600 O   0  0  0  0  0  0  0  0  0  0  0  0
  -24.8530  -33.9420   24.9630 H   0  0  0  0  0  0  0  0  0  0  0  0
  -23.9840  -36.6040   23.0330 C   0  0  0  0  0  1  0  0  0  0  0  0
  -25.2330  -36.2300   23.8470 C   0  0  0  0  0  3  0  0  0  0  0  0
  -27.3460  -37.1640   24.6790 C   0  0  0  0  0  1  0  0  0  0  0  0
  -26.2410  -37.3060   23.7340 N   0  0  0  0  0  0  0  0  0  0  0  0
  -25.8130  -38.2150   23.8830 H   0  0  0  0  0  0  0  0  0  0  0  0
  1 51  1  0
  1  2  1  0
  2  4  1  0
  3  1  2  0
  5  6  2  0
  5  8  1  0
  6 10  1  0
  7  9  1  0
  8  7  2  0
  9 11  1  0
 10  2  1  0
 10  9  2  0
 12  8  1  0
 12 22  1  0
 13 19  1  0
 13 22  1  0
 14 19  1  0
 15 16  1  0
 15 14  1  0
 17 16  1  0
 17 26  1  0
 17 18  1  0
 19 18  1  0
 20 13  2  0
 22 21  1  0
 23 24  2  0
 24 43  1  0
 25 24  1  0
 25 28  1  0
 26 27  1  0
 26 23  1  0
 27 25  2  0
 28 29  1  0
 29 30  2  0
 31 34  1  0
 31 30  1  0
 32 31  2  0
 33 32  1  0
 33 28  2  0
 34 35  1  0
 35 36  1  0
 36 37  2  0
 38 37  1  0
 38 42  1  0
 39 38  2  0
 40 35  2  0
 40 39  1  0
 41 40  1  0
 43 44  1  0
 44 46  1  0
 44 47  1  0
 45 43  2  0
 48 23  1  0
 48 49  1  0
 50 48  1  0
 54 53  1  6
 54 55  1  0
 54 51  1  0
 54 52  1  0
 56 67  2  0
 57 55  1  0
 57 62  1  0
 58 66  1  0
 58 68  1  0
 59 65  1  0
 59 61  1  0
 60 66  1  0
 61 60  1  0
 62 61  2  0
 63 64  1  0
 63 57  2  0
 64 59  2  0
 65 58  1  0
 66 56  1  0
 68 70  2  0
 69 68  1  0
 71 69  1  0
 72 81  2  0
 72 77  1  0
 73 69  1  0
 73 77  1  0
 74 73  1  0
 75 76  1  0
 75 74  1  0
 76 72  1  0
 77 78  2  0
 78 79  1  0
 80 79  2  0
 81 80  1  0
 82 56  1  0
 82 87  1  0
 82 83  1  0
 83 86  1  1
 83 84  1  0
 85 83  1  0
 87 90  1  0
 88 92  1  0
 88 87  1  0
 89 88  2  0
 92 91  1  0
 94 92  1  0
 94 95  1  0
 94 93  1  0
M  ISO  4  13 100  22 100  54 101  55 101
M  END
>  <TORSDO>  (42) 
F 20

>  <SCORE>  (42) 
-10.808

>  <name>  (42) 
41

>  <ligand_id>  (42) 
41

>  <original_smiles>  (42) 
[H]c1c([H])c([H])c2c(c1[H])C([H])([H])C([H])([H])C([H])([H])C2([H])N([H])C(=O)C1([H])N(C(=O)C([H])(N([H])C(=O)C([H])(N([H])C([H])([H])[H])C([H])([H])[H])C(C([H])([H])[H])(C([H])([H])[H])C([H])([H])[H])C([H])([H])c2c([H])c(OC(C([H])([H])[H])(C([H])([H])[H])C([H])([H])C(=O)N([H])c3c([H])c([H])c(C([H])([H])N(C(=O)N4C([H])([H])C([H])([H])C([H])([H])C([H])(n5nc(-c6c([H])c([H])c(Oc7c([H])c([H])c(F)c([H])c7F)c([H])c6[H])c(C(=O)N([H])[H])c5N([H])[H])C4([H])[H])C([H])([H])[H])c([H])c3C([H])([H])[H])c([H])c([H])c2C1([H])[H]

>  <smiles>  (42) 
[H]c1c([H])c([H])c2c(c1[H])C([H])([H])C([H])([H])C([H])([H])C2([H])N([H])C(=O)C1([H])N(C(=O)C([H])(N([H])C(=O)C([H])(N([H])C([H])([H])[H])C([H])([H])[H])C(C([H])([H])[H])(C([H])([H])[H])C([H])([H])[H])C([H])([H])c2c([H])c(OC(C([H])([H])[H])(C([H])([H])[H])C([H])([H])C(=O)N([H])c3c([H])c([H])c(C([H])([H])N(C(=O)N4C([H])([H])C([H])([H])C([H])([H])C([H])(n5nc(-c6c([H])c([H])c(Oc7c([H])c([H])c(F)c([H])c7F)c([H])c6[H])c(C(=O)N([H])[H])c5N([H])[H])C4([H])[H])C([H])([H])[H])c([H])c3C([H])([H])[H])c([H])c([H])c2C1([H])[H]

$$$$
42:0:0
     RDKit          3D

 93101  0  0  1  0  0  0  0  0999 V2000
  -30.3510  -20.4480   21.7150 C   0  0  0  0  0  0  0  0  0  0  0  0
  -30.6010  -21.5510   20.9950 N   0  0  0  0  0  0  0  0  0  0  0  0
  -29.5760  -20.4150   22.6710 O   0  0  0  0  0  0  0  0  0  0  0  0
  -31.1840  -21.4300   20.1770 H   0  0  0  0  0  0  0  0  0  0  0  0
  -33.2010  -18.1700   20.6060 C   0  0  0  0  0  3  0  0  0  0  0  0
  -32.4790  -19.3140   20.9870 C   0  0  0  0  0  3  0  0  0  0  0  0
  -32.5430  -16.9330   20.5030 C   0  0  0  0  0  3  0  0  0  0  0  0
  -30.4510  -17.9670   21.2060 C   0  0  0  0  0  3  0  0  0  0  0  0
  -31.1000  -19.2240   21.2800 C   0  0  0  0  0  0  0  0  0  0  0  0
  -31.1550  -16.8180   20.7760 C   0  0  0  0  0  0  0  0  0  0  0  0
  -30.8140  -14.5950   19.7710 C   0  0  0  0  0  0  0  0  0  0  0  0
  -30.3580  -12.3860   18.7920 C   0  0  0  0  0  2  0  0  0  0  0  0
  -29.3200  -12.4780   17.6590 C   0  0  0  0  0  2  0  0  0  0  0  0
  -27.9020  -12.3350   18.2360 C   0  0  0  0  0  2  0  0  0  0  0  0
  -27.6500  -13.2770   19.4440 C   0  0  0  0  0  3  0  0  0  0  0  0
  -28.8050  -13.2080   20.4730 C   0  0  0  0  0  2  0  0  0  0  0  0
  -30.0770  -13.4500   19.7710 N   0  0  0  0  0  0  0  0  0  0  0  0
  -31.7650  -14.7470   19.0030 O   0  0  0  0  0  0  0  0  0  0  0  0
  -30.4640  -15.5720   20.6310 N   0  0  0  0  0  0  0  0  0  0  0  0
  -29.6000  -15.4500   21.1360 H   0  0  0  0  0  0  0  0  0  0  0  0
  -25.3790  -13.8930   20.4840 C   0  0  0  0  0  0  0  0  0  0  0  0
  -24.3290  -13.1260   20.9140 C   0  0  0  0  0  0  0  0  0  0  0  0
  -24.7250  -11.7680   20.7160 C   0  0  0  0  0  0  0  0  0  0  0  0
  -26.3530  -13.0040   20.0600 N   0  0  0  0  0  0  0  0  0  0  0  0
  -25.9680  -11.7160   20.2540 N   0  0  0  0  0  0  0  0  0  0  0  0
  -23.9730  -10.5170   20.8860 C   0  0  0  0  0  0  0  0  0  0  0  0
  -24.4060   -9.5090   21.7750 C   0  0  0  0  0  3  0  0  0  0  0  0
  -23.6540   -8.3240   21.9360 C   0  0  0  0  0  3  0  0  0  0  0  0
  -22.4550   -8.1410   21.2070 C   0  0  0  0  0  0  0  0  0  0  0  0
  -22.0410   -9.1380   20.3070 C   0  0  0  0  0  3  0  0  0  0  0  0
  -22.7930  -10.3130   20.1440 C   0  0  0  0  0  3  0  0  0  0  0  0
  -21.6750   -7.0110   21.2790 O   0  0  0  0  0  0  0  0  0  0  0  0
  -21.5800   -6.2750   22.4330 C   0  0  0  0  0  0  0  0  0  0  0  0
  -21.0890   -6.8320   23.6350 C   0  0  0  0  0  3  0  0  0  0  0  0
  -20.9430   -6.0220   24.7780 C   0  0  0  0  0  3  0  0  0  0  0  0
  -21.2770   -4.6550   24.7210 C   0  0  0  0  0  0  0  0  0  0  0  0
  -21.7620   -4.0980   23.5250 C   0  0  0  0  0  3  0  0  0  0  0  0
  -21.9090   -4.9050   22.3830 C   0  0  0  0  0  0  0  0  0  0  0  0
  -22.3560   -4.3570   21.2270 F   0  0  0  0  0  0  0  0  0  0  0  0
  -21.1300   -3.8750   25.8170 F   0  0  0  0  0  0  0  0  0  0  0  0
  -22.9950  -13.6220   21.3910 C   0  0  0  0  0  0  0  0  0  0  0  0
  -22.3420  -12.8710   22.2710 N   0  0  0  0  0  0  0  0  0  0  0  0
  -22.5460  -14.7080   21.0250 O   0  0  0  0  0  0  0  0  0  0  0  0
  -22.7210  -11.9890   22.5860 H   0  0  0  0  0  0  0  0  0  0  0  0
  -21.4510  -13.1800   22.6340 H   0  0  0  0  0  0  0  0  0  0  0  0
  -25.5810  -15.2670   20.4010 N   0  0  0  0  0  0  0  0  0  0  0  0
  -24.8640  -15.9400   20.6510 H   0  0  0  0  0  0  0  0  0  0  0  0
  -26.4140  -15.7000   20.0190 H   0  0  0  0  0  0  0  0  0  0  0  0
  -30.2210  -22.9130   21.3580 C   0  0  0  0  0  2  0  0  0  0  0  0
  -29.4500  -23.6270   20.2390 C   0  0  0  0  0  2  0  0  0  0  0  0
  -29.0260  -25.0390   20.6630 C   0  0  0  0  0  2  0  0  0  0  0  0
  -28.1470  -25.7410   19.6210 C   0  0  0  0  0  2  0  0  0  0  0  0
  -28.1250  -27.1350   19.9240 O   0  0  0  0  0  0  0  0  0  0  0  0
  -24.5020  -32.1170   23.4350 C   0  0  0  0  0  0  0  0  0  0  0  0
  -26.9240  -27.8050   20.0180 C   0  0  0  0  0  0  0  0  0  0  0  0
  -23.1830  -30.7750   21.8260 C   0  0  0  0  0  3  0  0  0  0  0  0
  -24.5330  -29.2960   20.2470 C   0  0  0  0  0  0  0  0  0  0  0  0
  -25.6870  -31.1460   21.4710 C   0  0  0  0  0  2  0  0  0  0  0  0
  -25.7250  -29.8000   20.7800 C   0  0  0  0  0  0  0  0  0  0  0  0
  -26.9210  -29.0590   20.6660 C   0  0  0  0  0  3  0  0  0  0  0  0
  -25.7140  -27.3160   19.4720 C   0  0  0  0  0  3  0  0  0  0  0  0
  -24.5190  -28.0520   19.5930 C   0  0  0  0  0  3  0  0  0  0  0  0
  -23.2990  -30.1550   20.4070 C   0  0  0  0  0  2  0  0  0  0  0  0
  -24.4790  -31.3580   22.3030 N   0  0  0  0  0  0  0  0  0  0  0  0
  -23.4600  -32.3730   24.0560 O   0  0  0  0  0  0  0  0  0  0  0  0
  -22.5970  -29.7160   22.7880 C   0  0  0  0  0  0  0  0  0  0  0  0
  -21.3080  -29.3900   22.6000 N   0  0  0  0  0  0  0  0  0  0  0  0
  -23.2990  -29.1960   23.6590 O   0  0  0  0  0  0  0  0  0  0  0  0
  -20.8040  -29.8680   21.8680 H   0  0  0  0  0  0  0  0  0  0  0  0
  -18.1060  -27.7330   22.8500 C   0  0  0  0  0  0  0  0  0  0  0  0
  -20.5550  -28.3920   23.3580 C   0  0  0  0  0  3  0  0  0  0  0  0
  -20.9260  -26.9580   22.9140 C   0  0  0  0  0  2  0  0  0  0  0  0
  -20.0020  -26.4060   21.8240 C   0  0  0  0  0  2  0  0  0  0  0  0
  -18.5510  -26.3830   22.3110 C   0  0  0  0  0  2  0  0  0  0  0  0
  -19.0490  -28.6820   23.3270 C   0  0  0  0  0  0  0  0  0  0  0  0
  -18.5890  -29.9370   23.7830 C   0  0  0  0  0  3  0  0  0  0  0  0
  -17.2160  -30.2470   23.7710 C   0  0  0  0  0  3  0  0  0  0  0  0
  -16.2860  -29.2970   23.3160 C   0  0  0  0  0  3  0  0  0  0  0  0
  -16.7300  -28.0430   22.8590 C   0  0  0  0  0  3  0  0  0  0  0  0
  -25.8300  -32.7220   23.9870 C   0  0  0  0  0  3  0  0  0  0  0  0
  -25.5820  -34.1410   24.2800 N   0  0  0  0  0  0  0  0  0  0  0  0
  -25.9200  -35.1550   23.4710 C   0  0  0  0  0  0  0  0  0  0  0  0
  -26.5460  -34.9950   22.4200 O   0  0  0  0  0  0  0  0  0  0  0  0
  -25.0280  -34.3420   25.0990 H   0  0  0  0  0  0  0  0  0  0  0  0
  -24.2430  -36.9910   23.1050 C   0  0  0  0  0  1  0  0  0  0  0  0
  -25.4930  -36.5730   23.8950 C   0  0  0  0  0  3  0  0  0  0  0  0
  -27.6740  -37.4140   24.6440 C   0  0  0  0  0  1  0  0  0  0  0  0
  -26.5580  -37.5840   23.7180 N   0  0  0  0  0  0  0  0  0  0  0  0
  -26.1860  -38.5230   23.8400 H   0  0  0  0  0  0  0  0  0  0  0  0
  -26.3720  -31.9740   25.2660 C   0  0  1  0  0  0  0  0  0  0  0  0
  -25.2940  -31.7400   26.3510 C   0  0  0  0  0  1  0  0  0  0  0  0
  -26.9540  -30.5940   24.8790 C   0  0  0  0  0  1  0  0  0  0  0  0
  -27.5230  -32.7880   25.9040 C   0  0  0  0  0  1  0  0  0  0  0  0
  1  3  2  0
  2 49  1  0
  2  1  1  0
  4  2  1  0
  5  6  1  0
  6  9  2  0
  7  5  2  0
  7 10  1  0
  8  9  1  0
  9  1  1  0
 10  8  2  0
 11 19  1  0
 12 17  1  0
 13 14  1  0
 13 12  1  0
 15 14  1  0
 15 24  1  0
 15 16  1  0
 17 11  1  0
 17 16  1  0
 18 11  2  0
 19 10  1  0
 19 20  1  0
 21 22  2  0
 22 41  1  0
 23 26  1  0
 23 22  1  0
 24 25  1  0
 24 21  1  0
 25 23  2  0
 26 27  1  0
 27 28  2  0
 29 32  1  0
 29 28  1  0
 30 29  2  0
 31 30  1  0
 31 26  2  0
 32 33  1  0
 33 34  1  0
 34 35  2  0
 36 35  1  0
 36 40  1  0
 37 36  2  0
 38 33  2  0
 38 37  1  0
 39 38  1  0
 41 42  1  0
 42 44  1  0
 42 45  1  0
 43 41  2  0
 46 21  1  0
 46 47  1  0
 48 46  1  0
 50 51  1  0
 50 49  1  0
 52 53  1  0
 52 51  1  0
 53 55  1  0
 54 65  2  0
 55 60  1  0
 56 64  1  0
 56 66  1  0
 57 63  1  0
 57 59  1  0
 58 64  1  0
 59 58  1  0
 60 59  2  0
 61 62  1  0
 61 55  2  0
 62 57  2  0
 63 56  1  0
 64 54  1  0
 66 68  2  0
 67 66  1  0
 69 67  1  0
 70 79  2  0
 70 75  1  0
 71 67  1  0
 72 71  1  0
 73 74  1  0
 73 72  1  0
 74 70  1  0
 75 71  1  0
 75 76  2  0
 77 76  1  0
 78 77  2  0
 79 78  1  0
 80 54  1  0
 80 81  1  0
 80 90  1  0
 81 84  1  0
 82 86  1  0
 82 81  1  0
 83 82  2  0
 86 85  1  0
 88 89  1  0
 88 86  1  0
 88 87  1  0
 90 93  1  1
 90 91  1  0
 92 90  1  0
M  ISO  4  11 100  19 100  52 101  53 101
M  END
>  <TORSDO>  (43) 
F 21

>  <SCORE>  (43) 
-11.874

>  <name>  (43) 
42

>  <ligand_id>  (43) 
42

>  <original_smiles>  (43) 
[H]c1c([H])c(C(=O)N([H])C([H])([H])C([H])([H])C([H])([H])C([H])([H])Oc2c([H])c([H])c3c(c2[H])C([H])([H])N(C(=O)C([H])(N([H])C(=O)C([H])(N([H])C([H])([H])[H])C([H])([H])[H])C(C([H])([H])[H])(C([H])([H])[H])C([H])([H])[H])C([H])(C(=O)N([H])C2([H])c4c([H])c([H])c([H])c([H])c4C([H])([H])C([H])([H])C2([H])[H])C3([H])[H])c([H])c(N([H])C(=O)N2C([H])([H])C([H])([H])C([H])([H])C([H])(n3nc(-c4c([H])c([H])c(Oc5c([H])c([H])c(F)c([H])c5F)c([H])c4[H])c(C(=O)N([H])[H])c3N([H])[H])C2([H])[H])c1[H]

>  <smiles>  (43) 
[H]c1c([H])c(C(=O)N([H])C([H])([H])C([H])([H])C([H])([H])C([H])([H])Oc2c([H])c([H])c3c(c2[H])C([H])([H])N(C(=O)C([H])(N([H])C(=O)C([H])(N([H])C([H])([H])[H])C([H])([H])[H])C(C([H])([H])[H])(C([H])([H])[H])C([H])([H])[H])C([H])(C(=O)N([H])C2([H])c4c([H])c([H])c([H])c([H])c4C([H])([H])C([H])([H])C2([H])[H])C3([H])[H])c([H])c(N([H])C(=O)N2C([H])([H])C([H])([H])C([H])([H])C([H])(n3nc(-c4c([H])c([H])c(Oc5c([H])c([H])c(F)c([H])c5F)c([H])c4[H])c(C(=O)N([H])[H])c3N([H])[H])C2([H])[H])c1[H]

$$$$
43:0:0
     RDKit          3D

 88 96  0  0  1  0  0  0  0  0999 V2000
  -30.5720  -18.5260   19.0430 C   0  0  0  0  0  3  0  0  0  0  0  0
  -30.7190  -19.8380   18.5110 C   0  0  0  0  0  3  0  0  0  0  0  0
  -29.0460  -19.5320   20.6140 C   0  0  0  0  0  3  0  0  0  0  0  0
  -29.1820  -20.9960   20.0960 C   0  0  0  0  0  0  0  0  0  0  0  0
  -29.7240  -18.2160   20.1280 C   0  0  0  0  0  0  0  0  0  0  0  0
  -30.0690  -21.0060   18.9960 C   0  0  0  0  0  0  0  0  0  0  0  0
  -30.3450  -22.1860   18.3930 F   0  0  0  0  0  0  0  0  0  0  0  0
  -30.3730  -15.3500   20.3160 C   0  0  0  0  0  0  0  0  0  0  0  0
  -30.3850  -12.8740   19.4980 C   0  0  0  0  0  2  0  0  0  0  0  0
  -29.4910  -12.6410   18.2520 C   0  0  0  0  0  2  0  0  0  0  0  0
  -28.0380  -12.3620   18.6700 C   0  0  0  0  0  2  0  0  0  0  0  0
  -27.5630  -13.3360   19.7760 C   0  0  0  0  0  3  0  0  0  0  0  0
  -28.5880  -13.5130   20.9180 C   0  0  0  0  0  2  0  0  0  0  0  0
  -29.8260  -14.0270   20.3070 N   0  0  0  0  0  0  0  0  0  0  0  0
  -31.5840  -15.3440   20.0420 O   0  0  0  0  0  0  0  0  0  0  0  0
  -29.6140  -16.6290   20.5110 N   0  0  0  0  0  0  0  0  0  0  0  0
  -28.7200  -16.4140   20.9280 H   0  0  0  0  0  0  0  0  0  0  0  0
  -25.1800  -13.8890   20.4870 C   0  0  0  0  0  0  0  0  0  0  0  0
  -24.1160  -13.1110   20.8480 C   0  0  0  0  0  0  0  0  0  0  0  0
  -24.5880  -11.7630   20.8380 C   0  0  0  0  0  0  0  0  0  0  0  0
  -26.2290  -13.0160   20.2670 N   0  0  0  0  0  0  0  0  0  0  0  0
  -25.8850  -11.7310   20.5470 N   0  0  0  0  0  0  0  0  0  0  0  0
  -23.8620  -10.5000   21.0290 C   0  0  0  0  0  0  0  0  0  0  0  0
  -24.2830   -9.5390   21.9750 C   0  0  0  0  0  3  0  0  0  0  0  0
  -23.5540   -8.3440   22.1560 C   0  0  0  0  0  3  0  0  0  0  0  0
  -22.3880   -8.1010   21.3910 C   0  0  0  0  0  0  0  0  0  0  0  0
  -21.9860   -9.0500   20.4350 C   0  0  0  0  0  3  0  0  0  0  0  0
  -22.7150  -10.2360   20.2520 C   0  0  0  0  0  3  0  0  0  0  0  0
  -21.6320   -6.9580   21.4790 O   0  0  0  0  0  0  0  0  0  0  0  0
  -21.5750   -6.2190   22.6350 C   0  0  0  0  0  0  0  0  0  0  0  0
  -21.1500   -6.7820   23.8580 C   0  0  0  0  0  3  0  0  0  0  0  0
  -21.0400   -5.9710   25.0050 C   0  0  0  0  0  3  0  0  0  0  0  0
  -21.3460   -4.5990   24.9310 C   0  0  0  0  0  0  0  0  0  0  0  0
  -21.7650   -4.0360   23.7130 C   0  0  0  0  0  3  0  0  0  0  0  0
  -21.8760   -4.8440   22.5670 C   0  0  0  0  0  0  0  0  0  0  0  0
  -22.2590   -4.2920   21.3910 F   0  0  0  0  0  0  0  0  0  0  0  0
  -21.2330   -3.8180   26.0310 F   0  0  0  0  0  0  0  0  0  0  0  0
  -22.7120  -13.5870   21.0860 C   0  0  0  0  0  0  0  0  0  0  0  0
  -21.9700  -12.8990   21.9460 N   0  0  0  0  0  0  0  0  0  0  0  0
  -22.2830  -14.6050   20.5450 O   0  0  0  0  0  0  0  0  0  0  0  0
  -22.3300  -12.0760   22.4050 H   0  0  0  0  0  0  0  0  0  0  0  0
  -21.0270  -13.2010   22.1490 H   0  0  0  0  0  0  0  0  0  0  0  0
  -25.3380  -15.2590   20.2970 N   0  0  0  0  0  0  0  0  0  0  0  0
  -24.5620  -15.9060   20.3850 H   0  0  0  0  0  0  0  0  0  0  0  0
  -26.1790  -15.6960   19.9440 H   0  0  0  0  0  0  0  0  0  0  0  0
  -28.6410  -22.5900   20.6520 C   0  0  0  0  0  2  0  0  0  0  0  0
  -28.2070  -24.1960   19.8860 C   0  0  0  0  0  2  0  0  0  0  0  0
  -28.2060  -25.8140   20.3190 O   0  0  0  0  0  0  0  0  0  0  0  0
  -24.6140  -31.8330   23.1660 C   0  0  0  0  0  0  0  0  0  0  0  0
  -27.1950  -26.9180   20.1870 C   0  0  0  0  0  0  0  0  0  0  0  0
  -23.4330  -30.4250   21.5290 C   0  0  0  0  0  3  0  0  0  0  0  0
  -24.8930  -28.8130   20.1160 C   0  0  0  0  0  0  0  0  0  0  0  0
  -25.9990  -30.6330   21.3990 C   0  0  0  0  0  2  0  0  0  0  0  0
  -26.0740  -29.2180   20.7480 C   0  0  0  0  0  0  0  0  0  0  0  0
  -27.2140  -28.2890   20.7620 C   0  0  0  0  0  3  0  0  0  0  0  0
  -25.9860  -26.6780   19.4950 C   0  0  0  0  0  3  0  0  0  0  0  0
  -24.8760  -27.5660   19.4680 C   0  0  0  0  0  3  0  0  0  0  0  0
  -23.6720  -29.7340   20.1560 C   0  0  0  0  0  2  0  0  0  0  0  0
  -24.7030  -30.9930   22.0840 N   0  0  0  0  0  0  0  0  0  0  0  0
  -23.5210  -32.1240   23.6810 O   0  0  0  0  0  0  0  0  0  0  0  0
  -22.7330  -29.4360   22.4960 C   0  0  0  0  0  0  0  0  0  0  0  0
  -21.4010  -29.2830   22.3780 N   0  0  0  0  0  0  0  0  0  0  0  0
  -23.3960  -28.8070   23.3250 O   0  0  0  0  0  0  0  0  0  0  0  0
  -20.9180  -29.8400   21.6880 H   0  0  0  0  0  0  0  0  0  0  0  0
  -18.0110  -28.0950   22.9040 C   0  0  0  0  0  0  0  0  0  0  0  0
  -20.5750  -28.3490   23.1520 C   0  0  0  0  0  3  0  0  0  0  0  0
  -20.6650  -26.9160   22.5750 C   0  0  0  0  0  2  0  0  0  0  0  0
  -19.5560  -26.6010   21.5650 C   0  0  0  0  0  2  0  0  0  0  0  0
  -18.1780  -26.7480   22.2180 C   0  0  0  0  0  2  0  0  0  0  0  0
  -19.1360  -28.8520   23.3270 C   0  0  0  0  0  0  0  0  0  0  0  0
  -18.9230  -30.1100   23.9320 C   0  0  0  0  0  3  0  0  0  0  0  0
  -17.6200  -30.6110   24.1140 C   0  0  0  0  0  3  0  0  0  0  0  0
  -16.5110  -29.8520   23.7030 C   0  0  0  0  0  3  0  0  0  0  0  0
  -16.7080  -28.5950   23.1050 C   0  0  0  0  0  3  0  0  0  0  0  0
  -25.8780  -32.4840   23.8040 C   0  0  0  0  0  3  0  0  0  0  0  0
  -25.5500  -33.8810   24.1440 N   0  0  0  0  0  0  0  0  0  0  0  0
  -25.8780  -34.9500   23.4050 C   0  0  0  0  0  0  0  0  0  0  0  0
  -26.5510  -34.8630   22.3740 O   0  0  0  0  0  0  0  0  0  0  0  0
  -24.9500  -34.0200   24.9430 H   0  0  0  0  0  0  0  0  0  0  0  0
  -24.1410  -36.7450   23.0810 C   0  0  0  0  0  1  0  0  0  0  0  0
  -25.3870  -36.3320   23.8820 C   0  0  0  0  0  3  0  0  0  0  0  0
  -27.5180  -37.2220   24.7170 C   0  0  0  0  0  1  0  0  0  0  0  0
  -26.4140  -37.3920   23.7780 N   0  0  0  0  0  0  0  0  0  0  0  0
  -26.0040  -38.3090   23.9340 H   0  0  0  0  0  0  0  0  0  0  0  0
  -26.3850  -31.7210   25.0910 C   0  0  1  0  0  0  0  0  0  0  0  0
  -25.2840  -31.4870   26.1520 C   0  0  0  0  0  1  0  0  0  0  0  0
  -26.9750  -30.3420   24.7200 C   0  0  0  0  0  1  0  0  0  0  0  0
  -27.5280  -32.5210   25.7580 C   0  0  0  0  0  1  0  0  0  0  0  0
  1  5  1  0
  2  6  1  0
  2  1  2  0
  4  3  1  0
  4 46  1  0
  5 16  1  0
  5  3  2  0
  6  4  2  0
  7  6  1  0
  8 16  1  0
  9 14  1  0
 10 11  1  0
 10  9  1  0
 12 11  1  0
 12 21  1  0
 12 13  1  0
 14  8  1  0
 14 13  1  0
 15  8  2  0
 16 17  1  0
 18 19  2  0
 19 38  1  0
 20 19  1  0
 20 23  1  0
 21 18  1  0
 21 22  1  0
 22 20  2  0
 23 24  1  0
 24 25  2  0
 26 29  1  0
 26 25  1  0
 27 26  2  0
 28 27  1  0
 28 23  2  0
 29 30  1  0
 30 31  1  0
 31 32  2  0
 33 32  1  0
 33 37  1  0
 34 33  2  0
 35 30  2  0
 35 34  1  0
 36 35  1  0
 38 39  1  0
 39 42  1  0
 39 41  1  0
 40 38  2  0
 43 44  1  0
 43 18  1  0
 45 43  1  0
 47 48  1  0
 47 46  1  0
 49 60  2  0
 50 48  1  0
 50 55  1  0
 51 59  1  0
 51 61  1  0
 52 58  1  0
 52 54  1  0
 53 59  1  0
 54 55  2  0
 54 53  1  0
 56 50  2  0
 57 56  1  0
 57 52  2  0
 58 51  1  0
 59 49  1  0
 61 63  2  0
 62 61  1  0
 64 62  1  0
 65 74  2  0
 65 70  1  0
 66 62  1  0
 66 70  1  0
 67 66  1  0
 68 69  1  0
 68 67  1  0
 69 65  1  0
 70 71  2  0
 71 72  1  0
 73 72  2  0
 74 73  1  0
 75 49  1  0
 75 76  1  0
 75 85  1  0
 76 79  1  0
 77 81  1  0
 77 76  1  0
 78 77  2  0
 81 80  1  0
 83 81  1  0
 83 84  1  0
 83 82  1  0
 85 88  1  1
 85 86  1  0
 87 85  1  0
M  ISO  4   8 100  16 100  47 101  48 101
M  END
>  <TORSDO>  (44) 
F 18

>  <SCORE>  (44) 
-15.990

>  <name>  (44) 
43

>  <ligand_id>  (44) 
43

>  <original_smiles>  (44) 
[H]c1c([H])c([H])c2c(c1[H])C([H])([H])C([H])([H])C([H])([H])C2([H])N([H])C(=O)C1([H])N(C(=O)C([H])(N([H])C(=O)C([H])(N([H])C([H])([H])[H])C([H])([H])[H])C(C([H])([H])[H])(C([H])([H])[H])C([H])([H])[H])C([H])([H])c2c([H])c(OC([H])([H])C([H])([H])c3c([H])c(N([H])C(=O)N4C([H])([H])C([H])([H])C([H])([H])C([H])(n5nc(-c6c([H])c([H])c(Oc7c([H])c([H])c(F)c([H])c7F)c([H])c6[H])c(C(=O)N([H])[H])c5N([H])[H])C4([H])[H])c([H])c([H])c3F)c([H])c([H])c2C1([H])[H]

>  <smiles>  (44) 
[H]c1c([H])c([H])c2c(c1[H])C([H])([H])C([H])([H])C([H])([H])C2([H])N([H])C(=O)C1([H])N(C(=O)C([H])(N([H])C(=O)C([H])(N([H])C([H])([H])[H])C([H])([H])[H])C(C([H])([H])[H])(C([H])([H])[H])C([H])([H])[H])C([H])([H])c2c([H])c(OC([H])([H])C([H])([H])c3c([H])c(N([H])C(=O)N4C([H])([H])C([H])([H])C([H])([H])C([H])(n5nc(-c6c([H])c([H])c(Oc7c([H])c([H])c(F)c([H])c7F)c([H])c6[H])c(C(=O)N([H])[H])c5N([H])[H])C4([H])[H])c([H])c([H])c3F)c([H])c([H])c2C1([H])[H]

$$$$
44:0:0
     RDKit          3D

 88 96  0  0  1  0  0  0  0  0999 V2000
  -30.8630  -19.5360   20.3610 C   0  0  0  0  0  3  0  0  0  0  0  0
  -31.1850  -20.9340   20.4010 C   0  0  0  0  0  3  0  0  0  0  0  0
  -28.8830  -21.9620   20.2750 C   0  0  0  0  0  0  0  0  0  0  0  0
  -29.5520  -19.0080   20.2760 C   0  0  0  0  0  0  0  0  0  0  0  0
  -30.2940  -22.0590   20.3630 C   0  0  0  0  0  0  0  0  0  0  0  0
  -28.6020  -20.3440   20.2360 C   0  0  0  0  0  0  0  0  0  0  0  0
  -30.8460  -23.2950   20.4090 F   0  0  0  0  0  0  0  0  0  0  0  0
  -27.2840  -20.0400   20.1480 F   0  0  0  0  0  0  0  0  0  0  0  0
  -30.2170  -15.8610   20.1830 C   0  0  0  0  0  0  0  0  0  0  0  0
  -30.3660  -13.2900   19.3450 C   0  0  0  0  0  2  0  0  0  0  0  0
  -29.4700  -12.8200   18.1590 C   0  0  0  0  0  2  0  0  0  0  0  0
  -28.0690  -12.4200   18.6440 C   0  0  0  0  0  2  0  0  0  0  0  0
  -27.5500  -13.4150   19.7040 C   0  0  0  0  0  3  0  0  0  0  0  0
  -28.5910  -13.7840   20.7910 C   0  0  0  0  0  2  0  0  0  0  0  0
  -29.7190  -14.4680   20.1050 N   0  0  0  0  0  0  0  0  0  0  0  0
  -31.4530  -15.7860   20.0100 O   0  0  0  0  0  0  0  0  0  0  0  0
  -29.4350  -17.2470   20.2560 N   0  0  0  0  0  0  0  0  0  0  0  0
  -28.4590  -16.9970   20.3100 H   0  0  0  0  0  0  0  0  0  0  0  0
  -25.2030  -13.8990   20.5330 C   0  0  0  0  0  0  0  0  0  0  0  0
  -24.1610  -13.1000   20.9080 C   0  0  0  0  0  0  0  0  0  0  0  0
  -24.6460  -11.7580   20.8430 C   0  0  0  0  0  0  0  0  0  0  0  0
  -26.2520  -13.0460   20.2520 N   0  0  0  0  0  0  0  0  0  0  0  0
  -25.9340  -11.7480   20.5040 N   0  0  0  0  0  0  0  0  0  0  0  0
  -23.9350  -10.4840   21.0240 C   0  0  0  0  0  0  0  0  0  0  0  0
  -24.3610   -9.5260   21.9700 C   0  0  0  0  0  3  0  0  0  0  0  0
  -23.6440   -8.3220   22.1430 C   0  0  0  0  0  3  0  0  0  0  0  0
  -22.4870   -8.0670   21.3690 C   0  0  0  0  0  0  0  0  0  0  0  0
  -22.0800   -9.0150   20.4130 C   0  0  0  0  0  3  0  0  0  0  0  0
  -22.7970  -10.2090   20.2400 C   0  0  0  0  0  3  0  0  0  0  0  0
  -21.7420   -6.9140   21.4500 O   0  0  0  0  0  0  0  0  0  0  0  0
  -21.6430   -6.2010   22.6190 C   0  0  0  0  0  0  0  0  0  0  0  0
  -21.1020   -6.7670   23.7930 C   0  0  0  0  0  3  0  0  0  0  0  0
  -20.9540   -5.9780   24.9510 C   0  0  0  0  0  3  0  0  0  0  0  0
  -21.3380   -4.6250   24.9360 C   0  0  0  0  0  0  0  0  0  0  0  0
  -21.8730   -4.0580   23.7650 C   0  0  0  0  0  3  0  0  0  0  0  0
  -22.0210   -4.8440   22.6090 C   0  0  0  0  0  0  0  0  0  0  0  0
  -22.5170   -4.2860   21.4780 F   0  0  0  0  0  0  0  0  0  0  0  0
  -21.1900   -3.8640   26.0460 F   0  0  0  0  0  0  0  0  0  0  0  0
  -22.7640  -13.5570   21.2050 C   0  0  0  0  0  0  0  0  0  0  0  0
  -22.0610  -12.8490   22.0800 N   0  0  0  0  0  0  0  0  0  0  0  0
  -22.3060  -14.5800   20.6960 O   0  0  0  0  0  0  0  0  0  0  0  0
  -22.4460  -12.0230   22.5140 H   0  0  0  0  0  0  0  0  0  0  0  0
  -21.1230  -13.1380   22.3220 H   0  0  0  0  0  0  0  0  0  0  0  0
  -25.3410  -15.2740   20.3730 N   0  0  0  0  0  0  0  0  0  0  0  0
  -24.5630  -15.9120   20.5040 H   0  0  0  0  0  0  0  0  0  0  0  0
  -26.1640  -15.7270   19.9990 H   0  0  0  0  0  0  0  0  0  0  0  0
  -27.9180  -23.6190   20.2030 C   0  0  0  0  0  2  0  0  0  0  0  0
  -28.1340  -25.4150   20.3330 O   0  0  0  0  0  0  0  0  0  0  0  0
  -24.6380  -31.8390   23.2460 C   0  0  0  0  0  0  0  0  0  0  0  0
  -27.1810  -26.6800   20.2790 C   0  0  0  0  0  0  0  0  0  0  0  0
  -23.4690  -30.4490   21.5900 C   0  0  0  0  0  3  0  0  0  0  0  0
  -24.9300  -28.7820   20.1970 C   0  0  0  0  0  0  0  0  0  0  0  0
  -26.0540  -30.5560   21.5120 C   0  0  0  0  0  2  0  0  0  0  0  0
  -26.1210  -29.1150   20.8520 C   0  0  0  0  0  0  0  0  0  0  0  0
  -27.2270  -28.0960   20.8560 C   0  0  0  0  0  3  0  0  0  0  0  0
  -25.9540  -26.5850   19.5680 C   0  0  0  0  0  3  0  0  0  0  0  0
  -24.8920  -27.5450   19.5300 C   0  0  0  0  0  3  0  0  0  0  0  0
  -23.7290  -29.7490   20.2250 C   0  0  0  0  0  2  0  0  0  0  0  0
  -24.7450  -30.9830   22.1690 N   0  0  0  0  0  0  0  0  0  0  0  0
  -23.5370  -32.1450   23.7390 O   0  0  0  0  0  0  0  0  0  0  0  0
  -22.7280  -29.4790   22.5510 C   0  0  0  0  0  0  0  0  0  0  0  0
  -21.3970  -29.3290   22.4040 N   0  0  0  0  0  0  0  0  0  0  0  0
  -23.3660  -28.8570   23.4050 O   0  0  0  0  0  0  0  0  0  0  0  0
  -20.9310  -29.8810   21.6970 H   0  0  0  0  0  0  0  0  0  0  0  0
  -17.9980  -28.1270   22.8750 C   0  0  0  0  0  0  0  0  0  0  0  0
  -20.5560  -28.3930   23.1630 C   0  0  0  0  0  3  0  0  0  0  0  0
  -20.6600  -26.9610   22.5880 C   0  0  0  0  0  2  0  0  0  0  0  0
  -19.5690  -26.6450   21.5590 C   0  0  0  0  0  2  0  0  0  0  0  0
  -18.1810  -26.7840   22.1890 C   0  0  0  0  0  2  0  0  0  0  0  0
  -19.1110  -28.8900   23.3180 C   0  0  0  0  0  0  0  0  0  0  0  0
  -18.8820  -30.1430   23.9260 C   0  0  0  0  0  3  0  0  0  0  0  0
  -17.5730  -30.6360   24.0910 C   0  0  0  0  0  3  0  0  0  0  0  0
  -16.4740  -29.8720   23.6600 C   0  0  0  0  0  3  0  0  0  0  0  0
  -16.6870  -28.6190   23.0590 C   0  0  0  0  0  3  0  0  0  0  0  0
  -25.8900  -32.4880   23.9080 C   0  0  0  0  0  3  0  0  0  0  0  0
  -25.5700  -33.8950   24.2290 N   0  0  0  0  0  0  0  0  0  0  0  0
  -25.8900  -34.9530   23.4720 C   0  0  0  0  0  0  0  0  0  0  0  0
  -26.5400  -34.8490   22.4290 O   0  0  0  0  0  0  0  0  0  0  0  0
  -24.9870  -34.0480   25.0380 H   0  0  0  0  0  0  0  0  0  0  0  0
  -24.1430  -36.7490   23.1840 C   0  0  0  0  0  1  0  0  0  0  0  0
  -25.4190  -36.3480   23.9420 C   0  0  0  0  0  3  0  0  0  0  0  0
  -27.5770  -37.2610   24.6810 C   0  0  0  0  0  1  0  0  0  0  0  0
  -26.4420  -37.4060   23.7760 N   0  0  0  0  0  0  0  0  0  0  0  0
  -26.0350  -38.3260   23.9220 H   0  0  0  0  0  0  0  0  0  0  0  0
  -26.3520  -31.7380   25.2210 C   0  0  1  0  0  0  0  0  0  0  0  0
  -25.2190  -31.5350   26.2570 C   0  0  0  0  0  1  0  0  0  0  0  0
  -26.9320  -30.3450   24.8900 C   0  0  0  0  0  1  0  0  0  0  0  0
  -27.4880  -32.5330   25.9060 C   0  0  0  0  0  1  0  0  0  0  0  0
  1  2  1  0
  3  5  1  0
  4  1  2  0
  5  2  2  0
  5  7  1  0
  6  3  2  0
  6  4  1  0
  8  6  1  0
  9 17  1  0
 10 15  1  0
 11 12  1  0
 11 10  1  0
 13 12  1  0
 13 22  1  0
 13 14  1  0
 15  9  1  0
 15 14  1  0
 16  9  2  0
 17  4  1  0
 17 18  1  0
 19 20  2  0
 20 39  1  0
 21 20  1  0
 21 24  1  0
 22 23  1  0
 22 19  1  0
 23 21  2  0
 24 25  1  0
 25 26  2  0
 27 30  1  0
 27 26  1  0
 28 27  2  0
 29 28  1  0
 29 24  2  0
 30 31  1  0
 31 32  1  0
 32 33  2  0
 34 33  1  0
 34 38  1  0
 35 34  2  0
 36 31  2  0
 36 35  1  0
 37 36  1  0
 39 40  1  0
 40 43  1  0
 40 42  1  0
 41 39  2  0
 44 45  1  0
 44 19  1  0
 46 44  1  0
 47  3  1  0
 47 48  1  0
 49 60  2  0
 50 48  1  0
 50 55  1  0
 51 59  1  0
 51 61  1  0
 52 58  1  0
 52 54  1  0
 53 59  1  0
 54 55  2  0
 54 53  1  0
 56 50  2  0
 57 56  1  0
 57 52  2  0
 58 51  1  0
 59 49  1  0
 61 63  2  0
 62 61  1  0
 64 62  1  0
 65 74  2  0
 65 70  1  0
 66 62  1  0
 66 70  1  0
 67 66  1  0
 68 69  1  0
 68 67  1  0
 69 65  1  0
 70 71  2  0
 71 72  1  0
 73 72  2  0
 74 73  1  0
 75 49  1  0
 75 76  1  0
 75 85  1  0
 76 79  1  0
 77 81  1  0
 77 76  1  0
 78 77  2  0
 81 80  1  0
 83 84  1  0
 83 81  1  0
 83 82  1  0
 85 88  1  1
 85 86  1  0
 87 85  1  0
M  ISO  4   9 100  17 100  47 101  48 101
M  END
>  <TORSDO>  (45) 
F 17

>  <SCORE>  (45) 
-16.459

>  <name>  (45) 
44

>  <ligand_id>  (45) 
44

>  <original_smiles>  (45) 
[H]c1c([H])c([H])c2c(c1[H])C([H])([H])C([H])([H])C([H])([H])C2([H])N([H])C(=O)C1([H])N(C(=O)C([H])(N([H])C(=O)C([H])(N([H])C([H])([H])[H])C([H])([H])[H])C(C([H])([H])[H])(C([H])([H])[H])C([H])([H])[H])C([H])([H])c2c([H])c(OC([H])([H])c3c(F)c([H])c([H])c(N([H])C(=O)N4C([H])([H])C([H])([H])C([H])([H])C([H])(n5nc(-c6c([H])c([H])c(Oc7c([H])c([H])c(F)c([H])c7F)c([H])c6[H])c(C(=O)N([H])[H])c5N([H])[H])C4([H])[H])c3F)c([H])c([H])c2C1([H])[H]

>  <smiles>  (45) 
[H]c1c([H])c([H])c2c(c1[H])C([H])([H])C([H])([H])C([H])([H])C2([H])N([H])C(=O)C1([H])N(C(=O)C([H])(N([H])C(=O)C([H])(N([H])C([H])([H])[H])C([H])([H])[H])C(C([H])([H])[H])(C([H])([H])[H])C([H])([H])[H])C([H])([H])c2c([H])c(OC([H])([H])c3c(F)c([H])c([H])c(N([H])C(=O)N4C([H])([H])C([H])([H])C([H])([H])C([H])(n5nc(-c6c([H])c([H])c(Oc7c([H])c([H])c(F)c([H])c7F)c([H])c6[H])c(C(=O)N([H])[H])c5N([H])[H])C4([H])[H])c3F)c([H])c([H])c2C1([H])[H]

$$$$
45:0:0
     RDKit          3D

 92100  0  0  1  0  0  0  0  0999 V2000
  -28.9650  -21.5700   20.1180 N   0  0  0  0  0  0  0  0  0  0  0  0
  -30.1430  -19.7230   21.3560 C   0  0  0  0  0  3  0  0  0  0  0  0
  -30.4550  -18.3410   21.5080 C   0  0  0  0  0  3  0  0  0  0  0  0
  -29.2500  -19.2480   19.2020 C   0  0  0  0  0  3  0  0  0  0  0  0
  -29.5850  -17.8530   19.3300 C   0  0  0  0  0  0  0  0  0  0  0  0
  -29.4960  -20.2260   20.2070 C   0  0  0  0  0  0  0  0  0  0  0  0
  -30.1790  -17.3240   20.5310 C   0  0  0  0  0  0  0  0  0  0  0  0
  -29.2240  -16.9930   18.1270 C   0  0  0  0  0  1  0  0  0  0  0  0
  -30.9410  -14.8700   20.0610 C   0  0  0  0  0  0  0  0  0  0  0  0
  -30.5880  -12.6590   18.9230 C   0  0  0  0  0  2  0  0  0  0  0  0
  -29.5980  -12.7870   17.7450 C   0  0  0  0  0  2  0  0  0  0  0  0
  -28.1440  -12.6430   18.2310 C   0  0  0  0  0  2  0  0  0  0  0  0
  -27.8520  -13.4860   19.5020 C   0  0  0  0  0  3  0  0  0  0  0  0
  -28.9600  -13.3370   20.5670 C   0  0  0  0  0  2  0  0  0  0  0  0
  -30.2460  -13.6840   19.9410 N   0  0  0  0  0  0  0  0  0  0  0  0
  -32.0080  -15.0280   19.4570 O   0  0  0  0  0  0  0  0  0  0  0  0
  -30.6880  -15.5960   22.2950 C   0  0  0  0  0  1  0  0  0  0  0  0
  -30.4420  -15.8830   20.8670 N   0  0  0  0  0  0  0  0  0  0  0  0
  -25.5100  -14.0780   20.3700 C   0  0  0  0  0  0  0  0  0  0  0  0
  -24.4550  -13.3030   20.7730 C   0  0  0  0  0  0  0  0  0  0  0  0
  -24.8980  -11.9500   20.6750 C   0  0  0  0  0  0  0  0  0  0  0  0
  -26.5290  -13.1970   20.0500 N   0  0  0  0  0  0  0  0  0  0  0  0
  -26.1690  -11.9080   20.2890 N   0  0  0  0  0  0  0  0  0  0  0  0
  -24.1640  -10.6920   20.8680 C   0  0  0  0  0  0  0  0  0  0  0  0
  -24.5460   -9.7620   21.8590 C   0  0  0  0  0  3  0  0  0  0  0  0
  -23.8160   -8.5670   22.0390 C   0  0  0  0  0  3  0  0  0  0  0  0
  -22.6880   -8.2950   21.2280 C   0  0  0  0  0  0  0  0  0  0  0  0
  -22.3230   -9.2160   20.2310 C   0  0  0  0  0  3  0  0  0  0  0  0
  -23.0530  -10.4020   20.0490 C   0  0  0  0  0  3  0  0  0  0  0  0
  -21.9360   -7.1500   21.3100 O   0  0  0  0  0  0  0  0  0  0  0  0
  -21.7060   -6.5250   22.5100 C   0  0  0  0  0  0  0  0  0  0  0  0
  -21.0790   -7.1880   23.5880 C   0  0  0  0  0  3  0  0  0  0  0  0
  -20.7990   -6.4880   24.7780 C   0  0  0  0  0  3  0  0  0  0  0  0
  -21.1370   -5.1260   24.8910 C   0  0  0  0  0  0  0  0  0  0  0  0
  -21.7560   -4.4630   23.8170 C   0  0  0  0  0  3  0  0  0  0  0  0
  -22.0370   -5.1600   22.6290 C   0  0  0  0  0  0  0  0  0  0  0  0
  -22.6150   -4.5110   21.5890 F   0  0  0  0  0  0  0  0  0  0  0  0
  -20.8610   -4.4510   26.0310 F   0  0  0  0  0  0  0  0  0  0  0  0
  -23.0830  -13.7880   21.1350 C   0  0  0  0  0  0  0  0  0  0  0  0
  -22.3980  -13.0830   22.0310 N   0  0  0  0  0  0  0  0  0  0  0  0
  -22.6250  -14.8250   20.6590 O   0  0  0  0  0  0  0  0  0  0  0  0
  -22.7800  -12.2410   22.4370 H   0  0  0  0  0  0  0  0  0  0  0  0
  -21.4790  -13.3920   22.3120 H   0  0  0  0  0  0  0  0  0  0  0  0
  -25.6690  -15.4510   20.2330 N   0  0  0  0  0  0  0  0  0  0  0  0
  -24.8950  -16.0830   20.4150 H   0  0  0  0  0  0  0  0  0  0  0  0
  -26.5070  -15.9260   19.9230 H   0  0  0  0  0  0  0  0  0  0  0  0
  -27.6270  -22.4650   22.0500 C   0  0  0  0  0  1  0  0  0  0  0  0
  -27.6400  -21.6570   20.7370 C   0  0  0  0  0  2  0  0  0  0  0  0
  -29.7990  -22.8170   20.1800 C   0  0  0  0  0  2  0  0  0  0  0  0
  -29.2290  -24.1720   19.5200 C   0  0  0  0  0  2  0  0  0  0  0  0
  -28.5880  -25.3440   20.3970 C   0  0  0  0  0  2  0  0  0  0  0  0
  -28.6100  -26.7340   19.8730 O   0  0  0  0  0  0  0  0  0  0  0  0
  -24.5850  -31.7910   23.1010 C   0  0  0  0  0  0  0  0  0  0  0  0
  -27.4330  -27.4920   19.9050 C   0  0  0  0  0  0  0  0  0  0  0  0
  -23.4490  -30.3790   21.4230 C   0  0  0  0  0  3  0  0  0  0  0  0
  -24.9760  -28.9530   19.9440 C   0  0  0  0  0  0  0  0  0  0  0  0
  -25.9610  -30.8520   21.2310 C   0  0  0  0  0  2  0  0  0  0  0  0
  -26.1180  -29.5000   20.5450 C   0  0  0  0  0  0  0  0  0  0  0  0
  -27.3520  -28.7850   20.5070 C   0  0  0  0  0  3  0  0  0  0  0  0
  -26.2680  -26.9870   19.2910 C   0  0  0  0  0  3  0  0  0  0  0  0
  -25.0540  -27.7040   19.3040 C   0  0  0  0  0  3  0  0  0  0  0  0
  -23.6920  -29.7560   20.0220 C   0  0  0  0  0  2  0  0  0  0  0  0
  -24.6840  -31.0230   21.9770 N   0  0  0  0  0  0  0  0  0  0  0  0
  -23.4910  -31.9930   23.6480 O   0  0  0  0  0  0  0  0  0  0  0  0
  -22.8480  -29.2980   22.3540 C   0  0  0  0  0  0  0  0  0  0  0  0
  -21.5330  -29.0550   22.2250 N   0  0  0  0  0  0  0  0  0  0  0  0
  -23.5630  -28.6830   23.1480 O   0  0  0  0  0  0  0  0  0  0  0  0
  -21.0130  -29.6130   21.5640 H   0  0  0  0  0  0  0  0  0  0  0  0
  -18.2220  -27.6730   22.7020 C   0  0  0  0  0  0  0  0  0  0  0  0
  -20.7660  -28.0510   22.9660 C   0  0  0  0  0  3  0  0  0  0  0  0
  -20.9350  -26.6460   22.3420 C   0  0  0  0  0  2  0  0  0  0  0  0
  -19.8430  -26.3040   21.3230 C   0  0  0  0  0  2  0  0  0  0  0  0
  -18.4610  -26.3570   21.9800 C   0  0  0  0  0  2  0  0  0  0  0  0
  -19.3050  -28.4750   23.1500 C   0  0  0  0  0  0  0  0  0  0  0  0
  -19.0280  -29.7060   23.7850 C   0  0  0  0  0  3  0  0  0  0  0  0
  -17.7020  -30.1340   23.9780 C   0  0  0  0  0  3  0  0  0  0  0  0
  -16.6350  -29.3290   23.5460 C   0  0  0  0  0  3  0  0  0  0  0  0
  -16.8950  -28.1010   22.9120 C   0  0  0  0  0  3  0  0  0  0  0  0
  -25.8350  -32.4710   23.7390 C   0  0  0  0  0  3  0  0  0  0  0  0
  -25.4600  -33.8460   24.0980 N   0  0  0  0  0  0  0  0  0  0  0  0
  -25.7430  -34.9300   23.3620 C   0  0  0  0  0  0  0  0  0  0  0  0
  -26.4200  -34.8800   22.3320 O   0  0  0  0  0  0  0  0  0  0  0  0
  -24.8530  -33.9550   24.8980 H   0  0  0  0  0  0  0  0  0  0  0  0
  -23.9330  -36.6490   23.0420 C   0  0  0  0  0  1  0  0  0  0  0  0
  -25.1910  -36.2850   23.8470 C   0  0  0  0  0  3  0  0  0  0  0  0
  -27.2810  -37.2500   24.7020 C   0  0  0  0  0  1  0  0  0  0  0  0
  -26.1730  -37.3880   23.7600 N   0  0  0  0  0  0  0  0  0  0  0  0
  -25.7250  -38.2840   23.9290 H   0  0  0  0  0  0  0  0  0  0  0  0
  -26.3880  -31.6990   25.0010 C   0  0  1  0  0  0  0  0  0  0  0  0
  -25.3070  -31.3880   26.0630 C   0  0  0  0  0  1  0  0  0  0  0  0
  -27.0410  -30.3600   24.5830 C   0  0  0  0  0  1  0  0  0  0  0  0
  -27.5020  -32.5340   25.6770 C   0  0  0  0  0  1  0  0  0  0  0  0
  1 49  1  0
  1  6  1  0
  1 48  1  0
  2  3  1  0
  4  5  2  0
  4  6  1  0
  5  7  1  0
  6  2  2  0
  7 18  1  0
  7  3  2  0
  8  5  1  0
  9 18  1  0
 10 15  1  0
 11 12  1  0
 11 10  1  0
 13 12  1  0
 13 22  1  0
 13 14  1  0
 15  9  1  0
 15 14  1  0
 16  9  2  0
 18 17  1  0
 19 20  2  0
 20 39  1  0
 21 20  1  0
 21 24  1  0
 22 23  1  0
 22 19  1  0
 23 21  2  0
 24 25  1  0
 25 26  2  0
 27 30  1  0
 27 26  1  0
 28 27  2  0
 29 28  1  0
 29 24  2  0
 30 31  1  0
 31 36  2  0
 31 32  1  0
 32 33  2  0
 33 34  1  0
 34 38  1  0
 35 34  2  0
 36 35  1  0
 37 36  1  0
 39 40  1  0
 40 43  1  0
 40 42  1  0
 41 39  2  0
 44 19  1  0
 44 45  1  0
 46 44  1  0
 48 47  1  0
 50 49  1  0
 50 51  1  0
 52 54  1  0
 52 51  1  0
 53 64  2  0
 54 59  1  0
 55 63  1  0
 55 65  1  0
 56 62  1  0
 56 58  1  0
 57 63  1  0
 58 57  1  0
 59 58  2  0
 60 61  1  0
 60 54  2  0
 61 56  2  0
 62 55  1  0
 63 53  1  0
 65 67  2  0
 66 65  1  0
 68 66  1  0
 69 78  2  0
 69 74  1  0
 70 66  1  0
 70 74  1  0
 71 70  1  0
 72 73  1  0
 72 71  1  0
 73 69  1  0
 74 75  2  0
 75 76  1  0
 77 76  2  0
 78 77  1  0
 79 53  1  0
 79 80  1  0
 79 89  1  0
 80 83  1  0
 81 85  1  0
 81 80  1  0
 82 81  2  0
 85 84  1  0
 87 85  1  0
 87 88  1  0
 87 86  1  0
 89 92  1  1
 89 90  1  0
 91 89  1  0
M  ISO  4   9 100  18 100  51 101  52 101
M  END
>  <TORSDO>  (46) 
F 21

>  <SCORE>  (46) 
-11.690

>  <name>  (46) 
45

>  <ligand_id>  (46) 
45

>  <original_smiles>  (46) 
[H]c1c([H])c([H])c2c(c1[H])C([H])([H])C([H])([H])C([H])([H])C2([H])N([H])C(=O)C1([H])N(C(=O)C([H])(N([H])C(=O)C([H])(N([H])C([H])([H])[H])C([H])([H])[H])C(C([H])([H])[H])(C([H])([H])[H])C([H])([H])[H])C([H])([H])c2c([H])c(OC([H])([H])C([H])([H])C([H])([H])N(c3c([H])c([H])c(N(C(=O)N4C([H])([H])C([H])([H])C([H])([H])C([H])(n5nc(-c6c([H])c([H])c(Oc7c([H])c([H])c(F)c([H])c7F)c([H])c6[H])c(C(=O)N([H])[H])c5N([H])[H])C4([H])[H])C([H])([H])[H])c(C([H])([H])[H])c3[H])C([H])([H])C([H])([H])[H])c([H])c([H])c2C1([H])[H]

>  <smiles>  (46) 
[H]c1c([H])c([H])c2c(c1[H])C([H])([H])C([H])([H])C([H])([H])C2([H])N([H])C(=O)C1([H])N(C(=O)C([H])(N([H])C(=O)C([H])(N([H])C([H])([H])[H])C([H])([H])[H])C(C([H])([H])[H])(C([H])([H])[H])C([H])([H])[H])C([H])([H])c2c([H])c(OC([H])([H])C([H])([H])C([H])([H])N(c3c([H])c([H])c(N(C(=O)N4C([H])([H])C([H])([H])C([H])([H])C([H])(n5nc(-c6c([H])c([H])c(Oc7c([H])c([H])c(F)c([H])c7F)c([H])c6[H])c(C(=O)N([H])[H])c5N([H])[H])C4([H])[H])C([H])([H])[H])c(C([H])([H])[H])c3[H])C([H])([H])C([H])([H])[H])c([H])c([H])c2C1([H])[H]

$$$$
46:0:0
     RDKit          3D

 92100  0  0  1  0  0  0  0  0999 V2000
  -28.5990  -21.0890   20.5920 C   0  0  0  0  0  2  0  0  0  0  0  0
  -30.8060  -19.9850   21.3490 C   0  0  0  0  0  3  0  0  0  0  0  0
  -31.6520  -18.8930   21.6240 C   0  0  0  0  0  3  0  0  0  0  0  0
  -29.2300  -18.4420   20.3320 C   0  0  0  0  0  3  0  0  0  0  0  0
  -29.5710  -19.8170   20.6890 C   0  0  0  0  0  0  0  0  0  0  0  0
  -30.0800  -17.2890   20.6150 C   0  0  0  0  0  0  0  0  0  0  0  0
  -31.2970  -17.5720   21.2880 C   0  0  0  0  0  0  0  0  0  0  0  0
  -32.1180  -16.5770   21.6960 F   0  0  0  0  0  0  0  0  0  0  0  0
  -30.4640  -14.7590   20.0420 C   0  0  0  0  0  0  0  0  0  0  0  0
  -30.1810  -12.5390   18.9260 C   0  0  0  0  0  2  0  0  0  0  0  0
  -29.1650  -12.6720   17.7720 C   0  0  0  0  0  2  0  0  0  0  0  0
  -27.7250  -12.4820   18.2900 C   0  0  0  0  0  2  0  0  0  0  0  0
  -27.4380  -13.3120   19.5710 C   0  0  0  0  0  3  0  0  0  0  0  0
  -28.5670  -13.1670   20.6140 C   0  0  0  0  0  2  0  0  0  0  0  0
  -29.8220  -13.5450   19.9520 N   0  0  0  0  0  0  0  0  0  0  0  0
  -31.6160  -14.8660   19.6140 O   0  0  0  0  0  0  0  0  0  0  0  0
  -29.6990  -15.8760   20.3580 N   0  0  0  0  0  0  0  0  0  0  0  0
  -28.7160  -15.6780   20.4600 H   0  0  0  0  0  0  0  0  0  0  0  0
  -25.0940  -13.8680   20.4540 C   0  0  0  0  0  0  0  0  0  0  0  0
  -24.0590  -13.0770   20.8710 C   0  0  0  0  0  0  0  0  0  0  0  0
  -24.5300  -11.7300   20.7830 C   0  0  0  0  0  0  0  0  0  0  0  0
  -26.1280  -13.0030   20.1360 N   0  0  0  0  0  0  0  0  0  0  0  0
  -25.7990  -11.7100   20.3970 N   0  0  0  0  0  0  0  0  0  0  0  0
  -23.8250  -10.4580   20.9880 C   0  0  0  0  0  0  0  0  0  0  0  0
  -24.3000   -9.4890   21.8990 C   0  0  0  0  0  3  0  0  0  0  0  0
  -23.5940   -8.2820   22.0920 C   0  0  0  0  0  3  0  0  0  0  0  0
  -22.3990   -8.0350   21.3750 C   0  0  0  0  0  0  0  0  0  0  0  0
  -21.9440   -8.9930   20.4510 C   0  0  0  0  0  3  0  0  0  0  0  0
  -22.6510  -10.1910   20.2560 C   0  0  0  0  0  3  0  0  0  0  0  0
  -21.6620   -6.8810   21.4790 O   0  0  0  0  0  0  0  0  0  0  0  0
  -21.6460   -6.1390   22.6330 C   0  0  0  0  0  0  0  0  0  0  0  0
  -21.2390   -6.6900   23.8680 C   0  0  0  0  0  3  0  0  0  0  0  0
  -21.1710   -5.8740   25.0150 C   0  0  0  0  0  3  0  0  0  0  0  0
  -21.4980   -4.5070   24.9280 C   0  0  0  0  0  0  0  0  0  0  0  0
  -21.8980   -3.9560   23.6980 C   0  0  0  0  0  3  0  0  0  0  0  0
  -21.9680   -4.7690   22.5530 C   0  0  0  0  0  0  0  0  0  0  0  0
  -22.3330   -4.2280   21.3660 F   0  0  0  0  0  0  0  0  0  0  0  0
  -21.4240   -3.7210   26.0270 F   0  0  0  0  0  0  0  0  0  0  0  0
  -22.6760  -13.5350   21.2350 C   0  0  0  0  0  0  0  0  0  0  0  0
  -22.0060  -12.8150   22.1250 N   0  0  0  0  0  0  0  0  0  0  0  0
  -22.2030  -14.5690   20.7640 O   0  0  0  0  0  0  0  0  0  0  0  0
  -22.4030  -11.9780   22.5260 H   0  0  0  0  0  0  0  0  0  0  0  0
  -21.0800  -13.1020   22.4100 H   0  0  0  0  0  0  0  0  0  0  0  0
  -25.2360  -15.2440   20.2960 N   0  0  0  0  0  0  0  0  0  0  0  0
  -24.4640  -15.8810   20.4610 H   0  0  0  0  0  0  0  0  0  0  0  0
  -26.0380  -15.6970   19.8810 H   0  0  0  0  0  0  0  0  0  0  0  0
  -30.3720  -22.5110   19.4520 C   0  0  0  0  0  1  0  0  0  0  0  0
  -28.9610  -22.4240   19.8950 N   0  0  2  0  0  4  0  0  0  0  0  0
  -28.4470  -22.3450   19.0290 H   0  0  0  0  0  0  0  0  0  0  0  0
  -28.4600  -23.7480   20.5360 C   0  0  0  0  0  3  0  0  0  0  0  0
  -28.4040  -25.1010   19.6410 C   0  0  0  0  0  3  0  0  0  0  0  0
  -28.2990  -26.4710   20.2460 O   0  0  0  0  0  0  0  0  0  0  0  0
  -24.5830  -31.9100   23.2370 C   0  0  0  0  0  0  0  0  0  0  0  0
  -27.1650  -27.3100   20.1730 C   0  0  0  0  0  0  0  0  0  0  0  0
  -23.3720  -30.5160   21.5990 C   0  0  0  0  0  3  0  0  0  0  0  0
  -24.8100  -28.9560   20.1690 C   0  0  0  0  0  0  0  0  0  0  0  0
  -25.9140  -30.8150   21.4140 C   0  0  0  0  0  2  0  0  0  0  0  0
  -25.9830  -29.4340   20.7640 C   0  0  0  0  0  0  0  0  0  0  0  0
  -27.1600  -28.6220   20.7560 C   0  0  0  0  0  3  0  0  0  0  0  0
  -25.9620  -26.8870   19.5650 C   0  0  0  0  0  3  0  0  0  0  0  0
  -24.8040  -27.6900   19.5620 C   0  0  0  0  0  3  0  0  0  0  0  0
  -23.5800  -29.8400   20.2180 C   0  0  0  0  0  2  0  0  0  0  0  0
  -24.6420  -31.0990   22.1400 N   0  0  0  0  0  0  0  0  0  0  0  0
  -23.5000  -32.1920   23.7730 O   0  0  0  0  0  0  0  0  0  0  0  0
  -22.7050  -29.5030   22.5610 C   0  0  0  0  0  0  0  0  0  0  0  0
  -21.3770  -29.3340   22.4390 N   0  0  0  0  0  0  0  0  0  0  0  0
  -23.3820  -28.8720   23.3770 O   0  0  0  0  0  0  0  0  0  0  0  0
  -20.8890  -29.8940   21.7540 H   0  0  0  0  0  0  0  0  0  0  0  0
  -17.9930  -28.1600   22.9550 C   0  0  0  0  0  0  0  0  0  0  0  0
  -20.5550  -28.4000   23.2120 C   0  0  0  0  0  3  0  0  0  0  0  0
  -20.6440  -26.9690   22.6340 C   0  0  0  0  0  2  0  0  0  0  0  0
  -19.5350  -26.6570   21.6240 C   0  0  0  0  0  2  0  0  0  0  0  0
  -18.1580  -26.8100   22.2740 C   0  0  0  0  0  2  0  0  0  0  0  0
  -19.1200  -28.9120   23.3810 C   0  0  0  0  0  0  0  0  0  0  0  0
  -18.9120  -30.1750   23.9760 C   0  0  0  0  0  3  0  0  0  0  0  0
  -17.6120  -30.6850   24.1500 C   0  0  0  0  0  3  0  0  0  0  0  0
  -16.5000  -29.9290   23.7400 C   0  0  0  0  0  3  0  0  0  0  0  0
  -16.6920  -28.6680   23.1480 C   0  0  0  0  0  3  0  0  0  0  0  0
  -25.8680  -32.5390   23.8580 C   0  0  0  0  0  3  0  0  0  0  0  0
  -26.3790  -31.7700   25.1380 C   0  0  1  0  0  0  0  0  0  0  0  0
  -25.2840  -31.5430   26.2070 C   0  0  0  0  0  1  0  0  0  0  0  0
  -26.9550  -30.3880   24.7530 C   0  0  0  0  0  1  0  0  0  0  0  0
  -27.5330  -32.5620   25.7980 C   0  0  0  0  0  1  0  0  0  0  0  0
  -25.5630  -33.9390   24.1860 N   0  0  0  0  0  0  0  0  0  0  0  0
  -25.9020  -34.9910   23.4270 C   0  0  0  0  0  0  0  0  0  0  0  0
  -26.5700  -34.8840   22.3950 O   0  0  0  0  0  0  0  0  0  0  0  0
  -24.9720  -34.0980   24.9880 H   0  0  0  0  0  0  0  0  0  0  0  0
  -24.1850  -36.7960   23.0700 C   0  0  0  0  0  1  0  0  0  0  0  0
  -25.4220  -36.3830   23.8840 C   0  0  0  0  0  3  0  0  0  0  0  0
  -27.5600  -37.2550   24.7200 C   0  0  0  0  0  1  0  0  0  0  0  0
  -26.4610  -37.4300   23.7730 N   0  0  0  0  0  0  0  0  0  0  0  0
  -26.0610  -38.3520   23.9190 H   0  0  0  0  0  0  0  0  0  0  0  0
  1  5  1  0
  2  3  1  0
  4  6  2  0
  4  5  1  0
  5  2  2  0
  6  7  1  0
  7  3  2  0
  7  8  1  0
  9 17  1  0
 10 15  1  0
 11 12  1  0
 11 10  1  0
 13 12  1  0
 13 22  1  0
 13 14  1  0
 15  9  1  0
 15 14  1  0
 16  9  2  0
 17 18  1  0
 17  6  1  0
 19 20  2  0
 20 39  1  0
 21 20  1  0
 21 24  1  0
 22 23  1  0
 22 19  1  0
 23 21  2  0
 24 25  1  0
 25 26  2  0
 27 30  1  0
 27 26  1  0
 28 27  2  0
 29 28  1  0
 29 24  2  0
 30 31  1  0
 31 32  1  0
 32 33  2  0
 34 33  1  0
 34 38  1  0
 35 34  2  0
 36 31  2  0
 36 35  1  0
 37 36  1  0
 39 40  1  0
 40 43  1  0
 40 42  1  0
 41 39  2  0
 44 19  1  0
 44 45  1  0
 46 44  1  0
 47 48  1  0
 48 50  1  0
 48  1  1  0
 48 49  1  6
 51 52  1  0
 51 50  2  0
 53 64  2  0
 54 52  1  0
 54 59  1  0
 55 63  1  0
 55 65  1  0
 56 62  1  0
 56 58  1  0
 57 63  1  0
 58 57  1  0
 59 58  2  0
 60 54  2  0
 61 60  1  0
 61 56  2  0
 62 55  1  0
 63 53  1  0
 65 67  2  0
 66 65  1  0
 68 66  1  0
 69 78  2  0
 69 74  1  0
 70 66  1  0
 70 74  1  0
 71 70  1  0
 72 73  1  0
 72 71  1  0
 73 69  1  0
 74 75  2  0
 75 76  1  0
 77 76  2  0
 78 77  1  0
 79 53  1  0
 79 84  1  0
 79 80  1  0
 80 83  1  1
 80 81  1  0
 82 80  1  0
 84 87  1  0
 85 89  1  0
 85 84  1  0
 86 85  2  0
 89 88  1  0
 91 89  1  0
 91 92  1  0
 91 90  1  0
M  ISO  4   9 100  17 100  51 101  52 101
M  END
>  <TORSDO>  (47) 
F 20

>  <SCORE>  (47) 
-13.699

>  <name>  (47) 
46

>  <ligand_id>  (47) 
46

>  <original_smiles>  (47) 
[H]c1c([H])c([H])c2c(c1[H])C([H])([H])C([H])([H])C([H])([H])C2([H])N([H])C(=O)C1([H])N(C(=O)C([H])(N([H])C(=O)C([H])(N([H])C([H])([H])[H])C([H])([H])[H])C(C([H])([H])[H])(C([H])([H])[H])C([H])([H])[H])C([H])([H])c2c([H])c(OC([H])([H])C([H])([H])[N+]([H])(C([H])([H])[H])C([H])([H])c3c([H])c([H])c(F)c(N([H])C(=O)N4C([H])([H])C([H])([H])C([H])([H])C([H])(n5nc(-c6c([H])c([H])c(Oc7c([H])c([H])c(F)c([H])c7F)c([H])c6[H])c(C(=O)N([H])[H])c5N([H])[H])C4([H])[H])c3[H])c([H])c([H])c2C1([H])[H]

>  <smiles>  (47) 
[H]c1c([H])c([H])c2c(c1[H])C([H])([H])C([H])([H])C([H])([H])C2([H])N([H])C(=O)C1([H])N(C(=O)C([H])(N([H])C(=O)C([H])(N([H])C([H])([H])[H])C([H])([H])[H])C(C([H])([H])[H])(C([H])([H])[H])C([H])([H])[H])C([H])([H])c2c([H])c(OC([H])([H])C([H])([H])[N+]([H])(C([H])([H])[H])C([H])([H])c3c([H])c([H])c(F)c(N([H])C(=O)N4C([H])([H])C([H])([H])C([H])([H])C([H])(n5nc(-c6c([H])c([H])c(Oc7c([H])c([H])c(F)c([H])c7F)c([H])c6[H])c(C(=O)N([H])[H])c5N([H])[H])C4([H])[H])c3[H])c([H])c([H])c2C1([H])[H]

$$$$
47:0:0
     RDKit          3D

 98107  0  0  1  0  0  0  0  0999 V2000
  -30.0360  -21.7880   23.1450 C   0  0  0  0  0  2  0  0  0  0  0  0
  -30.5820  -25.5960   23.1610 C   0  0  0  0  0  2  0  0  0  0  0  0
  -29.3230  -26.0000   22.3860 C   0  0  0  0  0  2  0  0  0  0  0  0
  -30.4720  -24.1490   23.6730 C   0  0  0  0  0  2  0  0  0  0  0  0
  -29.0820  -23.5740   21.6780 C   0  0  0  0  0  2  0  0  0  0  0  0
  -29.1410  -25.0580   21.1860 C   0  0  0  0  0  3  0  0  0  0  0  0
  -30.2050  -23.1660   22.5850 N   0  0  2  0  0  4  0  0  0  0  0  0
  -31.0510  -23.1280   22.0370 H   0  0  0  0  0  0  0  0  0  0  0  0
  -27.8920  -25.4250   20.3380 C   0  0  0  0  0  2  0  0  0  0  0  0
  -28.0020  -26.6460   19.5710 O   0  0  0  0  0  0  0  0  0  0  0  0
  -24.3650  -31.7180   22.9660 C   0  0  0  0  0  0  0  0  0  0  0  0
  -26.8510  -27.4110   19.5870 C   0  0  0  0  0  0  0  0  0  0  0  0
  -23.0710  -30.3510   21.3630 C   0  0  0  0  0  3  0  0  0  0  0  0
  -24.4450  -28.8910   19.7850 C   0  0  0  0  0  0  0  0  0  0  0  0
  -25.5720  -30.7570   21.0080 C   0  0  0  0  0  2  0  0  0  0  0  0
  -25.6330  -29.4120   20.3150 C   0  0  0  0  0  0  0  0  0  0  0  0
  -26.8400  -28.6780   20.2100 C   0  0  0  0  0  3  0  0  0  0  0  0
  -25.6470  -26.9150   19.0320 C   0  0  0  0  0  3  0  0  0  0  0  0
  -24.4480  -27.6450   19.1360 C   0  0  0  0  0  3  0  0  0  0  0  0
  -23.1940  -29.7270   19.9470 C   0  0  0  0  0  2  0  0  0  0  0  0
  -24.3580  -30.9530   21.8380 N   0  0  0  0  0  0  0  0  0  0  0  0
  -23.3190  -31.9520   23.5880 O   0  0  0  0  0  0  0  0  0  0  0  0
  -22.5030  -29.2880   22.3290 C   0  0  0  0  0  0  0  0  0  0  0  0
  -21.1890  -29.0260   22.2240 N   0  0  0  0  0  0  0  0  0  0  0  0
  -23.2360  -28.7030   23.1300 O   0  0  0  0  0  0  0  0  0  0  0  0
  -20.6540  -29.5430   21.5380 H   0  0  0  0  0  0  0  0  0  0  0  0
  -17.9350  -27.5330   22.6790 C   0  0  0  0  0  0  0  0  0  0  0  0
  -20.4470  -28.0400   23.0100 C   0  0  0  0  0  3  0  0  0  0  0  0
  -20.7030  -26.6080   22.4870 C   0  0  0  0  0  2  0  0  0  0  0  0
  -19.6670  -26.1510   21.4570 C   0  0  0  0  0  2  0  0  0  0  0  0
  -18.2570  -26.1860   22.0560 C   0  0  0  0  0  2  0  0  0  0  0  0
  -18.9630  -28.4090   23.1140 C   0  0  0  0  0  0  0  0  0  0  0  0
  -18.6090  -29.6640   23.6550 C   0  0  0  0  0  3  0  0  0  0  0  0
  -17.2580  -30.0430   23.7700 C   0  0  0  0  0  3  0  0  0  0  0  0
  -16.2420  -29.1640   23.3590 C   0  0  0  0  0  3  0  0  0  0  0  0
  -16.5820  -27.9110   22.8150 C   0  0  0  0  0  3  0  0  0  0  0  0
  -25.6830  -32.3490   23.5140 C   0  0  0  0  0  3  0  0  0  0  0  0
  -25.3750  -33.7290   23.9130 N   0  0  0  0  0  0  0  0  0  0  0  0
  -25.7780  -34.8190   23.2490 C   0  0  0  0  0  0  0  0  0  0  0  0
  -26.5150  -34.7640   22.2610 O   0  0  0  0  0  0  0  0  0  0  0  0
  -24.7180  -33.8450   24.6700 H   0  0  0  0  0  0  0  0  0  0  0  0
  -24.1390  -36.6870   22.8670 C   0  0  0  0  0  1  0  0  0  0  0  0
  -25.2850  -36.1850   23.7600 C   0  0  0  0  0  3  0  0  0  0  0  0
  -27.3520  -36.9320   24.8530 C   0  0  0  0  0  1  0  0  0  0  0  0
  -26.3500  -37.2090   23.8260 N   0  0  0  0  0  0  0  0  0  0  0  0
  -25.9560  -38.1280   24.0100 H   0  0  0  0  0  0  0  0  0  0  0  0
  -26.2980  -31.5430   24.7220 C   0  0  1  0  0  0  0  0  0  0  0  0
  -25.2850  -31.2460   25.8500 C   0  0  0  0  0  1  0  0  0  0  0  0
  -26.8790  -30.1940   24.2390 C   0  0  0  0  0  1  0  0  0  0  0  0
  -27.4730  -32.3390   25.3350 C   0  0  0  0  0  1  0  0  0  0  0  0
  -31.0840  -18.2970   21.9160 C   0  0  0  0  0  3  0  0  0  0  0  0
  -30.3840  -19.3360   22.5600 C   0  0  0  0  0  3  0  0  0  0  0  0
  -32.6150  -19.9270   20.9560 C   0  0  0  0  0  3  0  0  0  0  0  0
  -32.1840  -18.5870   21.0840 C   0  0  0  0  0  0  0  0  0  0  0  0
  -30.7840  -20.6840   22.3970 C   0  0  0  0  0  0  0  0  0  0  0  0
  -31.9180  -20.9680   21.6010 C   0  0  0  0  0  0  0  0  0  0  0  0
  -32.3280  -22.2480   21.4330 F   0  0  0  0  0  0  0  0  0  0  0  0
  -32.8930  -17.4760   20.3110 C   0  0  0  0  0  2  0  0  0  0  0  0
  -32.5650  -15.4310   19.0630 C   0  0  0  0  0  0  0  0  0  0  0  0
  -32.0800  -13.0630   18.5550 C   0  0  0  0  0  2  0  0  0  0  0  0
  -31.0480  -12.9670   17.4170 C   0  0  0  0  0  2  0  0  0  0  0  0
  -29.6120  -12.9790   17.9750 C   0  0  0  0  0  2  0  0  0  0  0  0
  -29.3790  -14.1130   19.0090 C   0  0  0  0  0  3  0  0  0  0  0  0
  -30.5420  -14.2270   20.0280 C   0  0  0  0  0  2  0  0  0  0  0  0
  -31.8130  -14.3120   19.2880 N   0  0  0  0  0  0  0  0  0  0  0  0
  -33.6460  -15.3920   18.4680 O   0  0  0  0  0  0  0  0  0  0  0  0
  -32.0530  -16.6260   19.4320 N   0  0  0  0  0  0  0  0  0  0  0  0
  -27.2530  -15.0190   20.1230 C   0  0  0  0  0  0  0  0  0  0  0  0
  -26.1190  -14.3950   20.5730 C   0  0  0  0  0  0  0  0  0  0  0  0
  -26.3280  -13.0000   20.3580 C   0  0  0  0  0  0  0  0  0  0  0  0
  -28.0820  -14.0070   19.6640 N   0  0  0  0  0  0  0  0  0  0  0  0
  -27.5400  -12.7820   19.8630 N   0  0  0  0  0  0  0  0  0  0  0  0
  -25.4200  -11.8610   20.5410 C   0  0  0  0  0  0  0  0  0  0  0  0
  -25.7540  -10.7960   21.4060 C   0  0  0  0  0  3  0  0  0  0  0  0
  -24.8640   -9.7150   21.5810 C   0  0  0  0  0  3  0  0  0  0  0  0
  -23.6270   -9.6960   20.8930 C   0  0  0  0  0  0  0  0  0  0  0  0
  -23.3110  -10.7480   20.0150 C   0  0  0  0  0  3  0  0  0  0  0  0
  -24.2000  -11.8220   19.8380 C   0  0  0  0  0  3  0  0  0  0  0  0
  -22.7100   -8.6770   20.9810 O   0  0  0  0  0  0  0  0  0  0  0  0
  -22.4720   -8.0240   22.1640 C   0  0  0  0  0  0  0  0  0  0  0  0
  -22.0230   -8.7050   23.3170 C   0  0  0  0  0  3  0  0  0  0  0  0
  -21.7220   -7.9800   24.4880 C   0  0  0  0  0  3  0  0  0  0  0  0
  -21.8600   -6.5790   24.5070 C   0  0  0  0  0  0  0  0  0  0  0  0
  -22.3030   -5.9010   23.3590 C   0  0  0  0  0  3  0  0  0  0  0  0
  -22.6060   -6.6210   22.1890 C   0  0  0  0  0  0  0  0  0  0  0  0
  -23.0090   -5.9590   21.0780 F   0  0  0  0  0  0  0  0  0  0  0  0
  -21.5660   -5.8830   25.6310 F   0  0  0  0  0  0  0  0  0  0  0  0
  -24.8760  -15.0610   21.0820 C   0  0  0  0  0  0  0  0  0  0  0  0
  -24.1700  -14.4150   22.0050 N   0  0  0  0  0  0  0  0  0  0  0  0
  -24.5470  -16.1810   20.6960 O   0  0  0  0  0  0  0  0  0  0  0  0
  -24.4560  -13.5110   22.3480 H   0  0  0  0  0  0  0  0  0  0  0  0
  -23.3300  -14.8350   22.3730 H   0  0  0  0  0  0  0  0  0  0  0  0
  -27.6280  -16.3550   20.0450 N   0  0  0  0  0  0  0  0  0  0  0  0
  -27.0080  -17.1070   20.3240 H   0  0  0  0  0  0  0  0  0  0  0  0
  -28.4910  -16.6920   19.6380 H   0  0  0  0  0  0  0  0  0  0  0  0
  -31.1340  -17.2850   18.4740 C   0  0  0  0  0  2  0  0  0  0  0  0
  -30.8050  -18.2840   16.1610 C   0  0  0  0  0  1  0  0  0  0  0  0
  -31.7960  -18.0660   17.3150 C   0  0  0  0  0  2  0  0  0  0  0  0
  2  4  1  0
  3  2  1  0
  5  7  1  0
  6  9  1  0
  6  5  1  0
  6  3  1  0
  7  1  1  0
  7  4  1  0
  7  8  1  6
 10 12  1  0
 10  9  1  0
 11 22  2  0
 12 17  1  0
 13 21  1  0
 13 23  1  0
 14 20  1  0
 14 16  1  0
 15 21  1  0
 16 15  1  0
 17 16  2  0
 18 19  1  0
 18 12  2  0
 19 14  2  0
 20 13  1  0
 21 11  1  0
 23 25  2  0
 24 23  1  0
 26 24  1  0
 27 36  2  0
 27 32  1  0
 28 24  1  0
 28 32  1  0
 29 28  1  0
 30 31  1  0
 30 29  1  0
 31 27  1  0
 32 33  2  0
 33 34  1  0
 35 34  2  0
 36 35  1  0
 37 11  1  0
 37 38  1  0
 37 47  1  0
 38 41  1  0
 39 43  1  0
 39 38  1  0
 40 39  2  0
 43 42  1  0
 43 45  1  0
 45 46  1  0
 45 44  1  0
 47 50  1  1
 47 48  1  0
 49 47  1  0
 51 52  1  0
 53 54  1  0
 53 56  2  0
 54 51  2  0
 55 52  2  0
 55  1  1  0
 56 55  1  0
 57 56  1  0
 58 54  1  0
 59 65  1  0
 59 67  1  0
 60 65  1  0
 61 62  1  0
 61 60  1  0
 63 62  1  0
 63 71  1  0
 63 64  1  0
 65 64  1  0
 66 59  2  0
 67 58  1  0
 68 69  2  0
 69 88  1  0
 70 73  1  0
 70 69  1  0
 71 72  1  0
 71 68  1  0
 72 70  2  0
 73 74  1  0
 74 75  2  0
 76 79  1  0
 76 75  1  0
 77 76  2  0
 78 77  1  0
 78 73  2  0
 79 80  1  0
 80 85  2  0
 80 81  1  0
 81 82  2  0
 82 83  1  0
 83 87  1  0
 84 83  2  0
 85 84  1  0
 86 85  1  0
 88 89  1  0
 89 91  1  0
 89 92  1  0
 90 88  2  0
 93 68  1  0
 93 94  1  0
 95 93  1  0
 96 67  1  0
 97 98  1  0
 98 96  1  0
M  ISO  4   9 101  10 101  59 100  67 100
M  END
>  <TORSDO>  (48) 
F 22

>  <SCORE>  (48) 
-7.667

>  <name>  (48) 
47

>  <ligand_id>  (48) 
47

>  <original_smiles>  (48) 
[H]c1c([H])c([H])c2c(c1[H])C([H])([H])C([H])([H])C([H])([H])C2([H])N([H])C(=O)C1([H])N(C(=O)C([H])(N([H])C(=O)C([H])(N([H])C([H])([H])[H])C([H])([H])[H])C(C([H])([H])[H])(C([H])([H])[H])C([H])([H])[H])C([H])([H])c2c([H])c(OC([H])([H])C3([H])C([H])([H])C([H])([H])C([H])([H])[N+]([H])(C([H])([H])c4c([H])c([H])c(C([H])([H])N(C(=O)N5C([H])([H])C([H])([H])C([H])([H])C([H])(n6nc(-c7c([H])c([H])c(Oc8c([H])c([H])c(F)c([H])c8F)c([H])c7[H])c(C(=O)N([H])[H])c6N([H])[H])C5([H])[H])C([H])([H])C([H])([H])C([H])([H])[H])c([H])c4F)C3([H])[H])c([H])c([H])c2C1([H])[H]

>  <smiles>  (48) 
[H]c1c([H])c([H])c2c(c1[H])C([H])([H])C([H])([H])C([H])([H])C2([H])N([H])C(=O)C1([H])N(C(=O)C([H])(N([H])C(=O)C([H])(N([H])C([H])([H])[H])C([H])([H])[H])C(C([H])([H])[H])(C([H])([H])[H])C([H])([H])[H])C([H])([H])c2c([H])c(OC([H])([H])C3([H])C([H])([H])C([H])([H])C([H])([H])[N+]([H])(C([H])([H])c4c([H])c([H])c(C([H])([H])N(C(=O)N5C([H])([H])C([H])([H])C([H])([H])C([H])(n6nc(-c7c([H])c([H])c(Oc8c([H])c([H])c(F)c([H])c8F)c([H])c7[H])c(C(=O)N([H])[H])c6N([H])[H])C5([H])[H])C([H])([H])C([H])([H])C([H])([H])[H])c([H])c4F)C3([H])[H])c([H])c([H])c2C1([H])[H]

$$$$
48:0:0
     RDKit          3D

 87 95  0  0  1  0  0  0  0  0999 V2000
  -29.1620  -21.3200   21.2240 C   0  0  0  0  0  3  0  0  0  0  0  0
  -29.5080  -19.8210   21.2250 C   0  0  0  0  0  3  0  0  0  0  0  0
  -28.7390  -19.6470   19.1540 C   0  0  0  0  0  3  0  0  0  0  0  0
  -28.5580  -22.1990   20.1760 C   0  0  0  0  0  0  0  0  0  0  0  0
  -29.3490  -18.7600   20.1840 C   0  0  0  0  0  0  0  0  0  0  0  0
  -28.3970  -21.1370   19.1390 C   0  0  0  0  0  0  0  0  0  0  0  0
  -27.7890  -21.5550   18.0020 F   0  0  0  0  0  0  0  0  0  0  0  0
  -30.2680  -15.7300   20.1340 C   0  0  0  0  0  0  0  0  0  0  0  0
  -30.3760  -13.1970   19.2960 C   0  0  0  0  0  2  0  0  0  0  0  0
  -29.4510  -12.8100   18.1070 C   0  0  0  0  0  2  0  0  0  0  0  0
  -28.0400  -12.4500   18.5980 C   0  0  0  0  0  2  0  0  0  0  0  0
  -27.5550  -13.4350   19.6850 C   0  0  0  0  0  3  0  0  0  0  0  0
  -28.6170  -13.7300   20.7710 C   0  0  0  0  0  2  0  0  0  0  0  0
  -29.7690  -14.3580   20.0860 N   0  0  0  0  0  0  0  0  0  0  0  0
  -31.4940  -15.7090   19.9180 O   0  0  0  0  0  0  0  0  0  0  0  0
  -29.4350  -17.0380   20.2320 N   0  0  0  0  0  0  0  0  0  0  0  0
  -28.4900  -16.6940   20.3130 H   0  0  0  0  0  0  0  0  0  0  0  0
  -25.2170  -13.9370   20.5420 C   0  0  0  0  0  0  0  0  0  0  0  0
  -24.1740  -13.1430   20.9250 C   0  0  0  0  0  0  0  0  0  0  0  0
  -24.6500  -11.7980   20.8420 C   0  0  0  0  0  0  0  0  0  0  0  0
  -26.2560  -13.0800   20.2400 N   0  0  0  0  0  0  0  0  0  0  0  0
  -25.9320  -11.7820   20.4870 N   0  0  0  0  0  0  0  0  0  0  0  0
  -23.9340  -10.5270   21.0200 C   0  0  0  0  0  0  0  0  0  0  0  0
  -24.3650   -9.5580   21.9530 C   0  0  0  0  0  3  0  0  0  0  0  0
  -23.6440   -8.3570   22.1220 C   0  0  0  0  0  3  0  0  0  0  0  0
  -22.4780   -8.1140   21.3580 C   0  0  0  0  0  0  0  0  0  0  0  0
  -22.0660   -9.0700   20.4140 C   0  0  0  0  0  3  0  0  0  0  0  0
  -22.7870  -10.2640   20.2440 C   0  0  0  0  0  3  0  0  0  0  0  0
  -21.7300   -6.9630   21.4370 O   0  0  0  0  0  0  0  0  0  0  0  0
  -21.6350   -6.2440   22.6020 C   0  0  0  0  0  0  0  0  0  0  0  0
  -21.1110   -6.8090   23.7850 C   0  0  0  0  0  3  0  0  0  0  0  0
  -20.9660   -6.0150   24.9400 C   0  0  0  0  0  3  0  0  0  0  0  0
  -21.3340   -4.6570   24.9120 C   0  0  0  0  0  0  0  0  0  0  0  0
  -21.8510   -4.0910   23.7330 C   0  0  0  0  0  3  0  0  0  0  0  0
  -21.9970   -4.8830   22.5810 C   0  0  0  0  0  0  0  0  0  0  0  0
  -22.4750   -4.3270   21.4410 F   0  0  0  0  0  0  0  0  0  0  0  0
  -21.1880   -3.8920   26.0200 F   0  0  0  0  0  0  0  0  0  0  0  0
  -22.7830  -13.6050   21.2450 C   0  0  0  0  0  0  0  0  0  0  0  0
  -22.0840  -12.8860   22.1150 N   0  0  0  0  0  0  0  0  0  0  0  0
  -22.3280  -14.6400   20.7600 O   0  0  0  0  0  0  0  0  0  0  0  0
  -22.4680  -12.0500   22.5290 H   0  0  0  0  0  0  0  0  0  0  0  0
  -21.1510  -13.1780   22.3730 H   0  0  0  0  0  0  0  0  0  0  0  0
  -25.3610  -15.3140   20.3930 N   0  0  0  0  0  0  0  0  0  0  0  0
  -24.5850  -15.9520   20.5360 H   0  0  0  0  0  0  0  0  0  0  0  0
  -26.1730  -15.7660   19.9940 H   0  0  0  0  0  0  0  0  0  0  0  0
  -27.7900  -23.9050   20.1710 C   0  0  0  0  0  2  0  0  0  0  0  0
  -28.1100  -25.6200   20.3060 O   0  0  0  0  0  0  0  0  0  0  0  0
  -24.6500  -31.9140   23.2530 C   0  0  0  0  0  0  0  0  0  0  0  0
  -27.1510  -26.8400   20.2560 C   0  0  0  0  0  0  0  0  0  0  0  0
  -23.4500  -30.5180   21.6240 C   0  0  0  0  0  3  0  0  0  0  0  0
  -24.8860  -28.8680   20.2060 C   0  0  0  0  0  0  0  0  0  0  0  0
  -26.0280  -30.6580   21.4890 C   0  0  0  0  0  2  0  0  0  0  0  0
  -26.0860  -29.2260   20.8330 C   0  0  0  0  0  0  0  0  0  0  0  0
  -27.2040  -28.2400   20.8250 C   0  0  0  0  0  3  0  0  0  0  0  0
  -25.9170  -26.6910   19.5740 C   0  0  0  0  0  3  0  0  0  0  0  0
  -24.8400  -27.6260   19.5530 C   0  0  0  0  0  3  0  0  0  0  0  0
  -23.6810  -29.8200   20.2540 C   0  0  0  0  0  2  0  0  0  0  0  0
  -24.7330  -31.0630   22.1740 N   0  0  0  0  0  0  0  0  0  0  0  0
  -23.5600  -32.2180   23.7680 O   0  0  0  0  0  0  0  0  0  0  0  0
  -22.7350  -29.5440   22.5990 C   0  0  0  0  0  0  0  0  0  0  0  0
  -21.4050  -29.3780   22.4670 N   0  0  0  0  0  0  0  0  0  0  0  0
  -23.3910  -28.9340   23.4470 O   0  0  0  0  0  0  0  0  0  0  0  0
  -20.9260  -29.9210   21.7620 H   0  0  0  0  0  0  0  0  0  0  0  0
  -18.0260  -28.1370   22.9630 C   0  0  0  0  0  0  0  0  0  0  0  0
  -20.5810  -28.4430   23.2440 C   0  0  0  0  0  3  0  0  0  0  0  0
  -20.7040  -27.0030   22.6930 C   0  0  0  0  0  2  0  0  0  0  0  0
  -19.6170  -26.6520   21.6730 C   0  0  0  0  0  2  0  0  0  0  0  0
  -18.2270  -26.7840   22.3020 C   0  0  0  0  0  2  0  0  0  0  0  0
  -19.1290  -28.9220   23.3910 C   0  0  0  0  0  0  0  0  0  0  0  0
  -18.8830  -30.1850   23.9750 C   0  0  0  0  0  3  0  0  0  0  0  0
  -17.5690  -30.6620   24.1300 C   0  0  0  0  0  3  0  0  0  0  0  0
  -16.4800  -29.8760   23.7150 C   0  0  0  0  0  3  0  0  0  0  0  0
  -16.7100  -28.6140   23.1380 C   0  0  0  0  0  3  0  0  0  0  0  0
  -25.9190  -32.5610   23.8870 C   0  0  0  0  0  3  0  0  0  0  0  0
  -25.6040  -33.9650   24.2180 N   0  0  0  0  0  0  0  0  0  0  0  0
  -25.9100  -35.0260   23.4570 C   0  0  0  0  0  0  0  0  0  0  0  0
  -26.5460  -34.9250   22.4060 O   0  0  0  0  0  0  0  0  0  0  0  0
  -25.0320  -34.1160   25.0350 H   0  0  0  0  0  0  0  0  0  0  0  0
  -24.1590  -36.8190   23.1920 C   0  0  0  0  0  1  0  0  0  0  0  0
  -25.4430  -36.4170   23.9360 C   0  0  0  0  0  3  0  0  0  0  0  0
  -27.6070  -37.3270   24.6600 C   0  0  0  0  0  1  0  0  0  0  0  0
  -26.4630  -37.4760   23.7650 N   0  0  0  0  0  0  0  0  0  0  0  0
  -26.0570  -38.3950   23.9190 H   0  0  0  0  0  0  0  0  0  0  0  0
  -26.4160  -31.8060   25.1830 C   0  0  1  0  0  0  0  0  0  0  0  0
  -25.3090  -31.5910   26.2420 C   0  0  0  0  0  1  0  0  0  0  0  0
  -26.9960  -30.4190   24.8290 C   0  0  0  0  0  1  0  0  0  0  0  0
  -27.5630  -32.6040   25.8460 C   0  0  0  0  0  1  0  0  0  0  0  0
  1  2  1  0
  3  5  1  0
  4  1  2  0
  5 16  1  0
  5  2  2  0
  6  3  2  0
  6  4  1  0
  7  6  1  0
  8 16  1  0
  9 14  1  0
 10 11  1  0
 10  9  1  0
 12 11  1  0
 12 21  1  0
 12 13  1  0
 14  8  1  0
 14 13  1  0
 15  8  2  0
 16 17  1  0
 18 19  2  0
 19 38  1  0
 20 19  1  0
 20 23  1  0
 21 22  1  0
 21 18  1  0
 22 20  2  0
 23 24  1  0
 24 25  2  0
 26 29  1  0
 26 25  1  0
 27 26  2  0
 28 27  1  0
 28 23  2  0
 29 30  1  0
 30 31  1  0
 31 32  2  0
 33 32  1  0
 33 37  1  0
 34 33  2  0
 35 30  2  0
 35 34  1  0
 36 35  1  0
 38 39  1  0
 39 42  1  0
 39 41  1  0
 40 38  2  0
 43 44  1  0
 43 18  1  0
 45 43  1  0
 46  4  1  0
 46 47  1  0
 48 59  2  0
 49 47  1  0
 49 54  1  0
 50 58  1  0
 50 60  1  0
 51 57  1  0
 51 53  1  0
 52 58  1  0
 53 52  1  0
 54 53  2  0
 55 49  2  0
 56 55  1  0
 56 51  2  0
 57 50  1  0
 58 48  1  0
 60 62  2  0
 61 60  1  0
 63 61  1  0
 64 73  2  0
 64 69  1  0
 65 61  1  0
 65 69  1  0
 66 65  1  0
 67 68  1  0
 67 66  1  0
 68 64  1  0
 69 70  2  0
 70 71  1  0
 72 71  2  0
 73 72  1  0
 74 48  1  0
 74 75  1  0
 74 84  1  0
 75 78  1  0
 76 80  1  0
 76 75  1  0
 77 76  2  0
 80 79  1  0
 82 83  1  0
 82 80  1  0
 82 81  1  0
 84 87  1  1
 84 85  1  0
 86 84  1  0
M  ISO  4   8 100  16 100  46 101  47 101
M  END
>  <TORSDO>  (49) 
F 17

>  <SCORE>  (49) 
-16.539

>  <name>  (49) 
48

>  <ligand_id>  (49) 
48

>  <original_smiles>  (49) 
[H]c1c([H])c([H])c2c(c1[H])C([H])([H])C([H])([H])C([H])([H])C2([H])N([H])C(=O)C1([H])N(C(=O)C([H])(N([H])C(=O)C([H])(N([H])C([H])([H])[H])C([H])([H])[H])C(C([H])([H])[H])(C([H])([H])[H])C([H])([H])[H])C([H])([H])c2c([H])c(OC([H])([H])c3c([H])c([H])c(N([H])C(=O)N4C([H])([H])C([H])([H])C([H])([H])C([H])(n5nc(-c6c([H])c([H])c(Oc7c([H])c([H])c(F)c([H])c7F)c([H])c6[H])c(C(=O)N([H])[H])c5N([H])[H])C4([H])[H])c([H])c3F)c([H])c([H])c2C1([H])[H]

>  <smiles>  (49) 
[H]c1c([H])c([H])c2c(c1[H])C([H])([H])C([H])([H])C([H])([H])C2([H])N([H])C(=O)C1([H])N(C(=O)C([H])(N([H])C(=O)C([H])(N([H])C([H])([H])[H])C([H])([H])[H])C(C([H])([H])[H])(C([H])([H])[H])C([H])([H])[H])C([H])([H])c2c([H])c(OC([H])([H])c3c([H])c([H])c(N([H])C(=O)N4C([H])([H])C([H])([H])C([H])([H])C([H])(n5nc(-c6c([H])c([H])c(Oc7c([H])c([H])c(F)c([H])c7F)c([H])c6[H])c(C(=O)N([H])[H])c5N([H])[H])C4([H])[H])c([H])c3F)c([H])c([H])c2C1([H])[H]

$$$$
49:0:0
     RDKit          3D

 89 97  0  0  1  0  0  0  0  0999 V2000
  -28.9620  -22.6550   21.6780 C   0  0  0  0  0  3  0  0  0  0  0  0
  -29.4050  -21.4580   22.3100 C   0  0  0  0  0  3  0  0  0  0  0  0
  -28.6690  -22.7410   20.3010 C   0  0  0  0  0  0  0  0  0  0  0  0
  -29.4200  -20.0110   20.2790 C   0  0  0  0  0  0  0  0  0  0  0  0
  -29.6220  -20.2080   21.6630 C   0  0  0  0  0  0  0  0  0  0  0  0
  -28.9260  -21.3490   19.6450 C   0  0  0  0  0  0  0  0  0  0  0  0
  -30.0660  -19.1690   22.4100 F   0  0  0  0  0  0  0  0  0  0  0  0
  -28.6770  -21.2900   18.3150 F   0  0  0  0  0  0  0  0  0  0  0  0
  -29.8870  -18.4320   19.6190 C   0  0  0  0  0  2  0  0  0  0  0  0
  -30.5670  -15.5170   19.8620 C   0  0  0  0  0  0  0  0  0  0  0  0
  -30.5330  -13.0570   18.9910 C   0  0  0  0  0  2  0  0  0  0  0  0
  -29.5570  -12.8350   17.8060 C   0  0  0  0  0  2  0  0  0  0  0  0
  -28.1370  -12.5400   18.3190 C   0  0  0  0  0  2  0  0  0  0  0  0
  -27.7340  -13.4910   19.4730 C   0  0  0  0  0  3  0  0  0  0  0  0
  -28.8360  -13.6550   20.5430 C   0  0  0  0  0  2  0  0  0  0  0  0
  -30.0220  -14.1930   19.8560 N   0  0  0  0  0  0  0  0  0  0  0  0
  -31.7560  -15.5220   19.5080 O   0  0  0  0  0  0  0  0  0  0  0  0
  -29.8090  -16.7950   20.0630 N   0  0  0  0  0  0  0  0  0  0  0  0
  -28.8920  -16.5790   20.4260 H   0  0  0  0  0  0  0  0  0  0  0  0
  -25.4130  -14.0170   20.3760 C   0  0  0  0  0  0  0  0  0  0  0  0
  -24.3750  -13.2280   20.7840 C   0  0  0  0  0  0  0  0  0  0  0  0
  -24.8400  -11.8800   20.6890 C   0  0  0  0  0  0  0  0  0  0  0  0
  -26.4390  -13.1530   20.0480 N   0  0  0  0  0  0  0  0  0  0  0  0
  -26.1120  -11.8590   20.3030 N   0  0  0  0  0  0  0  0  0  0  0  0
  -24.1250  -10.6120   20.8830 C   0  0  0  0  0  0  0  0  0  0  0  0
  -24.5340   -9.6710   21.8540 C   0  0  0  0  0  3  0  0  0  0  0  0
  -23.8150   -8.4700   22.0360 C   0  0  0  0  0  3  0  0  0  0  0  0
  -22.6720   -8.2010   21.2480 C   0  0  0  0  0  0  0  0  0  0  0  0
  -22.2810   -9.1290   20.2670 C   0  0  0  0  0  3  0  0  0  0  0  0
  -23.0010  -10.3220   20.0830 C   0  0  0  0  0  3  0  0  0  0  0  0
  -21.9270   -7.0490   21.3370 O   0  0  0  0  0  0  0  0  0  0  0  0
  -21.7460   -6.4000   22.5320 C   0  0  0  0  0  0  0  0  0  0  0  0
  -21.1390   -7.0320   23.6390 C   0  0  0  0  0  3  0  0  0  0  0  0
  -20.9090   -6.3070   24.8250 C   0  0  0  0  0  3  0  0  0  0  0  0
  -21.2760   -4.9510   24.9040 C   0  0  0  0  0  0  0  0  0  0  0  0
  -21.8760   -4.3180   23.8010 C   0  0  0  0  0  3  0  0  0  0  0  0
  -22.1060   -5.0400   22.6170 C   0  0  0  0  0  0  0  0  0  0  0  0
  -22.6650   -4.4190   21.5510 F   0  0  0  0  0  0  0  0  0  0  0  0
  -21.0490   -4.2510   26.0400 F   0  0  0  0  0  0  0  0  0  0  0  0
  -22.9940  -13.6940   21.1440 C   0  0  0  0  0  0  0  0  0  0  0  0
  -22.3210  -12.9840   22.0410 N   0  0  0  0  0  0  0  0  0  0  0  0
  -22.5250  -14.7260   20.6640 O   0  0  0  0  0  0  0  0  0  0  0  0
  -22.7150  -12.1500   22.4490 H   0  0  0  0  0  0  0  0  0  0  0  0
  -21.3980  -13.2800   22.3250 H   0  0  0  0  0  0  0  0  0  0  0  0
  -25.5610  -15.3940   20.2260 N   0  0  0  0  0  0  0  0  0  0  0  0
  -24.7940  -16.0370   20.3880 H   0  0  0  0  0  0  0  0  0  0  0  0
  -26.3700  -15.8400   19.8140 H   0  0  0  0  0  0  0  0  0  0  0  0
  -27.9490  -24.2610   19.7420 C   0  0  0  0  0  2  0  0  0  0  0  0
  -28.0970  -25.8740   20.1570 O   0  0  0  0  0  0  0  0  0  0  0  0
  -24.5610  -31.8810   23.1380 C   0  0  0  0  0  0  0  0  0  0  0  0
  -27.0990  -26.9980   20.0600 C   0  0  0  0  0  0  0  0  0  0  0  0
  -23.3510  -30.4790   21.5190 C   0  0  0  0  0  3  0  0  0  0  0  0
  -24.7880  -28.8880   20.0600 C   0  0  0  0  0  0  0  0  0  0  0  0
  -25.9150  -30.7010   21.3300 C   0  0  0  0  0  2  0  0  0  0  0  0
  -25.9830  -29.2910   20.6670 C   0  0  0  0  0  0  0  0  0  0  0  0
  -27.1270  -28.3650   20.6470 C   0  0  0  0  0  3  0  0  0  0  0  0
  -25.8760  -26.7670   19.3880 C   0  0  0  0  0  3  0  0  0  0  0  0
  -24.7620  -27.6500   19.3980 C   0  0  0  0  0  3  0  0  0  0  0  0
  -23.5620  -29.8020   20.1360 C   0  0  0  0  0  2  0  0  0  0  0  0
  -24.6320  -31.0500   22.0480 N   0  0  0  0  0  0  0  0  0  0  0  0
  -23.4790  -32.1600   23.6800 O   0  0  0  0  0  0  0  0  0  0  0  0
  -22.6820  -29.4760   22.4960 C   0  0  0  0  0  0  0  0  0  0  0  0
  -21.3580  -29.2670   22.3680 N   0  0  0  0  0  0  0  0  0  0  0  0
  -23.3620  -28.8880   23.3410 O   0  0  0  0  0  0  0  0  0  0  0  0
  -20.8600  -29.7950   21.6650 H   0  0  0  0  0  0  0  0  0  0  0  0
  -18.0270  -27.9020   22.8340 C   0  0  0  0  0  0  0  0  0  0  0  0
  -20.5630  -28.3130   23.1500 C   0  0  0  0  0  3  0  0  0  0  0  0
  -20.7540  -26.8700   22.6280 C   0  0  0  0  0  2  0  0  0  0  0  0
  -19.6970  -26.4570   21.5980 C   0  0  0  0  0  2  0  0  0  0  0  0
  -18.2930  -26.5450   22.2030 C   0  0  0  0  0  2  0  0  0  0  0  0
  -19.0930  -28.7380   23.2650 C   0  0  0  0  0  0  0  0  0  0  0  0
  -18.7880  -30.0010   23.8180 C   0  0  0  0  0  3  0  0  0  0  0  0
  -17.4540  -30.4310   23.9430 C   0  0  0  0  0  3  0  0  0  0  0  0
  -16.4030  -29.5940   23.5270 C   0  0  0  0  0  3  0  0  0  0  0  0
  -16.6910  -28.3310   22.9790 C   0  0  0  0  0  3  0  0  0  0  0  0
  -25.8380  -32.5370   23.7490 C   0  0  0  0  0  3  0  0  0  0  0  0
  -25.5050  -33.9260   24.1170 N   0  0  0  0  0  0  0  0  0  0  0  0
  -25.8110  -35.0080   23.3900 C   0  0  0  0  0  0  0  0  0  0  0  0
  -26.4670  -34.9450   22.3460 O   0  0  0  0  0  0  0  0  0  0  0  0
  -24.9210  -34.0470   24.9310 H   0  0  0  0  0  0  0  0  0  0  0  0
  -24.0650  -36.8020   23.1130 C   0  0  0  0  0  1  0  0  0  0  0  0
  -25.3170  -36.3790   23.8980 C   0  0  0  0  0  3  0  0  0  0  0  0
  -27.4470  -37.2640   24.7430 C   0  0  0  0  0  1  0  0  0  0  0  0
  -26.3400  -37.4460   23.8080 N   0  0  0  0  0  0  0  0  0  0  0  0
  -25.9250  -38.3570   23.9810 H   0  0  0  0  0  0  0  0  0  0  0  0
  -26.3880  -31.7620   25.0110 C   0  0  1  0  0  0  0  0  0  0  0  0
  -25.3120  -31.4820   26.0880 C   0  0  0  0  0  1  0  0  0  0  0  0
  -27.0020  -30.4050   24.6030 C   0  0  0  0  0  1  0  0  0  0  0  0
  -27.5250  -32.5770   25.6720 C   0  0  0  0  0  1  0  0  0  0  0  0
  1  2  1  0
  3  1  2  0
  4  5  1  0
  5  2  2  0
  5  7  1  0
  6  4  2  0
  6  3  1  0
  8  6  1  0
  9 18  1  0
  9  4  1  0
 10 18  1  0
 11 16  1  0
 12 13  1  0
 12 11  1  0
 14 13  1  0
 14 23  1  0
 14 15  1  0
 16 10  1  0
 16 15  1  0
 17 10  2  0
 18 19  1  0
 20 21  2  0
 21 40  1  0
 22 21  1  0
 22 25  1  0
 23 24  1  0
 23 20  1  0
 24 22  2  0
 25 26  1  0
 26 27  2  0
 28 31  1  0
 28 27  1  0
 29 28  2  0
 30 29  1  0
 30 25  2  0
 31 32  1  0
 32 37  2  0
 32 33  1  0
 33 34  2  0
 34 35  1  0
 35 39  1  0
 36 35  2  0
 37 36  1  0
 38 37  1  0
 40 41  1  0
 41 44  1  0
 41 43  1  0
 42 40  2  0
 45 20  1  0
 45 46  1  0
 47 45  1  0
 48 49  1  0
 48  3  1  0
 50 61  2  0
 51 49  1  0
 51 56  1  0
 52 60  1  0
 52 62  1  0
 53 59  1  0
 53 55  1  0
 54 60  1  0
 55 54  1  0
 56 55  2  0
 57 58  1  0
 57 51  2  0
 58 53  2  0
 59 52  1  0
 60 50  1  0
 62 64  2  0
 63 62  1  0
 65 63  1  0
 66 75  2  0
 66 71  1  0
 67 63  1  0
 67 71  1  0
 68 67  1  0
 69 70  1  0
 69 68  1  0
 70 66  1  0
 71 72  2  0
 72 73  1  0
 74 73  2  0
 75 74  1  0
 76 50  1  0
 76 77  1  0
 76 86  1  0
 77 80  1  0
 78 82  1  0
 78 77  1  0
 79 78  2  0
 82 81  1  0
 84 82  1  0
 84 85  1  0
 84 83  1  0
 86 89  1  1
 86 87  1  0
 88 86  1  0
M  ISO  4  10 100  18 100  48 101  49 101
M  END
>  <TORSDO>  (50) 
F 18

>  <SCORE>  (50) 
-15.814

>  <name>  (50) 
49

>  <ligand_id>  (50) 
49

>  <original_smiles>  (50) 
[H]c1c([H])c([H])c2c(c1[H])C([H])([H])C([H])([H])C([H])([H])C2([H])N([H])C(=O)C1([H])N(C(=O)C([H])(N([H])C(=O)C([H])(N([H])C([H])([H])[H])C([H])([H])[H])C(C([H])([H])[H])(C([H])([H])[H])C([H])([H])[H])C([H])([H])c2c([H])c(OC([H])([H])c3c([H])c([H])c(F)c(C([H])([H])N([H])C(=O)N4C([H])([H])C([H])([H])C([H])([H])C([H])(n5nc(-c6c([H])c([H])c(Oc7c([H])c([H])c(F)c([H])c7F)c([H])c6[H])c(C(=O)N([H])[H])c5N([H])[H])C4([H])[H])c3F)c([H])c([H])c2C1([H])[H]

>  <smiles>  (50) 
[H]c1c([H])c([H])c2c(c1[H])C([H])([H])C([H])([H])C([H])([H])C2([H])N([H])C(=O)C1([H])N(C(=O)C([H])(N([H])C(=O)C([H])(N([H])C([H])([H])[H])C([H])([H])[H])C(C([H])([H])[H])(C([H])([H])[H])C([H])([H])[H])C([H])([H])c2c([H])c(OC([H])([H])c3c([H])c([H])c(F)c(C([H])([H])N([H])C(=O)N4C([H])([H])C([H])([H])C([H])([H])C([H])(n5nc(-c6c([H])c([H])c(Oc7c([H])c([H])c(F)c([H])c7F)c([H])c6[H])c(C(=O)N([H])[H])c5N([H])[H])C4([H])[H])c3F)c([H])c([H])c2C1([H])[H]

$$$$
50:0:0
     RDKit          3D

 93101  0  0  1  0  0  0  0  0999 V2000
  -30.3250  -22.2760   20.9300 C   0  0  0  0  0  2  0  0  0  0  0  0
  -29.0450  -20.0710   21.1470 C   0  0  0  0  0  3  0  0  0  0  0  0
  -28.9210  -18.6830   20.9260 C   0  0  0  0  0  3  0  0  0  0  0  0
  -31.1950  -20.0470   20.0210 C   0  0  0  0  0  3  0  0  0  0  0  0
  -30.1800  -20.7690   20.6870 C   0  0  0  0  0  0  0  0  0  0  0  0
  -29.9220  -17.9570   20.2400 C   0  0  0  0  0  0  0  0  0  0  0  0
  -31.0720  -18.6570   19.7870 C   0  0  0  0  0  0  0  0  0  0  0  0
  -32.1940  -17.9580   19.0420 C   0  0  0  0  0  1  0  0  0  0  0  0
  -29.6870  -16.4570   19.9630 C   0  0  0  0  0  2  0  0  0  0  0  0
  -31.0640  -14.4320   19.9610 C   0  0  0  0  0  0  0  0  0  0  0  0
  -30.5840  -12.2670   18.8740 C   0  0  0  0  0  2  0  0  0  0  0  0
  -29.6020  -12.4570   17.7010 C   0  0  0  0  0  2  0  0  0  0  0  0
  -28.1430  -12.3970   18.1960 C   0  0  0  0  0  2  0  0  0  0  0  0
  -27.8940  -13.3010   19.4310 C   0  0  0  0  0  3  0  0  0  0  0  0
  -28.9850  -13.0930   20.5060 C   0  0  0  0  0  2  0  0  0  0  0  0
  -30.2980  -13.3090   19.8720 N   0  0  0  0  0  0  0  0  0  0  0  0
  -32.1640  -14.5270   19.4130 O   0  0  0  0  0  0  0  0  0  0  0  0
  -31.2790  -15.9800   21.8210 C   0  0  0  0  0  1  0  0  0  0  0  0
  -30.5480  -15.4740   20.6570 N   0  0  0  0  0  0  0  0  0  0  0  0
  -25.5720  -14.0460   20.2530 C   0  0  0  0  0  0  0  0  0  0  0  0
  -24.4800  -13.3370   20.6730 C   0  0  0  0  0  0  0  0  0  0  0  0
  -24.8590  -11.9610   20.6220 C   0  0  0  0  0  0  0  0  0  0  0  0
  -26.5520  -13.1060   19.9750 N   0  0  0  0  0  0  0  0  0  0  0  0
  -26.1300  -11.8470   20.2550 N   0  0  0  0  0  0  0  0  0  0  0  0
  -24.0700  -10.7440   20.8460 C   0  0  0  0  0  0  0  0  0  0  0  0
  -24.4780   -9.7600   21.7740 C   0  0  0  0  0  3  0  0  0  0  0  0
  -23.6940   -8.6060   21.9860 C   0  0  0  0  0  3  0  0  0  0  0  0
  -22.4870   -8.4280   21.2700 C   0  0  0  0  0  0  0  0  0  0  0  0
  -22.0980   -9.3980   20.3290 C   0  0  0  0  0  3  0  0  0  0  0  0
  -22.8830  -10.5440   20.1150 C   0  0  0  0  0  3  0  0  0  0  0  0
  -21.6730   -7.3280   21.3900 O   0  0  0  0  0  0  0  0  0  0  0  0
  -21.6010   -6.6120   22.5590 C   0  0  0  0  0  0  0  0  0  0  0  0
  -21.2300   -7.2130   23.7810 C   0  0  0  0  0  3  0  0  0  0  0  0
  -21.1020   -6.4250   24.9420 C   0  0  0  0  0  3  0  0  0  0  0  0
  -21.3330   -5.0390   24.8820 C   0  0  0  0  0  0  0  0  0  0  0  0
  -21.6960   -4.4370   23.6660 C   0  0  0  0  0  3  0  0  0  0  0  0
  -21.8270   -5.2220   22.5060 C   0  0  0  0  0  0  0  0  0  0  0  0
  -22.1570   -4.6330   21.3310 F   0  0  0  0  0  0  0  0  0  0  0  0
  -21.2040   -4.2800   25.9960 F   0  0  0  0  0  0  0  0  0  0  0  0
  -23.1260  -13.8940   21.0080 C   0  0  0  0  0  0  0  0  0  0  0  0
  -22.4100  -13.2540   21.9260 N   0  0  0  0  0  0  0  0  0  0  0  0
  -22.7150  -14.9330   20.4920 O   0  0  0  0  0  0  0  0  0  0  0  0
  -22.7550  -12.4140   22.3670 H   0  0  0  0  0  0  0  0  0  0  0  0
  -21.5020  -13.6080   22.1910 H   0  0  0  0  0  0  0  0  0  0  0  0
  -25.8030  -15.4060   20.0610 N   0  0  0  0  0  0  0  0  0  0  0  0
  -25.0710  -16.0950   20.1980 H   0  0  0  0  0  0  0  0  0  0  0  0
  -26.6440  -15.7970   19.6600 H   0  0  0  0  0  0  0  0  0  0  0  0
  -29.9970  -22.8720   18.5470 C   0  0  0  0  0  1  0  0  0  0  0  0
  -29.5850  -23.1260   19.9510 N   0  0  2  0  0  4  0  0  0  0  0  0
  -28.6250  -22.8260   20.0270 H   0  0  0  0  0  0  0  0  0  0  0  0
  -29.6120  -24.5830   20.2970 C   0  0  0  0  0  2  0  0  0  0  0  0
  -28.3510  -25.3380   19.8220 C   0  0  0  0  0  2  0  0  0  0  0  0
  -28.4220  -26.7430   20.1160 O   0  0  0  0  0  0  0  0  0  0  0  0
  -24.5970  -31.8970   23.1890 C   0  0  0  0  0  0  0  0  0  0  0  0
  -27.2390  -27.4580   20.0940 C   0  0  0  0  0  0  0  0  0  0  0  0
  -23.3860  -30.4880   21.5580 C   0  0  0  0  0  3  0  0  0  0  0  0
  -24.8340  -28.9590   20.1240 C   0  0  0  0  0  0  0  0  0  0  0  0
  -25.9080  -30.8570   21.3390 C   0  0  0  0  0  2  0  0  0  0  0  0
  -25.9940  -29.4860   20.7010 C   0  0  0  0  0  0  0  0  0  0  0  0
  -27.1990  -28.7440   20.6810 C   0  0  0  0  0  3  0  0  0  0  0  0
  -26.0520  -26.9500   19.5060 C   0  0  0  0  0  3  0  0  0  0  0  0
  -24.8570  -27.6890   19.5250 C   0  0  0  0  0  3  0  0  0  0  0  0
  -23.5870  -29.8110   20.1780 C   0  0  0  0  0  2  0  0  0  0  0  0
  -24.6490  -31.0940   22.0880 N   0  0  0  0  0  0  0  0  0  0  0  0
  -23.5190  -32.1630   23.7360 O   0  0  0  0  0  0  0  0  0  0  0  0
  -22.7470  -29.4630   22.5230 C   0  0  0  0  0  0  0  0  0  0  0  0
  -21.4220  -29.2780   22.4090 N   0  0  0  0  0  0  0  0  0  0  0  0
  -23.4410  -28.8370   23.3290 O   0  0  0  0  0  0  0  0  0  0  0  0
  -20.9240  -29.8340   21.7290 H   0  0  0  0  0  0  0  0  0  0  0  0
  -18.0530  -28.0900   22.9490 C   0  0  0  0  0  0  0  0  0  0  0  0
  -20.6150  -28.3370   23.1870 C   0  0  0  0  0  3  0  0  0  0  0  0
  -20.7060  -26.9100   22.6000 C   0  0  0  0  0  2  0  0  0  0  0  0
  -19.5880  -26.5960   21.6010 C   0  0  0  0  0  2  0  0  0  0  0  0
  -18.2150  -26.7430   22.2660 C   0  0  0  0  0  2  0  0  0  0  0  0
  -19.1810  -28.8460   23.3680 C   0  0  0  0  0  0  0  0  0  0  0  0
  -18.9740  -30.1080   23.9670 C   0  0  0  0  0  3  0  0  0  0  0  0
  -17.6750  -30.6140   24.1530 C   0  0  0  0  0  3  0  0  0  0  0  0
  -16.5620  -29.8540   23.7510 C   0  0  0  0  0  3  0  0  0  0  0  0
  -16.7520  -28.5950   23.1560 C   0  0  0  0  0  3  0  0  0  0  0  0
  -25.8850  -32.5350   23.7970 C   0  0  0  0  0  3  0  0  0  0  0  0
  -25.5700  -33.9280   24.1370 N   0  0  0  0  0  0  0  0  0  0  0  0
  -25.8990  -34.9870   23.3840 C   0  0  0  0  0  0  0  0  0  0  0  0
  -26.5730  -34.8930   22.3550 O   0  0  0  0  0  0  0  0  0  0  0  0
  -24.9760  -34.0750   24.9400 H   0  0  0  0  0  0  0  0  0  0  0  0
  -24.1750  -36.7800   23.0210 C   0  0  0  0  0  1  0  0  0  0  0  0
  -25.4030  -36.3690   23.8500 C   0  0  0  0  0  3  0  0  0  0  0  0
  -27.5230  -37.2450   24.7250 C   0  0  0  0  0  1  0  0  0  0  0  0
  -26.4360  -37.4240   23.7660 N   0  0  0  0  0  0  0  0  0  0  0  0
  -26.0260  -38.3420   23.9200 H   0  0  0  0  0  0  0  0  0  0  0  0
  -26.4240  -31.7590   25.0610 C   0  0  1  0  0  0  0  0  0  0  0  0
  -25.3470  -31.5030   26.1400 C   0  0  0  0  0  1  0  0  0  0  0  0
  -27.0160  -30.3920   24.6490 C   0  0  0  0  0  1  0  0  0  0  0  0
  -27.5740  -32.5610   25.7160 C   0  0  0  0  0  1  0  0  0  0  0  0
  3  2  1  0
  4  5  1  0
  5  1  1  0
  5  2  2  0
  6  3  2  0
  7  4  2  0
  7  6  1  0
  8  7  1  0
  9  6  1  0
  9 19  1  0
 10 19  1  0
 11 16  1  0
 12 13  1  0
 12 11  1  0
 14 13  1  0
 14 23  1  0
 14 15  1  0
 16 10  1  0
 16 15  1  0
 17 10  2  0
 19 18  1  0
 20 21  2  0
 21 40  1  0
 22 21  1  0
 22 25  1  0
 23 20  1  0
 23 24  1  0
 24 22  2  0
 25 26  1  0
 26 27  2  0
 28 31  1  0
 28 27  1  0
 29 28  2  0
 30 29  1  0
 30 25  2  0
 31 32  1  0
 32 33  1  0
 33 34  2  0
 35 34  1  0
 35 39  1  0
 36 35  2  0
 37 32  2  0
 37 36  1  0
 38 37  1  0
 40 41  1  0
 41 44  1  0
 41 43  1  0
 42 40  2  0
 45 46  1  0
 45 20  1  0
 47 45  1  0
 48 49  1  0
 49 50  1  6
 49 51  1  0
 49  1  1  0
 52 53  1  0
 52 51  1  0
 54 65  2  0
 55 53  1  0
 55 60  1  0
 56 64  1  0
 56 66  1  0
 57 63  1  0
 57 59  1  0
 58 64  1  0
 59 58  1  0
 60 59  2  0
 61 62  1  0
 61 55  2  0
 62 57  2  0
 63 56  1  0
 64 54  1  0
 66 68  2  0
 67 66  1  0
 69 67  1  0
 70 79  2  0
 70 75  1  0
 71 67  1  0
 71 75  1  0
 72 71  1  0
 73 74  1  0
 73 72  1  0
 74 70  1  0
 75 76  2  0
 76 77  1  0
 78 77  2  0
 79 78  1  0
 80 54  1  0
 80 81  1  0
 80 90  1  0
 81 84  1  0
 82 86  1  0
 82 81  1  0
 83 82  2  0
 86 85  1  0
 88 86  1  0
 88 89  1  0
 88 87  1  0
 90 93  1  1
 90 91  1  0
 92 90  1  0
M  ISO  4  10 100  19 100  52 101  53 101
M  END
>  <TORSDO>  (51) 
F 21

>  <SCORE>  (51) 
-12.913

>  <name>  (51) 
50

>  <ligand_id>  (51) 
50

>  <original_smiles>  (51) 
[H]c1c([H])c([H])c2c(c1[H])C([H])([H])C([H])([H])C([H])([H])C2([H])N([H])C(=O)C1([H])N(C(=O)C([H])(N([H])C(=O)C([H])(N([H])C([H])([H])[H])C([H])([H])[H])C(C([H])([H])[H])(C([H])([H])[H])C([H])([H])[H])C([H])([H])c2c([H])c(OC([H])([H])C([H])([H])[N+]([H])(C([H])([H])[H])C([H])([H])c3c([H])c([H])c(C([H])([H])N(C(=O)N4C([H])([H])C([H])([H])C([H])([H])C([H])(n5nc(-c6c([H])c([H])c(Oc7c([H])c([H])c(F)c([H])c7F)c([H])c6[H])c(C(=O)N([H])[H])c5N([H])[H])C4([H])[H])C([H])([H])[H])c(C([H])([H])[H])c3[H])c([H])c([H])c2C1([H])[H]

>  <smiles>  (51) 
[H]c1c([H])c([H])c2c(c1[H])C([H])([H])C([H])([H])C([H])([H])C2([H])N([H])C(=O)C1([H])N(C(=O)C([H])(N([H])C(=O)C([H])(N([H])C([H])([H])[H])C([H])([H])[H])C(C([H])([H])[H])(C([H])([H])[H])C([H])([H])[H])C([H])([H])c2c([H])c(OC([H])([H])C([H])([H])[N+]([H])(C([H])([H])[H])C([H])([H])c3c([H])c([H])c(C([H])([H])N(C(=O)N4C([H])([H])C([H])([H])C([H])([H])C([H])(n5nc(-c6c([H])c([H])c(Oc7c([H])c([H])c(F)c([H])c7F)c([H])c6[H])c(C(=O)N([H])[H])c5N([H])[H])C4([H])[H])C([H])([H])[H])c(C([H])([H])[H])c3[H])c([H])c([H])c2C1([H])[H]

$$$$
51:0:0
     RDKit          3D

 87 95  0  0  1  0  0  0  0  0999 V2000
  -29.0920  -21.3730   17.9100 C   0  0  0  0  0  3  0  0  0  0  0  0
  -29.3320  -20.1280   18.5520 C   0  0  0  0  0  3  0  0  0  0  0  0
  -28.7730  -22.5860   18.5770 C   0  0  0  0  0  3  0  0  0  0  0  0
  -28.9130  -21.2910   20.6130 C   0  0  0  0  0  3  0  0  0  0  0  0
  -29.2980  -19.9320   19.9590 C   0  0  0  0  0  0  0  0  0  0  0  0
  -28.6330  -22.6810   19.9750 C   0  0  0  0  0  0  0  0  0  0  0  0
  -29.7460  -18.3160   20.5590 C   0  0  0  0  0  2  0  0  0  0  0  0
  -30.3890  -15.3670   20.2680 C   0  0  0  0  0  0  0  0  0  0  0  0
  -30.4040  -12.8920   19.4240 C   0  0  0  0  0  2  0  0  0  0  0  0
  -29.4760  -12.5950   18.2190 C   0  0  0  0  0  2  0  0  0  0  0  0
  -28.0460  -12.2740   18.6930 C   0  0  0  0  0  2  0  0  0  0  0  0
  -27.5670  -13.2670   19.7750 C   0  0  0  0  0  3  0  0  0  0  0  0
  -28.6230  -13.5240   20.8750 C   0  0  0  0  0  2  0  0  0  0  0  0
  -29.8240  -14.0520   20.1990 N   0  0  0  0  0  0  0  0  0  0  0  0
  -31.6280  -15.3310   20.2330 O   0  0  0  0  0  0  0  0  0  0  0  0
  -28.5140  -16.5550   19.1930 C   0  0  0  0  0  1  0  0  0  0  0  0
  -29.6190  -16.6660   20.1560 N   0  0  0  0  0  0  0  0  0  0  0  0
  -25.2060  -13.8270   20.5610 C   0  0  0  0  0  0  0  0  0  0  0  0
  -24.1490  -13.0460   20.9290 C   0  0  0  0  0  0  0  0  0  0  0  0
  -24.6240  -11.6990   20.8960 C   0  0  0  0  0  0  0  0  0  0  0  0
  -26.2520  -12.9540   20.3100 N   0  0  0  0  0  0  0  0  0  0  0  0
  -25.9150  -11.6690   20.5850 N   0  0  0  0  0  0  0  0  0  0  0  0
  -23.9070  -10.4350   21.0840 C   0  0  0  0  0  0  0  0  0  0  0  0
  -24.3530   -9.4630   22.0060 C   0  0  0  0  0  3  0  0  0  0  0  0
  -23.6270   -8.2650   22.1870 C   0  0  0  0  0  3  0  0  0  0  0  0
  -22.4470   -8.0330   21.4430 C   0  0  0  0  0  0  0  0  0  0  0  0
  -22.0200   -8.9940   20.5090 C   0  0  0  0  0  3  0  0  0  0  0  0
  -22.7450  -10.1840   20.3260 C   0  0  0  0  0  3  0  0  0  0  0  0
  -21.6920   -6.8890   21.5330 O   0  0  0  0  0  0  0  0  0  0  0  0
  -21.6650   -6.1340   22.6790 C   0  0  0  0  0  0  0  0  0  0  0  0
  -21.2670   -6.6770   23.9190 C   0  0  0  0  0  3  0  0  0  0  0  0
  -21.1850   -5.8500   25.0570 C   0  0  0  0  0  3  0  0  0  0  0  0
  -21.4960   -4.4800   24.9540 C   0  0  0  0  0  0  0  0  0  0  0  0
  -21.8900   -3.9370   23.7200 C   0  0  0  0  0  3  0  0  0  0  0  0
  -21.9720   -4.7620   22.5840 C   0  0  0  0  0  0  0  0  0  0  0  0
  -22.3300   -4.2280   21.3900 F   0  0  0  0  0  0  0  0  0  0  0  0
  -21.4120   -3.6840   26.0450 F   0  0  0  0  0  0  0  0  0  0  0  0
  -22.7490  -13.5190   21.1930 C   0  0  0  0  0  0  0  0  0  0  0  0
  -22.0200  -12.8240   22.0590 N   0  0  0  0  0  0  0  0  0  0  0  0
  -22.3110  -14.5430   20.6700 O   0  0  0  0  0  0  0  0  0  0  0  0
  -22.3870  -11.9980   22.5070 H   0  0  0  0  0  0  0  0  0  0  0  0
  -21.0830  -13.1270   22.2830 H   0  0  0  0  0  0  0  0  0  0  0  0
  -25.3480  -15.2000   20.3900 N   0  0  0  0  0  0  0  0  0  0  0  0
  -24.5740  -15.8420   20.5310 H   0  0  0  0  0  0  0  0  0  0  0  0
  -26.1950  -15.6620   20.0940 H   0  0  0  0  0  0  0  0  0  0  0  0
  -27.9850  -24.2070   20.5650 C   0  0  0  0  0  2  0  0  0  0  0  0
  -28.2180  -25.8080   20.2010 O   0  0  0  0  0  0  0  0  0  0  0  0
  -24.6440  -31.8290   23.1900 C   0  0  0  0  0  0  0  0  0  0  0  0
  -27.2020  -26.9090   20.2180 C   0  0  0  0  0  0  0  0  0  0  0  0
  -23.4530  -30.4170   21.5660 C   0  0  0  0  0  3  0  0  0  0  0  0
  -24.9010  -28.7970   20.1630 C   0  0  0  0  0  0  0  0  0  0  0  0
  -26.0200  -30.6250   21.4170 C   0  0  0  0  0  2  0  0  0  0  0  0
  -26.0930  -29.2060   20.7760 C   0  0  0  0  0  0  0  0  0  0  0  0
  -27.2400  -28.2850   20.7730 C   0  0  0  0  0  3  0  0  0  0  0  0
  -25.9760  -26.6550   19.5640 C   0  0  0  0  0  3  0  0  0  0  0  0
  -24.8680  -27.5410   19.5370 C   0  0  0  0  0  3  0  0  0  0  0  0
  -23.6860  -29.7240   20.1970 C   0  0  0  0  0  2  0  0  0  0  0  0
  -24.7280  -30.9850   22.1110 N   0  0  0  0  0  0  0  0  0  0  0  0
  -23.5540  -32.1220   23.7090 O   0  0  0  0  0  0  0  0  0  0  0  0
  -22.7580  -29.4280   22.5400 C   0  0  0  0  0  0  0  0  0  0  0  0
  -21.4260  -29.2700   22.4230 N   0  0  0  0  0  0  0  0  0  0  0  0
  -23.4260  -28.8030   23.3680 O   0  0  0  0  0  0  0  0  0  0  0  0
  -20.9390  -29.8260   21.7350 H   0  0  0  0  0  0  0  0  0  0  0  0
  -18.0420  -28.0710   22.9590 C   0  0  0  0  0  0  0  0  0  0  0  0
  -20.6040  -28.3370   23.2050 C   0  0  0  0  0  3  0  0  0  0  0  0
  -20.7000  -26.9010   22.6380 C   0  0  0  0  0  2  0  0  0  0  0  0
  -19.5920  -26.5740   21.6330 C   0  0  0  0  0  2  0  0  0  0  0  0
  -18.2150  -26.7210   22.2850 C   0  0  0  0  0  2  0  0  0  0  0  0
  -19.1640  -28.8370   23.3770 C   0  0  0  0  0  0  0  0  0  0  0  0
  -18.9460  -30.0980   23.9720 C   0  0  0  0  0  3  0  0  0  0  0  0
  -17.6410  -30.5960   24.1490 C   0  0  0  0  0  3  0  0  0  0  0  0
  -16.5350  -29.8290   23.7450 C   0  0  0  0  0  3  0  0  0  0  0  0
  -16.7370  -28.5680   23.1560 C   0  0  0  0  0  3  0  0  0  0  0  0
  -25.9130  -32.4810   23.8200 C   0  0  0  0  0  3  0  0  0  0  0  0
  -25.5890  -33.8790   24.1520 N   0  0  0  0  0  0  0  0  0  0  0  0
  -25.9160  -34.9420   23.4040 C   0  0  0  0  0  0  0  0  0  0  0  0
  -26.5830  -34.8470   22.3710 O   0  0  0  0  0  0  0  0  0  0  0  0
  -24.9960  -34.0270   24.9550 H   0  0  0  0  0  0  0  0  0  0  0  0
  -24.1820  -36.7390   23.0730 C   0  0  0  0  0  1  0  0  0  0  0  0
  -25.4280  -36.3290   23.8740 C   0  0  0  0  0  3  0  0  0  0  0  0
  -27.5650  -37.2170   24.6990 C   0  0  0  0  0  1  0  0  0  0  0  0
  -26.4580  -37.3850   23.7620 N   0  0  0  0  0  0  0  0  0  0  0  0
  -26.0500  -38.3040   23.9150 H   0  0  0  0  0  0  0  0  0  0  0  0
  -26.4240  -31.7230   25.1070 C   0  0  1  0  0  0  0  0  0  0  0  0
  -25.3270  -31.4970   26.1740 C   0  0  0  0  0  1  0  0  0  0  0  0
  -27.0100  -30.3410   24.7410 C   0  0  0  0  0  1  0  0  0  0  0  0
  -27.5720  -32.5250   25.7650 C   0  0  0  0  0  1  0  0  0  0  0  0
  1  2  2  0
  1  3  1  0
  2  5  1  0
  3  6  2  0
  5  7  1  0
  5  4  2  0
  6 46  1  0
  6  4  1  0
  9 14  1  0
 10 11  1  0
 10  9  1  0
 12 11  1  0
 12 21  1  0
 12 13  1  0
 14  8  1  0
 14 13  1  0
 15  8  2  0
 16 17  1  0
 17  8  1  0
 17  7  1  0
 18 19  2  0
 19 38  1  0
 20 19  1  0
 20 23  1  0
 21 18  1  0
 21 22  1  0
 22 20  2  0
 23 24  1  0
 24 25  2  0
 26 29  1  0
 26 25  1  0
 27 26  2  0
 28 27  1  0
 28 23  2  0
 29 30  1  0
 30 31  1  0
 31 32  2  0
 33 32  1  0
 33 37  1  0
 34 33  2  0
 35 30  2  0
 35 34  1  0
 36 35  1  0
 38 39  1  0
 39 42  1  0
 39 41  1  0
 40 38  2  0
 43 44  1  0
 43 18  1  0
 45 43  1  0
 47 49  1  0
 47 46  1  0
 48 59  2  0
 49 54  1  0
 50 58  1  0
 50 60  1  0
 51 57  1  0
 51 53  1  0
 52 58  1  0
 53 52  1  0
 54 53  2  0
 55 49  2  0
 56 55  1  0
 56 51  2  0
 57 50  1  0
 58 48  1  0
 60 62  2  0
 61 60  1  0
 63 61  1  0
 64 73  2  0
 64 69  1  0
 65 61  1  0
 65 69  1  0
 66 65  1  0
 67 68  1  0
 67 66  1  0
 68 64  1  0
 69 70  2  0
 70 71  1  0
 72 71  2  0
 73 72  1  0
 74 48  1  0
 74 75  1  0
 74 84  1  0
 75 78  1  0
 76 80  1  0
 76 75  1  0
 77 76  2  0
 80 79  1  0
 82 80  1  0
 82 83  1  0
 82 81  1  0
 84 87  1  1
 84 85  1  0
 86 84  1  0
M  ISO  4   8 100  17 100  46 101  47 101
M  END
>  <TORSDO>  (52) 
F 18

>  <SCORE>  (52) 
-16.617

>  <name>  (52) 
51

>  <ligand_id>  (52) 
51

>  <original_smiles>  (52) 
[H]c1c([H])c(C([H])([H])Oc2c([H])c([H])c3c(c2[H])C([H])([H])N(C(=O)C([H])(N([H])C(=O)C([H])(N([H])C([H])([H])[H])C([H])([H])[H])C(C([H])([H])[H])(C([H])([H])[H])C([H])([H])[H])C([H])(C(=O)N([H])C2([H])c4c([H])c([H])c([H])c([H])c4C([H])([H])C([H])([H])C2([H])[H])C3([H])[H])c([H])c(C([H])([H])N(C(=O)N2C([H])([H])C([H])([H])C([H])([H])C([H])(n3nc(-c4c([H])c([H])c(Oc5c([H])c([H])c(F)c([H])c5F)c([H])c4[H])c(C(=O)N([H])[H])c3N([H])[H])C2([H])[H])C([H])([H])[H])c1[H]

>  <smiles>  (52) 
[H]c1c([H])c(C([H])([H])Oc2c([H])c([H])c3c(c2[H])C([H])([H])N(C(=O)C([H])(N([H])C(=O)C([H])(N([H])C([H])([H])[H])C([H])([H])[H])C(C([H])([H])[H])(C([H])([H])[H])C([H])([H])[H])C([H])(C(=O)N([H])C2([H])c4c([H])c([H])c([H])c([H])c4C([H])([H])C([H])([H])C2([H])[H])C3([H])[H])c([H])c(C([H])([H])N(C(=O)N2C([H])([H])C([H])([H])C([H])([H])C([H])(n3nc(-c4c([H])c([H])c(Oc5c([H])c([H])c(F)c([H])c5F)c([H])c4[H])c(C(=O)N([H])[H])c3N([H])[H])C2([H])[H])C([H])([H])[H])c1[H]

$$$$
52:0:0
     RDKit          3D

 94102  0  0  1  0  0  0  0  0999 V2000
  -28.2190  -20.5020   19.4300 C   0  0  0  0  0  2  0  0  0  0  0  0
  -28.5300  -18.3720   20.8080 C   0  0  0  0  0  3  0  0  0  0  0  0
  -29.8490  -18.6420   18.7900 C   0  0  0  0  0  3  0  0  0  0  0  0
  -28.9070  -19.1600   19.7020 C   0  0  0  0  0  0  0  0  0  0  0  0
  -29.0440  -17.0660   20.9760 C   0  0  0  0  0  0  0  0  0  0  0  0
  -29.9550  -16.5200   20.0320 C   0  0  0  0  0  0  0  0  0  0  0  0
  -30.3690  -17.3400   18.9450 C   0  0  0  0  0  0  0  0  0  0  0  0
  -28.5630  -16.2430   22.1620 C   0  0  0  0  0  1  0  0  0  0  0  0
  -31.2370  -16.9040   18.0050 F   0  0  0  0  0  0  0  0  0  0  0  0
  -30.7930  -14.2710   19.3170 C   0  0  0  0  0  0  0  0  0  0  0  0
  -30.1900  -12.2170   18.0940 C   0  0  0  0  0  2  0  0  0  0  0  0
  -29.0660  -12.5780   17.1020 C   0  0  0  0  0  2  0  0  0  0  0  0
  -27.6840  -12.4630   17.7770 C   0  0  0  0  0  2  0  0  0  0  0  0
  -27.6230  -13.1930   19.1450 C   0  0  0  0  0  3  0  0  0  0  0  0
  -28.8470  -12.8240   20.0160 C   0  0  0  0  0  2  0  0  0  0  0  0
  -30.0700  -13.1210   19.2460 N   0  0  0  0  0  0  0  0  0  0  0  0
  -31.7830  -14.4840   18.6130 O   0  0  0  0  0  0  0  0  0  0  0  0
  -30.3430  -15.1530   20.2230 N   0  0  0  0  0  0  0  0  0  0  0  0
  -29.8280  -14.7000   20.9580 H   0  0  0  0  0  0  0  0  0  0  0  0
  -25.4280  -13.8170   20.3400 C   0  0  0  0  0  0  0  0  0  0  0  0
  -24.4080  -13.0500   20.8380 C   0  0  0  0  0  0  0  0  0  0  0  0
  -24.7830  -11.6920   20.6020 C   0  0  0  0  0  0  0  0  0  0  0  0
  -26.3640  -12.9230   19.8400 N   0  0  0  0  0  0  0  0  0  0  0  0
  -25.9890  -11.6350   20.0510 N   0  0  0  0  0  0  0  0  0  0  0  0
  -24.0370  -10.4440   20.8200 C   0  0  0  0  0  0  0  0  0  0  0  0
  -24.5120   -9.4450   21.6970 C   0  0  0  0  0  3  0  0  0  0  0  0
  -23.7730   -8.2610   21.9060 C   0  0  0  0  0  3  0  0  0  0  0  0
  -22.5410   -8.0680   21.2350 C   0  0  0  0  0  0  0  0  0  0  0  0
  -22.0820   -9.0560   20.3460 C   0  0  0  0  0  3  0  0  0  0  0  0
  -22.8220  -10.2310   20.1370 C   0  0  0  0  0  3  0  0  0  0  0  0
  -21.7670   -6.9390   21.3530 O   0  0  0  0  0  0  0  0  0  0  0  0
  -21.7070   -6.2250   22.5230 C   0  0  0  0  0  0  0  0  0  0  0  0
  -21.2970   -6.8160   23.7370 C   0  0  0  0  0  3  0  0  0  0  0  0
  -21.1850   -6.0300   24.9010 C   0  0  0  0  0  3  0  0  0  0  0  0
  -21.4730   -4.6520   24.8510 C   0  0  0  0  0  0  0  0  0  0  0  0
  -21.8780   -4.0600   23.6420 C   0  0  0  0  0  3  0  0  0  0  0  0
  -21.9920   -4.8450   22.4810 C   0  0  0  0  0  0  0  0  0  0  0  0
  -22.3610   -4.2660   21.3120 F   0  0  0  0  0  0  0  0  0  0  0  0
  -21.3590   -3.8950   25.9660 F   0  0  0  0  0  0  0  0  0  0  0  0
  -23.1150  -13.5480   21.4160 C   0  0  0  0  0  0  0  0  0  0  0  0
  -22.5540  -12.8250   22.3800 N   0  0  0  0  0  0  0  0  0  0  0  0
  -22.6160  -14.6100   21.0460 O   0  0  0  0  0  0  0  0  0  0  0  0
  -22.9700  -11.9620   22.6960 H   0  0  0  0  0  0  0  0  0  0  0  0
  -21.6920  -13.1370   22.8040 H   0  0  0  0  0  0  0  0  0  0  0  0
  -25.6250  -15.1910   20.2550 N   0  0  0  0  0  0  0  0  0  0  0  0
  -24.9240  -15.8530   20.5680 H   0  0  0  0  0  0  0  0  0  0  0  0
  -26.4240  -15.6350   19.8180 H   0  0  0  0  0  0  0  0  0  0  0  0
  -29.0360  -21.8080   21.3670 C   0  0  0  0  0  1  0  0  0  0  0  0
  -28.9480  -21.7210   19.8900 N   0  0  2  0  0  4  0  0  0  0  0  0
  -29.8890  -21.6180   19.5460 H   0  0  0  0  0  0  0  0  0  0  0  0
  -28.3740  -22.9480   19.2550 C   0  0  0  0  0  2  0  0  0  0  0  0
  -29.1270  -24.2890   19.5010 C   0  0  0  0  0  2  0  0  0  0  0  0
  -28.4970  -25.2180   20.5650 C   0  0  0  0  0  2  0  0  0  0  0  0
  -28.6160  -26.6110   20.2190 O   0  0  0  0  0  0  0  0  0  0  0  0
  -24.5500  -31.6290   23.2060 C   0  0  0  0  0  0  0  0  0  0  0  0
  -27.4360  -27.3250   20.1580 C   0  0  0  0  0  0  0  0  0  0  0  0
  -23.4600  -30.2590   21.4570 C   0  0  0  0  0  3  0  0  0  0  0  0
  -25.0180  -28.7880   20.0740 C   0  0  0  0  0  0  0  0  0  0  0  0
  -25.9860  -30.6680   21.4090 C   0  0  0  0  0  2  0  0  0  0  0  0
  -26.1320  -29.3160   20.7380 C   0  0  0  0  0  0  0  0  0  0  0  0
  -27.3450  -28.5950   20.7720 C   0  0  0  0  0  3  0  0  0  0  0  0
  -26.3070  -26.8130   19.4790 C   0  0  0  0  0  3  0  0  0  0  0  0
  -25.1010  -27.5370   19.4380 C   0  0  0  0  0  3  0  0  0  0  0  0
  -23.7580  -29.6220   20.0730 C   0  0  0  0  0  2  0  0  0  0  0  0
  -24.6800  -30.8640   22.0840 N   0  0  0  0  0  0  0  0  0  0  0  0
  -23.4360  -31.8690   23.6920 O   0  0  0  0  0  0  0  0  0  0  0  0
  -22.7730  -29.2000   22.3510 C   0  0  0  0  0  0  0  0  0  0  0  0
  -21.4510  -29.0400   22.1820 N   0  0  0  0  0  0  0  0  0  0  0  0
  -23.4280  -28.5280   23.1520 O   0  0  0  0  0  0  0  0  0  0  0  0
  -20.9840  -29.6420   21.5170 H   0  0  0  0  0  0  0  0  0  0  0  0
  -18.0450  -27.8970   22.5680 C   0  0  0  0  0  0  0  0  0  0  0  0
  -20.6060  -28.0730   22.8790 C   0  0  0  0  0  3  0  0  0  0  0  0
  -20.6820  -26.6830   22.2050 C   0  0  0  0  0  2  0  0  0  0  0  0
  -19.5810  -26.4610   21.1620 C   0  0  0  0  0  2  0  0  0  0  0  0
  -18.1980  -26.5910   21.8060 C   0  0  0  0  0  2  0  0  0  0  0  0
  -19.1770  -28.5990   23.0570 C   0  0  0  0  0  0  0  0  0  0  0  0
  -18.9860  -29.8270   23.7290 C   0  0  0  0  0  3  0  0  0  0  0  0
  -17.6920  -30.3500   23.9150 C   0  0  0  0  0  3  0  0  0  0  0  0
  -16.5730  -29.6430   23.4420 C   0  0  0  0  0  3  0  0  0  0  0  0
  -16.7500  -28.4180   22.7740 C   0  0  0  0  0  3  0  0  0  0  0  0
  -25.7880  -32.2610   23.9140 C   0  0  0  0  0  3  0  0  0  0  0  0
  -25.4240  -33.6290   24.3080 N   0  0  0  0  0  0  0  0  0  0  0  0
  -25.7740  -34.7330   23.6340 C   0  0  0  0  0  0  0  0  0  0  0  0
  -26.5070  -34.7070   22.6410 O   0  0  0  0  0  0  0  0  0  0  0  0
  -24.7830  -33.7220   25.0830 H   0  0  0  0  0  0  0  0  0  0  0  0
  -24.0500  -36.5230   23.2490 C   0  0  0  0  0  1  0  0  0  0  0  0
  -25.2210  -36.0800   24.1400 C   0  0  0  0  0  3  0  0  0  0  0  0
  -27.2540  -36.9290   25.2230 C   0  0  0  0  0  1  0  0  0  0  0  0
  -26.2400  -37.1490   24.1950 N   0  0  0  0  0  0  0  0  0  0  0  0
  -25.8060  -38.0510   24.3690 H   0  0  0  0  0  0  0  0  0  0  0  0
  -26.2810  -31.4320   25.1630 C   0  0  1  0  0  0  0  0  0  0  0  0
  -25.1530  -31.0900   26.1640 C   0  0  0  0  0  1  0  0  0  0  0  0
  -26.9320  -30.1020   24.7120 C   0  0  0  0  0  1  0  0  0  0  0  0
  -27.3720  -32.2230   25.9200 C   0  0  0  0  0  1  0  0  0  0  0  0
  1  4  1  0
  1 49  1  0
  2  5  1  0
  3  7  2  0
  3  4  1  0
  4  2  2  0
  5  8  1  0
  6 18  1  0
  6  5  2  0
  7  6  1  0
  9  7  1  0
 10 18  1  0
 11 16  1  0
 12 13  1  0
 12 11  1  0
 14 13  1  0
 14 23  1  0
 14 15  1  0
 16 10  1  0
 16 15  1  0
 17 10  2  0
 18 19  1  0
 20 21  2  0
 21 40  1  0
 22 25  1  0
 22 21  1  0
 23 24  1  0
 23 20  1  0
 24 22  2  0
 25 26  1  0
 26 27  2  0
 28 31  1  0
 28 27  1  0
 29 28  2  0
 30 29  1  0
 30 25  2  0
 31 32  1  0
 32 33  1  0
 33 34  2  0
 35 34  1  0
 35 39  1  0
 36 35  2  0
 37 32  2  0
 37 36  1  0
 38 37  1  0
 40 41  1  0
 41 43  1  0
 41 44  1  0
 42 40  2  0
 45 20  1  0
 45 46  1  0
 47 45  1  0
 49 48  1  0
 49 50  1  6
 51 52  1  0
 51 49  1  0
 52 53  1  0
 54 53  1  0
 55 66  2  0
 56 54  1  0
 56 61  1  0
 57 65  1  0
 57 67  1  0
 58 60  1  0
 59 65  1  0
 60 61  2  0
 60 59  1  0
 62 56  2  0
 63 62  1  0
 63 58  2  0
 64 58  1  0
 64 57  1  0
 65 55  1  0
 67 69  2  0
 68 67  1  0
 70 68  1  0
 71 80  2  0
 71 76  1  0
 72 68  1  0
 72 76  1  0
 73 72  1  0
 74 75  1  0
 74 73  1  0
 75 71  1  0
 76 77  2  0
 77 78  1  0
 79 78  2  0
 80 79  1  0
 81 55  1  0
 81 82  1  0
 81 91  1  0
 82 85  1  0
 83 87  1  0
 83 82  1  0
 84 83  2  0
 87 86  1  0
 87 89  1  0
 89 90  1  0
 89 88  1  0
 91 94  1  1
 91 92  1  0
 93 91  1  0
M  ISO  4  10 100  18 100  53 101  54 101
M  END
>  <TORSDO>  (53) 
F 21

>  <SCORE>  (53) 
-9.264

>  <name>  (53) 
52

>  <ligand_id>  (53) 
52

>  <original_smiles>  (53) 
[H]c1c([H])c([H])c2c(c1[H])C([H])([H])C([H])([H])C([H])([H])C2([H])N([H])C(=O)C1([H])N(C(=O)C([H])(N([H])C(=O)C([H])(N([H])C([H])([H])[H])C([H])([H])[H])C(C([H])([H])[H])(C([H])([H])[H])C([H])([H])[H])C([H])([H])c2c([H])c(OC([H])([H])C([H])([H])C([H])([H])[N+]([H])(C([H])([H])[H])C([H])([H])c3c([H])c(F)c(N([H])C(=O)N4C([H])([H])C([H])([H])C([H])([H])C([H])(n5nc(-c6c([H])c([H])c(Oc7c([H])c([H])c(F)c([H])c7F)c([H])c6[H])c(C(=O)N([H])[H])c5N([H])[H])C4([H])[H])c(C([H])([H])[H])c3[H])c([H])c([H])c2C1([H])[H]

>  <smiles>  (53) 
[H]c1c([H])c([H])c2c(c1[H])C([H])([H])C([H])([H])C([H])([H])C2([H])N([H])C(=O)C1([H])N(C(=O)C([H])(N([H])C(=O)C([H])(N([H])C([H])([H])[H])C([H])([H])[H])C(C([H])([H])[H])(C([H])([H])[H])C([H])([H])[H])C([H])([H])c2c([H])c(OC([H])([H])C([H])([H])C([H])([H])[N+]([H])(C([H])([H])[H])C([H])([H])c3c([H])c(F)c(N([H])C(=O)N4C([H])([H])C([H])([H])C([H])([H])C([H])(n5nc(-c6c([H])c([H])c(Oc7c([H])c([H])c(F)c([H])c7F)c([H])c6[H])c(C(=O)N([H])[H])c5N([H])[H])C4([H])[H])c(C([H])([H])[H])c3[H])c([H])c([H])c2C1([H])[H]

$$$$
53:0:0
     RDKit          3D

 95103  0  0  1  0  0  0  0  0999 V2000
  -28.3070  -22.2680   21.1830 C   0  0  0  0  0  2  0  0  0  0  0  0
  -30.4210  -20.8970   20.9640 C   0  0  0  0  0  3  0  0  0  0  0  0
  -28.2840  -19.7430   20.7910 C   0  0  0  0  0  3  0  0  0  0  0  0
  -31.0930  -19.6870   20.7250 C   0  0  0  0  0  3  0  0  0  0  0  0
  -28.9600  -18.5290   20.5440 C   0  0  0  0  0  3  0  0  0  0  0  0
  -29.0130  -20.9350   20.9940 C   0  0  0  0  0  0  0  0  0  0  0  0
  -30.3730  -18.4920   20.5060 C   0  0  0  0  0  0  0  0  0  0  0  0
  -31.1620  -17.2240   20.1560 C   0  0  0  0  0  3  0  0  0  0  0  0
  -31.4550  -14.8200   20.4690 C   0  0  0  0  0  0  0  0  0  0  0  0
  -31.0450  -12.7810   19.1580 C   0  0  0  0  0  2  0  0  0  0  0  0
  -30.1150  -13.1210   17.9770 C   0  0  0  0  0  2  0  0  0  0  0  0
  -28.6360  -13.0050   18.3970 C   0  0  0  0  0  2  0  0  0  0  0  0
  -28.3300  -13.7350   19.7330 C   0  0  0  0  0  3  0  0  0  0  0  0
  -29.3790  -13.3930   20.8090 C   0  0  0  0  0  2  0  0  0  0  0  0
  -30.7070  -13.7020   20.2550 N   0  0  0  0  0  0  0  0  0  0  0  0
  -32.6130  -14.9100   20.0470 O   0  0  0  0  0  0  0  0  0  0  0  0
  -30.4660  -16.0670   22.2700 C   0  0  0  0  0  1  0  0  0  0  0  0
  -30.7850  -15.9460   20.8370 N   0  0  0  0  0  0  0  0  0  0  0  0
  -25.9310  -14.3610   20.4130 C   0  0  0  0  0  0  0  0  0  0  0  0
  -24.8500  -13.5950   20.7580 C   0  0  0  0  0  0  0  0  0  0  0  0
  -25.3010  -12.2390   20.7210 C   0  0  0  0  0  0  0  0  0  0  0  0
  -26.9710  -13.4710   20.1910 N   0  0  0  0  0  0  0  0  0  0  0  0
  -26.5940  -12.1900   20.4330 N   0  0  0  0  0  0  0  0  0  0  0  0
  -24.5620  -10.9820   20.8890 C   0  0  0  0  0  0  0  0  0  0  0  0
  -24.9090  -10.0510   21.8930 C   0  0  0  0  0  3  0  0  0  0  0  0
  -24.1730   -8.8560   22.0450 C   0  0  0  0  0  3  0  0  0  0  0  0
  -23.0770   -8.5850   21.1910 C   0  0  0  0  0  0  0  0  0  0  0  0
  -22.7510   -9.5060   20.1800 C   0  0  0  0  0  3  0  0  0  0  0  0
  -23.4870  -10.6910   20.0270 C   0  0  0  0  0  3  0  0  0  0  0  0
  -22.3200   -7.4400   21.2500 O   0  0  0  0  0  0  0  0  0  0  0  0
  -22.0600   -6.8090   22.4400 C   0  0  0  0  0  0  0  0  0  0  0  0
  -21.4160   -7.4700   23.5090 C   0  0  0  0  0  3  0  0  0  0  0  0
  -21.1060   -6.7640   24.6880 C   0  0  0  0  0  3  0  0  0  0  0  0
  -21.4290   -5.3980   24.7970 C   0  0  0  0  0  0  0  0  0  0  0  0
  -22.0660   -4.7370   23.7320 C   0  0  0  0  0  3  0  0  0  0  0  0
  -22.3770   -5.4410   22.5550 C   0  0  0  0  0  0  0  0  0  0  0  0
  -22.9720   -4.7940   21.5230 F   0  0  0  0  0  0  0  0  0  0  0  0
  -21.1260   -4.7170   25.9270 F   0  0  0  0  0  0  0  0  0  0  0  0
  -23.4540  -14.0810   21.0170 C   0  0  0  0  0  0  0  0  0  0  0  0
  -22.7160  -13.3940   21.8800 N   0  0  0  0  0  0  0  0  0  0  0  0
  -23.0250  -15.1060   20.4880 O   0  0  0  0  0  0  0  0  0  0  0  0
  -23.0750  -12.5650   22.3320 H   0  0  0  0  0  0  0  0  0  0  0  0
  -21.7780  -13.7030   22.0960 H   0  0  0  0  0  0  0  0  0  0  0  0
  -26.1110  -15.7310   20.2510 N   0  0  0  0  0  0  0  0  0  0  0  0
  -25.3530  -16.3940   20.3650 H   0  0  0  0  0  0  0  0  0  0  0  0
  -26.9730  -16.1620   19.9470 H   0  0  0  0  0  0  0  0  0  0  0  0
  -30.0170  -17.1940   17.7920 C   0  0  0  0  0  1  0  0  0  0  0  0
  -31.3160  -17.1030   18.6080 C   0  0  0  0  0  2  0  0  0  0  0  0
  -28.7540  -24.2780   22.4020 C   0  0  0  0  0  0  0  0  0  0  0  0
  -29.4410  -24.9690   23.5650 C   0  0  0  0  0  1  0  0  0  0  0  0
  -28.9290  -23.0190   22.2640 N   0  0  0  0  0  0  0  0  0  0  0  0
  -26.6060  -25.6020   22.2660 C   0  0  0  0  0  1  0  0  0  0  0  0
  -27.8930  -25.2000   21.5150 C   0  0  0  0  0  3  0  0  0  0  0  0
  -28.6990  -26.4180   20.9770 C   0  0  0  0  0  2  0  0  0  0  0  0
  -28.1910  -26.9080   19.7330 O   0  0  0  0  0  0  0  0  0  0  0  0
  -24.4870  -31.9450   23.1380 C   0  0  0  0  0  0  0  0  0  0  0  0
  -27.0470  -27.6550   19.8190 C   0  0  0  0  0  0  0  0  0  0  0  0
  -23.2330  -30.6030   21.4780 C   0  0  0  0  0  3  0  0  0  0  0  0
  -24.6480  -29.1260   19.9550 C   0  0  0  0  0  0  0  0  0  0  0  0
  -25.7470  -30.9840   21.2190 C   0  0  0  0  0  2  0  0  0  0  0  0
  -25.8170  -29.6370   20.5340 C   0  0  0  0  0  0  0  0  0  0  0  0
  -27.0210  -28.9050   20.4740 C   0  0  0  0  0  3  0  0  0  0  0  0
  -25.8730  -27.1570   19.2220 C   0  0  0  0  0  3  0  0  0  0  0  0
  -24.6680  -27.8810   19.2990 C   0  0  0  0  0  3  0  0  0  0  0  0
  -23.4020  -29.9750   20.0690 C   0  0  0  0  0  2  0  0  0  0  0  0
  -24.5080  -31.1910   22.0030 N   0  0  0  0  0  0  0  0  0  0  0  0
  -23.4230  -32.1940   23.7210 O   0  0  0  0  0  0  0  0  0  0  0  0
  -22.6140  -29.5450   22.4190 C   0  0  0  0  0  0  0  0  0  0  0  0
  -21.2880  -29.3580   22.3180 N   0  0  0  0  0  0  0  0  0  0  0  0
  -23.3210  -28.8950   23.1930 O   0  0  0  0  0  0  0  0  0  0  0  0
  -20.7790  -29.9330   21.6620 H   0  0  0  0  0  0  0  0  0  0  0  0
  -17.9310  -28.1390   22.8610 C   0  0  0  0  0  0  0  0  0  0  0  0
  -20.4950  -28.3900   23.0750 C   0  0  0  0  0  3  0  0  0  0  0  0
  -20.5830  -26.9830   22.4410 C   0  0  0  0  0  2  0  0  0  0  0  0
  -19.4550  -26.6970   21.4470 C   0  0  0  0  0  2  0  0  0  0  0  0
  -18.0910  -26.8150   22.1320 C   0  0  0  0  0  2  0  0  0  0  0  0
  -19.0600  -28.8850   23.2890 C   0  0  0  0  0  0  0  0  0  0  0  0
  -18.8570  -30.1270   23.9310 C   0  0  0  0  0  3  0  0  0  0  0  0
  -17.5570  -30.6190   24.1500 C   0  0  0  0  0  3  0  0  0  0  0  0
  -16.4420  -29.8680   23.7380 C   0  0  0  0  0  3  0  0  0  0  0  0
  -16.6310  -28.6300   23.0990 C   0  0  0  0  0  3  0  0  0  0  0  0
  -25.7930  -32.5530   23.7410 C   0  0  0  0  0  3  0  0  0  0  0  0
  -25.5030  -33.9460   24.1050 N   0  0  0  0  0  0  0  0  0  0  0  0
  -25.8480  -35.0110   23.3690 C   0  0  0  0  0  0  0  0  0  0  0  0
  -26.5160  -34.9220   22.3350 O   0  0  0  0  0  0  0  0  0  0  0  0
  -24.9120  -34.0890   24.9100 H   0  0  0  0  0  0  0  0  0  0  0  0
  -24.1540  -36.8400   23.0410 C   0  0  0  0  0  1  0  0  0  0  0  0
  -25.3770  -36.3940   23.8580 C   0  0  0  0  0  3  0  0  0  0  0  0
  -27.5140  -37.2200   24.7400 C   0  0  0  0  0  1  0  0  0  0  0  0
  -26.4280  -37.4320   23.7860 N   0  0  0  0  0  0  0  0  0  0  0  0
  -26.0360  -38.3540   23.9510 H   0  0  0  0  0  0  0  0  0  0  0  0
  -26.3360  -31.7490   24.9860 C   0  0  1  0  0  0  0  0  0  0  0  0
  -25.2660  -31.4910   26.0740 C   0  0  0  0  0  1  0  0  0  0  0  0
  -26.9010  -30.3780   24.5460 C   0  0  0  0  0  1  0  0  0  0  0  0
  -27.5070  -32.5220   25.6370 C   0  0  0  0  0  1  0  0  0  0  0  0
  1 51  1  0
  2  6  1  0
  3  6  2  0
  4  2  2  0
  5  3  1  0
  6  1  1  0
  7  5  2  0
  7  4  1  0
  8 48  1  0
  8  7  1  0
  8 18  1  0
  9 18  1  0
 10 15  1  0
 11 12  1  0
 11 10  1  0
 13 12  1  0
 13 22  1  0
 13 14  1  0
 15  9  1  0
 15 14  1  0
 16  9  2  0
 18 17  1  0
 19 20  2  0
 20 39  1  0
 21 20  1  0
 21 24  1  0
 22 19  1  0
 22 23  1  0
 23 21  2  0
 24 25  1  0
 25 26  2  0
 27 30  1  0
 27 26  1  0
 28 27  2  0
 29 28  1  0
 29 24  2  0
 30 31  1  0
 31 36  2  0
 31 32  1  0
 32 33  2  0
 33 34  1  0
 34 38  1  0
 35 34  2  0
 36 35  1  0
 37 36  1  0
 39 40  1  0
 40 43  1  0
 40 42  1  0
 41 39  2  0
 44 45  1  0
 44 19  1  0
 46 44  1  0
 47 48  1  0
 49 50  1  0
 51 49  2  0
 53 52  1  0
 53 49  1  0
 54 53  1  0
 55 57  1  0
 55 54  1  0
 56 67  2  0
 57 62  1  0
 58 66  1  0
 58 68  1  0
 59 65  1  0
 59 61  1  0
 60 66  1  0
 61 60  1  0
 62 61  2  0
 63 64  1  0
 63 57  2  0
 64 59  2  0
 65 58  1  0
 66 56  1  0
 68 70  2  0
 69 68  1  0
 71 69  1  0
 72 81  2  0
 72 77  1  0
 73 69  1  0
 73 77  1  0
 74 73  1  0
 75 76  1  0
 75 74  1  0
 76 72  1  0
 77 78  2  0
 78 79  1  0
 80 79  2  0
 81 80  1  0
 82 56  1  0
 82 83  1  0
 82 92  1  0
 83 86  1  0
 84 88  1  0
 84 83  1  0
 85 84  2  0
 88 87  1  0
 90 88  1  0
 90 91  1  0
 90 89  1  0
 92 95  1  1
 92 93  1  0
 94 92  1  0
M  ISO  4   9 100  18 100  54 101  55 101
M  END
>  <TORSDO>  (54) 
F 22

>  <SCORE>  (54) 
-11.784

>  <name>  (54) 
53

>  <ligand_id>  (54) 
53

>  <original_smiles>  (54) 
[H]c1c([H])c([H])c2c(c1[H])C([H])([H])C([H])([H])C([H])([H])C2([H])N([H])C(=O)C1([H])N(C(=O)C([H])(N([H])C(=O)C([H])(N([H])C([H])([H])[H])C([H])([H])[H])C(C([H])([H])[H])(C([H])([H])[H])C([H])([H])[H])C([H])([H])c2c([H])c(OC([H])([H])C([H])(C(=NC([H])([H])c3c([H])c([H])c(C([H])(N(C(=O)N4C([H])([H])C([H])([H])C([H])([H])C([H])(n5nc(-c6c([H])c([H])c(Oc7c([H])c([H])c(F)c([H])c7F)c([H])c6[H])c(C(=O)N([H])[H])c5N([H])[H])C4([H])[H])C([H])([H])[H])C([H])([H])C([H])([H])[H])c([H])c3[H])C([H])([H])[H])C([H])([H])[H])c([H])c([H])c2C1([H])[H]

>  <smiles>  (54) 
[H]c1c([H])c([H])c2c(c1[H])C([H])([H])C([H])([H])C([H])([H])C2([H])N([H])C(=O)C1([H])N(C(=O)C([H])(N([H])C(=O)C([H])(N([H])C([H])([H])[H])C([H])([H])[H])C(C([H])([H])[H])(C([H])([H])[H])C([H])([H])[H])C([H])([H])c2c([H])c(OC([H])([H])C([H])(C(=NC([H])([H])c3c([H])c([H])c(C([H])(N(C(=O)N4C([H])([H])C([H])([H])C([H])([H])C([H])(n5nc(-c6c([H])c([H])c(Oc7c([H])c([H])c(F)c([H])c7F)c([H])c6[H])c(C(=O)N([H])[H])c5N([H])[H])C4([H])[H])C([H])([H])[H])C([H])([H])C([H])([H])[H])c([H])c3[H])C([H])([H])[H])C([H])([H])[H])c([H])c([H])c2C1([H])[H]

$$$$
54:0:0
     RDKit          3D

 93102  0  0  1  0  0  0  0  0999 V2000
  -28.7870  -22.4840   20.5680 C   0  0  0  0  0  0  0  0  0  0  0  0
  -30.4000  -23.7990   19.4330 C   0  0  0  0  0  2  0  0  0  0  0  0
  -30.8560  -22.3300   19.5930 C   0  0  0  0  0  2  0  0  0  0  0  0
  -29.2320  -23.9780   20.4050 C   0  0  0  0  0  3  0  0  0  0  0  0
  -29.7330  -21.5780   20.1610 N   0  0  0  0  0  0  0  0  0  0  0  0
  -27.6820  -22.1980   21.0390 O   0  0  0  0  0  0  0  0  0  0  0  0
  -30.9820  -19.3700   20.0460 C   0  0  0  0  0  3  0  0  0  0  0  0
  -31.0670  -17.9460   20.1330 C   0  0  0  0  0  3  0  0  0  0  0  0
  -28.6470  -19.2880   20.5880 C   0  0  0  0  0  3  0  0  0  0  0  0
  -29.7730  -20.0990   20.2670 C   0  0  0  0  0  0  0  0  0  0  0  0
  -29.9330  -17.1540   20.4500 C   0  0  0  0  0  0  0  0  0  0  0  0
  -28.7270  -17.8680   20.6760 C   0  0  0  0  0  0  0  0  0  0  0  0
  -27.6100  -17.1630   20.9780 F   0  0  0  0  0  0  0  0  0  0  0  0
  -30.6560  -14.6830   20.0650 C   0  0  0  0  0  0  0  0  0  0  0  0
  -30.3860  -12.4880   18.9260 C   0  0  0  0  0  2  0  0  0  0  0  0
  -29.3720  -12.6650   17.7730 C   0  0  0  0  0  2  0  0  0  0  0  0
  -27.9250  -12.4950   18.2770 C   0  0  0  0  0  2  0  0  0  0  0  0
  -27.6410  -13.3090   19.5680 C   0  0  0  0  0  3  0  0  0  0  0  0
  -28.7600  -13.0970   20.6140 C   0  0  0  0  0  2  0  0  0  0  0  0
  -30.0380  -13.4610   19.9800 N   0  0  0  0  0  0  0  0  0  0  0  0
  -31.7830  -14.8660   19.5950 O   0  0  0  0  0  0  0  0  0  0  0  0
  -29.8850  -15.6980   20.5600 N   0  0  0  0  0  0  0  0  0  0  0  0
  -29.0190  -15.3670   20.9590 H   0  0  0  0  0  0  0  0  0  0  0  0
  -25.2870  -13.8880   20.4230 C   0  0  0  0  0  0  0  0  0  0  0  0
  -24.2390  -13.1040   20.8240 C   0  0  0  0  0  0  0  0  0  0  0  0
  -24.6990  -11.7550   20.7340 C   0  0  0  0  0  0  0  0  0  0  0  0
  -26.3190  -13.0150   20.1140 N   0  0  0  0  0  0  0  0  0  0  0  0
  -25.9710  -11.7250   20.3590 N   0  0  0  0  0  0  0  0  0  0  0  0
  -23.9820  -10.4870   20.9280 C   0  0  0  0  0  0  0  0  0  0  0  0
  -24.4170   -9.5300   21.8710 C   0  0  0  0  0  3  0  0  0  0  0  0
  -23.6990   -8.3280   22.0520 C   0  0  0  0  0  3  0  0  0  0  0  0
  -22.5340   -8.0750   21.2890 C   0  0  0  0  0  0  0  0  0  0  0  0
  -22.1200   -9.0210   20.3360 C   0  0  0  0  0  3  0  0  0  0  0  0
  -22.8370  -10.2150   20.1540 C   0  0  0  0  0  3  0  0  0  0  0  0
  -21.7900   -6.9240   21.3800 O   0  0  0  0  0  0  0  0  0  0  0  0
  -21.6690   -6.2350   22.5600 C   0  0  0  0  0  0  0  0  0  0  0  0
  -21.1450   -6.8370   23.7240 C   0  0  0  0  0  3  0  0  0  0  0  0
  -20.9740   -6.0730   24.8960 C   0  0  0  0  0  3  0  0  0  0  0  0
  -21.3160   -4.7080   24.9030 C   0  0  0  0  0  0  0  0  0  0  0  0
  -21.8320   -4.1050   23.7420 C   0  0  0  0  0  3  0  0  0  0  0  0
  -22.0050   -4.8650   22.5740 C   0  0  0  0  0  0  0  0  0  0  0  0
  -22.4830   -4.2750   21.4520 F   0  0  0  0  0  0  0  0  0  0  0  0
  -21.1440   -3.9710   26.0260 F   0  0  0  0  0  0  0  0  0  0  0  0
  -22.8590  -13.5740   21.1840 C   0  0  0  0  0  0  0  0  0  0  0  0
  -22.1800  -12.8550   22.0710 N   0  0  0  0  0  0  0  0  0  0  0  0
  -22.3930  -14.6110   20.7150 O   0  0  0  0  0  0  0  0  0  0  0  0
  -22.5700  -12.0160   22.4720 H   0  0  0  0  0  0  0  0  0  0  0  0
  -21.2560  -13.1510   22.3550 H   0  0  0  0  0  0  0  0  0  0  0  0
  -25.4410  -15.2630   20.2780 N   0  0  0  0  0  0  0  0  0  0  0  0
  -24.6910  -15.9120   20.4890 H   0  0  0  0  0  0  0  0  0  0  0  0
  -26.3010  -15.7290   20.0220 H   0  0  0  0  0  0  0  0  0  0  0  0
  -28.1380  -25.0570   19.9860 C   0  0  0  0  0  2  0  0  0  0  0  0
  -28.3790  -26.5090   20.1810 O   0  0  0  0  0  0  0  0  0  0  0  0
  -24.6410  -31.8690   23.2490 C   0  0  0  0  0  0  0  0  0  0  0  0
  -27.2620  -27.3610   20.1300 C   0  0  0  0  0  0  0  0  0  0  0  0
  -23.4400  -30.4940   21.5870 C   0  0  0  0  0  3  0  0  0  0  0  0
  -24.8940  -28.9700   20.1400 C   0  0  0  0  0  0  0  0  0  0  0  0
  -25.9810  -30.8170   21.4140 C   0  0  0  0  0  2  0  0  0  0  0  0
  -26.0620  -29.4500   20.7450 C   0  0  0  0  0  0  0  0  0  0  0  0
  -27.2490  -28.6580   20.7310 C   0  0  0  0  0  3  0  0  0  0  0  0
  -26.0670  -26.9380   19.4980 C   0  0  0  0  0  3  0  0  0  0  0  0
  -24.8990  -27.7190   19.5080 C   0  0  0  0  0  3  0  0  0  0  0  0
  -23.6580  -29.8410   20.1970 C   0  0  0  0  0  2  0  0  0  0  0  0
  -24.7070  -31.0760   22.1400 N   0  0  0  0  0  0  0  0  0  0  0  0
  -23.5570  -32.1390   23.7850 O   0  0  0  0  0  0  0  0  0  0  0  0
  -22.7770  -29.4620   22.5290 C   0  0  0  0  0  0  0  0  0  0  0  0
  -21.4520  -29.2850   22.3950 N   0  0  0  0  0  0  0  0  0  0  0  0
  -23.4540  -28.8250   23.3410 O   0  0  0  0  0  0  0  0  0  0  0  0
  -20.9650  -29.8510   21.7140 H   0  0  0  0  0  0  0  0  0  0  0  0
  -18.0700  -28.0970   22.8790 C   0  0  0  0  0  0  0  0  0  0  0  0
  -20.6300  -28.3370   23.1480 C   0  0  0  0  0  3  0  0  0  0  0  0
  -20.7230  -26.9160   22.5470 C   0  0  0  0  0  2  0  0  0  0  0  0
  -19.6170  -26.6170   21.5290 C   0  0  0  0  0  2  0  0  0  0  0  0
  -18.2370  -26.7580   22.1780 C   0  0  0  0  0  2  0  0  0  0  0  0
  -19.1930  -28.8450   23.3200 C   0  0  0  0  0  0  0  0  0  0  0  0
  -18.9820  -30.0980   23.9340 C   0  0  0  0  0  3  0  0  0  0  0  0
  -17.6800  -30.6040   24.1120 C   0  0  0  0  0  3  0  0  0  0  0  0
  -16.5710  -29.8520   23.6870 C   0  0  0  0  0  3  0  0  0  0  0  0
  -16.7660  -28.6000   23.0750 C   0  0  0  0  0  3  0  0  0  0  0  0
  -25.9240  -32.4900   23.8820 C   0  0  0  0  0  3  0  0  0  0  0  0
  -25.6190  -33.8890   24.2150 N   0  0  0  0  0  0  0  0  0  0  0  0
  -25.9440  -34.9410   23.4520 C   0  0  0  0  0  0  0  0  0  0  0  0
  -26.6020  -34.8370   22.4130 O   0  0  0  0  0  0  0  0  0  0  0  0
  -25.0360  -34.0460   25.0240 H   0  0  0  0  0  0  0  0  0  0  0  0
  -24.2030  -36.7280   23.1310 C   0  0  0  0  0  1  0  0  0  0  0  0
  -25.4640  -36.3300   23.9150 C   0  0  0  0  0  3  0  0  0  0  0  0
  -27.6120  -37.2270   24.6960 C   0  0  0  0  0  1  0  0  0  0  0  0
  -26.4910  -37.3860   23.7740 N   0  0  0  0  0  0  0  0  0  0  0  0
  -26.0850  -38.3060   23.9250 H   0  0  0  0  0  0  0  0  0  0  0  0
  -26.4250  -31.7120   25.1600 C   0  0  1  0  0  0  0  0  0  0  0  0
  -25.3220  -31.4760   26.2170 C   0  0  0  0  0  1  0  0  0  0  0  0
  -27.0070  -30.3350   24.7690 C   0  0  0  0  0  1  0  0  0  0  0  0
  -27.5720  -32.5000   25.8360 C   0  0  0  0  0  1  0  0  0  0  0  0
  1  6  2  0
  2  3  1  0
  2  4  1  0
  3  5  1  0
  4 52  1  0
  4  1  1  0
  5 10  1  0
  5  1  1  0
  7  8  2  0
  7 10  1  0
  8 11  1  0
  9 12  1  0
 10  9  2  0
 11 22  1  0
 11 12  2  0
 12 13  1  0
 14 22  1  0
 15 20  1  0
 16 17  1  0
 16 15  1  0
 18 17  1  0
 18 27  1  0
 18 19  1  0
 20 14  1  0
 20 19  1  0
 21 14  2  0
 22 23  1  0
 24 25  2  0
 25 44  1  0
 26 25  1  0
 26 29  1  0
 27 28  1  0
 27 24  1  0
 28 26  2  0
 29 30  1  0
 30 31  2  0
 32 35  1  0
 32 31  1  0
 33 32  2  0
 34 33  1  0
 34 29  2  0
 35 36  1  0
 36 41  2  0
 36 37  1  0
 37 38  2  0
 38 39  1  0
 39 43  1  0
 40 39  2  0
 41 40  1  0
 42 41  1  0
 44 45  1  0
 45 48  1  0
 45 47  1  0
 46 44  2  0
 49 24  1  0
 49 50  1  0
 51 49  1  0
 52 53  1  0
 54 65  2  0
 55 53  1  0
 55 60  1  0
 56 64  1  0
 56 66  1  0
 57 63  1  0
 57 59  1  0
 58 64  1  0
 59 58  1  0
 60 59  2  0
 61 62  1  0
 61 55  2  0
 62 57  2  0
 63 56  1  0
 64 54  1  0
 66 68  2  0
 67 66  1  0
 69 67  1  0
 70 79  2  0
 70 75  1  0
 71 67  1  0
 71 75  1  0
 72 71  1  0
 73 74  1  0
 73 72  1  0
 74 70  1  0
 75 76  2  0
 76 77  1  0
 78 77  2  0
 79 78  1  0
 80 54  1  0
 80 81  1  0
 80 90  1  0
 81 84  1  0
 82 86  1  0
 82 81  1  0
 83 82  2  0
 86 85  1  0
 88 86  1  0
 88 89  1  0
 88 87  1  0
 90 93  1  1
 90 91  1  0
 92 90  1  0
M  ISO  4  14 100  22 100  52 101  53 101
M  END
>  <TORSDO>  (55) 
F 18

>  <SCORE>  (55) 
-14.550

>  <name>  (55) 
54

>  <ligand_id>  (55) 
54

>  <original_smiles>  (55) 
[H]c1c([H])c([H])c2c(c1[H])C([H])([H])C([H])([H])C([H])([H])C2([H])N([H])C(=O)C1([H])N(C(=O)C([H])(N([H])C(=O)C([H])(N([H])C([H])([H])[H])C([H])([H])[H])C(C([H])([H])[H])(C([H])([H])[H])C([H])([H])[H])C([H])([H])c2c([H])c(OC([H])([H])C3([H])C(=O)N(c4c([H])c([H])c(N([H])C(=O)N5C([H])([H])C([H])([H])C([H])([H])C([H])(n6nc(-c7c([H])c([H])c(Oc8c([H])c([H])c(F)c([H])c8F)c([H])c7[H])c(C(=O)N([H])[H])c6N([H])[H])C5([H])[H])c(F)c4[H])C([H])([H])C3([H])[H])c([H])c([H])c2C1([H])[H]

>  <smiles>  (55) 
[H]c1c([H])c([H])c2c(c1[H])C([H])([H])C([H])([H])C([H])([H])C2([H])N([H])C(=O)C1([H])N(C(=O)C([H])(N([H])C(=O)C([H])(N([H])C([H])([H])[H])C([H])([H])[H])C(C([H])([H])[H])(C([H])([H])[H])C([H])([H])[H])C([H])([H])c2c([H])c(OC([H])([H])C3([H])C(=O)N(c4c([H])c([H])c(N([H])C(=O)N5C([H])([H])C([H])([H])C([H])([H])C([H])(n6nc(-c7c([H])c([H])c(Oc8c([H])c([H])c(F)c([H])c8F)c([H])c7[H])c(C(=O)N([H])[H])c6N([H])[H])C5([H])[H])c(F)c4[H])C([H])([H])C3([H])[H])c([H])c([H])c2C1([H])[H]

$$$$
55:0:0
     RDKit          3D

 94102  0  0  1  0  0  0  0  0999 V2000
  -29.6190  -21.5030   20.2670 C   0  0  0  0  0  2  0  0  0  0  0  0
  -29.6040  -18.9680   20.3100 C   0  0  0  0  0  3  0  0  0  0  0  0
  -31.0440  -20.0630   18.6770 C   0  0  0  0  0  3  0  0  0  0  0  0
  -30.9200  -17.6280   18.7640 C   0  0  0  0  0  3  0  0  0  0  0  0
  -30.1280  -20.1560   19.7490 C   0  0  0  0  0  0  0  0  0  0  0  0
  -29.9840  -17.6990   19.8190 C   0  0  0  0  0  0  0  0  0  0  0  0
  -31.4490  -18.8040   18.1980 C   0  0  0  0  0  0  0  0  0  0  0  0
  -32.3320  -18.7240   17.1740 F   0  0  0  0  0  0  0  0  0  0  0  0
  -29.3130  -16.4350   20.3620 C   0  0  0  0  0  2  0  0  0  0  0  0
  -30.7210  -14.4390   20.2660 C   0  0  0  0  0  0  0  0  0  0  0  0
  -30.3110  -12.3090   19.0940 C   0  0  0  0  0  2  0  0  0  0  0  0
  -29.3430  -12.5170   17.9150 C   0  0  0  0  0  2  0  0  0  0  0  0
  -27.8840  -12.3700   18.3870 C   0  0  0  0  0  2  0  0  0  0  0  0
  -27.5790  -13.2170   19.6490 C   0  0  0  0  0  3  0  0  0  0  0  0
  -28.6650  -13.0320   20.7330 C   0  0  0  0  0  2  0  0  0  0  0  0
  -29.9800  -13.3050   20.1250 N   0  0  0  0  0  0  0  0  0  0  0  0
  -31.8290  -14.5800   19.7410 O   0  0  0  0  0  0  0  0  0  0  0  0
  -30.9810  -15.9810   22.1080 C   0  0  0  0  0  1  0  0  0  0  0  0
  -30.1890  -15.4370   21.0040 N   0  0  0  0  0  0  0  0  0  0  0  0
  -25.2050  -13.8370   20.4220 C   0  0  0  0  0  0  0  0  0  0  0  0
  -24.1430  -13.0690   20.8170 C   0  0  0  0  0  0  0  0  0  0  0  0
  -24.5990  -11.7170   20.7770 C   0  0  0  0  0  0  0  0  0  0  0  0
  -26.2410  -12.9500   20.1670 N   0  0  0  0  0  0  0  0  0  0  0  0
  -25.8820  -11.6710   20.4390 N   0  0  0  0  0  0  0  0  0  0  0  0
  -23.8760  -10.4580   20.9850 C   0  0  0  0  0  0  0  0  0  0  0  0
  -24.3250   -9.4930   21.9140 C   0  0  0  0  0  3  0  0  0  0  0  0
  -23.6030   -8.2960   22.1070 C   0  0  0  0  0  3  0  0  0  0  0  0
  -22.4160   -8.0560   21.3750 C   0  0  0  0  0  0  0  0  0  0  0  0
  -21.9860   -9.0090   20.4340 C   0  0  0  0  0  3  0  0  0  0  0  0
  -22.7100  -10.1980   20.2380 C   0  0  0  0  0  3  0  0  0  0  0  0
  -21.6630   -6.9130   21.4790 O   0  0  0  0  0  0  0  0  0  0  0  0
  -21.6380   -6.1700   22.6330 C   0  0  0  0  0  0  0  0  0  0  0  0
  -21.2350   -6.7250   23.8670 C   0  0  0  0  0  3  0  0  0  0  0  0
  -21.1570   -5.9100   25.0140 C   0  0  0  0  0  3  0  0  0  0  0  0
  -21.4700   -4.5400   24.9270 C   0  0  0  0  0  0  0  0  0  0  0  0
  -21.8670   -3.9860   23.6980 C   0  0  0  0  0  3  0  0  0  0  0  0
  -21.9470   -4.7980   22.5530 C   0  0  0  0  0  0  0  0  0  0  0  0
  -22.3090   -4.2530   21.3670 F   0  0  0  0  0  0  0  0  0  0  0  0
  -21.3880   -3.7560   26.0260 F   0  0  0  0  0  0  0  0  0  0  0  0
  -22.7540  -13.5520   21.1230 C   0  0  0  0  0  0  0  0  0  0  0  0
  -22.0430  -12.8540   22.0020 N   0  0  0  0  0  0  0  0  0  0  0  0
  -22.3070  -14.5810   20.6170 O   0  0  0  0  0  0  0  0  0  0  0  0
  -22.4160  -12.0230   22.4360 H   0  0  0  0  0  0  0  0  0  0  0  0
  -21.1110  -13.1590   22.2480 H   0  0  0  0  0  0  0  0  0  0  0  0
  -25.3710  -15.2070   20.2390 N   0  0  0  0  0  0  0  0  0  0  0  0
  -24.6080  -15.8640   20.3610 H   0  0  0  0  0  0  0  0  0  0  0  0
  -26.2130  -15.6430   19.8870 H   0  0  0  0  0  0  0  0  0  0  0  0
  -30.1300  -23.9360   19.9900 C   0  0  0  0  0  0  0  0  0  0  0  0
  -31.9420  -22.4250   20.5930 C   0  0  0  0  0  1  0  0  0  0  0  0
  -30.5370  -22.6620   20.2310 N   0  0  0  0  0  0  0  0  0  0  0  0
  -30.9420  -24.8350   19.7460 O   0  0  0  0  0  0  0  0  0  0  0  0
  -28.6380  -24.3120   20.0990 C   0  0  0  0  0  2  0  0  0  0  0  0
  -28.3820  -25.5770   20.9450 C   0  0  0  0  0  2  0  0  0  0  0  0
  -28.4390  -26.7850   20.1830 O   0  0  0  0  0  0  0  0  0  0  0  0
  -24.5940  -31.9090   23.2600 C   0  0  0  0  0  0  0  0  0  0  0  0
  -27.2670  -27.5020   20.1800 C   0  0  0  0  0  0  0  0  0  0  0  0
  -23.3950  -30.5040   21.6110 C   0  0  0  0  0  3  0  0  0  0  0  0
  -24.8600  -28.9700   20.1930 C   0  0  0  0  0  0  0  0  0  0  0  0
  -25.9180  -30.8780   21.4190 C   0  0  0  0  0  2  0  0  0  0  0  0
  -26.0130  -29.5100   20.7790 C   0  0  0  0  0  0  0  0  0  0  0  0
  -27.2230  -28.7830   20.7660 C   0  0  0  0  0  3  0  0  0  0  0  0
  -26.1010  -26.9640   19.5950 C   0  0  0  0  0  3  0  0  0  0  0  0
  -24.8960  -27.6950   19.6010 C   0  0  0  0  0  3  0  0  0  0  0  0
  -23.6110  -29.8220   20.2340 C   0  0  0  0  0  2  0  0  0  0  0  0
  -24.6540  -31.1110   22.1550 N   0  0  0  0  0  0  0  0  0  0  0  0
  -23.5100  -32.1780   23.7960 O   0  0  0  0  0  0  0  0  0  0  0  0
  -22.7430  -29.4820   22.5690 C   0  0  0  0  0  0  0  0  0  0  0  0
  -21.4190  -29.3000   22.4350 N   0  0  0  0  0  0  0  0  0  0  0  0
  -23.4230  -28.8560   23.3840 O   0  0  0  0  0  0  0  0  0  0  0  0
  -20.9320  -29.8560   21.7460 H   0  0  0  0  0  0  0  0  0  0  0  0
  -18.0410  -28.1160   22.9260 C   0  0  0  0  0  0  0  0  0  0  0  0
  -20.5990  -28.3610   23.2000 C   0  0  0  0  0  3  0  0  0  0  0  0
  -20.6970  -26.9330   22.6160 C   0  0  0  0  0  2  0  0  0  0  0  0
  -19.5940  -26.6200   21.5980 C   0  0  0  0  0  2  0  0  0  0  0  0
  -18.2110  -26.7680   22.2420 C   0  0  0  0  0  2  0  0  0  0  0  0
  -19.1630  -28.8700   23.3600 C   0  0  0  0  0  0  0  0  0  0  0  0
  -18.9510  -30.1300   23.9600 C   0  0  0  0  0  3  0  0  0  0  0  0
  -17.6500  -30.6400   24.1230 C   0  0  0  0  0  3  0  0  0  0  0  0
  -16.5420  -29.8830   23.7060 C   0  0  0  0  0  3  0  0  0  0  0  0
  -16.7370  -28.6210   23.1150 C   0  0  0  0  0  3  0  0  0  0  0  0
  -25.8770  -32.5390   23.8860 C   0  0  0  0  0  3  0  0  0  0  0  0
  -25.5690  -33.9390   24.2070 N   0  0  0  0  0  0  0  0  0  0  0  0
  -25.9160  -34.9860   23.4470 C   0  0  0  0  0  0  0  0  0  0  0  0
  -26.5990  -34.8760   22.4260 O   0  0  0  0  0  0  0  0  0  0  0  0
  -24.9650  -34.0990   25.0000 H   0  0  0  0  0  0  0  0  0  0  0  0
  -24.2000  -36.7820   23.0570 C   0  0  0  0  0  1  0  0  0  0  0  0
  -25.4240  -36.3770   23.8920 C   0  0  0  0  0  3  0  0  0  0  0  0
  -27.5480  -37.2520   24.7570 C   0  0  0  0  0  1  0  0  0  0  0  0
  -26.4610  -37.4270   23.7970 N   0  0  0  0  0  0  0  0  0  0  0  0
  -26.0560  -38.3480   23.9420 H   0  0  0  0  0  0  0  0  0  0  0  0
  -26.3880  -31.7710   25.1660 C   0  0  1  0  0  0  0  0  0  0  0  0
  -25.2880  -31.5340   26.2290 C   0  0  0  0  0  1  0  0  0  0  0  0
  -26.9720  -30.3940   24.7760 C   0  0  0  0  0  1  0  0  0  0  0  0
  -27.5380  -32.5650   25.8310 C   0  0  0  0  0  1  0  0  0  0  0  0
  3  5  1  0
  4  6  2  0
  5  1  1  0
  5  2  2  0
  6  2  1  0
  6  9  1  0
  7  3  2  0
  7  4  1  0
  8  7  1  0
  9 19  1  0
 10 19  1  0
 11 16  1  0
 12 13  1  0
 12 11  1  0
 14 13  1  0
 14 23  1  0
 14 15  1  0
 16 10  1  0
 16 15  1  0
 17 10  2  0
 19 18  1  0
 20 21  2  0
 21 40  1  0
 22 21  1  0
 22 25  1  0
 23 20  1  0
 23 24  1  0
 24 22  2  0
 25 26  1  0
 26 27  2  0
 28 31  1  0
 28 27  1  0
 29 28  2  0
 30 29  1  0
 30 25  2  0
 31 32  1  0
 32 33  1  0
 33 34  2  0
 35 34  1  0
 35 39  1  0
 36 35  2  0
 37 32  2  0
 37 36  1  0
 38 37  1  0
 40 41  1  0
 41 44  1  0
 41 43  1  0
 42 40  2  0
 45 46  1  0
 45 20  1  0
 47 45  1  0
 48 52  1  0
 48 50  1  0
 50  1  1  0
 50 49  1  0
 51 48  2  0
 52 53  1  0
 54 53  1  0
 55 66  2  0
 56 54  1  0
 56 61  1  0
 57 65  1  0
 57 67  1  0
 58 64  1  0
 58 60  1  0
 59 65  1  0
 60 59  1  0
 61 60  2  0
 62 63  1  0
 62 56  2  0
 63 58  2  0
 64 57  1  0
 65 55  1  0
 67 69  2  0
 68 67  1  0
 70 68  1  0
 71 80  2  0
 71 76  1  0
 72 68  1  0
 72 76  1  0
 73 72  1  0
 74 75  1  0
 74 73  1  0
 75 71  1  0
 76 77  2  0
 77 78  1  0
 79 78  2  0
 80 79  1  0
 81 55  1  0
 81 82  1  0
 81 91  1  0
 82 85  1  0
 83 87  1  0
 83 82  1  0
 84 83  2  0
 87 86  1  0
 89 87  1  0
 89 90  1  0
 89 88  1  0
 91 94  1  1
 91 92  1  0
 93 91  1  0
M  ISO  4  10 100  19 100  53 101  54 101
M  END
>  <TORSDO>  (56) 
F 21

>  <SCORE>  (56) 
-13.592

>  <name>  (56) 
55

>  <ligand_id>  (56) 
55

>  <original_smiles>  (56) 
[H]c1c([H])c([H])c2c(c1[H])C([H])([H])C([H])([H])C([H])([H])C2([H])N([H])C(=O)C1([H])N(C(=O)C([H])(N([H])C(=O)C([H])(N([H])C([H])([H])[H])C([H])([H])[H])C(C([H])([H])[H])(C([H])([H])[H])C([H])([H])[H])C([H])([H])c2c([H])c(OC([H])([H])C([H])([H])C(=O)N(C([H])([H])[H])C([H])([H])c3c([H])c(F)c([H])c(C([H])([H])N(C(=O)N4C([H])([H])C([H])([H])C([H])([H])C([H])(n5nc(-c6c([H])c([H])c(Oc7c([H])c([H])c(F)c([H])c7F)c([H])c6[H])c(C(=O)N([H])[H])c5N([H])[H])C4([H])[H])C([H])([H])[H])c3[H])c([H])c([H])c2C1([H])[H]

>  <smiles>  (56) 
[H]c1c([H])c([H])c2c(c1[H])C([H])([H])C([H])([H])C([H])([H])C2([H])N([H])C(=O)C1([H])N(C(=O)C([H])(N([H])C(=O)C([H])(N([H])C([H])([H])[H])C([H])([H])[H])C(C([H])([H])[H])(C([H])([H])[H])C([H])([H])[H])C([H])([H])c2c([H])c(OC([H])([H])C([H])([H])C(=O)N(C([H])([H])[H])C([H])([H])c3c([H])c(F)c([H])c(C([H])([H])N(C(=O)N4C([H])([H])C([H])([H])C([H])([H])C([H])(n5nc(-c6c([H])c([H])c(Oc7c([H])c([H])c(F)c([H])c7F)c([H])c6[H])c(C(=O)N([H])[H])c5N([H])[H])C4([H])[H])C([H])([H])[H])c3[H])c([H])c([H])c2C1([H])[H]

$$$$
56:0:0
     RDKit          3D

 93 91  0  0  1  0  0  0  0  0999 V2000
  -26.4250  -17.7240   20.1070 N   0  0  0  0  0  0  0  0  0  0  0  0
  -25.8440  -14.9500   22.1420 C   0  0  0  0  0 15  0  0  0  0  0  0
  -26.2020  -12.7710   22.3230 C   0  0  0  0  0 15  0  0  0  0  0  0
  -27.2360  -12.6970   18.6310 C   0  0  0  0  0 15  0  0  0  0  0  0
  -27.1960  -14.8780   18.6700 C   0  0  0  0  0  1  0  0  0  0  0  0
  -26.3910  -16.0560   20.3110 C   0  0  0  0  0  1  0  0  0  0  0  0
  -26.9360  -11.5420   20.6140 C   0  0  0  0  0  1  0  0  0  0  0  0
  -27.4160   -9.8760   20.7700 Cl  0  0  0  0  0  0  0  0  0  0  0  0
  -28.8100  -15.3480   18.5360 C   0  0  0  0  0  2  0  0  0  0  0  0
  -31.0420  -14.3350   20.3540 C   0  0  0  0  0  0  0  0  0  0  0  0
  -31.4500  -11.9740   19.7420 C   0  0  0  0  0  2  0  0  0  0  0  0
  -30.5680  -11.7570   18.5000 C   0  0  0  0  0  2  0  0  0  0  0  0
  -29.1820  -11.4740   19.0630 C   0  0  0  0  0  2  0  0  0  0  0  0
  -28.8480  -12.6000   20.1460 C   0  0  0  0  0  2  0  0  0  0  0  0
  -29.7250  -12.5410   21.3230 C   0  0  0  0  0  2  0  0  0  0  0  0
  -30.8330  -13.0130   20.5960 N   0  0  0  0  0  0  0  0  0  0  0  0
  -32.1960  -14.6300   20.7060 O   0  0  0  0  0  0  0  0  0  0  0  0
  -31.1220  -16.1610   18.7930 C   0  0  0  0  0  1  0  0  0  0  0  0
  -30.2180  -15.1680   19.4300 N   0  0  0  0  0  0  0  0  0  0  0  0
  -25.7780  -13.9220   20.3540 C   0  0  0  0  0  1  0  0  0  0  0  0
  -24.4170  -13.4450   20.8320 C   0  0  0  0  0  3  0  0  0  0  0  0
  -24.4870  -12.2900   20.2140 C   0  0  0  0  0  3  0  0  0  0  0  0
  -27.3110  -13.7090   20.6020 N   0  0  0  0  0  1  0  0  0  0  0  0
  -25.4450  -13.4170   20.2790 N   0  0  0  0  0  0  0  0  0  0  0  0
  -24.0400  -10.8360   20.6760 C   0  0  0  0  0  0  0  0  0  0  0  0
  -24.4200   -9.8970   21.7160 C   0  0  0  0  0  3  0  0  0  0  0  0
  -23.7310   -8.6550   21.9430 C   0  0  0  0  0  3  0  0  0  0  0  0
  -22.5410   -8.3570   21.2380 C   0  0  0  0  0  0  0  0  0  0  0  0
  -22.1550   -9.2660   20.2450 C   0  0  0  0  0  3  0  0  0  0  0  0
  -22.8940  -10.4330   19.9670 C   0  0  0  0  0  3  0  0  0  0  0  0
  -21.7360   -7.2400   21.3670 O   0  0  0  0  0  0  0  0  0  0  0  0
  -21.6370   -6.4730   22.5060 C   0  0  0  0  0  0  0  0  0  0  0  0
  -21.2990   -7.0140   23.7660 C   0  0  0  0  0  3  0  0  0  0  0  0
  -21.1480   -6.1670   24.8840 C   0  0  0  0  0  3  0  0  0  0  0  0
  -21.3190   -4.7760   24.7470 C   0  0  0  0  0  0  0  0  0  0  0  0
  -21.6210   -4.2320   23.4880 C   0  0  0  0  0  3  0  0  0  0  0  0
  -21.7700   -5.0720   22.3720 C   0  0  0  0  0  0  0  0  0  0  0  0
  -22.0290   -4.5240   21.1600 F   0  0  0  0  0  0  0  0  0  0  0  0
  -21.1930   -3.9650   25.8250 F   0  0  0  0  0  0  0  0  0  0  0  0
  -23.0370  -14.0170   20.9080 C   0  0  0  0  0  0  0  0  0  0  0  0
  -22.2110  -13.3550   21.7140 N   0  0  0  0  0  0  0  0  0  0  0  0
  -22.7290  -14.9800   20.2270 O   0  0  0  0  0  0  0  0  0  0  0  0
  -22.5320  -12.5260   22.1960 H   0  0  0  0  0  0  0  0  0  0  0  0
  -21.2850  -13.7270   21.8940 H   0  0  0  0  0  0  0  0  0  0  0  0
  -27.5280  -14.1750   20.8270 N   0  0  0  0  0  0  0  0  0  0  0  0
  -27.3940  -14.5900   21.7410 H   0  0  0  0  0  0  0  0  0  0  0  0
  -27.8530  -14.9150   20.2240 H   0  0  0  0  0  0  0  0  0  0  0  0
  -24.5020  -18.0200   18.5440 C   0  0  0  0  0  1  0  0  0  0  0  0
  -24.9840  -17.9650   20.0010 C   0  0  0  0  0  2  0  0  0  0  0  0
  -27.1730  -19.3270   20.4380 C   0  0  0  0  0  1  0  0  0  0  0  0
  -27.2860  -21.2130   19.7150 C   0  0  0  0  0 15  0  0  0  0  0  0
  -27.4740  -23.1690   20.2230 C   0  0  0  0  0  1  0  0  0  0  0  0
  -27.9580  -24.8900   19.7960 O   0  0  0  0  0  0  0  0  0  0  0  0
  -24.7300  -31.3030   22.8480 C   0  0  0  0  0  0  0  0  0  0  0  0
  -27.2440  -26.2800   19.7700 C   0  0  0  0  0  0  0  0  0  0  0  0
  -23.6460  -29.9300   21.1350 C   0  0  0  0  0  3  0  0  0  0  0  0
  -25.1520  -28.4240   19.6630 C   0  0  0  0  0  0  0  0  0  0  0  0
  -26.2220  -30.1250   21.1040 C   0  0  0  0  0  2  0  0  0  0  0  0
  -26.3130  -28.7170   20.3830 C   0  0  0  0  0  0  0  0  0  0  0  0
  -27.3800  -27.6640   20.4030 C   0  0  0  0  0  3  0  0  0  0  0  0
  -26.1280  -26.2790   18.9320 C   0  0  0  0  0  3  0  0  0  0  0  0
  -25.1110  -27.2520   18.9040 C   0  0  0  0  0  3  0  0  0  0  0  0
  -23.9430  -29.3520   19.7270 C   0  0  0  0  0  2  0  0  0  0  0  0
  -24.8910  -30.4940   21.7450 N   0  0  0  0  0  0  0  0  0  0  0  0
  -23.6120  -31.5270   23.3460 O   0  0  0  0  0  0  0  0  0  0  0  0
  -22.9790  -28.8540   22.0340 C   0  0  0  0  0  0  0  0  0  0  0  0
  -21.6550  -28.6520   21.9010 N   0  0  0  0  0  0  0  0  0  0  0  0
  -23.6630  -28.2050   22.8310 O   0  0  0  0  0  0  0  0  0  0  0  0
  -21.1490  -29.2280   21.2430 H   0  0  0  0  0  0  0  0  0  0  0  0
  -18.3170  -27.3230   22.3870 C   0  0  0  0  0  0  0  0  0  0  0  0
  -20.8720  -27.6450   22.6220 C   0  0  0  0  0  3  0  0  0  0  0  0
  -21.0000  -26.2570   21.9500 C   0  0  0  0  0  2  0  0  0  0  0  0
  -19.8870  -25.9740   20.9370 C   0  0  0  0  0  2  0  0  0  0  0  0
  -18.5160  -26.0330   21.6120 C   0  0  0  0  0  2  0  0  0  0  0  0
  -19.4210  -28.0880   22.8500 C   0  0  0  0  0  0  0  0  0  0  0  0
  -19.1710  -29.2950   23.5400 C   0  0  0  0  0  3  0  0  0  0  0  0
  -17.8520  -29.7330   23.7710 C   0  0  0  0  0  3  0  0  0  0  0  0
  -16.7650  -28.9630   23.3210 C   0  0  0  0  0  3  0  0  0  0  0  0
  -16.9990  -27.7600   22.6320 C   0  0  0  0  0  3  0  0  0  0  0  0
  -25.9410  -31.9980   23.5330 C   0  0  0  0  0  3  0  0  0  0  0  0
  -25.5220  -33.3560   23.9320 N   0  0  0  0  0  0  0  0  0  0  0  0
  -25.8250  -34.4850   23.2780 C   0  0  0  0  0  0  0  0  0  0  0  0
  -26.5460  -34.4980   22.2780 O   0  0  0  0  0  0  0  0  0  0  0  0
  -24.8740  -33.4130   24.7030 H   0  0  0  0  0  0  0  0  0  0  0  0
  -24.0220  -36.2240   22.9750 C   0  0  0  0  0  1  0  0  0  0  0  0
  -25.2390  -35.8070   23.8160 C   0  0  0  0  0  3  0  0  0  0  0  0
  -27.2630  -36.7460   24.8510 C   0  0  0  0  0  1  0  0  0  0  0  0
  -26.2160  -36.9180   23.8480 N   0  0  0  0  0  0  0  0  0  0  0  0
  -25.7490  -37.8020   24.0300 H   0  0  0  0  0  0  0  0  0  0  0  0
  -26.4660  -31.2110   24.7990 C   0  0  1  0  0  0  0  0  0  0  0  0
  -25.3550  -30.8780   25.8230 C   0  0  0  0  0  1  0  0  0  0  0  0
  -27.1320  -29.8750   24.3980 C   0  0  0  0  0  1  0  0  0  0  0  0
  -27.5590  -32.0390   25.5150 C   0  0  0  0  0  1  0  0  0  0  0  0
  1  6  1  0
  1 50  1  0
  7  8  1  0
  9  5  1  0
  9 19  1  0
 10 16  1  0
 10 17  2  0
 11 16  1  0
 12 13  1  0
 12 11  1  0
 13 14  1  0
 14 15  1  0
 16 15  1  0
 18 19  1  0
 19 10  1  0
 21 40  1  0
 22 24  1  0
 22 25  1  0
 22 21  1  0
 23 45  1  0
 24 20  1  0
 24 21  1  0
 25 26  1  0
 26 27  2  0
 28 31  1  0
 28 27  1  0
 29 28  2  0
 30 29  1  0
 30 25  2  0
 31 32  1  0
 32 33  1  0
 33 34  2  0
 35 34  1  0
 35 39  1  0
 36 35  2  0
 37 32  2  0
 37 36  1  0
 38 37  1  0
 40 41  1  0
 41 44  1  0
 41 43  1  0
 42 40  2  0
 45 46  1  0
 47 45  1  0
 48 49  1  0
 49  1  1  0
 53 52  1  0
 54 65  2  0
 55 53  1  0
 55 60  1  0
 56 64  1  0
 56 66  1  0
 57 63  1  0
 57 59  1  0
 58 64  1  0
 59 60  2  0
 59 58  1  0
 61 55  2  0
 62 61  1  0
 62 57  2  0
 63 56  1  0
 64 54  1  0
 66 68  2  0
 67 66  1  0
 69 67  1  0
 70 79  2  0
 70 75  1  0
 71 67  1  0
 71 75  1  0
 72 71  1  0
 73 74  1  0
 73 72  1  0
 74 70  1  0
 75 76  2  0
 76 77  1  0
 78 77  2  0
 79 78  1  0
 80 54  1  0
 80 81  1  0
 80 90  1  0
 81 84  1  0
 82 86  1  0
 82 81  1  0
 83 82  2  0
 86 85  1  0
 86 88  1  0
 88 89  1  0
 88 87  1  0
 90 93  1  1
 90 91  1  0
 92 90  1  0
M  ISO  4  10 100  19 100  52 101  53 101
M  END
>  <TORSDO>  (57) 
F 22

>  <SCORE>  (57) 
-8.160

>  <name>  (57) 
56

>  <ligand_id>  (57) 
56

>  <original_smiles>  (57) 
[H]c1c([H])c([H])c2c(c1[H])C([H])([H])C([H])([H])C([H])([H])C2([H])N([H])C(=O)C1([H])N(C(=O)C([H])(N([H])C(=O)C([H])(N([H])C([H])([H])[H])C([H])([H])[H])C(C([H])([H])[H])(C([H])([H])[H])C([H])([H])[H])C([H])([H])c2c([H])c(OC([H])([H])C([H])([H])C([H])([H])N(c3c([H])c([H])c(Cl)c([H])c3C([H])([H])N(C(=O)N3C([H])([H])C([H])([H])C([H])([H])C([H])(n4nc(-c5c([H])c([H])c(Oc6c([H])c([H])c(F)c([H])c6F)c([H])c5[H])c(C(=O)N([H])[H])c4N([H])[H])C3([H])[H])C([H])([H])[H])C([H])([H])C([H])([H])[H])c([H])c([H])c2C1([H])[H]

>  <smiles>  (57) 
[H]c1c([H])c([H])c2c(c1[H])C([H])([H])C([H])([H])C([H])([H])C2([H])N([H])C(=O)C1([H])N(C(=O)C([H])(N([H])C(=O)C([H])(N([H])C([H])([H])[H])C([H])([H])[H])C(C([H])([H])[H])(C([H])([H])[H])C([H])([H])[H])C([H])([H])c2c([H])c(OC([H])([H])C([H])([H])C([H])([H])N(c3c([H])c([H])c(Cl)c([H])c3C([H])([H])N(C(=O)N3C([H])([H])C([H])([H])C([H])([H])C([H])(n4nc(-c5c([H])c([H])c(Oc6c([H])c([H])c(F)c([H])c6F)c([H])c5[H])c(C(=O)N([H])[H])c4N([H])[H])C3([H])[H])C([H])([H])[H])C([H])([H])C([H])([H])[H])c([H])c([H])c2C1([H])[H]

$$$$
57:0:0
     RDKit          3D

 92100  0  0  1  0  0  0  0  0999 V2000
  -29.9370  -18.9540   21.5700 C   0  0  0  0  0  3  0  0  0  0  0  0
  -29.6350  -20.3130   21.3050 C   0  0  0  0  0  3  0  0  0  0  0  0
  -28.2850  -18.2650   19.9350 C   0  0  0  0  0  3  0  0  0  0  0  0
  -29.2850  -17.9120   20.8660 C   0  0  0  0  0  0  0  0  0  0  0  0
  -28.6870  -20.6570   20.3080 C   0  0  0  0  0  0  0  0  0  0  0  0
  -28.0100  -19.6150   19.6420 C   0  0  0  0  0  0  0  0  0  0  0  0
  -27.0880  -19.9130   18.6930 F   0  0  0  0  0  0  0  0  0  0  0  0
  -29.6400  -16.4330   21.1060 C   0  0  0  0  0  2  0  0  0  0  0  0
  -30.9520  -14.5310   20.1560 C   0  0  0  0  0  0  0  0  0  0  0  0
  -30.5950  -12.3270   19.1250 C   0  0  0  0  0  2  0  0  0  0  0  0
  -29.6320  -12.4670   17.9290 C   0  0  0  0  0  2  0  0  0  0  0  0
  -28.1660  -12.3760   18.3930 C   0  0  0  0  0  2  0  0  0  0  0  0
  -27.8570  -13.2750   19.6210 C   0  0  0  0  0  3  0  0  0  0  0  0
  -28.9350  -13.1130   20.7160 C   0  0  0  0  0  2  0  0  0  0  0  0
  -30.2380  -13.3720   20.0960 N   0  0  0  0  0  0  0  0  0  0  0  0
  -32.1470  -14.5620   19.8550 O   0  0  0  0  0  0  0  0  0  0  0  0
  -30.2120  -15.6600   19.9700 N   0  0  0  0  0  0  0  0  0  0  0  0
  -25.4930  -13.9380   20.3800 C   0  0  0  0  0  0  0  0  0  0  0  0
  -24.4140  -13.1910   20.7660 C   0  0  0  0  0  0  0  0  0  0  0  0
  -24.8410  -11.8300   20.7290 C   0  0  0  0  0  0  0  0  0  0  0  0
  -26.5110  -13.0310   20.1330 N   0  0  0  0  0  0  0  0  0  0  0  0
  -26.1250  -11.7580   20.4020 N   0  0  0  0  0  0  0  0  0  0  0  0
  -24.0880  -10.5860   20.9340 C   0  0  0  0  0  0  0  0  0  0  0  0
  -24.5120   -9.6150   21.8690 C   0  0  0  0  0  3  0  0  0  0  0  0
  -23.7620   -8.4360   22.0630 C   0  0  0  0  0  3  0  0  0  0  0  0
  -22.5790   -8.2170   21.3200 C   0  0  0  0  0  0  0  0  0  0  0  0
  -22.1720   -9.1760   20.3760 C   0  0  0  0  0  3  0  0  0  0  0  0
  -22.9210  -10.3480   20.1790 C   0  0  0  0  0  3  0  0  0  0  0  0
  -21.8010   -7.0900   21.4230 O   0  0  0  0  0  0  0  0  0  0  0  0
  -21.7410   -6.3600   22.5830 C   0  0  0  0  0  0  0  0  0  0  0  0
  -21.3200   -6.9340   23.8030 C   0  0  0  0  0  3  0  0  0  0  0  0
  -21.2010   -6.1330   24.9550 C   0  0  0  0  0  3  0  0  0  0  0  0
  -21.4980   -4.7590   24.8890 C   0  0  0  0  0  0  0  0  0  0  0  0
  -21.9160   -4.1840   23.6760 C   0  0  0  0  0  3  0  0  0  0  0  0
  -22.0320   -4.9820   22.5250 C   0  0  0  0  0  0  0  0  0  0  0  0
  -22.4130   -4.4190   21.3530 F   0  0  0  0  0  0  0  0  0  0  0  0
  -21.3780   -3.9850   25.9950 F   0  0  0  0  0  0  0  0  0  0  0  0
  -23.0350  -13.7030   21.0620 C   0  0  0  0  0  0  0  0  0  0  0  0
  -22.3130  -13.0320   21.9510 N   0  0  0  0  0  0  0  0  0  0  0  0
  -22.6070  -14.7330   20.5400 O   0  0  0  0  0  0  0  0  0  0  0  0
  -22.6740  -12.1970   22.3900 H   0  0  0  0  0  0  0  0  0  0  0  0
  -21.3880  -13.3550   22.1980 H   0  0  0  0  0  0  0  0  0  0  0  0
  -25.6930  -15.3020   20.1990 N   0  0  0  0  0  0  0  0  0  0  0  0
  -24.9570  -15.9880   20.3290 H   0  0  0  0  0  0  0  0  0  0  0  0
  -26.5520  -15.6990   19.8440 H   0  0  0  0  0  0  0  0  0  0  0  0
  -31.5130  -17.2480   18.4580 C   0  0  0  0  0  1  0  0  0  0  0  0
  -30.2970  -16.3140   18.6440 C   0  0  0  0  0  2  0  0  0  0  0  0
  -28.3750  -21.9470   19.9150 O   0  0  0  0  0  0  0  0  0  0  0  0
  -28.9640  -23.0610   20.5840 C   0  0  0  0  0  2  0  0  0  0  0  0
  -28.4100  -24.3600   19.9600 C   0  0  0  0  0  2  0  0  0  0  0  0
  -28.7260  -25.6400   20.7640 C   0  0  0  0  0  2  0  0  0  0  0  0
  -28.6220  -26.8370   19.9870 O   0  0  0  0  0  0  0  0  0  0  0  0
  -24.6220  -31.7750   23.1980 C   0  0  0  0  0  0  0  0  0  0  0  0
  -27.4220  -27.5020   20.0420 C   0  0  0  0  0  0  0  0  0  0  0  0
  -23.4730  -30.3880   21.5000 C   0  0  0  0  0  3  0  0  0  0  0  0
  -24.9880  -28.9300   20.0580 C   0  0  0  0  0  0  0  0  0  0  0  0
  -25.9890  -30.8250   21.3470 C   0  0  0  0  0  2  0  0  0  0  0  0
  -26.1210  -29.4750   20.6730 C   0  0  0  0  0  0  0  0  0  0  0  0
  -27.3440  -28.7690   20.6620 C   0  0  0  0  0  3  0  0  0  0  0  0
  -26.2720  -26.9600   19.4330 C   0  0  0  0  0  3  0  0  0  0  0  0
  -25.0560  -27.6690   19.4390 C   0  0  0  0  0  3  0  0  0  0  0  0
  -23.7200  -29.7560   20.1060 C   0  0  0  0  0  2  0  0  0  0  0  0
  -24.7110  -31.0100   22.0750 N   0  0  0  0  0  0  0  0  0  0  0  0
  -23.5270  -32.0030   23.7310 O   0  0  0  0  0  0  0  0  0  0  0  0
  -22.8370  -29.3240   22.4210 C   0  0  0  0  0  0  0  0  0  0  0  0
  -21.5160  -29.1210   22.2750 N   0  0  0  0  0  0  0  0  0  0  0  0
  -23.5250  -28.6860   23.2190 O   0  0  0  0  0  0  0  0  0  0  0  0
  -21.0210  -29.6830   21.5990 H   0  0  0  0  0  0  0  0  0  0  0  0
  -18.1580  -27.8680   22.7150 C   0  0  0  0  0  0  0  0  0  0  0  0
  -20.7110  -28.1440   23.0080 C   0  0  0  0  0  3  0  0  0  0  0  0
  -20.8350  -26.7390   22.3770 C   0  0  0  0  0  2  0  0  0  0  0  0
  -19.7410  -26.4440   21.3470 C   0  0  0  0  0  2  0  0  0  0  0  0
  -18.3540  -26.5460   21.9900 C   0  0  0  0  0  2  0  0  0  0  0  0
  -19.2650  -28.6250   23.1780 C   0  0  0  0  0  0  0  0  0  0  0  0
  -19.0300  -29.8640   23.8130 C   0  0  0  0  0  3  0  0  0  0  0  0
  -17.7200  -30.3420   23.9950 C   0  0  0  0  0  3  0  0  0  0  0  0
  -16.6260  -29.5800   23.5500 C   0  0  0  0  0  3  0  0  0  0  0  0
  -16.8450  -28.3460   22.9120 C   0  0  0  0  0  3  0  0  0  0  0  0
  -25.8840  -32.4190   23.8520 C   0  0  0  0  0  3  0  0  0  0  0  0
  -25.5530  -33.8130   24.1740 N   0  0  0  0  0  0  0  0  0  0  0  0
  -25.8970  -34.8680   23.4230 C   0  0  0  0  0  0  0  0  0  0  0  0
  -26.5990  -34.7700   22.4120 O   0  0  0  0  0  0  0  0  0  0  0  0
  -24.9330  -33.9610   24.9570 H   0  0  0  0  0  0  0  0  0  0  0  0
  -24.1640  -36.6420   23.0110 C   0  0  0  0  0  1  0  0  0  0  0  0
  -25.3830  -36.2520   23.8620 C   0  0  0  0  0  3  0  0  0  0  0  0
  -27.4800  -37.1630   24.7560 C   0  0  0  0  0  1  0  0  0  0  0  0
  -26.4090  -37.3160   23.7760 N   0  0  0  0  0  0  0  0  0  0  0  0
  -25.9890  -38.2340   23.9060 H   0  0  0  0  0  0  0  0  0  0  0  0
  -26.3770  -31.6500   25.1390 C   0  0  1  0  0  0  0  0  0  0  0  0
  -25.2610  -31.3980   26.1800 C   0  0  0  0  0  1  0  0  0  0  0  0
  -26.9850  -30.2790   24.7580 C   0  0  0  0  0  1  0  0  0  0  0  0
  -27.5010  -32.4550   25.8330 C   0  0  0  0  0  1  0  0  0  0  0  0
  2  1  1  0
  3  4  1  0
  4  8  1  0
  4  1  2  0
  5  2  2  0
  6  3  2  0
  6  5  1  0
  7  6  1  0
 10 15  1  0
 11 12  1  0
 11 10  1  0
 13 12  1  0
 13 21  1  0
 13 14  1  0
 15  9  1  0
 15 14  1  0
 16  9  2  0
 17  9  1  0
 17  8  1  0
 18 19  2  0
 19 38  1  0
 20 19  1  0
 20 23  1  0
 21 18  1  0
 21 22  1  0
 22 20  2  0
 23 24  1  0
 24 25  2  0
 26 29  1  0
 26 25  1  0
 27 26  2  0
 28 27  1  0
 28 23  2  0
 29 30  1  0
 30 31  1  0
 31 32  2  0
 33 32  1  0
 33 37  1  0
 34 33  2  0
 35 30  2  0
 35 34  1  0
 36 35  1  0
 38 39  1  0
 39 42  1  0
 39 41  1  0
 40 38  2  0
 43 44  1  0
 43 18  1  0
 45 43  1  0
 46 47  1  0
 47 17  1  0
 48  5  1  0
 48 49  1  0
 50 49  1  0
 50 51  1  0
 52 54  1  0
 52 51  1  0
 53 64  2  0
 54 59  1  0
 55 63  1  0
 55 65  1  0
 56 62  1  0
 56 58  1  0
 57 63  1  0
 58 57  1  0
 59 58  2  0
 60 61  1  0
 60 54  2  0
 61 56  2  0
 62 55  1  0
 63 53  1  0
 65 67  2  0
 66 65  1  0
 68 66  1  0
 69 78  2  0
 69 74  1  0
 70 66  1  0
 70 74  1  0
 71 70  1  0
 72 73  1  0
 72 71  1  0
 73 69  1  0
 74 75  2  0
 75 76  1  0
 77 76  2  0
 78 77  1  0
 79 53  1  0
 79 80  1  0
 79 89  1  0
 80 83  1  0
 81 85  1  0
 81 80  1  0
 82 81  2  0
 85 84  1  0
 87 85  1  0
 87 88  1  0
 87 86  1  0
 89 92  1  1
 89 90  1  0
 91 89  1  0
M  ISO  4   9 100  17 100  51 101  52 101
M  END
>  <TORSDO>  (58) 
F 22

>  <SCORE>  (58) 
-12.888

>  <name>  (58) 
57

>  <ligand_id>  (58) 
57

>  <original_smiles>  (58) 
[H]c1c([H])c([H])c2c(c1[H])C([H])([H])C([H])([H])C([H])([H])C2([H])N([H])C(=O)C1([H])N(C(=O)C([H])(N([H])C(=O)C([H])(N([H])C([H])([H])[H])C([H])([H])[H])C(C([H])([H])[H])(C([H])([H])[H])C([H])([H])[H])C([H])([H])c2c([H])c(OC([H])([H])C([H])([H])C([H])([H])Oc3c([H])c([H])c(C([H])([H])N(C(=O)N4C([H])([H])C([H])([H])C([H])([H])C([H])(n5nc(-c6c([H])c([H])c(Oc7c([H])c([H])c(F)c([H])c7F)c([H])c6[H])c(C(=O)N([H])[H])c5N([H])[H])C4([H])[H])C([H])([H])C([H])([H])[H])c([H])c3F)c([H])c([H])c2C1([H])[H]

>  <smiles>  (58) 
[H]c1c([H])c([H])c2c(c1[H])C([H])([H])C([H])([H])C([H])([H])C2([H])N([H])C(=O)C1([H])N(C(=O)C([H])(N([H])C(=O)C([H])(N([H])C([H])([H])[H])C([H])([H])[H])C(C([H])([H])[H])(C([H])([H])[H])C([H])([H])[H])C([H])([H])c2c([H])c(OC([H])([H])C([H])([H])C([H])([H])Oc3c([H])c([H])c(C([H])([H])N(C(=O)N4C([H])([H])C([H])([H])C([H])([H])C([H])(n5nc(-c6c([H])c([H])c(Oc7c([H])c([H])c(F)c([H])c7F)c([H])c6[H])c(C(=O)N([H])[H])c5N([H])[H])C4([H])[H])C([H])([H])C([H])([H])[H])c([H])c3F)c([H])c([H])c2C1([H])[H]

$$$$
58:0:0
     RDKit          3D

 98107  0  0  1  0  0  0  0  0999 V2000
  -29.0280  -20.7330   18.6560 C   0  0  0  0  0  3  0  0  0  0  0  0
  -28.6610  -20.1190   17.4450 C   0  0  0  0  0  3  0  0  0  0  0  0
  -29.5460  -18.0060   18.2510 C   0  0  0  0  0  3  0  0  0  0  0  0
  -29.9320  -18.6070   19.4700 C   0  0  0  0  0  0  0  0  0  0  0  0
  -29.6700  -20.0020   19.6790 C   0  0  0  0  0  0  0  0  0  0  0  0
  -28.9210  -18.7490   17.2310 C   0  0  0  0  0  0  0  0  0  0  0  0
  -30.8850  -18.4830   21.8490 C   0  0  0  0  0  2  0  0  0  0  0  0
  -30.0160  -19.7560   22.0530 C   0  0  0  0  0  2  0  0  0  0  0  0
  -30.7350  -17.7600   20.4790 C   0  0  0  0  0  3  0  0  0  0  0  0
  -30.0080  -20.6510   20.8910 N   0  0  0  0  0  0  0  0  0  0  0  0
  -31.0780  -15.2470   20.0660 C   0  0  0  0  0  0  0  0  0  0  0  0
  -30.6790  -13.2630   18.6450 C   0  0  0  0  0  2  0  0  0  0  0  0
  -29.6770  -13.6540   17.5380 C   0  0  0  0  0  2  0  0  0  0  0  0
  -28.2280  -13.4700   18.0300 C   0  0  0  0  0  2  0  0  0  0  0  0
  -27.9810  -14.0920   19.4320 C   0  0  0  0  0  3  0  0  0  0  0  0
  -29.1010  -13.7130   20.4290 C   0  0  0  0  0  2  0  0  0  0  0  0
  -30.3820  -14.0970   19.8250 N   0  0  0  0  0  0  0  0  0  0  0  0
  -32.2280  -15.4010   19.6530 O   0  0  0  0  0  0  0  0  0  0  0  0
  -30.3680  -16.3030   20.5580 N   0  0  0  0  0  0  0  0  0  0  0  0
  -29.4280  -16.0960   20.8620 H   0  0  0  0  0  0  0  0  0  0  0  0
  -25.5770  -14.5860   20.1890 C   0  0  0  0  0  0  0  0  0  0  0  0
  -24.5530  -13.7670   20.5860 C   0  0  0  0  0  0  0  0  0  0  0  0
  -25.0790  -12.4400   20.5590 C   0  0  0  0  0  0  0  0  0  0  0  0
  -26.6560  -13.7530   19.9430 N   0  0  0  0  0  0  0  0  0  0  0  0
  -26.3630  -12.4580   20.2270 N   0  0  0  0  0  0  0  0  0  0  0  0
  -24.4140  -11.1470   20.7740 C   0  0  0  0  0  0  0  0  0  0  0  0
  -24.8500  -10.2490   21.7740 C   0  0  0  0  0  3  0  0  0  0  0  0
  -24.1850   -9.0200   21.9730 C   0  0  0  0  0  3  0  0  0  0  0  0
  -23.0690   -8.6790   21.1710 C   0  0  0  0  0  0  0  0  0  0  0  0
  -22.6540   -9.5660   20.1620 C   0  0  0  0  0  3  0  0  0  0  0  0
  -23.3210  -10.7870   19.9610 C   0  0  0  0  0  3  0  0  0  0  0  0
  -22.3750   -7.4980   21.2760 O   0  0  0  0  0  0  0  0  0  0  0  0
  -22.2240   -6.8560   22.4790 C   0  0  0  0  0  0  0  0  0  0  0  0
  -21.6410   -7.4930   23.5970 C   0  0  0  0  0  3  0  0  0  0  0  0
  -21.4430   -6.7740   24.7920 C   0  0  0  0  0  3  0  0  0  0  0  0
  -21.8180   -5.4190   24.8710 C   0  0  0  0  0  0  0  0  0  0  0  0
  -22.3960   -4.7830   23.7580 C   0  0  0  0  0  3  0  0  0  0  0  0
  -22.5970   -5.4990   22.5660 C   0  0  0  0  0  0  0  0  0  0  0  0
  -23.1320   -4.8750   21.4890 F   0  0  0  0  0  0  0  0  0  0  0  0
  -21.6210   -4.7260   26.0170 F   0  0  0  0  0  0  0  0  0  0  0  0
  -23.1410  -14.1820   20.8770 C   0  0  0  0  0  0  0  0  0  0  0  0
  -22.4750  -13.4880   21.7950 N   0  0  0  0  0  0  0  0  0  0  0  0
  -22.6340  -15.1570   20.3260 O   0  0  0  0  0  0  0  0  0  0  0  0
  -22.8980  -12.7000   22.2630 H   0  0  0  0  0  0  0  0  0  0  0  0
  -21.5280  -13.7480   22.0320 H   0  0  0  0  0  0  0  0  0  0  0  0
  -25.6720  -15.9590   19.9990 N   0  0  0  0  0  0  0  0  0  0  0  0
  -24.8710  -16.5690   20.1250 H   0  0  0  0  0  0  0  0  0  0  0  0
  -26.4860  -16.4460   19.6470 H   0  0  0  0  0  0  0  0  0  0  0  0
  -30.3970  -22.0920   20.9380 C   0  0  0  0  0  3  0  0  0  0  0  0
  -29.2780  -23.1360   21.3020 C   0  0  0  0  0  3  0  0  0  0  0  0
  -29.6560  -24.6630   21.1160 C   0  0  0  0  0  3  0  0  0  0  0  0
  -28.4590  -25.6780   21.2100 C   0  0  0  0  0  3  0  0  0  0  0  0
  -28.6740  -27.0650   20.7730 O   0  0  0  0  0  0  0  0  0  0  0  0
  -24.6650  -32.3580   23.5350 C   0  0  0  0  0  0  0  0  0  0  0  0
  -27.5280  -27.8560   20.6740 C   0  0  0  0  0  0  0  0  0  0  0  0
  -23.5650  -30.8960   21.8780 C   0  0  0  0  0  3  0  0  0  0  0  0
  -25.1130  -29.3700   20.5390 C   0  0  0  0  0  0  0  0  0  0  0  0
  -26.0960  -31.2940   21.7860 C   0  0  0  0  0  2  0  0  0  0  0  0
  -26.2400  -29.9090   21.1730 C   0  0  0  0  0  0  0  0  0  0  0  0
  -27.4490  -29.1610   21.2370 C   0  0  0  0  0  3  0  0  0  0  0  0
  -26.3830  -27.3670   20.0010 C   0  0  0  0  0  3  0  0  0  0  0  0
  -25.1860  -28.1000   19.9470 C   0  0  0  0  0  3  0  0  0  0  0  0
  -23.8500  -30.2020   20.5200 C   0  0  0  0  0  2  0  0  0  0  0  0
  -24.7910  -31.5340   22.4570 N   0  0  0  0  0  0  0  0  0  0  0  0
  -23.5550  -32.6130   24.0220 O   0  0  0  0  0  0  0  0  0  0  0  0
  -22.8970  -29.8740   22.8290 C   0  0  0  0  0  0  0  0  0  0  0  0
  -21.5960  -29.6180   22.6160 N   0  0  0  0  0  0  0  0  0  0  0  0
  -23.5510  -29.3140   23.7130 O   0  0  0  0  0  0  0  0  0  0  0  0
  -21.1310  -30.1200   21.8730 H   0  0  0  0  0  0  0  0  0  0  0  0
  -18.2540  -28.2700   22.9360 C   0  0  0  0  0  0  0  0  0  0  0  0
  -20.7730  -28.6640   23.3640 C   0  0  0  0  0  3  0  0  0  0  0  0
  -20.9840  -27.2230   22.8470 C   0  0  0  0  0  2  0  0  0  0  0  0
  -19.9690  -26.8140   21.7760 C   0  0  0  0  0  2  0  0  0  0  0  0
  -18.5410  -26.9090   22.3220 C   0  0  0  0  0  2  0  0  0  0  0  0
  -19.3050  -29.1000   23.4100 C   0  0  0  0  0  0  0  0  0  0  0  0
  -18.9900  -30.3700   23.9390 C   0  0  0  0  0  3  0  0  0  0  0  0
  -17.6550  -30.8110   24.0050 C   0  0  0  0  0  3  0  0  0  0  0  0
  -16.6170  -29.9780   23.5500 C   0  0  0  0  0  3  0  0  0  0  0  0
  -16.9170  -28.7110   23.0200 C   0  0  0  0  0  3  0  0  0  0  0  0
  -25.9070  -33.0350   24.1940 C   0  0  0  0  0  3  0  0  0  0  0  0
  -25.5510  -34.4330   24.4710 N   0  0  0  0  0  0  0  0  0  0  0  0
  -25.9010  -35.4740   23.7030 C   0  0  0  0  0  0  0  0  0  0  0  0
  -26.6280  -35.3600   22.7140 O   0  0  0  0  0  0  0  0  0  0  0  0
  -24.9050  -34.5910   25.2320 H   0  0  0  0  0  0  0  0  0  0  0  0
  -24.1630  -37.2230   23.2080 C   0  0  0  0  0  1  0  0  0  0  0  0
  -25.3620  -36.8620   24.0990 C   0  0  0  0  0  3  0  0  0  0  0  0
  -27.4350  -37.7970   25.0230 C   0  0  0  0  0  1  0  0  0  0  0  0
  -26.3800  -37.9330   24.0220 N   0  0  0  0  0  0  0  0  0  0  0  0
  -25.9500  -38.8490   24.1370 H   0  0  0  0  0  0  0  0  0  0  0  0
  -26.3800  -32.3090   25.5130 C   0  0  1  0  0  0  0  0  0  0  0  0
  -25.2330  -32.0170   26.5070 C   0  0  0  0  0  1  0  0  0  0  0  0
  -27.0720  -30.9650   25.1830 C   0  0  0  0  0  1  0  0  0  0  0  0
  -27.4360  -33.1790   26.2360 C   0  0  0  0  0  1  0  0  0  0  0  0
  -28.5790  -18.1050   16.0280 N   0  0  0  0  0  0  0  0  0  0  0  0
  -26.4500  -19.2060   15.3410 C   0  0  0  0  0  1  0  0  0  0  0  0
  -27.1360  -17.9340   15.8580 C   0  0  0  0  0  2  0  0  0  0  0  0
  -30.8810  -18.2140   15.0460 C   0  0  0  0  0  1  0  0  0  0  0  0
  -29.3740  -18.4170   14.8360 C   0  0  0  0  0  2  0  0  0  0  0  0
  1  5  1  0
  2  1  2  0
  3  4  1  0
  4  5  2  0
  4  9  1  0
  5 10  1  0
  6  2  1  0
  6  3  2  0
  7  8  1  0
  9 19  1  0
  9  7  1  0
 10 49  1  0
 10  8  1  0
 11 19  1  0
 12 17  1  0
 13 14  1  0
 13 12  1  0
 15 14  1  0
 15 24  1  0
 15 16  1  0
 17 11  1  0
 17 16  1  0
 18 11  2  0
 19 20  1  0
 21 22  2  0
 22 41  1  0
 23 22  1  0
 23 26  1  0
 24 21  1  0
 24 25  1  0
 25 23  2  0
 26 27  1  0
 27 28  2  0
 29 32  1  0
 29 28  1  0
 30 29  2  0
 31 30  1  0
 31 26  2  0
 32 33  1  0
 33 38  2  0
 33 34  1  0
 34 35  2  0
 35 36  1  0
 36 40  1  0
 37 36  2  0
 38 37  1  0
 39 38  1  0
 41 42  1  0
 42 45  1  0
 42 44  1  0
 43 41  2  0
 46 47  1  0
 46 21  1  0
 48 46  1  0
 49 50  2  0
 51 52  2  0
 51 50  1  0
 53 52  1  0
 54 65  2  0
 55 53  1  0
 55 60  1  0
 56 64  1  0
 56 66  1  0
 57 59  1  0
 58 64  1  0
 59 60  2  0
 59 58  1  0
 61 55  2  0
 62 61  1  0
 62 57  2  0
 63 57  1  0
 63 56  1  0
 64 54  1  0
 66 68  2  0
 67 66  1  0
 69 67  1  0
 70 79  2  0
 70 75  1  0
 71 67  1  0
 71 75  1  0
 72 71  1  0
 73 74  1  0
 73 72  1  0
 74 70  1  0
 75 76  2  0
 76 77  1  0
 78 77  2  0
 79 78  1  0
 80 54  1  0
 80 81  1  0
 80 90  1  0
 81 84  1  0
 82 86  1  0
 82 81  1  0
 83 82  2  0
 86 85  1  0
 88 86  1  0
 88 89  1  0
 88 87  1  0
 90 93  1  1
 90 91  1  0
 92 90  1  0
 94  6  1  0
 95 96  1  0
 96 94  1  0
 98 97  1  0
 98 94  1  0
M  ISO  4  11 100  19 100  52 101  53 101
M  END
>  <TORSDO>  (59) 
F 23

>  <SCORE>  (59) 
-5.861

>  <name>  (59) 
58

>  <ligand_id>  (59) 
58

>  <original_smiles>  (59) 
[H]c1c([H])c([H])c2c(c1[H])C([H])([H])C([H])([H])C([H])([H])C2([H])N([H])C(=O)C1([H])N(C(=O)C([H])(N([H])C(=O)C([H])(N([H])C([H])([H])[H])C([H])([H])[H])C(C([H])([H])[H])(C([H])([H])[H])C([H])([H])[H])C([H])([H])c2c([H])c(OC([H])([H])C([H])([H])C([H])([H])C([H])([H])N3c4c([H])c([H])c(N(C([H])([H])C([H])([H])[H])C([H])([H])C([H])([H])[H])c([H])c4C([H])(N([H])C(=O)N4C([H])([H])C([H])([H])C([H])([H])C([H])(n5nc(-c6c([H])c([H])c(Oc7c([H])c([H])c(F)c([H])c7F)c([H])c6[H])c(C(=O)N([H])[H])c5N([H])[H])C4([H])[H])C([H])([H])C3([H])[H])c([H])c([H])c2C1([H])[H]

>  <smiles>  (59) 
[H]c1c([H])c([H])c2c(c1[H])C([H])([H])C([H])([H])C([H])([H])C2([H])N([H])C(=O)C1([H])N(C(=O)C([H])(N([H])C(=O)C([H])(N([H])C([H])([H])[H])C([H])([H])[H])C(C([H])([H])[H])(C([H])([H])[H])C([H])([H])[H])C([H])([H])c2c([H])c(OC([H])([H])C([H])([H])C([H])([H])C([H])([H])N3c4c([H])c([H])c(N(C([H])([H])C([H])([H])[H])C([H])([H])C([H])([H])[H])c([H])c4C([H])(N([H])C(=O)N4C([H])([H])C([H])([H])C([H])([H])C([H])(n5nc(-c6c([H])c([H])c(Oc7c([H])c([H])c(F)c([H])c7F)c([H])c6[H])c(C(=O)N([H])[H])c5N([H])[H])C4([H])[H])C([H])([H])C3([H])[H])c([H])c([H])c2C1([H])[H]

$$$$
59:0:0
     RDKit          3D

 88 96  0  0  1  0  0  0  0  0999 V2000
  -30.0230  -21.6040   19.0710 C   0  0  0  0  0  3  0  0  0  0  0  0
  -30.3600  -20.1050   19.1620 C   0  0  0  0  0  3  0  0  0  0  0  0
  -28.8740  -22.4050   19.5960 C   0  0  0  0  0  0  0  0  0  0  0  0
  -28.1470  -21.2660   20.2340 C   0  0  0  0  0  0  0  0  0  0  0  0
  -29.6200  -18.9710   19.7890 C   0  0  0  0  0  0  0  0  0  0  0  0
  -28.4750  -19.7680   20.3090 C   0  0  0  0  0  0  0  0  0  0  0  0
  -26.8250  -21.6670   20.8710 C   0  0  0  0  0  1  0  0  0  0  0  0
  -27.5500  -19.0020   20.9370 F   0  0  0  0  0  0  0  0  0  0  0  0
  -30.5660  -15.9450   19.6850 C   0  0  0  0  0  0  0  0  0  0  0  0
  -30.6370  -13.3870   18.9210 C   0  0  0  0  0  2  0  0  0  0  0  0
  -29.6700  -12.9830   17.7700 C   0  0  0  0  0  2  0  0  0  0  0  0
  -28.2750  -12.6410   18.3170 C   0  0  0  0  0  2  0  0  0  0  0  0
  -27.8350  -13.6590   19.3940 C   0  0  0  0  0  3  0  0  0  0  0  0
  -28.9310  -13.9700   20.4400 C   0  0  0  0  0  2  0  0  0  0  0  0
  -30.0700  -14.5710   19.7100 N   0  0  0  0  0  0  0  0  0  0  0  0
  -31.7730  -15.9170   19.3730 O   0  0  0  0  0  0  0  0  0  0  0  0
  -29.7550  -17.2540   19.8690 N   0  0  0  0  0  0  0  0  0  0  0  0
  -28.8720  -16.9230   20.2290 H   0  0  0  0  0  0  0  0  0  0  0  0
  -25.5550  -14.2110   20.3680 C   0  0  0  0  0  0  0  0  0  0  0  0
  -24.5070  -13.4380   20.7800 C   0  0  0  0  0  0  0  0  0  0  0  0
  -24.9340  -12.0810   20.6410 C   0  0  0  0  0  0  0  0  0  0  0  0
  -26.5520  -13.3290   19.9980 N   0  0  0  0  0  0  0  0  0  0  0  0
  -26.1980  -12.0370   20.2270 N   0  0  0  0  0  0  0  0  0  0  0  0
  -24.1890  -10.8280   20.8230 C   0  0  0  0  0  0  0  0  0  0  0  0
  -24.6010   -9.8480   21.7530 C   0  0  0  0  0  3  0  0  0  0  0  0
  -23.8520   -8.6640   21.9250 C   0  0  0  0  0  3  0  0  0  0  0  0
  -22.6760   -8.4510   21.1670 C   0  0  0  0  0  0  0  0  0  0  0  0
  -22.2830   -9.4180   20.2270 C   0  0  0  0  0  3  0  0  0  0  0  0
  -23.0310  -10.5930   20.0520 C   0  0  0  0  0  3  0  0  0  0  0  0
  -21.9010   -7.3190   21.2490 O   0  0  0  0  0  0  0  0  0  0  0  0
  -21.7610   -6.6250   22.4250 C   0  0  0  0  0  0  0  0  0  0  0  0
  -21.2230   -7.2250   23.5840 C   0  0  0  0  0  3  0  0  0  0  0  0
  -21.0320   -6.4560   24.7500 C   0  0  0  0  0  3  0  0  0  0  0  0
  -21.3690   -5.0900   24.7560 C   0  0  0  0  0  0  0  0  0  0  0  0
  -21.9000   -4.4910   23.6010 C   0  0  0  0  0  3  0  0  0  0  0  0
  -22.0930   -5.2560   22.4380 C   0  0  0  0  0  0  0  0  0  0  0  0
  -22.5840   -4.6670   21.3210 F   0  0  0  0  0  0  0  0  0  0  0  0
  -21.1780   -4.3500   25.8740 F   0  0  0  0  0  0  0  0  0  0  0  0
  -23.1480  -13.9330   21.1790 C   0  0  0  0  0  0  0  0  0  0  0  0
  -22.4710  -13.2160   22.0680 N   0  0  0  0  0  0  0  0  0  0  0  0
  -22.7000  -14.9910   20.7360 O   0  0  0  0  0  0  0  0  0  0  0  0
  -22.8480  -12.3590   22.4440 H   0  0  0  0  0  0  0  0  0  0  0  0
  -21.5630  -13.5310   22.3790 H   0  0  0  0  0  0  0  0  0  0  0  0
  -25.7340  -15.5840   20.2440 N   0  0  0  0  0  0  0  0  0  0  0  0
  -24.9860  -16.2420   20.4330 H   0  0  0  0  0  0  0  0  0  0  0  0
  -26.5510  -16.0240   19.8410 H   0  0  0  0  0  0  0  0  0  0  0  0
  -28.2270  -24.1310   19.2450 C   0  0  0  0  0  2  0  0  0  0  0  0
  -28.4050  -25.8250   19.6340 O   0  0  0  0  0  0  0  0  0  0  0  0
  -24.5850  -31.7020   22.9500 C   0  0  0  0  0  0  0  0  0  0  0  0
  -27.3830  -26.9940   19.6320 C   0  0  0  0  0  0  0  0  0  0  0  0
  -23.4690  -30.3460   21.2290 C   0  0  0  0  0  3  0  0  0  0  0  0
  -25.0000  -28.8830   19.7070 C   0  0  0  0  0  0  0  0  0  0  0  0
  -26.0340  -30.6480   21.1100 C   0  0  0  0  0  2  0  0  0  0  0  0
  -26.1760  -29.2690   20.3620 C   0  0  0  0  0  0  0  0  0  0  0  0
  -27.3490  -28.3510   20.2980 C   0  0  0  0  0  3  0  0  0  0  0  0
  -26.1640  -26.8190   18.9300 C   0  0  0  0  0  3  0  0  0  0  0  0
  -25.0310  -27.6880   18.9670 C   0  0  0  0  0  3  0  0  0  0  0  0
  -23.7390  -29.7550   19.8150 C   0  0  0  0  0  2  0  0  0  0  0  0
  -24.7180  -30.9300   21.8170 N   0  0  0  0  0  0  0  0  0  0  0  0
  -23.4800  -31.9030   23.4840 O   0  0  0  0  0  0  0  0  0  0  0  0
  -22.8180  -29.2680   22.1380 C   0  0  0  0  0  0  0  0  0  0  0  0
  -21.4910  -29.0630   22.0280 N   0  0  0  0  0  0  0  0  0  0  0  0
  -23.5190  -28.6150   22.9160 O   0  0  0  0  0  0  0  0  0  0  0  0
  -20.9730  -29.6420   21.3810 H   0  0  0  0  0  0  0  0  0  0  0  0
  -18.1580  -27.7290   22.5870 C   0  0  0  0  0  0  0  0  0  0  0  0
  -20.7230  -28.0380   22.7460 C   0  0  0  0  0  3  0  0  0  0  0  0
  -20.8230  -26.6680   22.0320 C   0  0  0  0  0  2  0  0  0  0  0  0
  -19.6770  -26.4190   21.0470 C   0  0  0  0  0  2  0  0  0  0  0  0
  -18.3280  -26.4600   21.7700 C   0  0  0  0  0  2  0  0  0  0  0  0
  -19.2810  -28.4770   23.0330 C   0  0  0  0  0  0  0  0  0  0  0  0
  -19.0620  -29.6640   23.7660 C   0  0  0  0  0  3  0  0  0  0  0  0
  -17.7560  -30.1030   24.0540 C   0  0  0  0  0  3  0  0  0  0  0  0
  -16.6490  -29.3520   23.6210 C   0  0  0  0  0  3  0  0  0  0  0  0
  -16.8520  -28.1660   22.8940 C   0  0  0  0  0  3  0  0  0  0  0  0
  -25.8130  -32.3820   23.6260 C   0  0  0  0  0  3  0  0  0  0  0  0
  -25.4220  -33.7510   24.0200 N   0  0  0  0  0  0  0  0  0  0  0  0
  -25.6860  -34.8610   23.3150 C   0  0  0  0  0  0  0  0  0  0  0  0
  -26.3420  -34.8430   22.2700 O   0  0  0  0  0  0  0  0  0  0  0  0
  -24.8340  -33.8330   24.8340 H   0  0  0  0  0  0  0  0  0  0  0  0
  -23.8450  -36.5690   23.1080 C   0  0  0  0  0  1  0  0  0  0  0  0
  -25.1420  -36.2020   23.8500 C   0  0  0  0  0  3  0  0  0  0  0  0
  -27.2470  -37.1910   24.6420 C   0  0  0  0  0  1  0  0  0  0  0  0
  -26.1050  -37.3200   23.7400 N   0  0  0  0  0  0  0  0  0  0  0  0
  -25.6500  -38.2090   23.9290 H   0  0  0  0  0  0  0  0  0  0  0  0
  -26.3340  -31.5950   24.8920 C   0  0  1  0  0  0  0  0  0  0  0  0
  -25.2310  -31.2810   25.9310 C   0  0  0  0  0  1  0  0  0  0  0  0
  -26.9840  -30.2530   24.4850 C   0  0  0  0  0  1  0  0  0  0  0  0
  -27.4380  -32.4150   25.6010 C   0  0  0  0  0  1  0  0  0  0  0  0
  1  2  2  0
  1  3  1  0
  2  5  1  0
  3  4  2  0
  4  6  1  0
  4  7  1  0
  5 17  1  0
  5  6  2  0
  6  8  1  0
  9 15  1  0
  9 17  1  0
 10 15  1  0
 11 12  1  0
 11 10  1  0
 13 12  1  0
 13 22  1  0
 13 14  1  0
 15 14  1  0
 16  9  2  0
 17 18  1  0
 19 20  2  0
 20 39  1  0
 21 20  1  0
 21 24  1  0
 22 23  1  0
 22 19  1  0
 23 21  2  0
 24 25  1  0
 25 26  2  0
 27 30  1  0
 27 26  1  0
 28 27  2  0
 29 28  1  0
 29 24  2  0
 30 31  1  0
 31 36  2  0
 31 32  1  0
 32 33  2  0
 33 34  1  0
 34 38  1  0
 35 34  2  0
 36 35  1  0
 37 36  1  0
 39 40  1  0
 40 43  1  0
 40 42  1  0
 41 39  2  0
 44 19  1  0
 44 45  1  0
 46 44  1  0
 47  3  1  0
 47 48  1  0
 49 60  2  0
 50 48  1  0
 50 55  1  0
 51 59  1  0
 51 61  1  0
 52 58  1  0
 52 54  1  0
 53 59  1  0
 54 53  1  0
 55 54  2  0
 56 57  1  0
 56 50  2  0
 57 52  2  0
 58 51  1  0
 59 49  1  0
 61 63  2  0
 62 61  1  0
 64 62  1  0
 65 74  2  0
 65 70  1  0
 66 62  1  0
 66 70  1  0
 67 66  1  0
 68 69  1  0
 68 67  1  0
 69 65  1  0
 70 71  2  0
 71 72  1  0
 73 72  2  0
 74 73  1  0
 75 49  1  0
 75 76  1  0
 75 85  1  0
 76 79  1  0
 77 81  1  0
 77 76  1  0
 78 77  2  0
 81 80  1  0
 83 81  1  0
 83 84  1  0
 83 82  1  0
 85 88  1  1
 85 86  1  0
 87 85  1  0
M  ISO  4   9 100  17 100  47 101  48 101
M  END
>  <TORSDO>  (60) 
F 17

>  <SCORE>  (60) 
-14.600

>  <name>  (60) 
59

>  <ligand_id>  (60) 
59

>  <original_smiles>  (60) 
[H]c1c([H])c([H])c2c(c1[H])C([H])([H])C([H])([H])C([H])([H])C2([H])N([H])C(=O)C1([H])N(C(=O)C([H])(N([H])C(=O)C([H])(N([H])C([H])([H])[H])C([H])([H])[H])C(C([H])([H])[H])(C([H])([H])[H])C([H])([H])[H])C([H])([H])c2c([H])c(OC([H])([H])c3c([H])c([H])c(N([H])C(=O)N4C([H])([H])C([H])([H])C([H])([H])C([H])(n5nc(-c6c([H])c([H])c(Oc7c([H])c([H])c(F)c([H])c7F)c([H])c6[H])c(C(=O)N([H])[H])c5N([H])[H])C4([H])[H])c(F)c3C([H])([H])[H])c([H])c([H])c2C1([H])[H]

>  <smiles>  (60) 
[H]c1c([H])c([H])c2c(c1[H])C([H])([H])C([H])([H])C([H])([H])C2([H])N([H])C(=O)C1([H])N(C(=O)C([H])(N([H])C(=O)C([H])(N([H])C([H])([H])[H])C([H])([H])[H])C(C([H])([H])[H])(C([H])([H])[H])C([H])([H])[H])C([H])([H])c2c([H])c(OC([H])([H])c3c([H])c([H])c(N([H])C(=O)N4C([H])([H])C([H])([H])C([H])([H])C([H])(n5nc(-c6c([H])c([H])c(Oc7c([H])c([H])c(F)c([H])c7F)c([H])c6[H])c(C(=O)N([H])[H])c5N([H])[H])C4([H])[H])c(F)c3C([H])([H])[H])c([H])c([H])c2C1([H])[H]

$$$$
60:0:0
     RDKit          3D

 94103  0  0  1  0  0  0  0  0999 V2000
  -31.5310  -19.5070   19.0210 C   0  0  0  0  0  3  0  0  0  0  0  0
  -31.2100  -18.1820   19.3800 C   0  0  0  0  0  3  0  0  0  0  0  0
  -29.2520  -19.0830   20.4680 C   0  0  0  0  0  3  0  0  0  0  0  0
  -30.7500  -20.6420   19.3580 C   0  0  0  0  0  0  0  0  0  0  0  0
  -29.5440  -20.5240   20.1130 C   0  0  0  0  0  0  0  0  0  0  0  0
  -30.0580  -17.8570   20.1250 C   0  0  0  0  0  0  0  0  0  0  0  0
  -29.3030  -23.4020   18.5380 C   0  0  0  0  0  0  0  0  0  0  0  0
  -31.2930  -21.9840   18.8780 C   0  0  0  0  0  2  0  0  0  0  0  0
  -29.0240  -23.3110   20.0530 C   0  0  0  0  0  3  0  0  0  0  0  0
  -27.8030  -21.5440   21.5230 C   0  0  0  0  0  1  0  0  0  0  0  0
  -30.6240  -22.7250   16.5920 C   0  0  0  0  0  1  0  0  0  0  0  0
  -28.7660  -21.7810   20.4520 N   0  0  0  0  0  0  0  0  0  0  0  0
  -30.3560  -22.7280   18.0350 N   0  0  0  0  0  0  0  0  0  0  0  0
  -28.5340  -24.0390   17.8080 O   0  0  0  0  0  0  0  0  0  0  0  0
  -30.5390  -15.1310   20.2130 C   0  0  0  0  0  0  0  0  0  0  0  0
  -30.4000  -12.7700   19.2760 C   0  0  0  0  0  2  0  0  0  0  0  0
  -29.4600  -12.7170   18.0480 C   0  0  0  0  0  2  0  0  0  0  0  0
  -28.0010  -12.5030   18.4910 C   0  0  0  0  0  2  0  0  0  0  0  0
  -27.6040  -13.4210   19.6770 C   0  0  0  0  0  3  0  0  0  0  0  0
  -28.6690  -13.4420   20.7940 C   0  0  0  0  0  2  0  0  0  0  0  0
  -29.9300  -13.8690   20.1750 N   0  0  0  0  0  0  0  0  0  0  0  0
  -31.7400  -15.1480   19.9200 O   0  0  0  0  0  0  0  0  0  0  0  0
  -29.7920  -16.3480   20.4120 N   0  0  0  0  0  0  0  0  0  0  0  0
  -28.8580  -16.1590   20.7420 H   0  0  0  0  0  0  0  0  0  0  0  0
  -25.2340  -13.9890   20.4460 C   0  0  0  0  0  0  0  0  0  0  0  0
  -24.1740  -13.2120   20.8230 C   0  0  0  0  0  0  0  0  0  0  0  0
  -24.6410  -11.8620   20.7830 C   0  0  0  0  0  0  0  0  0  0  0  0
  -26.2740  -13.1150   20.1890 N   0  0  0  0  0  0  0  0  0  0  0  0
  -25.9290  -11.8290   20.4600 N   0  0  0  0  0  0  0  0  0  0  0  0
  -23.9170  -10.5970   20.9730 C   0  0  0  0  0  0  0  0  0  0  0  0
  -24.3380   -9.6380   21.9210 C   0  0  0  0  0  3  0  0  0  0  0  0
  -23.6100   -8.4410   22.0980 C   0  0  0  0  0  3  0  0  0  0  0  0
  -22.4490   -8.1950   21.3290 C   0  0  0  0  0  0  0  0  0  0  0  0
  -22.0490   -9.1420   20.3690 C   0  0  0  0  0  3  0  0  0  0  0  0
  -22.7770  -10.3300   20.1900 C   0  0  0  0  0  3  0  0  0  0  0  0
  -21.6950   -7.0490   21.4160 O   0  0  0  0  0  0  0  0  0  0  0  0
  -21.6070   -6.3340   22.5830 C   0  0  0  0  0  0  0  0  0  0  0  0
  -21.0890   -6.8990   23.7690 C   0  0  0  0  0  3  0  0  0  0  0  0
  -20.9510   -6.1060   24.9260 C   0  0  0  0  0  3  0  0  0  0  0  0
  -21.3200   -4.7490   24.8980 C   0  0  0  0  0  0  0  0  0  0  0  0
  -21.8300   -4.1820   23.7160 C   0  0  0  0  0  3  0  0  0  0  0  0
  -21.9700   -4.9710   22.5620 C   0  0  0  0  0  0  0  0  0  0  0  0
  -22.4420   -4.4150   21.4210 F   0  0  0  0  0  0  0  0  0  0  0  0
  -21.1810   -3.9840   26.0060 F   0  0  0  0  0  0  0  0  0  0  0  0
  -22.7780  -13.6880   21.1010 C   0  0  0  0  0  0  0  0  0  0  0  0
  -22.0500  -12.9830   21.9600 N   0  0  0  0  0  0  0  0  0  0  0  0
  -22.3420  -14.7200   20.5920 O   0  0  0  0  0  0  0  0  0  0  0  0
  -22.4170  -12.1490   22.3940 H   0  0  0  0  0  0  0  0  0  0  0  0
  -21.1120  -13.2820   22.1850 H   0  0  0  0  0  0  0  0  0  0  0  0
  -25.3940  -15.3620   20.2730 N   0  0  0  0  0  0  0  0  0  0  0  0
  -24.6280  -16.0120   20.4020 H   0  0  0  0  0  0  0  0  0  0  0  0
  -26.2280  -15.8000   19.9020 H   0  0  0  0  0  0  0  0  0  0  0  0
  -28.0260  -24.6600   20.4450 C   0  0  0  0  0  2  0  0  0  0  0  0
  -28.2750  -26.2060   20.1860 O   0  0  0  0  0  0  0  0  0  0  0  0
  -24.6180  -31.8990   23.2190 C   0  0  0  0  0  0  0  0  0  0  0  0
  -27.2170  -27.2010   20.1530 C   0  0  0  0  0  0  0  0  0  0  0  0
  -23.4250  -30.5100   21.5690 C   0  0  0  0  0  3  0  0  0  0  0  0
  -24.8840  -28.9560   20.1250 C   0  0  0  0  0  0  0  0  0  0  0  0
  -25.9780  -30.7900   21.4020 C   0  0  0  0  0  2  0  0  0  0  0  0
  -26.0620  -29.3990   20.7380 C   0  0  0  0  0  0  0  0  0  0  0  0
  -27.2300  -28.5400   20.7320 C   0  0  0  0  0  3  0  0  0  0  0  0
  -26.0150  -26.8750   19.4880 C   0  0  0  0  0  3  0  0  0  0  0  0
  -24.8760  -27.7100   19.4790 C   0  0  0  0  0  3  0  0  0  0  0  0
  -23.6500  -29.8490   20.1830 C   0  0  0  0  0  2  0  0  0  0  0  0
  -24.6930  -31.0890   22.1170 N   0  0  0  0  0  0  0  0  0  0  0  0
  -23.5310  -32.1680   23.7540 O   0  0  0  0  0  0  0  0  0  0  0  0
  -22.7570  -29.4870   22.5230 C   0  0  0  0  0  0  0  0  0  0  0  0
  -21.4340  -29.2890   22.3830 N   0  0  0  0  0  0  0  0  0  0  0  0
  -23.4330  -28.8790   23.3560 O   0  0  0  0  0  0  0  0  0  0  0  0
  -20.9420  -29.8340   21.6880 H   0  0  0  0  0  0  0  0  0  0  0  0
  -18.0750  -28.0160   22.8550 C   0  0  0  0  0  0  0  0  0  0  0  0
  -20.6250  -28.3340   23.1460 C   0  0  0  0  0  3  0  0  0  0  0  0
  -20.7630  -26.9050   22.5700 C   0  0  0  0  0  2  0  0  0  0  0  0
  -19.6770  -26.5600   21.5450 C   0  0  0  0  0  2  0  0  0  0  0  0
  -18.2860  -26.6740   22.1750 C   0  0  0  0  0  2  0  0  0  0  0  0
  -19.1730  -28.8020   23.2950 C   0  0  0  0  0  0  0  0  0  0  0  0
  -18.9210  -30.0570   23.8910 C   0  0  0  0  0  3  0  0  0  0  0  0
  -17.6030  -30.5260   24.0530 C   0  0  0  0  0  3  0  0  0  0  0  0
  -16.5190  -29.7370   23.6290 C   0  0  0  0  0  3  0  0  0  0  0  0
  -16.7570  -28.4860   23.0340 C   0  0  0  0  0  3  0  0  0  0  0  0
  -25.8910  -32.5410   23.8480 C   0  0  0  0  0  3  0  0  0  0  0  0
  -25.5760  -33.9400   24.1760 N   0  0  0  0  0  0  0  0  0  0  0  0
  -25.8700  -34.9940   23.4030 C   0  0  0  0  0  0  0  0  0  0  0  0
  -26.5060  -34.8910   22.3490 O   0  0  0  0  0  0  0  0  0  0  0  0
  -25.0190  -34.0940   25.0040 H   0  0  0  0  0  0  0  0  0  0  0  0
  -24.1050  -36.7630   23.1070 C   0  0  0  0  0  1  0  0  0  0  0  0
  -25.3850  -36.3820   23.8680 C   0  0  0  0  0  3  0  0  0  0  0  0
  -27.5350  -37.3090   24.6100 C   0  0  0  0  0  1  0  0  0  0  0  0
  -26.3980  -37.4470   23.7020 N   0  0  0  0  0  0  0  0  0  0  0  0
  -25.9840  -38.3640   23.8520 H   0  0  0  0  0  0  0  0  0  0  0  0
  -26.3980  -31.7790   25.1340 C   0  0  1  0  0  0  0  0  0  0  0  0
  -25.2980  -31.5490   26.1970 C   0  0  0  0  0  1  0  0  0  0  0  0
  -26.9850  -30.3990   24.7610 C   0  0  0  0  0  1  0  0  0  0  0  0
  -27.5420  -32.5790   25.7990 C   0  0  0  0  0  1  0  0  0  0  0  0
  1  4  2  0
  1  2  1  0
  2  6  2  0
  4  5  1  0
  5 12  1  0
  5  3  2  0
  6 23  1  0
  6  3  1  0
  7  9  1  0
  8  4  1  0
  9 53  1  0
  9 12  1  0
 11 13  1  0
 12 10  1  0
 13  7  1  0
 13  8  1  0
 14  7  2  0
 15 23  1  0
 16 21  1  0
 17 18  1  0
 17 16  1  0
 19 18  1  0
 19 28  1  0
 19 20  1  0
 21 15  1  0
 21 20  1  0
 22 15  2  0
 23 24  1  0
 25 26  2  0
 26 45  1  0
 27 26  1  0
 27 30  1  0
 28 25  1  0
 28 29  1  0
 29 27  2  0
 30 31  1  0
 31 32  2  0
 33 36  1  0
 33 32  1  0
 34 33  2  0
 35 34  1  0
 35 30  2  0
 36 37  1  0
 37 38  1  0
 38 39  2  0
 40 39  1  0
 40 44  1  0
 41 40  2  0
 42 37  2  0
 42 41  1  0
 43 42  1  0
 45 46  1  0
 46 49  1  0
 46 48  1  0
 47 45  2  0
 50 51  1  0
 50 25  1  0
 52 50  1  0
 54 53  1  0
 55 66  2  0
 56 54  1  0
 56 61  1  0
 57 65  1  0
 57 67  1  0
 58 64  1  0
 58 60  1  0
 59 65  1  0
 60 59  1  0
 61 60  2  0
 62 56  2  0
 63 62  1  0
 63 58  2  0
 64 57  1  0
 65 55  1  0
 67 69  2  0
 68 67  1  0
 70 68  1  0
 71 80  2  0
 71 76  1  0
 72 68  1  0
 72 76  1  0
 73 72  1  0
 74 75  1  0
 74 73  1  0
 75 71  1  0
 76 77  2  0
 77 78  1  0
 79 78  2  0
 80 79  1  0
 81 55  1  0
 81 82  1  0
 81 91  1  0
 82 85  1  0
 83 87  1  0
 83 82  1  0
 84 83  2  0
 87 86  1  0
 89 90  1  0
 89 87  1  0
 89 88  1  0
 91 94  1  1
 91 92  1  0
 93 91  1  0
M  ISO  4  15 100  23 100  53 101  54 101
M  END
>  <TORSDO>  (61) 
F 17

>  <SCORE>  (61) 
-15.632

>  <name>  (61) 
60

>  <ligand_id>  (61) 
60

>  <original_smiles>  (61) 
[H]c1c([H])c([H])c2c(c1[H])C([H])([H])C([H])([H])C([H])([H])C2([H])N([H])C(=O)C1([H])N(C(=O)C([H])(N([H])C(=O)C([H])(N([H])C([H])([H])[H])C([H])([H])[H])C(C([H])([H])[H])(C([H])([H])[H])C([H])([H])[H])C([H])([H])c2c([H])c(OC([H])([H])C3([H])C(=O)N(C([H])([H])[H])C([H])([H])c4c([H])c([H])c(N([H])C(=O)N5C([H])([H])C([H])([H])C([H])([H])C([H])(n6nc(-c7c([H])c([H])c(Oc8c([H])c([H])c(F)c([H])c8F)c([H])c7[H])c(C(=O)N([H])[H])c6N([H])[H])C5([H])[H])c([H])c4N3C([H])([H])[H])c([H])c([H])c2C1([H])[H]

>  <smiles>  (61) 
[H]c1c([H])c([H])c2c(c1[H])C([H])([H])C([H])([H])C([H])([H])C2([H])N([H])C(=O)C1([H])N(C(=O)C([H])(N([H])C(=O)C([H])(N([H])C([H])([H])[H])C([H])([H])[H])C(C([H])([H])[H])(C([H])([H])[H])C([H])([H])[H])C([H])([H])c2c([H])c(OC([H])([H])C3([H])C(=O)N(C([H])([H])[H])C([H])([H])c4c([H])c([H])c(N([H])C(=O)N5C([H])([H])C([H])([H])C([H])([H])C([H])(n6nc(-c7c([H])c([H])c(Oc8c([H])c([H])c(F)c([H])c8F)c([H])c7[H])c(C(=O)N([H])[H])c6N([H])[H])C5([H])[H])c([H])c4N3C([H])([H])[H])c([H])c([H])c2C1([H])[H]

$$$$
61:0:0
     RDKit          3D

 86 92  0  0  1  0  0  0  0  0999 V2000
  -31.6850  -21.7090   21.0870 C   0  0  0  0  0  3  0  0  0  0  0  0
  -31.9770  -20.3630   21.0670 C   0  0  0  0  0  3  0  0  0  0  0  0
  -30.4090  -22.1580   20.7730 C   0  0  0  0  0  3  0  0  0  0  0  0
  -31.0040  -19.4300   20.7310 C   0  0  0  0  0  3  0  0  0  0  0  0
  -29.2470  -21.4120   20.3980 C   0  0  0  0  0  3  0  0  0  0  0  0
  -29.6380  -19.6370   20.3760 C   0  0  0  0  0  0  0  0  0  0  0  0
  -30.0650  -16.2570   20.1490 C   0  0  0  0  0  0  0  0  0  0  0  0
  -30.2980  -13.6040   19.3100 C   0  0  0  0  0  2  0  0  0  0  0  0
  -29.4580  -12.9480   18.1600 C   0  0  0  0  0  2  0  0  0  0  0  0
  -28.0900  -12.4650   18.6580 C   0  0  0  0  0  2  0  0  0  0  0  0
  -27.5140  -13.4760   19.6650 C   0  0  0  0  0  3  0  0  0  0  0  0
  -28.5230  -14.0080   20.7280 C   0  0  0  0  0  2  0  0  0  0  0  0
  -29.5820  -14.8110   20.0200 N   0  0  0  0  0  0  0  0  0  0  0  0
  -31.3070  -16.0780   20.0430 O   0  0  0  0  0  0  0  0  0  0  0  0
  -29.3510  -17.7880   20.1900 N   0  0  0  0  0  0  0  0  0  0  0  0
  -28.3580  -17.6190   20.1060 H   0  0  0  0  0  0  0  0  0  0  0  0
  -25.1650  -13.9180   20.4840 C   0  0  0  0  0  0  0  0  0  0  0  0
  -24.1300  -13.1130   20.8580 C   0  0  0  0  0  0  0  0  0  0  0  0
  -24.6290  -11.7740   20.8110 C   0  0  0  0  0  0  0  0  0  0  0  0
  -26.2270  -13.0760   20.2200 N   0  0  0  0  0  0  0  0  0  0  0  0
  -25.9200  -11.7740   20.4780 N   0  0  0  0  0  0  0  0  0  0  0  0
  -23.9220  -10.4970   21.0030 C   0  0  0  0  0  0  0  0  0  0  0  0
  -24.3650   -9.5380   21.9420 C   0  0  0  0  0  3  0  0  0  0  0  0
  -23.6520   -8.3340   22.1280 C   0  0  0  0  0  3  0  0  0  0  0  0
  -22.4800   -8.0780   21.3750 C   0  0  0  0  0  0  0  0  0  0  0  0
  -22.0550   -9.0250   20.4270 C   0  0  0  0  0  3  0  0  0  0  0  0
  -22.7690  -10.2210   20.2400 C   0  0  0  0  0  3  0  0  0  0  0  0
  -21.7390   -6.9240   21.4690 O   0  0  0  0  0  0  0  0  0  0  0  0
  -21.6900   -6.1920   22.6290 C   0  0  0  0  0  0  0  0  0  0  0  0
  -21.2280   -6.7480   23.8420 C   0  0  0  0  0  3  0  0  0  0  0  0
  -21.1270   -5.9400   24.9940 C   0  0  0  0  0  3  0  0  0  0  0  0
  -21.4790   -4.5780   24.9320 C   0  0  0  0  0  0  0  0  0  0  0  0
  -21.9350   -4.0220   23.7240 C   0  0  0  0  0  3  0  0  0  0  0  0
  -22.0370   -4.8260   22.5750 C   0  0  0  0  0  0  0  0  0  0  0  0
  -22.4560   -4.2810   21.4070 F   0  0  0  0  0  0  0  0  0  0  0  0
  -21.3770   -3.8010   26.0350 F   0  0  0  0  0  0  0  0  0  0  0  0
  -22.7260  -13.5620   21.1380 C   0  0  0  0  0  0  0  0  0  0  0  0
  -22.0200  -12.8540   22.0100 N   0  0  0  0  0  0  0  0  0  0  0  0
  -22.2680  -14.5800   20.6200 O   0  0  0  0  0  0  0  0  0  0  0  0
  -22.4050  -12.0330   22.4510 H   0  0  0  0  0  0  0  0  0  0  0  0
  -21.0780  -13.1380   22.2400 H   0  0  0  0  0  0  0  0  0  0  0  0
  -25.2900  -15.2940   20.3070 N   0  0  0  0  0  0  0  0  0  0  0  0
  -24.5060  -15.9250   20.4290 H   0  0  0  0  0  0  0  0  0  0  0  0
  -26.1220  -15.7510   19.9610 H   0  0  0  0  0  0  0  0  0  0  0  0
  -28.1310  -23.1280   20.2190 C   0  0  0  0  0 15  0  0  0  0  0  0
  -28.1450  -25.0750   20.3620 O   0  0  0  0  0  1  0  0  0  0  0  0
  -24.7560  -31.8670   23.2290 C   0  0  0  0  0  0  0  0  0  0  0  0
  -27.2140  -26.4470   20.3090 C   0  0  0  0  0  0  0  0  0  0  0  0
  -23.5660  -30.4580   21.6080 C   0  0  0  0  0  3  0  0  0  0  0  0
  -24.9970  -28.7170   20.2290 C   0  0  0  0  0  0  0  0  0  0  0  0
  -26.1590  -30.4780   21.5200 C   0  0  0  0  0  2  0  0  0  0  0  0
  -26.2030  -29.0020   20.8770 C   0  0  0  0  0  0  0  0  0  0  0  0
  -27.2780  -27.9080   20.8720 C   0  0  0  0  0  3  0  0  0  0  0  0
  -25.9720  -26.4630   19.5960 C   0  0  0  0  0  3  0  0  0  0  0  0
  -24.9410  -27.4770   19.5610 C   0  0  0  0  0  3  0  0  0  0  0  0
  -23.8140  -29.7210   20.2550 C   0  0  0  0  0  2  0  0  0  0  0  0
  -24.8560  -30.9770   22.1710 N   0  0  0  0  0  0  0  0  0  0  0  0
  -23.6600  -32.1940   23.7210 O   0  0  0  0  0  0  0  0  0  0  0  0
  -22.8100  -29.5270   22.5970 C   0  0  0  0  0  0  0  0  0  0  0  0
  -21.4730  -29.3990   22.4740 N   0  0  0  0  0  0  0  0  0  0  0  0
  -23.4450  -28.9110   23.4560 O   0  0  0  0  0  0  0  0  0  0  0  0
  -21.0050  -29.9440   21.7640 H   0  0  0  0  0  0  0  0  0  0  0  0
  -18.0690  -28.2110   22.9980 C   0  0  0  0  0  0  0  0  0  0  0  0
  -20.6320  -28.4790   23.2560 C   0  0  0  0  0  3  0  0  0  0  0  0
  -20.7260  -27.0380   22.7030 C   0  0  0  0  0  2  0  0  0  0  0  0
  -19.6260  -26.7070   21.6890 C   0  0  0  0  0  2  0  0  0  0  0  0
  -18.2440  -26.8590   22.3290 C   0  0  0  0  0  2  0  0  0  0  0  0
  -19.1890  -28.9800   23.4180 C   0  0  0  0  0  0  0  0  0  0  0  0
  -18.9650  -30.2420   24.0100 C   0  0  0  0  0  3  0  0  0  0  0  0
  -17.6590  -30.7370   24.1830 C   0  0  0  0  0  3  0  0  0  0  0  0
  -16.5560  -29.9680   23.7730 C   0  0  0  0  0  3  0  0  0  0  0  0
  -16.7620  -28.7070   23.1880 C   0  0  0  0  0  3  0  0  0  0  0  0
  -26.0120  -32.5280   23.8790 C   0  0  0  0  0  3  0  0  0  0  0  0
  -25.6870  -33.9320   24.2150 N   0  0  0  0  0  0  0  0  0  0  0  0
  -25.9950  -35.0040   23.4700 C   0  0  0  0  0  0  0  0  0  0  0  0
  -26.6300  -34.9150   22.4180 O   0  0  0  0  0  0  0  0  0  0  0  0
  -25.1160  -34.0730   25.0360 H   0  0  0  0  0  0  0  0  0  0  0  0
  -24.2390  -36.8010   23.2350 C   0  0  0  0  0  1  0  0  0  0  0  0
  -25.5290  -36.3930   23.9640 C   0  0  0  0  0  3  0  0  0  0  0  0
  -27.7000  -37.3050   24.6710 C   0  0  0  0  0  1  0  0  0  0  0  0
  -26.5450  -37.4560   23.7910 N   0  0  0  0  0  0  0  0  0  0  0  0
  -26.1390  -38.3730   23.9550 H   0  0  0  0  0  0  0  0  0  0  0  0
  -26.4940  -31.7790   25.1850 C   0  0  1  0  0  0  0  0  0  0  0  0
  -25.3800  -31.5720   26.2390 C   0  0  0  0  0  1  0  0  0  0  0  0
  -27.0720  -30.3880   24.8480 C   0  0  0  0  0  1  0  0  0  0  0  0
  -27.6400  -32.5760   25.8530 C   0  0  0  0  0  1  0  0  0  0  0  0
  2  1  1  0
  3  1  2  0
  4  2  2  0
  5  3  1  0
  6  5  2  0
  6  4  1  0
  7 15  1  0
  8 13  1  0
  9 10  1  0
  9  8  1  0
 11 10  1  0
 11 20  1  0
 11 12  1  0
 13  7  1  0
 13 12  1  0
 14  7  2  0
 15  6  1  0
 16 15  1  0
 17 18  2  0
 18 37  1  0
 19 18  1  0
 19 22  1  0
 20 21  1  0
 20 17  1  0
 21 19  2  0
 22 23  1  0
 23 24  2  0
 25 28  1  0
 25 24  1  0
 26 25  2  0
 27 26  1  0
 27 22  2  0
 28 29  1  0
 29 30  1  0
 30 31  2  0
 32 31  1  0
 32 36  1  0
 33 32  2  0
 34 29  2  0
 34 33  1  0
 35 34  1  0
 37 38  1  0
 38 41  1  0
 38 40  1  0
 39 37  2  0
 42 43  1  0
 42 17  1  0
 44 42  1  0
 47 58  2  0
 48 46  1  0
 48 53  1  0
 49 57  1  0
 49 59  1  0
 50 56  1  0
 50 52  1  0
 51 57  1  0
 52 51  1  0
 53 52  2  0
 54 48  2  0
 55 54  1  0
 55 50  2  0
 56 49  1  0
 57 47  1  0
 59 61  2  0
 60 59  1  0
 62 60  1  0
 63 72  2  0
 63 68  1  0
 64 60  1  0
 64 68  1  0
 65 64  1  0
 66 67  1  0
 66 65  1  0
 67 63  1  0
 68 69  2  0
 69 70  1  0
 71 70  2  0
 72 71  1  0
 73 47  1  0
 73 74  1  0
 73 83  1  0
 74 77  1  0
 75 79  1  0
 75 74  1  0
 76 75  2  0
 79 78  1  0
 81 82  1  0
 81 79  1  0
 81 80  1  0
 83 86  1  1
 83 84  1  0
 85 83  1  0
M  ISO  4   7 100  15 100  45 101  46 101
M  END
>  <TORSDO>  (62) 
F 17

>  <SCORE>  (62) 
-16.731

>  <name>  (62) 
61

>  <ligand_id>  (62) 
61

>  <original_smiles>  (62) 
[H]c1c([H])c([H])c(C([H])([H])Oc2c([H])c([H])c3c(c2[H])C([H])([H])N(C(=O)C([H])(N([H])C(=O)C([H])(N([H])C([H])([H])[H])C([H])([H])[H])C(C([H])([H])[H])(C([H])([H])[H])C([H])([H])[H])C([H])(C(=O)N([H])C2([H])c4c([H])c([H])c([H])c([H])c4C([H])([H])C([H])([H])C2([H])[H])C3([H])[H])c(N([H])C(=O)N2C([H])([H])C([H])([H])C([H])([H])C([H])(n3nc(-c4c([H])c([H])c(Oc5c([H])c([H])c(F)c([H])c5F)c([H])c4[H])c(C(=O)N([H])[H])c3N([H])[H])C2([H])[H])c1[H]

>  <smiles>  (62) 
[H]c1c([H])c([H])c(C([H])([H])Oc2c([H])c([H])c3c(c2[H])C([H])([H])N(C(=O)C([H])(N([H])C(=O)C([H])(N([H])C([H])([H])[H])C([H])([H])[H])C(C([H])([H])[H])(C([H])([H])[H])C([H])([H])[H])C([H])(C(=O)N([H])C2([H])c4c([H])c([H])c([H])c([H])c4C([H])([H])C([H])([H])C2([H])[H])C3([H])[H])c(N([H])C(=O)N2C([H])([H])C([H])([H])C([H])([H])C([H])(n3nc(-c4c([H])c([H])c(Oc5c([H])c([H])c(F)c([H])c5F)c([H])c4[H])c(C(=O)N([H])[H])c3N([H])[H])C2([H])[H])c1[H]

$$$$
62:0:0
     RDKit          3D

 95103  0  0  1  0  0  0  0  0999 V2000
  -30.4930  -22.1820   21.1350 N   0  0  1  0  0  4  0  0  0  0  0  0
  -30.8400  -22.8630   21.7920 H   0  0  0  0  0  0  0  0  0  0  0  0
  -30.1850  -21.0260   22.0420 C   0  0  0  0  0  2  0  0  0  0  0  0
  -31.3580  -18.7440   21.8270 C   0  0  0  0  0  3  0  0  0  0  0  0
  -31.3300  -17.3580   21.5420 C   0  0  0  0  0  3  0  0  0  0  0  0
  -29.1670  -19.0140   20.8140 C   0  0  0  0  0  3  0  0  0  0  0  0
  -30.2660  -19.5860   21.4970 C   0  0  0  0  0  0  0  0  0  0  0  0
  -30.1910  -16.7840   20.9300 C   0  0  0  0  0  0  0  0  0  0  0  0
  -29.1240  -17.6270   20.5520 C   0  0  0  0  0  0  0  0  0  0  0  0
  -28.0230  -17.0860   19.9720 F   0  0  0  0  0  0  0  0  0  0  0  0
  -30.7270  -14.4210   20.2300 C   0  0  0  0  0  0  0  0  0  0  0  0
  -30.3950  -12.2770   19.0350 C   0  0  0  0  0  2  0  0  0  0  0  0
  -29.3870  -12.4880   17.8840 C   0  0  0  0  0  2  0  0  0  0  0  0
  -27.9340  -12.3550   18.3820 C   0  0  0  0  0  2  0  0  0  0  0  0
  -27.6670  -13.1830   19.6680 C   0  0  0  0  0  3  0  0  0  0  0  0
  -28.7680  -12.9130   20.7180 C   0  0  0  0  0  2  0  0  0  0  0  0
  -30.0680  -13.2360   20.1020 N   0  0  0  0  0  0  0  0  0  0  0  0
  -31.8330  -14.6390   19.7230 O   0  0  0  0  0  0  0  0  0  0  0  0
  -29.9910  -15.3750   20.8290 N   0  0  0  0  0  0  0  0  0  0  0  0
  -29.0570  -15.0710   21.0600 H   0  0  0  0  0  0  0  0  0  0  0  0
  -25.3180  -13.8260   20.5050 C   0  0  0  0  0  0  0  0  0  0  0  0
  -24.2550  -13.0660   20.9100 C   0  0  0  0  0  0  0  0  0  0  0  0
  -24.6880  -11.7060   20.8310 C   0  0  0  0  0  0  0  0  0  0  0  0
  -26.3330  -12.9290   20.2070 N   0  0  0  0  0  0  0  0  0  0  0  0
  -25.9590  -11.6480   20.4600 N   0  0  0  0  0  0  0  0  0  0  0  0
  -23.9490  -10.4540   21.0330 C   0  0  0  0  0  0  0  0  0  0  0  0
  -24.3650   -9.4940   21.9820 C   0  0  0  0  0  3  0  0  0  0  0  0
  -23.6270   -8.3060   22.1680 C   0  0  0  0  0  3  0  0  0  0  0  0
  -22.4600   -8.0680   21.4030 C   0  0  0  0  0  0  0  0  0  0  0  0
  -22.0640   -9.0170   20.4440 C   0  0  0  0  0  3  0  0  0  0  0  0
  -22.8010  -10.1980   20.2570 C   0  0  0  0  0  3  0  0  0  0  0  0
  -21.6930   -6.9330   21.4980 O   0  0  0  0  0  0  0  0  0  0  0  0
  -21.5870   -6.2320   22.6730 C   0  0  0  0  0  0  0  0  0  0  0  0
  -21.0700   -6.8220   23.8480 C   0  0  0  0  0  3  0  0  0  0  0  0
  -20.9130   -6.0440   25.0130 C   0  0  0  0  0  3  0  0  0  0  0  0
  -21.2630   -4.6820   25.0050 C   0  0  0  0  0  0  0  0  0  0  0  0
  -21.7740   -4.0930   23.8350 C   0  0  0  0  0  3  0  0  0  0  0  0
  -21.9320   -4.8660   22.6710 C   0  0  0  0  0  0  0  0  0  0  0  0
  -22.4050   -4.2880   21.5400 F   0  0  0  0  0  0  0  0  0  0  0  0
  -21.1060   -3.9330   26.1230 F   0  0  0  0  0  0  0  0  0  0  0  0
  -22.8810  -13.5620   21.2590 C   0  0  0  0  0  0  0  0  0  0  0  0
  -22.1810  -12.8570   22.1420 N   0  0  0  0  0  0  0  0  0  0  0  0
  -22.4390  -14.6090   20.7890 O   0  0  0  0  0  0  0  0  0  0  0  0
  -22.5510  -12.0080   22.5440 H   0  0  0  0  0  0  0  0  0  0  0  0
  -21.2610  -13.1700   22.4200 H   0  0  0  0  0  0  0  0  0  0  0  0
  -25.5000  -15.1960   20.3500 N   0  0  0  0  0  0  0  0  0  0  0  0
  -24.7490  -15.8570   20.5140 H   0  0  0  0  0  0  0  0  0  0  0  0
  -26.3530  -15.6440   20.0350 H   0  0  0  0  0  0  0  0  0  0  0  0
  -31.6270  -21.9810   20.1930 C   0  0  0  0  0  2  0  0  0  0  0  0
  -34.1680  -21.6280   19.9980 C   0  0  0  0  0  1  0  0  0  0  0  0
  -32.9750  -21.8520   20.9340 C   0  0  0  0  0  2  0  0  0  0  0  0
  -29.3130  -22.8940   20.5510 C   0  0  0  0  0  2  0  0  0  0  0  0
  -29.4780  -24.4480   20.5790 C   0  0  0  0  0  2  0  0  0  0  0  0
  -28.2370  -25.2380   20.0910 C   0  0  0  0  0  2  0  0  0  0  0  0
  -28.3680  -26.6620   20.2880 O   0  0  0  0  0  0  0  0  0  0  0  0
  -24.6560  -31.9120   23.3690 C   0  0  0  0  0  0  0  0  0  0  0  0
  -27.2080  -27.4220   20.2630 C   0  0  0  0  0  0  0  0  0  0  0  0
  -23.4180  -30.5390   21.7280 C   0  0  0  0  0  3  0  0  0  0  0  0
  -24.8390  -28.9850   20.2890 C   0  0  0  0  0  0  0  0  0  0  0  0
  -25.9510  -30.8530   21.5190 C   0  0  0  0  0  2  0  0  0  0  0  0
  -26.0110  -29.4830   20.8710 C   0  0  0  0  0  0  0  0  0  0  0  0
  -27.1990  -28.7090   20.8540 C   0  0  0  0  0  3  0  0  0  0  0  0
  -26.0130  -26.9490   19.6650 C   0  0  0  0  0  3  0  0  0  0  0  0
  -24.8370  -27.7190   19.6800 C   0  0  0  0  0  3  0  0  0  0  0  0
  -23.6100  -29.8660   20.3420 C   0  0  0  0  0  2  0  0  0  0  0  0
  -24.6940  -31.1160   22.2630 N   0  0  0  0  0  0  0  0  0  0  0  0
  -23.5830  -32.2020   23.9150 O   0  0  0  0  0  0  0  0  0  0  0  0
  -22.7550  -29.5240   22.6860 C   0  0  0  0  0  0  0  0  0  0  0  0
  -21.4400  -29.3140   22.5200 N   0  0  0  0  0  0  0  0  0  0  0  0
  -23.4230  -28.9250   23.5330 O   0  0  0  0  0  0  0  0  0  0  0  0
  -20.9660  -29.8470   21.8070 H   0  0  0  0  0  0  0  0  0  0  0  0
  -18.0790  -28.0340   22.8960 C   0  0  0  0  0  0  0  0  0  0  0  0
  -20.6120  -28.3780   23.2800 C   0  0  0  0  0  3  0  0  0  0  0  0
  -20.7850  -26.9350   22.7540 C   0  0  0  0  0  2  0  0  0  0  0  0
  -19.7430  -26.5470   21.7010 C   0  0  0  0  0  2  0  0  0  0  0  0
  -18.3270  -26.6690   22.2740 C   0  0  0  0  0  2  0  0  0  0  0  0
  -19.1530  -28.8420   23.3520 C   0  0  0  0  0  0  0  0  0  0  0  0
  -18.8730  -30.1150   23.8920 C   0  0  0  0  0  3  0  0  0  0  0  0
  -17.5490  -30.5840   23.9800 C   0  0  0  0  0  3  0  0  0  0  0  0
  -16.4880  -29.7750   23.5410 C   0  0  0  0  0  3  0  0  0  0  0  0
  -16.7510  -28.5030   23.0050 C   0  0  0  0  0  3  0  0  0  0  0  0
  -25.9560  -32.5180   23.9860 C   0  0  0  0  0  3  0  0  0  0  0  0
  -25.6760  -33.9230   24.3080 N   0  0  0  0  0  0  0  0  0  0  0  0
  -26.0030  -34.9620   23.5300 C   0  0  0  0  0  0  0  0  0  0  0  0
  -26.6480  -34.8390   22.4840 O   0  0  0  0  0  0  0  0  0  0  0  0
  -25.1010  -34.0920   25.1200 H   0  0  0  0  0  0  0  0  0  0  0  0
  -24.2830  -36.7680   23.2110 C   0  0  0  0  0  1  0  0  0  0  0  0
  -25.5470  -36.3630   23.9850 C   0  0  0  0  0  3  0  0  0  0  0  0
  -27.7130  -37.2440   24.7330 C   0  0  0  0  0  1  0  0  0  0  0  0
  -26.5860  -37.4030   23.8160 N   0  0  0  0  0  0  0  0  0  0  0  0
  -26.1950  -38.3300   23.9550 H   0  0  0  0  0  0  0  0  0  0  0  0
  -26.4590  -31.7400   25.2630 C   0  0  1  0  0  0  0  0  0  0  0  0
  -25.3590  -31.5140   26.3250 C   0  0  0  0  0  1  0  0  0  0  0  0
  -27.0240  -30.3550   24.8680 C   0  0  0  0  0  1  0  0  0  0  0  0
  -27.6190  -32.5170   25.9260 C   0  0  0  0  0  1  0  0  0  0  0  0
  1  2  1  1
  1  3  1  0
  5  4  1  0
  6  7  1  0
  7  4  2  0
  7  3  1  0
  8  5  2  0
  9  6  2  0
  9  8  1  0
 10  9  1  0
 11 19  1  0
 12 17  1  0
 13 14  1  0
 13 12  1  0
 15 14  1  0
 15 24  1  0
 15 16  1  0
 17 11  1  0
 17 16  1  0
 18 11  2  0
 19  8  1  0
 19 20  1  0
 21 22  2  0
 22 41  1  0
 23 22  1  0
 23 26  1  0
 24 25  1  0
 24 21  1  0
 25 23  2  0
 26 27  1  0
 27 28  2  0
 29 32  1  0
 29 28  1  0
 30 29  2  0
 31 30  1  0
 31 26  2  0
 32 33  1  0
 33 34  1  0
 34 35  2  0
 36 35  1  0
 36 40  1  0
 37 36  2  0
 38 33  2  0
 38 37  1  0
 39 38  1  0
 41 42  1  0
 42 45  1  0
 42 44  1  0
 43 41  2  0
 46 21  1  0
 46 47  1  0
 48 46  1  0
 49 51  1  0
 49  1  1  0
 50 51  1  0
 52 53  1  0
 52  1  1  0
 54 55  1  0
 54 53  1  0
 56 67  2  0
 57 55  1  0
 57 62  1  0
 58 66  1  0
 58 68  1  0
 59 65  1  0
 59 61  1  0
 60 66  1  0
 61 60  1  0
 62 61  2  0
 63 64  1  0
 63 57  2  0
 64 59  2  0
 65 58  1  0
 66 56  1  0
 68 70  2  0
 69 68  1  0
 71 69  1  0
 72 81  2  0
 72 77  1  0
 73 69  1  0
 73 77  1  0
 74 73  1  0
 75 76  1  0
 75 74  1  0
 76 72  1  0
 77 78  2  0
 78 79  1  0
 80 79  2  0
 81 80  1  0
 82 56  1  0
 82 83  1  0
 82 92  1  0
 83 86  1  0
 84 88  1  0
 84 83  1  0
 85 84  2  0
 88 87  1  0
 90 91  1  0
 90 88  1  0
 90 89  1  0
 92 95  1  1
 92 93  1  0
 94 92  1  0
M  ISO  4  11 100  19 100  54 101  55 101
M  END
>  <TORSDO>  (63) 
F 23

>  <SCORE>  (63) 
-12.734

>  <name>  (63) 
62

>  <ligand_id>  (63) 
62

>  <original_smiles>  (63) 
[H]c1c([H])c([H])c2c(c1[H])C([H])([H])C([H])([H])C([H])([H])C2([H])N([H])C(=O)C1([H])N(C(=O)C([H])(N([H])C(=O)C([H])(N([H])C([H])([H])[H])C([H])([H])[H])C(C([H])([H])[H])(C([H])([H])[H])C([H])([H])[H])C([H])([H])c2c([H])c(OC([H])([H])C([H])([H])C([H])([H])[N+]([H])(C([H])([H])c3c([H])c([H])c(N([H])C(=O)N4C([H])([H])C([H])([H])C([H])([H])C([H])(n5nc(-c6c([H])c([H])c(Oc7c([H])c([H])c(F)c([H])c7F)c([H])c6[H])c(C(=O)N([H])[H])c5N([H])[H])C4([H])[H])c(F)c3[H])C([H])([H])C([H])([H])C([H])([H])[H])c([H])c([H])c2C1([H])[H]

>  <smiles>  (63) 
[H]c1c([H])c([H])c2c(c1[H])C([H])([H])C([H])([H])C([H])([H])C2([H])N([H])C(=O)C1([H])N(C(=O)C([H])(N([H])C(=O)C([H])(N([H])C([H])([H])[H])C([H])([H])[H])C(C([H])([H])[H])(C([H])([H])[H])C([H])([H])[H])C([H])([H])c2c([H])c(OC([H])([H])C([H])([H])C([H])([H])[N+]([H])(C([H])([H])c3c([H])c([H])c(N([H])C(=O)N4C([H])([H])C([H])([H])C([H])([H])C([H])(n5nc(-c6c([H])c([H])c(Oc7c([H])c([H])c(F)c([H])c7F)c([H])c6[H])c(C(=O)N([H])[H])c5N([H])[H])C4([H])[H])c(F)c3[H])C([H])([H])C([H])([H])C([H])([H])[H])c([H])c([H])c2C1([H])[H]

$$$$
63:0:0
     RDKit          3D

 92101  0  0  1  0  0  0  0  0999 V2000
  -29.5550  -23.1830   22.4950 C   0  0  0  0  0  2  0  0  0  0  0  0
  -30.2200  -23.7540   21.2400 C   0  0  0  0  0  2  0  0  0  0  0  0
  -28.4640  -22.2300   21.9780 C   0  0  0  0  0  2  0  0  0  0  0  0
  -29.2250  -23.4350   20.1290 C   0  0  0  0  0  3  0  0  0  0  0  0
  -28.7320  -22.0240   20.5520 N   0  0  0  0  0  0  0  0  0  0  0  0
  -30.4760  -20.0270   20.2220 C   0  0  0  0  0  3  0  0  0  0  0  0
  -30.7530  -18.5850   20.1940 C   0  0  0  0  0  3  0  0  0  0  0  0
  -28.1790  -19.5660   20.4500 C   0  0  0  0  0  3  0  0  0  0  0  0
  -29.1620  -20.6060   20.3660 C   0  0  0  0  0  0  0  0  0  0  0  0
  -29.7400  -17.5640   20.3050 C   0  0  0  0  0  0  0  0  0  0  0  0
  -28.4440  -18.1500   20.4230 C   0  0  0  0  0  0  0  0  0  0  0  0
  -27.3900  -17.3050   20.5290 F   0  0  0  0  0  0  0  0  0  0  0  0
  -30.6450  -14.9560   19.9720 C   0  0  0  0  0  0  0  0  0  0  0  0
  -30.4770  -12.6480   18.9400 C   0  0  0  0  0  2  0  0  0  0  0  0
  -29.4540  -12.6820   17.7780 C   0  0  0  0  0  2  0  0  0  0  0  0
  -28.0180  -12.4690   18.2990 C   0  0  0  0  0  2  0  0  0  0  0  0
  -27.7060  -13.3370   19.5460 C   0  0  0  0  0  3  0  0  0  0  0  0
  -28.8390  -13.2570   20.5930 C   0  0  0  0  0  2  0  0  0  0  0  0
  -30.0790  -13.6850   19.9290 N   0  0  0  0  0  0  0  0  0  0  0  0
  -31.8060  -15.0950   19.5660 O   0  0  0  0  0  0  0  0  0  0  0  0
  -29.8060  -16.0350   20.3170 N   0  0  0  0  0  0  0  0  0  0  0  0
  -28.9230  -15.6650   20.6320 H   0  0  0  0  0  0  0  0  0  0  0  0
  -25.3760  -13.8980   20.4580 C   0  0  0  0  0  0  0  0  0  0  0  0
  -24.3350  -13.1120   20.8700 C   0  0  0  0  0  0  0  0  0  0  0  0
  -24.7910  -11.7630   20.7630 C   0  0  0  0  0  0  0  0  0  0  0  0
  -26.4000  -13.0280   20.1210 N   0  0  0  0  0  0  0  0  0  0  0  0
  -26.0600  -11.7350   20.3670 N   0  0  0  0  0  0  0  0  0  0  0  0
  -24.0730  -10.4970   20.9610 C   0  0  0  0  0  0  0  0  0  0  0  0
  -24.5080   -9.5400   21.9040 C   0  0  0  0  0  3  0  0  0  0  0  0
  -23.7880   -8.3390   22.0880 C   0  0  0  0  0  3  0  0  0  0  0  0
  -22.6200   -8.0880   21.3300 C   0  0  0  0  0  0  0  0  0  0  0  0
  -22.2040   -9.0360   20.3770 C   0  0  0  0  0  3  0  0  0  0  0  0
  -22.9250  -10.2270   20.1900 C   0  0  0  0  0  3  0  0  0  0  0  0
  -21.8720   -6.9390   21.4250 O   0  0  0  0  0  0  0  0  0  0  0  0
  -21.7580   -6.2480   22.6040 C   0  0  0  0  0  0  0  0  0  0  0  0
  -21.2390   -6.8500   23.7720 C   0  0  0  0  0  3  0  0  0  0  0  0
  -21.0740   -6.0850   24.9440 C   0  0  0  0  0  3  0  0  0  0  0  0
  -21.4170   -4.7200   24.9480 C   0  0  0  0  0  0  0  0  0  0  0  0
  -21.9280   -4.1170   23.7840 C   0  0  0  0  0  3  0  0  0  0  0  0
  -22.0950   -4.8800   22.6140 C   0  0  0  0  0  0  0  0  0  0  0  0
  -22.5680   -4.2900   21.4900 F   0  0  0  0  0  0  0  0  0  0  0  0
  -21.2500   -3.9820   26.0710 F   0  0  0  0  0  0  0  0  0  0  0  0
  -22.9620  -13.5840   21.2510 C   0  0  0  0  0  0  0  0  0  0  0  0
  -22.2970  -12.8730   22.1540 N   0  0  0  0  0  0  0  0  0  0  0  0
  -22.4900  -14.6190   20.7820 O   0  0  0  0  0  0  0  0  0  0  0  0
  -22.6910  -12.0370   22.5570 H   0  0  0  0  0  0  0  0  0  0  0  0
  -21.3780  -13.1710   22.4490 H   0  0  0  0  0  0  0  0  0  0  0  0
  -25.5250  -15.2740   20.3220 N   0  0  0  0  0  0  0  0  0  0  0  0
  -24.7760  -15.9130   20.5610 H   0  0  0  0  0  0  0  0  0  0  0  0
  -26.3810  -15.7580   20.0820 H   0  0  0  0  0  0  0  0  0  0  0  0
  -28.1260  -24.7110   20.0240 C   0  0  0  0  0  2  0  0  0  0  0  0
  -28.3920  -26.2390   20.0610 O   0  0  0  0  0  0  0  0  0  0  0  0
  -24.6310  -31.7370   23.2070 C   0  0  0  0  0  0  0  0  0  0  0  0
  -27.3080  -27.1870   20.0380 C   0  0  0  0  0  0  0  0  0  0  0  0
  -23.4670  -30.3910   21.5020 C   0  0  0  0  0  3  0  0  0  0  0  0
  -24.9510  -28.8880   20.0430 C   0  0  0  0  0  0  0  0  0  0  0  0
  -26.0190  -30.6960   21.3790 C   0  0  0  0  0  2  0  0  0  0  0  0
  -26.1180  -29.3320   20.6780 C   0  0  0  0  0  0  0  0  0  0  0  0
  -27.2970  -28.4990   20.6570 C   0  0  0  0  0  3  0  0  0  0  0  0
  -26.1100  -26.8410   19.3720 C   0  0  0  0  0  3  0  0  0  0  0  0
  -24.9600  -27.6570   19.3750 C   0  0  0  0  0  3  0  0  0  0  0  0
  -23.7120  -29.7670   20.1030 C   0  0  0  0  0  2  0  0  0  0  0  0
  -24.7260  -30.9600   22.0850 N   0  0  0  0  0  0  0  0  0  0  0  0
  -23.5360  -31.9900   23.7310 O   0  0  0  0  0  0  0  0  0  0  0  0
  -22.7880  -29.3410   22.4170 C   0  0  0  0  0  0  0  0  0  0  0  0
  -21.4600  -29.1770   22.2800 N   0  0  0  0  0  0  0  0  0  0  0  0
  -23.4570  -28.6770   23.2130 O   0  0  0  0  0  0  0  0  0  0  0  0
  -20.9780  -29.7630   21.6120 H   0  0  0  0  0  0  0  0  0  0  0  0
  -18.0630  -28.0220   22.7840 C   0  0  0  0  0  0  0  0  0  0  0  0
  -20.6340  -28.2090   23.0070 C   0  0  0  0  0  3  0  0  0  0  0  0
  -20.6900  -26.8170   22.3360 C   0  0  0  0  0  2  0  0  0  0  0  0
  -19.5560  -26.5870   21.3300 C   0  0  0  0  0  2  0  0  0  0  0  0
  -18.1930  -26.7180   22.0150 C   0  0  0  0  0  2  0  0  0  0  0  0
  -19.2090  -28.7300   23.2360 C   0  0  0  0  0  0  0  0  0  0  0  0
  -19.0310  -29.9530   23.9180 C   0  0  0  0  0  3  0  0  0  0  0  0
  -17.7430  -30.4680   24.1510 C   0  0  0  0  0  3  0  0  0  0  0  0
  -16.6120  -29.7560   23.7130 C   0  0  0  0  0  3  0  0  0  0  0  0
  -16.7740  -28.5340   23.0360 C   0  0  0  0  0  3  0  0  0  0  0  0
  -25.8940  -32.3600   23.8760 C   0  0  0  0  0  3  0  0  0  0  0  0
  -25.5750  -33.7530   24.2240 N   0  0  0  0  0  0  0  0  0  0  0  0
  -25.8890  -34.8180   23.4750 C   0  0  0  0  0  0  0  0  0  0  0  0
  -26.5440  -34.7310   22.4320 O   0  0  0  0  0  0  0  0  0  0  0  0
  -24.9880  -33.8930   25.0320 H   0  0  0  0  0  0  0  0  0  0  0  0
  -24.1230  -36.5900   23.1930 C   0  0  0  0  0  1  0  0  0  0  0  0
  -25.4000  -36.1990   23.9550 C   0  0  0  0  0  3  0  0  0  0  0  0
  -27.5460  -37.1200   24.7170 C   0  0  0  0  0  1  0  0  0  0  0  0
  -26.4140  -37.2670   23.8070 N   0  0  0  0  0  0  0  0  0  0  0  0
  -25.9970  -38.1820   23.9620 H   0  0  0  0  0  0  0  0  0  0  0  0
  -26.3720  -31.5680   25.1560 C   0  0  1  0  0  0  0  0  0  0  0  0
  -25.2470  -31.3170   26.1870 C   0  0  0  0  0  1  0  0  0  0  0  0
  -26.9650  -30.1950   24.7640 C   0  0  0  0  0  1  0  0  0  0  0  0
  -27.5030  -32.3510   25.8630 C   0  0  0  0  0  1  0  0  0  0  0  0
  2  1  1  0
  3  1  1  0
  4 51  1  0
  4  5  1  0
  4  2  1  0
  5  3  1  0
  6  9  1  0
  7  6  2  0
  7 10  1  0
  9  8  2  0
  9  5  1  0
 10 21  1  0
 10 11  2  0
 11  8  1  0
 11 12  1  0
 13 21  1  0
 14 19  1  0
 15 16  1  0
 15 14  1  0
 17 16  1  0
 17 26  1  0
 17 18  1  0
 19 13  1  0
 19 18  1  0
 20 13  2  0
 21 22  1  0
 23 24  2  0
 24 43  1  0
 25 24  1  0
 25 28  1  0
 26 27  1  0
 26 23  1  0
 27 25  2  0
 28 29  1  0
 29 30  2  0
 31 34  1  0
 31 30  1  0
 32 31  2  0
 33 32  1  0
 33 28  2  0
 34 35  1  0
 35 40  2  0
 35 36  1  0
 36 37  2  0
 37 38  1  0
 38 42  1  0
 39 38  2  0
 40 39  1  0
 41 40  1  0
 43 44  1  0
 44 47  1  0
 44 46  1  0
 45 43  2  0
 48 23  1  0
 48 49  1  0
 50 48  1  0
 51 52  1  0
 53 64  2  0
 54 52  1  0
 54 59  1  0
 55 63  1  0
 55 65  1  0
 56 62  1  0
 56 58  1  0
 57 63  1  0
 58 57  1  0
 59 58  2  0
 60 61  1  0
 60 54  2  0
 61 56  2  0
 62 55  1  0
 63 53  1  0
 65 67  2  0
 66 65  1  0
 68 66  1  0
 69 78  2  0
 69 74  1  0
 70 66  1  0
 70 74  1  0
 71 70  1  0
 72 73  1  0
 72 71  1  0
 73 69  1  0
 74 75  2  0
 75 76  1  0
 77 76  2  0
 78 77  1  0
 79 53  1  0
 79 80  1  0
 79 89  1  0
 80 83  1  0
 81 85  1  0
 81 80  1  0
 82 81  2  0
 85 84  1  0
 87 85  1  0
 87 88  1  0
 87 86  1  0
 89 92  1  1
 89 90  1  0
 91 89  1  0
M  ISO  4  13 100  21 100  51 101  52 101
M  END
>  <TORSDO>  (64) 
F 18

>  <SCORE>  (64) 
-14.730

>  <name>  (64) 
63

>  <ligand_id>  (64) 
63

>  <original_smiles>  (64) 
[H]c1c([H])c([H])c2c(c1[H])C([H])([H])C([H])([H])C([H])([H])C2([H])N([H])C(=O)C1([H])N(C(=O)C([H])(N([H])C(=O)C([H])(N([H])C([H])([H])[H])C([H])([H])[H])C(C([H])([H])[H])(C([H])([H])[H])C([H])([H])[H])C([H])([H])c2c([H])c(OC([H])([H])C3([H])N(c4c([H])c([H])c(N([H])C(=O)N5C([H])([H])C([H])([H])C([H])([H])C([H])(n6nc(-c7c([H])c([H])c(Oc8c([H])c([H])c(F)c([H])c8F)c([H])c7[H])c(C(=O)N([H])[H])c6N([H])[H])C5([H])[H])c(F)c4[H])C([H])([H])C([H])([H])C3([H])[H])c([H])c([H])c2C1([H])[H]

>  <smiles>  (64) 
[H]c1c([H])c([H])c2c(c1[H])C([H])([H])C([H])([H])C([H])([H])C2([H])N([H])C(=O)C1([H])N(C(=O)C([H])(N([H])C(=O)C([H])(N([H])C([H])([H])[H])C([H])([H])[H])C(C([H])([H])[H])(C([H])([H])[H])C([H])([H])[H])C([H])([H])c2c([H])c(OC([H])([H])C3([H])N(c4c([H])c([H])c(N([H])C(=O)N5C([H])([H])C([H])([H])C([H])([H])C([H])(n6nc(-c7c([H])c([H])c(Oc8c([H])c([H])c(F)c([H])c8F)c([H])c7[H])c(C(=O)N([H])[H])c6N([H])[H])C5([H])[H])c(F)c4[H])C([H])([H])C([H])([H])C3([H])[H])c([H])c([H])c2C1([H])[H]

$$$$
64:0:0
     RDKit          3D

 93102  0  0  1  0  0  0  0  0999 V2000
  -28.9360  -17.7700   20.5490 C   0  0  0  0  0  3  0  0  0  0  0  0
  -31.2830  -18.1910   20.3670 C   0  0  0  0  0  3  0  0  0  0  0  0
  -28.6400  -19.0800   20.0830 C   0  0  0  0  0  0  0  0  0  0  0  0
  -29.6600  -20.0300   19.7460 C   0  0  0  0  0  0  0  0  0  0  0  0
  -30.2500  -17.2720   20.7040 C   0  0  0  0  0  0  0  0  0  0  0  0
  -30.9990  -19.5270   19.9080 C   0  0  0  0  0  0  0  0  0  0  0  0
  -27.1610  -19.4250   19.9820 C   0  0  0  0  0  2  0  0  0  0  0  0
  -26.9010  -20.7310   19.2390 C   0  0  0  0  0  2  0  0  0  0  0  0
  -27.9270  -21.7730   19.6600 C   0  0  0  0  0  2  0  0  0  0  0  0
  -29.2820  -21.3660   19.2870 N   0  0  0  0  0  0  0  0  0  0  0  0
  -32.0560  -20.3270   19.6290 F   0  0  0  0  0  0  0  0  0  0  0  0
  -31.2570  -14.8580   21.0940 C   0  0  0  0  0  0  0  0  0  0  0  0
  -31.2660  -12.4240   20.5430 C   0  0  0  0  0  2  0  0  0  0  0  0
  -30.5440  -12.2400   19.1880 C   0  0  0  0  0  2  0  0  0  0  0  0
  -29.0150  -12.1420   19.3750 C   0  0  0  0  0  2  0  0  0  0  0  0
  -28.4570  -13.2510   20.3060 C   0  0  0  0  0  3  0  0  0  0  0  0
  -29.2970  -13.3470   21.6000 C   0  0  0  0  0  2  0  0  0  0  0  0
  -30.6920  -13.6130   21.2050 N   0  0  0  0  0  0  0  0  0  0  0  0
  -32.4560  -15.0050   20.8280 O   0  0  0  0  0  0  0  0  0  0  0  0
  -30.3610  -15.8920   21.1930 N   0  0  0  0  0  0  0  0  0  0  0  0
  -29.4840  -15.5350   21.5400 H   0  0  0  0  0  0  0  0  0  0  0  0
  -26.0270  -14.0070   20.6660 C   0  0  0  0  0  0  0  0  0  0  0  0
  -24.8730  -13.3040   20.8890 C   0  0  0  0  0  0  0  0  0  0  0  0
  -25.2510  -11.9280   20.9340 C   0  0  0  0  0  0  0  0  0  0  0  0
  -27.0370  -13.0610   20.5910 N   0  0  0  0  0  0  0  0  0  0  0  0
  -26.5680  -11.8070   20.8130 N   0  0  0  0  0  0  0  0  0  0  0  0
  -24.4300  -10.7140   21.0280 C   0  0  0  0  0  0  0  0  0  0  0  0
  -24.7430   -9.6800   21.9400 C   0  0  0  0  0  3  0  0  0  0  0  0
  -23.9270   -8.5310   22.0230 C   0  0  0  0  0  3  0  0  0  0  0  0
  -22.7870   -8.4070   21.1950 C   0  0  0  0  0  0  0  0  0  0  0  0
  -22.4950   -9.4290   20.2750 C   0  0  0  0  0  3  0  0  0  0  0  0
  -23.3090  -10.5700   20.1880 C   0  0  0  0  0  3  0  0  0  0  0  0
  -21.9520   -7.3160   21.1910 O   0  0  0  0  0  0  0  0  0  0  0  0
  -21.8830   -6.4590   22.2600 C   0  0  0  0  0  0  0  0  0  0  0  0
  -21.5460   -6.9090   23.5550 C   0  0  0  0  0  3  0  0  0  0  0  0
  -21.4170   -5.9830   24.6110 C   0  0  0  0  0  3  0  0  0  0  0  0
  -21.6150   -4.6100   24.3720 C   0  0  0  0  0  0  0  0  0  0  0  0
  -21.9450   -4.1590   23.0820 C   0  0  0  0  0  3  0  0  0  0  0  0
  -22.0760   -5.0810   22.0280 C   0  0  0  0  0  0  0  0  0  0  0  0
  -22.3730   -4.6400   20.7820 F   0  0  0  0  0  0  0  0  0  0  0  0
  -21.4830   -3.7200   25.3840 F   0  0  0  0  0  0  0  0  0  0  0  0
  -23.4820  -13.8680   20.9540 C   0  0  0  0  0  0  0  0  0  0  0  0
  -22.6050  -13.2420   21.7320 N   0  0  0  0  0  0  0  0  0  0  0  0
  -23.1800  -14.8960   20.3520 O   0  0  0  0  0  0  0  0  0  0  0  0
  -22.8590  -12.4100   22.2400 H   0  0  0  0  0  0  0  0  0  0  0  0
  -21.6660  -13.6020   21.8190 H   0  0  0  0  0  0  0  0  0  0  0  0
  -26.2970  -15.3620   20.5000 N   0  0  0  0  0  0  0  0  0  0  0  0
  -25.5570  -16.0530   20.4740 H   0  0  0  0  0  0  0  0  0  0  0  0
  -27.1950  -15.7320   20.2150 H   0  0  0  0  0  0  0  0  0  0  0  0
  -30.2060  -22.5040   18.9700 C   0  0  0  0  0  2  0  0  0  0  0  0
  -29.6010  -23.9120   18.4700 C   0  0  0  0  0  2  0  0  0  0  0  0
  -29.0980  -25.0300   19.4870 C   0  0  0  0  0  2  0  0  0  0  0  0
  -29.0480  -26.4450   19.0520 O   0  0  0  0  0  0  0  0  0  0  0  0
  -24.9790  -30.9710   22.9400 C   0  0  0  0  0  0  0  0  0  0  0  0
  -27.8580  -27.1670   19.1950 C   0  0  0  0  0  0  0  0  0  0  0  0
  -23.8530  -29.7830   21.0900 C   0  0  0  0  0  3  0  0  0  0  0  0
  -25.3880  -28.5770   19.4370 C   0  0  0  0  0  0  0  0  0  0  0  0
  -26.3600  -30.3010   20.9610 C   0  0  0  0  0  2  0  0  0  0  0  0
  -26.5250  -29.0520   20.1040 C   0  0  0  0  0  0  0  0  0  0  0  0
  -27.7650  -28.3630   19.9700 C   0  0  0  0  0  3  0  0  0  0  0  0
  -26.6980  -26.7280   18.5260 C   0  0  0  0  0  3  0  0  0  0  0  0
  -25.4750  -27.4210   18.6410 C   0  0  0  0  0  3  0  0  0  0  0  0
  -24.0970  -29.3500   19.6190 C   0  0  0  0  0  2  0  0  0  0  0  0
  -25.0820  -30.3610   21.7230 N   0  0  0  0  0  0  0  0  0  0  0  0
  -23.8860  -31.0860   23.5130 O   0  0  0  0  0  0  0  0  0  0  0  0
  -23.2660  -28.5840   21.8720 C   0  0  0  0  0  0  0  0  0  0  0  0
  -21.9490  -28.3570   21.7300 N   0  0  0  0  0  0  0  0  0  0  0  0
  -23.9920  -27.8690   22.5670 O   0  0  0  0  0  0  0  0  0  0  0  0
  -21.4180  -28.9930   21.1510 H   0  0  0  0  0  0  0  0  0  0  0  0
  -18.6540  -26.8990   22.0410 C   0  0  0  0  0  0  0  0  0  0  0  0
  -21.1970  -27.2570   22.3380 C   0  0  0  0  0  3  0  0  0  0  0  0
  -21.3700  -25.9510   21.5300 C   0  0  0  0  0  2  0  0  0  0  0  0
  -20.2730  -25.7380   20.4820 C   0  0  0  0  0  2  0  0  0  0  0  0
  -18.8950  -25.6940   21.1490 C   0  0  0  0  0  2  0  0  0  0  0  0
  -19.7340  -27.6430   22.5860 C   0  0  0  0  0  0  0  0  0  0  0  0
  -19.4530  -28.7750   23.3820 C   0  0  0  0  0  3  0  0  0  0  0  0
  -18.1240  -29.1650   23.6360 C   0  0  0  0  0  3  0  0  0  0  0  0
  -17.0590  -28.4170   23.1060 C   0  0  0  0  0  3  0  0  0  0  0  0
  -17.3250  -27.2850   22.3140 C   0  0  0  0  0  3  0  0  0  0  0  0
  -26.2250  -31.5740   23.6610 C   0  0  0  0  0  3  0  0  0  0  0  0
  -26.7700  -30.6620   24.8280 C   0  0  1  0  0  0  0  0  0  0  0  0
  -25.6860  -30.2400   25.8460 C   0  0  0  0  0  1  0  0  0  0  0  0
  -27.4110  -29.3750   24.2600 C   0  0  0  0  0  1  0  0  0  0  0  0
  -27.8850  -31.4080   25.5990 C   0  0  0  0  0  1  0  0  0  0  0  0
  -25.8440  -32.8980   24.1740 N   0  0  0  0  0  0  0  0  0  0  0  0
  -26.1680  -34.0620   23.5930 C   0  0  0  0  0  0  0  0  0  0  0  0
  -26.8860  -34.1330   22.5930 O   0  0  0  0  0  0  0  0  0  0  0  0
  -25.2090  -32.9120   24.9580 H   0  0  0  0  0  0  0  0  0  0  0  0
  -24.3930  -35.8340   23.4120 C   0  0  0  0  0  1  0  0  0  0  0  0
  -25.6060  -35.3510   24.2230 C   0  0  0  0  0  3  0  0  0  0  0  0
  -27.6600  -36.1670   25.2930 C   0  0  0  0  0  1  0  0  0  0  0  0
  -26.6030  -36.4390   24.3230 N   0  0  0  0  0  0  0  0  0  0  0  0
  -26.1550  -37.3150   24.5780 H   0  0  0  0  0  0  0  0  0  0  0  0
  1  5  1  0
  2  5  2  0
  3  1  2  0
  4  6  2  0
  4  3  1  0
  5 20  1  0
  6  2  1  0
  7  3  1  0
  8  9  1  0
  8  7  1  0
 10  9  1  0
 10  4  1  0
 11  6  1  0
 12 20  1  0
 12 18  1  0
 13 18  1  0
 14 15  1  0
 14 13  1  0
 16 15  1  0
 16 25  1  0
 16 17  1  0
 18 17  1  0
 19 12  2  0
 20 21  1  0
 22 23  2  0
 23 24  1  0
 23 42  1  0
 24 27  1  0
 25 22  1  0
 25 26  1  0
 26 24  2  0
 27 28  1  0
 28 29  2  0
 30 29  1  0
 31 30  2  0
 32 31  1  0
 32 27  2  0
 33 30  1  0
 33 34  1  0
 34 35  1  0
 35 36  2  0
 37 36  1  0
 37 41  1  0
 38 37  2  0
 39 34  2  0
 39 38  1  0
 40 39  1  0
 42 43  1  0
 43 46  1  0
 43 45  1  0
 44 42  2  0
 47 22  1  0
 48 47  1  0
 49 47  1  0
 50 10  1  0
 51 50  1  0
 51 52  1  0
 53 55  1  0
 53 52  1  0
 54 65  2  0
 55 60  1  0
 56 64  1  0
 56 66  1  0
 57 63  1  0
 57 59  1  0
 58 64  1  0
 59 58  1  0
 60 59  2  0
 61 62  1  0
 61 55  2  0
 62 57  2  0
 63 56  1  0
 64 54  1  0
 66 68  2  0
 67 66  1  0
 69 67  1  0
 70 79  2  0
 70 75  1  0
 71 67  1  0
 71 75  1  0
 72 71  1  0
 73 74  1  0
 73 72  1  0
 74 70  1  0
 75 76  2  0
 76 77  1  0
 78 77  2  0
 79 78  1  0
 80 54  1  0
 80 85  1  0
 80 81  1  0
 81 84  1  1
 81 82  1  0
 83 81  1  0
 85 88  1  0
 86 85  1  0
 86 90  1  0
 87 86  2  0
 90 89  1  0
 90 92  1  0
 92 93  1  0
 92 91  1  0
M  ISO  4  12 100  20 100  52 101  53 101
M  END
>  <TORSDO>  (65) 
F 19

>  <SCORE>  (65) 
-10.315

>  <name>  (65) 
64

>  <ligand_id>  (65) 
64

>  <original_smiles>  (65) 
[H]c1c([H])c([H])c2c(c1[H])C([H])([H])C([H])([H])C([H])([H])C2([H])N([H])C(=O)C1([H])N(C(=O)C([H])(N([H])C(=O)C([H])(N([H])C([H])([H])[H])C([H])([H])[H])C(C([H])([H])[H])(C([H])([H])[H])C([H])([H])[H])C([H])([H])c2c([H])c(OC([H])([H])C([H])([H])C([H])([H])N3c4c(F)c([H])c(N([H])C(=O)N5C([H])([H])C([H])([H])C([H])([H])C([H])(n6nc(-c7c([H])c([H])c(Oc8c([H])c([H])c(F)c([H])c8F)c([H])c7[H])c(C(=O)N([H])[H])c6N([H])[H])C5([H])[H])c([H])c4C([H])([H])C([H])([H])C3([H])[H])c([H])c([H])c2C1([H])[H]

>  <smiles>  (65) 
[H]c1c([H])c([H])c2c(c1[H])C([H])([H])C([H])([H])C([H])([H])C2([H])N([H])C(=O)C1([H])N(C(=O)C([H])(N([H])C(=O)C([H])(N([H])C([H])([H])[H])C([H])([H])[H])C(C([H])([H])[H])(C([H])([H])[H])C([H])([H])[H])C([H])([H])c2c([H])c(OC([H])([H])C([H])([H])C([H])([H])N3c4c(F)c([H])c(N([H])C(=O)N5C([H])([H])C([H])([H])C([H])([H])C([H])(n6nc(-c7c([H])c([H])c(Oc8c([H])c([H])c(F)c([H])c8F)c([H])c7[H])c(C(=O)N([H])[H])c6N([H])[H])C5([H])[H])c([H])c4C([H])([H])C([H])([H])C3([H])[H])c([H])c([H])c2C1([H])[H]

$$$$
65:0:0
     RDKit          3D

 96105  0  0  1  0  0  0  0  0999 V2000
  -29.7020  -17.6760   19.9070 C   0  0  0  0  0  3  0  0  0  0  0  0
  -30.2970  -19.4840   21.9790 C   0  0  0  0  0  3  0  0  0  0  0  0
  -29.7430  -19.0610   19.6420 C   0  0  0  0  0  0  0  0  0  0  0  0
  -30.0360  -19.9750   20.6820 C   0  0  0  0  0  0  0  0  0  0  0  0
  -29.9380  -17.1920   21.2110 C   0  0  0  0  0  0  0  0  0  0  0  0
  -30.2460  -18.1030   22.2450 C   0  0  0  0  0  0  0  0  0  0  0  0
  -29.4720  -19.5690   18.2390 C   0  0  0  0  0  2  0  0  0  0  0  0
  -30.0280  -21.4860   20.4420 C   0  0  0  0  0  2  0  0  0  0  0  0
  -29.0250  -21.0360   18.2390 C   0  0  0  0  0  2  0  0  0  0  0  0
  -29.9780  -21.8750   19.0070 N   0  0  1  0  0  4  0  0  0  0  0  0
  -30.4770  -17.6600   23.5040 F   0  0  0  0  0  0  0  0  0  0  0  0
  -30.8900  -21.6730   18.6260 H   0  0  0  0  0  0  0  0  0  0  0  0
  -29.7960  -15.7040   21.5040 C   0  0  0  0  0  2  0  0  0  0  0  0
  -31.0780  -14.2860   19.9100 C   0  0  0  0  0  0  0  0  0  0  0  0
  -30.4690  -12.3730   18.4650 C   0  0  0  0  0  2  0  0  0  0  0  0
  -29.4160  -12.7720   17.4130 C   0  0  0  0  0  2  0  0  0  0  0  0
  -27.9910  -12.6520   17.9850 C   0  0  0  0  0  2  0  0  0  0  0  0
  -27.8500  -13.3400   19.3680 C   0  0  0  0  0  3  0  0  0  0  0  0
  -28.9920  -12.8840   20.3080 C   0  0  0  0  0  2  0  0  0  0  0  0
  -30.2740  -13.2110   19.6610 N   0  0  0  0  0  0  0  0  0  0  0  0
  -32.0330  -14.5690   19.1750 O   0  0  0  0  0  0  0  0  0  0  0  0
  -32.1740  -15.2350   21.8580 C   0  0  0  0  0  1  0  0  0  0  0  0
  -30.9540  -14.8780   21.1240 N   0  0  0  0  0  0  0  0  0  0  0  0
  -25.5410  -14.0040   20.3010 C   0  0  0  0  0  0  0  0  0  0  0  0
  -24.4880  -13.2520   20.7470 C   0  0  0  0  0  0  0  0  0  0  0  0
  -24.9000  -11.8890   20.6350 C   0  0  0  0  0  0  0  0  0  0  0  0
  -26.5350  -13.0980   19.9550 N   0  0  0  0  0  0  0  0  0  0  0  0
  -26.1540  -11.8210   20.2070 N   0  0  0  0  0  0  0  0  0  0  0  0
  -24.1560  -10.6440   20.8560 C   0  0  0  0  0  0  0  0  0  0  0  0
  -24.6200   -9.6560   21.7530 C   0  0  0  0  0  3  0  0  0  0  0  0
  -23.8780   -8.4730   21.9610 C   0  0  0  0  0  3  0  0  0  0  0  0
  -22.6580   -8.2700   21.2740 C   0  0  0  0  0  0  0  0  0  0  0  0
  -22.2120   -9.2460   20.3650 C   0  0  0  0  0  3  0  0  0  0  0  0
  -22.9530  -10.4210   20.1550 C   0  0  0  0  0  3  0  0  0  0  0  0
  -21.8830   -7.1430   21.3950 O   0  0  0  0  0  0  0  0  0  0  0  0
  -21.8480   -6.4150   22.5570 C   0  0  0  0  0  0  0  0  0  0  0  0
  -21.4790   -6.9960   23.7910 C   0  0  0  0  0  3  0  0  0  0  0  0
  -21.3900   -6.1960   24.9470 C   0  0  0  0  0  3  0  0  0  0  0  0
  -21.6580   -4.8170   24.8720 C   0  0  0  0  0  0  0  0  0  0  0  0
  -22.0200   -4.2350   23.6440 C   0  0  0  0  0  3  0  0  0  0  0  0
  -22.1120   -5.0330   22.4890 C   0  0  0  0  0  0  0  0  0  0  0  0
  -22.4410   -4.4630   21.3050 F   0  0  0  0  0  0  0  0  0  0  0  0
  -21.5640   -4.0460   25.9810 F   0  0  0  0  0  0  0  0  0  0  0  0
  -23.1370  -13.7610   21.1620 C   0  0  0  0  0  0  0  0  0  0  0  0
  -22.4800  -13.0720   22.0900 N   0  0  0  0  0  0  0  0  0  0  0  0
  -22.6740  -14.8020   20.6990 O   0  0  0  0  0  0  0  0  0  0  0  0
  -22.8680  -12.2280   22.4860 H   0  0  0  0  0  0  0  0  0  0  0  0
  -21.5780  -13.3930   22.4090 H   0  0  0  0  0  0  0  0  0  0  0  0
  -25.7320  -15.3740   20.1440 N   0  0  0  0  0  0  0  0  0  0  0  0
  -24.9960  -16.0450   20.3360 H   0  0  0  0  0  0  0  0  0  0  0  0
  -26.5540  -15.7980   19.7330 H   0  0  0  0  0  0  0  0  0  0  0  0
  -29.7320  -23.3260   18.7870 C   0  0  0  0  0  2  0  0  0  0  0  0
  -30.6830  -24.2540   19.5790 C   0  0  0  0  0  2  0  0  0  0  0  0
  -30.7580  -25.6860   19.0150 C   0  0  0  0  0  2  0  0  0  0  0  0
  -29.4070  -26.4100   18.9030 C   0  0  0  0  0  2  0  0  0  0  0  0
  -28.9270  -26.7470   20.2020 O   0  0  0  0  0  0  0  0  0  0  0  0
  -24.8950  -31.6620   23.3960 C   0  0  0  0  0  0  0  0  0  0  0  0
  -27.7280  -27.4160   20.2190 C   0  0  0  0  0  0  0  0  0  0  0  0
  -23.7660  -30.3020   21.6620 C   0  0  0  0  0  3  0  0  0  0  0  0
  -25.2930  -28.8450   20.2320 C   0  0  0  0  0  0  0  0  0  0  0  0
  -26.2870  -30.7160   21.5600 C   0  0  0  0  0  2  0  0  0  0  0  0
  -26.4180  -29.3700   20.8800 C   0  0  0  0  0  0  0  0  0  0  0  0
  -27.6330  -28.6550   20.8870 C   0  0  0  0  0  3  0  0  0  0  0  0
  -26.5820  -26.8870   19.5840 C   0  0  0  0  0  3  0  0  0  0  0  0
  -25.3660  -27.5960   19.5890 C   0  0  0  0  0  3  0  0  0  0  0  0
  -24.0310  -29.6770   20.2660 C   0  0  0  0  0  2  0  0  0  0  0  0
  -24.9990  -30.9060   22.2660 N   0  0  0  0  0  0  0  0  0  0  0  0
  -23.7930  -31.8940   23.9100 O   0  0  0  0  0  0  0  0  0  0  0  0
  -23.1040  -29.2350   22.5610 C   0  0  0  0  0  0  0  0  0  0  0  0
  -21.7900  -29.0310   22.3770 N   0  0  0  0  0  0  0  0  0  0  0  0
  -23.7700  -28.5960   23.3800 O   0  0  0  0  0  0  0  0  0  0  0  0
  -21.3140  -29.6030   21.6940 H   0  0  0  0  0  0  0  0  0  0  0  0
  -18.4290  -27.7480   22.6960 C   0  0  0  0  0  0  0  0  0  0  0  0
  -20.9660  -28.0500   23.0810 C   0  0  0  0  0  3  0  0  0  0  0  0
  -21.1250  -26.6420   22.4630 C   0  0  0  0  0  2  0  0  0  0  0  0
  -20.0730  -26.3310   21.3940 C   0  0  0  0  0  2  0  0  0  0  0  0
  -18.6620  -26.4260   21.9850 C   0  0  0  0  0  2  0  0  0  0  0  0
  -19.5110  -28.5180   23.1960 C   0  0  0  0  0  0  0  0  0  0  0  0
  -19.2410  -29.7570   23.8180 C   0  0  0  0  0  3  0  0  0  0  0  0
  -17.9200  -30.2260   23.9440 C   0  0  0  0  0  3  0  0  0  0  0  0
  -16.8520  -29.4530   23.4590 C   0  0  0  0  0  3  0  0  0  0  0  0
  -17.1060  -28.2150   22.8420 C   0  0  0  0  0  3  0  0  0  0  0  0
  -26.1510  -32.2880   24.0800 C   0  0  0  0  0  3  0  0  0  0  0  0
  -25.8110  -33.6690   24.4470 N   0  0  0  0  0  0  0  0  0  0  0  0
  -26.1450  -34.7490   23.7290 C   0  0  0  0  0  0  0  0  0  0  0  0
  -26.8430  -34.6890   22.7130 O   0  0  0  0  0  0  0  0  0  0  0  0
  -25.1920  -33.7890   25.2360 H   0  0  0  0  0  0  0  0  0  0  0  0
  -24.3860  -36.5140   23.3910 C   0  0  0  0  0  1  0  0  0  0  0  0
  -25.6200  -36.1140   24.2150 C   0  0  0  0  0  3  0  0  0  0  0  0
  -27.7230  -37.0140   25.1070 C   0  0  0  0  0  1  0  0  0  0  0  0
  -26.6330  -37.1910   24.1510 N   0  0  0  0  0  0  0  0  0  0  0  0
  -26.2060  -38.0970   24.3230 H   0  0  0  0  0  0  0  0  0  0  0  0
  -26.6390  -31.4770   25.3430 C   0  0  1  0  0  0  0  0  0  0  0  0
  -25.5170  -31.1820   26.3650 C   0  0  0  0  0  1  0  0  0  0  0  0
  -27.2560  -30.1230   24.9170 C   0  0  0  0  0  1  0  0  0  0  0  0
  -27.7560  -32.2610   26.0720 C   0  0  0  0  0  1  0  0  0  0  0  0
  1  5  1  0
  2  6  1  0
  3  1  2  0
  3  4  1  0
  4  2  2  0
  5 13  1  0
  5  6  2  0
  6 11  1  0
  7  9  1  0
  7  3  1  0
  8  4  1  0
  9 10  1  0
 10  8  1  0
 10 12  1  6
 14 23  1  0
 15 20  1  0
 16 17  1  0
 16 15  1  0
 18 17  1  0
 18 27  1  0
 18 19  1  0
 20 14  1  0
 20 19  1  0
 21 14  2  0
 23 13  1  0
 23 22  1  0
 24 25  2  0
 25 44  1  0
 26 25  1  0
 26 29  1  0
 27 28  1  0
 27 24  1  0
 28 26  2  0
 29 30  1  0
 30 31  2  0
 32 35  1  0
 32 31  1  0
 33 32  2  0
 34 33  1  0
 34 29  2  0
 35 36  1  0
 36 37  1  0
 37 38  2  0
 39 38  1  0
 39 43  1  0
 40 39  2  0
 41 36  2  0
 41 40  1  0
 42 41  1  0
 44 45  1  0
 45 48  1  0
 45 47  1  0
 46 44  2  0
 49 24  1  0
 49 50  1  0
 51 49  1  0
 52 10  1  0
 52 53  1  0
 54 53  1  0
 55 54  1  0
 55 56  1  0
 56 58  1  0
 57 68  2  0
 58 63  1  0
 59 67  1  0
 59 69  1  0
 60 66  1  0
 60 62  1  0
 61 67  1  0
 62 63  2  0
 62 61  1  0
 64 65  1  0
 64 58  2  0
 65 60  2  0
 66 59  1  0
 67 57  1  0
 69 71  2  0
 70 69  1  0
 72 70  1  0
 73 82  2  0
 73 78  1  0
 74 70  1  0
 74 78  1  0
 75 74  1  0
 76 77  1  0
 76 75  1  0
 77 73  1  0
 78 79  2  0
 79 80  1  0
 81 80  2  0
 82 81  1  0
 83 57  1  0
 83 84  1  0
 83 93  1  0
 84 87  1  0
 85 89  1  0
 85 84  1  0
 86 85  2  0
 89 88  1  0
 91 89  1  0
 91 92  1  0
 91 90  1  0
 93 96  1  1
 93 94  1  0
 95 93  1  0
M  ISO  4  14 100  23 100  55 101  56 101
M  END
>  <TORSDO>  (66) 
F 21

>  <SCORE>  (66) 
-10.621

>  <name>  (66) 
65

>  <ligand_id>  (66) 
65

>  <original_smiles>  (66) 
[H]c1c([H])c([H])c2c(c1[H])C([H])([H])C([H])([H])C([H])([H])C2([H])N([H])C(=O)C1([H])N(C(=O)C([H])(N([H])C(=O)C([H])(N([H])C([H])([H])[H])C([H])([H])[H])C(C([H])([H])[H])(C([H])([H])[H])C([H])([H])[H])C([H])([H])c2c([H])c(OC([H])([H])C([H])([H])C([H])([H])C([H])([H])[N+]3([H])C([H])([H])c4c([H])c(F)c(C([H])([H])N(C(=O)N5C([H])([H])C([H])([H])C([H])([H])C([H])(n6nc(-c7c([H])c([H])c(Oc8c([H])c([H])c(F)c([H])c8F)c([H])c7[H])c(C(=O)N([H])[H])c6N([H])[H])C5([H])[H])C([H])([H])[H])c([H])c4C([H])([H])C3([H])[H])c([H])c([H])c2C1([H])[H]

>  <smiles>  (66) 
[H]c1c([H])c([H])c2c(c1[H])C([H])([H])C([H])([H])C([H])([H])C2([H])N([H])C(=O)C1([H])N(C(=O)C([H])(N([H])C(=O)C([H])(N([H])C([H])([H])[H])C([H])([H])[H])C(C([H])([H])[H])(C([H])([H])[H])C([H])([H])[H])C([H])([H])c2c([H])c(OC([H])([H])C([H])([H])C([H])([H])C([H])([H])[N+]3([H])C([H])([H])c4c([H])c(F)c(C([H])([H])N(C(=O)N5C([H])([H])C([H])([H])C([H])([H])C([H])(n6nc(-c7c([H])c([H])c(Oc8c([H])c([H])c(F)c([H])c8F)c([H])c7[H])c(C(=O)N([H])[H])c6N([H])[H])C5([H])[H])C([H])([H])[H])c([H])c4C([H])([H])C3([H])[H])c([H])c([H])c2C1([H])[H]

$$$$
66:0:0
     RDKit          3D

100109  0  0  1  0  0  0  0  0999 V2000
  -30.4790  -22.1450   21.8220 C   0  0  0  0  0  3  0  0  0  0  0  0
  -31.0410  -23.4250   21.6490 C   0  0  0  0  0  3  0  0  0  0  0  0
  -29.5450  -23.8290   19.7710 C   0  0  0  0  0  3  0  0  0  0  0  0
  -29.4390  -21.7080   20.9720 C   0  0  0  0  0  0  0  0  0  0  0  0
  -30.5870  -24.2750   20.6170 C   0  0  0  0  0  0  0  0  0  0  0  0
  -28.9640  -22.5650   19.9600 C   0  0  0  0  0  0  0  0  0  0  0  0
  -27.9570  -22.1640   19.1460 F   0  0  0  0  0  0  0  0  0  0  0  0
  -28.8510  -20.3150   21.1290 C   0  0  0  0  0  2  0  0  0  0  0  0
  -30.7190  -18.4130   18.3670 C   0  0  0  0  0  2  0  0  0  0  0  0
  -30.3900  -16.9840   18.7970 C   0  0  0  0  0  2  0  0  0  0  0  0
  -29.7280  -19.4060   18.9870 C   0  0  0  0  0  2  0  0  0  0  0  0
  -29.3590  -17.9130   20.9200 C   0  0  0  0  0  2  0  0  0  0  0  0
  -30.3490  -16.8810   20.3420 C   0  0  0  0  0  3  0  0  0  0  0  0
  -29.6990  -19.2890   20.4730 N   0  0  2  0  0  4  0  0  0  0  0  0
  -30.6380  -19.4650   20.7970 H   0  0  0  0  0  0  0  0  0  0  0  0
  -30.7430  -14.4520   20.4680 C   0  0  0  0  0  0  0  0  0  0  0  0
  -30.4120  -12.3200   19.3200 C   0  0  0  0  0  2  0  0  0  0  0  0
  -29.4950  -12.5800   18.1090 C   0  0  0  0  0  2  0  0  0  0  0  0
  -28.0100  -12.4700   18.5110 C   0  0  0  0  0  2  0  0  0  0  0  0
  -27.6690  -13.2880   19.7870 C   0  0  0  0  0  3  0  0  0  0  0  0
  -28.7070  -13.0380   20.9060 C   0  0  0  0  0  2  0  0  0  0  0  0
  -30.0490  -13.2950   20.3550 N   0  0  0  0  0  0  0  0  0  0  0  0
  -31.9040  -14.5940   20.0750 O   0  0  0  0  0  0  0  0  0  0  0  0
  -29.9940  -15.5220   20.7560 N   0  0  0  0  0  0  0  0  0  0  0  0
  -29.0510  -15.3450   21.0670 H   0  0  0  0  0  0  0  0  0  0  0  0
  -25.2560  -13.9090   20.4390 C   0  0  0  0  0  0  0  0  0  0  0  0
  -24.1800  -13.1420   20.8010 C   0  0  0  0  0  0  0  0  0  0  0  0
  -24.6410  -11.7900   20.7990 C   0  0  0  0  0  0  0  0  0  0  0  0
  -26.3040  -13.0240   20.2420 N   0  0  0  0  0  0  0  0  0  0  0  0
  -25.9360  -11.7450   20.5140 N   0  0  0  0  0  0  0  0  0  0  0  0
  -23.9090  -10.5320   20.9940 C   0  0  0  0  0  0  0  0  0  0  0  0
  -24.3260   -9.5760   21.9470 C   0  0  0  0  0  3  0  0  0  0  0  0
  -23.5950   -8.3820   22.1300 C   0  0  0  0  0  3  0  0  0  0  0  0
  -22.4350   -8.1350   21.3590 C   0  0  0  0  0  0  0  0  0  0  0  0
  -22.0370   -9.0790   20.3960 C   0  0  0  0  0  3  0  0  0  0  0  0
  -22.7690  -10.2650   20.2120 C   0  0  0  0  0  3  0  0  0  0  0  0
  -21.6780   -6.9910   21.4500 O   0  0  0  0  0  0  0  0  0  0  0  0
  -21.6120   -6.2610   22.6090 C   0  0  0  0  0  0  0  0  0  0  0  0
  -21.1600   -6.8270   23.8210 C   0  0  0  0  0  3  0  0  0  0  0  0
  -21.0420   -6.0230   24.9730 C   0  0  0  0  0  3  0  0  0  0  0  0
  -21.3650   -4.6540   24.9130 C   0  0  0  0  0  0  0  0  0  0  0  0
  -21.8110   -4.0880   23.7040 C   0  0  0  0  0  3  0  0  0  0  0  0
  -21.9300   -4.8890   22.5560 C   0  0  0  0  0  0  0  0  0  0  0  0
  -22.3390   -4.3320   21.3900 F   0  0  0  0  0  0  0  0  0  0  0  0
  -21.2440   -3.8800   26.0160 F   0  0  0  0  0  0  0  0  0  0  0  0
  -22.7780  -13.6250   21.0410 C   0  0  0  0  0  0  0  0  0  0  0  0
  -22.0330  -12.9420   21.9030 N   0  0  0  0  0  0  0  0  0  0  0  0
  -22.3520  -14.6440   20.4980 O   0  0  0  0  0  0  0  0  0  0  0  0
  -22.3890  -12.1170   22.3630 H   0  0  0  0  0  0  0  0  0  0  0  0
  -21.0920  -13.2490   22.1050 H   0  0  0  0  0  0  0  0  0  0  0  0
  -25.4230  -15.2770   20.2410 N   0  0  0  0  0  0  0  0  0  0  0  0
  -24.6450  -15.9230   20.3090 H   0  0  0  0  0  0  0  0  0  0  0  0
  -26.2630  -15.7040   19.8730 H   0  0  0  0  0  0  0  0  0  0  0  0
  -31.1330  -25.5660   20.4960 N   0  0  0  0  0  0  0  0  0  0  0  0
  -31.3920  -26.0580   19.1390 C   0  0  0  0  0  2  0  0  0  0  0  0
  -33.8660  -25.3910   19.0690 C   0  0  0  0  0  1  0  0  0  0  0  0
  -32.4860  -25.2570   18.4090 C   0  0  0  0  0  2  0  0  0  0  0  0
  -30.5520  -26.5180   21.4490 C   0  0  0  0  0  2  0  0  0  0  0  0
  -29.0090  -26.5630   21.4600 C   0  0  0  0  0  2  0  0  0  0  0  0
  -28.4690  -26.8060   20.1550 O   0  0  0  0  0  0  0  0  0  0  0  0
  -24.5980  -31.8840   23.2190 C   0  0  0  0  0  0  0  0  0  0  0  0
  -27.3000  -27.5200   20.1500 C   0  0  0  0  0  0  0  0  0  0  0  0
  -23.4010  -30.4770   21.5670 C   0  0  0  0  0  3  0  0  0  0  0  0
  -24.8730  -28.9550   20.1430 C   0  0  0  0  0  0  0  0  0  0  0  0
  -25.9130  -30.8800   21.3620 C   0  0  0  0  0  2  0  0  0  0  0  0
  -26.0160  -29.5120   20.7310 C   0  0  0  0  0  0  0  0  0  0  0  0
  -27.2310  -28.8050   20.7270 C   0  0  0  0  0  3  0  0  0  0  0  0
  -26.1510  -26.9700   19.5450 C   0  0  0  0  0  3  0  0  0  0  0  0
  -24.9340  -27.6820   19.5450 C   0  0  0  0  0  3  0  0  0  0  0  0
  -23.6170  -29.7940   20.1860 C   0  0  0  0  0  2  0  0  0  0  0  0
  -24.6550  -31.0940   22.1110 N   0  0  0  0  0  0  0  0  0  0  0  0
  -23.5160  -32.1450   23.7630 O   0  0  0  0  0  0  0  0  0  0  0  0
  -22.7600  -29.4510   22.5260 C   0  0  0  0  0  0  0  0  0  0  0  0
  -21.4340  -29.2720   22.4090 N   0  0  0  0  0  0  0  0  0  0  0  0
  -23.4480  -28.8180   23.3300 O   0  0  0  0  0  0  0  0  0  0  0  0
  -20.9400  -29.8390   21.7340 H   0  0  0  0  0  0  0  0  0  0  0  0
  -18.0610  -28.0990   22.9290 C   0  0  0  0  0  0  0  0  0  0  0  0
  -20.6230  -28.3300   23.1760 C   0  0  0  0  0  3  0  0  0  0  0  0
  -20.7070  -26.9060   22.5780 C   0  0  0  0  0  2  0  0  0  0  0  0
  -19.5900  -26.6090   21.5720 C   0  0  0  0  0  2  0  0  0  0  0  0
  -18.2170  -26.7570   22.2340 C   0  0  0  0  0  2  0  0  0  0  0  0
  -19.1910  -28.8430   23.3580 C   0  0  0  0  0  0  0  0  0  0  0  0
  -18.9910  -30.1030   23.9660 C   0  0  0  0  0  3  0  0  0  0  0  0
  -17.6940  -30.6150   24.1520 C   0  0  0  0  0  3  0  0  0  0  0  0
  -16.5770  -29.8660   23.7390 C   0  0  0  0  0  3  0  0  0  0  0  0
  -16.7610  -28.6110   23.1320 C   0  0  0  0  0  3  0  0  0  0  0  0
  -25.8820  -32.5170   23.8430 C   0  0  0  0  0  3  0  0  0  0  0  0
  -25.5700  -33.9130   24.1740 N   0  0  0  0  0  0  0  0  0  0  0  0
  -25.9050  -34.9660   23.4170 C   0  0  0  0  0  0  0  0  0  0  0  0
  -26.5790  -34.8650   22.3880 O   0  0  0  0  0  0  0  0  0  0  0  0
  -24.9740  -34.0660   24.9740 H   0  0  0  0  0  0  0  0  0  0  0  0
  -24.1780  -36.7540   23.0450 C   0  0  0  0  0  1  0  0  0  0  0  0
  -25.4100  -36.3530   23.8700 C   0  0  0  0  0  3  0  0  0  0  0  0
  -27.5370  -37.2380   24.7230 C   0  0  0  0  0  1  0  0  0  0  0  0
  -26.4420  -37.4070   23.7700 N   0  0  0  0  0  0  0  0  0  0  0  0
  -26.0330  -38.3260   23.9160 H   0  0  0  0  0  0  0  0  0  0  0  0
  -26.4060  -31.7430   25.1150 C   0  0  1  0  0  0  0  0  0  0  0  0
  -25.3170  -31.4950   26.1850 C   0  0  0  0  0  1  0  0  0  0  0  0
  -26.9980  -30.3730   24.7100 C   0  0  0  0  0  1  0  0  0  0  0  0
  -27.5570  -32.5370   25.7750 C   0  0  0  0  0  1  0  0  0  0  0  0
  2  1  1  0
  3  6  2  0
  3  5  1  0
  4  8  1  0
  4  1  2  0
  5  2  2  0
  6  4  1  0
  7  6  1  0
  9 10  1  0
  9 11  1  0
 10 13  1  0
 11 14  1  0
 13 24  1  0
 13 12  1  0
 14 15  1  1
 14 12  1  0
 14  8  1  0
 16 24  1  0
 17 22  1  0
 18 19  1  0
 18 17  1  0
 20 19  1  0
 20 29  1  0
 20 21  1  0
 22 16  1  0
 22 21  1  0
 23 16  2  0
 24 25  1  0
 26 27  2  0
 27 46  1  0
 28 27  1  0
 28 31  1  0
 29 26  1  0
 29 30  1  0
 30 28  2  0
 31 32  1  0
 32 33  2  0
 34 37  1  0
 34 33  1  0
 35 34  2  0
 36 35  1  0
 36 31  2  0
 37 38  1  0
 38 39  1  0
 39 40  2  0
 41 40  1  0
 41 45  1  0
 42 41  2  0
 43 38  2  0
 43 42  1  0
 44 43  1  0
 46 47  1  0
 47 50  1  0
 47 49  1  0
 48 46  2  0
 51 52  1  0
 51 26  1  0
 53 51  1  0
 54  5  1  0
 54 58  1  0
 55 54  1  0
 57 56  1  0
 57 55  1  0
 58 59  1  0
 60 59  1  0
 61 72  2  0
 62 60  1  0
 62 67  1  0
 63 71  1  0
 63 73  1  0
 64 70  1  0
 64 66  1  0
 65 71  1  0
 66 65  1  0
 67 66  2  0
 68 62  2  0
 69 68  1  0
 69 64  2  0
 70 63  1  0
 71 61  1  0
 73 75  2  0
 74 73  1  0
 76 74  1  0
 77 86  2  0
 77 82  1  0
 78 74  1  0
 78 82  1  0
 79 78  1  0
 80 81  1  0
 80 79  1  0
 81 77  1  0
 82 83  2  0
 83 84  1  0
 85 84  2  0
 86 85  1  0
 87 61  1  0
 87 88  1  0
 87 97  1  0
 88 91  1  0
 89 93  1  0
 89 88  1  0
 90 89  2  0
 93 92  1  0
 95 93  1  0
 95 96  1  0
 95 94  1  0
 97100  1  1
 97 98  1  0
 99 97  1  0
M  ISO  4  16 100  24 100  59 101  60 101
M  END
>  <TORSDO>  (67) 
F 23

>  <SCORE>  (67) 
-12.909

>  <name>  (67) 
66

>  <ligand_id>  (67) 
66

>  <original_smiles>  (67) 
[H]c1c([H])c([H])c2c(c1[H])C([H])([H])C([H])([H])C([H])([H])C2([H])N([H])C(=O)C1([H])N(C(=O)C([H])(N([H])C(=O)C([H])(N([H])C([H])([H])[H])C([H])([H])[H])C(C([H])([H])[H])(C([H])([H])[H])C([H])([H])[H])C([H])([H])c2c([H])c(OC([H])([H])C([H])([H])N(c3c([H])c([H])c(C([H])([H])[N+]4([H])C([H])([H])C([H])([H])C([H])([H])C([H])(N([H])C(=O)N5C([H])([H])C([H])([H])C([H])([H])C([H])(n6nc(-c7c([H])c([H])c(Oc8c([H])c([H])c(F)c([H])c8F)c([H])c7[H])c(C(=O)N([H])[H])c6N([H])[H])C5([H])[H])C4([H])[H])c(F)c3[H])C([H])([H])C([H])([H])C([H])([H])[H])c([H])c([H])c2C1([H])[H]

>  <smiles>  (67) 
[H]c1c([H])c([H])c2c(c1[H])C([H])([H])C([H])([H])C([H])([H])C2([H])N([H])C(=O)C1([H])N(C(=O)C([H])(N([H])C(=O)C([H])(N([H])C([H])([H])[H])C([H])([H])[H])C(C([H])([H])[H])(C([H])([H])[H])C([H])([H])[H])C([H])([H])c2c([H])c(OC([H])([H])C([H])([H])N(c3c([H])c([H])c(C([H])([H])[N+]4([H])C([H])([H])C([H])([H])C([H])([H])C([H])(N([H])C(=O)N5C([H])([H])C([H])([H])C([H])([H])C([H])(n6nc(-c7c([H])c([H])c(Oc8c([H])c([H])c(F)c([H])c8F)c([H])c7[H])c(C(=O)N([H])[H])c6N([H])[H])C5([H])[H])C4([H])[H])c(F)c3[H])C([H])([H])C([H])([H])C([H])([H])[H])c([H])c([H])c2C1([H])[H]

$$$$
67:0:0
     RDKit          3D

 92100  0  0  1  0  0  0  0  0999 V2000
  -28.7830  -18.7600   21.2510 C   0  0  0  0  0  3  0  0  0  0  0  0
  -28.8430  -20.1660   21.1120 C   0  0  0  0  0  3  0  0  0  0  0  0
  -30.0080  -18.5040   19.1760 C   0  0  0  0  0  3  0  0  0  0  0  0
  -29.3590  -17.9100   20.2820 C   0  0  0  0  0  0  0  0  0  0  0  0
  -29.4880  -20.7720   20.0080 C   0  0  0  0  0  0  0  0  0  0  0  0
  -30.0710  -19.9110   19.0350 C   0  0  0  0  0  0  0  0  0  0  0  0
  -30.6810  -20.4190   17.9340 F   0  0  0  0  0  0  0  0  0  0  0  0
  -30.7740  -22.7770   19.4190 C   0  0  0  0  0  1  0  0  0  0  0  0
  -29.5360  -22.1920   19.9300 N   0  0  0  0  0  0  0  0  0  0  0  0
  -28.2670  -22.8780   19.6350 C   0  0  0  0  0  2  0  0  0  0  0  0
  -28.1510  -24.3260   20.1980 C   0  0  0  0  0  2  0  0  0  0  0  0
  -28.5010  -25.4670   19.2060 C   0  0  0  0  0  2  0  0  0  0  0  0
  -28.4010  -26.7800   19.7890 O   0  0  0  0  0  0  0  0  0  0  0  0
  -24.5970  -31.7710   23.1540 C   0  0  0  0  0  0  0  0  0  0  0  0
  -27.1950  -27.4570   19.8370 C   0  0  0  0  0  0  0  0  0  0  0  0
  -23.3610  -30.4260   21.4870 C   0  0  0  0  0  3  0  0  0  0  0  0
  -24.7860  -28.9510   19.9710 C   0  0  0  0  0  0  0  0  0  0  0  0
  -25.8800  -30.8040   21.2460 C   0  0  0  0  0  2  0  0  0  0  0  0
  -25.9560  -29.4580   20.5520 C   0  0  0  0  0  0  0  0  0  0  0  0
  -27.1590  -28.7180   20.4820 C   0  0  0  0  0  3  0  0  0  0  0  0
  -25.9990  -26.9600   19.2670 C   0  0  0  0  0  3  0  0  0  0  0  0
  -24.8040  -27.7000   19.3310 C   0  0  0  0  0  3  0  0  0  0  0  0
  -23.5420  -29.8030   20.0770 C   0  0  0  0  0  2  0  0  0  0  0  0
  -24.6330  -31.0140   22.0200 N   0  0  0  0  0  0  0  0  0  0  0  0
  -23.5270  -32.0170   23.7260 O   0  0  0  0  0  0  0  0  0  0  0  0
  -22.7380  -29.3650   22.4210 C   0  0  0  0  0  0  0  0  0  0  0  0
  -21.4120  -29.1780   22.3130 N   0  0  0  0  0  0  0  0  0  0  0  0
  -23.4400  -28.7160   23.1990 O   0  0  0  0  0  0  0  0  0  0  0  0
  -20.9040  -29.7550   21.6580 H   0  0  0  0  0  0  0  0  0  0  0  0
  -18.0550  -27.9480   22.8400 C   0  0  0  0  0  0  0  0  0  0  0  0
  -20.6180  -28.2060   23.0650 C   0  0  0  0  0  3  0  0  0  0  0  0
  -20.7130  -26.8010   22.4280 C   0  0  0  0  0  2  0  0  0  0  0  0
  -19.5890  -26.5140   21.4270 C   0  0  0  0  0  2  0  0  0  0  0  0
  -18.2210  -26.6270   22.1090 C   0  0  0  0  0  2  0  0  0  0  0  0
  -19.1810  -28.6970   23.2750 C   0  0  0  0  0  0  0  0  0  0  0  0
  -18.9720  -29.9350   23.9200 C   0  0  0  0  0  3  0  0  0  0  0  0
  -17.6700  -30.4250   24.1350 C   0  0  0  0  0  3  0  0  0  0  0  0
  -16.5590  -29.6730   23.7170 C   0  0  0  0  0  3  0  0  0  0  0  0
  -16.7530  -28.4360   23.0750 C   0  0  0  0  0  3  0  0  0  0  0  0
  -25.8940  -32.3850   23.7680 C   0  0  0  0  0  3  0  0  0  0  0  0
  -25.5920  -33.7740   24.1390 N   0  0  0  0  0  0  0  0  0  0  0  0
  -25.9140  -34.8440   23.4010 C   0  0  0  0  0  0  0  0  0  0  0  0
  -26.5670  -34.7650   22.3570 O   0  0  0  0  0  0  0  0  0  0  0  0
  -25.0090  -33.9090   24.9520 H   0  0  0  0  0  0  0  0  0  0  0  0
  -24.1860  -36.6490   23.1120 C   0  0  0  0  0  1  0  0  0  0  0  0
  -25.4340  -36.2190   23.8990 C   0  0  0  0  0  3  0  0  0  0  0  0
  -27.5760  -37.0790   24.7400 C   0  0  0  0  0  1  0  0  0  0  0  0
  -26.4680  -37.2730   23.8060 N   0  0  0  0  0  0  0  0  0  0  0  0
  -26.0650  -38.1900   23.9770 H   0  0  0  0  0  0  0  0  0  0  0  0
  -26.4360  -31.5790   25.0130 C   0  0  1  0  0  0  0  0  0  0  0  0
  -25.3610  -31.2990   26.0900 C   0  0  0  0  0  1  0  0  0  0  0  0
  -27.0230  -30.2190   24.5690 C   0  0  0  0  0  1  0  0  0  0  0  0
  -27.5940  -32.3610   25.6780 C   0  0  0  0  0  1  0  0  0  0  0  0
  -29.2010  -16.3810   20.3840 C   0  0  0  0  0  2  0  0  0  0  0  0
  -30.8810  -14.5790   20.1680 C   0  0  0  0  0  0  0  0  0  0  0  0
  -30.5420  -12.3970   19.0490 C   0  0  0  0  0  2  0  0  0  0  0  0
  -29.5690  -12.5410   17.8640 C   0  0  0  0  0  2  0  0  0  0  0  0
  -28.1120  -12.3760   18.3400 C   0  0  0  0  0  2  0  0  0  0  0  0
  -27.7880  -13.2420   19.5840 C   0  0  0  0  0  3  0  0  0  0  0  0
  -28.8800  -13.1000   20.6710 C   0  0  0  0  0  2  0  0  0  0  0  0
  -30.1800  -13.4120   20.0560 N   0  0  0  0  0  0  0  0  0  0  0  0
  -31.9930  -14.7240   19.6510 O   0  0  0  0  0  0  0  0  0  0  0  0
  -31.1910  -16.2940   21.8630 C   0  0  0  0  0  1  0  0  0  0  0  0
  -30.3380  -15.5850   20.9040 N   0  0  0  0  0  0  0  0  0  0  0  0
  -25.4140  -13.8380   20.3650 C   0  0  0  0  0  0  0  0  0  0  0  0
  -24.3620  -13.0590   20.7660 C   0  0  0  0  0  0  0  0  0  0  0  0
  -24.8310  -11.7110   20.7230 C   0  0  0  0  0  0  0  0  0  0  0  0
  -26.4560  -12.9620   20.1070 N   0  0  0  0  0  0  0  0  0  0  0  0
  -26.1120  -11.6780   20.3800 N   0  0  0  0  0  0  0  0  0  0  0  0
  -24.1190  -10.4440   20.9320 C   0  0  0  0  0  0  0  0  0  0  0  0
  -24.5520   -9.5080   21.8970 C   0  0  0  0  0  3  0  0  0  0  0  0
  -23.8410   -8.3040   22.0920 C   0  0  0  0  0  3  0  0  0  0  0  0
  -22.6840   -8.0300   21.3250 C   0  0  0  0  0  0  0  0  0  0  0  0
  -22.2720   -8.9560   20.3510 C   0  0  0  0  0  3  0  0  0  0  0  0
  -22.9830  -10.1510   20.1520 C   0  0  0  0  0  3  0  0  0  0  0  0
  -21.9460   -6.8760   21.4290 O   0  0  0  0  0  0  0  0  0  0  0  0
  -21.8580   -6.1830   22.6090 C   0  0  0  0  0  0  0  0  0  0  0  0
  -21.3250   -6.7670   23.7790 C   0  0  0  0  0  3  0  0  0  0  0  0
  -21.1890   -5.9970   24.9510 C   0  0  0  0  0  3  0  0  0  0  0  0
  -21.5770   -4.6430   24.9550 C   0  0  0  0  0  0  0  0  0  0  0  0
  -22.1030   -4.0590   23.7890 C   0  0  0  0  0  3  0  0  0  0  0  0
  -22.2410   -4.8250   22.6190 C   0  0  0  0  0  0  0  0  0  0  0  0
  -22.7290   -4.2520   21.4930 F   0  0  0  0  0  0  0  0  0  0  0  0
  -21.4390   -3.9010   26.0780 F   0  0  0  0  0  0  0  0  0  0  0  0
  -22.9700  -13.5280   21.0750 C   0  0  0  0  0  0  0  0  0  0  0  0
  -22.2660  -12.8180   21.9490 N   0  0  0  0  0  0  0  0  0  0  0  0
  -22.5170  -14.5570   20.5770 O   0  0  0  0  0  0  0  0  0  0  0  0
  -22.6470  -11.9840   22.3720 H   0  0  0  0  0  0  0  0  0  0  0  0
  -21.3340  -13.1130   22.2010 H   0  0  0  0  0  0  0  0  0  0  0  0
  -25.5600  -15.2090   20.1760 N   0  0  0  0  0  0  0  0  0  0  0  0
  -24.7820  -15.8490   20.2950 H   0  0  0  0  0  0  0  0  0  0  0  0
  -26.3770  -15.6520   19.7790 H   0  0  0  0  0  0  0  0  0  0  0  0
  2  1  1  0
  3  4  1  0
  4 54  1  0
  4  1  2  0
  5  2  2  0
  6  3  2  0
  6  5  1  0
  7  6  1  0
  8  9  1  0
  9  5  1  0
 10  9  1  0
 10 11  1  0
 12 13  1  0
 12 11  1  0
 13 15  1  0
 14 25  2  0
 15 20  1  0
 16 24  1  0
 16 26  1  0
 17 23  1  0
 17 19  1  0
 18 24  1  0
 19 18  1  0
 20 19  2  0
 21 22  1  0
 21 15  2  0
 22 17  2  0
 23 16  1  0
 24 14  1  0
 26 28  2  0
 27 26  1  0
 29 27  1  0
 30 39  2  0
 30 35  1  0
 31 27  1  0
 31 35  1  0
 32 31  1  0
 33 34  1  0
 33 32  1  0
 34 30  1  0
 35 36  2  0
 36 37  1  0
 38 37  2  0
 39 38  1  0
 40 14  1  0
 40 41  1  0
 40 50  1  0
 41 44  1  0
 42 46  1  0
 42 41  1  0
 43 42  2  0
 46 45  1  0
 48 46  1  0
 48 49  1  0
 48 47  1  0
 50 53  1  1
 50 51  1  0
 52 50  1  0
 54 64  1  0
 55 64  1  0
 56 61  1  0
 57 58  1  0
 57 56  1  0
 59 58  1  0
 59 68  1  0
 59 60  1  0
 61 55  1  0
 61 60  1  0
 62 55  2  0
 64 63  1  0
 65 66  2  0
 66 85  1  0
 67 66  1  0
 67 70  1  0
 68 65  1  0
 68 69  1  0
 69 67  2  0
 70 71  1  0
 71 72  2  0
 73 76  1  0
 73 72  1  0
 74 73  2  0
 75 74  1  0
 75 70  2  0
 76 77  1  0
 77 82  2  0
 77 78  1  0
 78 79  2  0
 79 80  1  0
 80 84  1  0
 81 80  2  0
 82 81  1  0
 83 82  1  0
 85 86  1  0
 86 89  1  0
 86 88  1  0
 87 85  2  0
 90 91  1  0
 90 65  1  0
 92 90  1  0
M  ISO  4  12 101  13 101  55 100  64 100
M  END
>  <TORSDO>  (68) 
F 21

>  <SCORE>  (68) 
-12.561

>  <name>  (68) 
67

>  <ligand_id>  (68) 
67

>  <original_smiles>  (68) 
[H]c1c([H])c([H])c2c(c1[H])C([H])([H])C([H])([H])C([H])([H])C2([H])N([H])C(=O)C1([H])N(C(=O)C([H])(N([H])C(=O)C([H])(N([H])C([H])([H])[H])C([H])([H])[H])C(C([H])([H])[H])(C([H])([H])[H])C([H])([H])[H])C([H])([H])c2c([H])c(OC([H])([H])C([H])([H])C([H])([H])N(c3c([H])c([H])c(C([H])([H])N(C(=O)N4C([H])([H])C([H])([H])C([H])([H])C([H])(n5nc(-c6c([H])c([H])c(Oc7c([H])c([H])c(F)c([H])c7F)c([H])c6[H])c(C(=O)N([H])[H])c5N([H])[H])C4([H])[H])C([H])([H])[H])c([H])c3F)C([H])([H])[H])c([H])c([H])c2C1([H])[H]

>  <smiles>  (68) 
[H]c1c([H])c([H])c2c(c1[H])C([H])([H])C([H])([H])C([H])([H])C2([H])N([H])C(=O)C1([H])N(C(=O)C([H])(N([H])C(=O)C([H])(N([H])C([H])([H])[H])C([H])([H])[H])C(C([H])([H])[H])(C([H])([H])[H])C([H])([H])[H])C([H])([H])c2c([H])c(OC([H])([H])C([H])([H])C([H])([H])N(c3c([H])c([H])c(C([H])([H])N(C(=O)N4C([H])([H])C([H])([H])C([H])([H])C([H])(n5nc(-c6c([H])c([H])c(Oc7c([H])c([H])c(F)c([H])c7F)c([H])c6[H])c(C(=O)N([H])[H])c5N([H])[H])C4([H])[H])C([H])([H])[H])c([H])c3F)C([H])([H])[H])c([H])c([H])c2C1([H])[H]

$$$$
68:0:0
     RDKit          3D

 93101  0  0  1  0  0  0  0  0999 V2000
  -29.4030  -21.6750   18.2050 C   0  0  0  0  0  1  0  0  0  0  0  0
  -29.6190  -21.4440   19.6580 N   0  0  1  0  0  4  0  0  0  0  0  0
  -28.8360  -20.8640   19.9210 H   0  0  0  0  0  0  0  0  0  0  0  0
  -30.8300  -20.5640   19.8830 C   0  0  0  0  0  2  0  0  0  0  0  0
  -30.5790  -18.4240   23.0780 C   0  0  0  0  0  3  0  0  0  0  0  0
  -30.6320  -19.5210   22.1980 C   0  0  0  0  0  3  0  0  0  0  0  0
  -30.5760  -17.1110   22.5770 C   0  0  0  0  0  3  0  0  0  0  0  0
  -30.6790  -19.3240   20.8000 C   0  0  0  0  0  0  0  0  0  0  0  0
  -30.6510  -16.8610   21.1910 C   0  0  0  0  0  0  0  0  0  0  0  0
  -30.6920  -17.9770   20.2990 C   0  0  0  0  0  0  0  0  0  0  0  0
  -30.7050  -17.7570   18.9620 F   0  0  0  0  0  0  0  0  0  0  0  0
  -31.2450  -14.5470   20.2170 C   0  0  0  0  0  0  0  0  0  0  0  0
  -30.9300  -12.3930   19.0140 C   0  0  0  0  0  2  0  0  0  0  0  0
  -29.9580  -12.6260   17.8350 C   0  0  0  0  0  2  0  0  0  0  0  0
  -28.4840  -12.5520   18.2870 C   0  0  0  0  0  2  0  0  0  0  0  0
  -28.2100  -13.3850   19.5660 C   0  0  0  0  0  3  0  0  0  0  0  0
  -29.2630  -13.0530   20.6450 C   0  0  0  0  0  2  0  0  0  0  0  0
  -30.5900  -13.3560   20.0730 N   0  0  0  0  0  0  0  0  0  0  0  0
  -32.3690  -14.7560   19.7490 O   0  0  0  0  0  0  0  0  0  0  0  0
  -30.4720  -15.4870   20.8110 N   0  0  0  0  0  0  0  0  0  0  0  0
  -29.6230  -15.0790   21.1680 H   0  0  0  0  0  0  0  0  0  0  0  0
  -25.8710  -14.1470   20.3330 C   0  0  0  0  0  0  0  0  0  0  0  0
  -24.7570  -13.4430   20.7050 C   0  0  0  0  0  0  0  0  0  0  0  0
  -25.1230  -12.0620   20.6360 C   0  0  0  0  0  0  0  0  0  0  0  0
  -26.8470  -13.1980   20.0610 N   0  0  0  0  0  0  0  0  0  0  0  0
  -26.4000  -11.9390   20.2980 N   0  0  0  0  0  0  0  0  0  0  0  0
  -24.3180  -10.8490   20.8150 C   0  0  0  0  0  0  0  0  0  0  0  0
  -24.6990   -9.8400   21.7250 C   0  0  0  0  0  3  0  0  0  0  0  0
  -23.9010   -8.6880   21.8920 C   0  0  0  0  0  3  0  0  0  0  0  0
  -22.7060   -8.5390   21.1490 C   0  0  0  0  0  0  0  0  0  0  0  0
  -22.3400   -9.5390   20.2300 C   0  0  0  0  0  3  0  0  0  0  0  0
  -23.1390  -10.6820   20.0610 C   0  0  0  0  0  3  0  0  0  0  0  0
  -21.8810   -7.4440   21.2260 O   0  0  0  0  0  0  0  0  0  0  0  0
  -21.7870   -6.6940   22.3700 C   0  0  0  0  0  0  0  0  0  0  0  0
  -21.4280   -7.2660   23.6090 C   0  0  0  0  0  3  0  0  0  0  0  0
  -21.2720   -6.4470   24.7450 C   0  0  0  0  0  3  0  0  0  0  0  0
  -21.4670   -5.0570   24.6450 C   0  0  0  0  0  0  0  0  0  0  0  0
  -21.8180   -4.4840   23.4100 C   0  0  0  0  0  3  0  0  0  0  0  0
  -21.9750   -5.3000   22.2750 C   0  0  0  0  0  0  0  0  0  0  0  0
  -22.2930   -4.7390   21.0850 F   0  0  0  0  0  0  0  0  0  0  0  0
  -21.3090   -4.2690   25.7350 F   0  0  0  0  0  0  0  0  0  0  0  0
  -23.4010  -14.0090   21.0150 C   0  0  0  0  0  0  0  0  0  0  0  0
  -22.6480  -13.3580   21.8950 N   0  0  0  0  0  0  0  0  0  0  0  0
  -23.0190  -15.0650   20.5110 O   0  0  0  0  0  0  0  0  0  0  0  0
  -22.9710  -12.5070   22.3310 H   0  0  0  0  0  0  0  0  0  0  0  0
  -21.7380  -13.7210   22.1390 H   0  0  0  0  0  0  0  0  0  0  0  0
  -26.1290  -15.5080   20.1830 N   0  0  0  0  0  0  0  0  0  0  0  0
  -25.4070  -16.2060   20.3150 H   0  0  0  0  0  0  0  0  0  0  0  0
  -26.9970  -15.8970   19.8370 H   0  0  0  0  0  0  0  0  0  0  0  0
  -29.4950  -22.6900   20.5260 C   0  0  0  0  0  2  0  0  0  0  0  0
  -29.1830  -24.0840   19.8270 C   0  0  0  0  0  3  0  0  0  0  0  0
  -28.6770  -25.2440   20.7560 C   0  0  0  0  0  3  0  0  0  0  0  0
  -28.7100  -26.5830   20.1800 O   0  0  0  0  0  0  0  0  0  0  0  0
  -24.6330  -31.6940   23.1580 C   0  0  0  0  0  0  0  0  0  0  0  0
  -27.5250  -27.3090   20.1630 C   0  0  0  0  0  0  0  0  0  0  0  0
  -23.5300  -30.2500   21.4820 C   0  0  0  0  0  3  0  0  0  0  0  0
  -25.0800  -28.7570   20.1040 C   0  0  0  0  0  0  0  0  0  0  0  0
  -26.0520  -30.6860   21.3620 C   0  0  0  0  0  2  0  0  0  0  0  0
  -26.2060  -29.3170   20.7200 C   0  0  0  0  0  0  0  0  0  0  0  0
  -27.4340  -28.6050   20.7370 C   0  0  0  0  0  3  0  0  0  0  0  0
  -26.3790  -26.7730   19.5400 C   0  0  0  0  0  3  0  0  0  0  0  0
  -25.1630  -27.4860   19.5100 C   0  0  0  0  0  3  0  0  0  0  0  0
  -23.8070  -29.5770   20.1120 C   0  0  0  0  0  2  0  0  0  0  0  0
  -24.7540  -30.8950   22.0590 N   0  0  0  0  0  0  0  0  0  0  0  0
  -23.5270  -31.9250   23.6650 O   0  0  0  0  0  0  0  0  0  0  0  0
  -22.8830  -29.2070   22.4250 C   0  0  0  0  0  0  0  0  0  0  0  0
  -21.5650  -28.9930   22.2770 N   0  0  0  0  0  0  0  0  0  0  0  0
  -23.5680  -28.5930   23.2480 O   0  0  0  0  0  0  0  0  0  0  0  0
  -21.0690  -29.5460   21.5910 H   0  0  0  0  0  0  0  0  0  0  0  0
  -18.2170  -27.6980   22.7110 C   0  0  0  0  0  0  0  0  0  0  0  0
  -20.7630  -28.0250   23.0260 C   0  0  0  0  0  3  0  0  0  0  0  0
  -20.9130  -26.6010   22.4430 C   0  0  0  0  0  2  0  0  0  0  0  0
  -19.8390  -26.2560   21.4070 C   0  0  0  0  0  2  0  0  0  0  0  0
  -18.4430  -26.3590   22.0290 C   0  0  0  0  0  2  0  0  0  0  0  0
  -19.3070  -28.4870   23.1650 C   0  0  0  0  0  0  0  0  0  0  0  0
  -19.0420  -29.7390   23.7620 C   0  0  0  0  0  3  0  0  0  0  0  0
  -17.7210  -30.2040   23.9070 C   0  0  0  0  0  3  0  0  0  0  0  0
  -16.6450  -29.4110   23.4700 C   0  0  0  0  0  3  0  0  0  0  0  0
  -16.8940  -28.1610   22.8780 C   0  0  0  0  0  3  0  0  0  0  0  0
  -25.8740  -32.3740   23.8140 C   0  0  0  0  0  3  0  0  0  0  0  0
  -25.4980  -33.7540   24.1500 N   0  0  0  0  0  0  0  0  0  0  0  0
  -25.8000  -34.8260   23.4070 C   0  0  0  0  0  0  0  0  0  0  0  0
  -26.4910  -34.7600   22.3860 O   0  0  0  0  0  0  0  0  0  0  0  0
  -24.8850  -33.8770   24.9420 H   0  0  0  0  0  0  0  0  0  0  0  0
  -23.9980  -36.5420   23.0460 C   0  0  0  0  0  1  0  0  0  0  0  0
  -25.2480  -36.1890   23.8680 C   0  0  0  0  0  3  0  0  0  0  0  0
  -27.3380  -37.1560   24.7200 C   0  0  0  0  0  1  0  0  0  0  0  0
  -26.2340  -37.2880   23.7740 N   0  0  0  0  0  0  0  0  0  0  0  0
  -25.7880  -38.1880   23.9300 H   0  0  0  0  0  0  0  0  0  0  0  0
  -26.3980  -31.6140   25.0950 C   0  0  1  0  0  0  0  0  0  0  0  0
  -25.2950  -31.3270   26.1420 C   0  0  0  0  0  1  0  0  0  0  0  0
  -27.0410  -30.2650   24.7040 C   0  0  0  0  0  1  0  0  0  0  0  0
  -27.5060  -32.4480   25.7810 C   0  0  0  0  0  1  0  0  0  0  0  0
  1  2  1  0
  2  4  1  0
  2  3  1  1
  2 50  1  0
  4  8  1  0
  6  5  2  0
  7  5  1  0
  8  6  1  0
  9  7  2  0
 10  8  2  0
 10  9  1  0
 11 10  1  0
 12 20  1  0
 13 18  1  0
 14 15  1  0
 14 13  1  0
 16 15  1  0
 16 25  1  0
 16 17  1  0
 18 12  1  0
 18 17  1  0
 19 12  2  0
 20 21  1  0
 20  9  1  0
 22 23  2  0
 23 42  1  0
 24 23  1  0
 24 27  1  0
 25 26  1  0
 25 22  1  0
 26 24  2  0
 27 28  1  0
 28 29  2  0
 30 33  1  0
 30 29  1  0
 31 30  2  0
 32 31  1  0
 32 27  2  0
 33 34  1  0
 34 35  1  0
 35 36  2  0
 37 36  1  0
 37 41  1  0
 38 37  2  0
 39 34  2  0
 39 38  1  0
 40 39  1  0
 42 43  1  0
 43 46  1  0
 43 45  1  0
 44 42  2  0
 47 48  1  0
 47 22  1  0
 49 47  1  0
 51 50  1  0
 51 52  2  0
 53 52  1  0
 54 65  2  0
 55 53  1  0
 55 60  1  0
 56 64  1  0
 56 66  1  0
 57 63  1  0
 57 59  1  0
 58 64  1  0
 59 60  2  0
 59 58  1  0
 61 55  2  0
 62 61  1  0
 62 57  2  0
 63 56  1  0
 64 54  1  0
 66 68  2  0
 67 66  1  0
 69 67  1  0
 70 79  2  0
 70 75  1  0
 71 67  1  0
 71 75  1  0
 72 71  1  0
 73 74  1  0
 73 72  1  0
 74 70  1  0
 75 76  2  0
 76 77  1  0
 78 77  2  0
 79 78  1  0
 80 54  1  0
 80 81  1  0
 80 90  1  0
 81 84  1  0
 82 86  1  0
 82 81  1  0
 83 82  2  0
 86 85  1  0
 88 86  1  0
 88 89  1  0
 88 87  1  0
 90 93  1  1
 90 91  1  0
 92 90  1  0
M  ISO  4  12 100  20 100  52 101  53 101
M  END
>  <TORSDO>  (69) 
F 21

>  <SCORE>  (69) 
-12.379

>  <name>  (69) 
68

>  <ligand_id>  (69) 
68

>  <original_smiles>  (69) 
[H]c1c([H])c([H])c2c(c1[H])C([H])([H])C([H])([H])C([H])([H])C2([H])N([H])C(=O)C1([H])N(C(=O)C([H])(N([H])C(=O)C([H])(N([H])C([H])([H])[H])C([H])([H])[H])C(C([H])([H])[H])(C([H])([H])[H])C([H])([H])[H])C([H])([H])c2c([H])c(OC([H])([H])C([H])([H])C([H])([H])[N+]([H])(C([H])([H])[H])C([H])([H])c3c([H])c([H])c([H])c(N([H])C(=O)N4C([H])([H])C([H])([H])C([H])([H])C([H])(n5nc(-c6c([H])c([H])c(Oc7c([H])c([H])c(F)c([H])c7F)c([H])c6[H])c(C(=O)N([H])[H])c5N([H])[H])C4([H])[H])c3F)c([H])c([H])c2C1([H])[H]

>  <smiles>  (69) 
[H]c1c([H])c([H])c2c(c1[H])C([H])([H])C([H])([H])C([H])([H])C2([H])N([H])C(=O)C1([H])N(C(=O)C([H])(N([H])C(=O)C([H])(N([H])C([H])([H])[H])C([H])([H])[H])C(C([H])([H])[H])(C([H])([H])[H])C([H])([H])[H])C([H])([H])c2c([H])c(OC([H])([H])C([H])([H])C([H])([H])[N+]([H])(C([H])([H])[H])C([H])([H])c3c([H])c([H])c([H])c(N([H])C(=O)N4C([H])([H])C([H])([H])C([H])([H])C([H])(n5nc(-c6c([H])c([H])c(Oc7c([H])c([H])c(F)c([H])c7F)c([H])c6[H])c(C(=O)N([H])[H])c5N([H])[H])C4([H])[H])c3F)c([H])c([H])c2C1([H])[H]

$$$$
69:0:0
     RDKit          3D

 94102  0  0  1  0  0  0  0  0999 V2000
  -29.0540  -21.4790   20.5980 C   0  0  0  0  0  2  0  0  0  0  0  0
  -28.6920  -17.2540   19.5180 C   0  0  0  0  0  3  0  0  0  0  0  0
  -27.7070  -18.1770   19.1030 C   0  0  0  0  0  3  0  0  0  0  0  0
  -29.9590  -19.0930   20.4820 C   0  0  0  0  0  3  0  0  0  0  0  0
  -29.8430  -17.7170   20.1870 C   0  0  0  0  0  0  0  0  0  0  0  0
  -28.9530  -20.0190   20.1200 C   0  0  0  0  0  0  0  0  0  0  0  0
  -27.8360  -19.5510   19.3880 C   0  0  0  0  0  0  0  0  0  0  0  0
  -26.6180  -20.6440   18.8360 Cl  0  0  0  0  0  0  0  0  0  0  0  0
  -31.0090  -16.8100   20.5770 C   0  0  0  0  0  2  0  0  0  0  0  0
  -31.2160  -14.4330   20.1010 C   0  0  0  0  0  0  0  0  0  0  0  0
  -30.7360  -12.3240   18.9010 C   0  0  0  0  0  2  0  0  0  0  0  0
  -29.7860  -12.5560   17.7140 C   0  0  0  0  0  2  0  0  0  0  0  0
  -28.3220  -12.4690   18.1810 C   0  0  0  0  0  2  0  0  0  0  0  0
  -28.0390  -13.3460   19.4270 C   0  0  0  0  0  3  0  0  0  0  0  0
  -29.0980  -13.1130   20.5190 C   0  0  0  0  0  2  0  0  0  0  0  0
  -30.4380  -13.3270   19.9410 N   0  0  0  0  0  0  0  0  0  0  0  0
  -32.2470  -14.6090   19.4350 O   0  0  0  0  0  0  0  0  0  0  0  0
  -30.7190  -15.1400   22.3730 C   0  0  0  0  0  1  0  0  0  0  0  0
  -30.7400  -15.3980   20.9210 N   0  0  0  0  0  0  0  0  0  0  0  0
  -25.6920  -14.0410   20.2230 C   0  0  0  0  0  0  0  0  0  0  0  0
  -24.6170  -13.3170   20.6510 C   0  0  0  0  0  0  0  0  0  0  0  0
  -25.0260  -11.9480   20.6110 C   0  0  0  0  0  0  0  0  0  0  0  0
  -26.6960  -13.1230   19.9560 N   0  0  0  0  0  0  0  0  0  0  0  0
  -26.3020  -11.8580   20.2500 N   0  0  0  0  0  0  0  0  0  0  0  0
  -24.2580  -10.7180   20.8330 C   0  0  0  0  0  0  0  0  0  0  0  0
  -24.6590   -9.7630   21.7920 C   0  0  0  0  0  3  0  0  0  0  0  0
  -23.8940   -8.5960   21.9970 C   0  0  0  0  0  3  0  0  0  0  0  0
  -22.7140   -8.3790   21.2440 C   0  0  0  0  0  0  0  0  0  0  0  0
  -22.3320   -9.3230   20.2730 C   0  0  0  0  0  3  0  0  0  0  0  0
  -23.0990  -10.4810   20.0660 C   0  0  0  0  0  3  0  0  0  0  0  0
  -21.9220   -7.2650   21.3580 O   0  0  0  0  0  0  0  0  0  0  0  0
  -21.8040   -6.5810   22.5440 C   0  0  0  0  0  0  0  0  0  0  0  0
  -21.3600   -7.2100   23.7270 C   0  0  0  0  0  3  0  0  0  0  0  0
  -21.1900   -6.4550   24.9030 C   0  0  0  0  0  3  0  0  0  0  0  0
  -21.4560   -5.0720   24.8970 C   0  0  0  0  0  0  0  0  0  0  0  0
  -21.8890   -4.4430   23.7170 C   0  0  0  0  0  3  0  0  0  0  0  0
  -22.0600   -5.1960   22.5430 C   0  0  0  0  0  0  0  0  0  0  0  0
  -22.4580   -4.5810   21.4020 F   0  0  0  0  0  0  0  0  0  0  0  0
  -21.2830   -4.3420   26.0240 F   0  0  0  0  0  0  0  0  0  0  0  0
  -23.2500  -13.8490   20.9720 C   0  0  0  0  0  0  0  0  0  0  0  0
  -22.5370  -13.2030   21.8830 N   0  0  0  0  0  0  0  0  0  0  0  0
  -22.8270  -14.8780   20.4470 O   0  0  0  0  0  0  0  0  0  0  0  0
  -22.8900  -12.3730   22.3360 H   0  0  0  0  0  0  0  0  0  0  0  0
  -21.6230  -13.5550   22.1370 H   0  0  0  0  0  0  0  0  0  0  0  0
  -25.8900  -15.4000   20.0120 N   0  0  0  0  0  0  0  0  0  0  0  0
  -25.1520  -16.0800   20.1580 H   0  0  0  0  0  0  0  0  0  0  0  0
  -26.7120  -15.7850   19.5710 H   0  0  0  0  0  0  0  0  0  0  0  0
  -30.1230  -22.0980   18.3970 C   0  0  0  0  0  1  0  0  0  0  0  0
  -29.3390  -22.5430   19.5810 N   0  0  2  0  0  4  0  0  0  0  0  0
  -28.4270  -22.7860   19.2220 H   0  0  0  0  0  0  0  0  0  0  0  0
  -29.9410  -23.7560   20.2320 C   0  0  0  0  0  2  0  0  0  0  0  0
  -30.1310  -25.0170   19.3440 C   0  0  0  0  0  2  0  0  0  0  0  0
  -28.9010  -25.9460   19.2960 C   0  0  0  0  0  2  0  0  0  0  0  0
  -28.7730  -26.9000   20.3900 O   0  0  0  0  0  0  0  0  0  0  0  0
  -24.6460  -32.0590   23.3620 C   0  0  0  0  0  0  0  0  0  0  0  0
  -27.5840  -27.6240   20.4310 C   0  0  0  0  0  0  0  0  0  0  0  0
  -23.5900  -30.6050   21.6760 C   0  0  0  0  0  3  0  0  0  0  0  0
  -25.1600  -29.1030   20.3700 C   0  0  0  0  0  0  0  0  0  0  0  0
  -26.1270  -31.0210   21.6310 C   0  0  0  0  0  2  0  0  0  0  0  0
  -26.2870  -29.6480   20.9970 C   0  0  0  0  0  0  0  0  0  0  0  0
  -27.5090  -28.9170   21.0200 C   0  0  0  0  0  3  0  0  0  0  0  0
  -26.3960  -27.0880   19.8770 C   0  0  0  0  0  3  0  0  0  0  0  0
  -25.2030  -27.8160   19.8330 C   0  0  0  0  0  3  0  0  0  0  0  0
  -23.9080  -29.9450   20.3160 C   0  0  0  0  0  2  0  0  0  0  0  0
  -24.8040  -31.2430   22.2810 N   0  0  0  0  0  0  0  0  0  0  0  0
  -23.5210  -32.2980   23.8250 O   0  0  0  0  0  0  0  0  0  0  0  0
  -22.9140  -29.5630   22.6000 C   0  0  0  0  0  0  0  0  0  0  0  0
  -21.6030  -29.3400   22.3990 N   0  0  0  0  0  0  0  0  0  0  0  0
  -23.5660  -28.9620   23.4580 O   0  0  0  0  0  0  0  0  0  0  0  0
  -21.1350  -29.8810   21.6860 H   0  0  0  0  0  0  0  0  0  0  0  0
  -18.2390  -28.0450   22.7290 C   0  0  0  0  0  0  0  0  0  0  0  0
  -20.7710  -28.3810   23.1300 C   0  0  0  0  0  3  0  0  0  0  0  0
  -20.9450  -26.9480   22.5750 C   0  0  0  0  0  2  0  0  0  0  0  0
  -19.9050  -26.5850   21.5100 C   0  0  0  0  0  2  0  0  0  0  0  0
  -18.4880  -26.6950   22.0790 C   0  0  0  0  0  2  0  0  0  0  0  0
  -19.3110  -28.8420   23.2110 C   0  0  0  0  0  0  0  0  0  0  0  0
  -19.0240  -30.1040   23.7780 C   0  0  0  0  0  3  0  0  0  0  0  0
  -17.6990  -30.5690   23.8680 C   0  0  0  0  0  3  0  0  0  0  0  0
  -16.6400  -29.7700   23.4020 C   0  0  0  0  0  3  0  0  0  0  0  0
  -16.9120  -28.5090   22.8400 C   0  0  0  0  0  3  0  0  0  0  0  0
  -25.8630  -32.7460   24.0500 C   0  0  0  0  0  3  0  0  0  0  0  0
  -25.5010  -34.1490   24.2950 N   0  0  0  0  0  0  0  0  0  0  0  0
  -25.8570  -35.1730   23.5080 C   0  0  0  0  0  0  0  0  0  0  0  0
  -26.5930  -35.0400   22.5280 O   0  0  0  0  0  0  0  0  0  0  0  0
  -24.8600  -34.3260   25.0550 H   0  0  0  0  0  0  0  0  0  0  0  0
  -24.1150  -36.9000   22.9550 C   0  0  0  0  0  1  0  0  0  0  0  0
  -25.3080  -36.5690   23.8660 C   0  0  0  0  0  3  0  0  0  0  0  0
  -27.3680  -37.5370   24.7870 C   0  0  0  0  0  1  0  0  0  0  0  0
  -26.3220  -37.6410   23.7730 N   0  0  0  0  0  0  0  0  0  0  0  0
  -25.8870  -38.5570   23.8590 H   0  0  0  0  0  0  0  0  0  0  0  0
  -26.2960  -32.0390   25.3920 C   0  0  1  0  0  0  0  0  0  0  0  0
  -25.1280  -31.7950   26.3780 C   0  0  0  0  0  1  0  0  0  0  0  0
  -26.9560  -30.6710   25.1010 C   0  0  0  0  0  1  0  0  0  0  0  0
  -27.3600  -32.8980   26.1130 C   0  0  0  0  0  1  0  0  0  0  0  0
  2  5  1  0
  3  7  1  0
  3  2  2  0
  5  4  2  0
  5  9  1  0
  6  4  1  0
  6  1  1  0
  7  6  2  0
  8  7  1  0
  9 19  1  0
 10 19  1  0
 11 16  1  0
 12 13  1  0
 12 11  1  0
 14 13  1  0
 14 23  1  0
 14 15  1  0
 16 10  1  0
 16 15  1  0
 17 10  2  0
 19 18  1  0
 20 21  2  0
 21 40  1  0
 22 21  1  0
 22 25  1  0
 23 20  1  0
 23 24  1  0
 24 22  2  0
 25 26  1  0
 26 27  2  0
 28 31  1  0
 28 27  1  0
 29 28  2  0
 30 29  1  0
 30 25  2  0
 31 32  1  0
 32 33  1  0
 33 34  2  0
 35 34  1  0
 35 39  1  0
 36 35  2  0
 37 32  2  0
 37 36  1  0
 38 37  1  0
 40 41  1  0
 41 44  1  0
 41 43  1  0
 42 40  2  0
 45 46  1  0
 45 20  1  0
 47 45  1  0
 48 49  1  0
 49 51  1  0
 49  1  1  0
 49 50  1  6
 52 51  1  0
 53 52  1  0
 53 54  1  0
 54 56  1  0
 55 66  2  0
 56 61  1  0
 57 65  1  0
 57 67  1  0
 58 60  1  0
 59 65  1  0
 60 61  2  0
 60 59  1  0
 62 56  2  0
 63 62  1  0
 63 58  2  0
 64 58  1  0
 64 57  1  0
 65 55  1  0
 67 69  2  0
 68 67  1  0
 70 68  1  0
 71 80  2  0
 71 76  1  0
 72 68  1  0
 72 76  1  0
 73 72  1  0
 74 75  1  0
 74 73  1  0
 75 71  1  0
 76 77  2  0
 77 78  1  0
 79 78  2  0
 80 79  1  0
 81 55  1  0
 81 82  1  0
 81 91  1  0
 82 85  1  0
 83 87  1  0
 83 82  1  0
 84 83  2  0
 87 86  1  0
 89 90  1  0
 89 87  1  0
 89 88  1  0
 91 94  1  1
 91 92  1  0
 93 91  1  0
M  ISO  4  10 100  19 100  53 101  54 101
M  END
>  <TORSDO>  (70) 
F 22

>  <SCORE>  (70) 
-12.099

>  <name>  (70) 
69

>  <ligand_id>  (70) 
69

>  <original_smiles>  (70) 
[H]c1c([H])c([H])c2c(c1[H])C([H])([H])C([H])([H])C([H])([H])C2([H])N([H])C(=O)C1([H])N(C(=O)C([H])(N([H])C(=O)C([H])(N([H])C([H])([H])[H])C([H])([H])[H])C(C([H])([H])[H])(C([H])([H])[H])C([H])([H])[H])C([H])([H])c2c([H])c(OC([H])([H])C([H])([H])C([H])([H])[N+]([H])(C([H])([H])[H])C([H])([H])c3c([H])c(C([H])([H])N(C(=O)N4C([H])([H])C([H])([H])C([H])([H])C([H])(n5nc(-c6c([H])c([H])c(Oc7c([H])c([H])c(F)c([H])c7F)c([H])c6[H])c(C(=O)N([H])[H])c5N([H])[H])C4([H])[H])C([H])([H])[H])c([H])c([H])c3Cl)c([H])c([H])c2C1([H])[H]

>  <smiles>  (70) 
[H]c1c([H])c([H])c2c(c1[H])C([H])([H])C([H])([H])C([H])([H])C2([H])N([H])C(=O)C1([H])N(C(=O)C([H])(N([H])C(=O)C([H])(N([H])C([H])([H])[H])C([H])([H])[H])C(C([H])([H])[H])(C([H])([H])[H])C([H])([H])[H])C([H])([H])c2c([H])c(OC([H])([H])C([H])([H])C([H])([H])[N+]([H])(C([H])([H])[H])C([H])([H])c3c([H])c(C([H])([H])N(C(=O)N4C([H])([H])C([H])([H])C([H])([H])C([H])(n5nc(-c6c([H])c([H])c(Oc7c([H])c([H])c(F)c([H])c7F)c([H])c6[H])c(C(=O)N([H])[H])c5N([H])[H])C4([H])[H])C([H])([H])[H])c([H])c([H])c3Cl)c([H])c([H])c2C1([H])[H]

$$$$
70:0:0
     RDKit          3D

 99108  0  0  1  0  0  0  0  0999 V2000
  -30.8700  -19.0400   20.8600 C   0  0  0  0  0  3  0  0  0  0  0  0
  -32.1170  -19.0610   18.3850 C   0  0  0  0  0  3  0  0  0  0  0  0
  -30.9260  -20.2650   20.1360 C   0  0  0  0  0  0  0  0  0  0  0  0
  -31.4730  -17.8490   20.4000 C   0  0  0  0  0  0  0  0  0  0  0  0
  -31.6050  -20.2980   18.8680 C   0  0  0  0  0  0  0  0  0  0  0  0
  -32.1050  -17.8810   19.1440 C   0  0  0  0  0  0  0  0  0  0  0  0
  -32.7730  -16.8050   18.6710 F   0  0  0  0  0  0  0  0  0  0  0  0
  -33.4520  -22.9020   16.9590 C   0  0  0  0  0  2  0  0  0  0  0  0
  -32.2050  -23.6800   17.3350 C   0  0  0  0  0  2  0  0  0  0  0  0
  -33.0740  -21.4380   17.2140 C   0  0  0  0  0  2  0  0  0  0  0  0
  -31.6370  -22.8340   18.4600 C   0  0  0  0  0  2  0  0  0  0  0  0
  -31.8710  -21.4480   18.0600 N   0  0  0  0  0  0  0  0  0  0  0  0
  -30.3170  -21.4500   20.8560 C   0  0  0  0  0  0  0  0  0  0  0  0
  -29.2780  -22.0710   20.2710 N   0  0  0  0  0  0  0  0  0  0  0  0
  -30.6950  -21.7340   21.9930 O   0  0  0  0  0  0  0  0  0  0  0  0
  -29.0940  -21.8230   19.3080 H   0  0  0  0  0  0  0  0  0  0  0  0
  -28.2290  -22.8140   20.9800 C   0  0  0  0  0  2  0  0  0  0  0  0
  -28.5000  -24.3150   21.2910 C   0  0  0  0  0  2  0  0  0  0  0  0
  -28.5090  -25.2840   20.0810 C   0  0  0  0  0  2  0  0  0  0  0  0
  -28.4150  -26.6830   20.4510 O   0  0  0  0  0  0  0  0  0  0  0  0
  -24.5380  -31.9530   23.2940 C   0  0  0  0  0  0  0  0  0  0  0  0
  -27.2200  -27.3900   20.3970 C   0  0  0  0  0  0  0  0  0  0  0  0
  -23.3570  -30.5230   21.6540 C   0  0  0  0  0  3  0  0  0  0  0  0
  -24.8340  -28.9360   20.3090 C   0  0  0  0  0  0  0  0  0  0  0  0
  -25.8940  -30.8520   21.5170 C   0  0  0  0  0  2  0  0  0  0  0  0
  -25.9810  -29.4620   20.9120 C   0  0  0  0  0  0  0  0  0  0  0  0
  -27.1720  -28.6950   20.9550 C   0  0  0  0  0  3  0  0  0  0  0  0
  -26.0420  -26.8860   19.7950 C   0  0  0  0  0  3  0  0  0  0  0  0
  -24.8600  -27.6490   19.7490 C   0  0  0  0  0  3  0  0  0  0  0  0
  -23.5960  -29.8020   20.2980 C   0  0  0  0  0  2  0  0  0  0  0  0
  -24.6110  -31.1290   22.2100 N   0  0  0  0  0  0  0  0  0  0  0  0
  -23.4490  -32.2450   23.8050 O   0  0  0  0  0  0  0  0  0  0  0  0
  -22.6720  -29.5350   22.6260 C   0  0  0  0  0  0  0  0  0  0  0  0
  -21.3500  -29.3480   22.4660 N   0  0  0  0  0  0  0  0  0  0  0  0
  -23.3290  -28.9350   23.4800 O   0  0  0  0  0  0  0  0  0  0  0  0
  -20.8780  -29.8870   21.7530 H   0  0  0  0  0  0  0  0  0  0  0  0
  -17.9670  -28.1520   22.8920 C   0  0  0  0  0  0  0  0  0  0  0  0
  -20.5140  -28.4290   23.2400 C   0  0  0  0  0  3  0  0  0  0  0  0
  -20.6390  -26.9810   22.7160 C   0  0  0  0  0  2  0  0  0  0  0  0
  -19.5720  -26.6200   21.6760 C   0  0  0  0  0  2  0  0  0  0  0  0
  -18.1700  -26.7810   22.2690 C   0  0  0  0  0  2  0  0  0  0  0  0
  -19.0690  -28.9310   23.3350 C   0  0  0  0  0  0  0  0  0  0  0  0
  -18.8260  -30.2130   23.8760 C   0  0  0  0  0  3  0  0  0  0  0  0
  -17.5160  -30.7150   23.9780 C   0  0  0  0  0  3  0  0  0  0  0  0
  -16.4280  -29.9330   23.5510 C   0  0  0  0  0  3  0  0  0  0  0  0
  -16.6550  -28.6540   23.0130 C   0  0  0  0  0  3  0  0  0  0  0  0
  -25.8170  -32.5870   23.9270 C   0  0  0  0  0  3  0  0  0  0  0  0
  -25.5140  -33.9940   24.2180 N   0  0  0  0  0  0  0  0  0  0  0  0
  -25.8840  -35.0270   23.4510 C   0  0  0  0  0  0  0  0  0  0  0  0
  -26.5830  -34.8960   22.4430 O   0  0  0  0  0  0  0  0  0  0  0  0
  -24.8980  -34.1700   24.9980 H   0  0  0  0  0  0  0  0  0  0  0  0
  -24.2010  -36.8390   22.9940 C   0  0  0  0  0  1  0  0  0  0  0  0
  -25.3980  -36.4280   23.8660 C   0  0  0  0  0  3  0  0  0  0  0  0
  -27.5070  -37.3000   24.7750 C   0  0  0  0  0  1  0  0  0  0  0  0
  -26.4500  -37.4640   23.7810 N   0  0  0  0  0  0  0  0  0  0  0  0
  -26.0520  -38.3930   23.8910 H   0  0  0  0  0  0  0  0  0  0  0  0
  -26.3050  -31.8410   25.2290 C   0  0  1  0  0  0  0  0  0  0  0  0
  -25.1890  -31.6370   26.2780 C   0  0  0  0  0  1  0  0  0  0  0  0
  -26.8920  -30.4520   24.8820 C   0  0  0  0  0  1  0  0  0  0  0  0
  -27.4400  -32.6480   25.9000 C   0  0  0  0  0  1  0  0  0  0  0  0
  -31.5390  -16.6100   21.3060 C   0  0  0  0  0  2  0  0  0  0  0  0
  -30.8450  -14.4530   20.3120 C   0  0  0  0  0  0  0  0  0  0  0  0
  -30.3660  -12.3290   19.1340 C   0  0  0  0  0  2  0  0  0  0  0  0
  -29.4500  -12.5840   17.9190 C   0  0  0  0  0  2  0  0  0  0  0  0
  -27.9690  -12.4770   18.3440 C   0  0  0  0  0  2  0  0  0  0  0  0
  -27.6630  -13.2910   19.6380 C   0  0  0  0  0  3  0  0  0  0  0  0
  -28.7200  -13.0110   20.7240 C   0  0  0  0  0  2  0  0  0  0  0  0
  -30.0440  -13.3420   20.1700 N   0  0  0  0  0  0  0  0  0  0  0  0
  -31.9220  -14.4780   19.7170 O   0  0  0  0  0  0  0  0  0  0  0  0
  -29.2590  -15.8800   21.7430 C   0  0  0  0  0  1  0  0  0  0  0  0
  -30.5220  -15.5470   21.0790 N   0  0  0  0  0  0  0  0  0  0  0  0
  -25.2800  -13.9130   20.3920 C   0  0  0  0  0  0  0  0  0  0  0  0
  -24.2150  -13.1480   20.7920 C   0  0  0  0  0  0  0  0  0  0  0  0
  -24.6680  -11.7950   20.7530 C   0  0  0  0  0  0  0  0  0  0  0  0
  -26.3130  -13.0250   20.1370 N   0  0  0  0  0  0  0  0  0  0  0  0
  -25.9490  -11.7450   20.4130 N   0  0  0  0  0  0  0  0  0  0  0  0
  -23.9350  -10.5420   20.9640 C   0  0  0  0  0  0  0  0  0  0  0  0
  -24.3800   -9.5800   21.8950 C   0  0  0  0  0  3  0  0  0  0  0  0
  -23.6560   -8.3850   22.0950 C   0  0  0  0  0  3  0  0  0  0  0  0
  -22.4680   -8.1480   21.3640 C   0  0  0  0  0  0  0  0  0  0  0  0
  -22.0400   -9.0980   20.4180 C   0  0  0  0  0  3  0  0  0  0  0  0
  -22.7670  -10.2850   20.2160 C   0  0  0  0  0  3  0  0  0  0  0  0
  -21.7130   -7.0060   21.4720 O   0  0  0  0  0  0  0  0  0  0  0  0
  -21.6820   -6.2670   22.6270 C   0  0  0  0  0  0  0  0  0  0  0  0
  -21.2820   -6.8250   23.8620 C   0  0  0  0  0  3  0  0  0  0  0  0
  -21.2040   -6.0100   25.0090 C   0  0  0  0  0  3  0  0  0  0  0  0
  -21.5080   -4.6380   24.9210 C   0  0  0  0  0  0  0  0  0  0  0  0
  -21.8960   -4.0800   23.6920 C   0  0  0  0  0  3  0  0  0  0  0  0
  -21.9820   -4.8920   22.5480 C   0  0  0  0  0  0  0  0  0  0  0  0
  -22.3360   -4.3430   21.3600 F   0  0  0  0  0  0  0  0  0  0  0  0
  -21.4230   -3.8540   26.0210 F   0  0  0  0  0  0  0  0  0  0  0  0
  -22.8270  -13.6370   21.0930 C   0  0  0  0  0  0  0  0  0  0  0  0
  -22.1120  -12.9520   21.9840 N   0  0  0  0  0  0  0  0  0  0  0  0
  -22.3850  -14.6610   20.5780 O   0  0  0  0  0  0  0  0  0  0  0  0
  -22.4800  -12.1310   22.4360 H   0  0  0  0  0  0  0  0  0  0  0  0
  -21.1750  -13.2570   22.2090 H   0  0  0  0  0  0  0  0  0  0  0  0
  -25.4450  -15.2800   20.2110 N   0  0  0  0  0  0  0  0  0  0  0  0
  -24.6710  -15.9220   20.3370 H   0  0  0  0  0  0  0  0  0  0  0  0
  -26.2930  -15.7370   19.9010 H   0  0  0  0  0  0  0  0  0  0  0  0
  2  5  2  0
  2  6  1  0
  3 13  1  0
  3  1  2  0
  4  1  1  0
  4 61  1  0
  5  3  1  0
  6  4  2  0
  7  6  1  0
  8 10  1  0
  8  9  1  0
  9 11  1  0
 10 12  1  0
 12 11  1  0
 12  5  1  0
 13 15  2  0
 14 13  1  0
 14 17  1  0
 16 14  1  0
 17 18  1  0
 19 20  1  0
 19 18  1  0
 21 32  2  0
 22 20  1  0
 22 27  1  0
 23 31  1  0
 23 33  1  0
 24 26  1  0
 25 31  1  0
 26 27  2  0
 26 25  1  0
 28 22  2  0
 29 28  1  0
 29 24  2  0
 30 24  1  0
 30 23  1  0
 31 21  1  0
 33 35  2  0
 34 33  1  0
 36 34  1  0
 37 46  2  0
 37 42  1  0
 38 34  1  0
 38 42  1  0
 39 38  1  0
 40 41  1  0
 40 39  1  0
 41 37  1  0
 42 43  2  0
 43 44  1  0
 45 44  2  0
 46 45  1  0
 47 21  1  0
 47 48  1  0
 47 57  1  0
 48 51  1  0
 49 53  1  0
 49 48  1  0
 50 49  2  0
 53 52  1  0
 55 53  1  0
 55 56  1  0
 55 54  1  0
 57 60  1  1
 57 58  1  0
 59 57  1  0
 62 71  1  0
 63 68  1  0
 64 65  1  0
 64 63  1  0
 66 65  1  0
 66 75  1  0
 66 67  1  0
 68 62  1  0
 68 67  1  0
 69 62  2  0
 71 61  1  0
 71 70  1  0
 72 73  2  0
 73 92  1  0
 74 73  1  0
 74 77  1  0
 75 72  1  0
 75 76  1  0
 76 74  2  0
 77 78  1  0
 78 79  2  0
 80 83  1  0
 80 79  1  0
 81 80  2  0
 82 81  1  0
 82 77  2  0
 83 84  1  0
 84 85  1  0
 85 86  2  0
 87 86  1  0
 87 91  1  0
 88 87  2  0
 89 84  2  0
 89 88  1  0
 90 89  1  0
 92 93  1  0
 93 96  1  0
 93 95  1  0
 94 92  2  0
 97 98  1  0
 97 72  1  0
 99 97  1  0
M  ISO  4  19 101  20 101  62 100  71 100
M  END
>  <TORSDO>  (71) 
F 22

>  <SCORE>  (71) 
-12.892

>  <name>  (71) 
70

>  <ligand_id>  (71) 
70

>  <original_smiles>  (71) 
[H]c1c([H])c([H])c2c(c1[H])C([H])([H])C([H])([H])C([H])([H])C2([H])N([H])C(=O)C1([H])N(C(=O)C([H])(N([H])C(=O)C([H])(N([H])C([H])([H])[H])C([H])([H])[H])C(C([H])([H])[H])(C([H])([H])[H])C([H])([H])[H])C([H])([H])c2c([H])c(OC([H])([H])C([H])([H])C([H])([H])N([H])C(=O)c3c([H])c(C([H])([H])N(C(=O)N4C([H])([H])C([H])([H])C([H])([H])C([H])(n5nc(-c6c([H])c([H])c(Oc7c([H])c([H])c(F)c([H])c7F)c([H])c6[H])c(C(=O)N([H])[H])c5N([H])[H])C4([H])[H])C([H])([H])[H])c(F)c([H])c3N3C([H])([H])C([H])([H])C([H])([H])C3([H])[H])c([H])c([H])c2C1([H])[H]

>  <smiles>  (71) 
[H]c1c([H])c([H])c2c(c1[H])C([H])([H])C([H])([H])C([H])([H])C2([H])N([H])C(=O)C1([H])N(C(=O)C([H])(N([H])C(=O)C([H])(N([H])C([H])([H])[H])C([H])([H])[H])C(C([H])([H])[H])(C([H])([H])[H])C([H])([H])[H])C([H])([H])c2c([H])c(OC([H])([H])C([H])([H])C([H])([H])N([H])C(=O)c3c([H])c(C([H])([H])N(C(=O)N4C([H])([H])C([H])([H])C([H])([H])C([H])(n5nc(-c6c([H])c([H])c(Oc7c([H])c([H])c(F)c([H])c7F)c([H])c6[H])c(C(=O)N([H])[H])c5N([H])[H])C4([H])[H])C([H])([H])[H])c(F)c([H])c3N3C([H])([H])C([H])([H])C([H])([H])C3([H])[H])c([H])c([H])c2C1([H])[H]

$$$$
71:0:0
     RDKit          3D

 93101  0  0  1  0  0  0  0  0999 V2000
  -30.4310  -18.5440   18.8980 C   0  0  0  0  0  3  0  0  0  0  0  0
  -28.5480  -20.1160   20.2550 C   0  0  0  0  0  3  0  0  0  0  0  0
  -29.4380  -17.9010   19.6680 C   0  0  0  0  0  0  0  0  0  0  0  0
  -29.5350  -20.7730   19.4820 C   0  0  0  0  0  0  0  0  0  0  0  0
  -30.4830  -19.9540   18.8020 C   0  0  0  0  0  0  0  0  0  0  0  0
  -28.5000  -18.7070   20.3530 C   0  0  0  0  0  0  0  0  0  0  0  0
  -31.4450  -20.5070   18.0220 F   0  0  0  0  0  0  0  0  0  0  0  0
  -27.5360  -18.1300   21.1080 F   0  0  0  0  0  0  0  0  0  0  0  0
  -30.8340  -22.8460   19.1920 C   0  0  0  0  0  1  0  0  0  0  0  0
  -29.5470  -22.1980   19.4330 N   0  0  0  0  0  0  0  0  0  0  0  0
  -28.3270  -22.8550   18.9310 C   0  0  0  0  0  2  0  0  0  0  0  0
  -28.0220  -24.2490   19.5560 C   0  0  0  0  0  2  0  0  0  0  0  0
  -28.4280  -25.4740   18.6930 C   0  0  0  0  0  2  0  0  0  0  0  0
  -28.3180  -26.7270   19.3940 O   0  0  0  0  0  0  0  0  0  0  0  0
  -24.5280  -31.5460   23.0160 C   0  0  0  0  0  0  0  0  0  0  0  0
  -27.1130  -27.4040   19.4770 C   0  0  0  0  0  0  0  0  0  0  0  0
  -23.2870  -30.2940   21.2820 C   0  0  0  0  0  3  0  0  0  0  0  0
  -24.7080  -28.8950   19.6920 C   0  0  0  0  0  0  0  0  0  0  0  0
  -25.8070  -30.6770   21.0590 C   0  0  0  0  0  2  0  0  0  0  0  0
  -25.8790  -29.3670   20.2960 C   0  0  0  0  0  0  0  0  0  0  0  0
  -27.0790  -28.6290   20.1870 C   0  0  0  0  0  3  0  0  0  0  0  0
  -25.9160  -26.9410   18.8820 C   0  0  0  0  0  3  0  0  0  0  0  0
  -24.7220  -27.6790   18.9850 C   0  0  0  0  0  3  0  0  0  0  0  0
  -23.4660  -29.7440   19.8410 C   0  0  0  0  0  2  0  0  0  0  0  0
  -24.5610  -30.8500   21.8440 N   0  0  0  0  0  0  0  0  0  0  0  0
  -23.4590  -31.7650   23.6020 O   0  0  0  0  0  0  0  0  0  0  0  0
  -22.6610  -29.1870   22.1610 C   0  0  0  0  0  0  0  0  0  0  0  0
  -21.3290  -29.0350   22.0730 N   0  0  0  0  0  0  0  0  0  0  0  0
  -23.3670  -28.4740   22.8780 O   0  0  0  0  0  0  0  0  0  0  0  0
  -20.8200  -29.6650   21.4690 H   0  0  0  0  0  0  0  0  0  0  0  0
  -17.9540  -27.8760   22.6400 C   0  0  0  0  0  0  0  0  0  0  0  0
  -20.5300  -28.0330   22.7780 C   0  0  0  0  0  3  0  0  0  0  0  0
  -20.5520  -26.6800   22.0320 C   0  0  0  0  0  2  0  0  0  0  0  0
  -19.3810  -26.5090   21.0580 C   0  0  0  0  0  2  0  0  0  0  0  0
  -18.0460  -26.6120   21.8010 C   0  0  0  0  0  2  0  0  0  0  0  0
  -19.1210  -28.5520   23.0850 C   0  0  0  0  0  0  0  0  0  0  0  0
  -18.9800  -29.7410   23.8320 C   0  0  0  0  0  3  0  0  0  0  0  0
  -17.7060  -30.2540   24.1370 C   0  0  0  0  0  3  0  0  0  0  0  0
  -16.5540  -29.5730   23.7070 C   0  0  0  0  0  3  0  0  0  0  0  0
  -16.6800  -28.3850   22.9640 C   0  0  0  0  0  3  0  0  0  0  0  0
  -25.8270  -32.1230   23.6600 C   0  0  0  0  0  3  0  0  0  0  0  0
  -25.5450  -33.5080   24.0600 N   0  0  0  0  0  0  0  0  0  0  0  0
  -25.8990  -34.5910   23.3540 C   0  0  0  0  0  0  0  0  0  0  0  0
  -26.5700  -34.5250   22.3200 O   0  0  0  0  0  0  0  0  0  0  0  0
  -24.9490  -33.6340   24.8660 H   0  0  0  0  0  0  0  0  0  0  0  0
  -24.1990  -36.4260   23.0910 C   0  0  0  0  0  1  0  0  0  0  0  0
  -25.4360  -35.9630   23.8780 C   0  0  0  0  0  3  0  0  0  0  0  0
  -27.5780  -36.7790   24.7570 C   0  0  0  0  0  1  0  0  0  0  0  0
  -26.4850  -37.0030   23.8140 N   0  0  0  0  0  0  0  0  0  0  0  0
  -26.0930  -37.9230   23.9950 H   0  0  0  0  0  0  0  0  0  0  0  0
  -26.3390  -31.2810   24.8920 C   0  0  1  0  0  0  0  0  0  0  0  0
  -25.2520  -31.0090   25.9570 C   0  0  0  0  0  1  0  0  0  0  0  0
  -26.8940  -29.9150   24.4250 C   0  0  0  0  0  1  0  0  0  0  0  0
  -27.5120  -32.0190   25.5810 C   0  0  0  0  0  1  0  0  0  0  0  0
  -29.3250  -16.3620   19.6850 C   0  0  0  0  0  2  0  0  0  0  0  0
  -30.9460  -14.5030   19.4870 C   0  0  0  0  0  0  0  0  0  0  0  0
  -30.4840  -12.2510   18.5680 C   0  0  0  0  0  2  0  0  0  0  0  0
  -29.4390  -12.3290   17.4390 C   0  0  0  0  0  2  0  0  0  0  0  0
  -28.0140  -12.2430   18.0180 C   0  0  0  0  0  2  0  0  0  0  0  0
  -27.7910  -13.2120   19.2070 C   0  0  0  0  0  3  0  0  0  0  0  0
  -28.9480  -13.1250   20.2310 C   0  0  0  0  0  2  0  0  0  0  0  0
  -30.2130  -13.3500   19.5110 N   0  0  0  0  0  0  0  0  0  0  0  0
  -32.0220  -14.5790   18.8850 O   0  0  0  0  0  0  0  0  0  0  0  0
  -31.4090  -16.3260   21.0280 C   0  0  0  0  0  1  0  0  0  0  0  0
  -30.4790  -15.5750   20.1800 N   0  0  0  0  0  0  0  0  0  0  0  0
  -25.5440  -13.9540   20.2090 C   0  0  0  0  0  0  0  0  0  0  0  0
  -24.4730  -13.2410   20.6750 C   0  0  0  0  0  0  0  0  0  0  0  0
  -24.8310  -11.8640   20.5500 C   0  0  0  0  0  0  0  0  0  0  0  0
  -26.4910  -13.0130   19.8340 N   0  0  0  0  0  0  0  0  0  0  0  0
  -26.0720  -11.7500   20.0960 N   0  0  0  0  0  0  0  0  0  0  0  0
  -24.0440  -10.6480   20.7800 C   0  0  0  0  0  0  0  0  0  0  0  0
  -24.4670   -9.6580   21.6940 C   0  0  0  0  0  3  0  0  0  0  0  0
  -23.6840   -8.5040   21.9120 C   0  0  0  0  0  3  0  0  0  0  0  0
  -22.4630   -8.3330   21.2180 C   0  0  0  0  0  0  0  0  0  0  0  0
  -22.0580   -9.3110   20.2920 C   0  0  0  0  0  3  0  0  0  0  0  0
  -22.8400  -10.4570   20.0720 C   0  0  0  0  0  3  0  0  0  0  0  0
  -21.6500   -7.2330   21.3470 O   0  0  0  0  0  0  0  0  0  0  0  0
  -21.5790   -6.5260   22.5200 C   0  0  0  0  0  0  0  0  0  0  0  0
  -21.1660   -7.1260   23.7290 C   0  0  0  0  0  3  0  0  0  0  0  0
  -21.0410   -6.3460   24.8960 C   0  0  0  0  0  3  0  0  0  0  0  0
  -21.3190   -4.9670   24.8540 C   0  0  0  0  0  0  0  0  0  0  0  0
  -21.7250   -4.3650   23.6500 C   0  0  0  0  0  3  0  0  0  0  0  0
  -21.8530   -5.1430   22.4860 C   0  0  0  0  0  0  0  0  0  0  0  0
  -22.2250   -4.5560   21.3230 F   0  0  0  0  0  0  0  0  0  0  0  0
  -21.1900   -4.2150   25.9720 F   0  0  0  0  0  0  0  0  0  0  0  0
  -23.1530  -13.8010   21.1180 C   0  0  0  0  0  0  0  0  0  0  0  0
  -22.4820  -13.1240   22.0440 N   0  0  0  0  0  0  0  0  0  0  0  0
  -22.7310  -14.8690   20.6800 O   0  0  0  0  0  0  0  0  0  0  0  0
  -22.8370  -12.2560   22.4170 H   0  0  0  0  0  0  0  0  0  0  0  0
  -21.5990  -13.4790   22.3850 H   0  0  0  0  0  0  0  0  0  0  0  0
  -25.7800  -15.3160   20.0510 N   0  0  0  0  0  0  0  0  0  0  0  0
  -25.0700  -16.0090   20.2630 H   0  0  0  0  0  0  0  0  0  0  0  0
  -26.5970  -15.7130   19.6070 H   0  0  0  0  0  0  0  0  0  0  0  0
  1  3  1  0
  2  6  1  0
  3 55  1  0
  3  6  2  0
  4  2  2  0
  5  1  2  0
  5  4  1  0
  6  8  1  0
  7  5  1  0
  9 10  1  0
 10  4  1  0
 11 10  1  0
 11 12  1  0
 13 14  1  0
 13 12  1  0
 14 16  1  0
 15 26  2  0
 16 21  1  0
 17 25  1  0
 17 27  1  0
 18 24  1  0
 18 20  1  0
 19 25  1  0
 20 19  1  0
 21 20  2  0
 22 23  1  0
 22 16  2  0
 23 18  2  0
 24 17  1  0
 25 15  1  0
 27 29  2  0
 28 27  1  0
 30 28  1  0
 31 40  2  0
 31 36  1  0
 32 28  1  0
 32 36  1  0
 33 32  1  0
 34 35  1  0
 34 33  1  0
 35 31  1  0
 36 37  2  0
 37 38  1  0
 39 38  2  0
 40 39  1  0
 41 15  1  0
 41 42  1  0
 41 51  1  0
 42 45  1  0
 43 47  1  0
 43 42  1  0
 44 43  2  0
 47 46  1  0
 49 47  1  0
 49 50  1  0
 49 48  1  0
 51 54  1  1
 51 52  1  0
 53 51  1  0
 55 65  1  0
 56 62  1  0
 56 65  1  0
 57 62  1  0
 58 59  1  0
 58 57  1  0
 60 59  1  0
 60 69  1  0
 60 61  1  0
 62 61  1  0
 63 56  2  0
 65 64  1  0
 66 67  2  0
 67 86  1  0
 68 67  1  0
 68 71  1  0
 69 70  1  0
 69 66  1  0
 70 68  2  0
 71 72  1  0
 72 73  2  0
 74 77  1  0
 74 73  1  0
 75 74  2  0
 76 75  1  0
 76 71  2  0
 77 78  1  0
 78 79  1  0
 79 80  2  0
 81 80  1  0
 81 85  1  0
 82 81  2  0
 83 78  2  0
 83 82  1  0
 84 83  1  0
 86 87  1  0
 87 90  1  0
 87 89  1  0
 88 86  2  0
 91 66  1  0
 91 92  1  0
 93 91  1  0
M  ISO  4  13 101  14 101  56 100  65 100
M  END
>  <TORSDO>  (72) 
F 21

>  <SCORE>  (72) 
-12.281

>  <name>  (72) 
71

>  <ligand_id>  (72) 
71

>  <original_smiles>  (72) 
[H]c1c([H])c([H])c2c(c1[H])C([H])([H])C([H])([H])C([H])([H])C2([H])N([H])C(=O)C1([H])N(C(=O)C([H])(N([H])C(=O)C([H])(N([H])C([H])([H])[H])C([H])([H])[H])C(C([H])([H])[H])(C([H])([H])[H])C([H])([H])[H])C([H])([H])c2c([H])c(OC([H])([H])C([H])([H])C([H])([H])N(c3c([H])c(F)c(C([H])([H])N(C(=O)N4C([H])([H])C([H])([H])C([H])([H])C([H])(n5nc(-c6c([H])c([H])c(Oc7c([H])c([H])c(F)c([H])c7F)c([H])c6[H])c(C(=O)N([H])[H])c5N([H])[H])C4([H])[H])C([H])([H])[H])c([H])c3F)C([H])([H])[H])c([H])c([H])c2C1([H])[H]

>  <smiles>  (72) 
[H]c1c([H])c([H])c2c(c1[H])C([H])([H])C([H])([H])C([H])([H])C2([H])N([H])C(=O)C1([H])N(C(=O)C([H])(N([H])C(=O)C([H])(N([H])C([H])([H])[H])C([H])([H])[H])C(C([H])([H])[H])(C([H])([H])[H])C([H])([H])[H])C([H])([H])c2c([H])c(OC([H])([H])C([H])([H])C([H])([H])N(c3c([H])c(F)c(C([H])([H])N(C(=O)N4C([H])([H])C([H])([H])C([H])([H])C([H])(n5nc(-c6c([H])c([H])c(Oc7c([H])c([H])c(F)c([H])c7F)c([H])c6[H])c(C(=O)N([H])[H])c5N([H])[H])C4([H])[H])C([H])([H])[H])c([H])c3F)C([H])([H])[H])c([H])c([H])c2C1([H])[H]

$$$$
72:0:0
     RDKit          3D

 93101  0  0  1  0  0  0  0  0999 V2000
  -28.9760  -22.1820   18.5270 C   0  0  0  0  0  1  0  0  0  0  0  0
  -29.1610  -22.5690   19.9470 N   0  0  1  0  0  4  0  0  0  0  0  0
  -28.2680  -22.3930   20.3860 H   0  0  0  0  0  0  0  0  0  0  0  0
  -30.1270  -21.6320   20.6520 C   0  0  0  0  0  2  0  0  0  0  0  0
  -28.9740  -19.3120   21.0550 C   0  0  0  0  0  3  0  0  0  0  0  0
  -28.9770  -17.8870   21.0460 C   0  0  0  0  0  3  0  0  0  0  0  0
  -31.0840  -17.8800   19.8870 C   0  0  0  0  0  3  0  0  0  0  0  0
  -30.0310  -20.0660   20.4860 C   0  0  0  0  0  0  0  0  0  0  0  0
  -30.0350  -17.1260   20.4800 C   0  0  0  0  0  0  0  0  0  0  0  0
  -31.0800  -19.3110   19.8900 C   0  0  0  0  0  0  0  0  0  0  0  0
  -32.1270  -19.9650   19.3310 F   0  0  0  0  0  0  0  0  0  0  0  0
  -30.7060  -14.6430   20.0370 C   0  0  0  0  0  0  0  0  0  0  0  0
  -30.4160  -12.4370   18.9260 C   0  0  0  0  0  2  0  0  0  0  0  0
  -29.4040  -12.6070   17.7710 C   0  0  0  0  0  2  0  0  0  0  0  0
  -27.9560  -12.4530   18.2770 C   0  0  0  0  0  2  0  0  0  0  0  0
  -27.6790  -13.2910   19.5530 C   0  0  0  0  0  3  0  0  0  0  0  0
  -28.7940  -13.0840   20.6020 C   0  0  0  0  0  2  0  0  0  0  0  0
  -30.0770  -13.4270   19.9670 N   0  0  0  0  0  0  0  0  0  0  0  0
  -31.8300  -14.8150   19.5560 O   0  0  0  0  0  0  0  0  0  0  0  0
  -29.9460  -15.6650   20.5390 N   0  0  0  0  0  0  0  0  0  0  0  0
  -29.0950  -15.3220   20.9570 H   0  0  0  0  0  0  0  0  0  0  0  0
  -25.3410  -13.9150   20.4230 C   0  0  0  0  0  0  0  0  0  0  0  0
  -24.2830  -13.1490   20.8330 C   0  0  0  0  0  0  0  0  0  0  0  0
  -24.7160  -11.7920   20.7380 C   0  0  0  0  0  0  0  0  0  0  0  0
  -26.3530  -13.0230   20.1050 N   0  0  0  0  0  0  0  0  0  0  0  0
  -25.9860  -11.7390   20.3530 N   0  0  0  0  0  0  0  0  0  0  0  0
  -23.9790  -10.5370   20.9360 C   0  0  0  0  0  0  0  0  0  0  0  0
  -24.4160   -9.5620   21.8600 C   0  0  0  0  0  3  0  0  0  0  0  0
  -23.6810   -8.3720   22.0470 C   0  0  0  0  0  3  0  0  0  0  0  0
  -22.4940   -8.1480   21.3090 C   0  0  0  0  0  0  0  0  0  0  0  0
  -22.0760   -9.1090   20.3740 C   0  0  0  0  0  3  0  0  0  0  0  0
  -22.8120  -10.2920   20.1850 C   0  0  0  0  0  3  0  0  0  0  0  0
  -21.7300   -7.0090   21.4060 O   0  0  0  0  0  0  0  0  0  0  0  0
  -21.6420   -6.2980   22.5760 C   0  0  0  0  0  0  0  0  0  0  0  0
  -21.1600   -6.8820   23.7680 C   0  0  0  0  0  3  0  0  0  0  0  0
  -21.0200   -6.0960   24.9290 C   0  0  0  0  0  3  0  0  0  0  0  0
  -21.3490   -4.7280   24.8980 C   0  0  0  0  0  0  0  0  0  0  0  0
  -21.8230   -4.1440   23.7110 C   0  0  0  0  0  3  0  0  0  0  0  0
  -21.9650   -4.9270   22.5520 C   0  0  0  0  0  0  0  0  0  0  0  0
  -22.4010   -4.3540   21.4040 F   0  0  0  0  0  0  0  0  0  0  0  0
  -21.2070   -3.9710   26.0110 F   0  0  0  0  0  0  0  0  0  0  0  0
  -22.9120  -13.6410   21.1980 C   0  0  0  0  0  0  0  0  0  0  0  0
  -22.2230  -12.9370   22.0890 N   0  0  0  0  0  0  0  0  0  0  0  0
  -22.4620  -14.6850   20.7280 O   0  0  0  0  0  0  0  0  0  0  0  0
  -22.6020  -12.0930   22.4940 H   0  0  0  0  0  0  0  0  0  0  0  0
  -21.3040  -13.2460   22.3730 H   0  0  0  0  0  0  0  0  0  0  0  0
  -25.5200  -15.2860   20.2760 N   0  0  0  0  0  0  0  0  0  0  0  0
  -24.7690  -15.9470   20.4460 H   0  0  0  0  0  0  0  0  0  0  0  0
  -26.3460  -15.7200   19.8840 H   0  0  0  0  0  0  0  0  0  0  0  0
  -29.4620  -24.0630   20.1610 C   0  0  0  0  0  2  0  0  0  0  0  0
  -28.9860  -25.5220   18.0510 C   0  0  0  0  0  1  0  0  0  0  0  0
  -28.5270  -25.1670   19.4810 C   0  0  0  0  0  3  0  0  0  0  0  0
  -28.4650  -26.4930   20.1420 O   0  0  0  0  0  0  0  0  0  0  0  0
  -24.5340  -31.7430   23.1380 C   0  0  0  0  0  0  0  0  0  0  0  0
  -27.3130  -27.2980   20.0580 C   0  0  0  0  0  0  0  0  0  0  0  0
  -23.3980  -30.3530   21.4450 C   0  0  0  0  0  3  0  0  0  0  0  0
  -24.9110  -28.8600   20.0290 C   0  0  0  0  0  0  0  0  0  0  0  0
  -25.9340  -30.7220   21.3320 C   0  0  0  0  0  2  0  0  0  0  0  0
  -26.0540  -29.3590   20.6650 C   0  0  0  0  0  0  0  0  0  0  0  0
  -27.2530  -28.5870   20.6760 C   0  0  0  0  0  3  0  0  0  0  0  0
  -26.1400  -26.8590   19.3930 C   0  0  0  0  0  3  0  0  0  0  0  0
  -24.9560  -27.6150   19.3880 C   0  0  0  0  0  3  0  0  0  0  0  0
  -23.6570  -29.7080   20.0590 C   0  0  0  0  0  2  0  0  0  0  0  0
  -24.6390  -30.9550   22.0290 N   0  0  0  0  0  0  0  0  0  0  0  0
  -23.4340  -31.9910   23.6500 O   0  0  0  0  0  0  0  0  0  0  0  0
  -22.7320  -29.3050   22.3690 C   0  0  0  0  0  0  0  0  0  0  0  0
  -21.4070  -29.1290   22.2290 N   0  0  0  0  0  0  0  0  0  0  0  0
  -23.4070  -28.6560   23.1730 O   0  0  0  0  0  0  0  0  0  0  0  0
  -20.9210  -29.7060   21.5570 H   0  0  0  0  0  0  0  0  0  0  0  0
  -18.0250  -27.9410   22.6990 C   0  0  0  0  0  0  0  0  0  0  0  0
  -20.5850  -28.1690   22.9680 C   0  0  0  0  0  3  0  0  0  0  0  0
  -20.6730  -26.7590   22.3380 C   0  0  0  0  0  2  0  0  0  0  0  0
  -19.5650  -26.4840   21.3170 C   0  0  0  0  0  2  0  0  0  0  0  0
  -18.1870  -26.6170   21.9730 C   0  0  0  0  0  2  0  0  0  0  0  0
  -19.1510  -28.6770   23.1530 C   0  0  0  0  0  0  0  0  0  0  0  0
  -18.9450  -29.9180   23.7930 C   0  0  0  0  0  3  0  0  0  0  0  0
  -17.6460  -30.4250   23.9820 C   0  0  0  0  0  3  0  0  0  0  0  0
  -16.5320  -29.6860   23.5440 C   0  0  0  0  0  3  0  0  0  0  0  0
  -16.7230  -28.4450   22.9090 C   0  0  0  0  0  3  0  0  0  0  0  0
  -25.7900  -32.3880   23.8020 C   0  0  0  0  0  3  0  0  0  0  0  0
  -26.2800  -31.6140   25.0860 C   0  0  1  0  0  0  0  0  0  0  0  0
  -25.1590  -31.3520   26.1200 C   0  0  0  0  0  1  0  0  0  0  0  0
  -26.8940  -30.2480   24.7030 C   0  0  0  0  0  1  0  0  0  0  0  0
  -27.3980  -32.4200   25.7890 C   0  0  0  0  0  1  0  0  0  0  0  0
  -25.4500  -33.7790   24.1340 N   0  0  0  0  0  0  0  0  0  0  0  0
  -25.7670  -34.8400   23.3810 C   0  0  0  0  0  0  0  0  0  0  0  0
  -26.4450  -34.7540   22.3540 O   0  0  0  0  0  0  0  0  0  0  0  0
  -24.8450  -33.9180   24.9290 H   0  0  0  0  0  0  0  0  0  0  0  0
  -23.9980  -36.5950   23.0340 C   0  0  0  0  0  1  0  0  0  0  0  0
  -25.2500  -36.2180   23.8410 C   0  0  0  0  0  3  0  0  0  0  0  0
  -27.3630  -37.1540   24.6700 C   0  0  0  0  0  1  0  0  0  0  0  0
  -26.2580  -37.2940   23.7260 N   0  0  0  0  0  0  0  0  0  0  0  0
  -25.8310  -38.2050   23.8700 H   0  0  0  0  0  0  0  0  0  0  0  0
  1  2  1  0
  2 50  1  0
  2  3  1  1
  2  4  1  0
  6  5  1  0
  7 10  2  0
  7  9  1  0
  8  4  1  0
  8  5  2  0
  9 20  1  0
  9  6  2  0
 10  8  1  0
 11 10  1  0
 12 20  1  0
 13 18  1  0
 14 15  1  0
 14 13  1  0
 16 15  1  0
 16 25  1  0
 16 17  1  0
 18 12  1  0
 18 17  1  0
 19 12  2  0
 20 21  1  0
 22 23  2  0
 23 42  1  0
 24 23  1  0
 24 27  1  0
 25 26  1  0
 25 22  1  0
 26 24  2  0
 27 28  1  0
 28 29  2  0
 30 33  1  0
 30 29  1  0
 31 30  2  0
 32 31  1  0
 32 27  2  0
 33 34  1  0
 34 35  1  0
 35 36  2  0
 37 36  1  0
 37 41  1  0
 38 37  2  0
 39 34  2  0
 39 38  1  0
 40 39  1  0
 42 43  1  0
 43 46  1  0
 43 45  1  0
 44 42  2  0
 47 22  1  0
 47 48  1  0
 49 47  1  0
 52 51  1  0
 52 53  1  0
 52 50  1  0
 54 65  2  0
 55 53  1  0
 55 60  1  0
 56 64  1  0
 56 66  1  0
 57 63  1  0
 57 59  1  0
 58 64  1  0
 59 60  2  0
 59 58  1  0
 61 55  2  0
 62 61  1  0
 62 57  2  0
 63 56  1  0
 64 54  1  0
 66 68  2  0
 67 66  1  0
 69 67  1  0
 70 79  2  0
 70 75  1  0
 71 67  1  0
 71 75  1  0
 72 71  1  0
 73 74  1  0
 73 72  1  0
 74 70  1  0
 75 76  2  0
 76 77  1  0
 78 77  2  0
 79 78  1  0
 80 54  1  0
 80 85  1  0
 80 81  1  0
 81 84  1  1
 81 82  1  0
 83 81  1  0
 85 88  1  0
 86 90  1  0
 86 85  1  0
 87 86  2  0
 90 89  1  0
 92 90  1  0
 92 93  1  0
 92 91  1  0
M  ISO  4  12 100  20 100  52 101  53 101
M  END
>  <TORSDO>  (73) 
F 20

>  <SCORE>  (73) 
-13.281

>  <name>  (73) 
72

>  <ligand_id>  (73) 
72

>  <original_smiles>  (73) 
[H]c1c([H])c([H])c2c(c1[H])C([H])([H])C([H])([H])C([H])([H])C2([H])N([H])C(=O)C1([H])N(C(=O)C([H])(N([H])C(=O)C([H])(N([H])C([H])([H])[H])C([H])([H])[H])C(C([H])([H])[H])(C([H])([H])[H])C([H])([H])[H])C([H])([H])c2c([H])c(OC([H])(C([H])([H])[H])C([H])([H])[N+]([H])(C([H])([H])[H])C([H])([H])c3c([H])c([H])c(N([H])C(=O)N4C([H])([H])C([H])([H])C([H])([H])C([H])(n5nc(-c6c([H])c([H])c(Oc7c([H])c([H])c(F)c([H])c7F)c([H])c6[H])c(C(=O)N([H])[H])c5N([H])[H])C4([H])[H])c([H])c3F)c([H])c([H])c2C1([H])[H]

>  <smiles>  (73) 
[H]c1c([H])c([H])c2c(c1[H])C([H])([H])C([H])([H])C([H])([H])C2([H])N([H])C(=O)C1([H])N(C(=O)C([H])(N([H])C(=O)C([H])(N([H])C([H])([H])[H])C([H])([H])[H])C(C([H])([H])[H])(C([H])([H])[H])C([H])([H])[H])C([H])([H])c2c([H])c(OC([H])(C([H])([H])[H])C([H])([H])[N+]([H])(C([H])([H])[H])C([H])([H])c3c([H])c([H])c(N([H])C(=O)N4C([H])([H])C([H])([H])C([H])([H])C([H])(n5nc(-c6c([H])c([H])c(Oc7c([H])c([H])c(F)c([H])c7F)c([H])c6[H])c(C(=O)N([H])[H])c5N([H])[H])C4([H])[H])c([H])c3F)c([H])c([H])c2C1([H])[H]

$$$$
73:0:0
     RDKit          3D

 86 94  0  0  1  0  0  0  0  0999 V2000
  -29.1870  -21.3180   21.2240 C   0  0  0  0  0  3  0  0  0  0  0  0
  -28.3800  -21.1180   19.1690 C   0  0  0  0  0  3  0  0  0  0  0  0
  -29.5320  -19.8170   21.2250 C   0  0  0  0  0  3  0  0  0  0  0  0
  -28.7130  -19.6270   19.1720 C   0  0  0  0  0  3  0  0  0  0  0  0
  -28.5590  -22.1940   20.1860 C   0  0  0  0  0  0  0  0  0  0  0  0
  -29.3450  -18.7470   20.1930 C   0  0  0  0  0  0  0  0  0  0  0  0
  -30.2600  -15.7190   20.1520 C   0  0  0  0  0  0  0  0  0  0  0  0
  -30.3680  -13.1860   19.3140 C   0  0  0  0  0  2  0  0  0  0  0  0
  -29.4450  -12.7990   18.1230 C   0  0  0  0  0  2  0  0  0  0  0  0
  -28.0320  -12.4420   18.6110 C   0  0  0  0  0  2  0  0  0  0  0  0
  -27.5460  -13.4280   19.6970 C   0  0  0  0  0  3  0  0  0  0  0  0
  -28.6050  -13.7230   20.7850 C   0  0  0  0  0  2  0  0  0  0  0  0
  -29.7610  -14.3480   20.1030 N   0  0  0  0  0  0  0  0  0  0  0  0
  -31.4880  -15.6960   19.9420 O   0  0  0  0  0  0  0  0  0  0  0  0
  -29.4300  -17.0280   20.2420 N   0  0  0  0  0  0  0  0  0  0  0  0
  -28.4830  -16.6860   20.3090 H   0  0  0  0  0  0  0  0  0  0  0  0
  -25.2060  -13.9340   20.5460 C   0  0  0  0  0  0  0  0  0  0  0  0
  -24.1600  -13.1410   20.9260 C   0  0  0  0  0  0  0  0  0  0  0  0
  -24.6350  -11.7950   20.8480 C   0  0  0  0  0  0  0  0  0  0  0  0
  -26.2460  -13.0750   20.2480 N   0  0  0  0  0  0  0  0  0  0  0  0
  -25.9180  -11.7780   20.4970 N   0  0  0  0  0  0  0  0  0  0  0  0
  -23.9180  -10.5250   21.0260 C   0  0  0  0  0  0  0  0  0  0  0  0
  -24.3490   -9.5550   21.9580 C   0  0  0  0  0  3  0  0  0  0  0  0
  -23.6270   -8.3540   22.1270 C   0  0  0  0  0  3  0  0  0  0  0  0
  -22.4590   -8.1140   21.3660 C   0  0  0  0  0  0  0  0  0  0  0  0
  -22.0470   -9.0720   20.4240 C   0  0  0  0  0  3  0  0  0  0  0  0
  -22.7690  -10.2640   20.2520 C   0  0  0  0  0  3  0  0  0  0  0  0
  -21.7100   -6.9650   21.4440 O   0  0  0  0  0  0  0  0  0  0  0  0
  -21.6210   -6.2410   22.6070 C   0  0  0  0  0  0  0  0  0  0  0  0
  -21.1120   -6.8040   23.7970 C   0  0  0  0  0  3  0  0  0  0  0  0
  -20.9720   -6.0060   24.9500 C   0  0  0  0  0  3  0  0  0  0  0  0
  -21.3310   -4.6460   24.9130 C   0  0  0  0  0  0  0  0  0  0  0  0
  -21.8340   -4.0820   23.7270 C   0  0  0  0  0  3  0  0  0  0  0  0
  -21.9740   -4.8770   22.5770 C   0  0  0  0  0  0  0  0  0  0  0  0
  -22.4380   -4.3230   21.4310 F   0  0  0  0  0  0  0  0  0  0  0  0
  -21.1910   -3.8770   26.0190 F   0  0  0  0  0  0  0  0  0  0  0  0
  -22.7690  -13.6060   21.2420 C   0  0  0  0  0  0  0  0  0  0  0  0
  -22.0680  -12.8890   22.1130 N   0  0  0  0  0  0  0  0  0  0  0  0
  -22.3150  -14.6380   20.7530 O   0  0  0  0  0  0  0  0  0  0  0  0
  -22.4500  -12.0540   22.5310 H   0  0  0  0  0  0  0  0  0  0  0  0
  -21.1340  -13.1820   22.3670 H   0  0  0  0  0  0  0  0  0  0  0  0
  -25.3510  -15.3100   20.3950 N   0  0  0  0  0  0  0  0  0  0  0  0
  -24.5750  -15.9490   20.5370 H   0  0  0  0  0  0  0  0  0  0  0  0
  -26.1650  -15.7610   20.0010 H   0  0  0  0  0  0  0  0  0  0  0  0
  -27.7930  -23.9010   20.1770 C   0  0  0  0  0  2  0  0  0  0  0  0
  -28.1150  -25.6130   20.3110 O   0  0  0  0  0  0  0  0  0  0  0  0
  -24.6620  -31.9150   23.2510 C   0  0  0  0  0  0  0  0  0  0  0  0
  -27.1570  -26.8350   20.2600 C   0  0  0  0  0  0  0  0  0  0  0  0
  -23.4600  -30.5190   21.6230 C   0  0  0  0  0  3  0  0  0  0  0  0
  -24.8950  -28.8660   20.2080 C   0  0  0  0  0  0  0  0  0  0  0  0
  -26.0380  -30.6560   21.4870 C   0  0  0  0  0  2  0  0  0  0  0  0
  -26.0950  -29.2230   20.8340 C   0  0  0  0  0  0  0  0  0  0  0  0
  -27.2120  -28.2350   20.8280 C   0  0  0  0  0  3  0  0  0  0  0  0
  -25.9230  -26.6850   19.5790 C   0  0  0  0  0  3  0  0  0  0  0  0
  -24.8460  -27.6220   19.5560 C   0  0  0  0  0  3  0  0  0  0  0  0
  -23.6900  -29.8190   20.2540 C   0  0  0  0  0  2  0  0  0  0  0  0
  -24.7450  -31.0630   22.1720 N   0  0  0  0  0  0  0  0  0  0  0  0
  -23.5730  -32.2210   23.7660 O   0  0  0  0  0  0  0  0  0  0  0  0
  -22.7450  -29.5460   22.5990 C   0  0  0  0  0  0  0  0  0  0  0  0
  -21.4140  -29.3860   22.4710 N   0  0  0  0  0  0  0  0  0  0  0  0
  -23.4000  -28.9330   23.4470 O   0  0  0  0  0  0  0  0  0  0  0  0
  -20.9350  -29.9310   21.7680 H   0  0  0  0  0  0  0  0  0  0  0  0
  -18.0320  -28.1550   22.9720 C   0  0  0  0  0  0  0  0  0  0  0  0
  -20.5870  -28.4540   23.2490 C   0  0  0  0  0  3  0  0  0  0  0  0
  -20.7060  -27.0130   22.6990 C   0  0  0  0  0  2  0  0  0  0  0  0
  -19.6170  -26.6650   21.6810 C   0  0  0  0  0  2  0  0  0  0  0  0
  -18.2280  -26.8010   22.3110 C   0  0  0  0  0  2  0  0  0  0  0  0
  -19.1380  -28.9370   23.3980 C   0  0  0  0  0  0  0  0  0  0  0  0
  -18.8970  -30.2000   23.9820 C   0  0  0  0  0  3  0  0  0  0  0  0
  -17.5830  -30.6820   24.1390 C   0  0  0  0  0  3  0  0  0  0  0  0
  -16.4920  -29.8990   23.7250 C   0  0  0  0  0  3  0  0  0  0  0  0
  -16.7170  -28.6360   23.1490 C   0  0  0  0  0  3  0  0  0  0  0  0
  -25.9320  -32.5610   23.8830 C   0  0  0  0  0  3  0  0  0  0  0  0
  -25.6160  -33.9640   24.2200 N   0  0  0  0  0  0  0  0  0  0  0  0
  -25.9160  -35.0270   23.4620 C   0  0  0  0  0  0  0  0  0  0  0  0
  -26.5470  -34.9310   22.4070 O   0  0  0  0  0  0  0  0  0  0  0  0
  -25.0470  -34.1100   25.0410 H   0  0  0  0  0  0  0  0  0  0  0  0
  -24.1590  -36.8170   23.2140 C   0  0  0  0  0  1  0  0  0  0  0  0
  -25.4490  -36.4160   23.9480 C   0  0  0  0  0  3  0  0  0  0  0  0
  -27.6160  -37.3300   24.6580 C   0  0  0  0  0  1  0  0  0  0  0  0
  -26.4640  -37.4780   23.7730 N   0  0  0  0  0  0  0  0  0  0  0  0
  -26.0580  -38.3960   23.9330 H   0  0  0  0  0  0  0  0  0  0  0  0
  -26.4320  -31.8030   25.1750 C   0  0  1  0  0  0  0  0  0  0  0  0
  -25.3290  -31.5820   26.2370 C   0  0  0  0  0  1  0  0  0  0  0  0
  -27.0120  -30.4160   24.8140 C   0  0  0  0  0  1  0  0  0  0  0  0
  -27.5810  -32.5990   25.8380 C   0  0  0  0  0  1  0  0  0  0  0  0
  1  3  1  0
  2  4  2  0
  2  5  1  0
  4  6  1  0
  5  1  2  0
  6 15  1  0
  6  3  2  0
  7 15  1  0
  8 13  1  0
  9 10  1  0
  9  8  1  0
 11 10  1  0
 11 20  1  0
 11 12  1  0
 13  7  1  0
 13 12  1  0
 14  7  2  0
 15 16  1  0
 17 18  2  0
 18 37  1  0
 19 18  1  0
 19 22  1  0
 20 21  1  0
 20 17  1  0
 21 19  2  0
 22 23  1  0
 23 24  2  0
 25 28  1  0
 25 24  1  0
 26 25  2  0
 27 26  1  0
 27 22  2  0
 28 29  1  0
 29 30  1  0
 30 31  2  0
 32 31  1  0
 32 36  1  0
 33 32  2  0
 34 29  2  0
 34 33  1  0
 35 34  1  0
 37 38  1  0
 38 41  1  0
 38 40  1  0
 39 37  2  0
 42 43  1  0
 42 17  1  0
 44 42  1  0
 45  5  1  0
 45 46  1  0
 47 58  2  0
 48 46  1  0
 48 53  1  0
 49 57  1  0
 49 59  1  0
 50 56  1  0
 50 52  1  0
 51 57  1  0
 52 51  1  0
 53 52  2  0
 54 48  2  0
 55 54  1  0
 55 50  2  0
 56 49  1  0
 57 47  1  0
 59 61  2  0
 60 59  1  0
 62 60  1  0
 63 72  2  0
 63 68  1  0
 64 60  1  0
 64 68  1  0
 65 64  1  0
 66 67  1  0
 66 65  1  0
 67 63  1  0
 68 69  2  0
 69 70  1  0
 71 70  2  0
 72 71  1  0
 73 47  1  0
 73 74  1  0
 73 83  1  0
 74 77  1  0
 75 79  1  0
 75 74  1  0
 76 75  2  0
 79 78  1  0
 81 82  1  0
 81 79  1  0
 81 80  1  0
 83 86  1  1
 83 84  1  0
 85 83  1  0
M  ISO  4   7 100  15 100  45 101  46 101
M  END
>  <TORSDO>  (74) 
F 17

>  <SCORE>  (74) 
-16.448

>  <name>  (74) 
73

>  <ligand_id>  (74) 
73

>  <original_smiles>  (74) 
[H]c1c([H])c([H])c2c(c1[H])C([H])([H])C([H])([H])C([H])([H])C2([H])N([H])C(=O)C1([H])N(C(=O)C([H])(N([H])C(=O)C([H])(N([H])C([H])([H])[H])C([H])([H])[H])C(C([H])([H])[H])(C([H])([H])[H])C([H])([H])[H])C([H])([H])c2c([H])c(OC([H])([H])c3c([H])c([H])c(N([H])C(=O)N4C([H])([H])C([H])([H])C([H])([H])C([H])(n5nc(-c6c([H])c([H])c(Oc7c([H])c([H])c(F)c([H])c7F)c([H])c6[H])c(C(=O)N([H])[H])c5N([H])[H])C4([H])[H])c([H])c3[H])c([H])c([H])c2C1([H])[H]

>  <smiles>  (74) 
[H]c1c([H])c([H])c2c(c1[H])C([H])([H])C([H])([H])C([H])([H])C2([H])N([H])C(=O)C1([H])N(C(=O)C([H])(N([H])C(=O)C([H])(N([H])C([H])([H])[H])C([H])([H])[H])C(C([H])([H])[H])(C([H])([H])[H])C([H])([H])[H])C([H])([H])c2c([H])c(OC([H])([H])c3c([H])c([H])c(N([H])C(=O)N4C([H])([H])C([H])([H])C([H])([H])C([H])(n5nc(-c6c([H])c([H])c(Oc7c([H])c([H])c(F)c([H])c7F)c([H])c6[H])c(C(=O)N([H])[H])c5N([H])[H])C4([H])[H])c([H])c3[H])c([H])c([H])c2C1([H])[H]

$$$$
74:0:0
     RDKit          3D

 94102  0  0  1  0  0  0  0  0999 V2000
  -30.1550  -19.3360   20.4010 C   0  0  0  0  0  3  0  0  0  0  0  0
  -28.3950  -17.7080   19.9640 C   0  0  0  0  0  3  0  0  0  0  0  0
  -27.8310  -20.0540   20.3640 C   0  0  0  0  0  3  0  0  0  0  0  0
  -29.7660  -17.9930   20.1460 C   0  0  0  0  0  0  0  0  0  0  0  0
  -29.1960  -20.3780   20.5190 C   0  0  0  0  0  0  0  0  0  0  0  0
  -27.4350  -18.7320   20.0790 C   0  0  0  0  0  0  0  0  0  0  0  0
  -26.1230  -18.4410   19.9220 F   0  0  0  0  0  0  0  0  0  0  0  0
  -30.8440  -16.8970   20.0490 C   0  0  0  0  0  2  0  0  0  0  0  0
  -31.1120  -14.4930   20.0120 C   0  0  0  0  0  0  0  0  0  0  0  0
  -30.6460  -12.3280   18.9140 C   0  0  0  0  0  2  0  0  0  0  0  0
  -29.6860  -12.5140   17.7210 C   0  0  0  0  0  2  0  0  0  0  0  0
  -28.2230  -12.4360   18.1910 C   0  0  0  0  0  2  0  0  0  0  0  0
  -27.9470  -13.3360   19.4230 C   0  0  0  0  0  3  0  0  0  0  0  0
  -29.0190  -13.1380   20.5160 C   0  0  0  0  0  2  0  0  0  0  0  0
  -30.3430  -13.3670   19.9180 N   0  0  0  0  0  0  0  0  0  0  0  0
  -32.1590  -14.6060   19.3640 O   0  0  0  0  0  0  0  0  0  0  0  0
  -30.6320  -15.5700   20.7000 N   0  0  0  0  0  0  0  0  0  0  0  0
  -25.6140  -14.0540   20.2310 C   0  0  0  0  0  0  0  0  0  0  0  0
  -24.5220  -13.3330   20.6340 C   0  0  0  0  0  0  0  0  0  0  0  0
  -24.9100  -11.9590   20.5720 C   0  0  0  0  0  0  0  0  0  0  0  0
  -26.6010  -13.1230   19.9490 N   0  0  0  0  0  0  0  0  0  0  0  0
  -26.1830  -11.8570   20.2120 N   0  0  0  0  0  0  0  0  0  0  0  0
  -24.1270  -10.7330   20.7780 C   0  0  0  0  0  0  0  0  0  0  0  0
  -24.5220   -9.7520   21.7140 C   0  0  0  0  0  3  0  0  0  0  0  0
  -23.7420   -8.5910   21.9040 C   0  0  0  0  0  3  0  0  0  0  0  0
  -22.5530   -8.4050   21.1600 C   0  0  0  0  0  0  0  0  0  0  0  0
  -22.1800   -9.3730   20.2110 C   0  0  0  0  0  3  0  0  0  0  0  0
  -22.9600  -10.5240   20.0180 C   0  0  0  0  0  3  0  0  0  0  0  0
  -21.7470   -7.2960   21.2610 O   0  0  0  0  0  0  0  0  0  0  0  0
  -21.6310   -6.5940   22.4340 C   0  0  0  0  0  0  0  0  0  0  0  0
  -21.2090   -7.2100   23.6330 C   0  0  0  0  0  3  0  0  0  0  0  0
  -21.0380   -6.4360   24.7980 C   0  0  0  0  0  3  0  0  0  0  0  0
  -21.2780   -5.0490   24.7660 C   0  0  0  0  0  0  0  0  0  0  0  0
  -21.6930   -4.4340   23.5720 C   0  0  0  0  0  3  0  0  0  0  0  0
  -21.8660   -5.2040   22.4080 C   0  0  0  0  0  0  0  0  0  0  0  0
  -22.2470   -4.6030   21.2560 F   0  0  0  0  0  0  0  0  0  0  0  0
  -21.1050   -4.3050   25.8840 F   0  0  0  0  0  0  0  0  0  0  0  0
  -23.1630  -13.8780   20.9650 C   0  0  0  0  0  0  0  0  0  0  0  0
  -22.4400  -13.2190   21.8630 N   0  0  0  0  0  0  0  0  0  0  0  0
  -22.7520  -14.9220   20.4600 O   0  0  0  0  0  0  0  0  0  0  0  0
  -22.7850  -12.3720   22.2910 H   0  0  0  0  0  0  0  0  0  0  0  0
  -21.5270  -13.5640   22.1250 H   0  0  0  0  0  0  0  0  0  0  0  0
  -25.8460  -15.4160   20.0600 N   0  0  0  0  0  0  0  0  0  0  0  0
  -25.1250  -16.1130   20.2130 H   0  0  0  0  0  0  0  0  0  0  0  0
  -26.7060  -15.8060   19.6980 H   0  0  0  0  0  0  0  0  0  0  0  0
  -32.0510  -15.0320   22.7470 C   0  0  0  0  0  1  0  0  0  0  0  0
  -30.7380  -15.6080   22.1790 C   0  0  0  0  0  2  0  0  0  0  0  0
  -29.6110  -21.8190   20.8760 C   0  0  0  0  0  2  0  0  0  0  0  0
  -29.9340  -22.5900   18.5500 C   0  0  0  0  0  1  0  0  0  0  0  0
  -29.2590  -22.8490   19.8480 N   0  0  2  0  0  4  0  0  0  0  0  0
  -28.2720  -22.7160   19.6790 H   0  0  0  0  0  0  0  0  0  0  0  0
  -29.4240  -24.2720   20.3140 C   0  0  0  0  0  2  0  0  0  0  0  0
  -28.3950  -25.2450   19.6750 C   0  0  0  0  0  2  0  0  0  0  0  0
  -28.5230  -26.6400   20.0480 O   0  0  0  0  0  0  0  0  0  0  0  0
  -24.5570  -31.7350   23.1040 C   0  0  0  0  0  0  0  0  0  0  0  0
  -27.3600  -27.3980   19.9840 C   0  0  0  0  0  0  0  0  0  0  0  0
  -23.4260  -30.3560   21.3950 C   0  0  0  0  0  3  0  0  0  0  0  0
  -24.9440  -28.8950   19.9640 C   0  0  0  0  0  0  0  0  0  0  0  0
  -25.9520  -30.7630   21.2760 C   0  0  0  0  0  2  0  0  0  0  0  0
  -26.0830  -29.4130   20.5970 C   0  0  0  0  0  0  0  0  0  0  0  0
  -27.2950  -28.6740   20.6030 C   0  0  0  0  0  3  0  0  0  0  0  0
  -26.1980  -26.9180   19.3280 C   0  0  0  0  0  3  0  0  0  0  0  0
  -24.9980  -27.6460   19.3280 C   0  0  0  0  0  3  0  0  0  0  0  0
  -23.6850  -29.7290   20.0020 C   0  0  0  0  0  2  0  0  0  0  0  0
  -24.6620  -30.9640   21.9860 N   0  0  0  0  0  0  0  0  0  0  0  0
  -23.4560  -31.9710   23.6210 O   0  0  0  0  0  0  0  0  0  0  0  0
  -22.7700  -29.2940   22.3070 C   0  0  0  0  0  0  0  0  0  0  0  0
  -21.4480  -29.1110   22.1620 N   0  0  0  0  0  0  0  0  0  0  0  0
  -23.4490  -28.6390   23.1030 O   0  0  0  0  0  0  0  0  0  0  0  0
  -20.9610  -29.7010   21.5000 H   0  0  0  0  0  0  0  0  0  0  0  0
  -18.0640  -27.9260   22.6280 C   0  0  0  0  0  0  0  0  0  0  0  0
  -20.6270  -28.1410   22.8850 C   0  0  0  0  0  3  0  0  0  0  0  0
  -20.7080  -26.7430   22.2290 C   0  0  0  0  0  2  0  0  0  0  0  0
  -19.5920  -26.4890   21.2100 C   0  0  0  0  0  2  0  0  0  0  0  0
  -18.2180  -26.6150   21.8760 C   0  0  0  0  0  2  0  0  0  0  0  0
  -19.1960  -28.6500   23.0870 C   0  0  0  0  0  0  0  0  0  0  0  0
  -19.0000  -29.8820   23.7490 C   0  0  0  0  0  3  0  0  0  0  0  0
  -17.7040  -30.3900   23.9550 C   0  0  0  0  0  3  0  0  0  0  0  0
  -16.5850  -29.6620   23.5130 C   0  0  0  0  0  3  0  0  0  0  0  0
  -16.7680  -28.4320   22.8540 C   0  0  0  0  0  3  0  0  0  0  0  0
  -25.8110  -32.3750   23.7770 C   0  0  0  0  0  3  0  0  0  0  0  0
  -25.4640  -33.7570   24.1300 N   0  0  0  0  0  0  0  0  0  0  0  0
  -25.7860  -34.8330   23.4000 C   0  0  0  0  0  0  0  0  0  0  0  0
  -26.4810  -34.7680   22.3810 O   0  0  0  0  0  0  0  0  0  0  0  0
  -24.8490  -33.8810   24.9220 H   0  0  0  0  0  0  0  0  0  0  0  0
  -24.0230  -36.5920   23.0540 C   0  0  0  0  0  1  0  0  0  0  0  0
  -25.2590  -36.2000   23.8780 C   0  0  0  0  0  3  0  0  0  0  0  0
  -27.3600  -37.1140   24.7610 C   0  0  0  0  0  1  0  0  0  0  0  0
  -26.2700  -37.2770   23.8030 N   0  0  0  0  0  0  0  0  0  0  0  0
  -25.8410  -38.1850   23.9660 H   0  0  0  0  0  0  0  0  0  0  0  0
  -26.3080  -31.5820   25.0480 C   0  0  1  0  0  0  0  0  0  0  0  0
  -25.1870  -31.2860   26.0740 C   0  0  0  0  0  1  0  0  0  0  0  0
  -26.9400  -30.2330   24.6340 C   0  0  0  0  0  1  0  0  0  0  0  0
  -27.4150  -32.3880   25.7700 C   0  0  0  0  0  1  0  0  0  0  0  0
  1  5  1  0
  2  6  2  0
  2  4  1  0
  3  5  2  0
  4  1  2  0
  5 48  1  0
  6  3  1  0
  7  6  1  0
  8  4  1  0
  8 17  1  0
  9 17  1  0
 10 15  1  0
 11 12  1  0
 11 10  1  0
 13 12  1  0
 13 21  1  0
 13 14  1  0
 15  9  1  0
 15 14  1  0
 16  9  2  0
 17 47  1  0
 18 19  2  0
 19 38  1  0
 20 19  1  0
 20 23  1  0
 21 22  1  0
 21 18  1  0
 22 20  2  0
 23 24  1  0
 24 25  2  0
 26 29  1  0
 26 25  1  0
 27 26  2  0
 28 27  1  0
 28 23  2  0
 29 30  1  0
 30 31  1  0
 31 32  2  0
 33 32  1  0
 33 37  1  0
 34 33  2  0
 35 30  2  0
 35 34  1  0
 36 35  1  0
 38 39  1  0
 39 42  1  0
 39 41  1  0
 40 38  2  0
 43 44  1  0
 43 18  1  0
 45 43  1  0
 47 46  1  0
 49 50  1  0
 50 52  1  0
 50 48  1  0
 50 51  1  6
 53 54  1  0
 53 52  1  0
 55 66  2  0
 56 54  1  0
 56 61  1  0
 57 65  1  0
 57 67  1  0
 58 64  1  0
 58 60  1  0
 59 65  1  0
 60 61  2  0
 60 59  1  0
 62 56  2  0
 63 62  1  0
 63 58  2  0
 64 57  1  0
 65 55  1  0
 67 69  2  0
 68 67  1  0
 70 68  1  0
 71 80  2  0
 71 76  1  0
 72 68  1  0
 72 76  1  0
 73 72  1  0
 74 75  1  0
 74 73  1  0
 75 71  1  0
 76 77  2  0
 77 78  1  0
 79 78  2  0
 80 79  1  0
 81 55  1  0
 81 82  1  0
 81 91  1  0
 82 85  1  0
 83 87  1  0
 83 82  1  0
 84 83  2  0
 87 86  1  0
 89 87  1  0
 89 90  1  0
 89 88  1  0
 91 94  1  1
 91 92  1  0
 93 91  1  0
M  ISO  4   9 100  17 100  53 101  54 101
M  END
>  <TORSDO>  (75) 
F 22

>  <SCORE>  (75) 
-10.398

>  <name>  (75) 
74

>  <ligand_id>  (75) 
74

>  <original_smiles>  (75) 
[H]c1c([H])c([H])c2c(c1[H])C([H])([H])C([H])([H])C([H])([H])C2([H])N([H])C(=O)C1([H])N(C(=O)C([H])(N([H])C(=O)C([H])(N([H])C([H])([H])[H])C([H])([H])[H])C(C([H])([H])[H])(C([H])([H])[H])C([H])([H])[H])C([H])([H])c2c([H])c(OC([H])([H])C([H])([H])[N+]([H])(C([H])([H])[H])C([H])([H])c3c([H])c(F)c([H])c(C([H])([H])N(C(=O)N4C([H])([H])C([H])([H])C([H])([H])C([H])(n5nc(-c6c([H])c([H])c(Oc7c([H])c([H])c(F)c([H])c7F)c([H])c6[H])c(C(=O)N([H])[H])c5N([H])[H])C4([H])[H])C([H])([H])C([H])([H])[H])c3[H])c([H])c([H])c2C1([H])[H]

>  <smiles>  (75) 
[H]c1c([H])c([H])c2c(c1[H])C([H])([H])C([H])([H])C([H])([H])C2([H])N([H])C(=O)C1([H])N(C(=O)C([H])(N([H])C(=O)C([H])(N([H])C([H])([H])[H])C([H])([H])[H])C(C([H])([H])[H])(C([H])([H])[H])C([H])([H])[H])C([H])([H])c2c([H])c(OC([H])([H])C([H])([H])[N+]([H])(C([H])([H])[H])C([H])([H])c3c([H])c(F)c([H])c(C([H])([H])N(C(=O)N4C([H])([H])C([H])([H])C([H])([H])C([H])(n5nc(-c6c([H])c([H])c(Oc7c([H])c([H])c(F)c([H])c7F)c([H])c6[H])c(C(=O)N([H])[H])c5N([H])[H])C4([H])[H])C([H])([H])C([H])([H])[H])c3[H])c([H])c([H])c2C1([H])[H]

$$$$
75:0:0
     RDKit          3D

 95103  0  0  1  0  0  0  0  0999 V2000
  -30.8560  -21.7490   22.6590 C   0  0  0  0  0  1  0  0  0  0  0  0
  -31.5690  -21.9540   21.3730 N   0  0  2  0  0  4  0  0  0  0  0  0
  -32.4490  -21.4770   21.5010 H   0  0  0  0  0  0  0  0  0  0  0  0
  -32.9610  -23.5020   19.9650 C   0  0  0  0  0  1  0  0  0  0  0  0
  -31.9540  -23.3820   21.1290 C   0  0  0  0  0  3  0  0  0  0  0  0
  -30.7520  -24.3610   20.9790 C   0  0  0  0  0  2  0  0  0  0  0  0
  -31.1790  -25.8500   20.9580 C   0  0  0  0  0  2  0  0  0  0  0  0
  -30.0310  -26.8650   21.1260 C   0  0  0  0  0  2  0  0  0  0  0  0
  -29.1150  -26.7110   20.0510 O   0  0  0  0  0  0  0  0  0  0  0  0
  -24.8060  -31.5210   23.1680 C   0  0  0  0  0  0  0  0  0  0  0  0
  -27.9330  -27.4180   20.0880 C   0  0  0  0  0  0  0  0  0  0  0  0
  -23.7940  -30.1130   21.4010 C   0  0  0  0  0  3  0  0  0  0  0  0
  -25.4320  -28.7360   20.0130 C   0  0  0  0  0  0  0  0  0  0  0  0
  -26.2920  -30.6510   21.3700 C   0  0  0  0  0  2  0  0  0  0  0  0
  -26.5100  -29.3150   20.6950 C   0  0  0  0  0  0  0  0  0  0  0  0
  -27.7600  -28.6600   20.7430 C   0  0  0  0  0  3  0  0  0  0  0  0
  -26.8410  -26.8540   19.3980 C   0  0  0  0  0  3  0  0  0  0  0  0
  -25.5900  -27.4990   19.3630 C   0  0  0  0  0  3  0  0  0  0  0  0
  -24.1300  -29.5040   20.0130 C   0  0  0  0  0  2  0  0  0  0  0  0
  -24.9770  -30.7750   22.0400 N   0  0  0  0  0  0  0  0  0  0  0  0
  -23.6800  -31.6990   23.6530 O   0  0  0  0  0  0  0  0  0  0  0  0
  -23.1600  -29.0120   22.2820 C   0  0  0  0  0  0  0  0  0  0  0  0
  -21.8480  -28.7890   22.1060 N   0  0  0  0  0  0  0  0  0  0  0  0
  -23.8470  -28.3640   23.0750 O   0  0  0  0  0  0  0  0  0  0  0  0
  -21.3540  -29.3690   21.4420 H   0  0  0  0  0  0  0  0  0  0  0  0
  -18.4970  -27.4950   22.4900 C   0  0  0  0  0  0  0  0  0  0  0  0
  -21.0470  -27.7770   22.7960 C   0  0  0  0  0  3  0  0  0  0  0  0
  -21.1790  -26.3990   22.1060 C   0  0  0  0  0  2  0  0  0  0  0  0
  -20.0880  -26.1390   21.0640 C   0  0  0  0  0  2  0  0  0  0  0  0
  -18.7010  -26.2070   21.7110 C   0  0  0  0  0  2  0  0  0  0  0  0
  -19.6000  -28.2400   22.9860 C   0  0  0  0  0  0  0  0  0  0  0  0
  -19.3560  -29.4490   23.6730 C   0  0  0  0  0  3  0  0  0  0  0  0
  -18.0410  -29.9130   23.8700 C   0  0  0  0  0  3  0  0  0  0  0  0
  -16.9530  -29.1630   23.3910 C   0  0  0  0  0  3  0  0  0  0  0  0
  -17.1820  -27.9550   22.7080 C   0  0  0  0  0  3  0  0  0  0  0  0
  -26.0110  -32.2060   23.8870 C   0  0  0  0  0  3  0  0  0  0  0  0
  -25.6010  -33.5740   24.2280 N   0  0  0  0  0  0  0  0  0  0  0  0
  -25.9270  -34.6640   23.5200 C   0  0  0  0  0  0  0  0  0  0  0  0
  -26.6730  -34.6260   22.5380 O   0  0  0  0  0  0  0  0  0  0  0  0
  -24.9440  -33.6730   24.9880 H   0  0  0  0  0  0  0  0  0  0  0  0
  -24.1320  -36.3660   23.0780 C   0  0  0  0  0  1  0  0  0  0  0  0
  -25.3280  -36.0090   23.9730 C   0  0  0  0  0  3  0  0  0  0  0  0
  -27.3390  -36.9850   24.9890 C   0  0  0  0  0  1  0  0  0  0  0  0
  -26.3050  -37.1190   23.9660 N   0  0  0  0  0  0  0  0  0  0  0  0
  -25.8380  -38.0110   24.1010 H   0  0  0  0  0  0  0  0  0  0  0  0
  -26.4920  -31.4270   25.1730 C   0  0  1  0  0  0  0  0  0  0  0  0
  -25.3490  -31.0900   26.1580 C   0  0  0  0  0  1  0  0  0  0  0  0
  -27.1840  -30.1020   24.7790 C   0  0  0  0  0  1  0  0  0  0  0  0
  -27.5450  -32.2690   25.9300 C   0  0  0  0  0  1  0  0  0  0  0  0
  -30.9300  -21.2410   20.2340 C   0  0  0  0  0  2  0  0  0  0  0  0
  -32.0730  -18.9740   19.9640 C   0  0  0  0  0  3  0  0  0  0  0  0
  -32.0980  -17.5720   20.1010 C   0  0  0  0  0  3  0  0  0  0  0  0
  -29.8800  -19.0390   21.0040 C   0  0  0  0  0  3  0  0  0  0  0  0
  -30.9620  -19.7210   20.4110 C   0  0  0  0  0  0  0  0  0  0  0  0
  -29.8960  -17.6320   21.1440 C   0  0  0  0  0  0  0  0  0  0  0  0
  -31.0100  -16.8790   20.6890 C   0  0  0  0  0  0  0  0  0  0  0  0
  -28.6980  -16.9420   21.7760 C   0  0  0  0  0  1  0  0  0  0  0  0
  -31.5310  -14.4940   20.0710 C   0  0  0  0  0  0  0  0  0  0  0  0
  -31.0780  -12.3750   18.8960 C   0  0  0  0  0  2  0  0  0  0  0  0
  -30.0930  -12.6550   17.7420 C   0  0  0  0  0  2  0  0  0  0  0  0
  -28.6340  -12.5860   18.2380 C   0  0  0  0  0  2  0  0  0  0  0  0
  -28.4000  -13.4160   19.5270 C   0  0  0  0  0  3  0  0  0  0  0  0
  -29.4870  -13.1020   20.5800 C   0  0  0  0  0  2  0  0  0  0  0  0
  -30.8060  -13.3470   19.9650 N   0  0  0  0  0  0  0  0  0  0  0  0
  -32.6130  -14.6550   19.4990 O   0  0  0  0  0  0  0  0  0  0  0  0
  -30.9440  -15.4550   20.8080 N   0  0  0  0  0  0  0  0  0  0  0  0
  -30.1690  -15.1160   21.3560 H   0  0  0  0  0  0  0  0  0  0  0  0
  -26.0740  -14.1390   20.3660 C   0  0  0  0  0  0  0  0  0  0  0  0
  -24.9810  -13.4180   20.7670 C   0  0  0  0  0  0  0  0  0  0  0  0
  -25.3620  -12.0430   20.6770 C   0  0  0  0  0  0  0  0  0  0  0  0
  -27.0550  -13.2080   20.0620 N   0  0  0  0  0  0  0  0  0  0  0  0
  -26.6310  -11.9400   20.3030 N   0  0  0  0  0  0  0  0  0  0  0  0
  -24.5750  -10.8180   20.8700 C   0  0  0  0  0  0  0  0  0  0  0  0
  -24.9360   -9.8530   21.8350 C   0  0  0  0  0  3  0  0  0  0  0  0
  -24.1540   -8.6930   22.0140 C   0  0  0  0  0  3  0  0  0  0  0  0
  -22.9950   -8.4890   21.2270 C   0  0  0  0  0  0  0  0  0  0  0  0
  -22.6530   -9.4420   20.2510 C   0  0  0  0  0  3  0  0  0  0  0  0
  -23.4360  -10.5940   20.0710 C   0  0  0  0  0  3  0  0  0  0  0  0
  -22.1880   -7.3800   21.3130 O   0  0  0  0  0  0  0  0  0  0  0  0
  -21.9760   -6.7360   22.5060 C   0  0  0  0  0  0  0  0  0  0  0  0
  -21.4700   -7.4110   23.6380 C   0  0  0  0  0  3  0  0  0  0  0  0
  -21.2010   -6.6960   24.8230 C   0  0  0  0  0  3  0  0  0  0  0  0
  -21.4270   -5.3070   24.8740 C   0  0  0  0  0  0  0  0  0  0  0  0
  -21.9270   -4.6330   23.7460 C   0  0  0  0  0  3  0  0  0  0  0  0
  -22.1970   -5.3450   22.5650 C   0  0  0  0  0  0  0  0  0  0  0  0
  -22.6580   -4.6860   21.4740 F   0  0  0  0  0  0  0  0  0  0  0  0
  -21.1620   -4.6190   26.0090 F   0  0  0  0  0  0  0  0  0  0  0  0
  -23.6290  -13.9640   21.1230 C   0  0  0  0  0  0  0  0  0  0  0  0
  -22.9230  -13.3080   22.0370 N   0  0  0  0  0  0  0  0  0  0  0  0
  -23.2090  -15.0080   20.6240 O   0  0  0  0  0  0  0  0  0  0  0  0
  -23.2750  -12.4610   22.4610 H   0  0  0  0  0  0  0  0  0  0  0  0
  -22.0170  -13.6550   22.3170 H   0  0  0  0  0  0  0  0  0  0  0  0
  -26.3080  -15.5030   20.2140 N   0  0  0  0  0  0  0  0  0  0  0  0
  -25.5850  -16.1950   20.3740 H   0  0  0  0  0  0  0  0  0  0  0  0
  -27.1630  -15.9000   19.8470 H   0  0  0  0  0  0  0  0  0  0  0  0
  2  3  1  1
  2  1  1  0
  5  4  1  0
  5  2  1  0
  6  5  1  0
  7  6  1  0
  7  8  1  0
  9 11  1  0
  9  8  1  0
 10 21  2  0
 11 16  1  0
 12 20  1  0
 12 22  1  0
 13 15  1  0
 14 20  1  0
 15 16  2  0
 15 14  1  0
 17 11  2  0
 18 17  1  0
 18 13  2  0
 19 13  1  0
 19 12  1  0
 20 10  1  0
 22 24  2  0
 23 22  1  0
 25 23  1  0
 26 35  2  0
 26 31  1  0
 27 23  1  0
 27 31  1  0
 28 27  1  0
 29 30  1  0
 29 28  1  0
 30 26  1  0
 31 32  2  0
 32 33  1  0
 34 33  2  0
 35 34  1  0
 36 10  1  0
 36 37  1  0
 36 46  1  0
 37 40  1  0
 38 42  1  0
 38 37  1  0
 39 38  2  0
 42 41  1  0
 44 42  1  0
 44 45  1  0
 44 43  1  0
 46 49  1  1
 46 47  1  0
 48 46  1  0
 50 54  1  0
 50  2  1  0
 51 52  2  0
 51 54  1  0
 52 56  1  0
 53 55  1  0
 54 53  2  0
 55 57  1  0
 56 66  1  0
 56 55  2  0
 58 66  1  0
 59 64  1  0
 60 61  1  0
 60 59  1  0
 62 61  1  0
 62 71  1  0
 62 63  1  0
 64 58  1  0
 64 63  1  0
 65 58  2  0
 66 67  1  0
 68 69  2  0
 69 88  1  0
 70 69  1  0
 70 73  1  0
 71 72  1  0
 71 68  1  0
 72 70  2  0
 73 74  1  0
 74 75  2  0
 76 79  1  0
 76 75  1  0
 77 76  2  0
 78 77  1  0
 78 73  2  0
 79 80  1  0
 80 85  2  0
 80 81  1  0
 81 82  2  0
 82 83  1  0
 83 87  1  0
 84 83  2  0
 85 84  1  0
 86 85  1  0
 88 89  1  0
 89 92  1  0
 89 91  1  0
 90 88  2  0
 93 68  1  0
 93 94  1  0
 95 93  1  0
M  ISO  4   8 101   9 101  58 100  66 100
M  END
>  <TORSDO>  (76) 
F 22

>  <SCORE>  (76) 
-10.153

>  <name>  (76) 
75

>  <ligand_id>  (76) 
75

>  <original_smiles>  (76) 
[H]c1c([H])c([H])c2c(c1[H])C([H])([H])C([H])([H])C([H])([H])C2([H])N([H])C(=O)C1([H])N(C(=O)C([H])(N([H])C(=O)C([H])(N([H])C([H])([H])[H])C([H])([H])[H])C(C([H])([H])[H])(C([H])([H])[H])C([H])([H])[H])C([H])([H])c2c([H])c(OC([H])([H])C([H])([H])C([H])([H])C([H])(C([H])([H])[H])[N+]([H])(C([H])([H])[H])C([H])([H])c3c([H])c([H])c(N([H])C(=O)N4C([H])([H])C([H])([H])C([H])([H])C([H])(n5nc(-c6c([H])c([H])c(Oc7c([H])c([H])c(F)c([H])c7F)c([H])c6[H])c(C(=O)N([H])[H])c5N([H])[H])C4([H])[H])c(C([H])([H])[H])c3[H])c([H])c([H])c2C1([H])[H]

>  <smiles>  (76) 
[H]c1c([H])c([H])c2c(c1[H])C([H])([H])C([H])([H])C([H])([H])C2([H])N([H])C(=O)C1([H])N(C(=O)C([H])(N([H])C(=O)C([H])(N([H])C([H])([H])[H])C([H])([H])[H])C(C([H])([H])[H])(C([H])([H])[H])C([H])([H])[H])C([H])([H])c2c([H])c(OC([H])([H])C([H])([H])C([H])([H])C([H])(C([H])([H])[H])[N+]([H])(C([H])([H])[H])C([H])([H])c3c([H])c([H])c(N([H])C(=O)N4C([H])([H])C([H])([H])C([H])([H])C([H])(n5nc(-c6c([H])c([H])c(Oc7c([H])c([H])c(F)c([H])c7F)c([H])c6[H])c(C(=O)N([H])[H])c5N([H])[H])C4([H])[H])c(C([H])([H])[H])c3[H])c([H])c([H])c2C1([H])[H]

$$$$
76:0:0
     RDKit          3D

 92100  0  0  1  0  0  0  0  0999 V2000
  -30.0560  -18.6320   19.3280 C   0  0  0  0  0  3  0  0  0  0  0  0
  -30.3180  -20.0120   19.1690 C   0  0  0  0  0  3  0  0  0  0  0  0
  -29.8740  -18.9530   21.7220 C   0  0  0  0  0  3  0  0  0  0  0  0
  -29.8240  -18.0870   20.6090 C   0  0  0  0  0  0  0  0  0  0  0  0
  -30.1420  -20.3370   21.5740 C   0  0  0  0  0  0  0  0  0  0  0  0
  -30.3680  -20.8850   20.2790 C   0  0  0  0  0  0  0  0  0  0  0  0
  -30.1670  -21.1890   22.8340 C   0  0  0  0  0  1  0  0  0  0  0  0
  -31.8340  -22.7590   20.7440 C   0  0  0  0  0  1  0  0  0  0  0  0
  -30.6530  -22.2540   20.0470 N   0  0  0  0  0  0  0  0  0  0  0  0
  -29.4750  -23.1220   19.8900 C   0  0  0  0  0  2  0  0  0  0  0  0
  -29.7660  -24.6530   19.9230 C   0  0  0  0  0  2  0  0  0  0  0  0
  -28.5260  -25.5020   19.5590 C   0  0  0  0  0  2  0  0  0  0  0  0
  -28.6020  -26.8770   19.9900 O   0  0  0  0  0  0  0  0  0  0  0  0
  -24.5720  -31.7400   23.3150 C   0  0  0  0  0  0  0  0  0  0  0  0
  -27.4150  -27.5960   19.9830 C   0  0  0  0  0  0  0  0  0  0  0  0
  -23.4500  -30.4400   21.5380 C   0  0  0  0  0  3  0  0  0  0  0  0
  -24.9830  -29.0550   20.0430 C   0  0  0  0  0  0  0  0  0  0  0  0
  -25.9740  -30.8680   21.4450 C   0  0  0  0  0  2  0  0  0  0  0  0
  -26.1130  -29.5540   20.7030 C   0  0  0  0  0  0  0  0  0  0  0  0
  -27.3320  -28.8330   20.6680 C   0  0  0  0  0  3  0  0  0  0  0  0
  -26.2600  -27.1230   19.3140 C   0  0  0  0  0  3  0  0  0  0  0  0
  -25.0530  -27.8400   19.3460 C   0  0  0  0  0  3  0  0  0  0  0  0
  -23.7160  -29.8770   20.1180 C   0  0  0  0  0  2  0  0  0  0  0  0
  -24.6820  -31.0270   22.1590 N   0  0  0  0  0  0  0  0  0  0  0  0
  -23.4690  -31.9430   23.8410 O   0  0  0  0  0  0  0  0  0  0  0  0
  -22.8000  -29.3310   22.3970 C   0  0  0  0  0  0  0  0  0  0  0  0
  -21.4790  -29.1440   22.2350 N   0  0  0  0  0  0  0  0  0  0  0  0
  -23.4810  -28.6450   23.1640 O   0  0  0  0  0  0  0  0  0  0  0  0
  -20.9910  -29.7540   21.5950 H   0  0  0  0  0  0  0  0  0  0  0  0
  -18.1060  -27.9080   22.6190 C   0  0  0  0  0  0  0  0  0  0  0  0
  -20.6640  -28.1350   22.9090 C   0  0  0  0  0  3  0  0  0  0  0  0
  -20.7640  -26.7680   22.1920 C   0  0  0  0  0  2  0  0  0  0  0  0
  -19.6600  -26.5490   21.1540 C   0  0  0  0  0  2  0  0  0  0  0  0
  -18.2790  -26.6310   21.8120 C   0  0  0  0  0  2  0  0  0  0  0  0
  -19.2260  -28.6220   23.1200 C   0  0  0  0  0  0  0  0  0  0  0  0
  -19.0110  -29.8200   23.8350 C   0  0  0  0  0  3  0  0  0  0  0  0
  -17.7080  -30.3050   24.0510 C   0  0  0  0  0  3  0  0  0  0  0  0
  -16.6020  -29.5860   23.5670 C   0  0  0  0  0  3  0  0  0  0  0  0
  -16.8010  -28.3900   22.8560 C   0  0  0  0  0  3  0  0  0  0  0  0
  -25.8220  -32.3540   24.0200 C   0  0  0  0  0  3  0  0  0  0  0  0
  -25.5230  -33.7650   24.3000 N   0  0  0  0  0  0  0  0  0  0  0  0
  -25.8900  -34.7890   23.5180 C   0  0  0  0  0  0  0  0  0  0  0  0
  -26.5870  -34.6460   22.5100 O   0  0  0  0  0  0  0  0  0  0  0  0
  -24.9090  -33.9520   25.0800 H   0  0  0  0  0  0  0  0  0  0  0  0
  -24.1880  -36.5850   23.0700 C   0  0  0  0  0  1  0  0  0  0  0  0
  -25.4080  -36.1960   23.9200 C   0  0  0  0  0  3  0  0  0  0  0  0
  -27.5260  -37.0960   24.7760 C   0  0  0  0  0  1  0  0  0  0  0  0
  -26.4530  -37.2350   23.7940 N   0  0  0  0  0  0  0  0  0  0  0  0
  -26.0520  -38.1640   23.8920 H   0  0  0  0  0  0  0  0  0  0  0  0
  -26.2240  -31.5950   25.3440 C   0  0  1  0  0  0  0  0  0  0  0  0
  -25.0510  -31.4080   26.3350 C   0  0  0  0  0  1  0  0  0  0  0  0
  -26.7940  -30.1950   25.0170 C   0  0  0  0  0  1  0  0  0  0  0  0
  -27.3480  -32.3690   26.0710 C   0  0  0  0  0  1  0  0  0  0  0  0
  -29.4360  -16.6080   20.7820 C   0  0  0  0  0  2  0  0  0  0  0  0
  -30.9800  -14.7420   20.3440 C   0  0  0  0  0  0  0  0  0  0  0  0
  -30.6280  -12.5930   19.1680 C   0  0  0  0  0  2  0  0  0  0  0  0
  -29.6570  -12.7690   17.9840 C   0  0  0  0  0  2  0  0  0  0  0  0
  -28.1980  -12.6090   18.4490 C   0  0  0  0  0  2  0  0  0  0  0  0
  -27.8770  -13.4630   19.7040 C   0  0  0  0  0  3  0  0  0  0  0  0
  -28.9580  -13.2810   20.7940 C   0  0  0  0  0  2  0  0  0  0  0  0
  -30.2710  -13.5850   20.1960 N   0  0  0  0  0  0  0  0  0  0  0  0
  -32.0590  -14.9330   19.7740 O   0  0  0  0  0  0  0  0  0  0  0  0
  -31.3490  -16.1130   22.3050 C   0  0  0  0  0  1  0  0  0  0  0  0
  -30.4900  -15.6600   21.2090 N   0  0  0  0  0  0  0  0  0  0  0  0
  -25.5120  -14.0710   20.5110 C   0  0  0  0  0  0  0  0  0  0  0  0
  -24.4450  -13.2970   20.8780 C   0  0  0  0  0  0  0  0  0  0  0  0
  -24.8870  -11.9420   20.7780 C   0  0  0  0  0  0  0  0  0  0  0  0
  -26.5380  -13.1870   20.2130 N   0  0  0  0  0  0  0  0  0  0  0  0
  -26.1660  -11.9000   20.4300 N   0  0  0  0  0  0  0  0  0  0  0  0
  -24.1500  -10.6810   20.9360 C   0  0  0  0  0  0  0  0  0  0  0  0
  -24.5340   -9.7170   21.8930 C   0  0  0  0  0  3  0  0  0  0  0  0
  -23.8000   -8.5200   22.0380 C   0  0  0  0  0  3  0  0  0  0  0  0
  -22.6680   -8.2800   21.2240 C   0  0  0  0  0  0  0  0  0  0  0  0
  -22.3030   -9.2340   20.2570 C   0  0  0  0  0  3  0  0  0  0  0  0
  -23.0380  -10.4210   20.1100 C   0  0  0  0  0  3  0  0  0  0  0  0
  -21.9080   -7.1350   21.2770 O   0  0  0  0  0  0  0  0  0  0  0  0
  -21.6740   -6.4820   22.4600 C   0  0  0  0  0  0  0  0  0  0  0  0
  -21.0060   -7.1060   23.5360 C   0  0  0  0  0  3  0  0  0  0  0  0
  -20.7250   -6.3750   24.7080 C   0  0  0  0  0  3  0  0  0  0  0  0
  -21.1000   -5.0220   24.8010 C   0  0  0  0  0  0  0  0  0  0  0  0
  -21.7600   -4.3980   23.7290 C   0  0  0  0  0  3  0  0  0  0  0  0
  -22.0440   -5.1260   22.5600 C   0  0  0  0  0  0  0  0  0  0  0  0
  -22.6610   -4.5140   21.5210 F   0  0  0  0  0  0  0  0  0  0  0  0
  -20.8230   -4.3180   25.9240 F   0  0  0  0  0  0  0  0  0  0  0  0
  -23.0620  -13.7780   21.2120 C   0  0  0  0  0  0  0  0  0  0  0  0
  -22.3500  -13.0550   22.0690 N   0  0  0  0  0  0  0  0  0  0  0  0
  -22.6220  -14.8310   20.7500 O   0  0  0  0  0  0  0  0  0  0  0  0
  -22.7170  -12.2020   22.4640 H   0  0  0  0  0  0  0  0  0  0  0  0
  -21.4260  -13.3600   22.3370 H   0  0  0  0  0  0  0  0  0  0  0  0
  -25.6890  -15.4460   20.3840 N   0  0  0  0  0  0  0  0  0  0  0  0
  -24.9310  -16.1010   20.5380 H   0  0  0  0  0  0  0  0  0  0  0  0
  -26.5270  -15.8890   20.0320 H   0  0  0  0  0  0  0  0  0  0  0  0
  1  4  1  0
  2  1  2  0
  2  6  1  0
  4 54  1  0
  4  3  2  0
  5  3  1  0
  5  7  1  0
  6  5  2  0
  9  6  1  0
  9  8  1  0
 10 11  1  0
 10  9  1  0
 12 11  1  0
 12 13  1  0
 14 25  2  0
 15 13  1  0
 15 20  1  0
 16 24  1  0
 16 26  1  0
 17 23  1  0
 17 19  1  0
 18 24  1  0
 19 18  1  0
 20 19  2  0
 21 22  1  0
 21 15  2  0
 22 17  2  0
 23 16  1  0
 24 14  1  0
 26 28  2  0
 27 26  1  0
 29 27  1  0
 30 39  2  0
 30 35  1  0
 31 27  1  0
 31 35  1  0
 32 31  1  0
 33 34  1  0
 33 32  1  0
 34 30  1  0
 35 36  2  0
 36 37  1  0
 38 37  2  0
 39 38  1  0
 40 14  1  0
 40 41  1  0
 40 50  1  0
 41 44  1  0
 42 46  1  0
 42 41  1  0
 43 42  2  0
 46 45  1  0
 48 49  1  0
 48 46  1  0
 48 47  1  0
 50 53  1  1
 50 51  1  0
 52 50  1  0
 54 64  1  0
 55 64  1  0
 56 61  1  0
 57 58  1  0
 57 56  1  0
 59 58  1  0
 59 68  1  0
 59 60  1  0
 61 55  1  0
 61 60  1  0
 62 55  2  0
 64 63  1  0
 65 66  2  0
 66 85  1  0
 67 66  1  0
 67 70  1  0
 68 69  1  0
 68 65  1  0
 69 67  2  0
 70 71  1  0
 71 72  2  0
 73 76  1  0
 73 72  1  0
 74 73  2  0
 75 74  1  0
 75 70  2  0
 76 77  1  0
 77 82  2  0
 77 78  1  0
 78 79  2  0
 79 80  1  0
 80 84  1  0
 81 80  2  0
 82 81  1  0
 83 82  1  0
 85 86  1  0
 86 89  1  0
 86 88  1  0
 87 85  2  0
 90 65  1  0
 90 91  1  0
 92 90  1  0
M  ISO  4  12 101  13 101  55 100  64 100
M  END
>  <TORSDO>  (77) 
F 21

>  <SCORE>  (77) 
-12.247

>  <name>  (77) 
76

>  <ligand_id>  (77) 
76

>  <original_smiles>  (77) 
[H]c1c([H])c([H])c2c(c1[H])C([H])([H])C([H])([H])C([H])([H])C2([H])N([H])C(=O)C1([H])N(C(=O)C([H])(N([H])C(=O)C([H])(N([H])C([H])([H])[H])C([H])([H])[H])C(C([H])([H])[H])(C([H])([H])[H])C([H])([H])[H])C([H])([H])c2c([H])c(OC([H])([H])C([H])([H])C([H])([H])N(c3c([H])c([H])c(C([H])([H])N(C(=O)N4C([H])([H])C([H])([H])C([H])([H])C([H])(n5nc(-c6c([H])c([H])c(Oc7c([H])c([H])c(F)c([H])c7F)c([H])c6[H])c(C(=O)N([H])[H])c5N([H])[H])C4([H])[H])C([H])([H])[H])c([H])c3C([H])([H])[H])C([H])([H])[H])c([H])c([H])c2C1([H])[H]

>  <smiles>  (77) 
[H]c1c([H])c([H])c2c(c1[H])C([H])([H])C([H])([H])C([H])([H])C2([H])N([H])C(=O)C1([H])N(C(=O)C([H])(N([H])C(=O)C([H])(N([H])C([H])([H])[H])C([H])([H])[H])C(C([H])([H])[H])(C([H])([H])[H])C([H])([H])[H])C([H])([H])c2c([H])c(OC([H])([H])C([H])([H])C([H])([H])N(c3c([H])c([H])c(C([H])([H])N(C(=O)N4C([H])([H])C([H])([H])C([H])([H])C([H])(n5nc(-c6c([H])c([H])c(Oc7c([H])c([H])c(F)c([H])c7F)c([H])c6[H])c(C(=O)N([H])[H])c5N([H])[H])C4([H])[H])C([H])([H])[H])c([H])c3C([H])([H])[H])C([H])([H])[H])c([H])c([H])c2C1([H])[H]

$$$$
77:0:0
     RDKit          3D

 95103  0  0  1  0  0  0  0  0999 V2000
  -28.9420  -21.7150   20.4690 N   0  0  2  0  0  4  0  0  0  0  0  0
  -29.8840  -22.0140   20.2530 H   0  0  0  0  0  0  0  0  0  0  0  0
  -26.8430  -20.9390   19.2270 C   0  0  0  0  0  1  0  0  0  0  0  0
  -28.3570  -21.2430   19.1800 C   0  0  0  0  0  2  0  0  0  0  0  0
  -29.0860  -20.6150   21.4760 C   0  0  0  0  0  2  0  0  0  0  0  0
  -32.4090  -18.7470   21.0370 C   0  0  0  0  0  3  0  0  0  0  0  0
  -31.4640  -19.7650   21.2490 C   0  0  0  0  0  3  0  0  0  0  0  0
  -31.9880  -17.4450   20.7020 C   0  0  0  0  0  3  0  0  0  0  0  0
  -29.6730  -18.1760   20.7760 C   0  0  0  0  0  3  0  0  0  0  0  0
  -30.0860  -19.4930   21.1340 C   0  0  0  0  0  0  0  0  0  0  0  0
  -30.6130  -17.1330   20.5120 C   0  0  0  0  0  0  0  0  0  0  0  0
  -30.8290  -14.6850   19.9970 C   0  0  0  0  0  0  0  0  0  0  0  0
  -30.4170  -12.4380   19.0580 C   0  0  0  0  0  2  0  0  0  0  0  0
  -29.4260  -12.5390   17.8830 C   0  0  0  0  0  2  0  0  0  0  0  0
  -27.9800  -12.4220   18.4030 C   0  0  0  0  0  2  0  0  0  0  0  0
  -27.6830  -13.3180   19.6360 C   0  0  0  0  0  3  0  0  0  0  0  0
  -28.8170  -13.2710   20.6850 C   0  0  0  0  0  2  0  0  0  0  0  0
  -30.0910  -13.5290   19.9950 N   0  0  0  0  0  0  0  0  0  0  0  0
  -32.0190  -14.6570   19.6750 O   0  0  0  0  0  0  0  0  0  0  0  0
  -29.6330  -16.1550   18.5420 C   0  0  0  0  0  1  0  0  0  0  0  0
  -30.1640  -15.8860   19.8960 N   0  0  0  0  0  0  0  0  0  0  0  0
  -25.3480  -13.9250   20.5040 C   0  0  0  0  0  0  0  0  0  0  0  0
  -24.2890  -13.1550   20.8920 C   0  0  0  0  0  0  0  0  0  0  0  0
  -24.7310  -11.7990   20.8030 C   0  0  0  0  0  0  0  0  0  0  0  0
  -26.3680  -13.0380   20.2010 N   0  0  0  0  0  0  0  0  0  0  0  0
  -26.0070  -11.7510   20.4410 N   0  0  0  0  0  0  0  0  0  0  0  0
  -23.9990  -10.5400   20.9850 C   0  0  0  0  0  0  0  0  0  0  0  0
  -24.4430   -9.5590   21.9000 C   0  0  0  0  0  3  0  0  0  0  0  0
  -23.7140   -8.3650   22.0790 C   0  0  0  0  0  3  0  0  0  0  0  0
  -22.5260   -8.1450   21.3420 C   0  0  0  0  0  0  0  0  0  0  0  0
  -22.1010   -9.1130   20.4160 C   0  0  0  0  0  3  0  0  0  0  0  0
  -22.8300  -10.3000   20.2360 C   0  0  0  0  0  3  0  0  0  0  0  0
  -21.7630   -7.0070   21.4310 O   0  0  0  0  0  0  0  0  0  0  0  0
  -21.7040   -6.2720   22.5860 C   0  0  0  0  0  0  0  0  0  0  0  0
  -21.2560   -6.8310   23.8030 C   0  0  0  0  0  3  0  0  0  0  0  0
  -21.1430   -6.0220   24.9500 C   0  0  0  0  0  3  0  0  0  0  0  0
  -21.4750   -4.6550   24.8830 C   0  0  0  0  0  0  0  0  0  0  0  0
  -21.9200   -4.0960   23.6720 C   0  0  0  0  0  3  0  0  0  0  0  0
  -22.0350   -4.9030   22.5260 C   0  0  0  0  0  0  0  0  0  0  0  0
  -22.4450   -4.3570   21.3570 F   0  0  0  0  0  0  0  0  0  0  0  0
  -21.3590   -3.8750   25.9810 F   0  0  0  0  0  0  0  0  0  0  0  0
  -22.9120  -13.6400   21.2420 C   0  0  0  0  0  0  0  0  0  0  0  0
  -22.2200  -12.9260   22.1200 N   0  0  0  0  0  0  0  0  0  0  0  0
  -22.4630  -14.6890   20.7780 O   0  0  0  0  0  0  0  0  0  0  0  0
  -22.6060  -12.0760   22.5090 H   0  0  0  0  0  0  0  0  0  0  0  0
  -21.2970  -13.2250   22.4040 H   0  0  0  0  0  0  0  0  0  0  0  0
  -25.5130  -15.3030   20.3620 N   0  0  0  0  0  0  0  0  0  0  0  0
  -24.7460  -15.9440   20.5320 H   0  0  0  0  0  0  0  0  0  0  0  0
  -26.3450  -15.7700   20.0270 H   0  0  0  0  0  0  0  0  0  0  0  0
  -28.3480  -22.9770   21.0310 C   0  0  0  0  0  2  0  0  0  0  0  0
  -28.6220  -24.2790   20.2020 C   0  0  0  0  0  3  0  0  0  0  0  0
  -29.9930  -24.2760   19.8270 O   0  0  0  0  0  0  0  0  0  0  0  0
  -30.1900  -25.1590   19.5140 H   0  0  0  0  0  0  0  0  0  0  0  0
  -28.3930  -25.5930   21.0100 C   0  0  0  0  0  2  0  0  0  0  0  0
  -28.4140  -26.7910   20.2030 O   0  0  0  0  0  0  0  0  0  0  0  0
  -24.5270  -31.9560   23.2430 C   0  0  0  0  0  0  0  0  0  0  0  0
  -27.2530  -27.5370   20.2030 C   0  0  0  0  0  0  0  0  0  0  0  0
  -23.3630  -30.5510   21.5810 C   0  0  0  0  0  3  0  0  0  0  0  0
  -24.8490  -29.0280   20.1670 C   0  0  0  0  0  0  0  0  0  0  0  0
  -25.8910  -30.9270   21.4230 C   0  0  0  0  0  2  0  0  0  0  0  0
  -25.9940  -29.5590   20.7780 C   0  0  0  0  0  0  0  0  0  0  0  0
  -27.2040  -28.8240   20.7830 C   0  0  0  0  0  3  0  0  0  0  0  0
  -26.0940  -27.0170   19.5890 C   0  0  0  0  0  3  0  0  0  0  0  0
  -24.8930  -27.7550   19.5680 C   0  0  0  0  0  3  0  0  0  0  0  0
  -23.5990  -29.8800   20.2020 C   0  0  0  0  0  2  0  0  0  0  0  0
  -24.6110  -31.1620   22.1410 N   0  0  0  0  0  0  0  0  0  0  0  0
  -23.4340  -32.2240   23.7630 O   0  0  0  0  0  0  0  0  0  0  0  0
  -22.7030  -29.5230   22.5270 C   0  0  0  0  0  0  0  0  0  0  0  0
  -21.3750  -29.3530   22.3970 N   0  0  0  0  0  0  0  0  0  0  0  0
  -23.3820  -28.8820   23.3310 O   0  0  0  0  0  0  0  0  0  0  0  0
  -20.8890  -29.9290   21.7230 H   0  0  0  0  0  0  0  0  0  0  0  0
  -17.9910  -28.1910   22.8970 C   0  0  0  0  0  0  0  0  0  0  0  0
  -20.5540  -28.4080   23.1500 C   0  0  0  0  0  3  0  0  0  0  0  0
  -20.6320  -26.9870   22.5420 C   0  0  0  0  0  2  0  0  0  0  0  0
  -19.5150  -26.7040   21.5340 C   0  0  0  0  0  2  0  0  0  0  0  0
  -18.1430  -26.8550   22.1950 C   0  0  0  0  0  2  0  0  0  0  0  0
  -19.1230  -28.9270   23.3350 C   0  0  0  0  0  0  0  0  0  0  0  0
  -18.9270  -30.1790   23.9570 C   0  0  0  0  0  3  0  0  0  0  0  0
  -17.6320  -30.6900   24.1480 C   0  0  0  0  0  3  0  0  0  0  0  0
  -16.5140  -29.9530   23.7220 C   0  0  0  0  0  3  0  0  0  0  0  0
  -16.6930  -28.7040   23.1010 C   0  0  0  0  0  3  0  0  0  0  0  0
  -25.8030  -32.5930   23.8870 C   0  0  0  0  0  3  0  0  0  0  0  0
  -25.4900  -33.9930   24.1970 N   0  0  0  0  0  0  0  0  0  0  0  0
  -25.8410  -35.0390   23.4370 C   0  0  0  0  0  0  0  0  0  0  0  0
  -26.5360  -34.9260   22.4220 O   0  0  0  0  0  0  0  0  0  0  0  0
  -24.8650  -34.1520   24.9760 H   0  0  0  0  0  0  0  0  0  0  0  0
  -24.1270  -36.8250   23.0240 C   0  0  0  0  0  1  0  0  0  0  0  0
  -25.3460  -36.4300   23.8700 C   0  0  0  0  0  3  0  0  0  0  0  0
  -27.4600  -37.3160   24.7500 C   0  0  0  0  0  1  0  0  0  0  0  0
  -26.3850  -37.4780   23.7740 N   0  0  0  0  0  0  0  0  0  0  0  0
  -25.9760  -38.4000   23.8970 H   0  0  0  0  0  0  0  0  0  0  0  0
  -26.2930  -31.8300   25.1780 C   0  0  1  0  0  0  0  0  0  0  0  0
  -25.1710  -31.5910   26.2150 C   0  0  0  0  0  1  0  0  0  0  0  0
  -26.9020  -30.4570   24.8090 C   0  0  0  0  0  1  0  0  0  0  0  0
  -27.4230  -32.6380   25.8590 C   0  0  0  0  0  1  0  0  0  0  0  0
  1 50  1  0
  1  5  1  0
  1  2  1  6
  4  3  1  0
  4  1  1  0
  6  7  1  0
  8  6  2  0
  9 10  1  0
 10  7  2  0
 10  5  1  0
 11  8  1  0
 11  9  2  0
 13 18  1  0
 14 15  1  0
 14 13  1  0
 16 15  1  0
 16 25  1  0
 16 17  1  0
 18 12  1  0
 18 17  1  0
 19 12  2  0
 20 21  1  0
 21 12  1  0
 21 11  1  0
 22 23  2  0
 23 42  1  0
 24 23  1  0
 24 27  1  0
 25 26  1  0
 25 22  1  0
 26 24  2  0
 27 28  1  0
 28 29  2  0
 30 33  1  0
 30 29  1  0
 31 30  2  0
 32 31  1  0
 32 27  2  0
 33 34  1  0
 34 35  1  0
 35 36  2  0
 37 36  1  0
 37 41  1  0
 38 37  2  0
 39 34  2  0
 39 38  1  0
 40 39  1  0
 42 43  1  0
 43 46  1  0
 43 45  1  0
 44 42  2  0
 47 22  1  0
 47 48  1  0
 49 47  1  0
 51 54  1  0
 51 50  1  0
 52 51  1  0
 53 52  1  0
 55 57  1  0
 55 54  1  0
 56 67  2  0
 57 62  1  0
 58 66  1  0
 58 68  1  0
 59 65  1  0
 59 61  1  0
 60 66  1  0
 61 62  2  0
 61 60  1  0
 63 57  2  0
 64 63  1  0
 64 59  2  0
 65 58  1  0
 66 56  1  0
 68 70  2  0
 69 68  1  0
 71 69  1  0
 72 81  2  0
 72 77  1  0
 73 69  1  0
 73 77  1  0
 74 73  1  0
 75 76  1  0
 75 74  1  0
 76 72  1  0
 77 78  2  0
 78 79  1  0
 80 79  2  0
 81 80  1  0
 82 56  1  0
 82 83  1  0
 82 92  1  0
 83 86  1  0
 84 88  1  0
 84 83  1  0
 85 84  2  0
 88 87  1  0
 90 88  1  0
 90 91  1  0
 90 89  1  0
 92 95  1  1
 92 93  1  0
 94 92  1  0
M  ISO  4  12 100  21 100  54 101  55 101
M  END
>  <TORSDO>  (78) 
F 23

>  <SCORE>  (78) 
-12.560

>  <name>  (78) 
77

>  <ligand_id>  (78) 
77

>  <original_smiles>  (78) 
[H]OC([H])(C([H])([H])Oc1c([H])c([H])c2c(c1[H])C([H])([H])N(C(=O)C([H])(N([H])C(=O)C([H])(N([H])C([H])([H])[H])C([H])([H])[H])C(C([H])([H])[H])(C([H])([H])[H])C([H])([H])[H])C([H])(C(=O)N([H])C1([H])c3c([H])c([H])c([H])c([H])c3C([H])([H])C([H])([H])C1([H])[H])C2([H])[H])C([H])([H])[N+]([H])(C([H])([H])c1c([H])c([H])c([H])c(N(C(=O)N2C([H])([H])C([H])([H])C([H])([H])C([H])(n3nc(-c4c([H])c([H])c(Oc5c([H])c([H])c(F)c([H])c5F)c([H])c4[H])c(C(=O)N([H])[H])c3N([H])[H])C2([H])[H])C([H])([H])[H])c1[H])C([H])([H])C([H])([H])[H]

>  <smiles>  (78) 
[H]OC([H])(C([H])([H])Oc1c([H])c([H])c2c(c1[H])C([H])([H])N(C(=O)C([H])(N([H])C(=O)C([H])(N([H])C([H])([H])[H])C([H])([H])[H])C(C([H])([H])[H])(C([H])([H])[H])C([H])([H])[H])C([H])(C(=O)N([H])C1([H])c3c([H])c([H])c([H])c([H])c3C([H])([H])C([H])([H])C1([H])[H])C2([H])[H])C([H])([H])[N+]([H])(C([H])([H])c1c([H])c([H])c([H])c(N(C(=O)N2C([H])([H])C([H])([H])C([H])([H])C([H])(n3nc(-c4c([H])c([H])c(Oc5c([H])c([H])c(F)c([H])c5F)c([H])c4[H])c(C(=O)N([H])[H])c3N([H])[H])C2([H])[H])C([H])([H])[H])c1[H])C([H])([H])C([H])([H])[H]

$$$$
78:0:0
     RDKit          3D

 94103  0  0  1  0  0  0  0  0999 V2000
  -30.7900  -18.4840   19.1180 C   0  0  0  0  0  3  0  0  0  0  0  0
  -28.9620  -20.1300   20.4640 C   0  0  0  0  0  3  0  0  0  0  0  0
  -30.9670  -19.8890   19.1130 C   0  0  0  0  0  0  0  0  0  0  0  0
  -29.7010  -17.8870   19.7910 C   0  0  0  0  0  0  0  0  0  0  0  0
  -30.0500  -20.7360   19.7910 C   0  0  0  0  0  0  0  0  0  0  0  0
  -28.7900  -18.7280   20.4690 C   0  0  0  0  0  0  0  0  0  0  0  0
  -32.1650  -20.4680   18.3770 C   0  0  0  0  0  1  0  0  0  0  0  0
  -27.7330  -18.1920   21.1280 F   0  0  0  0  0  0  0  0  0  0  0  0
  -29.6050  -24.0980   21.0490 C   0  0  0  0  0  2  0  0  0  0  0  0
  -30.4650  -22.8240   21.0710 C   0  0  0  0  0  2  0  0  0  0  0  0
  -29.3190  -22.9510   18.9940 C   0  0  0  0  0  2  0  0  0  0  0  0
  -29.3940  -24.3880   19.5620 C   0  0  0  0  0  3  0  0  0  0  0  0
  -30.2370  -22.1410   19.7970 N   0  0  0  0  0  0  0  0  0  0  0  0
  -28.1570  -25.2640   19.2350 C   0  0  0  0  0  2  0  0  0  0  0  0
  -28.2700  -26.6630   19.5850 O   0  0  0  0  0  0  0  0  0  0  0  0
  -24.4820  -31.6780   22.9850 C   0  0  0  0  0  0  0  0  0  0  0  0
  -27.0930  -27.4010   19.6190 C   0  0  0  0  0  0  0  0  0  0  0  0
  -23.2480  -30.3280   21.3230 C   0  0  0  0  0  3  0  0  0  0  0  0
  -24.6780  -28.8880   19.7810 C   0  0  0  0  0  0  0  0  0  0  0  0
  -25.7650  -30.7340   21.0650 C   0  0  0  0  0  2  0  0  0  0  0  0
  -25.8500  -29.3950   20.3540 C   0  0  0  0  0  0  0  0  0  0  0  0
  -27.0600  -28.6600   20.2710 C   0  0  0  0  0  3  0  0  0  0  0  0
  -25.8940  -26.9260   19.0310 C   0  0  0  0  0  3  0  0  0  0  0  0
  -24.6970  -27.6540   19.1170 C   0  0  0  0  0  3  0  0  0  0  0  0
  -23.4230  -29.7210   19.9090 C   0  0  0  0  0  2  0  0  0  0  0  0
  -24.5180  -30.9260   21.8480 N   0  0  0  0  0  0  0  0  0  0  0  0
  -23.4140  -31.9060   23.5690 O   0  0  0  0  0  0  0  0  0  0  0  0
  -22.6470  -29.2510   22.2550 C   0  0  0  0  0  0  0  0  0  0  0  0
  -21.3190  -29.0620   22.1770 N   0  0  0  0  0  0  0  0  0  0  0  0
  -23.3700  -28.5910   23.0060 O   0  0  0  0  0  0  0  0  0  0  0  0
  -20.7950  -29.6490   21.5430 H   0  0  0  0  0  0  0  0  0  0  0  0
  -17.9790  -27.8100   22.7600 C   0  0  0  0  0  0  0  0  0  0  0  0
  -20.5440  -28.0790   22.9330 C   0  0  0  0  0  3  0  0  0  0  0  0
  -20.6310  -26.6800   22.2810 C   0  0  0  0  0  2  0  0  0  0  0  0
  -19.4890  -26.3980   21.3000 C   0  0  0  0  0  2  0  0  0  0  0  0
  -18.1350  -26.4990   22.0100 C   0  0  0  0  0  2  0  0  0  0  0  0
  -19.1100  -28.5610   23.1790 C   0  0  0  0  0  0  0  0  0  0  0  0
  -18.9080  -29.7910   23.8410 C   0  0  0  0  0  3  0  0  0  0  0  0
  -17.6080  -30.2730   24.0870 C   0  0  0  0  0  3  0  0  0  0  0  0
  -16.4930  -29.5180   23.6840 C   0  0  0  0  0  3  0  0  0  0  0  0
  -16.6790  -28.2880   23.0260 C   0  0  0  0  0  3  0  0  0  0  0  0
  -25.7760  -32.3060   23.5890 C   0  0  0  0  0  3  0  0  0  0  0  0
  -26.3730  -31.4720   24.7890 C   0  0  1  0  0  0  0  0  0  0  0  0
  -25.3390  -31.1370   25.8890 C   0  0  0  0  0  1  0  0  0  0  0  0
  -26.9710  -30.1370   24.2850 C   0  0  0  0  0  1  0  0  0  0  0  0
  -27.5340  -32.2560   25.4460 C   0  0  0  0  0  1  0  0  0  0  0  0
  -25.4440  -33.6700   24.0200 N   0  0  0  0  0  0  0  0  0  0  0  0
  -25.7440  -34.7810   23.3330 C   0  0  0  0  0  0  0  0  0  0  0  0
  -26.4030  -34.7640   22.2880 O   0  0  0  0  0  0  0  0  0  0  0  0
  -24.8540  -33.7570   24.8360 H   0  0  0  0  0  0  0  0  0  0  0  0
  -23.9740  -36.5560   23.1270 C   0  0  0  0  0  1  0  0  0  0  0  0
  -25.2340  -36.1220   23.8920 C   0  0  0  0  0  3  0  0  0  0  0  0
  -27.3480  -37.0040   24.7750 C   0  0  0  0  0  1  0  0  0  0  0  0
  -26.2430  -37.2030   23.8420 N   0  0  0  0  0  0  0  0  0  0  0  0
  -25.8170  -38.1030   24.0440 H   0  0  0  0  0  0  0  0  0  0  0  0
  -29.4780  -16.3630   19.7300 C   0  0  0  0  0  2  0  0  0  0  0  0
  -30.9980  -14.4390   19.4750 C   0  0  0  0  0  0  0  0  0  0  0  0
  -30.5170  -12.1930   18.5570 C   0  0  0  0  0  2  0  0  0  0  0  0
  -29.4670  -12.2770   17.4320 C   0  0  0  0  0  2  0  0  0  0  0  0
  -28.0440  -12.2040   18.0140 C   0  0  0  0  0  2  0  0  0  0  0  0
  -27.8320  -13.1850   19.1960 C   0  0  0  0  0  3  0  0  0  0  0  0
  -28.9870  -13.0850   20.2190 C   0  0  0  0  0  2  0  0  0  0  0  0
  -30.2560  -13.2930   19.5010 N   0  0  0  0  0  0  0  0  0  0  0  0
  -32.0530  -14.5250   18.8390 O   0  0  0  0  0  0  0  0  0  0  0  0
  -31.5180  -16.1340   21.1260 C   0  0  0  0  0  1  0  0  0  0  0  0
  -30.5650  -15.4850   20.2200 N   0  0  0  0  0  0  0  0  0  0  0  0
  -25.5990  -13.9480   20.2180 C   0  0  0  0  0  0  0  0  0  0  0  0
  -24.5180  -13.2440   20.6790 C   0  0  0  0  0  0  0  0  0  0  0  0
  -24.8550  -11.8640   20.5340 C   0  0  0  0  0  0  0  0  0  0  0  0
  -26.5280  -12.9970   19.8250 N   0  0  0  0  0  0  0  0  0  0  0  0
  -26.0920  -11.7360   20.0720 N   0  0  0  0  0  0  0  0  0  0  0  0
  -24.0500  -10.6560   20.7540 C   0  0  0  0  0  0  0  0  0  0  0  0
  -24.4590   -9.6520   21.6580 C   0  0  0  0  0  3  0  0  0  0  0  0
  -23.6590   -8.5070   21.8660 C   0  0  0  0  0  3  0  0  0  0  0  0
  -22.4370   -8.3590   21.1680 C   0  0  0  0  0  0  0  0  0  0  0  0
  -22.0470   -9.3520   20.2500 C   0  0  0  0  0  3  0  0  0  0  0  0
  -22.8460  -10.4870   20.0420 C   0  0  0  0  0  3  0  0  0  0  0  0
  -21.6070   -7.2700   21.2870 O   0  0  0  0  0  0  0  0  0  0  0  0
  -21.5310   -6.5490   22.4510 C   0  0  0  0  0  0  0  0  0  0  0  0
  -21.1030   -7.1330   23.6640 C   0  0  0  0  0  3  0  0  0  0  0  0
  -20.9720   -6.3380   24.8210 C   0  0  0  0  0  3  0  0  0  0  0  0
  -21.2590   -4.9620   24.7660 C   0  0  0  0  0  0  0  0  0  0  0  0
  -21.6790   -4.3770   23.5580 C   0  0  0  0  0  3  0  0  0  0  0  0
  -21.8120   -5.1680   22.4040 C   0  0  0  0  0  0  0  0  0  0  0  0
  -22.1970   -4.5970   21.2370 F   0  0  0  0  0  0  0  0  0  0  0  0
  -21.1250   -4.1960   25.8740 F   0  0  0  0  0  0  0  0  0  0  0  0
  -23.2080  -13.8180   21.1360 C   0  0  0  0  0  0  0  0  0  0  0  0
  -22.5350  -13.1450   22.0630 N   0  0  0  0  0  0  0  0  0  0  0  0
  -22.7960  -14.8940   20.7060 O   0  0  0  0  0  0  0  0  0  0  0  0
  -22.8830  -12.2720   22.4310 H   0  0  0  0  0  0  0  0  0  0  0  0
  -21.6600  -13.5100   22.4120 H   0  0  0  0  0  0  0  0  0  0  0  0
  -25.8570  -15.3080   20.0780 N   0  0  0  0  0  0  0  0  0  0  0  0
  -25.1670  -16.0130   20.3130 H   0  0  0  0  0  0  0  0  0  0  0  0
  -26.6890  -15.6960   19.6580 H   0  0  0  0  0  0  0  0  0  0  0  0
  1  4  1  0
  2  6  1  0
  3  1  2  0
  3  5  1  0
  4  6  2  0
  5 13  1  0
  5  2  2  0
  6  8  1  0
  7  3  1  0
  9 10  1  0
 11 12  1  0
 11 13  1  0
 12 14  1  0
 12  9  1  0
 13 10  1  0
 14 15  1  0
 15 17  1  0
 16 27  2  0
 17 22  1  0
 18 26  1  0
 18 28  1  0
 19 25  1  0
 19 21  1  0
 20 26  1  0
 21 20  1  0
 22 21  2  0
 23 24  1  0
 23 17  2  0
 24 19  2  0
 25 18  1  0
 26 16  1  0
 28 30  2  0
 29 28  1  0
 31 29  1  0
 32 41  2  0
 32 37  1  0
 33 29  1  0
 33 37  1  0
 34 33  1  0
 35 36  1  0
 35 34  1  0
 36 32  1  0
 37 38  2  0
 38 39  1  0
 40 39  2  0
 41 40  1  0
 42 16  1  0
 42 47  1  0
 42 43  1  0
 43 46  1  1
 43 44  1  0
 45 43  1  0
 47 50  1  0
 48 52  1  0
 48 47  1  0
 49 48  2  0
 52 51  1  0
 54 52  1  0
 54 55  1  0
 54 53  1  0
 56  4  1  0
 56 66  1  0
 57 63  1  0
 57 66  1  0
 58 63  1  0
 59 60  1  0
 59 58  1  0
 61 60  1  0
 61 70  1  0
 61 62  1  0
 63 62  1  0
 64 57  2  0
 66 65  1  0
 67 68  2  0
 68 87  1  0
 69 68  1  0
 69 72  1  0
 70 71  1  0
 70 67  1  0
 71 69  2  0
 72 73  1  0
 73 74  2  0
 75 78  1  0
 75 74  1  0
 76 75  2  0
 77 76  1  0
 77 72  2  0
 78 79  1  0
 79 80  1  0
 80 81  2  0
 82 81  1  0
 82 86  1  0
 83 82  2  0
 84 79  2  0
 84 83  1  0
 85 84  1  0
 87 88  1  0
 88 91  1  0
 88 90  1  0
 89 87  2  0
 92 67  1  0
 92 93  1  0
 94 92  1  0
M  ISO  4  14 101  15 101  57 100  66 100
M  END
>  <TORSDO>  (79) 
F 19

>  <SCORE>  (79) 
-13.202

>  <name>  (79) 
78

>  <ligand_id>  (79) 
78

>  <original_smiles>  (79) 
[H]c1c([H])c([H])c2c(c1[H])C([H])([H])C([H])([H])C([H])([H])C2([H])N([H])C(=O)C1([H])N(C(=O)C([H])(N([H])C(=O)C([H])(N([H])C([H])([H])[H])C([H])([H])[H])C(C([H])([H])[H])(C([H])([H])[H])C([H])([H])[H])C([H])([H])c2c([H])c(OC([H])([H])C3([H])C([H])([H])N(c4c([H])c(F)c(C([H])([H])N(C(=O)N5C([H])([H])C([H])([H])C([H])([H])C([H])(n6nc(-c7c([H])c([H])c(Oc8c([H])c([H])c(F)c([H])c8F)c([H])c7[H])c(C(=O)N([H])[H])c6N([H])[H])C5([H])[H])C([H])([H])[H])c([H])c4C([H])([H])[H])C([H])([H])C3([H])[H])c([H])c([H])c2C1([H])[H]

>  <smiles>  (79) 
[H]c1c([H])c([H])c2c(c1[H])C([H])([H])C([H])([H])C([H])([H])C2([H])N([H])C(=O)C1([H])N(C(=O)C([H])(N([H])C(=O)C([H])(N([H])C([H])([H])[H])C([H])([H])[H])C(C([H])([H])[H])(C([H])([H])[H])C([H])([H])[H])C([H])([H])c2c([H])c(OC([H])([H])C3([H])C([H])([H])N(c4c([H])c(F)c(C([H])([H])N(C(=O)N5C([H])([H])C([H])([H])C([H])([H])C([H])(n6nc(-c7c([H])c([H])c(Oc8c([H])c([H])c(F)c([H])c8F)c([H])c7[H])c(C(=O)N([H])[H])c6N([H])[H])C5([H])[H])C([H])([H])[H])c([H])c4C([H])([H])[H])C([H])([H])C3([H])[H])c([H])c([H])c2C1([H])[H]

$$$$
79:0:0
     RDKit          3D

100109  0  0  1  0  0  0  0  0999 V2000
  -30.8220  -17.3060   22.5400 C   0  0  0  0  0  3  0  0  0  0  0  0
  -31.1260  -18.5900   23.0200 C   0  0  0  0  0  3  0  0  0  0  0  0
  -30.4810  -18.2260   20.2820 C   0  0  0  0  0  0  0  0  0  0  0  0
  -30.7380  -19.5470   20.7940 C   0  0  0  0  0  0  0  0  0  0  0  0
  -30.5120  -17.1010   21.1790 C   0  0  0  0  0  0  0  0  0  0  0  0
  -31.0860  -19.6950   22.1570 C   0  0  0  0  0  0  0  0  0  0  0  0
  -31.3840  -20.9230   22.6450 F   0  0  0  0  0  0  0  0  0  0  0  0
  -30.9390  -14.7360   20.4230 C   0  0  0  0  0  0  0  0  0  0  0  0
  -30.6260  -12.6630   19.1170 C   0  0  0  0  0  2  0  0  0  0  0  0
  -29.6710  -12.9880   17.9480 C   0  0  0  0  0  2  0  0  0  0  0  0
  -28.1960  -12.8480   18.3810 C   0  0  0  0  0  2  0  0  0  0  0  0
  -27.8900  -13.5640   19.7240 C   0  0  0  0  0  3  0  0  0  0  0  0
  -28.9570  -13.2300   20.7890 C   0  0  0  0  0  2  0  0  0  0  0  0
  -30.2740  -13.5630   20.2250 N   0  0  0  0  0  0  0  0  0  0  0  0
  -32.1010  -14.9180   20.0500 O   0  0  0  0  0  0  0  0  0  0  0  0
  -30.1430  -15.7660   20.7990 N   0  0  0  0  0  0  0  0  0  0  0  0
  -29.1920  -15.4930   20.9980 H   0  0  0  0  0  0  0  0  0  0  0  0
  -25.4950  -14.1560   20.4490 C   0  0  0  0  0  0  0  0  0  0  0  0
  -24.4230  -13.3780   20.7890 C   0  0  0  0  0  0  0  0  0  0  0  0
  -24.8860  -12.0290   20.7380 C   0  0  0  0  0  0  0  0  0  0  0  0
  -26.5390  -13.2780   20.1980 N   0  0  0  0  0  0  0  0  0  0  0  0
  -26.1760  -11.9930   20.4310 N   0  0  0  0  0  0  0  0  0  0  0  0
  -24.1580  -10.7670   20.9090 C   0  0  0  0  0  0  0  0  0  0  0  0
  -24.5520   -9.8120   21.8720 C   0  0  0  0  0  3  0  0  0  0  0  0
  -23.8250   -8.6120   22.0290 C   0  0  0  0  0  3  0  0  0  0  0  0
  -22.6890   -8.3620   21.2220 C   0  0  0  0  0  0  0  0  0  0  0  0
  -22.3130   -9.3070   20.2520 C   0  0  0  0  0  3  0  0  0  0  0  0
  -23.0420  -10.4970   20.0940 C   0  0  0  0  0  3  0  0  0  0  0  0
  -21.9350   -7.2150   21.2870 O   0  0  0  0  0  0  0  0  0  0  0  0
  -21.7810   -6.5220   22.4600 C   0  0  0  0  0  0  0  0  0  0  0  0
  -21.2560   -7.1300   23.6220 C   0  0  0  0  0  3  0  0  0  0  0  0
  -21.0490   -6.3640   24.7860 C   0  0  0  0  0  3  0  0  0  0  0  0
  -21.3540   -4.9890   24.7880 C   0  0  0  0  0  0  0  0  0  0  0  0
  -21.8700   -4.3800   23.6310 C   0  0  0  0  0  3  0  0  0  0  0  0
  -22.0800   -5.1440   22.4690 C   0  0  0  0  0  0  0  0  0  0  0  0
  -22.5570   -4.5490   21.3500 F   0  0  0  0  0  0  0  0  0  0  0  0
  -21.1480   -4.2500   25.9020 F   0  0  0  0  0  0  0  0  0  0  0  0
  -23.0280  -13.8570   21.0650 C   0  0  0  0  0  0  0  0  0  0  0  0
  -22.3070  -13.1680   21.9450 N   0  0  0  0  0  0  0  0  0  0  0  0
  -22.5830  -14.8760   20.5390 O   0  0  0  0  0  0  0  0  0  0  0  0
  -22.6800  -12.3460   22.3940 H   0  0  0  0  0  0  0  0  0  0  0  0
  -21.3700  -13.4690   22.1710 H   0  0  0  0  0  0  0  0  0  0  0  0
  -25.6660  -15.5260   20.3290 N   0  0  0  0  0  0  0  0  0  0  0  0
  -24.9130  -16.1740   20.5370 H   0  0  0  0  0  0  0  0  0  0  0  0
  -26.5650  -15.9690   20.2250 H   0  0  0  0  0  0  0  0  0  0  0  0
  -30.2890  -17.9830   18.7720 C   0  0  0  0  0  2  0  0  0  0  0  0
  -27.2470  -19.8930   17.6610 C   0  0  0  0  0  2  0  0  0  0  0  0
  -27.4750  -18.8600   16.5600 C   0  0  0  0  0  2  0  0  0  0  0  0
  -28.2150  -19.4490   18.7580 C   0  0  0  0  0  2  0  0  0  0  0  0
  -28.9480  -18.4500   16.7100 C   0  0  0  0  0  2  0  0  0  0  0  0
  -29.3990  -18.9320   18.0400 N   0  0  2  0  0  4  0  0  0  0  0  0
  -29.9550  -19.7450   17.8200 H   0  0  0  0  0  0  0  0  0  0  0  0
  -30.7250  -20.8400   19.9400 C   0  0  0  0  0  2  0  0  0  0  0  0
  -29.9320  -21.9600   20.5280 N   0  0  0  0  0  4  0  0  0  0  0  0
  -30.3470  -22.1470   21.4320 H   0  0  0  0  0  0  0  0  0  0  0  0
  -28.9830  -21.6550   20.6840 H   0  0  0  0  0  0  0  0  0  0  0  0
  -29.9180  -23.2210   19.7300 C   0  0  0  0  0  2  0  0  0  0  0  0
  -29.2290  -24.4270   20.4350 C   0  0  0  0  0  2  0  0  0  0  0  0
  -29.2790  -25.7210   19.5790 C   0  0  0  0  0  2  0  0  0  0  0  0
  -28.9920  -26.9190   20.3240 O   0  0  0  0  0  0  0  0  0  0  0  0
  -24.6980  -31.7760   23.2620 C   0  0  0  0  0  0  0  0  0  0  0  0
  -27.7560  -27.5370   20.2560 C   0  0  0  0  0  0  0  0  0  0  0  0
  -23.6600  -30.3410   21.5360 C   0  0  0  0  0  3  0  0  0  0  0  0
  -25.2720  -28.9080   20.1690 C   0  0  0  0  0  0  0  0  0  0  0  0
  -26.1710  -30.8350   21.4840 C   0  0  0  0  0  2  0  0  0  0  0  0
  -26.3650  -29.4820   20.8280 C   0  0  0  0  0  0  0  0  0  0  0  0
  -27.6040  -28.8000   20.8740 C   0  0  0  0  0  3  0  0  0  0  0  0
  -26.6320  -26.9640   19.6120 C   0  0  0  0  0  3  0  0  0  0  0  0
  -25.4020  -27.6460   19.5620 C   0  0  0  0  0  3  0  0  0  0  0  0
  -23.9780  -29.6920   20.1610 C   0  0  0  0  0  2  0  0  0  0  0  0
  -24.8570  -30.9980   22.1530 N   0  0  0  0  0  0  0  0  0  0  0  0
  -23.5750  -31.9820   23.7430 O   0  0  0  0  0  0  0  0  0  0  0  0
  -23.0160  -29.2690   22.4430 C   0  0  0  0  0  0  0  0  0  0  0  0
  -21.7030  -29.0450   22.2620 N   0  0  0  0  0  0  0  0  0  0  0  0
  -23.6930  -28.6430   23.2620 O   0  0  0  0  0  0  0  0  0  0  0  0
  -21.2170  -29.6060   21.5760 H   0  0  0  0  0  0  0  0  0  0  0  0
  -18.3500  -27.7610   22.6500 C   0  0  0  0  0  0  0  0  0  0  0  0
  -20.8970  -28.0570   22.9770 C   0  0  0  0  0  3  0  0  0  0  0  0
  -21.0400  -26.6570   22.3350 C   0  0  0  0  0  2  0  0  0  0  0  0
  -19.9610  -26.3610   21.2900 C   0  0  0  0  0  2  0  0  0  0  0  0
  -18.5660  -26.4460   21.9160 C   0  0  0  0  0  2  0  0  0  0  0  0
  -19.4450  -28.5240   23.1320 C   0  0  0  0  0  0  0  0  0  0  0  0
  -19.1920  -29.7550   23.7740 C   0  0  0  0  0  3  0  0  0  0  0  0
  -17.8760  -30.2230   23.9410 C   0  0  0  0  0  3  0  0  0  0  0  0
  -16.7940  -29.4560   23.4750 C   0  0  0  0  0  3  0  0  0  0  0  0
  -17.0320  -28.2270   22.8360 C   0  0  0  0  0  3  0  0  0  0  0  0
  -25.9130  -32.4650   23.9600 C   0  0  0  0  0  3  0  0  0  0  0  0
  -25.5210  -33.8470   24.2620 N   0  0  0  0  0  0  0  0  0  0  0  0
  -25.8640  -34.9160   23.5300 C   0  0  0  0  0  0  0  0  0  0  0  0
  -26.6160  -34.8440   22.5530 O   0  0  0  0  0  0  0  0  0  0  0  0
  -24.8680  -33.9800   25.0200 H   0  0  0  0  0  0  0  0  0  0  0  0
  -24.1030  -36.6410   23.0350 C   0  0  0  0  0  1  0  0  0  0  0  0
  -25.2850  -36.2820   23.9490 C   0  0  0  0  0  3  0  0  0  0  0  0
  -27.3130  -37.2320   24.9520 C   0  0  0  0  0  1  0  0  0  0  0  0
  -26.2800  -37.3760   23.9290 N   0  0  0  0  0  0  0  0  0  0  0  0
  -25.8290  -38.2760   24.0620 H   0  0  0  0  0  0  0  0  0  0  0  0
  -26.3830  -31.7180   25.2670 C   0  0  1  0  0  0  0  0  0  0  0  0
  -25.2270  -31.3900   26.2410 C   0  0  0  0  0  1  0  0  0  0  0  0
  -27.0950  -30.3920   24.9140 C   0  0  0  0  0  1  0  0  0  0  0  0
  -27.4160  -32.5850   26.0240 C   0  0  0  0  0  1  0  0  0  0  0  0
  1  2  1  0
  3  4  2  0
  3  5  1  0
  4  6  1  0
  5  1  2  0
  6  7  1  0
  6  2  2  0
  8 16  1  0
  9 14  1  0
 10 11  1  0
 10  9  1  0
 12 11  1  0
 12 21  1  0
 12 13  1  0
 14  8  1  0
 14 13  1  0
 15  8  2  0
 16 17  1  0
 16  5  1  0
 18 19  2  0
 19 38  1  0
 20 19  1  0
 20 23  1  0
 21 22  1  0
 21 18  1  0
 22 20  2  0
 23 24  1  0
 24 25  2  0
 26 29  1  0
 26 25  1  0
 27 26  2  0
 28 27  1  0
 28 23  2  0
 29 30  1  0
 30 35  2  0
 30 31  1  0
 31 32  2  0
 32 33  1  0
 33 37  1  0
 34 33  2  0
 35 34  1  0
 36 35  1  0
 38 39  1  0
 39 42  1  0
 39 41  1  0
 40 38  2  0
 43 18  1  0
 43 44  1  0
 45 43  1  0
 46  3  1  0
 47 49  1  0
 48 50  1  0
 48 47  1  0
 50 51  1  0
 51 49  1  0
 51 46  1  0
 51 52  1  6
 53 54  1  0
 53  4  1  0
 54 56  1  0
 54 55  1  0
 57 58  1  0
 57 54  1  0
 59 60  1  0
 59 58  1  0
 61 72  2  0
 62 60  1  0
 62 67  1  0
 63 71  1  0
 63 73  1  0
 64 66  1  0
 65 71  1  0
 66 67  2  0
 66 65  1  0
 68 62  2  0
 69 68  1  0
 69 64  2  0
 70 64  1  0
 70 63  1  0
 71 61  1  0
 73 75  2  0
 74 73  1  0
 76 74  1  0
 77 86  2  0
 77 82  1  0
 78 74  1  0
 78 82  1  0
 79 78  1  0
 80 81  1  0
 80 79  1  0
 81 77  1  0
 82 83  2  0
 83 84  1  0
 85 84  2  0
 86 85  1  0
 87 61  1  0
 87 88  1  0
 87 97  1  0
 88 91  1  0
 89 93  1  0
 89 88  1  0
 90 89  2  0
 93 92  1  0
 95 93  1  0
 95 96  1  0
 95 94  1  0
 97100  1  1
 97 98  1  0
 99 97  1  0
M  ISO  4   8 100  16 100  59 101  60 101
M  END
>  <TORSDO>  (80) 
F 23

>  <SCORE>  (80) 
-12.471

>  <name>  (80) 
79

>  <ligand_id>  (80) 
79

>  <original_smiles>  (80) 
[H]c1c([H])c([H])c2c(c1[H])C([H])([H])C([H])([H])C([H])([H])C2([H])N([H])C(=O)C1([H])N(C(=O)C([H])(N([H])C(=O)C([H])(N([H])C([H])([H])[H])C([H])([H])[H])C(C([H])([H])[H])(C([H])([H])[H])C([H])([H])[H])C([H])([H])c2c([H])c(OC([H])([H])C([H])([H])C([H])([H])[N+]([H])([H])C([H])([H])c3c(F)c([H])c([H])c(N([H])C(=O)N4C([H])([H])C([H])([H])C([H])([H])C([H])(n5nc(-c6c([H])c([H])c(Oc7c([H])c([H])c(F)c([H])c7F)c([H])c6[H])c(C(=O)N([H])[H])c5N([H])[H])C4([H])[H])c3C([H])([H])[N+]3([H])C([H])([H])C([H])([H])C([H])([H])C3([H])[H])c([H])c([H])c2C1([H])[H]

>  <smiles>  (80) 
[H]c1c([H])c([H])c2c(c1[H])C([H])([H])C([H])([H])C([H])([H])C2([H])N([H])C(=O)C1([H])N(C(=O)C([H])(N([H])C(=O)C([H])(N([H])C([H])([H])[H])C([H])([H])[H])C(C([H])([H])[H])(C([H])([H])[H])C([H])([H])[H])C([H])([H])c2c([H])c(OC([H])([H])C([H])([H])C([H])([H])[N+]([H])([H])C([H])([H])c3c(F)c([H])c([H])c(N([H])C(=O)N4C([H])([H])C([H])([H])C([H])([H])C([H])(n5nc(-c6c([H])c([H])c(Oc7c([H])c([H])c(F)c([H])c7F)c([H])c6[H])c(C(=O)N([H])[H])c5N([H])[H])C4([H])[H])c3C([H])([H])[N+]3([H])C([H])([H])C([H])([H])C([H])([H])C3([H])[H])c([H])c([H])c2C1([H])[H]

$$$$
80:0:0
     RDKit          3D

 92101  0  0  1  0  0  0  0  0999 V2000
  -30.1650  -23.8810   18.5620 C   0  0  0  0  0  2  0  0  0  0  0  0
  -28.6370  -23.9560   18.6280 C   0  0  0  0  0  2  0  0  0  0  0  0
  -30.6000  -23.3880   19.9480 C   0  0  0  0  0  2  0  0  0  0  0  0
  -28.3200  -23.7440   20.1090 C   0  0  0  0  0  3  0  0  0  0  0  0
  -29.4030  -22.8160   20.5640 N   0  0  0  0  0  0  0  0  0  0  0  0
  -30.7770  -19.2900   20.8350 C   0  0  0  0  0  3  0  0  0  0  0  0
  -28.6910  -19.1420   19.6540 C   0  0  0  0  0  3  0  0  0  0  0  0
  -30.5530  -20.6790   21.0260 C   0  0  0  0  0  3  0  0  0  0  0  0
  -28.4710  -20.5470   19.8430 C   0  0  0  0  0  3  0  0  0  0  0  0
  -29.8710  -18.4830   20.1050 C   0  0  0  0  0  0  0  0  0  0  0  0
  -29.4320  -21.3730   20.4880 C   0  0  0  0  0  0  0  0  0  0  0  0
  -30.2780  -17.0370   19.6260 C   0  0  0  0  0  2  0  0  0  0  0  0
  -30.8290  -14.6160   20.0900 C   0  0  0  0  0  0  0  0  0  0  0  0
  -30.4700  -12.4270   18.9520 C   0  0  0  0  0  2  0  0  0  0  0  0
  -29.4750  -12.6010   17.7840 C   0  0  0  0  0  2  0  0  0  0  0  0
  -28.0270  -12.4430   18.2820 C   0  0  0  0  0  2  0  0  0  0  0  0
  -27.7440  -13.2790   19.5590 C   0  0  0  0  0  3  0  0  0  0  0  0
  -28.8540  -13.0740   20.6140 C   0  0  0  0  0  2  0  0  0  0  0  0
  -30.1330  -13.4300   19.9850 N   0  0  0  0  0  0  0  0  0  0  0  0
  -31.9520  -14.7050   19.5810 O   0  0  0  0  0  0  0  0  0  0  0  0
  -29.6790  -15.9520   21.8250 C   0  0  0  0  0  1  0  0  0  0  0  0
  -30.1510  -15.7700   20.4480 N   0  0  0  0  0  0  0  0  0  0  0  0
  -25.3960  -13.8900   20.4000 C   0  0  0  0  0  0  0  0  0  0  0  0
  -24.3410  -13.1210   20.8070 C   0  0  0  0  0  0  0  0  0  0  0  0
  -24.7880  -11.7650   20.7340 C   0  0  0  0  0  0  0  0  0  0  0  0
  -26.4190  -13.0040   20.1040 N   0  0  0  0  0  0  0  0  0  0  0  0
  -26.0610  -11.7200   20.3660 N   0  0  0  0  0  0  0  0  0  0  0  0
  -24.0570  -10.5070   20.9360 C   0  0  0  0  0  0  0  0  0  0  0  0
  -24.4950   -9.5420   21.8710 C   0  0  0  0  0  3  0  0  0  0  0  0
  -23.7670   -8.3490   22.0620 C   0  0  0  0  0  3  0  0  0  0  0  0
  -22.5860   -8.1110   21.3190 C   0  0  0  0  0  0  0  0  0  0  0  0
  -22.1680   -9.0640   20.3730 C   0  0  0  0  0  3  0  0  0  0  0  0
  -22.8970  -10.2480   20.1800 C   0  0  0  0  0  3  0  0  0  0  0  0
  -21.8300   -6.9690   21.4180 O   0  0  0  0  0  0  0  0  0  0  0  0
  -21.7480   -6.2580   22.5880 C   0  0  0  0  0  0  0  0  0  0  0  0
  -21.2920   -6.8480   23.7880 C   0  0  0  0  0  3  0  0  0  0  0  0
  -21.1590   -6.0640   24.9510 C   0  0  0  0  0  3  0  0  0  0  0  0
  -21.4720   -4.6920   24.9170 C   0  0  0  0  0  0  0  0  0  0  0  0
  -21.9220   -4.1020   23.7220 C   0  0  0  0  0  3  0  0  0  0  0  0
  -22.0560   -4.8830   22.5620 C   0  0  0  0  0  0  0  0  0  0  0  0
  -22.4690   -4.3050   21.4070 F   0  0  0  0  0  0  0  0  0  0  0  0
  -21.3370   -3.9370   26.0330 F   0  0  0  0  0  0  0  0  0  0  0  0
  -22.9620  -13.6060   21.1500 C   0  0  0  0  0  0  0  0  0  0  0  0
  -22.2690  -12.9040   22.0400 N   0  0  0  0  0  0  0  0  0  0  0  0
  -22.5080  -14.6410   20.6610 O   0  0  0  0  0  0  0  0  0  0  0  0
  -22.6530  -12.0690   22.4550 H   0  0  0  0  0  0  0  0  0  0  0  0
  -21.3430  -13.2050   22.3060 H   0  0  0  0  0  0  0  0  0  0  0  0
  -25.5650  -15.2620   20.2370 N   0  0  0  0  0  0  0  0  0  0  0  0
  -24.8070  -15.9180   20.3930 H   0  0  0  0  0  0  0  0  0  0  0  0
  -26.4050  -15.7010   19.8830 H   0  0  0  0  0  0  0  0  0  0  0  0
  -28.2620  -25.1430   20.9000 C   0  0  0  0  0  2  0  0  0  0  0  0
  -28.3910  -26.4500   20.2230 O   0  0  0  0  0  0  0  0  0  0  0  0
  -24.6350  -31.8330   23.1980 C   0  0  0  0  0  0  0  0  0  0  0  0
  -27.2690  -27.2790   20.2030 C   0  0  0  0  0  0  0  0  0  0  0  0
  -23.4420  -30.4250   21.5520 C   0  0  0  0  0  3  0  0  0  0  0  0
  -24.9050  -28.8670   20.1450 C   0  0  0  0  0  0  0  0  0  0  0  0
  -25.9800  -30.7530   21.3830 C   0  0  0  0  0  2  0  0  0  0  0  0
  -26.0660  -29.3720   20.7460 C   0  0  0  0  0  0  0  0  0  0  0  0
  -27.2580  -28.5910   20.7590 C   0  0  0  0  0  3  0  0  0  0  0  0
  -26.0900  -26.8090   19.5930 C   0  0  0  0  0  3  0  0  0  0  0  0
  -24.9180  -27.5900   19.5600 C   0  0  0  0  0  3  0  0  0  0  0  0
  -23.6670  -29.7410   20.1760 C   0  0  0  0  0  2  0  0  0  0  0  0
  -24.7030  -31.0190   22.1010 N   0  0  0  0  0  0  0  0  0  0  0  0
  -23.5460  -32.1130   23.7220 O   0  0  0  0  0  0  0  0  0  0  0  0
  -22.7760  -29.4110   22.5140 C   0  0  0  0  0  0  0  0  0  0  0  0
  -21.4480  -29.2470   22.3890 N   0  0  0  0  0  0  0  0  0  0  0  0
  -23.4530  -28.7780   23.3280 O   0  0  0  0  0  0  0  0  0  0  0  0
  -20.9610  -29.8120   21.7060 H   0  0  0  0  0  0  0  0  0  0  0  0
  -18.0580  -28.1020   22.9040 C   0  0  0  0  0  0  0  0  0  0  0  0
  -20.6220  -28.3190   23.1600 C   0  0  0  0  0  3  0  0  0  0  0  0
  -20.6990  -26.8900   22.5780 C   0  0  0  0  0  2  0  0  0  0  0  0
  -19.5870  -26.5880   21.5680 C   0  0  0  0  0  2  0  0  0  0  0  0
  -18.2100  -26.7530   22.2180 C   0  0  0  0  0  2  0  0  0  0  0  0
  -19.1910  -28.8420   23.3310 C   0  0  0  0  0  0  0  0  0  0  0  0
  -18.9940  -30.1070   23.9290 C   0  0  0  0  0  3  0  0  0  0  0  0
  -17.6990  -30.6280   24.1050 C   0  0  0  0  0  3  0  0  0  0  0  0
  -16.5800  -29.8820   23.6940 C   0  0  0  0  0  3  0  0  0  0  0  0
  -16.7600  -28.6220   23.0990 C   0  0  0  0  0  3  0  0  0  0  0  0
  -25.9140  -32.4670   23.8260 C   0  0  0  0  0  3  0  0  0  0  0  0
  -26.4290  -31.6950   25.1030 C   0  0  1  0  0  0  0  0  0  0  0  0
  -25.3320  -31.4560   26.1660 C   0  0  0  0  0  1  0  0  0  0  0  0
  -27.0170  -30.3200   24.7100 C   0  0  0  0  0  1  0  0  0  0  0  0
  -27.5690  -32.4950   25.7740 C   0  0  0  0  0  1  0  0  0  0  0  0
  -25.5980  -33.8630   24.1580 N   0  0  0  0  0  0  0  0  0  0  0  0
  -25.9270  -34.9190   23.4020 C   0  0  0  0  0  0  0  0  0  0  0  0
  -26.5960  -34.8210   22.3710 O   0  0  0  0  0  0  0  0  0  0  0  0
  -25.0090  -34.0160   24.9630 H   0  0  0  0  0  0  0  0  0  0  0  0
  -24.1840  -36.6980   23.0560 C   0  0  0  0  0  1  0  0  0  0  0  0
  -25.4300  -36.3020   23.8650 C   0  0  0  0  0  3  0  0  0  0  0  0
  -27.5630  -37.1960   24.6900 C   0  0  0  0  0  1  0  0  0  0  0  0
  -26.4550  -37.3630   23.7540 N   0  0  0  0  0  0  0  0  0  0  0  0
  -26.0410  -38.2770   23.9100 H   0  0  0  0  0  0  0  0  0  0  0  0
  1  2  1  0
  1  3  1  0
  2  4  1  0
  3  5  1  0
  4  5  1  0
  4 51  1  0
  6  8  1  0
  7  9  2  0
  7 10  1  0
  9 11  1  0
 10  6  2  0
 11  5  1  0
 11  8  2  0
 12 10  1  0
 12 22  1  0
 13 22  1  0
 14 19  1  0
 15 16  1  0
 15 14  1  0
 17 16  1  0
 17 26  1  0
 17 18  1  0
 19 13  1  0
 19 18  1  0
 20 13  2  0
 22 21  1  0
 23 24  2  0
 24 43  1  0
 25 24  1  0
 25 28  1  0
 26 27  1  0
 26 23  1  0
 27 25  2  0
 28 29  1  0
 29 30  2  0
 31 34  1  0
 31 30  1  0
 32 31  2  0
 33 32  1  0
 33 28  2  0
 34 35  1  0
 35 36  1  0
 36 37  2  0
 38 37  1  0
 38 42  1  0
 39 38  2  0
 40 35  2  0
 40 39  1  0
 41 40  1  0
 43 44  1  0
 44 47  1  0
 44 46  1  0
 45 43  2  0
 48 49  1  0
 48 23  1  0
 50 48  1  0
 52 51  1  0
 53 64  2  0
 54 52  1  0
 54 59  1  0
 55 63  1  0
 55 65  1  0
 56 62  1  0
 56 58  1  0
 57 63  1  0
 58 59  2  0
 58 57  1  0
 60 54  2  0
 61 60  1  0
 61 56  2  0
 62 55  1  0
 63 53  1  0
 65 67  2  0
 66 65  1  0
 68 66  1  0
 69 78  2  0
 69 74  1  0
 70 66  1  0
 70 74  1  0
 71 70  1  0
 72 73  1  0
 72 71  1  0
 73 69  1  0
 74 75  2  0
 75 76  1  0
 77 76  2  0
 78 77  1  0
 79 53  1  0
 79 84  1  0
 79 80  1  0
 80 83  1  1
 80 81  1  0
 82 80  1  0
 84 87  1  0
 85 89  1  0
 85 84  1  0
 86 85  2  0
 89 88  1  0
 91 89  1  0
 91 92  1  0
 91 90  1  0
M  ISO  4  13 100  22 100  51 101  52 101
M  END
>  <TORSDO>  (81) 
F 19

>  <SCORE>  (81) 
-14.012

>  <name>  (81) 
80

>  <ligand_id>  (81) 
80

>  <original_smiles>  (81) 
[H]c1c([H])c([H])c2c(c1[H])C([H])([H])C([H])([H])C([H])([H])C2([H])N([H])C(=O)C1([H])N(C(=O)C([H])(N([H])C(=O)C([H])(N([H])C([H])([H])[H])C([H])([H])[H])C(C([H])([H])[H])(C([H])([H])[H])C([H])([H])[H])C([H])([H])c2c([H])c(OC([H])([H])C3([H])N(c4c([H])c([H])c(C([H])([H])N(C(=O)N5C([H])([H])C([H])([H])C([H])([H])C([H])(n6nc(-c7c([H])c([H])c(Oc8c([H])c([H])c(F)c([H])c8F)c([H])c7[H])c(C(=O)N([H])[H])c6N([H])[H])C5([H])[H])C([H])([H])[H])c([H])c4[H])C([H])([H])C([H])([H])C3([H])[H])c([H])c([H])c2C1([H])[H]

>  <smiles>  (81) 
[H]c1c([H])c([H])c2c(c1[H])C([H])([H])C([H])([H])C([H])([H])C2([H])N([H])C(=O)C1([H])N(C(=O)C([H])(N([H])C(=O)C([H])(N([H])C([H])([H])[H])C([H])([H])[H])C(C([H])([H])[H])(C([H])([H])[H])C([H])([H])[H])C([H])([H])c2c([H])c(OC([H])([H])C3([H])N(c4c([H])c([H])c(C([H])([H])N(C(=O)N5C([H])([H])C([H])([H])C([H])([H])C([H])(n6nc(-c7c([H])c([H])c(Oc8c([H])c([H])c(F)c([H])c8F)c([H])c7[H])c(C(=O)N([H])[H])c6N([H])[H])C5([H])[H])C([H])([H])[H])c([H])c4[H])C([H])([H])C([H])([H])C3([H])[H])c([H])c([H])c2C1([H])[H]

$$$$
81:0:0
     RDKit          3D

 95103  0  0  1  0  0  0  0  0999 V2000
  -30.5320  -22.2310   21.0200 N   0  0  1  0  0  4  0  0  0  0  0  0
  -30.9000  -22.9230   21.6520 H   0  0  0  0  0  0  0  0  0  0  0  0
  -30.2960  -21.0830   21.9570 C   0  0  0  0  0  2  0  0  0  0  0  0
  -29.1250  -19.0980   20.8270 C   0  0  0  0  0  3  0  0  0  0  0  0
  -29.0370  -17.7150   20.5530 C   0  0  0  0  0  3  0  0  0  0  0  0
  -31.3060  -17.3940   21.3650 C   0  0  0  0  0  3  0  0  0  0  0  0
  -30.2900  -19.6420   21.4140 C   0  0  0  0  0  0  0  0  0  0  0  0
  -30.1150  -16.8440   20.8400 C   0  0  0  0  0  0  0  0  0  0  0  0
  -31.3870  -18.7770   21.6550 C   0  0  0  0  0  0  0  0  0  0  0  0
  -32.5100  -19.2630   22.2320 F   0  0  0  0  0  0  0  0  0  0  0  0
  -30.6430  -14.4810   20.1330 C   0  0  0  0  0  0  0  0  0  0  0  0
  -30.3060  -12.3530   18.9160 C   0  0  0  0  0  2  0  0  0  0  0  0
  -29.2890  -12.5830   17.7760 C   0  0  0  0  0  2  0  0  0  0  0  0
  -27.8380  -12.4450   18.2830 C   0  0  0  0  0  2  0  0  0  0  0  0
  -27.5800  -13.2470   19.5860 C   0  0  0  0  0  3  0  0  0  0  0  0
  -28.6910  -12.9640   20.6240 C   0  0  0  0  0  2  0  0  0  0  0  0
  -29.9860  -13.2940   19.9990 N   0  0  0  0  0  0  0  0  0  0  0  0
  -31.7470  -14.7020   19.6270 O   0  0  0  0  0  0  0  0  0  0  0  0
  -29.8980  -15.4370   20.7230 N   0  0  0  0  0  0  0  0  0  0  0  0
  -28.9800  -15.1160   20.9910 H   0  0  0  0  0  0  0  0  0  0  0  0
  -25.2310  -13.8750   20.4330 C   0  0  0  0  0  0  0  0  0  0  0  0
  -24.1740  -13.1070   20.8440 C   0  0  0  0  0  0  0  0  0  0  0  0
  -24.6140  -11.7500   20.7570 C   0  0  0  0  0  0  0  0  0  0  0  0
  -26.2500  -12.9830   20.1300 N   0  0  0  0  0  0  0  0  0  0  0  0
  -25.8850  -11.7000   20.3800 N   0  0  0  0  0  0  0  0  0  0  0  0
  -23.8840  -10.4940   20.9590 C   0  0  0  0  0  0  0  0  0  0  0  0
  -24.3180   -9.5280   21.8940 C   0  0  0  0  0  3  0  0  0  0  0  0
  -23.5880   -8.3330   22.0800 C   0  0  0  0  0  3  0  0  0  0  0  0
  -22.4120   -8.0980   21.3300 C   0  0  0  0  0  0  0  0  0  0  0  0
  -21.9960   -9.0530   20.3860 C   0  0  0  0  0  3  0  0  0  0  0  0
  -22.7270  -10.2380   20.1980 C   0  0  0  0  0  3  0  0  0  0  0  0
  -21.6510   -6.9580   21.4260 O   0  0  0  0  0  0  0  0  0  0  0  0
  -21.5730   -6.2420   22.5940 C   0  0  0  0  0  0  0  0  0  0  0  0
  -21.0950   -6.8190   23.7920 C   0  0  0  0  0  3  0  0  0  0  0  0
  -20.9640   -6.0280   24.9500 C   0  0  0  0  0  3  0  0  0  0  0  0
  -21.3010   -4.6620   24.9140 C   0  0  0  0  0  0  0  0  0  0  0  0
  -21.7730   -4.0850   23.7210 C   0  0  0  0  0  3  0  0  0  0  0  0
  -21.9050   -4.8730   22.5640 C   0  0  0  0  0  0  0  0  0  0  0  0
  -22.3400   -4.3060   21.4110 F   0  0  0  0  0  0  0  0  0  0  0  0
  -21.1690   -3.9000   26.0260 F   0  0  0  0  0  0  0  0  0  0  0  0
  -22.7990  -13.5940   21.2000 C   0  0  0  0  0  0  0  0  0  0  0  0
  -22.1070  -12.8840   22.0840 N   0  0  0  0  0  0  0  0  0  0  0  0
  -22.3490  -14.6390   20.7320 O   0  0  0  0  0  0  0  0  0  0  0  0
  -22.4840  -12.0370   22.4820 H   0  0  0  0  0  0  0  0  0  0  0  0
  -21.1870  -13.1920   22.3670 H   0  0  0  0  0  0  0  0  0  0  0  0
  -25.4040  -15.2450   20.2750 N   0  0  0  0  0  0  0  0  0  0  0  0
  -24.6460  -15.9020   20.4290 H   0  0  0  0  0  0  0  0  0  0  0  0
  -26.2230  -15.6740   19.8670 H   0  0  0  0  0  0  0  0  0  0  0  0
  -31.6200  -22.0540   20.0230 C   0  0  0  0  0  2  0  0  0  0  0  0
  -34.1510  -22.2440   19.6350 C   0  0  0  0  0  1  0  0  0  0  0  0
  -32.9980  -22.3680   20.6370 C   0  0  0  0  0  2  0  0  0  0  0  0
  -29.3140  -22.9260   20.4960 C   0  0  0  0  0  2  0  0  0  0  0  0
  -29.4800  -24.4790   20.4930 C   0  0  0  0  0  2  0  0  0  0  0  0
  -28.2180  -25.2520   20.0400 C   0  0  0  0  0  2  0  0  0  0  0  0
  -28.3380  -26.6790   20.2220 O   0  0  0  0  0  0  0  0  0  0  0  0
  -24.5590  -31.9000   23.2680 C   0  0  0  0  0  0  0  0  0  0  0  0
  -27.1690  -27.4240   20.1910 C   0  0  0  0  0  0  0  0  0  0  0  0
  -23.3410  -30.5110   21.6230 C   0  0  0  0  0  3  0  0  0  0  0  0
  -24.7830  -28.9640   20.1980 C   0  0  0  0  0  0  0  0  0  0  0  0
  -25.8720  -30.8460   21.4300 C   0  0  0  0  0  2  0  0  0  0  0  0
  -25.9480  -29.4740   20.7880 C   0  0  0  0  0  0  0  0  0  0  0  0
  -27.1420  -28.7130   20.7790 C   0  0  0  0  0  3  0  0  0  0  0  0
  -25.9820  -26.9370   19.5900 C   0  0  0  0  0  3  0  0  0  0  0  0
  -24.7970  -27.6960   19.5960 C   0  0  0  0  0  3  0  0  0  0  0  0
  -23.5490  -29.8360   20.2410 C   0  0  0  0  0  2  0  0  0  0  0  0
  -24.6090  -31.1000   22.1650 N   0  0  0  0  0  0  0  0  0  0  0  0
  -23.4790  -32.1830   23.8060 O   0  0  0  0  0  0  0  0  0  0  0  0
  -22.6810  -29.4940   22.5810 C   0  0  0  0  0  0  0  0  0  0  0  0
  -21.3640  -29.2870   22.4200 N   0  0  0  0  0  0  0  0  0  0  0  0
  -23.3520  -28.8890   23.4210 O   0  0  0  0  0  0  0  0  0  0  0  0
  -20.8870  -29.8260   21.7120 H   0  0  0  0  0  0  0  0  0  0  0  0
  -17.9980  -28.0290   22.8200 C   0  0  0  0  0  0  0  0  0  0  0  0
  -20.5370  -28.3500   23.1790 C   0  0  0  0  0  3  0  0  0  0  0  0
  -20.6930  -26.9110   22.6380 C   0  0  0  0  0  2  0  0  0  0  0  0
  -19.6370  -26.5430   21.5910 C   0  0  0  0  0  2  0  0  0  0  0  0
  -18.2290  -26.6680   22.1810 C   0  0  0  0  0  2  0  0  0  0  0  0
  -19.0840  -28.8240   23.2720 C   0  0  0  0  0  0  0  0  0  0  0  0
  -18.8190  -30.0950   23.8280 C   0  0  0  0  0  3  0  0  0  0  0  0
  -17.4990  -30.5720   23.9350 C   0  0  0  0  0  3  0  0  0  0  0  0
  -16.4280  -29.7760   23.4990 C   0  0  0  0  0  3  0  0  0  0  0  0
  -16.6760  -28.5070   22.9480 C   0  0  0  0  0  3  0  0  0  0  0  0
  -25.8500  -32.5170   23.8910 C   0  0  0  0  0  3  0  0  0  0  0  0
  -25.5590  -33.9230   24.1990 N   0  0  0  0  0  0  0  0  0  0  0  0
  -25.9030  -34.9580   23.4220 C   0  0  0  0  0  0  0  0  0  0  0  0
  -26.5730  -34.8300   22.3920 O   0  0  0  0  0  0  0  0  0  0  0  0
  -24.9660  -34.0970   24.9960 H   0  0  0  0  0  0  0  0  0  0  0  0
  -24.1960  -36.7650   23.0420 C   0  0  0  0  0  1  0  0  0  0  0  0
  -25.4350  -36.3610   23.8570 C   0  0  0  0  0  3  0  0  0  0  0  0
  -27.5780  -37.2400   24.6690 C   0  0  0  0  0  1  0  0  0  0  0  0
  -26.4800  -37.3980   23.7190 N   0  0  0  0  0  0  0  0  0  0  0  0
  -26.0870  -38.3270   23.8450 H   0  0  0  0  0  0  0  0  0  0  0  0
  -26.3450  -31.7530   25.1800 C   0  0  1  0  0  0  0  0  0  0  0  0
  -25.2370  -31.5360   26.2360 C   0  0  0  0  0  1  0  0  0  0  0  0
  -26.9160  -30.3660   24.8030 C   0  0  0  0  0  1  0  0  0  0  0  0
  -27.4980  -32.5390   25.8450 C   0  0  0  0  0  1  0  0  0  0  0  0
  1  2  1  1
  1  3  1  0
  4  7  1  0
  5  4  2  0
  5  8  1  0
  6  9  1  0
  7  9  2  0
  7  3  1  0
  8  6  2  0
  9 10  1  0
 11 19  1  0
 12 17  1  0
 13 14  1  0
 13 12  1  0
 15 14  1  0
 15 24  1  0
 15 16  1  0
 17 11  1  0
 17 16  1  0
 18 11  2  0
 19  8  1  0
 19 20  1  0
 21 22  2  0
 22 41  1  0
 23 22  1  0
 23 26  1  0
 24 25  1  0
 24 21  1  0
 25 23  2  0
 26 27  1  0
 27 28  2  0
 29 32  1  0
 29 28  1  0
 30 29  2  0
 31 30  1  0
 31 26  2  0
 32 33  1  0
 33 34  1  0
 34 35  2  0
 36 35  1  0
 36 40  1  0
 37 36  2  0
 38 33  2  0
 38 37  1  0
 39 38  1  0
 41 42  1  0
 42 45  1  0
 42 44  1  0
 43 41  2  0
 46 47  1  0
 46 21  1  0
 48 46  1  0
 49 51  1  0
 49  1  1  0
 50 51  1  0
 52  1  1  0
 53 52  1  0
 54 55  1  0
 54 53  1  0
 56 67  2  0
 57 55  1  0
 57 62  1  0
 58 66  1  0
 58 68  1  0
 59 65  1  0
 59 61  1  0
 60 66  1  0
 61 60  1  0
 62 61  2  0
 63 64  1  0
 63 57  2  0
 64 59  2  0
 65 58  1  0
 66 56  1  0
 68 70  2  0
 69 68  1  0
 71 69  1  0
 72 81  2  0
 72 77  1  0
 73 69  1  0
 73 77  1  0
 74 73  1  0
 75 76  1  0
 75 74  1  0
 76 72  1  0
 77 78  2  0
 78 79  1  0
 80 79  2  0
 81 80  1  0
 82 56  1  0
 82 83  1  0
 82 92  1  0
 83 86  1  0
 84 88  1  0
 84 83  1  0
 85 84  2  0
 88 87  1  0
 90 91  1  0
 90 88  1  0
 90 89  1  0
 92 95  1  1
 92 93  1  0
 94 92  1  0
M  ISO  4  11 100  19 100  54 101  55 101
M  END
>  <TORSDO>  (82) 
F 23

>  <SCORE>  (82) 
-12.709

>  <name>  (82) 
81

>  <ligand_id>  (82) 
81

>  <original_smiles>  (82) 
[H]c1c([H])c([H])c2c(c1[H])C([H])([H])C([H])([H])C([H])([H])C2([H])N([H])C(=O)C1([H])N(C(=O)C([H])(N([H])C(=O)C([H])(N([H])C([H])([H])[H])C([H])([H])[H])C(C([H])([H])[H])(C([H])([H])[H])C([H])([H])[H])C([H])([H])c2c([H])c(OC([H])([H])C([H])([H])C([H])([H])[N+]([H])(C([H])([H])c3c([H])c([H])c(N([H])C(=O)N4C([H])([H])C([H])([H])C([H])([H])C([H])(n5nc(-c6c([H])c([H])c(Oc7c([H])c([H])c(F)c([H])c7F)c([H])c6[H])c(C(=O)N([H])[H])c5N([H])[H])C4([H])[H])c([H])c3F)C([H])([H])C([H])([H])C([H])([H])[H])c([H])c([H])c2C1([H])[H]

>  <smiles>  (82) 
[H]c1c([H])c([H])c2c(c1[H])C([H])([H])C([H])([H])C([H])([H])C2([H])N([H])C(=O)C1([H])N(C(=O)C([H])(N([H])C(=O)C([H])(N([H])C([H])([H])[H])C([H])([H])[H])C(C([H])([H])[H])(C([H])([H])[H])C([H])([H])[H])C([H])([H])c2c([H])c(OC([H])([H])C([H])([H])C([H])([H])[N+]([H])(C([H])([H])c3c([H])c([H])c(N([H])C(=O)N4C([H])([H])C([H])([H])C([H])([H])C([H])(n5nc(-c6c([H])c([H])c(Oc7c([H])c([H])c(F)c([H])c7F)c([H])c6[H])c(C(=O)N([H])[H])c5N([H])[H])C4([H])[H])c([H])c3F)C([H])([H])C([H])([H])C([H])([H])[H])c([H])c([H])c2C1([H])[H]

$$$$
82:0:0
     RDKit          3D

 87 95  0  0  1  0  0  0  0  0999 V2000
  -29.4740  -21.3680   21.0420 C   0  0  0  0  0  3  0  0  0  0  0  0
  -29.8190  -19.8650   21.0410 C   0  0  0  0  0  3  0  0  0  0  0  0
  -28.1230  -21.0360   19.3060 C   0  0  0  0  0  3  0  0  0  0  0  0
  -28.5650  -22.1730   20.1610 C   0  0  0  0  0  0  0  0  0  0  0  0
  -29.3370  -18.7380   20.1720 C   0  0  0  0  0  0  0  0  0  0  0  0
  -28.4400  -19.5460   19.3040 C   0  0  0  0  0  0  0  0  0  0  0  0
  -27.7710  -18.8280   18.3660 F   0  0  0  0  0  0  0  0  0  0  0  0
  -30.2700  -15.7040   20.1710 C   0  0  0  0  0  0  0  0  0  0  0  0
  -30.3830  -13.1740   19.3280 C   0  0  0  0  0  2  0  0  0  0  0  0
  -29.4680  -12.7730   18.1340 C   0  0  0  0  0  2  0  0  0  0  0  0
  -28.0490  -12.4210   18.6120 C   0  0  0  0  0  2  0  0  0  0  0  0
  -27.5540  -13.4080   19.6950 C   0  0  0  0  0  3  0  0  0  0  0  0
  -28.6090  -13.7050   20.7850 C   0  0  0  0  0  2  0  0  0  0  0  0
  -29.7630  -14.3370   20.1040 N   0  0  0  0  0  0  0  0  0  0  0  0
  -31.5030  -15.6750   20.0070 O   0  0  0  0  0  0  0  0  0  0  0  0
  -29.4380  -17.0170   20.1980 N   0  0  0  0  0  0  0  0  0  0  0  0
  -28.4920  -16.6790   20.1140 H   0  0  0  0  0  0  0  0  0  0  0  0
  -25.1990  -13.9070   20.5110 C   0  0  0  0  0  0  0  0  0  0  0  0
  -24.1550  -13.1120   20.8900 C   0  0  0  0  0  0  0  0  0  0  0  0
  -24.6410  -11.7690   20.8400 C   0  0  0  0  0  0  0  0  0  0  0  0
  -26.2490  -13.0510   20.2390 N   0  0  0  0  0  0  0  0  0  0  0  0
  -25.9280  -11.7570   20.5040 N   0  0  0  0  0  0  0  0  0  0  0  0
  -23.9300  -10.4970   21.0290 C   0  0  0  0  0  0  0  0  0  0  0  0
  -24.3770   -9.5290   21.9560 C   0  0  0  0  0  3  0  0  0  0  0  0
  -23.6580   -8.3260   22.1370 C   0  0  0  0  0  3  0  0  0  0  0  0
  -22.4790   -8.0840   21.3930 C   0  0  0  0  0  0  0  0  0  0  0  0
  -22.0520   -9.0410   20.4560 C   0  0  0  0  0  3  0  0  0  0  0  0
  -22.7710  -10.2340   20.2720 C   0  0  0  0  0  3  0  0  0  0  0  0
  -21.7330   -6.9320   21.4830 O   0  0  0  0  0  0  0  0  0  0  0  0
  -21.6910   -6.1900   22.6350 C   0  0  0  0  0  0  0  0  0  0  0  0
  -21.2450   -6.7380   23.8590 C   0  0  0  0  0  3  0  0  0  0  0  0
  -21.1510   -5.9210   25.0030 C   0  0  0  0  0  3  0  0  0  0  0  0
  -21.4920   -4.5580   24.9280 C   0  0  0  0  0  0  0  0  0  0  0  0
  -21.9330   -4.0100   23.7090 C   0  0  0  0  0  3  0  0  0  0  0  0
  -22.0290   -4.8230   22.5670 C   0  0  0  0  0  0  0  0  0  0  0  0
  -22.4320   -4.2840   21.3910 F   0  0  0  0  0  0  0  0  0  0  0  0
  -21.3960   -3.7710   26.0240 F   0  0  0  0  0  0  0  0  0  0  0  0
  -22.7570  -13.5710   21.1800 C   0  0  0  0  0  0  0  0  0  0  0  0
  -22.0460  -12.8700   22.0560 N   0  0  0  0  0  0  0  0  0  0  0  0
  -22.3010  -14.5920   20.6650 O   0  0  0  0  0  0  0  0  0  0  0  0
  -22.4270  -12.0480   22.5020 H   0  0  0  0  0  0  0  0  0  0  0  0
  -21.1090  -13.1650   22.2920 H   0  0  0  0  0  0  0  0  0  0  0  0
  -25.3280  -15.2820   20.3410 N   0  0  0  0  0  0  0  0  0  0  0  0
  -24.5350  -15.9020   20.4650 H   0  0  0  0  0  0  0  0  0  0  0  0
  -26.1370  -15.7530   19.9560 H   0  0  0  0  0  0  0  0  0  0  0  0
  -27.8240  -23.8920   20.1290 C   0  0  0  0  0  2  0  0  0  0  0  0
  -28.1390  -25.5970   20.3340 O   0  0  0  0  0  0  0  0  0  0  0  0
  -24.6660  -31.9000   23.2420 C   0  0  0  0  0  0  0  0  0  0  0  0
  -27.1820  -26.8170   20.2710 C   0  0  0  0  0  0  0  0  0  0  0  0
  -23.4750  -30.5030   21.6080 C   0  0  0  0  0  3  0  0  0  0  0  0
  -24.9190  -28.8470   20.2030 C   0  0  0  0  0  0  0  0  0  0  0  0
  -26.0550  -30.6380   21.4900 C   0  0  0  0  0  2  0  0  0  0  0  0
  -26.1150  -29.2040   20.8380 C   0  0  0  0  0  0  0  0  0  0  0  0
  -27.2330  -28.2170   20.8390 C   0  0  0  0  0  3  0  0  0  0  0  0
  -25.9530  -26.6660   19.5810 C   0  0  0  0  0  3  0  0  0  0  0  0
  -24.8760  -27.6030   19.5520 C   0  0  0  0  0  3  0  0  0  0  0  0
  -23.7140  -29.8000   20.2400 C   0  0  0  0  0  2  0  0  0  0  0  0
  -24.7560  -31.0460   22.1660 N   0  0  0  0  0  0  0  0  0  0  0  0
  -23.5740  -32.2090   23.7490 O   0  0  0  0  0  0  0  0  0  0  0  0
  -22.7510  -29.5330   22.5800 C   0  0  0  0  0  0  0  0  0  0  0  0
  -21.4190  -29.3830   22.4480 N   0  0  0  0  0  0  0  0  0  0  0  0
  -23.3990  -28.9130   23.4270 O   0  0  0  0  0  0  0  0  0  0  0  0
  -20.9460  -29.9320   21.7440 H   0  0  0  0  0  0  0  0  0  0  0  0
  -18.0220  -28.1860   22.9450 C   0  0  0  0  0  0  0  0  0  0  0  0
  -20.5830  -28.4560   23.2220 C   0  0  0  0  0  3  0  0  0  0  0  0
  -20.6850  -27.0170   22.6640 C   0  0  0  0  0  2  0  0  0  0  0  0
  -19.5900  -26.6860   21.6440 C   0  0  0  0  0  2  0  0  0  0  0  0
  -18.2050  -26.8340   22.2770 C   0  0  0  0  0  2  0  0  0  0  0  0
  -19.1380  -28.9540   23.3750 C   0  0  0  0  0  0  0  0  0  0  0  0
  -18.9120  -30.2150   23.9670 C   0  0  0  0  0  3  0  0  0  0  0  0
  -17.6050  -30.7110   24.1300 C   0  0  0  0  0  3  0  0  0  0  0  0
  -16.5040  -29.9420   23.7130 C   0  0  0  0  0  3  0  0  0  0  0  0
  -16.7130  -28.6810   23.1270 C   0  0  0  0  0  3  0  0  0  0  0  0
  -25.9320  -32.5440   23.8860 C   0  0  0  0  0  3  0  0  0  0  0  0
  -25.6150  -33.9470   24.2170 N   0  0  0  0  0  0  0  0  0  0  0  0
  -25.9300  -35.0090   23.4630 C   0  0  0  0  0  0  0  0  0  0  0  0
  -26.5740  -34.9100   22.4160 O   0  0  0  0  0  0  0  0  0  0  0  0
  -25.0310  -34.0950   25.0280 H   0  0  0  0  0  0  0  0  0  0  0  0
  -24.1810  -36.8060   23.1940 C   0  0  0  0  0  1  0  0  0  0  0  0
  -25.4620  -36.4000   23.9430 C   0  0  0  0  0  3  0  0  0  0  0  0
  -27.6250  -37.3080   24.6720 C   0  0  0  0  0  1  0  0  0  0  0  0
  -26.4830  -37.4570   23.7750 N   0  0  0  0  0  0  0  0  0  0  0  0
  -26.0790  -38.3780   23.9250 H   0  0  0  0  0  0  0  0  0  0  0  0
  -26.4180  -31.7850   25.1830 C   0  0  1  0  0  0  0  0  0  0  0  0
  -25.3060  -31.5750   26.2390 C   0  0  0  0  0  1  0  0  0  0  0  0
  -26.9910  -30.3950   24.8290 C   0  0  0  0  0  1  0  0  0  0  0  0
  -27.5670  -32.5770   25.8510 C   0  0  0  0  0  1  0  0  0  0  0  0
  2  1  1  0
  3  4  1  0
  4  1  2  0
  5 16  1  0
  5  2  2  0
  6  3  2  0
  6  5  1  0
  7  6  1  0
  8 16  1  0
  9 14  1  0
 10 11  1  0
 10  9  1  0
 12 11  1  0
 12 21  1  0
 12 13  1  0
 14  8  1  0
 14 13  1  0
 15  8  2  0
 17 16  1  0
 18 19  2  0
 19 38  1  0
 20 19  1  0
 20 23  1  0
 21 22  1  0
 21 18  1  0
 22 20  2  0
 23 24  1  0
 24 25  2  0
 26 29  1  0
 26 25  1  0
 27 26  2  0
 28 27  1  0
 28 23  2  0
 29 30  1  0
 30 31  1  0
 31 32  2  0
 33 32  1  0
 33 37  1  0
 34 33  2  0
 35 30  2  0
 35 34  1  0
 36 35  1  0
 38 39  1  0
 39 42  1  0
 39 41  1  0
 40 38  2  0
 43 44  1  0
 43 18  1  0
 45 43  1  0
 46  4  1  0
 46 47  1  0
 48 59  2  0
 49 47  1  0
 49 54  1  0
 50 58  1  0
 50 60  1  0
 51 57  1  0
 51 53  1  0
 52 58  1  0
 53 54  2  0
 53 52  1  0
 55 49  2  0
 56 55  1  0
 56 51  2  0
 57 50  1  0
 58 48  1  0
 60 62  2  0
 61 60  1  0
 63 61  1  0
 64 73  2  0
 64 69  1  0
 65 61  1  0
 65 69  1  0
 66 65  1  0
 67 68  1  0
 67 66  1  0
 68 64  1  0
 69 70  2  0
 70 71  1  0
 72 71  2  0
 73 72  1  0
 74 48  1  0
 74 75  1  0
 74 84  1  0
 75 78  1  0
 76 80  1  0
 76 75  1  0
 77 76  2  0
 80 79  1  0
 82 83  1  0
 82 80  1  0
 82 81  1  0
 84 87  1  1
 84 85  1  0
 86 84  1  0
M  ISO  4   8 100  16 100  46 101  47 101
M  END
>  <TORSDO>  (83) 
F 17

>  <SCORE>  (83) 
-16.741

>  <name>  (83) 
82

>  <ligand_id>  (83) 
82

>  <original_smiles>  (83) 
[H]c1c([H])c([H])c2c(c1[H])C([H])([H])C([H])([H])C([H])([H])C2([H])N([H])C(=O)C1([H])N(C(=O)C([H])(N([H])C(=O)C([H])(N([H])C([H])([H])[H])C([H])([H])[H])C(C([H])([H])[H])(C([H])([H])[H])C([H])([H])[H])C([H])([H])c2c([H])c(OC([H])([H])c3c([H])c([H])c(N([H])C(=O)N4C([H])([H])C([H])([H])C([H])([H])C([H])(n5nc(-c6c([H])c([H])c(Oc7c([H])c([H])c(F)c([H])c7F)c([H])c6[H])c(C(=O)N([H])[H])c5N([H])[H])C4([H])[H])c(F)c3[H])c([H])c([H])c2C1([H])[H]

>  <smiles>  (83) 
[H]c1c([H])c([H])c2c(c1[H])C([H])([H])C([H])([H])C([H])([H])C2([H])N([H])C(=O)C1([H])N(C(=O)C([H])(N([H])C(=O)C([H])(N([H])C([H])([H])[H])C([H])([H])[H])C(C([H])([H])[H])(C([H])([H])[H])C([H])([H])[H])C([H])([H])c2c([H])c(OC([H])([H])c3c([H])c([H])c(N([H])C(=O)N4C([H])([H])C([H])([H])C([H])([H])C([H])(n5nc(-c6c([H])c([H])c(Oc7c([H])c([H])c(F)c([H])c7F)c([H])c6[H])c(C(=O)N([H])[H])c5N([H])[H])C4([H])[H])c(F)c3[H])c([H])c([H])c2C1([H])[H]

$$$$
83:0:0
     RDKit          3D

 93101  0  0  1  0  0  0  0  0999 V2000
  -29.4150  -23.1540   20.3910 C   0  0  0  0  0  0  0  0  0  0  0  0
  -27.6820  -21.3980   20.1780 C   0  0  0  0  0  1  0  0  0  0  0  0
  -29.0440  -21.8380   20.4910 N   0  0  0  0  0  0  0  0  0  0  0  0
  -30.5870  -23.5110   20.5600 O   0  0  0  0  0  0  0  0  0  0  0  0
  -29.8900  -20.7610   21.0810 C   0  0  0  0  0  2  0  0  0  0  0  0
  -30.3000  -19.5620   18.8650 C   0  0  0  0  0  3  0  0  0  0  0  0
  -30.4600  -17.1280   18.7190 C   0  0  0  0  0  3  0  0  0  0  0  0
  -29.9820  -18.1840   20.8590 C   0  0  0  0  0  3  0  0  0  0  0  0
  -30.4940  -18.3950   18.0980 C   0  0  0  0  0  0  0  0  0  0  0  0
  -30.0520  -19.4720   20.2520 C   0  0  0  0  0  0  0  0  0  0  0  0
  -30.1900  -16.9940   20.1090 C   0  0  0  0  0  0  0  0  0  0  0  0
  -30.7410  -18.5050   16.6010 C   0  0  0  0  0  1  0  0  0  0  0  0
  -30.7380  -14.5780   20.3760 C   0  0  0  0  0  0  0  0  0  0  0  0
  -30.3920  -12.3840   19.3250 C   0  0  0  0  0  2  0  0  0  0  0  0
  -29.4640  -12.5760   18.1110 C   0  0  0  0  0  2  0  0  0  0  0  0
  -27.9830  -12.4790   18.5240 C   0  0  0  0  0  2  0  0  0  0  0  0
  -27.6510  -13.3180   19.7860 C   0  0  0  0  0  3  0  0  0  0  0  0
  -28.7130  -13.1380   20.8940 C   0  0  0  0  0  2  0  0  0  0  0  0
  -30.0390  -13.4080   20.3210 N   0  0  0  0  0  0  0  0  0  0  0  0
  -31.8970  -14.6760   19.9740 O   0  0  0  0  0  0  0  0  0  0  0  0
  -30.0470  -15.6930   20.7190 N   0  0  0  0  0  0  0  0  0  0  0  0
  -29.2130  -15.5420   21.2640 H   0  0  0  0  0  0  0  0  0  0  0  0
  -25.2570  -13.9400   20.4820 C   0  0  0  0  0  0  0  0  0  0  0  0
  -24.1850  -13.1740   20.8580 C   0  0  0  0  0  0  0  0  0  0  0  0
  -24.6350  -11.8200   20.8380 C   0  0  0  0  0  0  0  0  0  0  0  0
  -26.2980  -13.0490   20.2700 N   0  0  0  0  0  0  0  0  0  0  0  0
  -25.9310  -11.7720   20.5480 N   0  0  0  0  0  0  0  0  0  0  0  0
  -23.8990  -10.5620   21.0330 C   0  0  0  0  0  0  0  0  0  0  0  0
  -24.3330   -9.5920   21.9640 C   0  0  0  0  0  3  0  0  0  0  0  0
  -23.6010   -8.4000   22.1520 C   0  0  0  0  0  3  0  0  0  0  0  0
  -22.4180   -8.1690   21.4070 C   0  0  0  0  0  0  0  0  0  0  0  0
  -22.0020   -9.1270   20.4660 C   0  0  0  0  0  3  0  0  0  0  0  0
  -22.7340  -10.3110   20.2780 C   0  0  0  0  0  3  0  0  0  0  0  0
  -21.6590   -7.0260   21.5000 O   0  0  0  0  0  0  0  0  0  0  0  0
  -21.6250   -6.2740   22.6470 C   0  0  0  0  0  0  0  0  0  0  0  0
  -21.2380   -6.8240   23.8890 C   0  0  0  0  0  3  0  0  0  0  0  0
  -21.1570   -6.0000   25.0300 C   0  0  0  0  0  3  0  0  0  0  0  0
  -21.4480   -4.6270   24.9270 C   0  0  0  0  0  0  0  0  0  0  0  0
  -21.8280   -4.0760   23.6900 C   0  0  0  0  0  3  0  0  0  0  0  0
  -21.9120   -4.8980   22.5530 C   0  0  0  0  0  0  0  0  0  0  0  0
  -22.2580   -4.3580   21.3600 F   0  0  0  0  0  0  0  0  0  0  0  0
  -21.3600   -3.8330   26.0200 F   0  0  0  0  0  0  0  0  0  0  0  0
  -22.7880  -13.6590   21.1150 C   0  0  0  0  0  0  0  0  0  0  0  0
  -22.0520  -12.9760   21.9850 N   0  0  0  0  0  0  0  0  0  0  0  0
  -22.3560  -14.6790   20.5800 O   0  0  0  0  0  0  0  0  0  0  0  0
  -22.4100  -12.1520   22.4460 H   0  0  0  0  0  0  0  0  0  0  0  0
  -21.1130  -13.2830   22.1940 H   0  0  0  0  0  0  0  0  0  0  0  0
  -25.4390  -15.3060   20.2820 N   0  0  0  0  0  0  0  0  0  0  0  0
  -24.6860  -15.9820   20.3550 H   0  0  0  0  0  0  0  0  0  0  0  0
  -26.2970  -15.7120   19.9280 H   0  0  0  0  0  0  0  0  0  0  0  0
  -28.3140  -24.2390   20.1540 C   0  0  0  0  0  2  0  0  0  0  0  0
  -28.7100  -25.5730   19.4450 C   0  0  0  0  0  2  0  0  0  0  0  0
  -28.4510  -26.7750   20.1930 O   0  0  0  0  0  0  0  0  0  0  0  0
  -24.5690  -31.8870   23.2300 C   0  0  0  0  0  0  0  0  0  0  0  0
  -27.2370  -27.4410   20.1460 C   0  0  0  0  0  0  0  0  0  0  0  0
  -23.3600  -30.4690   21.6050 C   0  0  0  0  0  3  0  0  0  0  0  0
  -24.8100  -28.9230   20.1740 C   0  0  0  0  0  0  0  0  0  0  0  0
  -25.8770  -30.8380   21.3820 C   0  0  0  0  0  2  0  0  0  0  0  0
  -25.9640  -29.4620   20.7520 C   0  0  0  0  0  0  0  0  0  0  0  0
  -27.1730  -28.7280   20.7330 C   0  0  0  0  0  3  0  0  0  0  0  0
  -26.0610  -26.9140   19.5640 C   0  0  0  0  0  3  0  0  0  0  0  0
  -24.8530  -27.6460   19.5830 C   0  0  0  0  0  3  0  0  0  0  0  0
  -23.5560  -29.7740   20.2280 C   0  0  0  0  0  2  0  0  0  0  0  0
  -24.6210  -31.0840   22.1280 N   0  0  0  0  0  0  0  0  0  0  0  0
  -23.4900  -32.1570   23.7760 O   0  0  0  0  0  0  0  0  0  0  0  0
  -22.7210  -29.4550   22.5790 C   0  0  0  0  0  0  0  0  0  0  0  0
  -21.3980  -29.2620   22.4470 N   0  0  0  0  0  0  0  0  0  0  0  0
  -23.4090  -28.8440   23.4000 O   0  0  0  0  0  0  0  0  0  0  0  0
  -20.9110  -29.8110   21.7530 H   0  0  0  0  0  0  0  0  0  0  0  0
  -18.0320  -28.0390   22.9340 C   0  0  0  0  0  0  0  0  0  0  0  0
  -20.5860  -28.3210   23.2180 C   0  0  0  0  0  3  0  0  0  0  0  0
  -20.7020  -26.8890   22.6480 C   0  0  0  0  0  2  0  0  0  0  0  0
  -19.6080  -26.5510   21.6310 C   0  0  0  0  0  2  0  0  0  0  0  0
  -18.2230  -26.6870   22.2680 C   0  0  0  0  0  2  0  0  0  0  0  0
  -19.1410  -28.8150   23.3640 C   0  0  0  0  0  0  0  0  0  0  0  0
  -18.9100  -30.0810   23.9440 C   0  0  0  0  0  3  0  0  0  0  0  0
  -17.6000  -30.5720   24.0980 C   0  0  0  0  0  3  0  0  0  0  0  0
  -16.5040  -29.7930   23.6850 C   0  0  0  0  0  3  0  0  0  0  0  0
  -16.7220  -28.5280   23.1130 C   0  0  0  0  0  3  0  0  0  0  0  0
  -25.8580  -32.5220   23.8440 C   0  0  0  0  0  3  0  0  0  0  0  0
  -26.3800  -31.7590   25.1240 C   0  0  1  0  0  0  0  0  0  0  0  0
  -25.2920  -31.5260   26.1990 C   0  0  0  0  0  1  0  0  0  0  0  0
  -26.9600  -30.3800   24.7340 C   0  0  0  0  0  1  0  0  0  0  0  0
  -27.5360  -32.5560   25.7720 C   0  0  0  0  0  1  0  0  0  0  0  0
  -25.5490  -33.9230   24.1620 N   0  0  0  0  0  0  0  0  0  0  0  0
  -25.8900  -34.9720   23.4000 C   0  0  0  0  0  0  0  0  0  0  0  0
  -26.5660  -34.8610   22.3750 O   0  0  0  0  0  0  0  0  0  0  0  0
  -24.9410  -34.0780   24.9530 H   0  0  0  0  0  0  0  0  0  0  0  0
  -24.1620  -36.7610   23.0250 C   0  0  0  0  0  1  0  0  0  0  0  0
  -25.4010  -36.3640   23.8450 C   0  0  0  0  0  3  0  0  0  0  0  0
  -27.5390  -37.2480   24.6740 C   0  0  0  0  0  1  0  0  0  0  0  0
  -26.4380  -37.4140   23.7280 N   0  0  0  0  0  0  0  0  0  0  0  0
  -26.0370  -38.3380   23.8670 H   0  0  0  0  0  0  0  0  0  0  0  0
  1  3  1  0
  1  4  2  0
  2  3  1  0
  3  5  1  0
  6 10  1  0
  7 11  2  0
  9  7  1  0
  9  6  2  0
 10  8  2  0
 10  5  1  0
 11 21  1  0
 11  8  1  0
 12  9  1  0
 13 21  1  0
 14 19  1  0
 15 16  1  0
 15 14  1  0
 17 16  1  0
 17 26  1  0
 17 18  1  0
 19 13  1  0
 19 18  1  0
 20 13  2  0
 21 22  1  0
 23 24  2  0
 24 43  1  0
 25 24  1  0
 25 28  1  0
 26 23  1  0
 26 27  1  0
 27 25  2  0
 28 29  1  0
 29 30  2  0
 31 34  1  0
 31 30  1  0
 32 31  2  0
 33 32  1  0
 33 28  2  0
 34 35  1  0
 35 36  1  0
 36 37  2  0
 38 37  1  0
 38 42  1  0
 39 38  2  0
 40 35  2  0
 40 39  1  0
 41 40  1  0
 43 44  1  0
 44 47  1  0
 44 46  1  0
 45 43  2  0
 48 49  1  0
 48 23  1  0
 50 48  1  0
 51  1  1  0
 52 51  1  0
 52 53  1  0
 54 65  2  0
 55 53  1  0
 55 60  1  0
 56 64  1  0
 56 66  1  0
 57 63  1  0
 57 59  1  0
 58 64  1  0
 59 58  1  0
 60 59  2  0
 61 62  1  0
 61 55  2  0
 62 57  2  0
 63 56  1  0
 64 54  1  0
 66 68  2  0
 67 66  1  0
 69 67  1  0
 70 79  2  0
 70 75  1  0
 71 67  1  0
 71 75  1  0
 72 71  1  0
 73 74  1  0
 73 72  1  0
 74 70  1  0
 75 76  2  0
 76 77  1  0
 78 77  2  0
 79 78  1  0
 80 54  1  0
 80 85  1  0
 80 81  1  0
 81 84  1  1
 81 82  1  0
 83 81  1  0
 85 88  1  0
 86 90  1  0
 86 85  1  0
 87 86  2  0
 90 89  1  0
 92 90  1  0
 92 93  1  0
 92 91  1  0
M  ISO  4  13 100  21 100  52 101  53 101
M  END
>  <TORSDO>  (84) 
F 20

>  <SCORE>  (84) 
-13.918

>  <name>  (84) 
83

>  <ligand_id>  (84) 
83

>  <original_smiles>  (84) 
[H]c1c([H])c([H])c2c(c1[H])C([H])([H])C([H])([H])C([H])([H])C2([H])N([H])C(=O)C1([H])N(C(=O)C([H])(N([H])C(=O)C([H])(N([H])C([H])([H])[H])C([H])([H])[H])C(C([H])([H])[H])(C([H])([H])[H])C([H])([H])[H])C([H])([H])c2c([H])c(OC([H])([H])C([H])([H])C(=O)N(C([H])([H])[H])C([H])([H])c3c([H])c(N([H])C(=O)N4C([H])([H])C([H])([H])C([H])([H])C([H])(n5nc(-c6c([H])c([H])c(Oc7c([H])c([H])c(F)c([H])c7F)c([H])c6[H])c(C(=O)N([H])[H])c5N([H])[H])C4([H])[H])c([H])c(C([H])([H])[H])c3[H])c([H])c([H])c2C1([H])[H]

>  <smiles>  (84) 
[H]c1c([H])c([H])c2c(c1[H])C([H])([H])C([H])([H])C([H])([H])C2([H])N([H])C(=O)C1([H])N(C(=O)C([H])(N([H])C(=O)C([H])(N([H])C([H])([H])[H])C([H])([H])[H])C(C([H])([H])[H])(C([H])([H])[H])C([H])([H])[H])C([H])([H])c2c([H])c(OC([H])([H])C([H])([H])C(=O)N(C([H])([H])[H])C([H])([H])c3c([H])c(N([H])C(=O)N4C([H])([H])C([H])([H])C([H])([H])C([H])(n5nc(-c6c([H])c([H])c(Oc7c([H])c([H])c(F)c([H])c7F)c([H])c6[H])c(C(=O)N([H])[H])c5N([H])[H])C4([H])[H])c([H])c(C([H])([H])[H])c3[H])c([H])c([H])c2C1([H])[H]

$$$$
84:0:0
     RDKit          3D

 92100  0  0  1  0  0  0  0  0999 V2000
  -28.8800  -22.0570   18.4510 C   0  0  0  0  0  1  0  0  0  0  0  0
  -28.8590  -22.2670   19.9200 N   0  0  1  0  0  4  0  0  0  0  0  0
  -27.9010  -22.1230   20.1990 H   0  0  0  0  0  0  0  0  0  0  0  0
  -29.6150  -21.1190   20.6290 C   0  0  0  0  0  2  0  0  0  0  0  0
  -27.4300  -17.9980   19.7330 C   0  0  0  0  0  3  0  0  0  0  0  0
  -27.8660  -19.3170   19.9610 C   0  0  0  0  0  3  0  0  0  0  0  0
  -28.2780  -16.8970   19.9590 C   0  0  0  0  0  3  0  0  0  0  0  0
  -30.0350  -18.4270   20.6100 C   0  0  0  0  0  3  0  0  0  0  0  0
  -29.1860  -19.5930   20.3800 C   0  0  0  0  0  0  0  0  0  0  0  0
  -29.5980  -17.0450   20.4150 C   0  0  0  0  0  0  0  0  0  0  0  0
  -30.6680  -14.7060   20.0380 C   0  0  0  0  0  0  0  0  0  0  0  0
  -30.2550  -12.4600   19.0060 C   0  0  0  0  0  2  0  0  0  0  0  0
  -29.2570  -12.5150   17.8330 C   0  0  0  0  0  2  0  0  0  0  0  0
  -27.8260  -12.3160   18.3530 C   0  0  0  0  0  2  0  0  0  0  0  0
  -27.5150  -13.2430   19.5520 C   0  0  0  0  0  3  0  0  0  0  0  0
  -28.6360  -13.2400   20.6250 C   0  0  0  0  0  2  0  0  0  0  0  0
  -29.9160  -13.5450   19.9680 N   0  0  0  0  0  0  0  0  0  0  0  0
  -31.7490  -14.7410   19.4440 O   0  0  0  0  0  0  0  0  0  0  0  0
  -31.3080  -16.0390   21.8920 C   0  0  0  0  0  1  0  0  0  0  0  0
  -30.3250  -15.8090   20.8240 N   0  0  0  0  0  0  0  0  0  0  0  0
  -25.1870  -13.8630   20.4460 C   0  0  0  0  0  0  0  0  0  0  0  0
  -24.1360  -13.1000   20.8700 C   0  0  0  0  0  0  0  0  0  0  0  0
  -24.5780  -11.7440   20.7870 C   0  0  0  0  0  0  0  0  0  0  0  0
  -26.2020  -12.9740   20.1270 N   0  0  0  0  0  0  0  0  0  0  0  0
  -25.8450  -11.6920   20.4000 N   0  0  0  0  0  0  0  0  0  0  0  0
  -23.8430  -10.4910   20.9940 C   0  0  0  0  0  0  0  0  0  0  0  0
  -24.3010   -9.5060   21.8970 C   0  0  0  0  0  3  0  0  0  0  0  0
  -23.5650   -8.3180   22.0900 C   0  0  0  0  0  3  0  0  0  0  0  0
  -22.3560   -8.1090   21.3830 C   0  0  0  0  0  0  0  0  0  0  0  0
  -21.9190   -9.0820   20.4690 C   0  0  0  0  0  3  0  0  0  0  0  0
  -22.6560  -10.2620   20.2720 C   0  0  0  0  0  3  0  0  0  0  0  0
  -21.5880   -6.9750   21.4920 O   0  0  0  0  0  0  0  0  0  0  0  0
  -21.5680   -6.2290   22.6430 C   0  0  0  0  0  0  0  0  0  0  0  0
  -21.1790   -6.7820   23.8830 C   0  0  0  0  0  3  0  0  0  0  0  0
  -21.1030   -5.9630   25.0260 C   0  0  0  0  0  3  0  0  0  0  0  0
  -21.4080   -4.5910   24.9320 C   0  0  0  0  0  0  0  0  0  0  0  0
  -21.7900   -4.0380   23.6970 C   0  0  0  0  0  3  0  0  0  0  0  0
  -21.8650   -4.8550   22.5560 C   0  0  0  0  0  0  0  0  0  0  0  0
  -22.2140   -4.3120   21.3640 F   0  0  0  0  0  0  0  0  0  0  0  0
  -21.3280   -3.8020   26.0300 F   0  0  0  0  0  0  0  0  0  0  0  0
  -22.7660  -13.5960   21.2300 C   0  0  0  0  0  0  0  0  0  0  0  0
  -22.0800  -12.8950   22.1260 N   0  0  0  0  0  0  0  0  0  0  0  0
  -22.3170  -14.6390   20.7560 O   0  0  0  0  0  0  0  0  0  0  0  0
  -22.4570  -12.0510   22.5300 H   0  0  0  0  0  0  0  0  0  0  0  0
  -21.1610  -13.2060   22.4110 H   0  0  0  0  0  0  0  0  0  0  0  0
  -25.3420  -15.2340   20.2800 N   0  0  0  0  0  0  0  0  0  0  0  0
  -24.5920  -15.8830   20.4900 H   0  0  0  0  0  0  0  0  0  0  0  0
  -26.1480  -15.6830   19.8710 H   0  0  0  0  0  0  0  0  0  0  0  0
  -29.1630  -23.7430   20.3210 C   0  0  0  0  0  2  0  0  0  0  0  0
  -28.7680  -25.2800   18.2100 C   0  0  0  0  0  1  0  0  0  0  0  0
  -28.3180  -24.9810   19.6580 C   0  0  0  0  0  3  0  0  0  0  0  0
  -28.3400  -26.3630   20.2650 O   0  0  0  0  0  0  0  0  0  0  0  0
  -24.6360  -31.8570   23.2330 C   0  0  0  0  0  0  0  0  0  0  0  0
  -27.2270  -27.2450   20.1780 C   0  0  0  0  0  0  0  0  0  0  0  0
  -23.4240  -30.4620   21.5980 C   0  0  0  0  0  3  0  0  0  0  0  0
  -24.8670  -28.9030   20.1680 C   0  0  0  0  0  0  0  0  0  0  0  0
  -25.9670  -30.7550   21.4150 C   0  0  0  0  0  2  0  0  0  0  0  0
  -26.0410  -29.3740   20.7670 C   0  0  0  0  0  0  0  0  0  0  0  0
  -27.2200  -28.5570   20.7640 C   0  0  0  0  0  3  0  0  0  0  0  0
  -26.0210  -26.8480   19.5460 C   0  0  0  0  0  3  0  0  0  0  0  0
  -24.8630  -27.6460   19.5510 C   0  0  0  0  0  3  0  0  0  0  0  0
  -23.6370  -29.7870   20.2180 C   0  0  0  0  0  2  0  0  0  0  0  0
  -24.6950  -31.0440   22.1380 N   0  0  0  0  0  0  0  0  0  0  0  0
  -23.5540  -32.1420   23.7690 O   0  0  0  0  0  0  0  0  0  0  0  0
  -22.7600  -29.4470   22.5580 C   0  0  0  0  0  0  0  0  0  0  0  0
  -21.4320  -29.2730   22.4340 N   0  0  0  0  0  0  0  0  0  0  0  0
  -23.4370  -28.8220   23.3780 O   0  0  0  0  0  0  0  0  0  0  0  0
  -20.9440  -29.8290   21.7450 H   0  0  0  0  0  0  0  0  0  0  0  0
  -18.0570  -28.0750   22.9440 C   0  0  0  0  0  0  0  0  0  0  0  0
  -20.6160  -28.3370   23.2100 C   0  0  0  0  0  3  0  0  0  0  0  0
  -20.7190  -26.9040   22.6410 C   0  0  0  0  0  2  0  0  0  0  0  0
  -19.6180  -26.5750   21.6290 C   0  0  0  0  0  2  0  0  0  0  0  0
  -18.2350  -26.7240   22.2720 C   0  0  0  0  0  2  0  0  0  0  0  0
  -19.1760  -28.8400   23.3710 C   0  0  0  0  0  0  0  0  0  0  0  0
  -18.9580  -30.1050   23.9590 C   0  0  0  0  0  3  0  0  0  0  0  0
  -17.6530  -30.6050   24.1260 C   0  0  0  0  0  3  0  0  0  0  0  0
  -16.5490  -29.8370   23.7160 C   0  0  0  0  0  3  0  0  0  0  0  0
  -16.7520  -28.5750   23.1300 C   0  0  0  0  0  3  0  0  0  0  0  0
  -25.9210  -32.4890   23.8510 C   0  0  0  0  0  3  0  0  0  0  0  0
  -26.4430  -31.7170   25.1260 C   0  0  1  0  0  0  0  0  0  0  0  0
  -25.3540  -31.4780   26.1980 C   0  0  0  0  0  1  0  0  0  0  0  0
  -27.0260  -30.3390   24.7360 C   0  0  0  0  0  1  0  0  0  0  0  0
  -27.5950  -32.5140   25.7830 C   0  0  0  0  0  1  0  0  0  0  0  0
  -25.6130  -33.8870   24.1890 N   0  0  0  0  0  0  0  0  0  0  0  0
  -25.9230  -34.9410   23.4240 C   0  0  0  0  0  0  0  0  0  0  0  0
  -26.5680  -34.8410   22.3770 O   0  0  0  0  0  0  0  0  0  0  0  0
  -25.0460  -34.0430   25.0090 H   0  0  0  0  0  0  0  0  0  0  0  0
  -24.1730  -36.7250   23.1240 C   0  0  0  0  0  1  0  0  0  0  0  0
  -25.4410  -36.3270   23.8970 C   0  0  0  0  0  3  0  0  0  0  0  0
  -27.5910  -37.2310   24.6630 C   0  0  0  0  0  1  0  0  0  0  0  0
  -26.4620  -37.3870   23.7520 N   0  0  0  0  0  0  0  0  0  0  0  0
  -26.0540  -38.3030   23.9100 H   0  0  0  0  0  0  0  0  0  0  0  0
  1  2  1  0
  2  3  1  1
  2 49  1  0
  2  4  1  0
  5  7  2  0
  5  6  1  0
  6  9  2  0
  7 10  1  0
  9  8  1  0
  9  4  1  0
 10  8  2  0
 10 20  1  0
 11 20  1  0
 12 17  1  0
 13 14  1  0
 13 12  1  0
 15 14  1  0
 15 24  1  0
 15 16  1  0
 17 11  1  0
 17 16  1  0
 18 11  2  0
 20 19  1  0
 21 22  2  0
 22 41  1  0
 23 22  1  0
 23 26  1  0
 24 25  1  0
 24 21  1  0
 25 23  2  0
 26 27  1  0
 27 28  2  0
 29 32  1  0
 29 28  1  0
 30 29  2  0
 31 30  1  0
 31 26  2  0
 32 33  1  0
 33 34  1  0
 34 35  2  0
 36 35  1  0
 36 40  1  0
 37 36  2  0
 38 33  2  0
 38 37  1  0
 39 38  1  0
 41 42  1  0
 42 45  1  0
 42 44  1  0
 43 41  2  0
 46 21  1  0
 46 47  1  0
 48 46  1  0
 51 50  1  0
 51 52  1  0
 51 49  1  0
 53 64  2  0
 54 52  1  0
 54 59  1  0
 55 63  1  0
 55 65  1  0
 56 62  1  0
 56 58  1  0
 57 63  1  0
 58 57  1  0
 59 58  2  0
 60 61  1  0
 60 54  2  0
 61 56  2  0
 62 55  1  0
 63 53  1  0
 65 67  2  0
 66 65  1  0
 68 66  1  0
 69 78  2  0
 69 74  1  0
 70 66  1  0
 70 74  1  0
 71 70  1  0
 72 73  1  0
 72 71  1  0
 73 69  1  0
 74 75  2  0
 75 76  1  0
 77 76  2  0
 78 77  1  0
 79 53  1  0
 79 84  1  0
 79 80  1  0
 80 83  1  1
 80 81  1  0
 82 80  1  0
 84 87  1  0
 85 89  1  0
 85 84  1  0
 86 85  2  0
 89 88  1  0
 91 89  1  0
 91 92  1  0
 91 90  1  0
M  ISO  4  11 100  20 100  51 101  52 101
M  END
>  <TORSDO>  (85) 
F 20

>  <SCORE>  (85) 
-13.997

>  <name>  (85) 
84

>  <ligand_id>  (85) 
84

>  <original_smiles>  (85) 
[H]c1c([H])c([H])c2c(c1[H])C([H])([H])C([H])([H])C([H])([H])C2([H])N([H])C(=O)C1([H])N(C(=O)C([H])(N([H])C(=O)C([H])(N([H])C([H])([H])[H])C([H])([H])[H])C(C([H])([H])[H])(C([H])([H])[H])C([H])([H])[H])C([H])([H])c2c([H])c(OC([H])(C([H])([H])[H])C([H])([H])[N+]([H])(C([H])([H])[H])C([H])([H])c3c([H])c([H])c([H])c(N(C(=O)N4C([H])([H])C([H])([H])C([H])([H])C([H])(n5nc(-c6c([H])c([H])c(Oc7c([H])c([H])c(F)c([H])c7F)c([H])c6[H])c(C(=O)N([H])[H])c5N([H])[H])C4([H])[H])C([H])([H])[H])c3[H])c([H])c([H])c2C1([H])[H]

>  <smiles>  (85) 
[H]c1c([H])c([H])c2c(c1[H])C([H])([H])C([H])([H])C([H])([H])C2([H])N([H])C(=O)C1([H])N(C(=O)C([H])(N([H])C(=O)C([H])(N([H])C([H])([H])[H])C([H])([H])[H])C(C([H])([H])[H])(C([H])([H])[H])C([H])([H])[H])C([H])([H])c2c([H])c(OC([H])(C([H])([H])[H])C([H])([H])[N+]([H])(C([H])([H])[H])C([H])([H])c3c([H])c([H])c([H])c(N(C(=O)N4C([H])([H])C([H])([H])C([H])([H])C([H])(n5nc(-c6c([H])c([H])c(Oc7c([H])c([H])c(F)c([H])c7F)c([H])c6[H])c(C(=O)N([H])[H])c5N([H])[H])C4([H])[H])C([H])([H])[H])c3[H])c([H])c([H])c2C1([H])[H]

$$$$
85:0:0
     RDKit          3D

 92101  0  0  1  0  0  0  0  0999 V2000
  -28.6090  -23.5370   18.9490 C   0  0  0  0  0  2  0  0  0  0  0  0
  -28.4740  -21.9980   18.8640 C   0  0  0  0  0  2  0  0  0  0  0  0
  -28.6120  -22.6380   21.1580 C   0  0  0  0  0  2  0  0  0  0  0  0
  -28.0740  -23.8900   20.3370 C   0  0  0  0  0  3  0  0  0  0  0  0
  -28.6700  -21.4860   20.2190 N   0  0  0  0  0  0  0  0  0  0  0  0
  -28.1770  -19.1050   19.7910 C   0  0  0  0  0  3  0  0  0  0  0  0
  -28.5040  -17.7210   19.8030 C   0  0  0  0  0  3  0  0  0  0  0  0
  -30.4280  -18.1660   21.1630 C   0  0  0  0  0  3  0  0  0  0  0  0
  -28.9720  -20.0860   20.4340 C   0  0  0  0  0  0  0  0  0  0  0  0
  -29.6650  -17.2020   20.4400 C   0  0  0  0  0  0  0  0  0  0  0  0
  -30.0870  -19.5670   21.1660 C   0  0  0  0  0  0  0  0  0  0  0  0
  -30.9070  -20.4300   21.8180 F   0  0  0  0  0  0  0  0  0  0  0  0
  -30.7680  -14.8340   20.7570 C   0  0  0  0  0  0  0  0  0  0  0  0
  -30.6760  -12.5030   19.8870 C   0  0  0  0  0  2  0  0  0  0  0  0
  -29.8160  -12.4290   18.6050 C   0  0  0  0  0  2  0  0  0  0  0  0
  -28.3100  -12.3430   18.9270 C   0  0  0  0  0  2  0  0  0  0  0  0
  -27.8490  -13.2900   20.0690 C   0  0  0  0  0  3  0  0  0  0  0  0
  -28.8310  -13.2850   21.2570 C   0  0  0  0  0  2  0  0  0  0  0  0
  -30.1570  -13.6050   20.7220 N   0  0  0  0  0  0  0  0  0  0  0  0
  -32.0010  -14.9070   20.7800 O   0  0  0  0  0  0  0  0  0  0  0  0
  -30.3140  -15.7670   18.6110 C   0  0  0  0  0  1  0  0  0  0  0  0
  -30.0870  -15.8330   20.0680 N   0  0  0  0  0  0  0  0  0  0  0  0
  -25.4120  -13.8760   20.6220 C   0  0  0  0  0  0  0  0  0  0  0  0
  -24.3280  -13.1000   20.9260 C   0  0  0  0  0  0  0  0  0  0  0  0
  -24.8050  -11.7540   20.9670 C   0  0  0  0  0  0  0  0  0  0  0  0
  -26.4790  -13.0030   20.4850 N   0  0  0  0  0  0  0  0  0  0  0  0
  -26.1150  -11.7240   20.7620 N   0  0  0  0  0  0  0  0  0  0  0  0
  -24.0800  -10.4880   21.1330 C   0  0  0  0  0  0  0  0  0  0  0  0
  -24.4710   -9.5320   22.0960 C   0  0  0  0  0  3  0  0  0  0  0  0
  -23.7440   -8.3310   22.2480 C   0  0  0  0  0  3  0  0  0  0  0  0
  -22.6140   -8.0770   21.4360 C   0  0  0  0  0  0  0  0  0  0  0  0
  -22.2440   -9.0220   20.4620 C   0  0  0  0  0  3  0  0  0  0  0  0
  -22.9700  -10.2130   20.3080 C   0  0  0  0  0  3  0  0  0  0  0  0
  -21.8630   -6.9270   21.4960 O   0  0  0  0  0  0  0  0  0  0  0  0
  -21.7760   -6.1840   22.6460 C   0  0  0  0  0  0  0  0  0  0  0  0
  -21.3170   -6.7410   23.8610 C   0  0  0  0  0  3  0  0  0  0  0  0
  -21.1760   -5.9240   25.0010 C   0  0  0  0  0  3  0  0  0  0  0  0
  -21.4860   -4.5530   24.9280 C   0  0  0  0  0  0  0  0  0  0  0  0
  -21.9390   -3.9970   23.7200 C   0  0  0  0  0  3  0  0  0  0  0  0
  -22.0810   -4.8090   22.5810 C   0  0  0  0  0  0  0  0  0  0  0  0
  -22.4970   -4.2630   21.4140 F   0  0  0  0  0  0  0  0  0  0  0  0
  -21.3450   -3.7670   26.0220 F   0  0  0  0  0  0  0  0  0  0  0  0
  -22.9090  -13.5680   21.0780 C   0  0  0  0  0  0  0  0  0  0  0  0
  -22.1260  -12.8850   21.9050 N   0  0  0  0  0  0  0  0  0  0  0  0
  -22.5020  -14.5740   20.4990 O   0  0  0  0  0  0  0  0  0  0  0  0
  -22.4660  -12.0690   22.3910 H   0  0  0  0  0  0  0  0  0  0  0  0
  -21.1740  -13.1860   22.0570 H   0  0  0  0  0  0  0  0  0  0  0  0
  -25.5840  -15.2440   20.4260 N   0  0  0  0  0  0  0  0  0  0  0  0
  -24.8230  -15.9100   20.4880 H   0  0  0  0  0  0  0  0  0  0  0  0
  -26.4730  -15.6780   20.2190 H   0  0  0  0  0  0  0  0  0  0  0  0
  -28.3860  -25.3590   20.8810 C   0  0  0  0  0  2  0  0  0  0  0  0
  -28.2950  -26.5660   20.0340 O   0  0  0  0  0  0  0  0  0  0  0  0
  -24.5550  -31.8890   23.1610 C   0  0  0  0  0  0  0  0  0  0  0  0
  -27.1550  -27.3670   20.0840 C   0  0  0  0  0  0  0  0  0  0  0  0
  -23.3380  -30.4860   21.5300 C   0  0  0  0  0  3  0  0  0  0  0  0
  -24.7800  -28.9410   20.0900 C   0  0  0  0  0  0  0  0  0  0  0  0
  -25.8680  -30.8290   21.3110 C   0  0  0  0  0  2  0  0  0  0  0  0
  -25.9500  -29.4490   20.6720 C   0  0  0  0  0  0  0  0  0  0  0  0
  -27.1440  -28.6740   20.6570 C   0  0  0  0  0  3  0  0  0  0  0  0
  -25.9720  -26.8990   19.4820 C   0  0  0  0  0  3  0  0  0  0  0  0
  -24.7930  -27.6720   19.4850 C   0  0  0  0  0  3  0  0  0  0  0  0
  -23.5360  -29.8040   20.1490 C   0  0  0  0  0  2  0  0  0  0  0  0
  -24.6080  -31.0860   22.0580 N   0  0  0  0  0  0  0  0  0  0  0  0
  -23.4790  -32.1620   23.7090 O   0  0  0  0  0  0  0  0  0  0  0  0
  -22.6940  -29.4670   22.4990 C   0  0  0  0  0  0  0  0  0  0  0  0
  -21.3670  -29.2890   22.3930 N   0  0  0  0  0  0  0  0  0  0  0  0
  -23.3880  -28.8360   23.3010 O   0  0  0  0  0  0  0  0  0  0  0  0
  -20.8680  -29.8520   21.7180 H   0  0  0  0  0  0  0  0  0  0  0  0
  -18.0000  -28.0900   22.9340 C   0  0  0  0  0  0  0  0  0  0  0  0
  -20.5610  -28.3470   23.1690 C   0  0  0  0  0  3  0  0  0  0  0  0
  -20.6540  -26.9190   22.5830 C   0  0  0  0  0  2  0  0  0  0  0  0
  -19.5380  -26.6010   21.5840 C   0  0  0  0  0  2  0  0  0  0  0  0
  -18.1650  -26.7440   22.2480 C   0  0  0  0  0  2  0  0  0  0  0  0
  -19.1240  -28.8490   23.3510 C   0  0  0  0  0  0  0  0  0  0  0  0
  -18.9150  -30.1090   23.9530 C   0  0  0  0  0  3  0  0  0  0  0  0
  -17.6130  -30.6100   24.1410 C   0  0  0  0  0  3  0  0  0  0  0  0
  -16.5020  -29.8470   23.7410 C   0  0  0  0  0  3  0  0  0  0  0  0
  -16.6960  -28.5890   23.1430 C   0  0  0  0  0  3  0  0  0  0  0  0
  -25.8440  -32.5240   23.7720 C   0  0  0  0  0  3  0  0  0  0  0  0
  -25.5280  -33.9150   24.1300 N   0  0  0  0  0  0  0  0  0  0  0  0
  -25.8460  -34.9830   23.3870 C   0  0  0  0  0  0  0  0  0  0  0  0
  -26.5100  -34.9040   22.3510 O   0  0  0  0  0  0  0  0  0  0  0  0
  -24.9430  -34.0520   24.9410 H   0  0  0  0  0  0  0  0  0  0  0  0
  -24.1100  -36.7760   23.0670 C   0  0  0  0  0  1  0  0  0  0  0  0
  -25.3510  -36.3610   23.8730 C   0  0  0  0  0  3  0  0  0  0  0  0
  -27.4840  -37.2330   24.7230 C   0  0  0  0  0  1  0  0  0  0  0  0
  -26.3800  -37.4190   23.7840 N   0  0  0  0  0  0  0  0  0  0  0  0
  -25.9710  -38.3340   23.9540 H   0  0  0  0  0  0  0  0  0  0  0  0
  -26.3880  -31.7390   25.0290 C   0  0  1  0  0  0  0  0  0  0  0  0
  -25.3130  -31.4810   26.1120 C   0  0  0  0  0  1  0  0  0  0  0  0
  -26.9740  -30.3720   24.6080 C   0  0  0  0  0  1  0  0  0  0  0  0
  -27.5430  -32.5340   25.6810 C   0  0  0  0  0  1  0  0  0  0  0  0
  1  4  1  0
  2  1  1  0
  2  5  1  0
  4 51  1  0
  4  3  1  0
  5  9  1  0
  5  3  1  0
  6  7  2  0
  6  9  1  0
  7 10  1  0
  8 11  1  0
  9 11  2  0
 10  8  2  0
 11 12  1  0
 13 20  2  0
 14 19  1  0
 15 16  1  0
 15 14  1  0
 17 16  1  0
 17 26  1  0
 17 18  1  0
 19 13  1  0
 19 18  1  0
 21 22  1  0
 22 10  1  0
 22 13  1  0
 23 24  2  0
 24 25  1  0
 24 43  1  0
 25 28  1  0
 26 23  1  0
 26 27  1  0
 27 25  2  0
 28 29  1  0
 29 30  2  0
 31 34  1  0
 31 30  1  0
 32 31  2  0
 33 32  1  0
 33 28  2  0
 34 35  1  0
 35 36  1  0
 36 37  2  0
 38 37  1  0
 38 42  1  0
 39 38  2  0
 40 35  2  0
 40 39  1  0
 41 40  1  0
 43 44  1  0
 44 47  1  0
 44 46  1  0
 45 43  2  0
 48 49  1  0
 48 23  1  0
 50 48  1  0
 52 54  1  0
 52 51  1  0
 53 64  2  0
 54 59  1  0
 55 63  1  0
 55 65  1  0
 56 62  1  0
 56 58  1  0
 57 63  1  0
 58 57  1  0
 59 58  2  0
 60 61  1  0
 60 54  2  0
 61 56  2  0
 62 55  1  0
 63 53  1  0
 65 67  2  0
 66 65  1  0
 68 66  1  0
 69 78  2  0
 69 74  1  0
 70 66  1  0
 70 74  1  0
 71 70  1  0
 72 73  1  0
 72 71  1  0
 73 69  1  0
 74 75  2  0
 75 76  1  0
 77 76  2  0
 78 77  1  0
 79 53  1  0
 79 80  1  0
 79 89  1  0
 80 83  1  0
 81 85  1  0
 81 80  1  0
 82 81  2  0
 85 84  1  0
 87 85  1  0
 87 88  1  0
 87 86  1  0
 89 92  1  1
 89 90  1  0
 91 89  1  0
M  ISO  4  13 100  22 100  51 101  52 101
M  END
>  <TORSDO>  (86) 
F 18

>  <SCORE>  (86) 
-14.593

>  <name>  (86) 
85

>  <ligand_id>  (86) 
85

>  <original_smiles>  (86) 
[H]c1c([H])c([H])c2c(c1[H])C([H])([H])C([H])([H])C([H])([H])C2([H])N([H])C(=O)C1([H])N(C(=O)C([H])(N([H])C(=O)C([H])(N([H])C([H])([H])[H])C([H])([H])[H])C(C([H])([H])[H])(C([H])([H])[H])C([H])([H])[H])C([H])([H])c2c([H])c(OC([H])([H])C3([H])C([H])([H])N(c4c([H])c([H])c(N(C(=O)N5C([H])([H])C([H])([H])C([H])([H])C([H])(n6nc(-c7c([H])c([H])c(Oc8c([H])c([H])c(F)c([H])c8F)c([H])c7[H])c(C(=O)N([H])[H])c6N([H])[H])C5([H])[H])C([H])([H])[H])c([H])c4F)C([H])([H])C3([H])[H])c([H])c([H])c2C1([H])[H]

>  <smiles>  (86) 
[H]c1c([H])c([H])c2c(c1[H])C([H])([H])C([H])([H])C([H])([H])C2([H])N([H])C(=O)C1([H])N(C(=O)C([H])(N([H])C(=O)C([H])(N([H])C([H])([H])[H])C([H])([H])[H])C(C([H])([H])[H])(C([H])([H])[H])C([H])([H])[H])C([H])([H])c2c([H])c(OC([H])([H])C3([H])C([H])([H])N(c4c([H])c([H])c(N(C(=O)N5C([H])([H])C([H])([H])C([H])([H])C([H])(n6nc(-c7c([H])c([H])c(Oc8c([H])c([H])c(F)c([H])c8F)c([H])c7[H])c(C(=O)N([H])[H])c6N([H])[H])C5([H])[H])C([H])([H])[H])c([H])c4F)C([H])([H])C3([H])[H])c([H])c([H])c2C1([H])[H]

$$$$
86:0:0
     RDKit          3D

 91 99  0  0  1  0  0  0  0  0999 V2000
  -29.9210  -21.5280   20.5150 N   0  0  0  0  0  0  0  0  0  0  0  0
  -30.8700  -21.8920   20.4630 H   0  0  0  0  0  0  0  0  0  0  0  0
  -28.6440  -17.9250   20.5540 C   0  0  0  0  0  3  0  0  0  0  0  0
  -28.6320  -19.3530   20.5230 C   0  0  0  0  0  3  0  0  0  0  0  0
  -31.0480  -17.9130   20.4490 C   0  0  0  0  0  3  0  0  0  0  0  0
  -29.8460  -17.1630   20.5210 C   0  0  0  0  0  0  0  0  0  0  0  0
  -29.8360  -20.0970   20.4830 C   0  0  0  0  0  0  0  0  0  0  0  0
  -31.0390  -19.3400   20.4380 C   0  0  0  0  0  0  0  0  0  0  0  0
  -32.2200  -20.0020   20.3870 F   0  0  0  0  0  0  0  0  0  0  0  0
  -30.5840  -14.6810   20.2080 C   0  0  0  0  0  0  0  0  0  0  0  0
  -30.3520  -12.4680   19.1010 C   0  0  0  0  0  2  0  0  0  0  0  0
  -29.3610  -12.6350   17.9260 C   0  0  0  0  0  2  0  0  0  0  0  0
  -27.9010  -12.4740   18.4040 C   0  0  0  0  0  2  0  0  0  0  0  0
  -27.5940  -13.3030   19.6790 C   0  0  0  0  0  3  0  0  0  0  0  0
  -28.6920  -13.0980   20.7460 C   0  0  0  0  0  2  0  0  0  0  0  0
  -29.9810  -13.4550   20.1330 N   0  0  0  0  0  0  0  0  0  0  0  0
  -31.7320  -14.8630   19.7900 O   0  0  0  0  0  0  0  0  0  0  0  0
  -29.7560  -15.7070   20.5930 N   0  0  0  0  0  0  0  0  0  0  0  0
  -28.8540  -15.3640   20.8800 H   0  0  0  0  0  0  0  0  0  0  0  0
  -25.2340  -13.9010   20.5030 C   0  0  0  0  0  0  0  0  0  0  0  0
  -24.1770  -13.1260   20.8990 C   0  0  0  0  0  0  0  0  0  0  0  0
  -24.6290  -11.7730   20.8170 C   0  0  0  0  0  0  0  0  0  0  0  0
  -26.2620  -13.0200   20.2060 N   0  0  0  0  0  0  0  0  0  0  0  0
  -25.9050  -11.7330   20.4500 N   0  0  0  0  0  0  0  0  0  0  0  0
  -23.9020  -10.5110   21.0020 C   0  0  0  0  0  0  0  0  0  0  0  0
  -24.3340   -9.5410   21.9330 C   0  0  0  0  0  3  0  0  0  0  0  0
  -23.6090   -8.3420   22.1080 C   0  0  0  0  0  3  0  0  0  0  0  0
  -22.4370   -8.1060   21.3500 C   0  0  0  0  0  0  0  0  0  0  0  0
  -22.0240   -9.0650   20.4080 C   0  0  0  0  0  3  0  0  0  0  0  0
  -22.7510  -10.2530   20.2330 C   0  0  0  0  0  3  0  0  0  0  0  0
  -21.6840   -6.9590   21.4320 O   0  0  0  0  0  0  0  0  0  0  0  0
  -21.5870   -6.2450   22.5980 C   0  0  0  0  0  0  0  0  0  0  0  0
  -21.0730   -6.8160   23.7840 C   0  0  0  0  0  3  0  0  0  0  0  0
  -20.9300   -6.0240   24.9410 C   0  0  0  0  0  3  0  0  0  0  0  0
  -21.2870   -4.6640   24.9140 C   0  0  0  0  0  0  0  0  0  0  0  0
  -21.7950   -4.0920   23.7340 C   0  0  0  0  0  3  0  0  0  0  0  0
  -21.9420   -4.8810   22.5790 C   0  0  0  0  0  0  0  0  0  0  0  0
  -22.4120   -4.3210   21.4390 F   0  0  0  0  0  0  0  0  0  0  0  0
  -21.1410   -3.9010   26.0230 F   0  0  0  0  0  0  0  0  0  0  0  0
  -22.7950  -13.6040   21.2350 C   0  0  0  0  0  0  0  0  0  0  0  0
  -22.0950  -12.8940   22.1130 N   0  0  0  0  0  0  0  0  0  0  0  0
  -22.3440  -14.6430   20.7560 O   0  0  0  0  0  0  0  0  0  0  0  0
  -22.4710  -12.0540   22.5270 H   0  0  0  0  0  0  0  0  0  0  0  0
  -21.1680  -13.1960   22.3760 H   0  0  0  0  0  0  0  0  0  0  0  0
  -25.3960  -15.2750   20.3510 N   0  0  0  0  0  0  0  0  0  0  0  0
  -24.6200  -15.9140   20.4890 H   0  0  0  0  0  0  0  0  0  0  0  0
  -26.1950  -15.7140   19.9140 H   0  0  0  0  0  0  0  0  0  0  0  0
  -28.8190  -22.5000   20.2830 C   0  0  0  0  0  2  0  0  0  0  0  0
  -29.2120  -24.0390   20.4150 C   0  0  0  0  0  3  0  0  0  0  0  0
  -28.0780  -25.0890   20.0710 C   0  0  0  0  0  3  0  0  0  0  0  0
  -28.3220  -26.5390   20.2230 O   0  0  0  0  0  0  0  0  0  0  0  0
  -24.5630  -31.8870   23.2470 C   0  0  0  0  0  0  0  0  0  0  0  0
  -27.2010  -27.3810   20.1620 C   0  0  0  0  0  0  0  0  0  0  0  0
  -23.3680  -30.5020   21.5870 C   0  0  0  0  0  3  0  0  0  0  0  0
  -24.8300  -28.9750   20.1500 C   0  0  0  0  0  0  0  0  0  0  0  0
  -25.9060  -30.8330   21.4170 C   0  0  0  0  0  2  0  0  0  0  0  0
  -25.9930  -29.4640   20.7580 C   0  0  0  0  0  0  0  0  0  0  0  0
  -27.1820  -28.6780   20.7560 C   0  0  0  0  0  3  0  0  0  0  0  0
  -26.0150  -26.9470   19.5220 C   0  0  0  0  0  3  0  0  0  0  0  0
  -24.8420  -27.7220   19.5230 C   0  0  0  0  0  3  0  0  0  0  0  0
  -23.5890  -29.8420   20.2000 C   0  0  0  0  0  2  0  0  0  0  0  0
  -24.6310  -31.0900   22.1400 N   0  0  0  0  0  0  0  0  0  0  0  0
  -23.4780  -32.1570   23.7790 O   0  0  0  0  0  0  0  0  0  0  0  0
  -22.7070  -29.4720   22.5330 C   0  0  0  0  0  0  0  0  0  0  0  0
  -21.3810  -29.2960   22.4020 N   0  0  0  0  0  0  0  0  0  0  0  0
  -23.3850  -28.8360   23.3440 O   0  0  0  0  0  0  0  0  0  0  0  0
  -20.8950  -29.8650   21.7230 H   0  0  0  0  0  0  0  0  0  0  0  0
  -17.9960  -28.1290   22.9080 C   0  0  0  0  0  0  0  0  0  0  0  0
  -20.5590  -28.3530   23.1600 C   0  0  0  0  0  3  0  0  0  0  0  0
  -20.6390  -26.9320   22.5550 C   0  0  0  0  0  2  0  0  0  0  0  0
  -19.5240  -26.6430   21.5440 C   0  0  0  0  0  2  0  0  0  0  0  0
  -18.1500  -26.7910   22.2040 C   0  0  0  0  0  2  0  0  0  0  0  0
  -19.1280  -28.8690   23.3430 C   0  0  0  0  0  0  0  0  0  0  0  0
  -18.9290  -30.1230   23.9630 C   0  0  0  0  0  3  0  0  0  0  0  0
  -17.6320  -30.6340   24.1510 C   0  0  0  0  0  3  0  0  0  0  0  0
  -16.5150  -29.8910   23.7330 C   0  0  0  0  0  3  0  0  0  0  0  0
  -16.6980  -28.6400   23.1160 C   0  0  0  0  0  3  0  0  0  0  0  0
  -25.8440  -32.5140   23.8800 C   0  0  0  0  0  3  0  0  0  0  0  0
  -26.3460  -31.7420   25.1610 C   0  0  1  0  0  0  0  0  0  0  0  0
  -25.2400  -31.5040   26.2150 C   0  0  0  0  0  1  0  0  0  0  0  0
  -26.9360  -30.3660   24.7750 C   0  0  0  0  0  1  0  0  0  0  0  0
  -27.4860  -32.5380   25.8400 C   0  0  0  0  0  1  0  0  0  0  0  0
  -25.5370  -33.9140   24.2060 N   0  0  0  0  0  0  0  0  0  0  0  0
  -25.8530  -34.9630   23.4330 C   0  0  0  0  0  0  0  0  0  0  0  0
  -26.5060  -34.8540   22.3910 O   0  0  0  0  0  0  0  0  0  0  0  0
  -24.9580  -34.0710   25.0180 H   0  0  0  0  0  0  0  0  0  0  0  0
  -24.1080  -36.7450   23.1080 C   0  0  0  0  0  1  0  0  0  0  0  0
  -25.3700  -36.3520   23.8920 C   0  0  0  0  0  3  0  0  0  0  0  0
  -27.5150  -37.2600   24.6700 C   0  0  0  0  0  1  0  0  0  0  0  0
  -26.3940  -37.4100   23.7460 N   0  0  0  0  0  0  0  0  0  0  0  0
  -25.9850  -38.3290   23.8890 H   0  0  0  0  0  0  0  0  0  0  0  0
  2  1  1  0
  4  3  1  0
  5  6  1  0
  6  3  2  0
  6 18  1  0
  7  1  1  0
  7  4  2  0
  8  5  2  0
  8  7  1  0
  9  8  1  0
 10 18  1  0
 11 16  1  0
 12 13  1  0
 12 11  1  0
 14 13  1  0
 14 23  1  0
 14 15  1  0
 16 10  1  0
 16 15  1  0
 17 10  2  0
 18 19  1  0
 20 21  2  0
 21 40  1  0
 22 21  1  0
 22 25  1  0
 23 24  1  0
 23 20  1  0
 24 22  2  0
 25 26  1  0
 26 27  2  0
 28 31  1  0
 28 27  1  0
 29 28  2  0
 30 29  1  0
 30 25  2  0
 31 32  1  0
 32 33  1  0
 33 34  2  0
 35 34  1  0
 35 39  1  0
 36 35  2  0
 37 32  2  0
 37 36  1  0
 38 37  1  0
 40 41  1  0
 41 44  1  0
 41 43  1  0
 42 40  2  0
 45 46  1  0
 45 20  1  0
 47 45  1  0
 48 49  1  0
 48  1  1  0
 50 51  1  0
 50 49  2  0
 52 63  2  0
 53 51  1  0
 53 58  1  0
 54 62  1  0
 54 64  1  0
 55 61  1  0
 55 57  1  0
 56 62  1  0
 57 56  1  0
 58 57  2  0
 59 60  1  0
 59 53  2  0
 60 55  2  0
 61 54  1  0
 62 52  1  0
 64 66  2  0
 65 64  1  0
 67 65  1  0
 68 77  2  0
 68 73  1  0
 69 65  1  0
 69 73  1  0
 70 69  1  0
 71 72  1  0
 71 70  1  0
 72 68  1  0
 73 74  2  0
 74 75  1  0
 76 75  2  0
 77 76  1  0
 78 52  1  0
 78 83  1  0
 78 79  1  0
 79 82  1  1
 79 80  1  0
 81 79  1  0
 83 86  1  0
 84 88  1  0
 84 83  1  0
 85 84  2  0
 88 87  1  0
 90 91  1  0
 90 88  1  0
 90 89  1  0
M  ISO  4  10 100  18 100  50 101  51 101
M  END
>  <TORSDO>  (87) 
F 20

>  <SCORE>  (87) 
-13.925

>  <name>  (87) 
86

>  <ligand_id>  (87) 
86

>  <original_smiles>  (87) 
[H]c1c([H])c([H])c2c(c1[H])C([H])([H])C([H])([H])C([H])([H])C2([H])N([H])C(=O)C1([H])N(C(=O)C([H])(N([H])C(=O)C([H])(N([H])C([H])([H])[H])C([H])([H])[H])C(C([H])([H])[H])(C([H])([H])[H])C([H])([H])[H])C([H])([H])c2c([H])c(OC([H])([H])C([H])([H])C([H])([H])N([H])c3c([H])c([H])c(N([H])C(=O)N4C([H])([H])C([H])([H])C([H])([H])C([H])(n5nc(-c6c([H])c([H])c(Oc7c([H])c([H])c(F)c([H])c7F)c([H])c6[H])c(C(=O)N([H])[H])c5N([H])[H])C4([H])[H])c([H])c3F)c([H])c([H])c2C1([H])[H]

>  <smiles>  (87) 
[H]c1c([H])c([H])c2c(c1[H])C([H])([H])C([H])([H])C([H])([H])C2([H])N([H])C(=O)C1([H])N(C(=O)C([H])(N([H])C(=O)C([H])(N([H])C([H])([H])[H])C([H])([H])[H])C(C([H])([H])[H])(C([H])([H])[H])C([H])([H])[H])C([H])([H])c2c([H])c(OC([H])([H])C([H])([H])C([H])([H])N([H])c3c([H])c([H])c(N([H])C(=O)N4C([H])([H])C([H])([H])C([H])([H])C([H])(n5nc(-c6c([H])c([H])c(Oc7c([H])c([H])c(F)c([H])c7F)c([H])c6[H])c(C(=O)N([H])[H])c5N([H])[H])C4([H])[H])c([H])c3F)c([H])c([H])c2C1([H])[H]

$$$$
87:0:0
     RDKit          3D

 94101  0  0  1  0  0  0  0  0999 V2000
  -22.8700  -20.9340   19.7380 C   0  0  0  0  0  2  0  0  0  0  0  0
  -24.3070  -20.4650   19.4680 C   0  0  0  0  0  2  0  0  0  0  0  0
  -22.9300  -22.4790   19.8350 C   0  0  0  0  0  2  0  0  0  0  0  0
  -24.9510  -21.7280   18.8910 C   0  0  0  0  0  3  0  0  0  0  0  0
  -24.3580  -22.8340   19.6730 N   0  0  1  0  0  4  0  0  0  0  0  0
  -24.7550  -22.7930   20.6020 H   0  0  0  0  0  0  0  0  0  0  0  0
  -24.7150  -24.1640   19.1100 C   0  0  0  0  0  2  0  0  0  0  0  0
  -27.0070  -23.2520   17.3990 C   0  0  0  0  0  2  0  0  0  0  0  0
  -28.4350  -22.1890   17.6070 C   0  0  0  0  0  2  0  0  0  0  0  0
  -28.7810  -22.6730   20.0560 C   0  0  0  0  0  2  0  0  0  0  0  0
  -26.2100  -24.0490   18.8960 C   0  0  0  0  0  3  0  0  0  0  0  0
  -29.1120  -21.3380   18.9810 C   0  0  0  0  0  2  0  0  0  0  0  0
  -27.4180  -23.8020   20.2620 C   0  0  0  0  0  3  0  0  0  0  0  0
  -27.1310  -24.5050   21.8130 Cl  0  0  0  0  0  0  0  0  0  0  0  0
  -30.3540  -17.6220   19.4390 C   0  0  0  0  0  0  0  0  0  0  0  0
  -30.8860  -14.7190   19.1590 C   0  0  0  0  0  2  0  0  0  0  0  0
  -30.2300  -13.6160   18.2060 C   0  0  0  0  0  2  0  0  0  0  0  0
  -28.9510  -13.0200   18.7910 C   0  0  0  0  0  2  0  0  0  0  0  0
  -28.2020  -14.1430   19.5190 C   0  0  0  0  0  3  0  0  0  0  0  0
  -29.0710  -15.1200   20.4230 C   0  0  0  0  0  2  0  0  0  0  0  0
  -30.0180  -16.0320   19.5940 N   0  0  0  0  0  0  0  0  0  0  0  0
  -31.6000  -17.3760   19.3190 O   0  0  0  0  0  0  0  0  0  0  0  0
  -29.8540  -19.4700   20.9270 C   0  0  0  0  0  1  0  0  0  0  0  0
  -29.6400  -19.3400   19.4850 N   0  0  0  0  0  2  0  0  0  0  0  0
  -25.9440  -14.5670   20.5380 C   0  0  0  0  0  0  0  0  0  0  0  0
  -24.8750  -13.7870   20.8720 C   0  0  0  0  0  0  0  0  0  0  0  0
  -25.2620  -12.4380   20.6020 C   0  0  0  0  0  0  0  0  0  0  0  0
  -26.9300  -13.7110   20.1010 N   0  0  0  0  0  0  0  0  0  0  0  0
  -26.5320  -12.4040   20.1780 N   0  0  0  0  0  0  0  0  0  0  0  0
  -24.4590  -11.2010   20.6730 C   0  0  0  0  0  0  0  0  0  0  0  0
  -24.8350  -10.1100   21.4890 C   0  0  0  0  0  3  0  0  0  0  0  0
  -24.0250   -8.9560   21.5710 C   0  0  0  0  0  3  0  0  0  0  0  0
  -22.8200   -8.8790   20.8340 C   0  0  0  0  0  0  0  0  0  0  0  0
  -22.4550   -9.9570   20.0080 C   0  0  0  0  0  3  0  0  0  0  0  0
  -23.2660  -11.1020   19.9250 C   0  0  0  0  0  3  0  0  0  0  0  0
  -21.9860   -7.7860   20.8280 O   0  0  0  0  0  0  0  0  0  0  0  0
  -21.8410   -6.9800   21.9280 C   0  0  0  0  0  0  0  0  0  0  0  0
  -21.3850   -7.4840   23.1660 C   0  0  0  0  0  3  0  0  0  0  0  0
  -21.1840   -6.6090   24.2530 C   0  0  0  0  0  3  0  0  0  0  0  0
  -21.4310   -5.2300   24.1040 C   0  0  0  0  0  0  0  0  0  0  0  0
  -21.8810   -4.7250   22.8710 C   0  0  0  0  0  3  0  0  0  0  0  0
  -22.0820   -5.5980   21.7870 C   0  0  0  0  0  0  0  0  0  0  0  0
  -22.4930   -5.1000   20.5950 F   0  0  0  0  0  0  0  0  0  0  0  0
  -21.2330   -4.3920   25.1460 F   0  0  0  0  0  0  0  0  0  0  0  0
  -23.5340  -14.2930   21.3180 C   0  0  0  0  0  0  0  0  0  0  0  0
  -22.8430  -13.5380   22.1620 N   0  0  0  0  0  0  0  0  0  0  0  0
  -23.1200  -15.3950   20.9590 O   0  0  0  0  0  0  0  0  0  0  0  0
  -23.2000  -12.6480   22.4770 H   0  0  0  0  0  0  0  0  0  0  0  0
  -21.9460  -13.8580   22.5020 H   0  0  0  0  0  0  0  0  0  0  0  0
  -26.1540  -15.9430   20.5390 N   0  0  0  0  0  0  0  0  0  0  0  0
  -25.4210  -16.5940   20.8020 H   0  0  0  0  0  0  0  0  0  0  0  0
  -26.9960  -16.4000   20.2100 H   0  0  0  0  0  0  0  0  0  0  0  0
  -26.5480  -21.8130   18.8280 C   0  0  0  0  0  1  0  0  0  0  0  0
  -27.9510  -24.6810   18.4550 O   0  0  0  0  0  1  0  0  0  0  0  0
  -25.0650  -31.5660   22.8840 C   0  0  0  0  0  0  0  0  0  0  0  0
  -27.2680  -26.3710   18.8110 C   0  0  0  0  0  0  0  0  0  0  0  0
  -23.7970  -30.4900   21.0840 C   0  0  0  0  0  3  0  0  0  0  0  0
  -25.1510  -28.9500   19.3390 C   0  0  0  0  0  0  0  0  0  0  0  0
  -26.3980  -30.3430   20.9240 C   0  0  0  0  0  2  0  0  0  0  0  0
  -26.3900  -28.9710   19.9910 C   0  0  0  0  0  0  0  0  0  0  0  0
  -27.3830  -27.7510   19.7060 C   0  0  0  0  0  3  0  0  0  0  0  0
  -26.0410  -26.8480   18.1420 C   0  0  0  0  0  3  0  0  0  0  0  0
  -25.0700  -27.9200   18.3820 C   0  0  0  0  0  3  0  0  0  0  0  0
  -24.0010  -29.9900   19.6130 C   0  0  0  0  0  2  0  0  0  0  0  0
  -25.1240  -30.8440   21.6880 N   0  0  0  0  0  0  0  0  0  0  0  0
  -23.9860  -31.8270   23.4540 O   0  0  0  0  0  0  0  0  0  0  0  0
  -23.0290  -29.4310   21.9300 C   0  0  0  0  0  0  0  0  0  0  0  0
  -21.6790  -29.3960   21.8930 N   0  0  0  0  0  0  0  0  0  0  0  0
  -23.6760  -28.6320   22.6070 O   0  0  0  0  0  0  0  0  0  0  0  0
  -21.1930  -30.0910   21.3420 H   0  0  0  0  0  0  0  0  0  0  0  0
  -18.2620  -28.2300   22.4510 C   0  0  0  0  0  0  0  0  0  0  0  0
  -20.8480  -28.3600   22.5320 C   0  0  0  0  0  3  0  0  0  0  0  0
  -20.8250  -27.0710   21.6790 C   0  0  0  0  0  2  0  0  0  0  0  0
  -19.6350  -27.0050   20.7160 C   0  0  0  0  0  2  0  0  0  0  0  0
  -18.3150  -27.0560   21.4910 C   0  0  0  0  0  2  0  0  0  0  0  0
  -19.4480  -28.8560   22.9270 C   0  0  0  0  0  0  0  0  0  0  0  0
  -19.3340  -29.9560   23.8030 C   0  0  0  0  0  3  0  0  0  0  0  0
  -18.0700  -30.4360   24.1990 C   0  0  0  0  0  3  0  0  0  0  0  0
  -16.9020  -29.8090   23.7310 C   0  0  0  0  0  3  0  0  0  0  0  0
  -16.9980  -28.7060   22.8640 C   0  0  0  0  0  3  0  0  0  0  0  0
  -26.3360  -32.1090   23.6150 C   0  0  0  0  0  3  0  0  0  0  0  0
  -26.8700  -31.1230   24.7310 C   0  0  1  0  0  0  0  0  0  0  0  0
  -25.7990  -30.7240   25.7750 C   0  0  0  0  0  1  0  0  0  0  0  0
  -27.4200  -29.8180   24.1200 C   0  0  0  0  0  1  0  0  0  0  0  0
  -28.0530  -31.7760   25.4860 C   0  0  0  0  0  1  0  0  0  0  0  0
  -26.0180  -33.4150   24.2510 N   0  0  0  0  0  0  0  0  0  0  0  0
  -26.3750  -34.6240   23.7920 C   0  0  0  0  0  0  0  0  0  0  0  0
  -27.0380  -34.7650   22.7630 O   0  0  0  0  0  0  0  0  0  0  0  0
  -25.4190  -33.3820   25.0620 H   0  0  0  0  0  0  0  0  0  0  0  0
  -24.7120  -36.5260   23.9210 C   0  0  0  0  0  1  0  0  0  0  0  0
  -25.9340  -35.8750   24.5910 C   0  0  0  0  0  3  0  0  0  0  0  0
  -28.0880  -36.4680   25.6230 C   0  0  0  0  0  1  0  0  0  0  0  0
  -26.9990  -36.8930   24.7490 N   0  0  0  0  0  0  0  0  0  0  0  0
  -26.6160  -37.7590   25.1170 H   0  0  0  0  0  0  0  0  0  0  0  0
  1  3  1  0
  2  1  1  0
  4 53  1  0
  4  2  1  0
  4  5  1  0
  5  3  1  0
  5  6  1  1
  7  5  1  0
  8  9  1  0
  8 11  1  0
  9 12  1  0
 10 13  1  0
 11  7  1  0
 11 13  1  0
 12 10  1  0
 13 14  1  0
 15 24  1  0
 15 21  1  0
 16 21  1  0
 17 18  1  0
 17 16  1  0
 19 18  1  0
 19 28  1  0
 19 20  1  0
 21 20  1  0
 22 15  2  0
 24 23  1  0
 25 50  1  0
 25 26  2  0
 26 45  1  0
 27 30  1  0
 27 26  1  0
 28 29  1  0
 28 25  1  0
 29 27  2  0
 30 31  1  0
 31 32  2  0
 33 32  1  0
 34 33  2  0
 35 34  1  0
 35 30  2  0
 36 33  1  0
 36 37  1  0
 37 38  1  0
 38 39  2  0
 40 39  1  0
 40 44  1  0
 41 40  2  0
 42 37  2  0
 42 41  1  0
 43 42  1  0
 45 46  1  0
 46 48  1  0
 46 49  1  0
 47 45  2  0
 50 51  1  0
 52 50  1  0
 54 56  1  0
 55 66  2  0
 56 61  1  0
 57 65  1  0
 57 67  1  0
 58 64  1  0
 58 60  1  0
 59 65  1  0
 60 59  1  0
 61 60  2  0
 62 63  1  0
 62 56  2  0
 63 58  2  0
 64 57  1  0
 65 55  1  0
 67 69  2  0
 68 67  1  0
 70 68  1  0
 71 80  2  0
 71 76  1  0
 72 68  1  0
 72 76  1  0
 73 72  1  0
 74 75  1  0
 74 73  1  0
 75 71  1  0
 76 77  2  0
 77 78  1  0
 79 78  2  0
 80 79  1  0
 81 55  1  0
 81 86  1  0
 81 82  1  0
 82 85  1  1
 82 83  1  0
 84 82  1  0
 86 89  1  0
 87 86  1  0
 87 91  1  0
 88 87  2  0
 91 90  1  0
 91 93  1  0
 93 94  1  0
 93 92  1  0
M  ISO  4  15 100  24 100  53 101  54 101
M  END
>  <TORSDO>  (88) 
F 19

>  <SCORE>  (88) 
-5.338

>  <name>  (88) 
87

>  <ligand_id>  (88) 
87

>  <original_smiles>  (88) 
[H]c1c([H])c([H])c2c(c1[H])C([H])([H])C([H])([H])C([H])([H])C2([H])N([H])C(=O)C1([H])N(C(=O)C([H])(N([H])C(=O)C([H])(N([H])C([H])([H])[H])C([H])([H])[H])C(C([H])([H])[H])(C([H])([H])[H])C([H])([H])[H])C([H])([H])c2c([H])c(OC([H])([H])C3([H])C([H])([H])C([H])([H])C([H])([H])[N+]3([H])C([H])([H])c3c([H])c([H])c(N(C(=O)N4C([H])([H])C([H])([H])C([H])([H])C([H])(n5nc(-c6c([H])c([H])c(Oc7c([H])c([H])c(F)c([H])c7F)c([H])c6[H])c(C(=O)N([H])[H])c5N([H])[H])C4([H])[H])C([H])([H])[H])c([H])c3Cl)c([H])c([H])c2C1([H])[H]

>  <smiles>  (88) 
[H]c1c([H])c([H])c2c(c1[H])C([H])([H])C([H])([H])C([H])([H])C2([H])N([H])C(=O)C1([H])N(C(=O)C([H])(N([H])C(=O)C([H])(N([H])C([H])([H])[H])C([H])([H])[H])C(C([H])([H])[H])(C([H])([H])[H])C([H])([H])[H])C([H])([H])c2c([H])c(OC([H])([H])C3([H])C([H])([H])C([H])([H])C([H])([H])[N+]3([H])C([H])([H])c3c([H])c([H])c(N(C(=O)N4C([H])([H])C([H])([H])C([H])([H])C([H])(n5nc(-c6c([H])c([H])c(Oc7c([H])c([H])c(F)c([H])c7F)c([H])c6[H])c(C(=O)N([H])[H])c5N([H])[H])C4([H])[H])C([H])([H])[H])c([H])c3Cl)c([H])c([H])c2C1([H])[H]

$$$$
88:0:0
     RDKit          3D

 96104  0  0  1  0  0  0  0  0999 V2000
  -28.0280  -21.8620   19.4580 N   0  0  1  0  0  4  0  0  0  0  0  0
  -28.0220  -22.4380   18.6290 H   0  0  0  0  0  0  0  0  0  0  0  0
  -29.2730  -21.0580   19.2470 C   0  0  0  0  0  2  0  0  0  0  0  0
  -29.8770  -19.0790   20.7850 C   0  0  0  0  0  3  0  0  0  0  0  0
  -29.1000  -17.2480   18.8100 C   0  0  0  0  0  3  0  0  0  0  0  0
  -29.2830  -19.5590   19.5920 C   0  0  0  0  0  0  0  0  0  0  0  0
  -29.8430  -16.7800   19.9190 C   0  0  0  0  0  0  0  0  0  0  0  0
  -30.1630  -17.7010   20.9510 C   0  0  0  0  0  0  0  0  0  0  0  0
  -28.8540  -18.6200   18.6300 C   0  0  0  0  0  0  0  0  0  0  0  0
  -30.8490  -17.3020   22.0490 F   0  0  0  0  0  0  0  0  0  0  0  0
  -28.2860  -19.0380   17.4760 F   0  0  0  0  0  0  0  0  0  0  0  0
  -30.8770  -14.6880   20.8030 C   0  0  0  0  0  0  0  0  0  0  0  0
  -30.6590  -12.4040   19.9900 C   0  0  0  0  0  2  0  0  0  0  0  0
  -29.8200  -12.4360   18.6930 C   0  0  0  0  0  2  0  0  0  0  0  0
  -28.3150  -12.3810   19.0030 C   0  0  0  0  0  2  0  0  0  0  0  0
  -27.8660  -13.3400   20.1390 C   0  0  0  0  0  3  0  0  0  0  0  0
  -28.8370  -13.2970   21.3400 C   0  0  0  0  0  2  0  0  0  0  0  0
  -30.1970  -13.5140   20.8300 N   0  0  0  0  0  0  0  0  0  0  0  0
  -32.0810  -14.7490   21.0430 O   0  0  0  0  0  0  0  0  0  0  0  0
  -31.3240  -15.4430   18.5790 C   0  0  0  0  0  1  0  0  0  0  0  0
  -30.4590  -15.4900   19.7850 N   0  0  0  0  0  0  0  0  0  0  0  0
  -25.4250  -13.9560   20.6740 C   0  0  0  0  0  0  0  0  0  0  0  0
  -24.3280  -13.1890   20.9530 C   0  0  0  0  0  0  0  0  0  0  0  0
  -24.7860  -11.8360   20.9700 C   0  0  0  0  0  0  0  0  0  0  0  0
  -26.4830  -13.0730   20.5350 N   0  0  0  0  0  0  0  0  0  0  0  0
  -26.0970  -11.7940   20.7790 N   0  0  0  0  0  0  0  0  0  0  0  0
  -24.0430  -10.5740   21.0990 C   0  0  0  0  0  0  0  0  0  0  0  0
  -24.4140   -9.5910   22.0420 C   0  0  0  0  0  3  0  0  0  0  0  0
  -23.6700   -8.3960   22.1610 C   0  0  0  0  0  3  0  0  0  0  0  0
  -22.5420   -8.1760   21.3370 C   0  0  0  0  0  0  0  0  0  0  0  0
  -22.1910   -9.1490   20.3840 C   0  0  0  0  0  3  0  0  0  0  0  0
  -22.9340  -10.3360   20.2620 C   0  0  0  0  0  3  0  0  0  0  0  0
  -21.7770   -7.0360   21.3660 O   0  0  0  0  0  0  0  0  0  0  0  0
  -21.6790   -6.2630   22.4960 C   0  0  0  0  0  0  0  0  0  0  0  0
  -21.1940   -6.7860   23.7150 C   0  0  0  0  0  3  0  0  0  0  0  0
  -21.0420   -5.9400   24.8320 C   0  0  0  0  0  3  0  0  0  0  0  0
  -21.3660   -4.5740   24.7320 C   0  0  0  0  0  0  0  0  0  0  0  0
  -21.8430   -4.0500   23.5170 C   0  0  0  0  0  3  0  0  0  0  0  0
  -21.9950   -4.8930   22.4010 C   0  0  0  0  0  0  0  0  0  0  0  0
  -22.4360   -4.3790   21.2270 F   0  0  0  0  0  0  0  0  0  0  0  0
  -21.2130   -3.7590   25.8020 F   0  0  0  0  0  0  0  0  0  0  0  0
  -22.9120  -13.6700   21.0970 C   0  0  0  0  0  0  0  0  0  0  0  0
  -22.1110  -12.9920   21.9120 N   0  0  0  0  0  0  0  0  0  0  0  0
  -22.5210  -14.6840   20.5200 O   0  0  0  0  0  0  0  0  0  0  0  0
  -22.4350  -12.1720   22.4030 H   0  0  0  0  0  0  0  0  0  0  0  0
  -21.1580  -13.2970   22.0460 H   0  0  0  0  0  0  0  0  0  0  0  0
  -25.6100  -15.3230   20.5060 N   0  0  0  0  0  0  0  0  0  0  0  0
  -24.8380  -15.9800   20.5400 H   0  0  0  0  0  0  0  0  0  0  0  0
  -26.4920  -15.7560   20.2660 H   0  0  0  0  0  0  0  0  0  0  0  0
  -26.7130  -21.1650   19.3490 C   0  0  0  0  0  2  0  0  0  0  0  0
  -24.8510  -20.4700   17.7210 C   0  0  0  0  0  1  0  0  0  0  0  0
  -26.1420  -21.2760   17.9190 C   0  0  0  0  0  2  0  0  0  0  0  0
  -28.1220  -22.9070   20.5230 C   0  0  0  0  0  2  0  0  0  0  0  0
  -28.3730  -24.3100   19.9160 C   0  0  0  0  0  2  0  0  0  0  0  0
  -28.2770  -25.4570   20.9450 C   0  0  0  0  0  2  0  0  0  0  0  0
  -28.3870  -26.7630   20.3600 O   0  0  0  0  0  0  0  0  0  0  0  0
  -24.5270  -31.9260   23.3720 C   0  0  0  0  0  0  0  0  0  0  0  0
  -27.2220  -27.4950   20.3340 C   0  0  0  0  0  0  0  0  0  0  0  0
  -23.3500  -30.5290   21.7060 C   0  0  0  0  0  3  0  0  0  0  0  0
  -24.8290  -28.9940   20.3060 C   0  0  0  0  0  0  0  0  0  0  0  0
  -25.8800  -30.8920   21.5500 C   0  0  0  0  0  2  0  0  0  0  0  0
  -25.9760  -29.5220   20.9100 C   0  0  0  0  0  0  0  0  0  0  0  0
  -27.1800  -28.7800   20.9170 C   0  0  0  0  0  3  0  0  0  0  0  0
  -26.0580  -26.9780   19.7280 C   0  0  0  0  0  3  0  0  0  0  0  0
  -24.8610  -27.7200   19.7130 C   0  0  0  0  0  3  0  0  0  0  0  0
  -23.5850  -29.8540   20.3290 C   0  0  0  0  0  2  0  0  0  0  0  0
  -24.6040  -31.1300   22.2680 N   0  0  0  0  0  0  0  0  0  0  0  0
  -23.4370  -32.1950   23.8930 O   0  0  0  0  0  0  0  0  0  0  0  0
  -22.6830  -29.5050   22.6500 C   0  0  0  0  0  0  0  0  0  0  0  0
  -21.3620  -29.3250   22.5000 N   0  0  0  0  0  0  0  0  0  0  0  0
  -23.3510  -28.8740   23.4740 O   0  0  0  0  0  0  0  0  0  0  0  0
  -20.8840  -29.8870   21.8090 H   0  0  0  0  0  0  0  0  0  0  0  0
  -17.9720  -28.1500   22.9420 C   0  0  0  0  0  0  0  0  0  0  0  0
  -20.5270  -28.3850   23.2500 C   0  0  0  0  0  3  0  0  0  0  0  0
  -20.6270  -26.9580   22.6620 C   0  0  0  0  0  2  0  0  0  0  0  0
  -19.5370  -26.6520   21.6320 C   0  0  0  0  0  2  0  0  0  0  0  0
  -18.1470  -26.8030   22.2580 C   0  0  0  0  0  2  0  0  0  0  0  0
  -19.0910  -28.8990   23.3930 C   0  0  0  0  0  0  0  0  0  0  0  0
  -18.8740  -30.1590   23.9900 C   0  0  0  0  0  3  0  0  0  0  0  0
  -17.5710  -30.6710   24.1390 C   0  0  0  0  0  3  0  0  0  0  0  0
  -16.4660  -29.9170   23.7070 C   0  0  0  0  0  3  0  0  0  0  0  0
  -16.6670  -28.6590   23.1130 C   0  0  0  0  0  3  0  0  0  0  0  0
  -25.8030  -32.5540   24.0180 C   0  0  0  0  0  3  0  0  0  0  0  0
  -25.5100  -33.9660   24.2990 N   0  0  0  0  0  0  0  0  0  0  0  0
  -25.8790  -34.9900   23.5180 C   0  0  0  0  0  0  0  0  0  0  0  0
  -26.5770  -34.8450   22.5100 O   0  0  0  0  0  0  0  0  0  0  0  0
  -24.9030  -34.1540   25.0840 H   0  0  0  0  0  0  0  0  0  0  0  0
  -24.1920  -36.7940   23.0520 C   0  0  0  0  0  1  0  0  0  0  0  0
  -25.3980  -36.3970   23.9180 C   0  0  0  0  0  3  0  0  0  0  0  0
  -27.5160  -37.2750   24.7980 C   0  0  0  0  0  1  0  0  0  0  0  0
  -26.4500  -37.4320   23.8110 N   0  0  0  0  0  0  0  0  0  0  0  0
  -26.0540  -38.3620   23.9150 H   0  0  0  0  0  0  0  0  0  0  0  0
  -26.2670  -31.8090   25.3290 C   0  0  1  0  0  0  0  0  0  0  0  0
  -25.1350  -31.6050   26.3630 C   0  0  0  0  0  1  0  0  0  0  0  0
  -26.8480  -30.4180   24.9860 C   0  0  0  0  0  1  0  0  0  0  0  0
  -27.4020  -32.6060   26.0120 C   0  0  0  0  0  1  0  0  0  0  0  0
  1 53  1  0
  1  2  1  6
  3  1  1  0
  3  6  1  0
  4  8  1  0
  5  7  1  0
  6  4  2  0
  7  8  2  0
  8 10  1  0
  9  5  2  0
  9  6  1  0
 11  9  1  0
 12 18  1  0
 12 19  2  0
 13 18  1  0
 14 15  1  0
 14 13  1  0
 16 15  1  0
 16 25  1  0
 16 17  1  0
 18 17  1  0
 20 21  1  0
 21  7  1  0
 21 12  1  0
 22 23  2  0
 23 24  1  0
 23 42  1  0
 24 27  1  0
 25 22  1  0
 25 26  1  0
 26 24  2  0
 27 28  1  0
 28 29  2  0
 30 33  1  0
 30 29  1  0
 31 30  2  0
 32 31  1  0
 32 27  2  0
 33 34  1  0
 34 35  1  0
 35 36  2  0
 37 36  1  0
 37 41  1  0
 38 37  2  0
 39 34  2  0
 39 38  1  0
 40 39  1  0
 42 43  1  0
 43 46  1  0
 43 45  1  0
 44 42  2  0
 47 48  1  0
 47 22  1  0
 49 47  1  0
 50  1  1  0
 51 52  1  0
 52 50  1  0
 54 53  1  0
 54 55  1  0
 56 55  1  0
 57 68  2  0
 58 56  1  0
 58 63  1  0
 59 67  1  0
 59 69  1  0
 60 66  1  0
 60 62  1  0
 61 67  1  0
 62 63  2  0
 62 61  1  0
 64 58  2  0
 65 64  1  0
 65 60  2  0
 66 59  1  0
 67 57  1  0
 69 71  2  0
 70 69  1  0
 72 70  1  0
 73 82  2  0
 73 78  1  0
 74 70  1  0
 74 78  1  0
 75 74  1  0
 76 77  1  0
 76 75  1  0
 77 73  1  0
 78 79  2  0
 79 80  1  0
 81 80  2  0
 82 81  1  0
 83 57  1  0
 83 84  1  0
 83 93  1  0
 84 87  1  0
 85 89  1  0
 85 84  1  0
 86 85  2  0
 89 88  1  0
 91 92  1  0
 91 89  1  0
 91 90  1  0
 93 96  1  1
 93 94  1  0
 95 93  1  0
M  ISO  4  12 100  21 100  55 101  56 101
M  END
>  <TORSDO>  (89) 
F 23

>  <SCORE>  (89) 
-12.641

>  <name>  (89) 
88

>  <ligand_id>  (89) 
88

>  <original_smiles>  (89) 
[H]c1c([H])c([H])c2c(c1[H])C([H])([H])C([H])([H])C([H])([H])C2([H])N([H])C(=O)C1([H])N(C(=O)C([H])(N([H])C(=O)C([H])(N([H])C([H])([H])[H])C([H])([H])[H])C(C([H])([H])[H])(C([H])([H])[H])C([H])([H])[H])C([H])([H])c2c([H])c(OC([H])([H])C([H])([H])C([H])([H])[N+]([H])(C([H])([H])c3c([H])c(F)c(N(C(=O)N4C([H])([H])C([H])([H])C([H])([H])C([H])(n5nc(-c6c([H])c([H])c(Oc7c([H])c([H])c(F)c([H])c7F)c([H])c6[H])c(C(=O)N([H])[H])c5N([H])[H])C4([H])[H])C([H])([H])[H])c([H])c3F)C([H])([H])C([H])([H])C([H])([H])[H])c([H])c([H])c2C1([H])[H]

>  <smiles>  (89) 
[H]c1c([H])c([H])c2c(c1[H])C([H])([H])C([H])([H])C([H])([H])C2([H])N([H])C(=O)C1([H])N(C(=O)C([H])(N([H])C(=O)C([H])(N([H])C([H])([H])[H])C([H])([H])[H])C(C([H])([H])[H])(C([H])([H])[H])C([H])([H])[H])C([H])([H])c2c([H])c(OC([H])([H])C([H])([H])C([H])([H])[N+]([H])(C([H])([H])c3c([H])c(F)c(N(C(=O)N4C([H])([H])C([H])([H])C([H])([H])C([H])(n5nc(-c6c([H])c([H])c(Oc7c([H])c([H])c(F)c([H])c7F)c([H])c6[H])c(C(=O)N([H])[H])c5N([H])[H])C4([H])[H])C([H])([H])[H])c([H])c3F)C([H])([H])C([H])([H])C([H])([H])[H])c([H])c([H])c2C1([H])[H]

$$$$
89:0:0
     RDKit          3D

 92100  0  0  1  0  0  0  0  0999 V2000
  -29.7740  -18.4800   19.8970 C   0  0  0  0  0  3  0  0  0  0  0  0
  -29.9750  -19.8820   19.8590 C   0  0  0  0  0  3  0  0  0  0  0  0
  -30.5030  -19.8620   22.2230 C   0  0  0  0  0  3  0  0  0  0  0  0
  -29.9160  -17.7550   21.1030 C   0  0  0  0  0  0  0  0  0  0  0  0
  -30.3490  -20.5930   21.0230 C   0  0  0  0  0  0  0  0  0  0  0  0
  -30.2750  -18.4690   22.2700 C   0  0  0  0  0  0  0  0  0  0  0  0
  -30.3950  -17.8190   23.4530 F   0  0  0  0  0  0  0  0  0  0  0  0
  -31.9930  -22.3060   21.3920 C   0  0  0  0  0  1  0  0  0  0  0  0
  -30.6160  -21.9850   21.0180 N   0  0  0  0  0  0  0  0  0  0  0  0
  -29.9120  -22.8600   20.0640 C   0  0  0  0  0  2  0  0  0  0  0  0
  -29.8220  -24.3490   20.5210 C   0  0  0  0  0  2  0  0  0  0  0  0
  -28.8560  -25.2090   19.6660 C   0  0  0  0  0  2  0  0  0  0  0  0
  -28.8230  -26.5980   20.0710 O   0  0  0  0  0  0  0  0  0  0  0  0
  -24.7810  -31.5770   23.1850 C   0  0  0  0  0  0  0  0  0  0  0  0
  -27.6260  -27.2980   20.0210 C   0  0  0  0  0  0  0  0  0  0  0  0
  -23.6530  -30.1840   21.4830 C   0  0  0  0  0  3  0  0  0  0  0  0
  -25.1820  -28.7460   20.0320 C   0  0  0  0  0  0  0  0  0  0  0  0
  -26.1700  -30.6290   21.3420 C   0  0  0  0  0  2  0  0  0  0  0  0
  -26.3120  -29.2810   20.6610 C   0  0  0  0  0  0  0  0  0  0  0  0
  -27.5340  -28.5630   20.6550 C   0  0  0  0  0  3  0  0  0  0  0  0
  -26.4750  -26.8010   19.3610 C   0  0  0  0  0  3  0  0  0  0  0  0
  -25.2600  -27.5070   19.3810 C   0  0  0  0  0  3  0  0  0  0  0  0
  -23.9090  -29.5600   20.0860 C   0  0  0  0  0  2  0  0  0  0  0  0
  -24.8850  -30.8110   22.0620 N   0  0  0  0  0  0  0  0  0  0  0  0
  -23.6820  -31.7960   23.7130 O   0  0  0  0  0  0  0  0  0  0  0  0
  -23.0250  -29.1100   22.4010 C   0  0  0  0  0  0  0  0  0  0  0  0
  -21.7090  -28.8830   22.2460 N   0  0  0  0  0  0  0  0  0  0  0  0
  -23.7170  -28.4840   23.2080 O   0  0  0  0  0  0  0  0  0  0  0  0
  -21.2110  -29.4460   21.5710 H   0  0  0  0  0  0  0  0  0  0  0  0
  -18.3730  -27.5540   22.6510 C   0  0  0  0  0  0  0  0  0  0  0  0
  -20.9150  -27.8940   22.9740 C   0  0  0  0  0  3  0  0  0  0  0  0
  -21.0780  -26.4850   22.3570 C   0  0  0  0  0  2  0  0  0  0  0  0
  -20.0050  -26.1540   21.3140 C   0  0  0  0  0  2  0  0  0  0  0  0
  -18.6090  -26.2310   21.9380 C   0  0  0  0  0  2  0  0  0  0  0  0
  -19.4570  -28.3410   23.1220 C   0  0  0  0  0  0  0  0  0  0  0  0
  -19.1830  -29.5780   23.7450 C   0  0  0  0  0  3  0  0  0  0  0  0
  -17.8600  -30.0290   23.9030 C   0  0  0  0  0  3  0  0  0  0  0  0
  -16.7900  -29.2380   23.4480 C   0  0  0  0  0  3  0  0  0  0  0  0
  -17.0470  -28.0030   22.8280 C   0  0  0  0  0  3  0  0  0  0  0  0
  -26.0340  -32.2350   23.8430 C   0  0  0  0  0  3  0  0  0  0  0  0
  -25.6830  -33.6240   24.1680 N   0  0  0  0  0  0  0  0  0  0  0  0
  -25.9920  -34.6840   23.4080 C   0  0  0  0  0  0  0  0  0  0  0  0
  -26.6730  -34.5980   22.3830 O   0  0  0  0  0  0  0  0  0  0  0  0
  -25.0760  -33.7630   24.9620 H   0  0  0  0  0  0  0  0  0  0  0  0
  -24.2040  -36.4180   23.0460 C   0  0  0  0  0  1  0  0  0  0  0  0
  -25.4600  -36.0590   23.8560 C   0  0  0  0  0  3  0  0  0  0  0  0
  -27.5680  -37.0170   24.6750 C   0  0  0  0  0  1  0  0  0  0  0  0
  -26.4580  -37.1440   23.7350 N   0  0  0  0  0  0  0  0  0  0  0  0
  -26.0230  -38.0520   23.8780 H   0  0  0  0  0  0  0  0  0  0  0  0
  -26.5340  -31.4710   25.1300 C   0  0  1  0  0  0  0  0  0  0  0  0
  -25.4200  -31.2030   26.1680 C   0  0  0  0  0  1  0  0  0  0  0  0
  -27.1580  -30.1090   24.7470 C   0  0  0  0  0  1  0  0  0  0  0  0
  -27.6500  -32.2880   25.8240 C   0  0  0  0  0  1  0  0  0  0  0  0
  -29.6090  -16.2430   21.1550 C   0  0  0  0  0  2  0  0  0  0  0  0
  -31.0840  -14.4730   20.2070 C   0  0  0  0  0  0  0  0  0  0  0  0
  -30.5900  -12.4330   18.8900 C   0  0  0  0  0  2  0  0  0  0  0  0
  -29.5940  -12.7320   17.7540 C   0  0  0  0  0  2  0  0  0  0  0  0
  -28.1450  -12.6000   18.2580 C   0  0  0  0  0  2  0  0  0  0  0  0
  -27.9060  -13.3770   19.5770 C   0  0  0  0  0  3  0  0  0  0  0  0
  -29.0090  -13.0690   20.6150 C   0  0  0  0  0  2  0  0  0  0  0  0
  -30.3140  -13.3640   20.0020 N   0  0  0  0  0  0  0  0  0  0  0  0
  -32.1340  -14.6580   19.5820 O   0  0  0  0  0  0  0  0  0  0  0  0
  -31.8150  -15.6890   22.1660 C   0  0  0  0  0  1  0  0  0  0  0  0
  -30.7520  -15.2990   21.2340 N   0  0  0  0  0  0  0  0  0  0  0  0
  -25.5640  -14.0330   20.4110 C   0  0  0  0  0  0  0  0  0  0  0  0
  -24.4940  -13.2800   20.8140 C   0  0  0  0  0  0  0  0  0  0  0  0
  -24.9170  -11.9180   20.7340 C   0  0  0  0  0  0  0  0  0  0  0  0
  -26.5720  -13.1280   20.1140 N   0  0  0  0  0  0  0  0  0  0  0  0
  -26.1900  -11.8510   20.3650 N   0  0  0  0  0  0  0  0  0  0  0  0
  -24.1690  -10.6700   20.9300 C   0  0  0  0  0  0  0  0  0  0  0  0
  -24.5800   -9.7030   21.8730 C   0  0  0  0  0  3  0  0  0  0  0  0
  -23.8340   -8.5190   22.0570 C   0  0  0  0  0  3  0  0  0  0  0  0
  -22.6620   -8.2950   21.2950 C   0  0  0  0  0  0  0  0  0  0  0  0
  -22.2690   -9.2500   20.3410 C   0  0  0  0  0  3  0  0  0  0  0  0
  -23.0160  -10.4260   20.1560 C   0  0  0  0  0  3  0  0  0  0  0  0
  -21.8880   -7.1630   21.3880 O   0  0  0  0  0  0  0  0  0  0  0  0
  -21.7580   -6.4740   22.5660 C   0  0  0  0  0  0  0  0  0  0  0  0
  -21.2730   -7.0920   23.7400 C   0  0  0  0  0  3  0  0  0  0  0  0
  -21.0890   -6.3310   24.9110 C   0  0  0  0  0  3  0  0  0  0  0  0
  -21.3800   -4.9530   24.9090 C   0  0  0  0  0  0  0  0  0  0  0  0
  -21.8570   -4.3360   23.7410 C   0  0  0  0  0  3  0  0  0  0  0  0
  -22.0430   -5.0940   22.5710 C   0  0  0  0  0  0  0  0  0  0  0  0
  -22.4830   -4.4900   21.4410 F   0  0  0  0  0  0  0  0  0  0  0  0
  -21.1960   -4.2200   26.0320 F   0  0  0  0  0  0  0  0  0  0  0  0
  -23.1240  -13.7870   21.1600 C   0  0  0  0  0  0  0  0  0  0  0  0
  -22.4250  -13.1000   22.0560 N   0  0  0  0  0  0  0  0  0  0  0  0
  -22.6840  -14.8260   20.6700 O   0  0  0  0  0  0  0  0  0  0  0  0
  -22.7950  -12.2570   22.4700 H   0  0  0  0  0  0  0  0  0  0  0  0
  -21.5080  -13.4210   22.3310 H   0  0  0  0  0  0  0  0  0  0  0  0
  -25.7560  -15.4010   20.2530 N   0  0  0  0  0  0  0  0  0  0  0  0
  -25.0050  -16.0690   20.4020 H   0  0  0  0  0  0  0  0  0  0  0  0
  -26.5900  -15.8260   19.8690 H   0  0  0  0  0  0  0  0  0  0  0  0
  1  4  1  0
  2  1  2  0
  2  5  1  0
  3  6  1  0
  4 54  1  0
  4  6  2  0
  5  3  2  0
  6  7  1  0
  9  5  1  0
  9  8  1  0
 10 11  1  0
 10  9  1  0
 12 13  1  0
 12 11  1  0
 14 25  2  0
 15 13  1  0
 15 20  1  0
 16 24  1  0
 16 26  1  0
 17 23  1  0
 17 19  1  0
 18 24  1  0
 19 18  1  0
 20 19  2  0
 21 22  1  0
 21 15  2  0
 22 17  2  0
 23 16  1  0
 24 14  1  0
 26 28  2  0
 27 26  1  0
 29 27  1  0
 30 39  2  0
 30 35  1  0
 31 27  1  0
 31 35  1  0
 32 31  1  0
 33 34  1  0
 33 32  1  0
 34 30  1  0
 35 36  2  0
 36 37  1  0
 38 37  2  0
 39 38  1  0
 40 14  1  0
 40 41  1  0
 40 50  1  0
 41 44  1  0
 42 46  1  0
 42 41  1  0
 43 42  2  0
 46 45  1  0
 48 46  1  0
 48 49  1  0
 48 47  1  0
 50 53  1  1
 50 51  1  0
 52 50  1  0
 54 64  1  0
 55 64  1  0
 56 61  1  0
 57 58  1  0
 57 56  1  0
 59 58  1  0
 59 68  1  0
 59 60  1  0
 61 55  1  0
 61 60  1  0
 62 55  2  0
 64 63  1  0
 65 66  2  0
 66 85  1  0
 67 66  1  0
 67 70  1  0
 68 69  1  0
 68 65  1  0
 69 67  2  0
 70 71  1  0
 71 72  2  0
 73 76  1  0
 73 72  1  0
 74 73  2  0
 75 74  1  0
 75 70  2  0
 76 77  1  0
 77 82  2  0
 77 78  1  0
 78 79  2  0
 80 79  1  0
 80 84  1  0
 81 80  2  0
 82 81  1  0
 83 82  1  0
 85 86  1  0
 86 89  1  0
 86 88  1  0
 87 85  2  0
 90 91  1  0
 90 65  1  0
 92 90  1  0
M  ISO  4  12 101  13 101  55 100  64 100
M  END
>  <TORSDO>  (90) 
F 21

>  <SCORE>  (90) 
-10.914

>  <name>  (90) 
89

>  <ligand_id>  (90) 
89

>  <original_smiles>  (90) 
[H]c1c([H])c([H])c2c(c1[H])C([H])([H])C([H])([H])C([H])([H])C2([H])N([H])C(=O)C1([H])N(C(=O)C([H])(N([H])C(=O)C([H])(N([H])C([H])([H])[H])C([H])([H])[H])C(C([H])([H])[H])(C([H])([H])[H])C([H])([H])[H])C([H])([H])c2c([H])c(OC([H])([H])C([H])([H])C([H])([H])N(c3c([H])c([H])c(C([H])([H])N(C(=O)N4C([H])([H])C([H])([H])C([H])([H])C([H])(n5nc(-c6c([H])c([H])c(Oc7c([H])c([H])c(F)c([H])c7F)c([H])c6[H])c(C(=O)N([H])[H])c5N([H])[H])C4([H])[H])C([H])([H])[H])c(F)c3[H])C([H])([H])[H])c([H])c([H])c2C1([H])[H]

>  <smiles>  (90) 
[H]c1c([H])c([H])c2c(c1[H])C([H])([H])C([H])([H])C([H])([H])C2([H])N([H])C(=O)C1([H])N(C(=O)C([H])(N([H])C(=O)C([H])(N([H])C([H])([H])[H])C([H])([H])[H])C(C([H])([H])[H])(C([H])([H])[H])C([H])([H])[H])C([H])([H])c2c([H])c(OC([H])([H])C([H])([H])C([H])([H])N(c3c([H])c([H])c(C([H])([H])N(C(=O)N4C([H])([H])C([H])([H])C([H])([H])C([H])(n5nc(-c6c([H])c([H])c(Oc7c([H])c([H])c(F)c([H])c7F)c([H])c6[H])c(C(=O)N([H])[H])c5N([H])[H])C4([H])[H])C([H])([H])[H])c(F)c3[H])C([H])([H])[H])c([H])c([H])c2C1([H])[H]

$$$$
90:0:0
     RDKit          3D

101109  0  0  1  0  0  0  0  0999 V2000
  -30.4830  -25.2600   21.9810 C   0  0  0  0  0  1  0  0  0  0  0  0
  -30.8410  -24.7130   20.5700 C   0  0  1  0  0  0  0  0  0  0  0  0
  -29.7790  -25.2740   19.5630 C   0  0  0  0  0  2  0  0  0  0  0  0
  -29.7480  -26.8110   19.3480 C   0  0  0  0  0  2  0  0  0  0  0  0
  -28.6700  -27.2790   18.3650 C   0  0  0  0  0  2  0  0  0  0  0  0
  -28.2260  -28.5600   18.7960 O   0  0  0  0  0  0  0  0  0  0  0  0
  -24.8400  -27.9260   24.9920 C   0  0  0  0  0  0  0  0  0  0  0  0
  -27.0160  -28.5400   19.4370 C   0  0  0  0  0  0  0  0  0  0  0  0
  -23.4110  -27.8380   22.9740 C   0  0  0  0  0  3  0  0  0  0  0  0
  -24.5430  -28.5020   20.7860 C   0  0  0  0  0  0  0  0  0  0  0  0
  -25.6120  -29.1380   22.9590 C   0  0  0  0  0  2  0  0  0  0  0  0
  -25.7140  -28.8290   21.4800 C   0  0  0  0  0  0  0  0  0  0  0  0
  -26.9550  -28.8580   20.8080 C   0  0  0  0  0  3  0  0  0  0  0  0
  -25.8350  -28.2060   18.7420 C   0  0  0  0  0  3  0  0  0  0  0  0
  -24.5960  -28.1880   19.4150 C   0  0  0  0  0  3  0  0  0  0  0  0
  -23.2570  -28.5090   21.5820 C   0  0  0  0  0  2  0  0  0  0  0  0
  -24.6560  -28.2720   23.6860 N   0  0  0  0  0  0  0  0  0  0  0  0
  -23.9760  -27.2930   25.6150 O   0  0  0  0  0  0  0  0  0  0  0  0
  -23.3120  -26.3070   22.7960 C   0  0  0  0  0  0  0  0  0  0  0  0
  -22.6790  -25.8730   21.6930 N   0  0  0  0  0  0  0  0  0  0  0  0
  -23.8200  -25.5390   23.6170 O   0  0  0  0  0  0  0  0  0  0  0  0
  -22.2820  -26.5660   21.0740 H   0  0  0  0  0  0  0  0  0  0  0  0
  -22.4530  -23.6700   18.8410 C   0  0  0  0  0  0  0  0  0  0  0  0
  -22.4990  -24.4780   21.2960 C   0  0  0  0  0  3  0  0  0  0  0  0
  -23.8210  -23.6870   21.4260 C   0  0  0  0  0  2  0  0  0  0  0  0
  -24.6330  -23.6530   20.1290 C   0  0  0  0  0  2  0  0  0  0  0  0
  -23.8150  -23.0140   19.0020 C   0  0  0  0  0  2  0  0  0  0  0  0
  -21.8440  -24.3710   19.9150 C   0  0  0  0  0  0  0  0  0  0  0  0
  -20.5940  -24.9900   19.7070 C   0  0  0  0  0  3  0  0  0  0  0  0
  -19.9520  -24.9180   18.4580 C   0  0  0  0  0  3  0  0  0  0  0  0
  -20.5500  -24.2070   17.4040 C   0  0  0  0  0  3  0  0  0  0  0  0
  -21.7960  -23.5840   17.5960 C   0  0  0  0  0  3  0  0  0  0  0  0
  -26.1320  -28.3290   25.7700 C   0  0  0  0  0  3  0  0  0  0  0  0
  -27.4170  -27.5500   25.2870 C   0  0  1  0  0  0  0  0  0  0  0  0
  -27.2660  -26.0130   25.3350 C   0  0  0  0  0  1  0  0  0  0  0  0
  -27.7790  -27.9490   23.8380 C   0  0  0  0  0  1  0  0  0  0  0  0
  -28.6270  -27.9350   26.1710 C   0  0  0  0  0  1  0  0  0  0  0  0
  -25.8840  -28.0870   27.1970 N   0  0  0  0  0  0  0  0  0  0  0  0
  -25.8090  -29.0480   28.1280 C   0  0  0  0  0  0  0  0  0  0  0  0
  -26.0170  -30.2380   27.8820 O   0  0  0  0  0  0  0  0  0  0  0  0
  -25.6470  -27.1420   27.4600 H   0  0  0  0  0  0  0  0  0  0  0  0
  -23.9810  -28.9920   29.8530 C   0  0  0  0  0  1  0  0  0  0  0  0
  -25.4440  -28.6170   29.5620 C   0  0  0  0  0  3  0  0  0  0  0  0
  -27.6880  -28.6820   30.5510 C   0  0  0  0  0  1  0  0  0  0  0  0
  -26.3240  -29.2040   30.5950 N   0  0  0  0  0  0  0  0  0  0  0  0
  -25.9510  -29.0360   31.5250 H   0  0  0  0  0  0  0  0  0  0  0  0
  -32.3280  -25.1240   20.2710 C   0  0  0  0  0  2  0  0  0  0  0  0
  -33.3530  -26.8810   18.8640 C   0  0  0  0  0  1  0  0  0  0  0  0
  -33.2350  -24.5930   17.9990 C   0  0  0  0  0  1  0  0  0  0  0  0
  -32.6040  -25.6020   18.8840 N   0  0  1  0  0  4  0  0  0  0  0  0
  -31.7030  -25.8310   18.4850 H   0  0  0  0  0  0  0  0  0  0  0  0
  -30.6820  -23.1620   20.7380 C   0  0  0  0  0  2  0  0  0  0  0  0
  -32.1960  -21.2300   20.4910 C   0  0  0  0  0  1  0  0  0  0  0  0
  -31.4350  -22.2960   19.7810 N   0  0  1  0  0  4  0  0  0  0  0  0
  -32.1300  -22.8580   19.3240 H   0  0  0  0  0  0  0  0  0  0  0  0
  -30.5830  -21.7910   18.6650 C   0  0  0  0  0  2  0  0  0  0  0  0
  -32.1080  -22.0980   16.6350 C   0  0  0  0  0  3  0  0  0  0  0  0
  -32.8610  -21.5660   15.5680 C   0  0  0  0  0  3  0  0  0  0  0  0
  -31.3780  -19.8520   17.2380 C   0  0  0  0  0  3  0  0  0  0  0  0
  -31.3740  -21.2400   17.4820 C   0  0  0  0  0  0  0  0  0  0  0  0
  -32.1070  -19.3150   16.1600 C   0  0  0  0  0  0  0  0  0  0  0  0
  -32.8680  -20.1720   15.3290 C   0  0  0  0  0  0  0  0  0  0  0  0
  -32.0570  -17.8170   15.9040 C   0  0  0  0  0  1  0  0  0  0  0  0
  -34.4670  -20.1050   13.4170 C   0  0  0  0  0  0  0  0  0  0  0  0
  -35.3730  -19.9280   11.1260 C   0  0  0  0  0  2  0  0  0  0  0  0
  -34.8270  -21.0430   10.2130 C   0  0  0  0  0  2  0  0  0  0  0  0
  -33.4570  -20.6610    9.6180 C   0  0  0  0  0  2  0  0  0  0  0  0
  -32.4640  -20.1500   10.6930 C   0  0  0  0  0  3  0  0  0  0  0  0
  -33.1360  -19.0630   11.5580 C   0  0  0  0  0  2  0  0  0  0  0  0
  -34.3690  -19.6240   12.1520 N   0  0  0  0  0  0  0  0  0  0  0  0
  -35.3860  -20.8310   13.8110 O   0  0  0  0  0  0  0  0  0  0  0  0
  -33.5480  -19.5830   14.2360 N   0  0  0  0  0  0  0  0  0  0  0  0
  -33.0930  -18.7680   13.8530 H   0  0  0  0  0  0  0  0  0  0  0  0
  -29.9080  -19.8640   10.4830 C   0  0  0  0  0  0  0  0  0  0  0  0
  -29.1330  -19.2450    9.5380 C   0  0  0  0  0  0  0  0  0  0  0  0
  -30.0410  -18.6850    8.5890 C   0  0  0  0  0  0  0  0  0  0  0  0
  -31.2230  -19.6620   10.0900 N   0  0  0  0  0  0  0  0  0  0  0  0
  -31.2940  -18.9000    8.9690 N   0  0  0  0  0  0  0  0  0  0  0  0
  -29.7920  -18.0050    7.3120 C   0  0  0  0  0  0  0  0  0  0  0  0
  -30.3260  -16.7270    7.0380 C   0  0  0  0  0  3  0  0  0  0  0  0
  -30.0590  -16.0860    5.8090 C   0  0  0  0  0  3  0  0  0  0  0  0
  -29.2480  -16.7230    4.8400 C   0  0  0  0  0  0  0  0  0  0  0  0
  -28.7360  -18.0060    5.1070 C   0  0  0  0  0  3  0  0  0  0  0  0
  -29.0080  -18.6430    6.3290 C   0  0  0  0  0  3  0  0  0  0  0  0
  -28.9570  -16.1900    3.6080 O   0  0  0  0  0  0  0  0  0  0  0  0
  -28.9980  -14.8380    3.3800 C   0  0  0  0  0  0  0  0  0  0  0  0
  -28.1490  -13.9410    4.0670 C   0  0  0  0  0  3  0  0  0  0  0  0
  -28.1750  -12.5680    3.7530 C   0  0  0  0  0  3  0  0  0  0  0  0
  -29.0400  -12.0890    2.7500 C   0  0  0  0  0  0  0  0  0  0  0  0
  -29.8800  -12.9820    2.0620 C   0  0  0  0  0  3  0  0  0  0  0  0
  -29.8570  -14.3520    2.3740 C   0  0  0  0  0  0  0  0  0  0  0  0
  -30.6540  -15.2100    1.6940 F   0  0  0  0  0  0  0  0  0  0  0  0
  -29.0590  -10.7720    2.4420 F   0  0  0  0  0  0  0  0  0  0  0  0
  -27.6330  -19.2530    9.4640 C   0  0  0  0  0  0  0  0  0  0  0  0
  -27.0320  -18.1340    9.0680 N   0  0  0  0  0  0  0  0  0  0  0  0
  -26.9800  -20.2380    9.8030 O   0  0  0  0  0  0  0  0  0  0  0  0
  -27.5650  -17.3170    8.8120 H   0  0  0  0  0  0  0  0  0  0  0  0
  -26.0240  -18.0970    9.0200 H   0  0  0  0  0  0  0  0  0  0  0  0
  -29.6050  -20.5960   11.6270 N   0  0  0  0  0  0  0  0  0  0  0  0
  -28.6510  -20.7960   11.9060 H   0  0  0  0  0  0  0  0  0  0  0  0
  -30.2930  -21.0260   12.2330 H   0  0  0  0  0  0  0  0  0  0  0  0
  2 52  1  0
  2  1  1  1
  3  2  1  0
  4  3  1  0
  5  6  1  0
  5  4  1  0
  6  8  1  0
  7 18  2  0
  8 13  1  0
  9 19  1  0
  9 17  1  0
 10 12  1  0
 10 16  1  0
 11 17  1  0
 12 11  1  0
 13 12  2  0
 14 15  1  0
 14  8  2  0
 15 10  2  0
 16  9  1  0
 17  7  1  0
 19 21  2  0
 20 19  1  0
 22 20  1  0
 23 27  1  0
 23 28  1  0
 24 25  1  0
 24 20  1  0
 26 25  1  0
 27 26  1  0
 28 24  1  0
 29 28  2  0
 30 29  1  0
 31 32  1  0
 31 30  2  0
 32 23  2  0
 33  7  1  0
 33 38  1  0
 34 35  1  6
 34 33  1  0
 34 37  1  0
 36 34  1  0
 38 41  1  0
 38 39  1  0
 39 43  1  0
 40 39  2  0
 43 42  1  0
 43 45  1  0
 44 45  1  0
 45 46  1  0
 47  2  1  0
 48 50  1  0
 49 50  1  0
 50 47  1  0
 50 51  1  6
 54 53  1  0
 54 52  1  0
 54 55  1  6
 56 54  1  0
 57 60  1  0
 58 57  2  0
 59 60  2  0
 60 56  1  0
 61 59  1  0
 62 58  1  0
 62 61  2  0
 63 61  1  0
 64 71  2  0
 64 72  1  0
 65 70  1  0
 66 65  1  0
 67 66  1  0
 68 67  1  0
 68 69  1  0
 69 70  1  0
 70 64  1  0
 72 62  1  0
 73 72  1  0
 74 99  1  0
 75 74  2  0
 76 78  2  0
 76 75  1  0
 77 74  1  0
 77 68  1  0
 78 77  1  0
 79 76  1  0
 80 79  1  0
 81 80  2  0
 82 83  2  0
 82 81  1  0
 83 84  1  0
 84 79  2  0
 85 82  1  0
 86 85  1  0
 86 87  1  0
 88 87  2  0
 89 88  1  0
 90 91  1  0
 90 89  2  0
 91 86  2  0
 92 91  1  0
 93 89  1  0
 94 75  1  0
 94 96  2  0
 95 94  1  0
 97 95  1  0
 98 95  1  0
 99100  1  0
 99101  1  0
M  ISO  4   5 101   6 101  64 100  72 100
M  END
>  <TORSDO>  (91) 
F 25

>  <SCORE>  (91) 
-3.193

>  <name>  (91) 
90

>  <ligand_id>  (91) 
90

>  <original_smiles>  (91) 
[H]c1c([H])c([H])c2c(c1[H])C([H])([H])C([H])([H])C([H])([H])C2([H])N([H])C(=O)C1([H])N(C(=O)C([H])(N([H])C(=O)C([H])(N([H])C([H])([H])[H])C([H])([H])[H])C(C([H])([H])[H])(C([H])([H])[H])C([H])([H])[H])C([H])([H])c2c([H])c(OC([H])([H])C([H])([H])C([H])([H])C(C([H])([H])[H])(C([H])([H])[N+]([H])(C([H])([H])[H])C([H])([H])[H])C([H])([H])[N+]([H])(C([H])([H])[H])C([H])([H])c3c([H])c([H])c(N([H])C(=O)N4C([H])([H])C([H])([H])C([H])([H])C([H])(n5nc(-c6c([H])c([H])c(Oc7c([H])c([H])c(F)c([H])c7F)c([H])c6[H])c(C(=O)N([H])[H])c5N([H])[H])C4([H])[H])c(C([H])([H])[H])c3[H])c([H])c([H])c2C1([H])[H]

>  <smiles>  (91) 
[H]c1c([H])c([H])c2c(c1[H])C([H])([H])C([H])([H])C([H])([H])C2([H])N([H])C(=O)C1([H])N(C(=O)C([H])(N([H])C(=O)C([H])(N([H])C([H])([H])[H])C([H])([H])[H])C(C([H])([H])[H])(C([H])([H])[H])C([H])([H])[H])C([H])([H])c2c([H])c(OC([H])([H])C([H])([H])C([H])([H])C(C([H])([H])[H])(C([H])([H])[N+]([H])(C([H])([H])[H])C([H])([H])[H])C([H])([H])[N+]([H])(C([H])([H])[H])C([H])([H])c3c([H])c([H])c(N([H])C(=O)N4C([H])([H])C([H])([H])C([H])([H])C([H])(n5nc(-c6c([H])c([H])c(Oc7c([H])c([H])c(F)c([H])c7F)c([H])c6[H])c(C(=O)N([H])[H])c5N([H])[H])C4([H])[H])c(C([H])([H])[H])c3[H])c([H])c([H])c2C1([H])[H]

$$$$
91:0:0
     RDKit          3D

 97105  0  0  1  0  0  0  0  0999 V2000
  -28.7120  -22.4090   20.2220 C   0  0  0  0  0  3  0  0  0  0  0  0
  -30.1350  -24.1260   19.2510 C   0  0  0  0  0  3  0  0  0  0  0  0
  -30.6270  -21.7340   18.9190 C   0  0  0  0  0  3  0  0  0  0  0  0
  -28.9990  -23.8200   20.0180 C   0  0  0  0  0  0  0  0  0  0  0  0
  -29.5140  -21.3130   19.6880 C   0  0  0  0  0  0  0  0  0  0  0  0
  -30.9340  -23.0980   18.7120 C   0  0  0  0  0  0  0  0  0  0  0  0
  -32.0120  -23.4230   17.9600 F   0  0  0  0  0  0  0  0  0  0  0  0
  -28.1010  -24.9870   20.6060 C   0  0  0  0  0  2  0  0  0  0  0  0
  -28.4200  -26.4360   20.3730 O   0  0  0  0  0  0  0  0  0  0  0  0
  -24.6990  -31.9290   23.3480 C   0  0  0  0  0  0  0  0  0  0  0  0
  -27.3320  -27.3340   20.3350 C   0  0  0  0  0  0  0  0  0  0  0  0
  -23.5150  -30.5260   21.7000 C   0  0  0  0  0  3  0  0  0  0  0  0
  -24.9800  -28.9730   20.2900 C   0  0  0  0  0  0  0  0  0  0  0  0
  -26.0580  -30.8350   21.5460 C   0  0  0  0  0  2  0  0  0  0  0  0
  -26.1440  -29.4530   20.9030 C   0  0  0  0  0  0  0  0  0  0  0  0
  -27.3280  -28.6460   20.9150 C   0  0  0  0  0  3  0  0  0  0  0  0
  -26.1510  -26.9260   19.6790 C   0  0  0  0  0  3  0  0  0  0  0  0
  -24.9870  -27.7170   19.6660 C   0  0  0  0  0  3  0  0  0  0  0  0
  -23.7430  -29.8500   20.3230 C   0  0  0  0  0  2  0  0  0  0  0  0
  -24.7760  -31.1150   22.2540 N   0  0  0  0  0  0  0  0  0  0  0  0
  -23.6100  -32.2090   23.8690 O   0  0  0  0  0  0  0  0  0  0  0  0
  -22.8400  -29.5120   22.6550 C   0  0  0  0  0  0  0  0  0  0  0  0
  -21.5130  -29.3430   22.5220 N   0  0  0  0  0  0  0  0  0  0  0  0
  -23.5100  -28.8810   23.4780 O   0  0  0  0  0  0  0  0  0  0  0  0
  -21.0320  -29.9030   21.8330 H   0  0  0  0  0  0  0  0  0  0  0  0
  -18.1290  -28.1510   22.9940 C   0  0  0  0  0  0  0  0  0  0  0  0
  -20.6850  -28.4100   23.2880 C   0  0  0  0  0  3  0  0  0  0  0  0
  -20.7910  -26.9760   22.7200 C   0  0  0  0  0  2  0  0  0  0  0  0
  -19.6990  -26.6490   21.6970 C   0  0  0  0  0  2  0  0  0  0  0  0
  -18.3110  -26.7990   22.3250 C   0  0  0  0  0  2  0  0  0  0  0  0
  -19.2440  -28.9150   23.4310 C   0  0  0  0  0  0  0  0  0  0  0  0
  -19.0200  -30.1800   24.0150 C   0  0  0  0  0  3  0  0  0  0  0  0
  -17.7150  -30.6820   24.1670 C   0  0  0  0  0  3  0  0  0  0  0  0
  -16.6140  -29.9170   23.7450 C   0  0  0  0  0  3  0  0  0  0  0  0
  -16.8210  -28.6530   23.1640 C   0  0  0  0  0  3  0  0  0  0  0  0
  -25.9750  -32.5650   23.9820 C   0  0  0  0  0  3  0  0  0  0  0  0
  -25.6620  -33.9650   24.3020 N   0  0  0  0  0  0  0  0  0  0  0  0
  -26.0170  -35.0160   23.5510 C   0  0  0  0  0  0  0  0  0  0  0  0
  -26.7100  -34.9070   22.5360 O   0  0  0  0  0  0  0  0  0  0  0  0
  -25.0490  -34.1230   25.0880 H   0  0  0  0  0  0  0  0  0  0  0  0
  -24.3180  -36.8240   23.1410 C   0  0  0  0  0  1  0  0  0  0  0  0
  -25.5240  -36.4060   23.9940 C   0  0  0  0  0  3  0  0  0  0  0  0
  -27.6370  -37.2680   24.9030 C   0  0  0  0  0  1  0  0  0  0  0  0
  -26.5700  -37.4510   23.9240 N   0  0  0  0  0  0  0  0  0  0  0  0
  -26.1660  -38.3740   24.0630 H   0  0  0  0  0  0  0  0  0  0  0  0
  -26.4740  -31.8000   25.2690 C   0  0  1  0  0  0  0  0  0  0  0  0
  -25.3650  -31.5600   26.3210 C   0  0  0  0  0  1  0  0  0  0  0  0
  -27.0700  -30.4240   24.8930 C   0  0  0  0  0  1  0  0  0  0  0  0
  -27.6090  -32.6040   25.9460 C   0  0  0  0  0  1  0  0  0  0  0  0
  -29.1320  -19.7480   19.8110 C   0  0  0  0  0  3  0  0  0  0  0  0
  -28.2440  -19.5830   20.9710 N   0  0  0  0  0  4  0  0  0  0  0  0
  -28.7290  -19.7970   21.8240 H   0  0  0  0  0  0  0  0  0  0  0  0
  -27.9020  -18.6400   21.0170 H   0  0  0  0  0  0  0  0  0  0  0  0
  -27.4530  -20.1930   20.8860 H   0  0  0  0  0  0  0  0  0  0  0  0
  -31.2930  -18.8110   20.8650 C   0  0  0  0  0  1  0  0  0  0  0  0
  -30.9530  -18.4040   18.4430 C   0  0  0  0  0  1  0  0  0  0  0  0
  -30.2180  -18.5000   19.8010 C   0  0  2  0  0  0  0  0  0  0  0  0
  -29.5670  -17.0070   20.0100 C   0  0  0  0  0  2  0  0  0  0  0  0
  -30.8150  -14.7190   19.6000 C   0  0  0  0  0  0  0  0  0  0  0  0
  -30.3940  -12.5040   18.5130 C   0  0  0  0  0  2  0  0  0  0  0  0
  -29.3250  -12.6260   17.4080 C   0  0  0  0  0  2  0  0  0  0  0  0
  -27.9100  -12.4740   17.9970 C   0  0  0  0  0  2  0  0  0  0  0  0
  -27.7000  -13.3420   19.2640 C   0  0  0  0  0  3  0  0  0  0  0  0
  -28.8720  -13.2040   20.2560 C   0  0  0  0  0  2  0  0  0  0  0  0
  -30.1160  -13.5330   19.5430 N   0  0  0  0  0  0  0  0  0  0  0  0
  -31.8580  -14.8510   18.9520 O   0  0  0  0  0  0  0  0  0  0  0  0
  -30.3610  -15.7520   20.4080 N   0  0  0  0  0  0  0  0  0  0  0  0
  -25.4280  -13.9620   20.2810 C   0  0  0  0  0  0  0  0  0  0  0  0
  -24.3960  -13.2010   20.7590 C   0  0  0  0  0  0  0  0  0  0  0  0
  -24.8230  -11.8420   20.6450 C   0  0  0  0  0  0  0  0  0  0  0  0
  -26.4160  -13.0690   19.9030 N   0  0  0  0  0  0  0  0  0  0  0  0
  -26.0670  -11.7870   20.1830 N   0  0  0  0  0  0  0  0  0  0  0  0
  -24.0960  -10.5890   20.8910 C   0  0  0  0  0  0  0  0  0  0  0  0
  -24.5560   -9.6410   21.8300 C   0  0  0  0  0  3  0  0  0  0  0  0
  -23.8280   -8.4530   22.0630 C   0  0  0  0  0  3  0  0  0  0  0  0
  -22.6260   -8.2070   21.3580 C   0  0  0  0  0  0  0  0  0  0  0  0
  -22.1850   -9.1440   20.4070 C   0  0  0  0  0  3  0  0  0  0  0  0
  -22.9140  -10.3220   20.1720 C   0  0  0  0  0  3  0  0  0  0  0  0
  -21.8660   -7.0710   21.5000 O   0  0  0  0  0  0  0  0  0  0  0  0
  -21.7970   -6.3960   22.6930 C   0  0  0  0  0  0  0  0  0  0  0  0
  -21.3580   -7.0230   23.8800 C   0  0  0  0  0  3  0  0  0  0  0  0
  -21.2330   -6.2750   25.0680 C   0  0  0  0  0  3  0  0  0  0  0  0
  -21.5400   -4.9010   25.0700 C   0  0  0  0  0  0  0  0  0  0  0  0
  -21.9730   -4.2740   23.8880 C   0  0  0  0  0  3  0  0  0  0  0  0
  -22.0980   -5.0190   22.7020 C   0  0  0  0  0  0  0  0  0  0  0  0
  -22.4940   -4.4050   21.5620 F   0  0  0  0  0  0  0  0  0  0  0  0
  -21.4150   -4.1800   26.2090 F   0  0  0  0  0  0  0  0  0  0  0  0
  -23.0510  -13.6980   21.2040 C   0  0  0  0  0  0  0  0  0  0  0  0
  -22.4290  -13.0130   22.1570 N   0  0  0  0  0  0  0  0  0  0  0  0
  -22.5660  -14.7280   20.7390 O   0  0  0  0  0  0  0  0  0  0  0  0
  -22.8360  -12.1780   22.5500 H   0  0  0  0  0  0  0  0  0  0  0  0
  -21.5310  -13.3270   22.4970 H   0  0  0  0  0  0  0  0  0  0  0  0
  -25.6020  -15.3330   20.1130 N   0  0  0  0  0  0  0  0  0  0  0  0
  -24.8600  -15.9980   20.3040 H   0  0  0  0  0  0  0  0  0  0  0  0
  -26.4060  -15.7510   19.6650 H   0  0  0  0  0  0  0  0  0  0  0  0
  -30.9050  -14.6030   22.6160 C   0  0  0  0  0  1  0  0  0  0  0  0
  -30.9930  -15.8650   21.7380 C   0  0  0  0  0  2  0  0  0  0  0  0
  2  4  2  0
  3  5  1  0
  4  1  1  0
  4  8  1  0
  5 50  1  0
  5  1  2  0
  6  3  2  0
  6  2  1  0
  7  6  1  0
  9  8  1  0
 10 21  2  0
 11  9  1  0
 11 16  1  0
 12 20  1  0
 12 22  1  0
 13 19  1  0
 13 15  1  0
 14 20  1  0
 15 16  2  0
 15 14  1  0
 17 11  2  0
 18 17  1  0
 18 13  2  0
 19 12  1  0
 20 10  1  0
 22 24  2  0
 23 22  1  0
 25 23  1  0
 26 35  2  0
 26 31  1  0
 27 23  1  0
 27 31  1  0
 28 27  1  0
 29 30  1  0
 29 28  1  0
 30 26  1  0
 31 32  2  0
 32 33  1  0
 34 33  2  0
 35 34  1  0
 36 10  1  0
 36 37  1  0
 36 46  1  0
 37 40  1  0
 38 42  1  0
 38 37  1  0
 39 38  2  0
 42 41  1  0
 44 42  1  0
 44 45  1  0
 44 43  1  0
 46 49  1  1
 46 47  1  0
 48 46  1  0
 50 57  1  0
 50 51  1  0
 51 53  1  0
 51 52  1  0
 54 51  1  0
 57 56  1  6
 57 58  1  0
 57 55  1  0
 58 67  1  0
 59 67  1  0
 60 65  1  0
 61 62  1  0
 61 60  1  0
 63 62  1  0
 63 71  1  0
 63 64  1  0
 65 59  1  0
 65 64  1  0
 66 59  2  0
 67 97  1  0
 68 69  2  0
 69 88  1  0
 70 69  1  0
 70 73  1  0
 71 72  1  0
 71 68  1  0
 72 70  2  0
 73 74  1  0
 74 75  2  0
 76 79  1  0
 76 75  1  0
 77 76  2  0
 78 77  1  0
 78 73  2  0
 79 80  1  0
 80 85  2  0
 80 81  1  0
 81 82  2  0
 82 83  1  0
 83 87  1  0
 84 83  2  0
 85 84  1  0
 86 85  1  0
 88 89  1  0
 89 92  1  0
 89 91  1  0
 90 88  2  0
 93 68  1  0
 93 94  1  0
 95 93  1  0
 97 96  1  0
M  ISO  4   8 101   9 101  59 100  67 100
M  END
>  <TORSDO>  (92) 
F 22

>  <SCORE>  (92) 
-11.465

>  <name>  (92) 
91

>  <ligand_id>  (92) 
91

>  <original_smiles>  (92) 
[H]c1c([H])c([H])c2c(c1[H])C([H])([H])C([H])([H])C([H])([H])C2([H])N([H])C(=O)C1([H])N(C(=O)C([H])(N([H])C(=O)C([H])(N([H])C([H])([H])[H])C([H])([H])[H])C(C([H])([H])[H])(C([H])([H])[H])C([H])([H])[H])C([H])([H])c2c([H])c(OC([H])([H])c3c([H])c(F)c([H])c(C([H])(C(C([H])([H])[H])(C([H])([H])[H])C([H])([H])N(C(=O)N4C([H])([H])C([H])([H])C([H])([H])C([H])(n5nc(-c6c([H])c([H])c(Oc7c([H])c([H])c(F)c([H])c7F)c([H])c6[H])c(C(=O)N([H])[H])c5N([H])[H])C4([H])[H])C([H])([H])C([H])([H])[H])[N+]([H])([H])[H])c3[H])c([H])c([H])c2C1([H])[H]

>  <smiles>  (92) 
[H]c1c([H])c([H])c2c(c1[H])C([H])([H])C([H])([H])C([H])([H])C2([H])N([H])C(=O)C1([H])N(C(=O)C([H])(N([H])C(=O)C([H])(N([H])C([H])([H])[H])C([H])([H])[H])C(C([H])([H])[H])(C([H])([H])[H])C([H])([H])[H])C([H])([H])c2c([H])c(OC([H])([H])c3c([H])c(F)c([H])c(C([H])(C(C([H])([H])[H])(C([H])([H])[H])C([H])([H])N(C(=O)N4C([H])([H])C([H])([H])C([H])([H])C([H])(n5nc(-c6c([H])c([H])c(Oc7c([H])c([H])c(F)c([H])c7F)c([H])c6[H])c(C(=O)N([H])[H])c5N([H])[H])C4([H])[H])C([H])([H])C([H])([H])[H])[N+]([H])([H])[H])c3[H])c([H])c([H])c2C1([H])[H]

$$$$
92:0:0
     RDKit          3D

 93101  0  0  1  0  0  0  0  0999 V2000
  -28.4280  -21.3760   18.4740 C   0  0  0  0  0  1  0  0  0  0  0  0
  -29.2940  -21.8000   19.6030 N   0  0  1  0  0  4  0  0  0  0  0  0
  -28.7820  -21.6050   20.4490 H   0  0  0  0  0  0  0  0  0  0  0  0
  -30.5330  -20.9730   19.7010 C   0  0  0  0  0  2  0  0  0  0  0  0
  -30.0050  -18.5160   19.0900 C   0  0  0  0  0  3  0  0  0  0  0  0
  -29.9610  -17.1430   19.4280 C   0  0  0  0  0  3  0  0  0  0  0  0
  -30.5580  -19.0570   21.3800 C   0  0  0  0  0  3  0  0  0  0  0  0
  -30.3270  -19.4900   20.0600 C   0  0  0  0  0  0  0  0  0  0  0  0
  -30.2780  -16.6860   20.7380 C   0  0  0  0  0  0  0  0  0  0  0  0
  -30.5480  -17.6890   21.7170 C   0  0  0  0  0  0  0  0  0  0  0  0
  -30.8410  -17.3780   23.0010 F   0  0  0  0  0  0  0  0  0  0  0  0
  -30.7510  -14.3780   20.0890 C   0  0  0  0  0  0  0  0  0  0  0  0
  -30.2430  -12.3460   18.7730 C   0  0  0  0  0  2  0  0  0  0  0  0
  -29.2230  -12.6470   17.6590 C   0  0  0  0  0  2  0  0  0  0  0  0
  -27.7800  -12.5220   18.1860 C   0  0  0  0  0  2  0  0  0  0  0  0
  -27.5640  -13.2810   19.5200 C   0  0  0  0  0  3  0  0  0  0  0  0
  -28.6850  -12.9670   20.5280 C   0  0  0  0  0  2  0  0  0  0  0  0
  -29.9830  -13.2650   19.8940 N   0  0  0  0  0  0  0  0  0  0  0  0
  -31.7520  -14.6150   19.4010 O   0  0  0  0  0  0  0  0  0  0  0  0
  -30.4850  -14.8030   22.4320 C   0  0  0  0  0  1  0  0  0  0  0  0
  -30.3470  -15.2610   21.0370 N   0  0  0  0  0  0  0  0  0  0  0  0
  -25.2460  -13.8890   20.4580 C   0  0  0  0  0  0  0  0  0  0  0  0
  -24.1990  -13.1150   20.8810 C   0  0  0  0  0  0  0  0  0  0  0  0
  -24.6320  -11.7590   20.7560 C   0  0  0  0  0  0  0  0  0  0  0  0
  -26.2490  -13.0040   20.0960 N   0  0  0  0  0  0  0  0  0  0  0  0
  -25.8890  -11.7160   20.3320 N   0  0  0  0  0  0  0  0  0  0  0  0
  -23.9000  -10.5000   20.9520 C   0  0  0  0  0  0  0  0  0  0  0  0
  -24.3670   -9.5040   21.8370 C   0  0  0  0  0  3  0  0  0  0  0  0
  -23.6370   -8.3090   22.0200 C   0  0  0  0  0  3  0  0  0  0  0  0
  -22.4240   -8.1040   21.3190 C   0  0  0  0  0  0  0  0  0  0  0  0
  -21.9750   -9.0900   20.4230 C   0  0  0  0  0  3  0  0  0  0  0  0
  -22.7050  -10.2750   20.2370 C   0  0  0  0  0  3  0  0  0  0  0  0
  -21.6620   -6.9650   21.4150 O   0  0  0  0  0  0  0  0  0  0  0  0
  -21.6380   -6.2080   22.5590 C   0  0  0  0  0  0  0  0  0  0  0  0
  -21.2590   -6.7530   23.8060 C   0  0  0  0  0  3  0  0  0  0  0  0
  -21.1820   -5.9240   24.9430 C   0  0  0  0  0  3  0  0  0  0  0  0
  -21.4720   -4.5500   24.8350 C   0  0  0  0  0  0  0  0  0  0  0  0
  -21.8430   -4.0050   23.5920 C   0  0  0  0  0  3  0  0  0  0  0  0
  -21.9220   -4.8320   22.4590 C   0  0  0  0  0  0  0  0  0  0  0  0
  -22.2600   -4.2960   21.2610 F   0  0  0  0  0  0  0  0  0  0  0  0
  -21.3900   -3.7520   25.9240 F   0  0  0  0  0  0  0  0  0  0  0  0
  -22.8370  -13.5980   21.2930 C   0  0  0  0  0  0  0  0  0  0  0  0
  -22.1830  -12.8940   22.2090 N   0  0  0  0  0  0  0  0  0  0  0  0
  -22.3640  -14.6390   20.8350 O   0  0  0  0  0  0  0  0  0  0  0  0
  -22.5790  -12.0510   22.6030 H   0  0  0  0  0  0  0  0  0  0  0  0
  -21.2730  -13.2010   22.5220 H   0  0  0  0  0  0  0  0  0  0  0  0
  -25.4240  -15.2630   20.3320 N   0  0  0  0  0  0  0  0  0  0  0  0
  -24.6940  -15.9290   20.5530 H   0  0  0  0  0  0  0  0  0  0  0  0
  -26.2660  -15.7020   19.9830 H   0  0  0  0  0  0  0  0  0  0  0  0
  -29.5800  -23.2750   19.6150 C   0  0  0  0  0  2  0  0  0  0  0  0
  -28.3230  -24.1770   19.8170 C   0  0  0  0  0  2  0  0  0  0  0  0
  -28.5230  -25.4490   20.7000 C   0  0  0  0  0  2  0  0  0  0  0  0
  -28.5250  -26.7180   20.0260 O   0  0  0  0  0  0  0  0  0  0  0  0
  -24.6120  -31.8410   23.1180 C   0  0  0  0  0  0  0  0  0  0  0  0
  -27.3420  -27.4250   20.0620 C   0  0  0  0  0  0  0  0  0  0  0  0
  -23.4360  -30.4170   21.4770 C   0  0  0  0  0  3  0  0  0  0  0  0
  -24.9200  -28.8860   20.0750 C   0  0  0  0  0  0  0  0  0  0  0  0
  -25.9550  -30.8160   21.2810 C   0  0  0  0  0  2  0  0  0  0  0  0
  -26.0700  -29.4400   20.6530 C   0  0  0  0  0  0  0  0  0  0  0  0
  -27.2890  -28.7190   20.6330 C   0  0  0  0  0  3  0  0  0  0  0  0
  -26.1670  -26.8750   19.5070 C   0  0  0  0  0  3  0  0  0  0  0  0
  -24.9630  -27.6030   19.5040 C   0  0  0  0  0  3  0  0  0  0  0  0
  -23.6630  -29.7290   20.1020 C   0  0  0  0  0  2  0  0  0  0  0  0
  -24.6870  -31.0410   22.0180 N   0  0  0  0  0  0  0  0  0  0  0  0
  -23.5250  -32.0980   23.6530 O   0  0  0  0  0  0  0  0  0  0  0  0
  -22.7920  -29.3920   22.4390 C   0  0  0  0  0  0  0  0  0  0  0  0
  -21.4650  -29.2210   22.3320 N   0  0  0  0  0  0  0  0  0  0  0  0
  -23.4840  -28.7530   23.2360 O   0  0  0  0  0  0  0  0  0  0  0  0
  -20.9680  -29.7880   21.6590 H   0  0  0  0  0  0  0  0  0  0  0  0
  -18.0860  -28.0680   22.8950 C   0  0  0  0  0  0  0  0  0  0  0  0
  -20.6550  -28.2820   23.1050 C   0  0  0  0  0  3  0  0  0  0  0  0
  -20.7200  -26.8610   22.4990 C   0  0  0  0  0  2  0  0  0  0  0  0
  -19.5880  -26.5750   21.5080 C   0  0  0  0  0  2  0  0  0  0  0  0
  -18.2240  -26.7290   22.1900 C   0  0  0  0  0  2  0  0  0  0  0  0
  -19.2270  -28.8040   23.3100 C   0  0  0  0  0  0  0  0  0  0  0  0
  -19.0460  -30.0600   23.9290 C   0  0  0  0  0  3  0  0  0  0  0  0
  -17.7540  -30.5780   24.1380 C   0  0  0  0  0  3  0  0  0  0  0  0
  -16.6270  -29.8390   23.7410 C   0  0  0  0  0  3  0  0  0  0  0  0
  -16.7950  -28.5860   23.1230 C   0  0  0  0  0  3  0  0  0  0  0  0
  -25.8840  -32.4960   23.7450 C   0  0  0  0  0  3  0  0  0  0  0  0
  -25.5430  -33.8830   24.0910 N   0  0  0  0  0  0  0  0  0  0  0  0
  -25.8340  -34.9500   23.3360 C   0  0  0  0  0  0  0  0  0  0  0  0
  -26.4910  -34.8730   22.2930 O   0  0  0  0  0  0  0  0  0  0  0  0
  -24.9600  -34.0140   24.9050 H   0  0  0  0  0  0  0  0  0  0  0  0
  -24.0460  -36.6920   23.0360 C   0  0  0  0  0  1  0  0  0  0  0  0
  -25.3180  -36.3210   23.8150 C   0  0  0  0  0  3  0  0  0  0  0  0
  -27.4490  -37.2630   24.5920 C   0  0  0  0  0  1  0  0  0  0  0  0
  -26.3170  -37.4060   23.6810 N   0  0  0  0  0  0  0  0  0  0  0  0
  -25.8890  -38.3120   23.8490 H   0  0  0  0  0  0  0  0  0  0  0  0
  -26.4220  -31.7220   25.0100 C   0  0  1  0  0  0  0  0  0  0  0  0
  -25.3390  -31.4460   26.0790 C   0  0  0  0  0  1  0  0  0  0  0  0
  -27.0350  -30.3650   24.5910 C   0  0  0  0  0  1  0  0  0  0  0  0
  -27.5620  -32.5310   25.6740 C   0  0  0  0  0  1  0  0  0  0  0  0
  1  2  1  0
  2 50  1  0
  2  4  1  0
  2  3  1  1
  4  8  1  0
  5  6  2  0
  5  8  1  0
  6  9  1  0
  7 10  1  0
  8  7  2  0
  9 21  1  0
  9 10  2  0
 10 11  1  0
 12 21  1  0
 13 18  1  0
 14 15  1  0
 14 13  1  0
 16 15  1  0
 16 25  1  0
 16 17  1  0
 18 12  1  0
 18 17  1  0
 19 12  2  0
 21 20  1  0
 22 23  2  0
 23 42  1  0
 24 23  1  0
 24 27  1  0
 25 26  1  0
 25 22  1  0
 26 24  2  0
 27 28  1  0
 28 29  2  0
 30 33  1  0
 30 29  1  0
 31 30  2  0
 32 31  1  0
 32 27  2  0
 33 34  1  0
 34 35  1  0
 35 36  2  0
 37 36  1  0
 37 41  1  0
 38 37  2  0
 39 34  2  0
 39 38  1  0
 40 39  1  0
 42 43  1  0
 43 46  1  0
 43 45  1  0
 44 42  2  0
 47 22  1  0
 47 48  1  0
 49 47  1  0
 50 51  1  0
 51 52  1  0
 53 55  1  0
 53 52  1  0
 54 65  2  0
 55 60  1  0
 56 64  1  0
 56 66  1  0
 57 63  1  0
 57 59  1  0
 58 64  1  0
 59 58  1  0
 60 59  2  0
 61 55  2  0
 62 61  1  0
 62 57  2  0
 63 56  1  0
 64 54  1  0
 66 68  2  0
 67 66  1  0
 69 67  1  0
 70 79  2  0
 70 75  1  0
 71 67  1  0
 71 75  1  0
 72 71  1  0
 73 74  1  0
 73 72  1  0
 74 70  1  0
 75 76  2  0
 76 77  1  0
 78 77  2  0
 79 78  1  0
 80 54  1  0
 80 81  1  0
 80 90  1  0
 81 84  1  0
 82 86  1  0
 82 81  1  0
 83 82  2  0
 86 85  1  0
 88 86  1  0
 88 89  1  0
 88 87  1  0
 90 93  1  1
 90 91  1  0
 92 90  1  0
M  ISO  4  12 100  21 100  52 101  53 101
M  END
>  <TORSDO>  (93) 
F 21

>  <SCORE>  (93) 
-12.189

>  <name>  (93) 
92

>  <ligand_id>  (93) 
92

>  <original_smiles>  (93) 
[H]c1c([H])c([H])c2c(c1[H])C([H])([H])C([H])([H])C([H])([H])C2([H])N([H])C(=O)C1([H])N(C(=O)C([H])(N([H])C(=O)C([H])(N([H])C([H])([H])[H])C([H])([H])[H])C(C([H])([H])[H])(C([H])([H])[H])C([H])([H])[H])C([H])([H])c2c([H])c(OC([H])([H])C([H])([H])C([H])([H])[N+]([H])(C([H])([H])[H])C([H])([H])c3c([H])c([H])c(N(C(=O)N4C([H])([H])C([H])([H])C([H])([H])C([H])(n5nc(-c6c([H])c([H])c(Oc7c([H])c([H])c(F)c([H])c7F)c([H])c6[H])c(C(=O)N([H])[H])c5N([H])[H])C4([H])[H])C([H])([H])[H])c(F)c3[H])c([H])c([H])c2C1([H])[H]

>  <smiles>  (93) 
[H]c1c([H])c([H])c2c(c1[H])C([H])([H])C([H])([H])C([H])([H])C2([H])N([H])C(=O)C1([H])N(C(=O)C([H])(N([H])C(=O)C([H])(N([H])C([H])([H])[H])C([H])([H])[H])C(C([H])([H])[H])(C([H])([H])[H])C([H])([H])[H])C([H])([H])c2c([H])c(OC([H])([H])C([H])([H])C([H])([H])[N+]([H])(C([H])([H])[H])C([H])([H])c3c([H])c([H])c(N(C(=O)N4C([H])([H])C([H])([H])C([H])([H])C([H])(n5nc(-c6c([H])c([H])c(Oc7c([H])c([H])c(F)c([H])c7F)c([H])c6[H])c(C(=O)N([H])[H])c5N([H])[H])C4([H])[H])C([H])([H])[H])c(F)c3[H])c([H])c([H])c2C1([H])[H]

$$$$
93:0:0
     RDKit          3D

 93101  0  0  1  0  0  0  0  0999 V2000
  -30.4510  -19.9390   18.8140 C   0  0  0  0  0  3  0  0  0  0  0  0
  -28.6300  -19.8240   20.4010 C   0  0  0  0  0  3  0  0  0  0  0  0
  -30.5160  -18.5250   18.7600 C   0  0  0  0  0  0  0  0  0  0  0  0
  -29.6340  -17.7390   19.5500 C   0  0  0  0  0  0  0  0  0  0  0  0
  -29.5140  -20.6150   19.6330 C   0  0  0  0  0  0  0  0  0  0  0  0
  -28.6910  -18.4140   20.3660 C   0  0  0  0  0  0  0  0  0  0  0  0
  -31.5380  -17.8860   17.8340 C   0  0  0  0  0  1  0  0  0  0  0  0
  -27.8230  -17.7030   21.1260 F   0  0  0  0  0  0  0  0  0  0  0  0
  -30.6960  -22.7480   19.3930 C   0  0  0  0  0  1  0  0  0  0  0  0
  -29.4590  -22.0330   19.7060 N   0  0  0  0  0  0  0  0  0  0  0  0
  -28.1850  -22.6600   19.3150 C   0  0  0  0  0  2  0  0  0  0  0  0
  -27.9200  -24.0630   19.9320 C   0  0  0  0  0  2  0  0  0  0  0  0
  -28.3310  -25.2710   19.0500 C   0  0  0  0  0  2  0  0  0  0  0  0
  -28.2150  -26.5340   19.7240 O   0  0  0  0  0  0  0  0  0  0  0  0
  -24.4880  -31.5880   23.0590 C   0  0  0  0  0  0  0  0  0  0  0  0
  -27.0180  -27.2280   19.7590 C   0  0  0  0  0  0  0  0  0  0  0  0
  -23.2300  -30.2650   21.3900 C   0  0  0  0  0  3  0  0  0  0  0  0
  -24.6340  -28.7610   19.8810 C   0  0  0  0  0  0  0  0  0  0  0  0
  -25.7550  -30.5970   21.1550 C   0  0  0  0  0  2  0  0  0  0  0  0
  -25.8080  -29.2490   20.4660 C   0  0  0  0  0  0  0  0  0  0  0  0
  -26.9980  -28.4880   20.4030 C   0  0  0  0  0  3  0  0  0  0  0  0
  -25.8190  -26.7510   19.1790 C   0  0  0  0  0  3  0  0  0  0  0  0
  -24.6330  -27.5110   19.2390 C   0  0  0  0  0  3  0  0  0  0  0  0
  -23.4020  -29.6320   19.9830 C   0  0  0  0  0  2  0  0  0  0  0  0
  -24.5110  -30.8300   21.9260 N   0  0  0  0  0  0  0  0  0  0  0  0
  -23.4210  -31.8540   23.6300 O   0  0  0  0  0  0  0  0  0  0  0  0
  -22.5830  -29.2180   22.3240 C   0  0  0  0  0  0  0  0  0  0  0  0
  -21.2520  -29.0670   22.2240 N   0  0  0  0  0  0  0  0  0  0  0  0
  -23.2740  -28.5460   23.0950 O   0  0  0  0  0  0  0  0  0  0  0  0
  -20.7570  -29.6620   21.5740 H   0  0  0  0  0  0  0  0  0  0  0  0
  -17.8640  -27.9490   22.7850 C   0  0  0  0  0  0  0  0  0  0  0  0
  -20.4360  -28.1130   22.9730 C   0  0  0  0  0  3  0  0  0  0  0  0
  -20.4720  -26.7140   22.3170 C   0  0  0  0  0  2  0  0  0  0  0  0
  -19.3240  -26.4810   21.3280 C   0  0  0  0  0  2  0  0  0  0  0  0
  -17.9720  -26.6330   22.0320 C   0  0  0  0  0  2  0  0  0  0  0  0
  -19.0210  -28.6510   23.2120 C   0  0  0  0  0  0  0  0  0  0  0  0
  -18.8670  -29.8870   23.8770 C   0  0  0  0  0  3  0  0  0  0  0  0
  -17.5860  -30.4200   24.1170 C   0  0  0  0  0  3  0  0  0  0  0  0
  -16.4440  -29.7120   23.7070 C   0  0  0  0  0  3  0  0  0  0  0  0
  -16.5820  -28.4780   23.0470 C   0  0  0  0  0  3  0  0  0  0  0  0
  -25.7940  -32.1770   23.6780 C   0  0  0  0  0  3  0  0  0  0  0  0
  -25.5220  -33.5750   24.0390 N   0  0  0  0  0  0  0  0  0  0  0  0
  -25.8740  -34.6330   23.2980 C   0  0  0  0  0  0  0  0  0  0  0  0
  -26.5330  -34.5350   22.2600 O   0  0  0  0  0  0  0  0  0  0  0  0
  -24.9370  -33.7270   24.8490 H   0  0  0  0  0  0  0  0  0  0  0  0
  -24.1780  -36.4670   23.0010 C   0  0  0  0  0  1  0  0  0  0  0  0
  -25.4210  -36.0220   23.7880 C   0  0  0  0  0  3  0  0  0  0  0  0
  -27.5780  -36.8540   24.6150 C   0  0  0  0  0  1  0  0  0  0  0  0
  -26.4740  -37.0560   23.6810 N   0  0  0  0  0  0  0  0  0  0  0  0
  -26.0880  -37.9820   23.8420 H   0  0  0  0  0  0  0  0  0  0  0  0
  -26.3110  -31.3680   24.9310 C   0  0  1  0  0  0  0  0  0  0  0  0
  -25.2230  -31.1170   26.0000 C   0  0  0  0  0  1  0  0  0  0  0  0
  -26.8720  -29.9930   24.4970 C   0  0  0  0  0  1  0  0  0  0  0  0
  -27.4770  -32.1280   25.6030 C   0  0  0  0  0  1  0  0  0  0  0  0
  -29.6160  -16.1940   19.4800 C   0  0  0  0  0  2  0  0  0  0  0  0
  -31.2510  -14.3260   19.3660 C   0  0  0  0  0  0  0  0  0  0  0  0
  -30.7730  -12.0340   18.5750 C   0  0  0  0  0  2  0  0  0  0  0  0
  -29.7020  -12.0530   17.4690 C   0  0  0  0  0  2  0  0  0  0  0  0
  -28.2910  -11.9830   18.0830 C   0  0  0  0  0  2  0  0  0  0  0  0
  -28.0890  -13.0140   19.2240 C   0  0  0  0  0  3  0  0  0  0  0  0
  -29.2690  -12.9910   20.2240 C   0  0  0  0  0  2  0  0  0  0  0  0
  -30.5160  -13.1800   19.4650 N   0  0  0  0  0  0  0  0  0  0  0  0
  -32.3240  -14.3600   18.7560 O   0  0  0  0  0  0  0  0  0  0  0  0
  -31.7450  -16.2580   20.7510 C   0  0  0  0  0  1  0  0  0  0  0  0
  -30.7910  -15.4450   19.9910 N   0  0  0  0  0  0  0  0  0  0  0  0
  -25.9090  -13.8120   20.3240 C   0  0  0  0  0  0  0  0  0  0  0  0
  -24.8260  -13.1280   20.8070 C   0  0  0  0  0  0  0  0  0  0  0  0
  -25.1270  -11.7430   20.6330 C   0  0  0  0  0  0  0  0  0  0  0  0
  -26.8040  -12.8460   19.8910 N   0  0  0  0  0  0  0  0  0  0  0  0
  -26.3470  -11.5920   20.1350 N   0  0  0  0  0  0  0  0  0  0  0  0
  -24.3020  -10.5490   20.8580 C   0  0  0  0  0  0  0  0  0  0  0  0
  -24.7160   -9.5200   21.7320 C   0  0  0  0  0  3  0  0  0  0  0  0
  -23.8980   -8.3910   21.9440 C   0  0  0  0  0  3  0  0  0  0  0  0
  -22.6520   -8.2840   21.2840 C   0  0  0  0  0  0  0  0  0  0  0  0
  -22.2550   -9.3000   20.3950 C   0  0  0  0  0  3  0  0  0  0  0  0
  -23.0730  -10.4210   20.1820 C   0  0  0  0  0  3  0  0  0  0  0  0
  -21.8010   -7.2130   21.4100 O   0  0  0  0  0  0  0  0  0  0  0  0
  -21.7420   -6.4740   22.5640 C   0  0  0  0  0  0  0  0  0  0  0  0
  -21.3760   -7.0510   23.8000 C   0  0  0  0  0  3  0  0  0  0  0  0
  -21.2600   -6.2410   24.9470 C   0  0  0  0  0  3  0  0  0  0  0  0
  -21.5010   -4.8570   24.8610 C   0  0  0  0  0  0  0  0  0  0  0  0
  -21.8610   -4.2800   23.6310 C   0  0  0  0  0  3  0  0  0  0  0  0
  -21.9780   -5.0860   22.4850 C   0  0  0  0  0  0  0  0  0  0  0  0
  -22.3050   -4.5230   21.2970 F   0  0  0  0  0  0  0  0  0  0  0  0
  -21.3820   -4.0770   25.9610 F   0  0  0  0  0  0  0  0  0  0  0  0
  -23.5430  -13.7240   21.3090 C   0  0  0  0  0  0  0  0  0  0  0  0
  -22.8770  -13.0500   22.2400 N   0  0  0  0  0  0  0  0  0  0  0  0
  -23.1470  -14.8190   20.9110 O   0  0  0  0  0  0  0  0  0  0  0  0
  -23.2140  -12.1620   22.5830 H   0  0  0  0  0  0  0  0  0  0  0  0
  -22.0220  -13.4310   22.6200 H   0  0  0  0  0  0  0  0  0  0  0  0
  -26.1950  -15.1680   20.1950 N   0  0  0  0  0  0  0  0  0  0  0  0
  -25.5230  -15.8840   20.4500 H   0  0  0  0  0  0  0  0  0  0  0  0
  -27.0160  -15.5420   19.7430 H   0  0  0  0  0  0  0  0  0  0  0  0
  1  5  1  0
  3  1  2  0
  3  4  1  0
  4  6  2  0
  5 10  1  0
  5  2  2  0
  6  2  1  0
  6  8  1  0
  7  3  1  0
  9 10  1  0
 11 10  1  0
 11 12  1  0
 13 14  1  0
 13 12  1  0
 14 16  1  0
 15 26  2  0
 16 21  1  0
 17 25  1  0
 17 27  1  0
 18 24  1  0
 18 20  1  0
 19 25  1  0
 20 19  1  0
 21 20  2  0
 22 23  1  0
 22 16  2  0
 23 18  2  0
 24 17  1  0
 25 15  1  0
 27 29  2  0
 28 27  1  0
 30 28  1  0
 31 40  2  0
 31 36  1  0
 32 28  1  0
 32 36  1  0
 33 32  1  0
 34 35  1  0
 34 33  1  0
 35 31  1  0
 36 37  2  0
 37 38  1  0
 39 38  2  0
 40 39  1  0
 41 15  1  0
 41 42  1  0
 41 51  1  0
 42 45  1  0
 43 47  1  0
 43 42  1  0
 44 43  2  0
 47 46  1  0
 49 47  1  0
 49 50  1  0
 49 48  1  0
 51 54  1  1
 51 52  1  0
 53 51  1  0
 55  4  1  0
 55 65  1  0
 56 62  1  0
 56 65  1  0
 57 62  1  0
 58 59  1  0
 58 57  1  0
 60 59  1  0
 60 69  1  0
 60 61  1  0
 62 61  1  0
 63 56  2  0
 65 64  1  0
 66 67  2  0
 67 86  1  0
 68 67  1  0
 68 71  1  0
 69 70  1  0
 69 66  1  0
 70 68  2  0
 71 72  1  0
 72 73  2  0
 74 77  1  0
 74 73  1  0
 75 74  2  0
 76 75  1  0
 76 71  2  0
 77 78  1  0
 78 79  1  0
 79 80  2  0
 81 80  1  0
 81 85  1  0
 82 81  2  0
 83 78  2  0
 83 82  1  0
 84 83  1  0
 86 87  1  0
 87 89  1  0
 87 90  1  0
 88 86  2  0
 91 66  1  0
 91 92  1  0
 93 91  1  0
M  ISO  4  13 101  14 101  56 100  65 100
M  END
>  <TORSDO>  (94) 
F 21

>  <SCORE>  (94) 
-12.376

>  <name>  (94) 
93

>  <ligand_id>  (94) 
93

>  <original_smiles>  (94) 
[H]c1c([H])c([H])c2c(c1[H])C([H])([H])C([H])([H])C([H])([H])C2([H])N([H])C(=O)C1([H])N(C(=O)C([H])(N([H])C(=O)C([H])(N([H])C([H])([H])[H])C([H])([H])[H])C(C([H])([H])[H])(C([H])([H])[H])C([H])([H])[H])C([H])([H])c2c([H])c(OC([H])([H])C([H])([H])C([H])([H])N(c3c([H])c(F)c(C([H])([H])N(C(=O)N4C([H])([H])C([H])([H])C([H])([H])C([H])(n5nc(-c6c([H])c([H])c(Oc7c([H])c([H])c(F)c([H])c7F)c([H])c6[H])c(C(=O)N([H])[H])c5N([H])[H])C4([H])[H])C([H])([H])[H])c(C([H])([H])[H])c3[H])C([H])([H])[H])c([H])c([H])c2C1([H])[H]

>  <smiles>  (94) 
[H]c1c([H])c([H])c2c(c1[H])C([H])([H])C([H])([H])C([H])([H])C2([H])N([H])C(=O)C1([H])N(C(=O)C([H])(N([H])C(=O)C([H])(N([H])C([H])([H])[H])C([H])([H])[H])C(C([H])([H])[H])(C([H])([H])[H])C([H])([H])[H])C([H])([H])c2c([H])c(OC([H])([H])C([H])([H])C([H])([H])N(c3c([H])c(F)c(C([H])([H])N(C(=O)N4C([H])([H])C([H])([H])C([H])([H])C([H])(n5nc(-c6c([H])c([H])c(Oc7c([H])c([H])c(F)c([H])c7F)c([H])c6[H])c(C(=O)N([H])[H])c5N([H])[H])C4([H])[H])C([H])([H])[H])c(C([H])([H])[H])c3[H])C([H])([H])[H])c([H])c([H])c2C1([H])[H]

$$$$
94:0:0
     RDKit          3D

100109  0  0  1  0  0  0  0  0999 V2000
  -32.1790  -20.0950   19.1450 C   0  0  0  0  0  2  0  0  0  0  0  0
  -32.1880  -21.0770   20.3220 C   0  0  0  0  0  2  0  0  0  0  0  0
  -31.6740  -18.6820   19.5300 C   0  0  0  0  0  2  0  0  0  0  0  0
  -30.5080  -19.6330   21.4960 C   0  0  0  0  0  2  0  0  0  0  0  0
  -30.8220  -21.0880   21.0350 C   0  0  0  0  0  3  0  0  0  0  0  0
  -30.3190  -18.6240   20.3150 C   0  0  1  0  0  0  0  0  0  0  0  0
  -29.1440  -19.5630   18.1780 C   0  0  0  0  0  3  0  0  0  0  0  0
  -27.8020  -19.0460   20.1360 C   0  0  0  0  0  3  0  0  0  0  0  0
  -27.9820  -19.9740   17.4940 C   0  0  0  0  0  3  0  0  0  0  0  0
  -26.6420  -19.4630   19.4550 C   0  0  0  0  0  3  0  0  0  0  0  0
  -29.0760  -19.0950   19.5160 C   0  0  0  0  0  0  0  0  0  0  0  0
  -26.7300  -19.9300   18.1330 C   0  0  0  0  0  0  0  0  0  0  0  0
  -25.3060  -20.4320   17.2940 Cl  0  0  0  0  0  0  0  0  0  0  0  0
  -30.7600  -22.0980   22.2100 C   0  0  0  0  0  2  0  0  0  0  0  0
  -30.9310  -23.5190   21.8090 N   0  0  0  0  0  4  0  0  0  0  0  0
  -31.7640  -23.5970   21.2470 H   0  0  0  0  0  0  0  0  0  0  0  0
  -31.0980  -24.0490   22.6480 H   0  0  0  0  0  0  0  0  0  0  0  0
  -29.8000  -24.1550   21.0840 C   0  0  0  0  0  2  0  0  0  0  0  0
  -29.1210  -25.2830   21.8980 C   0  0  0  0  0  2  0  0  0  0  0  0
  -29.3660  -26.7090   21.3590 C   0  0  0  0  0  2  0  0  0  0  0  0
  -28.6650  -26.9040   20.1290 O   0  0  0  0  0  0  0  0  0  0  0  0
  -24.6690  -31.9550   23.2340 C   0  0  0  0  0  0  0  0  0  0  0  0
  -27.4960  -27.6290   20.1770 C   0  0  0  0  0  0  0  0  0  0  0  0
  -23.5330  -30.5420   21.5470 C   0  0  0  0  0  3  0  0  0  0  0  0
  -25.0590  -29.0560   20.1430 C   0  0  0  0  0  0  0  0  0  0  0  0
  -26.0490  -30.9720   21.4090 C   0  0  0  0  0  2  0  0  0  0  0  0
  -26.1840  -29.6090   20.7680 C   0  0  0  0  0  0  0  0  0  0  0  0
  -27.4060  -28.9030   20.7850 C   0  0  0  0  0  3  0  0  0  0  0  0
  -26.3610  -27.0930   19.5380 C   0  0  0  0  0  3  0  0  0  0  0  0
  -25.1390  -27.7950   19.5260 C   0  0  0  0  0  3  0  0  0  0  0  0
  -23.7920  -29.8810   20.1650 C   0  0  0  0  0  2  0  0  0  0  0  0
  -24.7660  -31.1710   22.1230 N   0  0  0  0  0  0  0  0  0  0  0  0
  -23.5700  -32.1970   23.7510 O   0  0  0  0  0  0  0  0  0  0  0  0
  -22.8840  -29.4960   22.4810 C   0  0  0  0  0  0  0  0  0  0  0  0
  -21.5610  -29.3110   22.3420 N   0  0  0  0  0  0  0  0  0  0  0  0
  -23.5660  -28.8560   23.2840 O   0  0  0  0  0  0  0  0  0  0  0  0
  -21.0730  -29.8800   21.6660 H   0  0  0  0  0  0  0  0  0  0  0  0
  -18.1820  -28.1330   22.8210 C   0  0  0  0  0  0  0  0  0  0  0  0
  -20.7440  -28.3520   23.0830 C   0  0  0  0  0  3  0  0  0  0  0  0
  -20.8270  -26.9440   22.4490 C   0  0  0  0  0  2  0  0  0  0  0  0
  -19.7150  -26.6740   21.4330 C   0  0  0  0  0  2  0  0  0  0  0  0
  -18.3390  -26.8080   22.0930 C   0  0  0  0  0  2  0  0  0  0  0  0
  -19.3130  -28.8660   23.2710 C   0  0  0  0  0  0  0  0  0  0  0  0
  -19.1100  -30.1110   23.9080 C   0  0  0  0  0  3  0  0  0  0  0  0
  -17.8120  -30.6170   24.1050 C   0  0  0  0  0  3  0  0  0  0  0  0
  -16.6970  -29.8780   23.6740 C   0  0  0  0  0  3  0  0  0  0  0  0
  -16.8830  -28.6390   23.0350 C   0  0  0  0  0  3  0  0  0  0  0  0
  -25.9270  -32.6050   23.8900 C   0  0  0  0  0  3  0  0  0  0  0  0
  -25.5890  -33.9960   24.2130 N   0  0  0  0  0  0  0  0  0  0  0  0
  -25.9230  -35.0520   23.4590 C   0  0  0  0  0  0  0  0  0  0  0  0
  -26.6190  -34.9590   22.4430 O   0  0  0  0  0  0  0  0  0  0  0  0
  -24.9730  -34.1430   24.9990 H   0  0  0  0  0  0  0  0  0  0  0  0
  -24.1780  -36.8150   23.0540 C   0  0  0  0  0  1  0  0  0  0  0  0
  -25.4010  -36.4320   23.9020 C   0  0  0  0  0  3  0  0  0  0  0  0
  -27.4900  -37.3530   24.8030 C   0  0  0  0  0  1  0  0  0  0  0  0
  -26.4200  -37.5000   23.8200 N   0  0  0  0  0  0  0  0  0  0  0  0
  -25.9950  -38.4150   23.9490 H   0  0  0  0  0  0  0  0  0  0  0  0
  -26.4250  -31.8340   25.1750 C   0  0  1  0  0  0  0  0  0  0  0  0
  -25.3070  -31.5650   26.2090 C   0  0  0  0  0  1  0  0  0  0  0  0
  -27.0480  -30.4720   24.7850 C   0  0  0  0  0  1  0  0  0  0  0  0
  -27.5400  -32.6460   25.8750 C   0  0  0  0  0  1  0  0  0  0  0  0
  -30.1210  -17.1590   20.9130 C   0  0  0  0  0  2  0  0  0  0  0  0
  -30.6320  -14.8530   20.0660 C   0  0  0  0  0  0  0  0  0  0  0  0
  -30.3640  -12.6310   19.0280 C   0  0  0  0  0  2  0  0  0  0  0  0
  -29.3600  -12.7020   17.8560 C   0  0  0  0  0  2  0  0  0  0  0  0
  -27.8980  -12.6030   18.3500 C   0  0  0  0  0  2  0  0  0  0  0  0
  -27.5880  -13.4250   19.6320 C   0  0  0  0  0  3  0  0  0  0  0  0
  -28.7170  -13.3130   20.6780 C   0  0  0  0  0  2  0  0  0  0  0  0
  -29.9830  -13.6530   20.0130 N   0  0  0  0  0  0  0  0  0  0  0  0
  -31.8400  -14.9590   19.8550 O   0  0  0  0  0  0  0  0  0  0  0  0
  -29.1650  -16.2470   18.7600 C   0  0  0  0  0  1  0  0  0  0  0  0
  -29.8470  -15.9720   20.0350 N   0  0  0  0  0  0  0  0  0  0  0  0
  -25.2280  -13.9480   20.4960 C   0  0  0  0  0  0  0  0  0  0  0  0
  -24.1970  -13.1350   20.8820 C   0  0  0  0  0  0  0  0  0  0  0  0
  -24.6910  -11.7980   20.7800 C   0  0  0  0  0  0  0  0  0  0  0  0
  -26.2790  -13.1000   20.1840 N   0  0  0  0  0  0  0  0  0  0  0  0
  -25.9660  -11.8020   20.4180 N   0  0  0  0  0  0  0  0  0  0  0  0
  -24.0080  -10.5120   20.9480 C   0  0  0  0  0  0  0  0  0  0  0  0
  -24.4530   -9.5580   21.8910 C   0  0  0  0  0  3  0  0  0  0  0  0
  -23.7670   -8.3340   22.0470 C   0  0  0  0  0  3  0  0  0  0  0  0
  -22.6240   -8.0550   21.2620 C   0  0  0  0  0  0  0  0  0  0  0  0
  -22.2020   -8.9960   20.3060 C   0  0  0  0  0  3  0  0  0  0  0  0
  -22.8870  -10.2120   20.1480 C   0  0  0  0  0  3  0  0  0  0  0  0
  -21.9080   -6.8850   21.3310 O   0  0  0  0  0  0  0  0  0  0  0  0
  -21.7980   -6.1760   22.5010 C   0  0  0  0  0  0  0  0  0  0  0  0
  -21.2130   -6.7340   23.6580 C   0  0  0  0  0  3  0  0  0  0  0  0
  -21.0630   -5.9500   24.8180 C   0  0  0  0  0  3  0  0  0  0  0  0
  -21.4790   -4.6060   24.8200 C   0  0  0  0  0  0  0  0  0  0  0  0
  -22.0540   -4.0460   23.6650 C   0  0  0  0  0  3  0  0  0  0  0  0
  -22.2120   -4.8280   22.5090 C   0  0  0  0  0  0  0  0  0  0  0  0
  -22.7500   -4.2790   21.3940 F   0  0  0  0  0  0  0  0  0  0  0  0
  -21.3230   -3.8490   25.9320 F   0  0  0  0  0  0  0  0  0  0  0  0
  -22.8020  -13.5630   21.2330 C   0  0  0  0  0  0  0  0  0  0  0  0
  -22.1280  -12.8060   22.0910 N   0  0  0  0  0  0  0  0  0  0  0  0
  -22.3190  -14.6020   20.7820 O   0  0  0  0  0  0  0  0  0  0  0  0
  -22.5320  -11.9650   22.4760 H   0  0  0  0  0  0  0  0  0  0  0  0
  -21.1930  -13.0700   22.3690 H   0  0  0  0  0  0  0  0  0  0  0  0
  -25.3520  -15.3290   20.3620 N   0  0  0  0  0  0  0  0  0  0  0  0
  -24.5820  -15.9640   20.5340 H   0  0  0  0  0  0  0  0  0  0  0  0
  -26.1940  -15.7990   20.0520 H   0  0  0  0  0  0  0  0  0  0  0  0
  1  3  1  0
  1  2  1  0
  2  5  1  0
  3  6  1  0
  5  4  1  0
  5 14  1  0
  6 62  1  1
  6  4  1  0
  7 11  1  0
  9 12  1  0
  9  7  2  0
 10  8  1  0
 11  8  2  0
 11  6  1  0
 12 10  2  0
 13 12  1  0
 15 14  1  0
 15 17  1  0
 16 15  1  0
 18 15  1  0
 18 19  1  0
 20 19  1  0
 21 23  1  0
 21 20  1  0
 22 33  2  0
 23 28  1  0
 24 32  1  0
 24 34  1  0
 25 31  1  0
 25 27  1  0
 26 32  1  0
 27 28  2  0
 27 26  1  0
 29 23  2  0
 30 29  1  0
 30 25  2  0
 31 24  1  0
 32 22  1  0
 34 36  2  0
 35 34  1  0
 37 35  1  0
 38 47  2  0
 38 43  1  0
 39 35  1  0
 39 43  1  0
 40 39  1  0
 41 42  1  0
 41 40  1  0
 42 38  1  0
 43 44  2  0
 44 45  1  0
 46 45  2  0
 47 46  1  0
 48 22  1  0
 48 49  1  0
 48 58  1  0
 49 52  1  0
 50 54  1  0
 50 49  1  0
 51 50  2  0
 54 53  1  0
 56 54  1  0
 56 57  1  0
 56 55  1  0
 58 61  1  1
 58 59  1  0
 60 58  1  0
 64 69  1  0
 65 66  1  0
 65 64  1  0
 67 66  1  0
 67 76  1  0
 67 68  1  0
 69 63  1  0
 69 68  1  0
 70 63  2  0
 71 72  1  0
 72 63  1  0
 72 62  1  0
 73 74  2  0
 74 93  1  0
 75 74  1  0
 75 78  1  0
 76 77  1  0
 76 73  1  0
 77 75  2  0
 78 79  1  0
 79 80  2  0
 81 84  1  0
 81 80  1  0
 82 81  2  0
 83 82  1  0
 83 78  2  0
 84 85  1  0
 85 90  2  0
 85 86  1  0
 86 87  2  0
 87 88  1  0
 88 92  1  0
 89 88  2  0
 90 89  1  0
 91 90  1  0
 93 94  1  0
 94 97  1  0
 94 96  1  0
 95 93  2  0
 98 73  1  0
 98 99  1  0
100 98  1  0
M  ISO  4  20 101  21 101  63 100  72 100
M  END
>  <TORSDO>  (95) 
F 23

>  <SCORE>  (95) 
-12.997

>  <name>  (95) 
94

>  <ligand_id>  (95) 
94

>  <original_smiles>  (95) 
[H]c1c([H])c([H])c2c(c1[H])C([H])([H])C([H])([H])C([H])([H])C2([H])N([H])C(=O)C1([H])N(C(=O)C([H])(N([H])C(=O)C([H])(N([H])C([H])([H])[H])C([H])([H])[H])C(C([H])([H])[H])(C([H])([H])[H])C([H])([H])[H])C([H])([H])c2c([H])c(OC([H])([H])C([H])([H])C([H])([H])[N+]([H])([H])C([H])([H])C3([H])C([H])([H])C([H])([H])C([H])([H])C(c4c([H])c([H])c(Cl)c([H])c4[H])(C([H])([H])N(C(=O)N4C([H])([H])C([H])([H])C([H])([H])C([H])(n5nc(-c6c([H])c([H])c(Oc7c([H])c([H])c(F)c([H])c7F)c([H])c6[H])c(C(=O)N([H])[H])c5N([H])[H])C4([H])[H])C([H])([H])[H])C3([H])[H])c([H])c([H])c2C1([H])[H]

>  <smiles>  (95) 
[H]c1c([H])c([H])c2c(c1[H])C([H])([H])C([H])([H])C([H])([H])C2([H])N([H])C(=O)C1([H])N(C(=O)C([H])(N([H])C(=O)C([H])(N([H])C([H])([H])[H])C([H])([H])[H])C(C([H])([H])[H])(C([H])([H])[H])C([H])([H])[H])C([H])([H])c2c([H])c(OC([H])([H])C([H])([H])C([H])([H])[N+]([H])([H])C([H])([H])C3([H])C([H])([H])C([H])([H])C([H])([H])C(c4c([H])c([H])c(Cl)c([H])c4[H])(C([H])([H])N(C(=O)N4C([H])([H])C([H])([H])C([H])([H])C([H])(n5nc(-c6c([H])c([H])c(Oc7c([H])c([H])c(F)c([H])c7F)c([H])c6[H])c(C(=O)N([H])[H])c5N([H])[H])C4([H])[H])C([H])([H])[H])C3([H])[H])c([H])c([H])c2C1([H])[H]

$$$$
95:0:0
     RDKit          3D

 93101  0  0  1  0  0  0  0  0999 V2000
  -29.4910  -22.0660   19.3830 N   0  0  0  0  0  0  0  0  0  0  0  0
  -30.4170  -18.4430   18.6960 C   0  0  0  0  0  3  0  0  0  0  0  0
  -30.3550  -19.8510   18.5970 C   0  0  0  0  0  3  0  0  0  0  0  0
  -28.9130  -19.9360   20.5290 C   0  0  0  0  0  3  0  0  0  0  0  0
  -29.7020  -17.7560   19.6970 C   0  0  0  0  0  0  0  0  0  0  0  0
  -29.5840  -20.6400   19.4960 C   0  0  0  0  0  0  0  0  0  0  0  0
  -28.9610  -18.5230   20.6260 C   0  0  0  0  0  0  0  0  0  0  0  0
  -28.2660  -17.9030   21.6090 F   0  0  0  0  0  0  0  0  0  0  0  0
  -29.6340  -16.2150   19.6840 C   0  0  0  0  0  2  0  0  0  0  0  0
  -31.2650  -14.3470   19.4360 C   0  0  0  0  0  0  0  0  0  0  0  0
  -30.8050  -12.0710   18.5750 C   0  0  0  0  0  2  0  0  0  0  0  0
  -29.7670  -12.1130   17.4380 C   0  0  0  0  0  2  0  0  0  0  0  0
  -28.3380  -12.0340   18.0110 C   0  0  0  0  0  2  0  0  0  0  0  0
  -28.1050  -13.0420   19.1650 C   0  0  0  0  0  3  0  0  0  0  0  0
  -29.2550  -12.9920   20.1990 C   0  0  0  0  0  2  0  0  0  0  0  0
  -30.5260  -13.1990   19.4840 N   0  0  0  0  0  0  0  0  0  0  0  0
  -32.3430  -14.3960   18.8350 O   0  0  0  0  0  0  0  0  0  0  0  0
  -31.7770  -16.2090   20.9130 C   0  0  0  0  0  1  0  0  0  0  0  0
  -30.8180  -15.4370   20.1200 N   0  0  0  0  0  0  0  0  0  0  0  0
  -25.8580  -13.8220   20.1360 C   0  0  0  0  0  0  0  0  0  0  0  0
  -24.7810  -13.1260   20.6140 C   0  0  0  0  0  0  0  0  0  0  0  0
  -25.1340  -11.7450   20.5280 C   0  0  0  0  0  0  0  0  0  0  0  0
  -26.8010  -12.8660   19.7900 N   0  0  0  0  0  0  0  0  0  0  0  0
  -26.3760  -11.6120   20.0850 N   0  0  0  0  0  0  0  0  0  0  0  0
  -24.3410  -10.5380   20.7870 C   0  0  0  0  0  0  0  0  0  0  0  0
  -24.7410   -9.5850   21.7480 C   0  0  0  0  0  3  0  0  0  0  0  0
  -23.9530   -8.4390   21.9910 C   0  0  0  0  0  3  0  0  0  0  0  0
  -22.7510   -8.2410   21.2740 C   0  0  0  0  0  0  0  0  0  0  0  0
  -22.3680   -9.1820   20.3020 C   0  0  0  0  0  3  0  0  0  0  0  0
  -23.1560  -10.3180   20.0560 C   0  0  0  0  0  3  0  0  0  0  0  0
  -21.9340   -7.1460   21.4250 O   0  0  0  0  0  0  0  0  0  0  0  0
  -21.8020   -6.5100   22.6320 C   0  0  0  0  0  0  0  0  0  0  0  0
  -21.3510   -7.1850   23.7870 C   0  0  0  0  0  3  0  0  0  0  0  0
  -21.1640   -6.4770   24.9910 C   0  0  0  0  0  3  0  0  0  0  0  0
  -21.4200   -5.0930   25.0400 C   0  0  0  0  0  0  0  0  0  0  0  0
  -21.8640   -4.4170   23.8900 C   0  0  0  0  0  3  0  0  0  0  0  0
  -22.0520   -5.1240   22.6890 C   0  0  0  0  0  0  0  0  0  0  0  0
  -22.4610   -4.4640   21.5790 F   0  0  0  0  0  0  0  0  0  0  0  0
  -21.2330   -4.4090   26.1930 F   0  0  0  0  0  0  0  0  0  0  0  0
  -23.4600  -13.7020   21.0330 C   0  0  0  0  0  0  0  0  0  0  0  0
  -22.7820  -13.0580   21.9770 N   0  0  0  0  0  0  0  0  0  0  0  0
  -23.0420  -14.7580   20.5580 O   0  0  0  0  0  0  0  0  0  0  0  0
  -23.1350  -12.2040   22.3830 H   0  0  0  0  0  0  0  0  0  0  0  0
  -21.8970  -13.4250   22.2990 H   0  0  0  0  0  0  0  0  0  0  0  0
  -26.1010  -15.1790   19.9450 N   0  0  0  0  0  0  0  0  0  0  0  0
  -25.3920  -15.8780   20.1400 H   0  0  0  0  0  0  0  0  0  0  0  0
  -26.9230  -15.5640   19.5010 H   0  0  0  0  0  0  0  0  0  0  0  0
  -31.8110  -22.8480   18.8920 C   0  0  0  0  0  1  0  0  0  0  0  0
  -30.3600  -22.7350   18.4080 C   0  0  0  0  0  2  0  0  0  0  0  0
  -28.1710  -22.7020   19.5950 C   0  0  0  0  0  2  0  0  0  0  0  0
  -28.1800  -24.0850   20.3260 C   0  0  0  0  0  2  0  0  0  0  0  0
  -28.5420  -25.3420   19.4810 C   0  0  0  0  0  2  0  0  0  0  0  0
  -28.3850  -26.5980   20.1730 O   0  0  0  0  0  0  0  0  0  0  0  0
  -24.4970  -31.7590   23.1810 C   0  0  0  0  0  0  0  0  0  0  0  0
  -27.1930  -27.3030   20.1330 C   0  0  0  0  0  0  0  0  0  0  0  0
  -23.3200  -30.3700   21.5060 C   0  0  0  0  0  3  0  0  0  0  0  0
  -24.7990  -28.8280   20.1080 C   0  0  0  0  0  0  0  0  0  0  0  0
  -25.8530  -30.7130   21.3680 C   0  0  0  0  0  2  0  0  0  0  0  0
  -25.9460  -29.3430   20.7230 C   0  0  0  0  0  0  0  0  0  0  0  0
  -27.1430  -28.5860   20.7320 C   0  0  0  0  0  3  0  0  0  0  0  0
  -26.0190  -26.8030   19.5240 C   0  0  0  0  0  3  0  0  0  0  0  0
  -24.8300  -27.5580   19.5100 C   0  0  0  0  0  3  0  0  0  0  0  0
  -23.5580  -29.6930   20.1290 C   0  0  0  0  0  2  0  0  0  0  0  0
  -24.5740  -30.9620   22.0770 N   0  0  0  0  0  0  0  0  0  0  0  0
  -23.4050  -32.0330   23.6990 O   0  0  0  0  0  0  0  0  0  0  0  0
  -22.6430  -29.3470   22.4480 C   0  0  0  0  0  0  0  0  0  0  0  0
  -21.3210  -29.1740   22.2940 N   0  0  0  0  0  0  0  0  0  0  0  0
  -23.3070  -28.7120   23.2730 O   0  0  0  0  0  0  0  0  0  0  0  0
  -20.8460  -29.7410   21.6060 H   0  0  0  0  0  0  0  0  0  0  0  0
  -17.9290  -28.0060   22.7280 C   0  0  0  0  0  0  0  0  0  0  0  0
  -20.4850  -28.2360   23.0410 C   0  0  0  0  0  3  0  0  0  0  0  0
  -20.5820  -26.8100   22.4480 C   0  0  0  0  0  2  0  0  0  0  0  0
  -19.4920  -26.5100   21.4140 C   0  0  0  0  0  2  0  0  0  0  0  0
  -18.1030  -26.6630   22.0400 C   0  0  0  0  0  2  0  0  0  0  0  0
  -19.0480  -28.7520   23.1830 C   0  0  0  0  0  0  0  0  0  0  0  0
  -18.8360  -30.0110   23.7840 C   0  0  0  0  0  3  0  0  0  0  0  0
  -17.5350  -30.5260   23.9340 C   0  0  0  0  0  3  0  0  0  0  0  0
  -16.4290  -29.7780   23.4970 C   0  0  0  0  0  3  0  0  0  0  0  0
  -16.6260  -28.5200   22.8990 C   0  0  0  0  0  3  0  0  0  0  0  0
  -25.7720  -32.3800   23.8320 C   0  0  0  0  0  3  0  0  0  0  0  0
  -25.4630  -33.7790   24.1620 N   0  0  0  0  0  0  0  0  0  0  0  0
  -25.8150  -34.8320   23.4130 C   0  0  0  0  0  0  0  0  0  0  0  0
  -26.5040  -34.7300   22.3950 O   0  0  0  0  0  0  0  0  0  0  0  0
  -24.8580  -33.9340   24.9560 H   0  0  0  0  0  0  0  0  0  0  0  0
  -24.1000  -36.6320   23.0330 C   0  0  0  0  0  1  0  0  0  0  0  0
  -25.3230  -36.2200   23.8670 C   0  0  0  0  0  3  0  0  0  0  0  0
  -27.4400  -37.0960   24.7490 C   0  0  0  0  0  1  0  0  0  0  0  0
  -26.3610  -37.2710   23.7820 N   0  0  0  0  0  0  0  0  0  0  0  0
  -25.9530  -38.1910   23.9240 H   0  0  0  0  0  0  0  0  0  0  0  0
  -26.2610  -31.6000   25.1150 C   0  0  1  0  0  0  0  0  0  0  0  0
  -25.1450  -31.3580   26.1560 C   0  0  0  0  0  1  0  0  0  0  0  0
  -26.8510  -30.2260   24.7270 C   0  0  0  0  0  1  0  0  0  0  0  0
  -27.3980  -32.3890   25.8070 C   0  0  0  0  0  1  0  0  0  0  0  0
  1  6  1  0
  1 50  1  0
  2  5  1  0
  3  2  2  0
  3  6  1  0
  4  7  1  0
  5  7  2  0
  6  4  2  0
  7  8  1  0
  9  5  1  0
  9 19  1  0
 10 16  1  0
 10 19  1  0
 11 16  1  0
 12 13  1  0
 12 11  1  0
 14 13  1  0
 14 23  1  0
 14 15  1  0
 16 15  1  0
 17 10  2  0
 19 18  1  0
 20 21  2  0
 21 40  1  0
 22 21  1  0
 22 25  1  0
 23 24  1  0
 23 20  1  0
 24 22  2  0
 25 26  1  0
 26 27  2  0
 28 31  1  0
 28 27  1  0
 29 28  2  0
 30 29  1  0
 30 25  2  0
 31 32  1  0
 32 37  2  0
 32 33  1  0
 33 34  2  0
 34 35  1  0
 35 39  1  0
 36 35  2  0
 37 36  1  0
 38 37  1  0
 40 41  1  0
 41 44  1  0
 41 43  1  0
 42 40  2  0
 45 20  1  0
 45 46  1  0
 47 45  1  0
 49 48  1  0
 49  1  1  0
 50 51  1  0
 52 53  1  0
 52 51  1  0
 54 65  2  0
 55 53  1  0
 55 60  1  0
 56 64  1  0
 56 66  1  0
 57 63  1  0
 57 59  1  0
 58 64  1  0
 59 60  2  0
 59 58  1  0
 61 55  2  0
 62 61  1  0
 62 57  2  0
 63 56  1  0
 64 54  1  0
 66 68  2  0
 67 66  1  0
 69 67  1  0
 70 79  2  0
 70 75  1  0
 71 67  1  0
 71 75  1  0
 72 71  1  0
 73 74  1  0
 73 72  1  0
 74 70  1  0
 75 76  2  0
 76 77  1  0
 78 77  2  0
 79 78  1  0
 80 54  1  0
 80 81  1  0
 80 90  1  0
 81 84  1  0
 82 86  1  0
 82 81  1  0
 83 82  2  0
 86 85  1  0
 88 86  1  0
 88 89  1  0
 88 87  1  0
 90 93  1  1
 90 91  1  0
 92 90  1  0
M  ISO  4  10 100  19 100  52 101  53 101
M  END
>  <TORSDO>  (96) 
F 22

>  <SCORE>  (96) 
-11.675

>  <name>  (96) 
95

>  <ligand_id>  (96) 
95

>  <original_smiles>  (96) 
[H]c1c([H])c([H])c2c(c1[H])C([H])([H])C([H])([H])C([H])([H])C2([H])N([H])C(=O)C1([H])N(C(=O)C([H])(N([H])C(=O)C([H])(N([H])C([H])([H])[H])C([H])([H])[H])C(C([H])([H])[H])(C([H])([H])[H])C([H])([H])[H])C([H])([H])c2c([H])c(OC([H])([H])C([H])([H])C([H])([H])N(c3c([H])c([H])c(C([H])([H])N(C(=O)N4C([H])([H])C([H])([H])C([H])([H])C([H])(n5nc(-c6c([H])c([H])c(Oc7c([H])c([H])c(F)c([H])c7F)c([H])c6[H])c(C(=O)N([H])[H])c5N([H])[H])C4([H])[H])C([H])([H])[H])c(F)c3[H])C([H])([H])C([H])([H])[H])c([H])c([H])c2C1([H])[H]

>  <smiles>  (96) 
[H]c1c([H])c([H])c2c(c1[H])C([H])([H])C([H])([H])C([H])([H])C2([H])N([H])C(=O)C1([H])N(C(=O)C([H])(N([H])C(=O)C([H])(N([H])C([H])([H])[H])C([H])([H])[H])C(C([H])([H])[H])(C([H])([H])[H])C([H])([H])[H])C([H])([H])c2c([H])c(OC([H])([H])C([H])([H])C([H])([H])N(c3c([H])c([H])c(C([H])([H])N(C(=O)N4C([H])([H])C([H])([H])C([H])([H])C([H])(n5nc(-c6c([H])c([H])c(Oc7c([H])c([H])c(F)c([H])c7F)c([H])c6[H])c(C(=O)N([H])[H])c5N([H])[H])C4([H])[H])C([H])([H])[H])c(F)c3[H])C([H])([H])C([H])([H])[H])c([H])c([H])c2C1([H])[H]

$$$$
96:0:0
     RDKit          3D

 92100  0  0  1  0  0  0  0  0999 V2000
  -27.7180  -21.3400   20.0940 C   0  0  0  0  0  1  0  0  0  0  0  0
  -29.1370  -21.7580   20.1430 N   0  0  1  0  0  4  0  0  0  0  0  0
  -29.3490  -21.9160   21.1160 H   0  0  0  0  0  0  0  0  0  0  0  0
  -30.0560  -20.6550   19.6780 C   0  0  0  0  0  2  0  0  0  0  0  0
  -31.0680  -18.4670   22.6930 C   0  0  0  0  0  3  0  0  0  0  0  0
  -30.7750  -19.5830   21.8840 C   0  0  0  0  0  3  0  0  0  0  0  0
  -30.8490  -17.1580   22.2180 C   0  0  0  0  0  3  0  0  0  0  0  0
  -30.0060  -18.0800   20.1220 C   0  0  0  0  0  3  0  0  0  0  0  0
  -30.2420  -19.4130   20.5880 C   0  0  0  0  0  0  0  0  0  0  0  0
  -30.3300  -16.9420   20.9240 C   0  0  0  0  0  0  0  0  0  0  0  0
  -30.7730  -14.5740   20.1290 C   0  0  0  0  0  0  0  0  0  0  0  0
  -30.4720  -12.3850   18.9960 C   0  0  0  0  0  2  0  0  0  0  0  0
  -29.4740  -12.5620   17.8300 C   0  0  0  0  0  2  0  0  0  0  0  0
  -28.0160  -12.4330   18.3180 C   0  0  0  0  0  2  0  0  0  0  0  0
  -27.7330  -13.2810   19.5870 C   0  0  0  0  0  3  0  0  0  0  0  0
  -28.8320  -13.0550   20.6510 C   0  0  0  0  0  2  0  0  0  0  0  0
  -30.1260  -13.3760   20.0280 N   0  0  0  0  0  0  0  0  0  0  0  0
  -31.9120  -14.7480   19.6830 O   0  0  0  0  0  0  0  0  0  0  0  0
  -29.9860  -15.6020   20.5410 N   0  0  0  0  0  0  0  0  0  0  0  0
  -29.0420  -15.3250   20.7610 H   0  0  0  0  0  0  0  0  0  0  0  0
  -25.3820  -13.9340   20.4030 C   0  0  0  0  0  0  0  0  0  0  0  0
  -24.3140  -13.1810   20.8090 C   0  0  0  0  0  0  0  0  0  0  0  0
  -24.7450  -11.8190   20.7480 C   0  0  0  0  0  0  0  0  0  0  0  0
  -26.3970  -13.0310   20.1210 N   0  0  0  0  0  0  0  0  0  0  0  0
  -26.0190  -11.7550   20.3860 N   0  0  0  0  0  0  0  0  0  0  0  0
  -23.9990  -10.5710   20.9550 C   0  0  0  0  0  0  0  0  0  0  0  0
  -24.4330   -9.5990   21.8830 C   0  0  0  0  0  3  0  0  0  0  0  0
  -23.6900   -8.4160   22.0800 C   0  0  0  0  0  3  0  0  0  0  0  0
  -22.5000   -8.1950   21.3470 C   0  0  0  0  0  0  0  0  0  0  0  0
  -22.0850   -9.1550   20.4080 C   0  0  0  0  0  3  0  0  0  0  0  0
  -22.8280  -10.3310   20.2100 C   0  0  0  0  0  3  0  0  0  0  0  0
  -21.7280   -7.0640   21.4530 O   0  0  0  0  0  0  0  0  0  0  0  0
  -21.6660   -6.3410   22.6170 C   0  0  0  0  0  0  0  0  0  0  0  0
  -21.2450   -6.9220   23.8330 C   0  0  0  0  0  3  0  0  0  0  0  0
  -21.1280   -6.1260   24.9900 C   0  0  0  0  0  3  0  0  0  0  0  0
  -21.4230   -4.7510   24.9320 C   0  0  0  0  0  0  0  0  0  0  0  0
  -21.8390   -4.1700   23.7220 C   0  0  0  0  0  3  0  0  0  0  0  0
  -21.9570   -4.9630   22.5670 C   0  0  0  0  0  0  0  0  0  0  0  0
  -22.3370   -4.3940   21.3980 F   0  0  0  0  0  0  0  0  0  0  0  0
  -21.3040   -3.9850   26.0420 F   0  0  0  0  0  0  0  0  0  0  0  0
  -22.9390  -13.6850   21.1420 C   0  0  0  0  0  0  0  0  0  0  0  0
  -22.2340  -12.9960   22.0340 N   0  0  0  0  0  0  0  0  0  0  0  0
  -22.5010  -14.7220   20.6460 O   0  0  0  0  0  0  0  0  0  0  0  0
  -22.6000  -12.1570   22.4560 H   0  0  0  0  0  0  0  0  0  0  0  0
  -21.3120  -13.3140   22.2980 H   0  0  0  0  0  0  0  0  0  0  0  0
  -25.5700  -15.3020   20.2290 N   0  0  0  0  0  0  0  0  0  0  0  0
  -24.8200  -15.9690   20.3830 H   0  0  0  0  0  0  0  0  0  0  0  0
  -26.4080  -15.7320   19.8620 H   0  0  0  0  0  0  0  0  0  0  0  0
  -29.4240  -23.0610   19.4300 C   0  0  0  0  0  2  0  0  0  0  0  0
  -28.3630  -24.2320   19.4180 C   0  0  0  0  0  2  0  0  0  0  0  0
  -28.4110  -25.3050   20.5510 C   0  0  0  0  0  2  0  0  0  0  0  0
  -28.4060  -26.6830   20.0980 O   0  0  0  0  0  0  0  0  0  0  0  0
  -24.6030  -31.8740   23.2200 C   0  0  0  0  0  0  0  0  0  0  0  0
  -27.2240  -27.4030   20.1320 C   0  0  0  0  0  0  0  0  0  0  0  0
  -23.3900  -30.4810   21.5770 C   0  0  0  0  0  3  0  0  0  0  0  0
  -24.8340  -28.9330   20.1450 C   0  0  0  0  0  0  0  0  0  0  0  0
  -25.9160  -30.8280   21.3670 C   0  0  0  0  0  2  0  0  0  0  0  0
  -25.9960  -29.4540   20.7280 C   0  0  0  0  0  0  0  0  0  0  0  0
  -27.1960  -28.6990   20.7080 C   0  0  0  0  0  3  0  0  0  0  0  0
  -26.0430  -26.8980   19.5490 C   0  0  0  0  0  3  0  0  0  0  0  0
  -24.8550  -27.6580   19.5490 C   0  0  0  0  0  3  0  0  0  0  0  0
  -23.5920  -29.7980   20.1960 C   0  0  0  0  0  2  0  0  0  0  0  0
  -24.6560  -31.0750   22.1150 N   0  0  0  0  0  0  0  0  0  0  0  0
  -23.5230  -32.1500   23.7630 O   0  0  0  0  0  0  0  0  0  0  0  0
  -22.7320  -29.4640   22.5380 C   0  0  0  0  0  0  0  0  0  0  0  0
  -21.4060  -29.2910   22.4140 N   0  0  0  0  0  0  0  0  0  0  0  0
  -23.4130  -28.8300   23.3500 O   0  0  0  0  0  0  0  0  0  0  0  0
  -20.9180  -29.8490   21.7280 H   0  0  0  0  0  0  0  0  0  0  0  0
  -18.0260  -28.1080   22.9090 C   0  0  0  0  0  0  0  0  0  0  0  0
  -20.5850  -28.3540   23.1830 C   0  0  0  0  0  3  0  0  0  0  0  0
  -20.6830  -26.9250   22.6010 C   0  0  0  0  0  2  0  0  0  0  0  0
  -19.5800  -26.6100   21.5870 C   0  0  0  0  0  2  0  0  0  0  0  0
  -18.1980  -26.7610   22.2290 C   0  0  0  0  0  2  0  0  0  0  0  0
  -19.1480  -28.8630   23.3420 C   0  0  0  0  0  0  0  0  0  0  0  0
  -18.9350  -30.1260   23.9370 C   0  0  0  0  0  3  0  0  0  0  0  0
  -17.6320  -30.6340   24.1030 C   0  0  0  0  0  3  0  0  0  0  0  0
  -16.5260  -29.8740   23.6870 C   0  0  0  0  0  3  0  0  0  0  0  0
  -16.7220  -28.6130   23.0960 C   0  0  0  0  0  3  0  0  0  0  0  0
  -25.8920  -32.4970   23.8420 C   0  0  0  0  0  3  0  0  0  0  0  0
  -25.5920  -33.8950   24.1800 N   0  0  0  0  0  0  0  0  0  0  0  0
  -25.9300  -34.9480   23.4230 C   0  0  0  0  0  0  0  0  0  0  0  0
  -26.5960  -34.8440   22.3890 O   0  0  0  0  0  0  0  0  0  0  0  0
  -25.0020  -34.0530   24.9830 H   0  0  0  0  0  0  0  0  0  0  0  0
  -24.2130  -36.7520   23.0740 C   0  0  0  0  0  1  0  0  0  0  0  0
  -25.4500  -36.3380   23.8850 C   0  0  0  0  0  3  0  0  0  0  0  0
  -27.5900  -37.2060   24.7200 C   0  0  0  0  0  1  0  0  0  0  0  0
  -26.4910  -37.3840   23.7760 N   0  0  0  0  0  0  0  0  0  0  0  0
  -26.0900  -38.3070   23.9260 H   0  0  0  0  0  0  0  0  0  0  0  0
  -26.4110  -31.7150   25.1110 C   0  0  1  0  0  0  0  0  0  0  0  0
  -25.3200  -31.4710   26.1810 C   0  0  0  0  0  1  0  0  0  0  0  0
  -26.9850  -30.3400   24.7030 C   0  0  0  0  0  1  0  0  0  0  0  0
  -27.5720  -32.4950   25.7700 C   0  0  0  0  0  1  0  0  0  0  0  0
  1  2  1  0
  2  3  1  1
  4  2  1  0
  4  9  1  0
  6  5  2  0
  7  5  1  0
  8  9  2  0
  8 10  1  0
  9  6  1  0
 10  7  2  0
 11 19  1  0
 12 17  1  0
 13 14  1  0
 13 12  1  0
 15 14  1  0
 15 24  1  0
 15 16  1  0
 17 11  1  0
 17 16  1  0
 18 11  2  0
 19 20  1  0
 19 10  1  0
 21 22  2  0
 22 41  1  0
 23 22  1  0
 23 26  1  0
 24 25  1  0
 24 21  1  0
 25 23  2  0
 26 27  1  0
 27 28  2  0
 29 32  1  0
 29 28  1  0
 30 29  2  0
 31 30  1  0
 31 26  2  0
 32 33  1  0
 33 34  1  0
 34 35  2  0
 36 35  1  0
 36 40  1  0
 37 36  2  0
 38 33  2  0
 38 37  1  0
 39 38  1  0
 41 42  1  0
 42 45  1  0
 42 44  1  0
 43 41  2  0
 46 47  1  0
 46 21  1  0
 48 46  1  0
 49  2  1  0
 50 49  1  0
 50 51  1  0
 52 54  1  0
 52 51  1  0
 53 64  2  0
 54 59  1  0
 55 63  1  0
 55 65  1  0
 56 62  1  0
 56 58  1  0
 57 63  1  0
 58 57  1  0
 59 58  2  0
 60 54  2  0
 61 60  1  0
 61 56  2  0
 62 55  1  0
 63 53  1  0
 65 67  2  0
 66 65  1  0
 68 66  1  0
 69 78  2  0
 69 74  1  0
 70 66  1  0
 70 74  1  0
 71 70  1  0
 72 73  1  0
 72 71  1  0
 73 69  1  0
 74 75  2  0
 75 76  1  0
 77 76  2  0
 78 77  1  0
 79 53  1  0
 79 80  1  0
 79 89  1  0
 80 83  1  0
 81 85  1  0
 81 80  1  0
 82 81  2  0
 85 84  1  0
 87 85  1  0
 87 88  1  0
 87 86  1  0
 89 92  1  1
 89 90  1  0
 91 89  1  0
M  ISO  4  11 100  19 100  51 101  52 101
M  END
>  <TORSDO>  (97) 
F 21

>  <SCORE>  (97) 
-13.213

>  <name>  (97) 
96

>  <ligand_id>  (97) 
96

>  <original_smiles>  (97) 
[H]c1c([H])c([H])c2c(c1[H])C([H])([H])C([H])([H])C([H])([H])C2([H])N([H])C(=O)C1([H])N(C(=O)C([H])(N([H])C(=O)C([H])(N([H])C([H])([H])[H])C([H])([H])[H])C(C([H])([H])[H])(C([H])([H])[H])C([H])([H])[H])C([H])([H])c2c([H])c(OC([H])([H])C([H])([H])C([H])([H])[N+]([H])(C([H])([H])[H])C([H])([H])c3c([H])c([H])c([H])c(N([H])C(=O)N4C([H])([H])C([H])([H])C([H])([H])C([H])(n5nc(-c6c([H])c([H])c(Oc7c([H])c([H])c(F)c([H])c7F)c([H])c6[H])c(C(=O)N([H])[H])c5N([H])[H])C4([H])[H])c3[H])c([H])c([H])c2C1([H])[H]

>  <smiles>  (97) 
[H]c1c([H])c([H])c2c(c1[H])C([H])([H])C([H])([H])C([H])([H])C2([H])N([H])C(=O)C1([H])N(C(=O)C([H])(N([H])C(=O)C([H])(N([H])C([H])([H])[H])C([H])([H])[H])C(C([H])([H])[H])(C([H])([H])[H])C([H])([H])[H])C([H])([H])c2c([H])c(OC([H])([H])C([H])([H])C([H])([H])[N+]([H])(C([H])([H])[H])C([H])([H])c3c([H])c([H])c([H])c(N([H])C(=O)N4C([H])([H])C([H])([H])C([H])([H])C([H])(n5nc(-c6c([H])c([H])c(Oc7c([H])c([H])c(F)c([H])c7F)c([H])c6[H])c(C(=O)N([H])[H])c5N([H])[H])C4([H])[H])c3[H])c([H])c([H])c2C1([H])[H]

$$$$
