0:0:0
     RDKit          3D

 90 98  0  0  1  0  0  0  0  0999 V2000
  -29.5990  -19.5720   19.0110 C   0  0  0  0  0  3  0  0  0  0  0  0
  -30.0300  -19.3160   21.3510 C   0  0  0  0  0  3  0  0  0  0  0  0
  -29.3770  -20.9740   19.1890 C   0  0  0  0  0  3  0  0  0  0  0  0
  -29.8290  -20.7220   21.5250 C   0  0  0  0  0  3  0  0  0  0  0  0
  -29.9540  -18.6920   20.0740 C   0  0  0  0  0  0  0  0  0  0  0  0
  -29.5190  -21.6090   20.4500 C   0  0  0  0  0  0  0  0  0  0  0  0
  -30.2280  -23.5770   21.7420 C   0  0  0  0  0  1  0  0  0  0  0  0
  -29.4630  -23.0460   20.6140 N   0  0  0  0  0  0  0  0  0  0  0  0
  -28.3550  -23.9280   20.1190 C   0  0  0  0  0  2  0  0  0  0  0  0
  -28.7370  -25.3420   19.4730 C   0  0  0  0  0  2  0  0  0  0  0  0
  -28.5380  -26.6310   20.1650 O   0  0  0  0  0  0  0  0  0  0  0  0
  -24.5970  -31.8690   23.1080 C   0  0  0  0  0  0  0  0  0  0  0  0
  -27.3680  -27.3940   20.0720 C   0  0  0  0  0  0  0  0  0  0  0  0
  -23.4470  -30.4430   21.4490 C   0  0  0  0  0  3  0  0  0  0  0  0
  -24.9550  -28.9280   20.0360 C   0  0  0  0  0  0  0  0  0  0  0  0
  -25.9760  -30.8290   21.2930 C   0  0  0  0  0  2  0  0  0  0  0  0
  -26.0970  -29.4530   20.6500 C   0  0  0  0  0  0  0  0  0  0  0  0
  -27.3020  -28.6930   20.6620 C   0  0  0  0  0  3  0  0  0  0  0  0
  -26.2000  -26.9110   19.4440 C   0  0  0  0  0  3  0  0  0  0  0  0
  -25.0060  -27.6630   19.4260 C   0  0  0  0  0  3  0  0  0  0  0  0
  -23.6940  -29.7700   20.0700 C   0  0  0  0  0  2  0  0  0  0  0  0
  -24.6910  -31.0640   22.0080 N   0  0  0  0  0  0  0  0  0  0  0  0
  -23.5020  -32.1190   23.6300 O   0  0  0  0  0  0  0  0  0  0  0  0
  -22.7990  -29.4100   22.4000 C   0  0  0  0  0  0  0  0  0  0  0  0
  -21.4760  -29.2130   22.2650 N   0  0  0  0  0  0  0  0  0  0  0  0
  -23.4830  -28.7890   23.2180 O   0  0  0  0  0  0  0  0  0  0  0  0
  -20.9820  -29.7660   21.5780 H   0  0  0  0  0  0  0  0  0  0  0  0
  -18.1140  -27.9700   22.7470 C   0  0  0  0  0  0  0  0  0  0  0  0
  -20.6680  -28.2560   23.0230 C   0  0  0  0  0  3  0  0  0  0  0  0
  -20.7890  -26.8330   22.4320 C   0  0  0  0  0  2  0  0  0  0  0  0
  -19.6920  -26.5090   21.4130 C   0  0  0  0  0  2  0  0  0  0  0  0
  -18.3070  -26.6310   22.0570 C   0  0  0  0  0  2  0  0  0  0  0  0
  -19.2220  -28.7410   23.1870 C   0  0  0  0  0  0  0  0  0  0  0  0
  -18.9890  -29.9950   23.7950 C   0  0  0  0  0  3  0  0  0  0  0  0
  -17.6780  -30.4790   23.9630 C   0  0  0  0  0  3  0  0  0  0  0  0
  -16.5840  -29.7050   23.5380 C   0  0  0  0  0  3  0  0  0  0  0  0
  -16.8020  -28.4530   22.9370 C   0  0  0  0  0  3  0  0  0  0  0  0
  -25.8570  -32.5280   23.7490 C   0  0  0  0  0  3  0  0  0  0  0  0
  -26.3950  -31.7490   25.0110 C   0  0  1  0  0  0  0  0  0  0  0  0
  -25.3070  -31.4510   26.0680 C   0  0  0  0  0  1  0  0  0  0  0  0
  -27.0290  -30.4020   24.5930 C   0  0  0  0  0  1  0  0  0  0  0  0
  -27.5130  -32.5690   25.6970 C   0  0  0  0  0  1  0  0  0  0  0  0
  -25.5020  -33.9090   24.1080 N   0  0  0  0  0  0  0  0  0  0  0  0
  -25.8020  -34.9880   23.3720 C   0  0  0  0  0  0  0  0  0  0  0  0
  -26.4750  -34.9280   22.3390 O   0  0  0  0  0  0  0  0  0  0  0  0
  -24.9030  -34.0290   24.9110 H   0  0  0  0  0  0  0  0  0  0  0  0
  -24.0220  -36.7360   23.0450 C   0  0  0  0  0  1  0  0  0  0  0  0
  -25.2680  -36.3500   23.8580 C   0  0  0  0  0  3  0  0  0  0  0  0
  -27.3640  -37.2820   24.7330 C   0  0  0  0  0  1  0  0  0  0  0  0
  -26.2690  -37.4350   23.7790 N   0  0  0  0  0  0  0  0  0  0  0  0
  -25.8330  -38.3400   23.9410 H   0  0  0  0  0  0  0  0  0  0  0  0
  -30.2780  -17.1690   19.7390 C   0  0  0  0  0  2  0  0  0  0  0  0
  -30.9480  -14.7400   20.0390 C   0  0  0  0  0  0  0  0  0  0  0  0
  -30.6090  -12.5430   18.9060 C   0  0  0  0  0  2  0  0  0  0  0  0
  -29.6090  -12.7010   17.7390 C   0  0  0  0  0  2  0  0  0  0  0  0
  -28.1610  -12.5380   18.2380 C   0  0  0  0  0  2  0  0  0  0  0  0
  -27.8750  -13.3810   19.5090 C   0  0  0  0  0  3  0  0  0  0  0  0
  -28.9820  -13.1950   20.5650 C   0  0  0  0  0  2  0  0  0  0  0  0
  -30.2660  -13.5470   19.9390 N   0  0  0  0  0  0  0  0  0  0  0  0
  -32.0450  -14.8680   19.4850 O   0  0  0  0  0  0  0  0  0  0  0  0
  -30.0870  -15.9640   21.9770 C   0  0  0  0  0  1  0  0  0  0  0  0
  -30.2860  -15.8580   20.5220 N   0  0  0  0  0  0  0  0  0  0  0  0
  -25.5390  -13.9900   20.3820 C   0  0  0  0  0  0  0  0  0  0  0  0
  -24.4840  -13.2200   20.7890 C   0  0  0  0  0  0  0  0  0  0  0  0
  -24.9230  -11.8640   20.6950 C   0  0  0  0  0  0  0  0  0  0  0  0
  -26.5530  -13.1010   20.0610 N   0  0  0  0  0  0  0  0  0  0  0  0
  -26.1940  -11.8160   20.3110 N   0  0  0  0  0  0  0  0  0  0  0  0
  -24.1910  -10.6060   20.8920 C   0  0  0  0  0  0  0  0  0  0  0  0
  -24.5970   -9.6580   21.8560 C   0  0  0  0  0  3  0  0  0  0  0  0
  -23.8660   -8.4640   22.0400 C   0  0  0  0  0  3  0  0  0  0  0  0
  -22.7130   -8.2120   21.2580 C   0  0  0  0  0  0  0  0  0  0  0  0
  -22.3250   -9.1500   20.2850 C   0  0  0  0  0  3  0  0  0  0  0  0
  -23.0580  -10.3330   20.1000 C   0  0  0  0  0  3  0  0  0  0  0  0
  -21.9560   -7.0690   21.3490 O   0  0  0  0  0  0  0  0  0  0  0  0
  -21.7890   -6.4090   22.5400 C   0  0  0  0  0  0  0  0  0  0  0  0
  -21.2060   -7.0340   23.6640 C   0  0  0  0  0  3  0  0  0  0  0  0
  -20.9900   -6.2980   24.8450 C   0  0  0  0  0  3  0  0  0  0  0  0
  -21.3430   -4.9360   24.9020 C   0  0  0  0  0  0  0  0  0  0  0  0
  -21.9170   -4.3090   23.7810 C   0  0  0  0  0  3  0  0  0  0  0  0
  -22.1360   -5.0430   22.6030 C   0  0  0  0  0  0  0  0  0  0  0  0
  -22.6690   -4.4290   21.5190 F   0  0  0  0  0  0  0  0  0  0  0  0
  -21.1280   -4.2270   26.0340 F   0  0  0  0  0  0  0  0  0  0  0  0
  -23.1090  -13.7070   21.1510 C   0  0  0  0  0  0  0  0  0  0  0  0
  -22.4250  -13.0000   22.0420 N   0  0  0  0  0  0  0  0  0  0  0  0
  -22.6550  -14.7480   20.6790 O   0  0  0  0  0  0  0  0  0  0  0  0
  -22.8080  -12.1580   22.4450 H   0  0  0  0  0  0  0  0  0  0  0  0
  -21.5070  -13.3100   22.3290 H   0  0  0  0  0  0  0  0  0  0  0  0
  -25.7140  -15.3620   20.2380 N   0  0  0  0  0  0  0  0  0  0  0  0
  -24.9740  -16.0270   20.4310 H   0  0  0  0  0  0  0  0  0  0  0  0
  -26.5630  -15.8020   19.9030 H   0  0  0  0  0  0  0  0  0  0  0  0
  1  3  2  0
  1  5  1  0
  2  4  1  0
  3  6  1  0
  5  2  2  0
  6  8  1  0
  6  4  2  0
  8  7  1  0
  9  8  1  0
 10  9  1  0
 10 11  1  0
 12 23  2  0
 13 11  1  0
 13 18  1  0
 14 22  1  0
 14 24  1  0
 15 21  1  0
 15 17  1  0
 16 22  1  0
 17 18  2  0
 17 16  1  0
 19 13  2  0
 20 19  1  0
 20 15  2  0
 21 14  1  0
 22 12  1  0
 24 26  2  0
 25 24  1  0
 27 25  1  0
 28 37  2  0
 28 33  1  0
 29 25  1  0
 29 33  1  0
 30 29  1  0
 31 32  1  0
 31 30  1  0
 32 28  1  0
 33 34  2  0
 34 35  1  0
 36 35  2  0
 37 36  1  0
 38 12  1  0
 38 43  1  0
 38 39  1  0
 39 42  1  1
 39 40  1  0
 41 39  1  0
 43 46  1  0
 44 48  1  0
 44 43  1  0
 45 44  2  0
 48 47  1  0
 50 48  1  0
 50 51  1  0
 50 49  1  0
 52  5  1  0
 52 62  1  0
 53 62  1  0
 54 59  1  0
 55 56  1  0
 55 54  1  0
 57 56  1  0
 57 66  1  0
 57 58  1  0
 59 53  1  0
 59 58  1  0
 60 53  2  0
 62 61  1  0
 63 64  2  0
 64 83  1  0
 65 64  1  0
 65 68  1  0
 66 67  1  0
 66 63  1  0
 67 65  2  0
 68 69  1  0
 69 70  2  0
 71 74  1  0
 71 70  1  0
 72 71  2  0
 73 72  1  0
 73 68  2  0
 74 75  1  0
 75 80  2  0
 75 76  1  0
 76 77  2  0
 77 78  1  0
 78 82  1  0
 79 78  2  0
 80 79  1  0
 81 80  1  0
 83 84  1  0
 84 87  1  0
 84 86  1  0
 85 83  2  0
 88 63  1  0
 88 89  1  0
 90 88  1  0
M  ISO  4  10 101  11 101  53 100  62 100
M  END
>  <TORSDO>  (1) 
F 20

>  <SCORE>  (1) 
-13.269

>  <name>  (1) 
0

>  <ligand_id>  (1) 
0

>  <original_smiles>  (1) 
[H]c1c([H])c([H])c2c(c1[H])C([H])([H])C([H])([H])C([H])([H])C2([H])N([H])C(=O)C1([H])N(C(=O)C([H])(N([H])C(=O)C([H])(N([H])C([H])([H])[H])C([H])([H])[H])C(C([H])([H])[H])(C([H])([H])[H])C([H])([H])[H])C([H])([H])c2c([H])c(OC([H])([H])C([H])([H])N(c3c([H])c([H])c(C([H])([H])N(C(=O)N4C([H])([H])C([H])([H])C([H])([H])C([H])(n5nc(-c6c([H])c([H])c(Oc7c([H])c([H])c(F)c([H])c7F)c([H])c6[H])c(C(=O)N([H])[H])c5N([H])[H])C4([H])[H])C([H])([H])[H])c([H])c3[H])C([H])([H])[H])c([H])c([H])c2C1([H])[H]

>  <smiles>  (1) 
[H]c1c([H])c([H])c2c(c1[H])C([H])([H])C([H])([H])C([H])([H])C2([H])N([H])C(=O)C1([H])N(C(=O)C([H])(N([H])C(=O)C([H])(N([H])C([H])([H])[H])C([H])([H])[H])C(C([H])([H])[H])(C([H])([H])[H])C([H])([H])[H])C([H])([H])c2c([H])c(OC([H])([H])C([H])([H])N(c3c([H])c([H])c(C([H])([H])N(C(=O)N4C([H])([H])C([H])([H])C([H])([H])C([H])(n5nc(-c6c([H])c([H])c(Oc7c([H])c([H])c(F)c([H])c7F)c([H])c6[H])c(C(=O)N([H])[H])c5N([H])[H])C4([H])[H])C([H])([H])[H])c([H])c3[H])C([H])([H])[H])c([H])c([H])c2C1([H])[H]

$$$$
1:0:0
     RDKit          3D

 91100  0  0  1  0  0  0  0  0999 V2000
  -28.7610  -21.9330   21.0290 C   0  0  0  0  0  3  0  0  0  0  0  0
  -30.3540  -22.0050   19.2290 C   0  0  0  0  0  3  0  0  0  0  0  0
  -28.4130  -23.3010   20.7780 C   0  0  0  0  0  3  0  0  0  0  0  0
  -30.0110  -23.3640   18.9850 C   0  0  0  0  0  3  0  0  0  0  0  0
  -29.7510  -21.2490   20.2640 C   0  0  0  0  0  0  0  0  0  0  0  0
  -29.0450  -24.0590   19.7570 C   0  0  0  0  0  0  0  0  0  0  0  0
  -30.3260  -19.8290   20.6390 C   0  0  0  0  0  2  0  0  0  0  0  0
  -28.9650  -16.3970   21.0470 C   0  0  0  0  0  2  0  0  0  0  0  0
  -28.6720  -17.9210   20.9410 C   0  0  0  0  0  2  0  0  0  0  0  0
  -30.6710  -17.4190   19.7780 C   0  0  0  0  0  2  0  0  0  0  0  0
  -29.8740  -16.0660   19.8560 C   0  0  0  0  0  3  0  0  0  0  0  0
  -29.7200  -18.5470   20.0910 N   0  0  2  0  0  4  0  0  0  0  0  0
  -29.2840  -18.7970   19.2160 H   0  0  0  0  0  0  0  0  0  0  0  0
  -30.7100  -14.7110   19.8670 C   0  0  0  0  0  0  0  0  0  0  0  0
  -30.4410  -12.4230   18.9530 C   0  0  0  0  0  2  0  0  0  0  0  0
  -29.4470  -12.5180   17.7720 C   0  0  0  0  0  2  0  0  0  0  0  0
  -27.9950  -12.3760   18.2710 C   0  0  0  0  0  2  0  0  0  0  0  0
  -27.6910  -13.3050   19.4770 C   0  0  0  0  0  3  0  0  0  0  0  0
  -28.7990  -13.1950   20.5470 C   0  0  0  0  0  2  0  0  0  0  0  0
  -30.0860  -13.4910   19.9080 N   0  0  0  0  0  0  0  0  0  0  0  0
  -31.8930  -14.7850   19.5250 O   0  0  0  0  0  0  0  0  0  0  0  0
  -25.3640  -13.9720   20.3330 C   0  0  0  0  0  0  0  0  0  0  0  0
  -24.2960  -13.2290   20.7540 C   0  0  0  0  0  0  0  0  0  0  0  0
  -24.7130  -11.8640   20.6840 C   0  0  0  0  0  0  0  0  0  0  0  0
  -26.3660  -13.0620   20.0340 N   0  0  0  0  0  0  0  0  0  0  0  0
  -25.9840  -11.7890   20.3080 N   0  0  0  0  0  0  0  0  0  0  0  0
  -23.9600  -10.6220   20.8980 C   0  0  0  0  0  0  0  0  0  0  0  0
  -24.3910   -9.6490   21.8250 C   0  0  0  0  0  3  0  0  0  0  0  0
  -23.6400   -8.4710   22.0260 C   0  0  0  0  0  3  0  0  0  0  0  0
  -22.4440   -8.2590   21.3000 C   0  0  0  0  0  0  0  0  0  0  0  0
  -22.0340   -9.2210   20.3600 C   0  0  0  0  0  3  0  0  0  0  0  0
  -22.7860  -10.3900   20.1580 C   0  0  0  0  0  3  0  0  0  0  0  0
  -21.6640   -7.1340   21.4110 O   0  0  0  0  0  0  0  0  0  0  0  0
  -21.5850   -6.4260   22.5830 C   0  0  0  0  0  0  0  0  0  0  0  0
  -21.1530   -7.0240   23.7880 C   0  0  0  0  0  3  0  0  0  0  0  0
  -21.0210   -6.2430   24.9520 C   0  0  0  0  0  3  0  0  0  0  0  0
  -21.3100   -4.8660   24.9140 C   0  0  0  0  0  0  0  0  0  0  0  0
  -21.7340   -4.2670   23.7150 C   0  0  0  0  0  3  0  0  0  0  0  0
  -21.8690   -5.0460   22.5520 C   0  0  0  0  0  0  0  0  0  0  0  0
  -22.2570   -4.4600   21.3940 F   0  0  0  0  0  0  0  0  0  0  0  0
  -21.1740   -4.1130   26.0320 F   0  0  0  0  0  0  0  0  0  0  0  0
  -22.9300  -13.7450   21.1030 C   0  0  0  0  0  0  0  0  0  0  0  0
  -22.2310  -13.0650   22.0040 N   0  0  0  0  0  0  0  0  0  0  0  0
  -22.4940  -14.7840   20.6080 O   0  0  0  0  0  0  0  0  0  0  0  0
  -22.6000  -12.2260   22.4240 H   0  0  0  0  0  0  0  0  0  0  0  0
  -21.3150  -13.3910   22.2800 H   0  0  0  0  0  0  0  0  0  0  0  0
  -25.5590  -15.3400   20.1530 N   0  0  0  0  0  0  0  0  0  0  0  0
  -24.7960  -15.9990   20.2660 H   0  0  0  0  0  0  0  0  0  0  0  0
  -26.3740  -15.7450   19.7160 H   0  0  0  0  0  0  0  0  0  0  0  0
  -28.6420  -25.5180   19.3350 C   0  0  0  0  0  2  0  0  0  0  0  0
  -28.3860  -26.5660   20.3360 O   0  0  0  0  0  0  0  0  0  0  0  0
  -24.6130  -31.9240   23.3270 C   0  0  0  0  0  0  0  0  0  0  0  0
  -27.2470  -27.3820   20.2660 C   0  0  0  0  0  0  0  0  0  0  0  0
  -23.4170  -30.5230   21.6830 C   0  0  0  0  0  3  0  0  0  0  0  0
  -24.8730  -28.9790   20.2630 C   0  0  0  0  0  0  0  0  0  0  0  0
  -25.9570  -30.8460   21.5130 C   0  0  0  0  0  2  0  0  0  0  0  0
  -26.0390  -29.4720   20.8610 C   0  0  0  0  0  0  0  0  0  0  0  0
  -27.2250  -28.6830   20.8560 C   0  0  0  0  0  3  0  0  0  0  0  0
  -26.0410  -26.9250   19.6820 C   0  0  0  0  0  3  0  0  0  0  0  0
  -24.8730  -27.7090   19.6720 C   0  0  0  0  0  3  0  0  0  0  0  0
  -23.6360  -29.8500   20.3040 C   0  0  0  0  0  2  0  0  0  0  0  0
  -24.6800  -31.1150   22.2300 N   0  0  0  0  0  0  0  0  0  0  0  0
  -23.5260  -32.1990   23.8560 O   0  0  0  0  0  0  0  0  0  0  0  0
  -22.7540  -29.5050   22.6400 C   0  0  0  0  0  0  0  0  0  0  0  0
  -21.4340  -29.3050   22.4900 N   0  0  0  0  0  0  0  0  0  0  0  0
  -23.4270  -28.8980   23.4780 O   0  0  0  0  0  0  0  0  0  0  0  0
  -20.9500  -29.8460   21.7870 H   0  0  0  0  0  0  0  0  0  0  0  0
  -18.0790  -28.0210   22.8930 C   0  0  0  0  0  0  0  0  0  0  0  0
  -20.6160  -28.3630   23.2530 C   0  0  0  0  0  3  0  0  0  0  0  0
  -20.7800  -26.9220   22.7170 C   0  0  0  0  0  2  0  0  0  0  0  0
  -19.7300  -26.5510   21.6640 C   0  0  0  0  0  2  0  0  0  0  0  0
  -18.3240  -26.6610   22.2610 C   0  0  0  0  0  2  0  0  0  0  0  0
  -19.1580  -28.8280   23.3410 C   0  0  0  0  0  0  0  0  0  0  0  0
  -18.8820  -30.1010   23.8850 C   0  0  0  0  0  3  0  0  0  0  0  0
  -17.5560  -30.5650   23.9950 C   0  0  0  0  0  3  0  0  0  0  0  0
  -16.4910  -29.7520   23.5700 C   0  0  0  0  0  3  0  0  0  0  0  0
  -16.7540  -28.4850   23.0200 C   0  0  0  0  0  3  0  0  0  0  0  0
  -25.8930  -32.5590   23.9520 C   0  0  0  0  0  3  0  0  0  0  0  0
  -26.3830  -31.8140   25.2550 C   0  0  1  0  0  0  0  0  0  0  0  0
  -25.2680  -31.6040   26.3070 C   0  0  0  0  0  1  0  0  0  0  0  0
  -26.9690  -30.4270   24.9070 C   0  0  0  0  0  1  0  0  0  0  0  0
  -27.5190  -32.6220   25.9240 C   0  0  0  0  0  1  0  0  0  0  0  0
  -25.5910  -33.9660   24.2460 N   0  0  0  0  0  0  0  0  0  0  0  0
  -25.9260  -34.9980   23.4590 C   0  0  0  0  0  0  0  0  0  0  0  0
  -26.5920  -34.8630   22.4290 O   0  0  0  0  0  0  0  0  0  0  0  0
  -24.9990  -34.1470   25.0430 H   0  0  0  0  0  0  0  0  0  0  0  0
  -24.1950  -36.7830   23.0770 C   0  0  0  0  0  1  0  0  0  0  0  0
  -25.4470  -36.4000   23.8830 C   0  0  0  0  0  3  0  0  0  0  0  0
  -27.5920  -37.3060   24.6630 C   0  0  0  0  0  1  0  0  0  0  0  0
  -26.4810  -37.4460   23.7260 N   0  0  0  0  0  0  0  0  0  0  0  0
  -26.0790  -38.3720   23.8470 H   0  0  0  0  0  0  0  0  0  0  0  0
  2  5  1  0
  3  1  1  0
  4  2  2  0
  4  6  1  0
  5  7  1  0
  5  1  2  0
  6  3  2  0
  9  8  1  0
 10 11  1  0
 10 12  1  0
 11 14  1  0
 11  8  1  0
 12  7  1  0
 12  9  1  0
 12 13  1  6
 14 20  1  0
 15 20  1  0
 16 17  1  0
 16 15  1  0
 18 17  1  0
 18 25  1  0
 18 19  1  0
 20 19  1  0
 21 14  2  0
 22 23  2  0
 23 42  1  0
 24 23  1  0
 24 27  1  0
 25 26  1  0
 25 22  1  0
 26 24  2  0
 27 28  1  0
 28 29  2  0
 30 33  1  0
 30 29  1  0
 31 30  2  0
 32 31  1  0
 32 27  2  0
 33 34  1  0
 34 35  1  0
 35 36  2  0
 37 36  1  0
 37 41  1  0
 38 37  2  0
 39 34  2  0
 39 38  1  0
 40 39  1  0
 42 43  1  0
 43 46  1  0
 43 45  1  0
 44 42  2  0
 47 48  1  0
 47 22  1  0
 49 47  1  0
 50  6  1  0
 50 51  1  0
 52 63  2  0
 53 51  1  0
 53 58  1  0
 54 62  1  0
 54 64  1  0
 55 61  1  0
 55 57  1  0
 56 62  1  0
 57 56  1  0
 58 57  2  0
 59 53  2  0
 60 59  1  0
 60 55  2  0
 61 54  1  0
 62 52  1  0
 64 66  2  0
 65 64  1  0
 67 65  1  0
 68 77  2  0
 68 73  1  0
 69 65  1  0
 69 73  1  0
 70 69  1  0
 71 72  1  0
 71 70  1  0
 72 68  1  0
 73 74  2  0
 74 75  1  0
 76 75  2  0
 77 76  1  0
 78 52  1  0
 78 83  1  0
 78 79  1  0
 79 82  1  1
 79 80  1  0
 81 79  1  0
 83 86  1  0
 84 88  1  0
 84 83  1  0
 85 84  2  0
 88 87  1  0
 90 91  1  0
 90 88  1  0
 90 89  1  0
M  ISO  4  11 100  14 100  50 101  51 101
M  END
>  <TORSDO>  (2) 
F 19

>  <SCORE>  (2) 
-13.841

>  <name>  (2) 
1

>  <ligand_id>  (2) 
1

>  <original_smiles>  (2) 
[H]c1c([H])c([H])c2c(c1[H])C([H])([H])C([H])([H])C([H])([H])C2([H])N([H])C(=O)C1([H])N(C(=O)C([H])(N([H])C(=O)C([H])(N([H])C([H])([H])[H])C([H])([H])[H])C(C([H])([H])[H])(C([H])([H])[H])C([H])([H])[H])C([H])([H])c2c([H])c(OC([H])([H])c3c([H])c([H])c(C([H])([H])[N+]4([H])C([H])([H])C([H])([H])C([H])(C(=O)N5C([H])([H])C([H])([H])C([H])([H])C([H])(n6nc(-c7c([H])c([H])c(Oc8c([H])c([H])c(F)c([H])c8F)c([H])c7[H])c(C(=O)N([H])[H])c6N([H])[H])C5([H])[H])C4([H])[H])c([H])c3[H])c([H])c([H])c2C1([H])[H]

>  <smiles>  (2) 
[H]c1c([H])c([H])c2c(c1[H])C([H])([H])C([H])([H])C([H])([H])C2([H])N([H])C(=O)C1([H])N(C(=O)C([H])(N([H])C(=O)C([H])(N([H])C([H])([H])[H])C([H])([H])[H])C(C([H])([H])[H])(C([H])([H])[H])C([H])([H])[H])C([H])([H])c2c([H])c(OC([H])([H])c3c([H])c([H])c(C([H])([H])[N+]4([H])C([H])([H])C([H])([H])C([H])(C(=O)N5C([H])([H])C([H])([H])C([H])([H])C([H])(n6nc(-c7c([H])c([H])c(Oc8c([H])c([H])c(F)c([H])c8F)c([H])c7[H])c(C(=O)N([H])[H])c6N([H])[H])C5([H])[H])C4([H])[H])c([H])c3[H])c([H])c([H])c2C1([H])[H]

$$$$
2:0:0
     RDKit          3D

 93102  0  0  1  0  0  0  0  0999 V2000
  -28.3860  -19.8000   20.2050 C   0  0  0  0  0  3  0  0  0  0  0  0
  -28.4640  -18.3510   20.2800 C   0  0  0  0  0  3  0  0  0  0  0  0
  -30.7750  -18.4570   20.6910 C   0  0  0  0  0  3  0  0  0  0  0  0
  -30.7220  -19.9180   20.6210 C   0  0  0  0  0  0  0  0  0  0  0  0
  -29.5090  -20.6770   20.3380 C   0  0  0  0  0  0  0  0  0  0  0  0
  -29.6600  -17.5840   20.4930 C   0  0  0  0  0  0  0  0  0  0  0  0
  -31.8920  -22.1920   20.5910 C   0  0  0  0  0  2  0  0  0  0  0  0
  -30.8140  -22.5000   19.5470 C   0  0  0  0  0  2  0  0  0  0  0  0
  -32.0430  -20.6760   20.8770 C   0  0  1  0  0  0  0  0  0  0  0  0
  -32.4610  -20.5020   22.3540 C   0  0  0  0  0  1  0  0  0  0  0  0
  -33.1730  -20.1210   19.9750 C   0  0  0  0  0  1  0  0  0  0  0  0
  -29.4880  -22.1430   20.0500 N   0  0  0  0  0  0  0  0  0  0  0  0
  -30.4720  -14.9450   20.3640 C   0  0  0  0  0  0  0  0  0  0  0  0
  -30.3570  -12.6170   19.3680 C   0  0  0  0  0  2  0  0  0  0  0  0
  -29.4080  -12.6100   18.1470 C   0  0  0  0  0  2  0  0  0  0  0  0
  -27.9450  -12.4080   18.5830 C   0  0  0  0  0  2  0  0  0  0  0  0
  -27.5600  -13.3050   19.7870 C   0  0  0  0  0  3  0  0  0  0  0  0
  -28.6220  -13.2660   20.9060 C   0  0  0  0  0  2  0  0  0  0  0  0
  -29.8980  -13.6800   20.3030 N   0  0  0  0  0  0  0  0  0  0  0  0
  -31.6670  -15.0570   20.0660 O   0  0  0  0  0  0  0  0  0  0  0  0
  -29.6180  -16.0570   20.5630 N   0  0  0  0  0  0  0  0  0  0  0  0
  -28.6800  -15.7210   20.7090 H   0  0  0  0  0  0  0  0  0  0  0  0
  -25.1780  -13.8890   20.5270 C   0  0  0  0  0  0  0  0  0  0  0  0
  -24.1140  -13.1150   20.8980 C   0  0  0  0  0  0  0  0  0  0  0  0
  -24.5780  -11.7640   20.8630 C   0  0  0  0  0  0  0  0  0  0  0  0
  -26.2220  -13.0100   20.2850 N   0  0  0  0  0  0  0  0  0  0  0  0
  -25.8680  -11.7270   20.5510 N   0  0  0  0  0  0  0  0  0  0  0  0
  -23.8500  -10.5020   21.0490 C   0  0  0  0  0  0  0  0  0  0  0  0
  -24.2750   -9.5330   21.9850 C   0  0  0  0  0  3  0  0  0  0  0  0
  -23.5470   -8.3360   22.1570 C   0  0  0  0  0  3  0  0  0  0  0  0
  -22.3790   -8.0980   21.3930 C   0  0  0  0  0  0  0  0  0  0  0  0
  -21.9750   -9.0540   20.4460 C   0  0  0  0  0  3  0  0  0  0  0  0
  -22.7040  -10.2430   20.2710 C   0  0  0  0  0  3  0  0  0  0  0  0
  -21.6230   -6.9530   21.4750 O   0  0  0  0  0  0  0  0  0  0  0  0
  -21.5580   -6.2170   22.6300 C   0  0  0  0  0  0  0  0  0  0  0  0
  -21.1010   -6.7730   23.8440 C   0  0  0  0  0  3  0  0  0  0  0  0
  -20.9830   -5.9620   24.9910 C   0  0  0  0  0  3  0  0  0  0  0  0
  -21.3120   -4.5960   24.9230 C   0  0  0  0  0  0  0  0  0  0  0  0
  -21.7630   -4.0370   23.7140 C   0  0  0  0  0  3  0  0  0  0  0  0
  -21.8820   -4.8470   22.5700 C   0  0  0  0  0  0  0  0  0  0  0  0
  -22.2970   -4.3000   21.4010 F   0  0  0  0  0  0  0  0  0  0  0  0
  -21.1930   -3.8140   26.0220 F   0  0  0  0  0  0  0  0  0  0  0  0
  -22.7180  -13.5930   21.1700 C   0  0  0  0  0  0  0  0  0  0  0  0
  -21.9860  -12.8900   22.0270 N   0  0  0  0  0  0  0  0  0  0  0  0
  -22.2860  -14.6250   20.6590 O   0  0  0  0  0  0  0  0  0  0  0  0
  -22.3480  -12.0530   22.4610 H   0  0  0  0  0  0  0  0  0  0  0  0
  -21.0490  -13.1960   22.2540 H   0  0  0  0  0  0  0  0  0  0  0  0
  -25.3460  -15.2590   20.3490 N   0  0  0  0  0  0  0  0  0  0  0  0
  -24.5770  -15.9130   20.4370 H   0  0  0  0  0  0  0  0  0  0  0  0
  -26.1740  -15.6770   19.9460 H   0  0  0  0  0  0  0  0  0  0  0  0
  -28.7260  -23.3540   20.6800 C   0  0  0  0  0  2  0  0  0  0  0  0
  -28.4020  -24.7840   19.8370 C   0  0  0  0  0  2  0  0  0  0  0  0
  -28.3180  -26.2420   20.3700 O   0  0  0  0  0  0  0  0  0  0  0  0
  -24.6150  -31.8890   23.2440 C   0  0  0  0  0  0  0  0  0  0  0  0
  -27.2250  -27.1730   20.2480 C   0  0  0  0  0  0  0  0  0  0  0  0
  -23.4220  -30.4820   21.6070 C   0  0  0  0  0  3  0  0  0  0  0  0
  -24.8780  -28.8940   20.1990 C   0  0  0  0  0  0  0  0  0  0  0  0
  -25.9730  -30.7510   21.4500 C   0  0  0  0  0  2  0  0  0  0  0  0
  -26.0500  -29.3550   20.8090 C   0  0  0  0  0  0  0  0  0  0  0  0
  -27.2180  -28.5070   20.8220 C   0  0  0  0  0  3  0  0  0  0  0  0
  -26.0240  -26.8070   19.5990 C   0  0  0  0  0  3  0  0  0  0  0  0
  -24.8760  -27.6320   19.5820 C   0  0  0  0  0  3  0  0  0  0  0  0
  -23.6480  -29.7900   20.2350 C   0  0  0  0  0  2  0  0  0  0  0  0
  -24.6900  -31.0630   22.1560 N   0  0  0  0  0  0  0  0  0  0  0  0
  -23.5270  -32.1770   23.7660 O   0  0  0  0  0  0  0  0  0  0  0  0
  -22.7400  -29.4840   22.5780 C   0  0  0  0  0  0  0  0  0  0  0  0
  -21.4130  -29.3140   22.4480 N   0  0  0  0  0  0  0  0  0  0  0  0
  -23.4070  -28.8660   23.4110 O   0  0  0  0  0  0  0  0  0  0  0  0
  -20.9340  -29.8710   21.7530 H   0  0  0  0  0  0  0  0  0  0  0  0
  -18.0260  -28.1340   22.9520 C   0  0  0  0  0  0  0  0  0  0  0  0
  -20.5850  -28.3860   23.2240 C   0  0  0  0  0  3  0  0  0  0  0  0
  -20.6820  -26.9520   22.6540 C   0  0  0  0  0  2  0  0  0  0  0  0
  -19.5810  -26.6300   21.6410 C   0  0  0  0  0  2  0  0  0  0  0  0
  -18.1980  -26.7820   22.2820 C   0  0  0  0  0  2  0  0  0  0  0  0
  -19.1470  -28.8930   23.3790 C   0  0  0  0  0  0  0  0  0  0  0  0
  -18.9350  -30.1570   23.9700 C   0  0  0  0  0  3  0  0  0  0  0  0
  -17.6320  -30.6630   24.1430 C   0  0  0  0  0  3  0  0  0  0  0  0
  -16.5250  -29.9000   23.7330 C   0  0  0  0  0  3  0  0  0  0  0  0
  -16.7220  -28.6400   23.1400 C   0  0  0  0  0  3  0  0  0  0  0  0
  -25.8900  -32.5310   23.8710 C   0  0  0  0  0  3  0  0  0  0  0  0
  -25.5770  -33.9330   24.1890 N   0  0  0  0  0  0  0  0  0  0  0  0
  -25.9170  -34.9860   23.4330 C   0  0  0  0  0  0  0  0  0  0  0  0
  -26.5910  -34.8770   22.4050 O   0  0  0  0  0  0  0  0  0  0  0  0
  -24.9790  -34.0920   24.9850 H   0  0  0  0  0  0  0  0  0  0  0  0
  -24.1980  -36.7880   23.0670 C   0  0  0  0  0  1  0  0  0  0  0  0
  -25.4330  -36.3780   23.8850 C   0  0  0  0  0  3  0  0  0  0  0  0
  -27.5630  -37.2630   24.7250 C   0  0  0  0  0  1  0  0  0  0  0  0
  -26.4680  -37.4290   23.7740 N   0  0  0  0  0  0  0  0  0  0  0  0
  -26.0650  -38.3540   23.9100 H   0  0  0  0  0  0  0  0  0  0  0  0
  -26.3910  -31.7740   25.1620 C   0  0  1  0  0  0  0  0  0  0  0  0
  -25.2880  -31.5520   26.2240 C   0  0  0  0  0  1  0  0  0  0  0  0
  -26.9730  -30.3910   24.7930 C   0  0  0  0  0  1  0  0  0  0  0  0
  -27.5360  -32.5720   25.8250 C   0  0  0  0  0  1  0  0  0  0  0  0
  1  2  2  0
  1  5  1  0
  2  6  1  0
  4  3  1  0
  4  9  1  0
  5  4  2  0
  6 21  1  0
  6  3  2  0
  7  9  1  0
  8 12  1  0
  8  7  1  0
  9 10  1  1
 11  9  1  0
 12  5  1  0
 12 51  1  0
 13 21  1  0
 14 19  1  0
 15 16  1  0
 15 14  1  0
 17 16  1  0
 17 26  1  0
 17 18  1  0
 19 13  1  0
 19 18  1  0
 20 13  2  0
 21 22  1  0
 23 24  2  0
 24 43  1  0
 25 24  1  0
 25 28  1  0
 26 23  1  0
 26 27  1  0
 27 25  2  0
 28 29  1  0
 29 30  2  0
 31 34  1  0
 31 30  1  0
 32 31  2  0
 33 32  1  0
 33 28  2  0
 34 35  1  0
 35 36  1  0
 36 37  2  0
 38 37  1  0
 38 42  1  0
 39 38  2  0
 40 35  2  0
 40 39  1  0
 41 40  1  0
 43 44  1  0
 44 47  1  0
 44 46  1  0
 45 43  2  0
 48 49  1  0
 48 23  1  0
 50 48  1  0
 52 53  1  0
 52 51  1  0
 54 65  2  0
 55 53  1  0
 55 60  1  0
 56 64  1  0
 56 66  1  0
 57 63  1  0
 57 59  1  0
 58 64  1  0
 59 60  2  0
 59 58  1  0
 61 55  2  0
 62 61  1  0
 62 57  2  0
 63 56  1  0
 64 54  1  0
 66 68  2  0
 67 66  1  0
 69 67  1  0
 70 79  2  0
 70 75  1  0
 71 67  1  0
 71 75  1  0
 72 71  1  0
 73 74  1  0
 73 72  1  0
 74 70  1  0
 75 76  2  0
 76 77  1  0
 78 77  2  0
 79 78  1  0
 80 54  1  0
 80 81  1  0
 80 90  1  0
 81 84  1  0
 82 86  1  0
 82 81  1  0
 83 82  2  0
 86 85  1  0
 88 86  1  0
 88 89  1  0
 88 87  1  0
 90 93  1  1
 90 91  1  0
 92 90  1  0
M  ISO  4  13 100  21 100  52 101  53 101
M  END
>  <TORSDO>  (3) 
F 18

>  <SCORE>  (3) 
-15.120

>  <name>  (3) 
2

>  <ligand_id>  (3) 
2

>  <original_smiles>  (3) 
[H]c1c([H])c([H])c2c(c1[H])C([H])([H])C([H])([H])C([H])([H])C2([H])N([H])C(=O)C1([H])N(C(=O)C([H])(N([H])C(=O)C([H])(N([H])C([H])([H])[H])C([H])([H])[H])C(C([H])([H])[H])(C([H])([H])[H])C([H])([H])[H])C([H])([H])c2c([H])c(OC([H])([H])C([H])([H])N3c4c([H])c([H])c(N([H])C(=O)N5C([H])([H])C([H])([H])C([H])([H])C([H])(n6nc(-c7c([H])c([H])c(Oc8c([H])c([H])c(F)c([H])c8F)c([H])c7[H])c(C(=O)N([H])[H])c6N([H])[H])C5([H])[H])c([H])c4C(C([H])([H])[H])(C([H])([H])[H])C([H])([H])C3([H])[H])c([H])c([H])c2C1([H])[H]

>  <smiles>  (3) 
[H]c1c([H])c([H])c2c(c1[H])C([H])([H])C([H])([H])C([H])([H])C2([H])N([H])C(=O)C1([H])N(C(=O)C([H])(N([H])C(=O)C([H])(N([H])C([H])([H])[H])C([H])([H])[H])C(C([H])([H])[H])(C([H])([H])[H])C([H])([H])[H])C([H])([H])c2c([H])c(OC([H])([H])C([H])([H])N3c4c([H])c([H])c(N([H])C(=O)N5C([H])([H])C([H])([H])C([H])([H])C([H])(n6nc(-c7c([H])c([H])c(Oc8c([H])c([H])c(F)c([H])c8F)c([H])c7[H])c(C(=O)N([H])[H])c6N([H])[H])C5([H])[H])c([H])c4C(C([H])([H])[H])(C([H])([H])[H])C([H])([H])C3([H])[H])c([H])c([H])c2C1([H])[H]

$$$$
3:0:0
     RDKit          3D

 95102  0  0  1  0  0  0  0  0999 V2000
  -27.6190  -20.9770   20.1170 C   0  0  0  0  0  1  0  0  0  0  0  0
  -28.9440  -21.7530   20.0010 C   0  0  0  0  0  3  0  0  0  0  0  0
  -28.8180  -23.1280   20.5890 N   0  0  0  0  0  4  0  0  0  0  0  0
  -28.2090  -23.0780   21.3920 H   0  0  0  0  0  0  0  0  0  0  0  0
  -29.7320  -23.3880   20.9290 H   0  0  0  0  0  0  0  0  0  0  0  0
  -28.3650  -24.2350   19.6820 C   0  0  0  0  0  2  0  0  0  0  0  0
  -28.2620  -25.6150   20.4060 C   0  0  0  0  0  2  0  0  0  0  0  0
  -28.2100  -26.7720   19.5360 O   0  0  0  0  0  0  0  0  0  0  0  0
  -24.5420  -31.7170   23.1590 C   0  0  0  0  0  0  0  0  0  0  0  0
  -27.0650  -27.5330   19.6390 C   0  0  0  0  0  0  0  0  0  0  0  0
  -23.2760  -30.4480   21.4550 C   0  0  0  0  0  3  0  0  0  0  0  0
  -24.6760  -29.0360   19.8540 C   0  0  0  0  0  0  0  0  0  0  0  0
  -25.7930  -30.8310   21.1900 C   0  0  0  0  0  2  0  0  0  0  0  0
  -25.8570  -29.5150   20.4380 C   0  0  0  0  0  0  0  0  0  0  0  0
  -27.0580  -28.7740   20.3230 C   0  0  0  0  0  3  0  0  0  0  0  0
  -25.8720  -27.0730   19.0480 C   0  0  0  0  0  3  0  0  0  0  0  0
  -24.6800  -27.8170   19.1540 C   0  0  0  0  0  3  0  0  0  0  0  0
  -23.4330  -29.8830   20.0180 C   0  0  0  0  0  2  0  0  0  0  0  0
  -24.5570  -31.0090   21.9940 N   0  0  0  0  0  0  0  0  0  0  0  0
  -23.4810  -31.9400   23.7610 O   0  0  0  0  0  0  0  0  0  0  0  0
  -22.6630  -29.3490   22.3540 C   0  0  0  0  0  0  0  0  0  0  0  0
  -21.3400  -29.1520   22.2390 N   0  0  0  0  0  0  0  0  0  0  0  0
  -23.3740  -28.6810   23.1110 O   0  0  0  0  0  0  0  0  0  0  0  0
  -20.8260  -29.7480   21.6050 H   0  0  0  0  0  0  0  0  0  0  0  0
  -18.0110  -27.8020   22.6460 C   0  0  0  0  0  0  0  0  0  0  0  0
  -20.5560  -28.1450   22.9540 C   0  0  0  0  0  3  0  0  0  0  0  0
  -20.7170  -26.7500   22.3070 C   0  0  0  0  0  2  0  0  0  0  0  0
  -19.6360  -26.4360   21.2680 C   0  0  0  0  0  2  0  0  0  0  0  0
  -18.2450  -26.4960   21.9050 C   0  0  0  0  0  2  0  0  0  0  0  0
  -19.0960  -28.5850   23.1240 C   0  0  0  0  0  0  0  0  0  0  0  0
  -18.8250  -29.8080   23.7720 C   0  0  0  0  0  3  0  0  0  0  0  0
  -17.5000  -30.2510   23.9500 C   0  0  0  0  0  3  0  0  0  0  0  0
  -16.4300  -29.4650   23.4900 C   0  0  0  0  0  3  0  0  0  0  0  0
  -16.6860  -28.2420   22.8440 C   0  0  0  0  0  3  0  0  0  0  0  0
  -25.8500  -32.2990   23.7800 C   0  0  0  0  0  3  0  0  0  0  0  0
  -26.3970  -31.4500   24.9930 C   0  0  1  0  0  0  0  0  0  0  0  0
  -25.3360  -31.1630   26.0820 C   0  0  0  0  0  1  0  0  0  0  0  0
  -26.9450  -30.0900   24.5010 C   0  0  0  0  0  1  0  0  0  0  0  0
  -27.5800  -32.1890   25.6600 C   0  0  0  0  0  1  0  0  0  0  0  0
  -25.5650  -33.6790   24.2010 N   0  0  0  0  0  0  0  0  0  0  0  0
  -25.8970  -34.7700   23.5000 C   0  0  0  0  0  0  0  0  0  0  0  0
  -26.5470  -34.7220   22.4530 O   0  0  0  0  0  0  0  0  0  0  0  0
  -24.9870  -33.7910   25.0210 H   0  0  0  0  0  0  0  0  0  0  0  0
  -24.1750  -36.5920   23.2950 C   0  0  0  0  0  1  0  0  0  0  0  0
  -25.4330  -36.1340   24.0480 C   0  0  0  0  0  3  0  0  0  0  0  0
  -27.5970  -36.9540   24.8690 C   0  0  0  0  0  1  0  0  0  0  0  0
  -26.4720  -37.1840   23.9680 N   0  0  0  0  0  0  0  0  0  0  0  0
  -26.0770  -38.0970   24.1790 H   0  0  0  0  0  0  0  0  0  0  0  0
  -30.1720  -20.9600   20.5940 C   0  0  0  0  0  3  0  0  0  0  0  0
  -29.9450  -18.3870   20.3760 C   0  0  0  0  0  0  0  0  0  0  0  0
  -31.2890  -19.6990   18.7900 C   0  0  0  0  0  1  0  0  0  0  0  0
  -30.4000  -19.6160   19.9620 N   0  0  0  0  0  0  0  0  0  0  0  0
  -29.0230  -18.2450   21.1830 O   0  0  0  0  0  0  0  0  0  0  0  0
  -30.6810  -17.1250   19.8470 C   0  0  0  0  0  2  0  0  0  0  0  0
  -30.2440  -15.8630   20.4080 O   0  0  0  0  0  0  0  0  0  0  0  0
  -31.0300  -14.7720   20.1310 C   0  0  0  0  0  0  0  0  0  0  0  0
  -30.7340  -12.4540   19.3020 C   0  0  0  0  0  2  0  0  0  0  0  0
  -29.8140  -12.5220   18.0670 C   0  0  0  0  0  2  0  0  0  0  0  0
  -28.3360  -12.4210   18.4920 C   0  0  0  0  0  2  0  0  0  0  0  0
  -27.9700  -13.3950   19.6450 C   0  0  0  0  0  3  0  0  0  0  0  0
  -29.0130  -13.3580   20.7830 C   0  0  0  0  0  2  0  0  0  0  0  0
  -30.3410  -13.5510   20.1980 N   0  0  0  0  0  0  0  0  0  0  0  0
  -32.1730  -14.8930   19.6880 O   0  0  0  0  0  0  0  0  0  0  0  0
  -25.6040  -14.0460   20.4130 C   0  0  0  0  0  0  0  0  0  0  0  0
  -24.5250  -13.2940   20.7930 C   0  0  0  0  0  0  0  0  0  0  0  0
  -24.9540  -11.9320   20.7420 C   0  0  0  0  0  0  0  0  0  0  0  0
  -26.6210  -13.1440   20.1500 N   0  0  0  0  0  0  0  0  0  0  0  0
  -26.2360  -11.8670   20.4080 N   0  0  0  0  0  0  0  0  0  0  0  0
  -24.2010  -10.6860   20.9350 C   0  0  0  0  0  0  0  0  0  0  0  0
  -24.5950   -9.7240   21.8920 C   0  0  0  0  0  3  0  0  0  0  0  0
  -23.8420   -8.5430   22.0720 C   0  0  0  0  0  3  0  0  0  0  0  0
  -22.6820   -8.3140   21.2930 C   0  0  0  0  0  0  0  0  0  0  0  0
  -22.3090   -9.2650   20.3260 C   0  0  0  0  0  3  0  0  0  0  0  0
  -23.0610  -10.4360   20.1450 C   0  0  0  0  0  3  0  0  0  0  0  0
  -21.9060   -7.1840   21.3790 O   0  0  0  0  0  0  0  0  0  0  0  0
  -21.7680   -6.4920   22.5570 C   0  0  0  0  0  0  0  0  0  0  0  0
  -21.2720   -7.1070   23.7270 C   0  0  0  0  0  3  0  0  0  0  0  0
  -21.0810   -6.3440   24.8970 C   0  0  0  0  0  3  0  0  0  0  0  0
  -21.3760   -4.9670   24.8960 C   0  0  0  0  0  0  0  0  0  0  0  0
  -21.8650   -4.3520   23.7280 C   0  0  0  0  0  3  0  0  0  0  0  0
  -22.0570   -5.1130   22.5620 C   0  0  0  0  0  0  0  0  0  0  0  0
  -22.5090   -4.5120   21.4350 F   0  0  0  0  0  0  0  0  0  0  0  0
  -21.1850   -4.2320   26.0150 F   0  0  0  0  0  0  0  0  0  0  0  0
  -23.1460  -13.8020   21.0980 C   0  0  0  0  0  0  0  0  0  0  0  0
  -22.4210  -13.1190   21.9760 N   0  0  0  0  0  0  0  0  0  0  0  0
  -22.7200  -14.8390   20.5910 O   0  0  0  0  0  0  0  0  0  0  0  0
  -22.7760  -12.2770   22.4070 H   0  0  0  0  0  0  0  0  0  0  0  0
  -21.4960  -13.4430   22.2250 H   0  0  0  0  0  0  0  0  0  0  0  0
  -25.8010  -15.4140   20.2510 N   0  0  0  0  0  0  0  0  0  0  0  0
  -25.0660  -16.0930   20.4110 H   0  0  0  0  0  0  0  0  0  0  0  0
  -26.6820  -15.8380   19.9870 H   0  0  0  0  0  0  0  0  0  0  0  0
  -30.2250  -20.9520   22.1530 C   0  0  0  0  0  2  0  0  0  0  0  0
  -31.4710  -20.5110   24.3180 C   0  0  0  0  0  1  0  0  0  0  0  0
  -32.7670  -21.3270   22.3110 C   0  0  0  0  0  1  0  0  0  0  0  0
  -31.5650  -20.4930   22.7840 C   0  0  0  0  0  3  0  0  0  0  0  0
  2  1  1  0
  2  3  1  0
  2 49  1  0
  3  5  1  0
  3  4  1  0
  6  7  1  0
  6  3  1  0
  8 10  1  0
  8  7  1  0
  9 20  2  0
 10 15  1  0
 11 19  1  0
 11 21  1  0
 12 18  1  0
 12 14  1  0
 13 19  1  0
 14 13  1  0
 15 14  2  0
 16 17  1  0
 16 10  2  0
 17 12  2  0
 18 11  1  0
 19  9  1  0
 21 23  2  0
 22 21  1  0
 24 22  1  0
 25 34  2  0
 25 30  1  0
 26 22  1  0
 26 30  1  0
 27 26  1  0
 28 29  1  0
 28 27  1  0
 29 25  1  0
 30 31  2  0
 31 32  1  0
 33 32  2  0
 34 33  1  0
 35  9  1  0
 35 40  1  0
 35 36  1  0
 36 39  1  1
 36 37  1  0
 38 36  1  0
 40 43  1  0
 41 45  1  0
 41 40  1  0
 42 41  2  0
 45 44  1  0
 47 45  1  0
 47 48  1  0
 47 46  1  0
 49 92  1  0
 50 53  2  0
 51 52  1  0
 52 50  1  0
 52 49  1  0
 54 50  1  0
 54 55  1  0
 56 62  1  0
 56 55  1  0
 57 62  1  0
 58 59  1  0
 58 57  1  0
 60 59  1  0
 60 67  1  0
 60 61  1  0
 62 61  1  0
 63 56  2  0
 64 65  2  0
 65 84  1  0
 66 65  1  0
 66 69  1  0
 67 68  1  0
 67 64  1  0
 68 66  2  0
 69 70  1  0
 70 71  2  0
 72 75  1  0
 72 71  1  0
 73 72  2  0
 74 73  1  0
 74 69  2  0
 75 76  1  0
 76 81  2  0
 76 77  1  0
 77 78  2  0
 79 78  1  0
 79 83  1  0
 80 79  2  0
 81 80  1  0
 82 81  1  0
 84 85  1  0
 85 88  1  0
 85 87  1  0
 86 84  2  0
 89 90  1  0
 89 64  1  0
 91 89  1  0
 92 95  1  0
 94 95  1  0
 95 93  1  0
M  ISO  4   7 101   8 101  55 100  56 100
M  END
>  <TORSDO>  (4) 
F 25

>  <SCORE>  (4) 
-11.557

>  <name>  (4) 
3

>  <ligand_id>  (4) 
3

>  <original_smiles>  (4) 
[H]c1c([H])c([H])c2c(c1[H])C([H])([H])C([H])([H])C([H])([H])C2([H])N([H])C(=O)C1([H])N(C(=O)C([H])(N([H])C(=O)C([H])(N([H])C([H])([H])[H])C([H])([H])[H])C(C([H])([H])[H])(C([H])([H])[H])C([H])([H])[H])C([H])([H])c2c([H])c(OC([H])([H])C([H])([H])[N+]([H])([H])C([H])(C([H])([H])[H])C([H])(N(C(=O)C([H])([H])OC(=O)N3C([H])([H])C([H])([H])C([H])([H])C([H])(n4nc(-c5c([H])c([H])c(Oc6c([H])c([H])c(F)c([H])c6F)c([H])c5[H])c(C(=O)N([H])[H])c4N([H])[H])C3([H])[H])C([H])([H])[H])C([H])([H])C([H])(C([H])([H])[H])C([H])([H])[H])c([H])c([H])c2C1([H])[H]

>  <smiles>  (4) 
[H]c1c([H])c([H])c2c(c1[H])C([H])([H])C([H])([H])C([H])([H])C2([H])N([H])C(=O)C1([H])N(C(=O)C([H])(N([H])C(=O)C([H])(N([H])C([H])([H])[H])C([H])([H])[H])C(C([H])([H])[H])(C([H])([H])[H])C([H])([H])[H])C([H])([H])c2c([H])c(OC([H])([H])C([H])([H])[N+]([H])([H])C([H])(C([H])([H])[H])C([H])(N(C(=O)C([H])([H])OC(=O)N3C([H])([H])C([H])([H])C([H])([H])C([H])(n4nc(-c5c([H])c([H])c(Oc6c([H])c([H])c(F)c([H])c6F)c([H])c5[H])c(C(=O)N([H])[H])c4N([H])[H])C3([H])[H])C([H])([H])[H])C([H])([H])C([H])(C([H])([H])[H])C([H])([H])[H])c([H])c([H])c2C1([H])[H]

$$$$
4:0:0
     RDKit          3D

 93101  0  0  1  0  0  0  0  0999 V2000
  -28.5940  -20.7300   20.9820 C   0  0  0  0  0  0  0  0  0  0  0  0
  -29.2120  -21.8690   20.5990 N   0  0  0  0  0  0  0  0  0  0  0  0
  -27.4790  -20.7550   21.5110 O   0  0  0  0  0  0  0  0  0  0  0  0
  -30.1140  -21.7810   20.1490 H   0  0  0  0  0  0  0  0  0  0  0  0
  -30.6430  -19.2240   21.2530 C   0  0  0  0  0  3  0  0  0  0  0  0
  -31.2380  -17.9390   21.2860 C   0  0  0  0  0  3  0  0  0  0  0  0
  -29.2150  -16.9720   20.3630 C   0  0  0  0  0  3  0  0  0  0  0  0
  -29.3100  -19.4010   20.8040 C   0  0  0  0  0  0  0  0  0  0  0  0
  -30.5260  -16.7950   20.8530 C   0  0  0  0  0  0  0  0  0  0  0  0
  -28.6150  -18.2540   20.3340 C   0  0  0  0  0  0  0  0  0  0  0  0
  -27.3400  -18.3520   19.8810 F   0  0  0  0  0  0  0  0  0  0  0  0
  -31.3940  -14.6330   20.0800 C   0  0  0  0  0  0  0  0  0  0  0  0
  -30.9540  -12.4790   18.9420 C   0  0  0  0  0  2  0  0  0  0  0  0
  -29.9690  -12.6560   17.7720 C   0  0  0  0  0  2  0  0  0  0  0  0
  -28.5140  -12.5540   18.2660 C   0  0  0  0  0  2  0  0  0  0  0  0
  -28.2440  -13.4440   19.5080 C   0  0  0  0  0  3  0  0  0  0  0  0
  -29.3370  -13.2500   20.5830 C   0  0  0  0  0  2  0  0  0  0  0  0
  -30.6470  -13.4990   19.9620 N   0  0  0  0  0  0  0  0  0  0  0  0
  -32.4180  -14.8270   19.4180 O   0  0  0  0  0  0  0  0  0  0  0  0
  -31.0660  -15.4870   21.0660 N   0  0  0  0  0  0  0  0  0  0  0  0
  -31.8770  -15.5560   21.6640 H   0  0  0  0  0  0  0  0  0  0  0  0
  -25.9140  -14.1320   20.3650 C   0  0  0  0  0  0  0  0  0  0  0  0
  -24.8340  -13.3970   20.7710 C   0  0  0  0  0  0  0  0  0  0  0  0
  -25.2260  -12.0270   20.6630 C   0  0  0  0  0  0  0  0  0  0  0  0
  -26.9040  -13.2140   20.0480 N   0  0  0  0  0  0  0  0  0  0  0  0
  -26.4940  -11.9400   20.2810 N   0  0  0  0  0  0  0  0  0  0  0  0
  -24.4490  -10.7950   20.8440 C   0  0  0  0  0  0  0  0  0  0  0  0
  -24.8040   -9.8340   21.8150 C   0  0  0  0  0  3  0  0  0  0  0  0
  -24.0290   -8.6660   21.9830 C   0  0  0  0  0  3  0  0  0  0  0  0
  -22.8850   -8.4510   21.1780 C   0  0  0  0  0  0  0  0  0  0  0  0
  -22.5500   -9.4010   20.1960 C   0  0  0  0  0  3  0  0  0  0  0  0
  -23.3250  -10.5590   20.0270 C   0  0  0  0  0  3  0  0  0  0  0  0
  -22.0890   -7.3340   21.2520 O   0  0  0  0  0  0  0  0  0  0  0  0
  -21.8480   -6.7000   22.4450 C   0  0  0  0  0  0  0  0  0  0  0  0
  -21.2590   -7.3700   23.5390 C   0  0  0  0  0  3  0  0  0  0  0  0
  -20.9660   -6.6630   24.7230 C   0  0  0  0  0  3  0  0  0  0  0  0
  -21.2500   -5.2860   24.8100 C   0  0  0  0  0  0  0  0  0  0  0  0
  -21.8320   -4.6160   23.7200 C   0  0  0  0  0  3  0  0  0  0  0  0
  -22.1270   -5.3210   22.5390 C   0  0  0  0  0  0  0  0  0  0  0  0
  -22.6670   -4.6660   21.4830 F   0  0  0  0  0  0  0  0  0  0  0  0
  -20.9620   -4.6050   25.9440 F   0  0  0  0  0  0  0  0  0  0  0  0
  -23.4790  -13.9300   21.1390 C   0  0  0  0  0  0  0  0  0  0  0  0
  -22.7760  -13.2500   22.0380 N   0  0  0  0  0  0  0  0  0  0  0  0
  -23.0550  -14.9820   20.6650 O   0  0  0  0  0  0  0  0  0  0  0  0
  -23.1340  -12.3990   22.4470 H   0  0  0  0  0  0  0  0  0  0  0  0
  -21.8690  -13.5890   22.3270 H   0  0  0  0  0  0  0  0  0  0  0  0
  -26.1270  -15.4970   20.2130 N   0  0  0  0  0  0  0  0  0  0  0  0
  -25.3940  -16.1770   20.3850 H   0  0  0  0  0  0  0  0  0  0  0  0
  -26.9540  -15.9100   19.8030 H   0  0  0  0  0  0  0  0  0  0  0  0
  -28.7810  -23.2180   21.0340 C   0  0  0  0  0  2  0  0  0  0  0  0
  -28.9070  -24.3640   19.9910 C   0  0  0  0  0  2  0  0  0  0  0  0
  -28.6040  -25.7510   20.6320 C   0  0  0  0  0  2  0  0  0  0  0  0
  -28.5400  -26.8560   19.7110 O   0  0  0  0  0  0  0  0  0  0  0  0
  -24.5340  -31.7610   23.0030 C   0  0  0  0  0  0  0  0  0  0  0  0
  -27.3580  -27.5620   19.7490 C   0  0  0  0  0  0  0  0  0  0  0  0
  -23.3840  -30.3720   21.3110 C   0  0  0  0  0  3  0  0  0  0  0  0
  -24.9000  -28.9560   19.8240 C   0  0  0  0  0  0  0  0  0  0  0  0
  -25.8890  -30.8540   21.1160 C   0  0  0  0  0  2  0  0  0  0  0  0
  -26.0360  -29.5120   20.4260 C   0  0  0  0  0  0  0  0  0  0  0  0
  -27.2720  -28.8240   20.3850 C   0  0  0  0  0  3  0  0  0  0  0  0
  -26.2080  -27.0190   19.1430 C   0  0  0  0  0  3  0  0  0  0  0  0
  -24.9810  -27.7090   19.1780 C   0  0  0  0  0  3  0  0  0  0  0  0
  -23.6160  -29.7540   19.9050 C   0  0  0  0  0  2  0  0  0  0  0  0
  -24.6200  -31.0090   21.8690 N   0  0  0  0  0  0  0  0  0  0  0  0
  -23.4450  -31.9610   23.5590 O   0  0  0  0  0  0  0  0  0  0  0  0
  -22.7850  -29.2860   22.2350 C   0  0  0  0  0  0  0  0  0  0  0  0
  -21.4640  -29.0670   22.1240 N   0  0  0  0  0  0  0  0  0  0  0  0
  -23.5050  -28.6460   23.0050 O   0  0  0  0  0  0  0  0  0  0  0  0
  -20.9430  -29.6400   21.4740 H   0  0  0  0  0  0  0  0  0  0  0  0
  -18.1320  -27.7760   22.6620 C   0  0  0  0  0  0  0  0  0  0  0  0
  -20.6940  -28.0690   22.8630 C   0  0  0  0  0  3  0  0  0  0  0  0
  -20.8020  -26.6780   22.1970 C   0  0  0  0  0  2  0  0  0  0  0  0
  -19.6710  -26.3960   21.2030 C   0  0  0  0  0  2  0  0  0  0  0  0
  -18.3090  -26.4740   21.9000 C   0  0  0  0  0  2  0  0  0  0  0  0
  -19.2520  -28.5330   23.1010 C   0  0  0  0  0  0  0  0  0  0  0  0
  -19.0310  -29.7550   23.7730 C   0  0  0  0  0  3  0  0  0  0  0  0
  -17.7240  -30.2200   24.0120 C   0  0  0  0  0  3  0  0  0  0  0  0
  -16.6200  -29.4590   23.5890 C   0  0  0  0  0  3  0  0  0  0  0  0
  -16.8250  -28.2390   22.9190 C   0  0  0  0  0  3  0  0  0  0  0  0
  -25.7930  -32.4250   23.6430 C   0  0  0  0  0  3  0  0  0  0  0  0
  -26.3610  -31.6220   24.8770 C   0  0  1  0  0  0  0  0  0  0  0  0
  -25.2880  -31.2590   25.9290 C   0  0  0  0  0  1  0  0  0  0  0  0
  -27.0280  -30.3080   24.4080 C   0  0  0  0  0  1  0  0  0  0  0  0
  -27.4590  -32.4520   25.5810 C   0  0  0  0  0  1  0  0  0  0  0  0
  -25.4200  -33.7900   24.0380 N   0  0  0  0  0  0  0  0  0  0  0  0
  -25.6880  -34.8900   23.3230 C   0  0  0  0  0  0  0  0  0  0  0  0
  -26.3470  -34.8650   22.2790 O   0  0  0  0  0  0  0  0  0  0  0  0
  -24.8310  -33.8780   24.8530 H   0  0  0  0  0  0  0  0  0  0  0  0
  -23.8660  -36.6040   23.0720 C   0  0  0  0  0  1  0  0  0  0  0  0
  -25.1390  -36.2300   23.8470 C   0  0  0  0  0  3  0  0  0  0  0  0
  -27.2370  -37.1880   24.6890 C   0  0  0  0  0  1  0  0  0  0  0  0
  -26.1140  -37.3380   23.7670 N   0  0  0  0  0  0  0  0  0  0  0  0
  -25.6640  -38.2300   23.9580 H   0  0  0  0  0  0  0  0  0  0  0  0
  1  3  2  0
  2  1  1  0
  2 50  1  0
  4  2  1  0
  5  6  1  0
  7  9  1  0
  8  1  1  0
  8  5  2  0
  9 20  1  0
  9  6  2  0
 10  7  2  0
 10  8  1  0
 11 10  1  0
 12 20  1  0
 13 18  1  0
 14 15  1  0
 14 13  1  0
 16 15  1  0
 16 25  1  0
 16 17  1  0
 18 12  1  0
 18 17  1  0
 19 12  2  0
 20 21  1  0
 22 23  2  0
 23 42  1  0
 24 23  1  0
 24 27  1  0
 25 26  1  0
 25 22  1  0
 26 24  2  0
 27 28  1  0
 28 29  2  0
 30 33  1  0
 30 29  1  0
 31 30  2  0
 32 31  1  0
 32 27  2  0
 33 34  1  0
 34 39  2  0
 34 35  1  0
 35 36  2  0
 36 37  1  0
 37 41  1  0
 38 37  2  0
 39 38  1  0
 40 39  1  0
 42 43  1  0
 43 46  1  0
 43 45  1  0
 44 42  2  0
 47 22  1  0
 47 48  1  0
 49 47  1  0
 51 52  1  0
 51 50  1  0
 53 55  1  0
 53 52  1  0
 54 65  2  0
 55 60  1  0
 56 64  1  0
 56 66  1  0
 57 63  1  0
 57 59  1  0
 58 64  1  0
 59 58  1  0
 60 59  2  0
 61 62  1  0
 61 55  2  0
 62 57  2  0
 63 56  1  0
 64 54  1  0
 66 68  2  0
 67 66  1  0
 69 67  1  0
 70 79  2  0
 70 75  1  0
 71 67  1  0
 71 75  1  0
 72 71  1  0
 73 74  1  0
 73 72  1  0
 74 70  1  0
 75 76  2  0
 76 77  1  0
 78 77  2  0
 79 78  1  0
 80 54  1  0
 80 85  1  0
 80 81  1  0
 81 84  1  1
 81 82  1  0
 83 81  1  0
 85 88  1  0
 86 90  1  0
 86 85  1  0
 87 86  2  0
 90 89  1  0
 92 90  1  0
 92 93  1  0
 92 91  1  0
M  ISO  4  12 100  20 100  52 101  53 101
M  END
>  <TORSDO>  (5) 
F 20

>  <SCORE>  (5) 
-12.365

>  <name>  (5) 
4

>  <ligand_id>  (5) 
4

>  <original_smiles>  (5) 
[H]c1c([H])c([H])c2c(c1[H])C([H])([H])C([H])([H])C([H])([H])C2([H])N([H])C(=O)C1([H])N(C(=O)C([H])(N([H])C(=O)C([H])(N([H])C([H])([H])[H])C([H])([H])[H])C(C([H])([H])[H])(C([H])([H])[H])C([H])([H])[H])C([H])([H])c2c([H])c(OC([H])([H])C([H])([H])C([H])([H])N([H])C(=O)c3c([H])c([H])c(N([H])C(=O)N4C([H])([H])C([H])([H])C([H])([H])C([H])(n5nc(-c6c([H])c([H])c(Oc7c([H])c([H])c(F)c([H])c7F)c([H])c6[H])c(C(=O)N([H])[H])c5N([H])[H])C4([H])[H])c([H])c3F)c([H])c([H])c2C1([H])[H]

>  <smiles>  (5) 
[H]c1c([H])c([H])c2c(c1[H])C([H])([H])C([H])([H])C([H])([H])C2([H])N([H])C(=O)C1([H])N(C(=O)C([H])(N([H])C(=O)C([H])(N([H])C([H])([H])[H])C([H])([H])[H])C(C([H])([H])[H])(C([H])([H])[H])C([H])([H])[H])C([H])([H])c2c([H])c(OC([H])([H])C([H])([H])C([H])([H])N([H])C(=O)c3c([H])c([H])c(N([H])C(=O)N4C([H])([H])C([H])([H])C([H])([H])C([H])(n5nc(-c6c([H])c([H])c(Oc7c([H])c([H])c(F)c([H])c7F)c([H])c6[H])c(C(=O)N([H])[H])c5N([H])[H])C4([H])[H])c([H])c3F)c([H])c([H])c2C1([H])[H]

$$$$
5:0:0
     RDKit          3D

 96105  0  0  1  0  0  0  0  0999 V2000
  -28.6150  -18.0640   18.0930 C   0  0  0  0  0  3  0  0  0  0  0  0
  -29.1740  -16.9970   18.8130 C   0  0  0  0  0  3  0  0  0  0  0  0
  -29.9460  -18.6210   20.4360 C   0  0  0  0  0  3  0  0  0  0  0  0
  -28.7080  -19.4210   18.4960 C   0  0  0  0  0  0  0  0  0  0  0  0
  -29.8300  -17.2200   20.0350 C   0  0  0  0  0  0  0  0  0  0  0  0
  -29.4320  -19.7710   19.6920 C   0  0  0  0  0  0  0  0  0  0  0  0
  -30.9010  -14.8950   20.3080 C   0  0  0  0  0  0  0  0  0  0  0  0
  -30.6330  -12.6390   19.2600 C   0  0  0  0  0  2  0  0  0  0  0  0
  -29.6810  -12.7120   18.0460 C   0  0  0  0  0  2  0  0  0  0  0  0
  -28.2170  -12.5540   18.4970 C   0  0  0  0  0  2  0  0  0  0  0  0
  -27.8660  -13.4400   19.7220 C   0  0  0  0  0  3  0  0  0  0  0  0
  -28.9380  -13.3530   20.8290 C   0  0  0  0  0  2  0  0  0  0  0  0
  -30.2280  -13.6960   20.2180 N   0  0  0  0  0  0  0  0  0  0  0  0
  -32.0510  -14.9830   19.8670 O   0  0  0  0  0  0  0  0  0  0  0  0
  -30.4770  -16.2290   22.2520 C   0  0  0  0  0  1  0  0  0  0  0  0
  -30.2680  -16.0290   20.8170 N   0  0  0  0  0  0  0  0  0  0  0  0
  -25.4900  -14.0340   20.4820 C   0  0  0  0  0  0  0  0  0  0  0  0
  -24.4250  -13.2620   20.8510 C   0  0  0  0  0  0  0  0  0  0  0  0
  -24.8800  -11.9080   20.8020 C   0  0  0  0  0  0  0  0  0  0  0  0
  -26.5270  -13.1520   20.2260 N   0  0  0  0  0  0  0  0  0  0  0  0
  -26.1670  -11.8680   20.4810 N   0  0  0  0  0  0  0  0  0  0  0  0
  -24.1490  -10.6460   20.9820 C   0  0  0  0  0  0  0  0  0  0  0  0
  -24.5530   -9.6880   21.9380 C   0  0  0  0  0  3  0  0  0  0  0  0
  -23.8200   -8.4930   22.1060 C   0  0  0  0  0  3  0  0  0  0  0  0
  -22.6710   -8.2470   21.3180 C   0  0  0  0  0  0  0  0  0  0  0  0
  -22.2890   -9.1950   20.3510 C   0  0  0  0  0  3  0  0  0  0  0  0
  -23.0220  -10.3810   20.1820 C   0  0  0  0  0  3  0  0  0  0  0  0
  -21.9130   -7.1030   21.3940 O   0  0  0  0  0  0  0  0  0  0  0  0
  -21.7800   -6.4050   22.5670 C   0  0  0  0  0  0  0  0  0  0  0  0
  -21.2290   -6.9920   23.7260 C   0  0  0  0  0  3  0  0  0  0  0  0
  -21.0470   -6.2180   24.8900 C   0  0  0  0  0  3  0  0  0  0  0  0
  -21.4070   -4.8580   24.8950 C   0  0  0  0  0  0  0  0  0  0  0  0
  -21.9520   -4.2700   23.7400 C   0  0  0  0  0  3  0  0  0  0  0  0
  -22.1360   -5.0410   22.5790 C   0  0  0  0  0  0  0  0  0  0  0  0
  -22.6410   -4.4630   21.4630 F   0  0  0  0  0  0  0  0  0  0  0  0
  -21.2270   -4.1120   26.0110 F   0  0  0  0  0  0  0  0  0  0  0  0
  -23.0320  -13.7430   21.1420 C   0  0  0  0  0  0  0  0  0  0  0  0
  -22.3120  -13.0390   22.0080 N   0  0  0  0  0  0  0  0  0  0  0  0
  -22.5940  -14.7750   20.6370 O   0  0  0  0  0  0  0  0  0  0  0  0
  -22.6780  -12.2020   22.4340 H   0  0  0  0  0  0  0  0  0  0  0  0
  -21.3800  -13.3450   22.2490 H   0  0  0  0  0  0  0  0  0  0  0  0
  -25.6630  -15.4070   20.3200 N   0  0  0  0  0  0  0  0  0  0  0  0
  -24.9110  -16.0700   20.4720 H   0  0  0  0  0  0  0  0  0  0  0  0
  -26.5300  -15.8460   20.0420 H   0  0  0  0  0  0  0  0  0  0  0  0
  -28.0040  -20.3920   17.5370 C   0  0  0  0  0  2  0  0  0  0  0  0
  -24.6400  -21.4110   18.8840 C   0  0  0  0  0  2  0  0  0  0  0  0
  -24.8940  -22.4720   17.8060 C   0  0  0  0  0  2  0  0  0  0  0  0
  -25.7950  -20.4130   18.7440 C   0  0  0  0  0  2  0  0  0  0  0  0
  -26.2950  -22.1730   17.2510 C   0  0  0  0  0  2  0  0  0  0  0  0
  -26.9140  -21.1870   18.1650 N   0  0  2  0  0  4  0  0  0  0  0  0
  -27.3140  -21.7060   18.9300 H   0  0  0  0  0  0  0  0  0  0  0  0
  -29.6850  -21.1050   20.1820 O   0  0  0  0  0  0  0  0  0  0  0  0
  -29.0660  -22.3870   19.7030 C   0  0  0  0  0  3  0  0  0  0  0  0
  -29.3430  -23.8430   20.3670 C   0  0  0  0  0  3  0  0  0  0  0  0
  -28.3540  -25.0650   19.9690 C   0  0  0  0  0  2  0  0  0  0  0  0
  -28.5410  -26.5080   20.3730 O   0  0  0  0  0  0  0  0  0  0  0  0
  -24.6900  -31.9330   23.3060 C   0  0  0  0  0  0  0  0  0  0  0  0
  -27.4390  -27.3940   20.2790 C   0  0  0  0  0  0  0  0  0  0  0  0
  -23.5500  -30.5210   21.6350 C   0  0  0  0  0  3  0  0  0  0  0  0
  -25.0590  -29.0110   20.2230 C   0  0  0  0  0  0  0  0  0  0  0  0
  -26.0910  -30.8750   21.5130 C   0  0  0  0  0  2  0  0  0  0  0  0
  -26.2090  -29.4980   20.8580 C   0  0  0  0  0  0  0  0  0  0  0  0
  -27.4020  -28.7020   20.8780 C   0  0  0  0  0  3  0  0  0  0  0  0
  -26.2630  -26.9880   19.6040 C   0  0  0  0  0  3  0  0  0  0  0  0
  -25.0910  -27.7640   19.5850 C   0  0  0  0  0  3  0  0  0  0  0  0
  -23.8100  -29.8690   20.2520 C   0  0  0  0  0  2  0  0  0  0  0  0
  -24.7950  -31.1290   22.2070 N   0  0  0  0  0  0  0  0  0  0  0  0
  -23.5900  -32.1890   23.8180 O   0  0  0  0  0  0  0  0  0  0  0  0
  -22.8860  -29.4840   22.5740 C   0  0  0  0  0  0  0  0  0  0  0  0
  -21.5640  -29.2880   22.4200 N   0  0  0  0  0  0  0  0  0  0  0  0
  -23.5580  -28.8640   23.4020 O   0  0  0  0  0  0  0  0  0  0  0  0
  -21.0810  -29.8420   21.7250 H   0  0  0  0  0  0  0  0  0  0  0  0
  -18.1910  -28.0510   22.8640 C   0  0  0  0  0  0  0  0  0  0  0  0
  -20.7440  -28.3320   23.1670 C   0  0  0  0  0  3  0  0  0  0  0  0
  -20.8660  -26.9100   22.5700 C   0  0  0  0  0  2  0  0  0  0  0  0
  -19.7790  -26.5920   21.5390 C   0  0  0  0  0  2  0  0  0  0  0  0
  -18.3880  -26.7140   22.1690 C   0  0  0  0  0  2  0  0  0  0  0  0
  -19.2970  -28.8180   23.3170 C   0  0  0  0  0  0  0  0  0  0  0  0
  -19.0590  -30.0690   23.9260 C   0  0  0  0  0  3  0  0  0  0  0  0
  -17.7470  -30.5550   24.0850 C   0  0  0  0  0  3  0  0  0  0  0  0
  -16.6550  -29.7850   23.6490 C   0  0  0  0  0  3  0  0  0  0  0  0
  -16.8780  -28.5340   23.0450 C   0  0  0  0  0  3  0  0  0  0  0  0
  -25.9460  -32.5880   23.9590 C   0  0  0  0  0  3  0  0  0  0  0  0
  -25.6170  -33.9930   24.2420 N   0  0  0  0  0  0  0  0  0  0  0  0
  -25.9450  -35.0260   23.4540 C   0  0  0  0  0  0  0  0  0  0  0  0
  -26.6220  -34.8980   22.4310 O   0  0  0  0  0  0  0  0  0  0  0  0
  -25.0140  -34.1640   25.0340 H   0  0  0  0  0  0  0  0  0  0  0  0
  -24.1900  -36.7820   23.0490 C   0  0  0  0  0  1  0  0  0  0  0  0
  -25.4410  -36.4230   23.8670 C   0  0  0  0  0  3  0  0  0  0  0  0
  -27.5630  -37.3690   24.6610 C   0  0  0  0  0  1  0  0  0  0  0  0
  -26.4580  -37.4850   23.7140 N   0  0  0  0  0  0  0  0  0  0  0  0
  -26.0390  -38.4050   23.8290 H   0  0  0  0  0  0  0  0  0  0  0  0
  -26.4150  -31.8520   25.2740 C   0  0  1  0  0  0  0  0  0  0  0  0
  -25.2780  -31.6290   26.3000 C   0  0  0  0  0  1  0  0  0  0  0  0
  -27.0260  -30.4710   24.9410 C   0  0  0  0  0  1  0  0  0  0  0  0
  -27.5320  -32.6730   25.9630 C   0  0  0  0  0  1  0  0  0  0  0  0
  1  4  2  0
  1  2  1  0
  2  5  2  0
  4  6  1  0
  5  3  1  0
  5 16  1  0
  6 52  1  0
  6  3  2  0
  7 16  1  0
  8 13  1  0
  9 10  1  0
  9  8  1  0
 11 10  1  0
 11 20  1  0
 11 12  1  0
 13  7  1  0
 13 12  1  0
 14  7  2  0
 16 15  1  0
 17 18  2  0
 18 37  1  0
 19 18  1  0
 19 22  1  0
 20 21  1  0
 20 17  1  0
 21 19  2  0
 22 23  1  0
 23 24  2  0
 25 28  1  0
 25 24  1  0
 26 25  2  0
 27 26  1  0
 27 22  2  0
 28 29  1  0
 29 34  2  0
 29 30  1  0
 30 31  2  0
 31 32  1  0
 32 36  1  0
 33 32  2  0
 34 33  1  0
 35 34  1  0
 37 38  1  0
 38 41  1  0
 38 40  1  0
 39 37  2  0
 42 43  1  0
 42 17  1  0
 44 42  1  0
 45 50  1  0
 45  4  1  0
 47 46  1  0
 48 46  1  0
 49 47  1  0
 49 50  1  0
 50 48  1  0
 50 51  1  1
 53 52  1  0
 53 54  2  0
 55 54  1  0
 55 56  1  0
 57 68  2  0
 58 56  1  0
 58 63  1  0
 59 67  1  0
 59 69  1  0
 60 66  1  0
 60 62  1  0
 61 67  1  0
 62 63  2  0
 62 61  1  0
 64 58  2  0
 65 64  1  0
 65 60  2  0
 66 59  1  0
 67 57  1  0
 69 71  2  0
 70 69  1  0
 72 70  1  0
 73 82  2  0
 73 78  1  0
 74 70  1  0
 74 78  1  0
 75 74  1  0
 76 77  1  0
 76 75  1  0
 77 73  1  0
 78 79  2  0
 79 80  1  0
 81 80  2  0
 82 81  1  0
 83 57  1  0
 83 84  1  0
 83 93  1  0
 84 87  1  0
 85 89  1  0
 85 84  1  0
 86 85  2  0
 89 88  1  0
 91 92  1  0
 91 89  1  0
 91 90  1  0
 93 96  1  1
 93 94  1  0
 95 93  1  0
M  ISO  4   7 100  16 100  55 101  56 101
M  END
>  <TORSDO>  (6) 
F 22

>  <SCORE>  (6) 
-12.435

>  <name>  (6) 
5

>  <ligand_id>  (6) 
5

>  <original_smiles>  (6) 
[H]c1c([H])c([H])c2c(c1[H])C([H])([H])C([H])([H])C([H])([H])C2([H])N([H])C(=O)C1([H])N(C(=O)C([H])(N([H])C(=O)C([H])(N([H])C([H])([H])[H])C([H])([H])[H])C(C([H])([H])[H])(C([H])([H])[H])C([H])([H])[H])C([H])([H])c2c([H])c(OC([H])([H])C([H])([H])C([H])([H])Oc3c([H])c(N(C(=O)N4C([H])([H])C([H])([H])C([H])([H])C([H])(n5nc(-c6c([H])c([H])c(Oc7c([H])c([H])c(F)c([H])c7F)c([H])c6[H])c(C(=O)N([H])[H])c5N([H])[H])C4([H])[H])C([H])([H])[H])c([H])c([H])c3C([H])([H])[N+]3([H])C([H])([H])C([H])([H])C([H])([H])C3([H])[H])c([H])c([H])c2C1([H])[H]

>  <smiles>  (6) 
[H]c1c([H])c([H])c2c(c1[H])C([H])([H])C([H])([H])C([H])([H])C2([H])N([H])C(=O)C1([H])N(C(=O)C([H])(N([H])C(=O)C([H])(N([H])C([H])([H])[H])C([H])([H])[H])C(C([H])([H])[H])(C([H])([H])[H])C([H])([H])[H])C([H])([H])c2c([H])c(OC([H])([H])C([H])([H])C([H])([H])Oc3c([H])c(N(C(=O)N4C([H])([H])C([H])([H])C([H])([H])C([H])(n5nc(-c6c([H])c([H])c(Oc7c([H])c([H])c(F)c([H])c7F)c([H])c6[H])c(C(=O)N([H])[H])c5N([H])[H])C4([H])[H])C([H])([H])[H])c([H])c([H])c3C([H])([H])[N+]3([H])C([H])([H])C([H])([H])C([H])([H])C3([H])[H])c([H])c([H])c2C1([H])[H]

$$$$
6:0:0
     RDKit          3D

 91100  0  0  1  0  0  0  0  0999 V2000
  -28.5660  -24.2560   18.4970 C   0  0  0  0  0  2  0  0  0  0  0  0
  -28.6490  -22.6860   18.4460 C   0  0  0  0  0  2  0  0  0  0  0  0
  -28.9140  -23.4090   20.6720 C   0  0  0  0  0  2  0  0  0  0  0  0
  -28.1800  -24.6880   19.9240 C   0  0  0  0  0  3  0  0  0  0  0  0
  -29.0030  -22.1640   19.7730 N   0  0  0  0  0  0  0  0  0  0  0  0
  -29.5630  -20.0730   21.2400 C   0  0  0  0  0  3  0  0  0  0  0  0
  -29.8430  -18.6550   21.4150 C   0  0  0  0  0  3  0  0  0  0  0  0
  -29.4340  -19.7160   18.9330 C   0  0  0  0  0  3  0  0  0  0  0  0
  -29.3270  -20.7120   19.9820 C   0  0  0  0  0  0  0  0  0  0  0  0
  -29.9550  -17.6530   20.3710 C   0  0  0  0  0  0  0  0  0  0  0  0
  -29.7320  -18.2900   19.1010 C   0  0  0  0  0  0  0  0  0  0  0  0
  -29.7710  -17.5120   17.9920 F   0  0  0  0  0  0  0  0  0  0  0  0
  -30.7430  -15.0480   19.9240 C   0  0  0  0  0  0  0  0  0  0  0  0
  -30.5260  -12.7220   18.8960 C   0  0  0  0  0  2  0  0  0  0  0  0
  -29.5010  -12.7250   17.7370 C   0  0  0  0  0  2  0  0  0  0  0  0
  -28.0760  -12.4890   18.2750 C   0  0  0  0  0  2  0  0  0  0  0  0
  -27.7710  -13.3590   19.5210 C   0  0  0  0  0  3  0  0  0  0  0  0
  -28.9140  -13.3210   20.5550 C   0  0  0  0  0  2  0  0  0  0  0  0
  -30.1390  -13.7810   19.8790 N   0  0  0  0  0  0  0  0  0  0  0  0
  -31.8190  -15.1670   19.3250 O   0  0  0  0  0  0  0  0  0  0  0  0
  -30.2790  -15.8570   22.1150 C   0  0  0  0  0  1  0  0  0  0  0  0
  -30.1950  -16.1420   20.6690 N   0  0  0  0  0  0  0  0  0  0  0  0
  -25.4870  -13.8990   20.5380 C   0  0  0  0  0  0  0  0  0  0  0  0
  -24.4560  -13.1090   20.9660 C   0  0  0  0  0  0  0  0  0  0  0  0
  -24.8950  -11.7610   20.7950 C   0  0  0  0  0  0  0  0  0  0  0  0
  -26.4840  -13.0340   20.1260 N   0  0  0  0  0  0  0  0  0  0  0  0
  -26.1450  -11.7350   20.3430 N   0  0  0  0  0  0  0  0  0  0  0  0
  -24.1730  -10.4930   20.9780 C   0  0  0  0  0  0  0  0  0  0  0  0
  -24.6150   -9.5150   21.8950 C   0  0  0  0  0  3  0  0  0  0  0  0
  -23.8910   -8.3140   22.0650 C   0  0  0  0  0  3  0  0  0  0  0  0
  -22.7110   -8.0860   21.3180 C   0  0  0  0  0  0  0  0  0  0  0  0
  -22.2860   -9.0550   20.3930 C   0  0  0  0  0  3  0  0  0  0  0  0
  -23.0110  -10.2450   20.2200 C   0  0  0  0  0  3  0  0  0  0  0  0
  -21.9590   -6.9370   21.3990 O   0  0  0  0  0  0  0  0  0  0  0  0
  -21.8240   -6.2460   22.5760 C   0  0  0  0  0  0  0  0  0  0  0  0
  -21.2810   -6.8450   23.7340 C   0  0  0  0  0  3  0  0  0  0  0  0
  -21.0960   -6.0800   24.9010 C   0  0  0  0  0  3  0  0  0  0  0  0
  -21.4420   -4.7150   24.9110 C   0  0  0  0  0  0  0  0  0  0  0  0
  -21.9770   -4.1150   23.7580 C   0  0  0  0  0  3  0  0  0  0  0  0
  -22.1650   -4.8790   22.5920 C   0  0  0  0  0  0  0  0  0  0  0  0
  -22.6610   -4.2910   21.4770 F   0  0  0  0  0  0  0  0  0  0  0  0
  -21.2570   -3.9770   26.0310 F   0  0  0  0  0  0  0  0  0  0  0  0
  -23.1020  -13.5800   21.4150 C   0  0  0  0  0  0  0  0  0  0  0  0
  -22.4750  -12.8540   22.3330 N   0  0  0  0  0  0  0  0  0  0  0  0
  -22.6160  -14.6250   20.9860 O   0  0  0  0  0  0  0  0  0  0  0  0
  -22.8860  -12.0100   22.7060 H   0  0  0  0  0  0  0  0  0  0  0  0
  -21.5690  -13.1480   22.6700 H   0  0  0  0  0  0  0  0  0  0  0  0
  -25.6520  -15.2780   20.4420 N   0  0  0  0  0  0  0  0  0  0  0  0
  -24.9180  -15.9300   20.6970 H   0  0  0  0  0  0  0  0  0  0  0  0
  -26.4780  -15.7350   20.0750 H   0  0  0  0  0  0  0  0  0  0  0  0
  -28.3570  -26.2230   20.1930 O   0  0  0  0  0  0  0  0  0  0  0  0
  -24.7170  -31.8330   23.2870 C   0  0  0  0  0  0  0  0  0  0  0  0
  -27.2900  -27.1960   20.1300 C   0  0  0  0  0  0  0  0  0  0  0  0
  -23.5090  -30.4710   21.6230 C   0  0  0  0  0  3  0  0  0  0  0  0
  -24.9520  -28.9340   20.1510 C   0  0  0  0  0  0  0  0  0  0  0  0
  -26.0610  -30.7460   21.4480 C   0  0  0  0  0  2  0  0  0  0  0  0
  -26.1330  -29.3700   20.7650 C   0  0  0  0  0  0  0  0  0  0  0  0
  -27.2990  -28.5160   20.7410 C   0  0  0  0  0  3  0  0  0  0  0  0
  -26.0870  -26.8690   19.4660 C   0  0  0  0  0  3  0  0  0  0  0  0
  -24.9430  -27.6980   19.4840 C   0  0  0  0  0  3  0  0  0  0  0  0
  -23.7230  -29.8250   20.2280 C   0  0  0  0  0  2  0  0  0  0  0  0
  -24.7820  -31.0370   22.1750 N   0  0  0  0  0  0  0  0  0  0  0  0
  -23.6350  -32.1030   23.8290 O   0  0  0  0  0  0  0  0  0  0  0  0
  -22.8400  -29.4420   22.5690 C   0  0  0  0  0  0  0  0  0  0  0  0
  -21.5140  -29.2590   22.4400 N   0  0  0  0  0  0  0  0  0  0  0  0
  -23.5180  -28.8100   23.3830 O   0  0  0  0  0  0  0  0  0  0  0  0
  -21.0220  -29.8230   21.7610 H   0  0  0  0  0  0  0  0  0  0  0  0
  -18.1460  -28.0130   22.9240 C   0  0  0  0  0  0  0  0  0  0  0  0
  -20.7030  -28.3010   23.1960 C   0  0  0  0  0  3  0  0  0  0  0  0
  -20.8190  -26.8790   22.5990 C   0  0  0  0  0  2  0  0  0  0  0  0
  -19.7210  -26.5600   21.5780 C   0  0  0  0  0  2  0  0  0  0  0  0
  -18.3380  -26.6790   22.2250 C   0  0  0  0  0  2  0  0  0  0  0  0
  -19.2560  -28.7820   23.3660 C   0  0  0  0  0  0  0  0  0  0  0  0
  -19.0210  -30.0300   23.9830 C   0  0  0  0  0  3  0  0  0  0  0  0
  -17.7110  -30.5110   24.1620 C   0  0  0  0  0  3  0  0  0  0  0  0
  -16.6150  -29.7410   23.7340 C   0  0  0  0  0  3  0  0  0  0  0  0
  -16.8350  -28.4940   23.1200 C   0  0  0  0  0  3  0  0  0  0  0  0
  -25.9980  -32.4590   23.9180 C   0  0  0  0  0  3  0  0  0  0  0  0
  -25.6980  -33.8610   24.2470 N   0  0  0  0  0  0  0  0  0  0  0  0
  -26.0150  -34.9130   23.4790 C   0  0  0  0  0  0  0  0  0  0  0  0
  -26.6580  -34.8030   22.4320 O   0  0  0  0  0  0  0  0  0  0  0  0
  -25.1270  -34.0210   25.0640 H   0  0  0  0  0  0  0  0  0  0  0  0
  -24.2740  -36.7060   23.1780 C   0  0  0  0  0  1  0  0  0  0  0  0
  -25.5460  -36.3060   23.9440 C   0  0  0  0  0  3  0  0  0  0  0  0
  -27.7070  -37.2050   24.6870 C   0  0  0  0  0  1  0  0  0  0  0  0
  -26.5730  -37.3590   23.7790 N   0  0  0  0  0  0  0  0  0  0  0  0
  -26.1700  -38.2810   23.9270 H   0  0  0  0  0  0  0  0  0  0  0  0
  -26.4950  -31.6880   25.2040 C   0  0  1  0  0  0  0  0  0  0  0  0
  -25.3920  -31.4670   26.2640 C   0  0  0  0  0  1  0  0  0  0  0  0
  -27.0670  -30.3020   24.8300 C   0  0  0  0  0  1  0  0  0  0  0  0
  -27.6490  -32.4730   25.8710 C   0  0  0  0  0  1  0  0  0  0  0  0
  1  4  1  0
  2  1  1  0
  2  5  1  0
  4 51  1  0
  4  3  1  0
  5  9  1  0
  5  3  1  0
  6  7  1  0
  8 11  2  0
  8  9  1  0
  9  6  2  0
 10 22  1  0
 10  7  2  0
 11 10  1  0
 12 11  1  0
 13 22  1  0
 14 19  1  0
 15 16  1  0
 15 14  1  0
 17 16  1  0
 17 26  1  0
 17 18  1  0
 19 13  1  0
 19 18  1  0
 20 13  2  0
 22 21  1  0
 23 24  2  0
 24 43  1  0
 25 24  1  0
 25 28  1  0
 26 27  1  0
 26 23  1  0
 27 25  2  0
 28 29  1  0
 29 30  2  0
 31 34  1  0
 31 30  1  0
 32 31  2  0
 33 32  1  0
 33 28  2  0
 34 35  1  0
 35 40  2  0
 35 36  1  0
 36 37  2  0
 37 38  1  0
 38 42  1  0
 39 38  2  0
 40 39  1  0
 41 40  1  0
 43 44  1  0
 44 47  1  0
 44 46  1  0
 45 43  2  0
 48 23  1  0
 48 49  1  0
 50 48  1  0
 52 63  2  0
 53 51  1  0
 53 58  1  0
 54 62  1  0
 54 64  1  0
 55 61  1  0
 55 57  1  0
 56 62  1  0
 57 56  1  0
 58 57  2  0
 59 60  1  0
 59 53  2  0
 60 55  2  0
 61 54  1  0
 62 52  1  0
 64 66  2  0
 65 64  1  0
 67 65  1  0
 68 77  2  0
 68 73  1  0
 69 65  1  0
 69 73  1  0
 70 69  1  0
 71 72  1  0
 71 70  1  0
 72 68  1  0
 73 74  2  0
 74 75  1  0
 76 75  2  0
 77 76  1  0
 78 52  1  0
 78 79  1  0
 78 88  1  0
 79 82  1  0
 80 84  1  0
 80 79  1  0
 81 80  2  0
 84 83  1  0
 86 87  1  0
 86 84  1  0
 86 85  1  0
 88 91  1  1
 88 89  1  0
 90 88  1  0
M  ISO  4   4 101  13 100  22 100  51 101
M  END
>  <TORSDO>  (7) 
F 17

>  <SCORE>  (7) 
-13.924

>  <name>  (7) 
6

>  <ligand_id>  (7) 
6

>  <original_smiles>  (7) 
[H]c1c([H])c([H])c2c(c1[H])C([H])([H])C([H])([H])C([H])([H])C2([H])N([H])C(=O)C1([H])N(C(=O)C([H])(N([H])C(=O)C([H])(N([H])C([H])([H])[H])C([H])([H])[H])C(C([H])([H])[H])(C([H])([H])[H])C([H])([H])[H])C([H])([H])c2c([H])c(OC3([H])C([H])([H])N(c4c([H])c([H])c(N(C(=O)N5C([H])([H])C([H])([H])C([H])([H])C([H])(n6nc(-c7c([H])c([H])c(Oc8c([H])c([H])c(F)c([H])c8F)c([H])c7[H])c(C(=O)N([H])[H])c6N([H])[H])C5([H])[H])C([H])([H])[H])c(F)c4[H])C([H])([H])C3([H])[H])c([H])c([H])c2C1([H])[H]

>  <smiles>  (7) 
[H]c1c([H])c([H])c2c(c1[H])C([H])([H])C([H])([H])C([H])([H])C2([H])N([H])C(=O)C1([H])N(C(=O)C([H])(N([H])C(=O)C([H])(N([H])C([H])([H])[H])C([H])([H])[H])C(C([H])([H])[H])(C([H])([H])[H])C([H])([H])[H])C([H])([H])c2c([H])c(OC3([H])C([H])([H])N(c4c([H])c([H])c(N(C(=O)N5C([H])([H])C([H])([H])C([H])([H])C([H])(n6nc(-c7c([H])c([H])c(Oc8c([H])c([H])c(F)c([H])c8F)c([H])c7[H])c(C(=O)N([H])[H])c6N([H])[H])C5([H])[H])C([H])([H])[H])c(F)c4[H])C([H])([H])C3([H])[H])c([H])c([H])c2C1([H])[H]

$$$$
7:0:0
     RDKit          3D

 91 99  0  0  1  0  0  0  0  0999 V2000
  -28.7890  -23.3220   20.3000 C   0  0  0  0  0  0  0  0  0  0  0  0
  -29.8380  -22.7400   18.2050 C   0  0  0  0  0  1  0  0  0  0  0  0
  -29.3070  -22.2610   19.4920 N   0  0  0  0  0  0  0  0  0  0  0  0
  -28.8090  -23.1920   21.5290 O   0  0  0  0  0  0  0  0  0  0  0  0
  -30.2670  -19.8830   18.8230 C   0  0  0  0  0  3  0  0  0  0  0  0
  -30.4440  -18.4420   18.9310 C   0  0  0  0  0  3  0  0  0  0  0  0
  -28.9980  -19.9250   20.7960 C   0  0  0  0  0  3  0  0  0  0  0  0
  -29.5320  -20.7380   19.7370 C   0  0  0  0  0  0  0  0  0  0  0  0
  -29.8780  -17.6420   19.9710 C   0  0  0  0  0  0  0  0  0  0  0  0
  -29.1460  -18.4750   20.8950 C   0  0  0  0  0  0  0  0  0  0  0  0
  -28.5320  -17.8530   21.9300 F   0  0  0  0  0  0  0  0  0  0  0  0
  -30.6280  -15.0050   19.6180 C   0  0  0  0  0  0  0  0  0  0  0  0
  -30.3960  -12.6980   18.5940 C   0  0  0  0  0  2  0  0  0  0  0  0
  -29.3160  -12.7370   17.4850 C   0  0  0  0  0  2  0  0  0  0  0  0
  -27.9110  -12.5170   18.0780 C   0  0  0  0  0  2  0  0  0  0  0  0
  -27.6670  -13.3700   19.3500 C   0  0  0  0  0  3  0  0  0  0  0  0
  -28.8520  -13.2980   20.3380 C   0  0  0  0  0  2  0  0  0  0  0  0
  -30.0530  -13.7340   19.6110 N   0  0  0  0  0  0  0  0  0  0  0  0
  -31.7470  -15.1300   19.1090 O   0  0  0  0  0  0  0  0  0  0  0  0
  -29.8790  -16.1100   20.0920 N   0  0  0  0  0  0  0  0  0  0  0  0
  -29.1010  -15.7900   20.6460 H   0  0  0  0  0  0  0  0  0  0  0  0
  -25.4090  -13.9220   20.4230 C   0  0  0  0  0  0  0  0  0  0  0  0
  -24.3830  -13.1360   20.8690 C   0  0  0  0  0  0  0  0  0  0  0  0
  -24.8070  -11.7850   20.6760 C   0  0  0  0  0  0  0  0  0  0  0  0
  -26.3940  -13.0530   19.9880 N   0  0  0  0  0  0  0  0  0  0  0  0
  -26.0470  -11.7570   20.2000 N   0  0  0  0  0  0  0  0  0  0  0  0
  -24.0810  -10.5220   20.8630 C   0  0  0  0  0  0  0  0  0  0  0  0
  -24.5540   -9.5200   21.7370 C   0  0  0  0  0  3  0  0  0  0  0  0
  -23.8270   -8.3220   21.9140 C   0  0  0  0  0  3  0  0  0  0  0  0
  -22.6120   -8.1190   21.2180 C   0  0  0  0  0  0  0  0  0  0  0  0
  -22.1570   -9.1110   20.3320 C   0  0  0  0  0  3  0  0  0  0  0  0
  -22.8840  -10.3000   20.1510 C   0  0  0  0  0  3  0  0  0  0  0  0
  -21.8520   -6.9780   21.3080 O   0  0  0  0  0  0  0  0  0  0  0  0
  -21.7860   -6.2470   22.4680 C   0  0  0  0  0  0  0  0  0  0  0  0
  -21.3360   -6.8130   23.6800 C   0  0  0  0  0  3  0  0  0  0  0  0
  -21.2170   -6.0090   24.8320 C   0  0  0  0  0  3  0  0  0  0  0  0
  -21.5370   -4.6390   24.7700 C   0  0  0  0  0  0  0  0  0  0  0  0
  -21.9790   -4.0730   23.5620 C   0  0  0  0  0  3  0  0  0  0  0  0
  -22.1000   -4.8740   22.4130 C   0  0  0  0  0  0  0  0  0  0  0  0
  -22.5060   -4.3180   21.2460 F   0  0  0  0  0  0  0  0  0  0  0  0
  -21.4160   -3.8640   25.8730 F   0  0  0  0  0  0  0  0  0  0  0  0
  -23.0430  -13.6100   21.3530 C   0  0  0  0  0  0  0  0  0  0  0  0
  -22.4260  -12.8740   22.2700 N   0  0  0  0  0  0  0  0  0  0  0  0
  -22.5570  -14.6670   20.9530 O   0  0  0  0  0  0  0  0  0  0  0  0
  -22.8350  -12.0180   22.6160 H   0  0  0  0  0  0  0  0  0  0  0  0
  -21.5320  -13.1730   22.6350 H   0  0  0  0  0  0  0  0  0  0  0  0
  -25.5800  -15.3010   20.3290 N   0  0  0  0  0  0  0  0  0  0  0  0
  -24.8450  -15.9520   20.5800 H   0  0  0  0  0  0  0  0  0  0  0  0
  -26.3830  -15.7540   19.9140 H   0  0  0  0  0  0  0  0  0  0  0  0
  -28.0570  -24.7110   19.7230 C   0  0  0  0  0  2  0  0  0  0  0  0
  -28.2580  -26.1630   20.2560 O   0  0  0  0  0  0  0  0  0  0  0  0
  -24.5040  -31.7840   23.1970 C   0  0  0  0  0  0  0  0  0  0  0  0
  -27.2080  -27.1530   20.1460 C   0  0  0  0  0  0  0  0  0  0  0  0
  -23.3580  -30.3970   21.5130 C   0  0  0  0  0  3  0  0  0  0  0  0
  -24.8590  -28.8730   20.0880 C   0  0  0  0  0  0  0  0  0  0  0  0
  -25.9110  -30.7000   21.4070 C   0  0  0  0  0  2  0  0  0  0  0  0
  -26.0180  -29.3210   20.7330 C   0  0  0  0  0  0  0  0  0  0  0  0
  -27.1910  -28.4750   20.7510 C   0  0  0  0  0  3  0  0  0  0  0  0
  -26.0260  -26.8240   19.4400 C   0  0  0  0  0  3  0  0  0  0  0  0
  -24.8770  -27.6390   19.4260 C   0  0  0  0  0  3  0  0  0  0  0  0
  -23.6160  -29.7480   20.1280 C   0  0  0  0  0  2  0  0  0  0  0  0
  -24.6090  -30.9820   22.0940 N   0  0  0  0  0  0  0  0  0  0  0  0
  -23.4030  -32.0460   23.7050 O   0  0  0  0  0  0  0  0  0  0  0  0
  -22.6750  -29.3660   22.4440 C   0  0  0  0  0  0  0  0  0  0  0  0
  -21.3510  -29.1820   22.2910 N   0  0  0  0  0  0  0  0  0  0  0  0
  -23.3390  -28.7330   23.2690 O   0  0  0  0  0  0  0  0  0  0  0  0
  -20.8720  -29.7430   21.6000 H   0  0  0  0  0  0  0  0  0  0  0  0
  -17.9690  -27.9560   22.7320 C   0  0  0  0  0  0  0  0  0  0  0  0
  -20.5240  -28.2250   23.0310 C   0  0  0  0  0  3  0  0  0  0  0  0
  -20.6380  -26.8060   22.4260 C   0  0  0  0  0  2  0  0  0  0  0  0
  -19.5480  -26.5020   21.3920 C   0  0  0  0  0  2  0  0  0  0  0  0
  -18.1590  -26.6250   22.0260 C   0  0  0  0  0  2  0  0  0  0  0  0
  -19.0790  -28.7140   23.1900 C   0  0  0  0  0  0  0  0  0  0  0  0
  -18.8470  -29.9610   23.8130 C   0  0  0  0  0  3  0  0  0  0  0  0
  -17.5370  -30.4490   23.9780 C   0  0  0  0  0  3  0  0  0  0  0  0
  -16.4410  -29.6880   23.5340 C   0  0  0  0  0  3  0  0  0  0  0  0
  -16.6580  -28.4440   22.9170 C   0  0  0  0  0  3  0  0  0  0  0  0
  -25.7600  -32.4260   23.8610 C   0  0  0  0  0  3  0  0  0  0  0  0
  -25.4340  -33.8260   24.1710 N   0  0  0  0  0  0  0  0  0  0  0  0
  -25.7700  -34.8760   23.4100 C   0  0  0  0  0  0  0  0  0  0  0  0
  -26.4510  -34.7670   22.3870 O   0  0  0  0  0  0  0  0  0  0  0  0
  -24.8230  -33.9840   24.9590 H   0  0  0  0  0  0  0  0  0  0  0  0
  -24.0280  -36.6540   23.0370 C   0  0  0  0  0  1  0  0  0  0  0  0
  -25.2720  -36.2670   23.8520 C   0  0  0  0  0  3  0  0  0  0  0  0
  -27.3980  -37.1810   24.6740 C   0  0  0  0  0  1  0  0  0  0  0  0
  -26.2960  -37.3270   23.7260 N   0  0  0  0  0  0  0  0  0  0  0  0
  -25.8810  -38.2450   23.8620 H   0  0  0  0  0  0  0  0  0  0  0  0
  -26.2270  -31.6680   25.1650 C   0  0  1  0  0  0  0  0  0  0  0  0
  -25.0930  -31.4420   26.1930 C   0  0  0  0  0  1  0  0  0  0  0  0
  -26.8240  -30.2850   24.8160 C   0  0  0  0  0  1  0  0  0  0  0  0
  -27.3520  -32.4700   25.8610 C   0  0  0  0  0  1  0  0  0  0  0  0
  1  4  2  0
  2  3  1  0
  3  8  1  0
  3  1  1  0
  5  6  2  0
  5  8  1  0
  6  9  1  0
  7 10  1  0
  8  7  2  0
  9 20  1  0
  9 10  2  0
 10 11  1  0
 12 20  1  0
 13 18  1  0
 14 15  1  0
 14 13  1  0
 16 15  1  0
 16 25  1  0
 16 17  1  0
 18 12  1  0
 18 17  1  0
 19 12  2  0
 20 21  1  0
 22 23  2  0
 23 42  1  0
 24 27  1  0
 24 23  1  0
 25 26  1  0
 25 22  1  0
 26 24  2  0
 27 28  1  0
 28 29  2  0
 30 33  1  0
 30 29  1  0
 31 30  2  0
 32 31  1  0
 32 27  2  0
 33 34  1  0
 34 35  1  0
 35 36  2  0
 37 36  1  0
 37 41  1  0
 38 37  2  0
 39 34  2  0
 39 38  1  0
 40 39  1  0
 42 43  1  0
 43 45  1  0
 43 46  1  0
 44 42  2  0
 47 22  1  0
 47 48  1  0
 49 47  1  0
 50 51  1  0
 50  1  1  0
 52 63  2  0
 53 51  1  0
 53 58  1  0
 54 62  1  0
 54 64  1  0
 55 61  1  0
 55 57  1  0
 56 62  1  0
 57 58  2  0
 57 56  1  0
 59 53  2  0
 60 59  1  0
 60 55  2  0
 61 54  1  0
 62 52  1  0
 64 66  2  0
 65 64  1  0
 67 65  1  0
 68 77  2  0
 68 73  1  0
 69 65  1  0
 69 73  1  0
 70 69  1  0
 71 72  1  0
 71 70  1  0
 72 68  1  0
 73 74  2  0
 74 75  1  0
 76 75  2  0
 77 76  1  0
 78 52  1  0
 78 79  1  0
 78 88  1  0
 79 82  1  0
 80 84  1  0
 80 79  1  0
 81 80  2  0
 84 83  1  0
 86 84  1  0
 86 87  1  0
 86 85  1  0
 88 91  1  1
 88 89  1  0
 90 88  1  0
M  ISO  4  12 100  20 100  50 101  51 101
M  END
>  <TORSDO>  (8) 
F 18

>  <SCORE>  (8) 
-12.682

>  <name>  (8) 
7

>  <ligand_id>  (8) 
7

>  <original_smiles>  (8) 
[H]c1c([H])c([H])c2c(c1[H])C([H])([H])C([H])([H])C([H])([H])C2([H])N([H])C(=O)C1([H])N(C(=O)C([H])(N([H])C(=O)C([H])(N([H])C([H])([H])[H])C([H])([H])[H])C(C([H])([H])[H])(C([H])([H])[H])C([H])([H])[H])C([H])([H])c2c([H])c(OC([H])([H])C(=O)N(c3c([H])c([H])c(N([H])C(=O)N4C([H])([H])C([H])([H])C([H])([H])C([H])(n5nc(-c6c([H])c([H])c(Oc7c([H])c([H])c(F)c([H])c7F)c([H])c6[H])c(C(=O)N([H])[H])c5N([H])[H])C4([H])[H])c(F)c3[H])C([H])([H])[H])c([H])c([H])c2C1([H])[H]

>  <smiles>  (8) 
[H]c1c([H])c([H])c2c(c1[H])C([H])([H])C([H])([H])C([H])([H])C2([H])N([H])C(=O)C1([H])N(C(=O)C([H])(N([H])C(=O)C([H])(N([H])C([H])([H])[H])C([H])([H])[H])C(C([H])([H])[H])(C([H])([H])[H])C([H])([H])[H])C([H])([H])c2c([H])c(OC([H])([H])C(=O)N(c3c([H])c([H])c(N([H])C(=O)N4C([H])([H])C([H])([H])C([H])([H])C([H])(n5nc(-c6c([H])c([H])c(Oc7c([H])c([H])c(F)c([H])c7F)c([H])c6[H])c(C(=O)N([H])[H])c5N([H])[H])C4([H])[H])c(F)c3[H])C([H])([H])[H])c([H])c([H])c2C1([H])[H]

$$$$
8:0:0
     RDKit          3D

 90 98  0  0  1  0  0  0  0  0999 V2000
  -28.6110  -17.9390   20.7180 C   0  0  0  0  0  3  0  0  0  0  0  0
  -28.5950  -19.3640   20.7270 C   0  0  0  0  0  3  0  0  0  0  0  0
  -31.0190  -17.9310   20.7120 C   0  0  0  0  0  3  0  0  0  0  0  0
  -29.8160  -17.1790   20.6950 C   0  0  0  0  0  0  0  0  0  0  0  0
  -29.7990  -20.1170   20.7340 C   0  0  0  0  0  0  0  0  0  0  0  0
  -31.0090  -19.3590   20.7350 C   0  0  0  0  0  0  0  0  0  0  0  0
  -32.5230  -20.1940   20.7680 Cl  0  0  0  0  0  0  0  0  0  0  0  0
  -30.5740  -14.6890   20.3840 C   0  0  0  0  0  0  0  0  0  0  0  0
  -30.3940  -12.4450   19.3070 C   0  0  0  0  0  2  0  0  0  0  0  0
  -29.4500  -12.5500   18.0840 C   0  0  0  0  0  2  0  0  0  0  0  0
  -27.9760  -12.3870   18.5130 C   0  0  0  0  0  2  0  0  0  0  0  0
  -27.6050  -13.2700   19.7360 C   0  0  0  0  0  3  0  0  0  0  0  0
  -28.6540  -13.1180   20.8590 C   0  0  0  0  0  2  0  0  0  0  0  0
  -29.9690  -13.4600   20.2910 N   0  0  0  0  0  0  0  0  0  0  0  0
  -31.7460  -14.8620   20.0300 O   0  0  0  0  0  0  0  0  0  0  0  0
  -29.7190  -15.7180   20.6880 N   0  0  0  0  0  0  0  0  0  0  0  0
  -28.7840  -15.3710   20.8290 H   0  0  0  0  0  0  0  0  0  0  0  0
  -25.2220  -13.8910   20.4620 C   0  0  0  0  0  0  0  0  0  0  0  0
  -24.1490  -13.1270   20.8410 C   0  0  0  0  0  0  0  0  0  0  0  0
  -24.6000  -11.7720   20.8040 C   0  0  0  0  0  0  0  0  0  0  0  0
  -26.2560  -13.0000   20.2210 N   0  0  0  0  0  0  0  0  0  0  0  0
  -25.8890  -11.7210   20.4910 N   0  0  0  0  0  0  0  0  0  0  0  0
  -23.8660  -10.5140   20.9960 C   0  0  0  0  0  0  0  0  0  0  0  0
  -24.2910   -9.5480   21.9350 C   0  0  0  0  0  3  0  0  0  0  0  0
  -23.5600   -8.3520   22.1120 C   0  0  0  0  0  3  0  0  0  0  0  0
  -22.3930   -8.1180   21.3490 C   0  0  0  0  0  0  0  0  0  0  0  0
  -21.9850   -9.0740   20.4040 C   0  0  0  0  0  3  0  0  0  0  0  0
  -22.7120  -10.2620   20.2260 C   0  0  0  0  0  3  0  0  0  0  0  0
  -21.6320   -6.9760   21.4380 O   0  0  0  0  0  0  0  0  0  0  0  0
  -21.5660   -6.2430   22.5940 C   0  0  0  0  0  0  0  0  0  0  0  0
  -21.1140   -6.8060   23.8100 C   0  0  0  0  0  3  0  0  0  0  0  0
  -20.9950   -6.0000   24.9580 C   0  0  0  0  0  3  0  0  0  0  0  0
  -21.3140   -4.6310   24.8950 C   0  0  0  0  0  0  0  0  0  0  0  0
  -21.7580   -4.0670   23.6850 C   0  0  0  0  0  3  0  0  0  0  0  0
  -21.8790   -4.8690   22.5380 C   0  0  0  0  0  0  0  0  0  0  0  0
  -22.2870   -4.3160   21.3710 F   0  0  0  0  0  0  0  0  0  0  0  0
  -21.1920   -3.8550   25.9970 F   0  0  0  0  0  0  0  0  0  0  0  0
  -22.7550  -13.6140   21.1110 C   0  0  0  0  0  0  0  0  0  0  0  0
  -22.0200  -12.9310   21.9830 N   0  0  0  0  0  0  0  0  0  0  0  0
  -22.3210  -14.6360   20.5810 O   0  0  0  0  0  0  0  0  0  0  0  0
  -22.3800  -12.1040   22.4330 H   0  0  0  0  0  0  0  0  0  0  0  0
  -21.0830  -13.2390   22.1990 H   0  0  0  0  0  0  0  0  0  0  0  0
  -25.3940  -15.2600   20.2780 N   0  0  0  0  0  0  0  0  0  0  0  0
  -24.6200  -15.9100   20.3620 H   0  0  0  0  0  0  0  0  0  0  0  0
  -26.2110  -15.6700   19.8400 H   0  0  0  0  0  0  0  0  0  0  0  0
  -29.8820  -21.5240   20.7670 O   0  0  0  0  0  0  0  0  0  0  0  0
  -28.7430  -22.4150   20.5370 C   0  0  0  0  0  2  0  0  0  0  0  0
  -29.1180  -23.9640   20.6120 C   0  0  0  0  0  3  0  0  0  0  0  0
  -28.0940  -25.0420   20.0470 C   0  0  0  0  0  3  0  0  0  0  0  0
  -28.3400  -26.4910   20.2650 O   0  0  0  0  0  0  0  0  0  0  0  0
  -24.6280  -31.8950   23.2630 C   0  0  0  0  0  0  0  0  0  0  0  0
  -27.2380  -27.3590   20.1850 C   0  0  0  0  0  0  0  0  0  0  0  0
  -23.4310  -30.5200   21.6020 C   0  0  0  0  0  3  0  0  0  0  0  0
  -24.8850  -28.9890   20.1630 C   0  0  0  0  0  0  0  0  0  0  0  0
  -25.9710  -30.8400   21.4320 C   0  0  0  0  0  2  0  0  0  0  0  0
  -26.0510  -29.4640   20.7780 C   0  0  0  0  0  0  0  0  0  0  0  0
  -27.2290  -28.6570   20.7840 C   0  0  0  0  0  3  0  0  0  0  0  0
  -26.0530  -26.9530   19.5250 C   0  0  0  0  0  3  0  0  0  0  0  0
  -24.8890  -27.7400   19.5270 C   0  0  0  0  0  3  0  0  0  0  0  0
  -23.6520  -29.8640   20.2140 C   0  0  0  0  0  2  0  0  0  0  0  0
  -24.6960  -31.1000   22.1560 N   0  0  0  0  0  0  0  0  0  0  0  0
  -23.5430  -32.1660   23.7960 O   0  0  0  0  0  0  0  0  0  0  0  0
  -22.7620  -29.4890   22.5420 C   0  0  0  0  0  0  0  0  0  0  0  0
  -21.4350  -29.3230   22.4100 N   0  0  0  0  0  0  0  0  0  0  0  0
  -23.4320  -28.8440   23.3500 O   0  0  0  0  0  0  0  0  0  0  0  0
  -20.9510  -29.8850   21.7230 H   0  0  0  0  0  0  0  0  0  0  0  0
  -18.0470  -28.1560   22.8980 C   0  0  0  0  0  0  0  0  0  0  0  0
  -20.6080  -28.3840   23.1700 C   0  0  0  0  0  3  0  0  0  0  0  0
  -20.6940  -26.9620   22.5700 C   0  0  0  0  0  2  0  0  0  0  0  0
  -19.5880  -26.6670   21.5520 C   0  0  0  0  0  2  0  0  0  0  0  0
  -18.2080  -26.8160   22.1980 C   0  0  0  0  0  2  0  0  0  0  0  0
  -19.1740  -28.8990   23.3390 C   0  0  0  0  0  0  0  0  0  0  0  0
  -18.9670  -30.1530   23.9520 C   0  0  0  0  0  3  0  0  0  0  0  0
  -17.6680  -30.6670   24.1250 C   0  0  0  0  0  3  0  0  0  0  0  0
  -16.5550  -29.9210   23.7000 C   0  0  0  0  0  3  0  0  0  0  0  0
  -16.7460  -28.6650   23.0940 C   0  0  0  0  0  3  0  0  0  0  0  0
  -25.9100  -32.5200   23.8950 C   0  0  0  0  0  3  0  0  0  0  0  0
  -26.4140  -31.7410   25.1720 C   0  0  1  0  0  0  0  0  0  0  0  0
  -25.3060  -31.5020   26.2240 C   0  0  0  0  0  1  0  0  0  0  0  0
  -26.9920  -30.3620   24.7810 C   0  0  0  0  0  1  0  0  0  0  0  0
  -27.5700  -32.5190   25.8420 C   0  0  0  0  0  1  0  0  0  0  0  0
  -25.6030  -33.9190   24.2260 N   0  0  0  0  0  0  0  0  0  0  0  0
  -25.9290  -34.9690   23.4620 C   0  0  0  0  0  0  0  0  0  0  0  0
  -26.5840  -34.8620   22.4220 O   0  0  0  0  0  0  0  0  0  0  0  0
  -25.0240  -34.0770   25.0360 H   0  0  0  0  0  0  0  0  0  0  0  0
  -24.1860  -36.7510   23.1360 C   0  0  0  0  0  1  0  0  0  0  0  0
  -25.4510  -36.3620   23.9180 C   0  0  0  0  0  3  0  0  0  0  0  0
  -27.6020  -37.2580   24.6960 C   0  0  0  0  0  1  0  0  0  0  0  0
  -26.4810  -37.4150   23.7720 N   0  0  0  0  0  0  0  0  0  0  0  0
  -26.0780  -38.3360   23.9190 H   0  0  0  0  0  0  0  0  0  0  0  0
  1  2  1  0
  2  5  2  0
  3  6  2  0
  4  3  1  0
  4  1  2  0
  5  6  1  0
  5 46  1  0
  6  7  1  0
  8 16  1  0
  9 14  1  0
 10 11  1  0
 10  9  1  0
 12 11  1  0
 12 21  1  0
 12 13  1  0
 14  8  1  0
 14 13  1  0
 15  8  2  0
 16  4  1  0
 16 17  1  0
 18 19  2  0
 19 38  1  0
 20 19  1  0
 20 23  1  0
 21 18  1  0
 21 22  1  0
 22 20  2  0
 23 24  1  0
 24 25  2  0
 26 29  1  0
 26 25  1  0
 27 26  2  0
 28 27  1  0
 28 23  2  0
 29 30  1  0
 30 31  1  0
 31 32  2  0
 33 32  1  0
 33 37  1  0
 34 33  2  0
 35 30  2  0
 35 34  1  0
 36 35  1  0
 38 39  1  0
 39 42  1  0
 39 41  1  0
 40 38  2  0
 43 44  1  0
 43 18  1  0
 45 43  1  0
 47 48  1  0
 47 46  1  0
 49 50  1  0
 49 48  2  0
 51 62  2  0
 52 50  1  0
 52 57  1  0
 53 61  1  0
 53 63  1  0
 54 60  1  0
 54 56  1  0
 55 61  1  0
 56 57  2  0
 56 55  1  0
 58 59  1  0
 58 52  2  0
 59 54  2  0
 60 53  1  0
 61 51  1  0
 63 65  2  0
 64 63  1  0
 66 64  1  0
 67 76  2  0
 67 72  1  0
 68 64  1  0
 68 72  1  0
 69 68  1  0
 70 71  1  0
 70 69  1  0
 71 67  1  0
 72 73  2  0
 73 74  1  0
 75 74  2  0
 76 75  1  0
 77 51  1  0
 77 82  1  0
 77 78  1  0
 78 81  1  1
 78 79  1  0
 80 78  1  0
 82 85  1  0
 83 87  1  0
 83 82  1  0
 84 83  2  0
 87 86  1  0
 89 87  1  0
 89 90  1  0
 89 88  1  0
M  ISO  4   8 100  16 100  49 101  50 101
M  END
>  <TORSDO>  (9) 
F 20

>  <SCORE>  (9) 
-13.848

>  <name>  (9) 
8

>  <ligand_id>  (9) 
8

>  <original_smiles>  (9) 
[H]c1c([H])c([H])c2c(c1[H])C([H])([H])C([H])([H])C([H])([H])C2([H])N([H])C(=O)C1([H])N(C(=O)C([H])(N([H])C(=O)C([H])(N([H])C([H])([H])[H])C([H])([H])[H])C(C([H])([H])[H])(C([H])([H])[H])C([H])([H])[H])C([H])([H])c2c([H])c(OC([H])([H])C([H])([H])C([H])([H])Oc3c([H])c([H])c(N([H])C(=O)N4C([H])([H])C([H])([H])C([H])([H])C([H])(n5nc(-c6c([H])c([H])c(Oc7c([H])c([H])c(F)c([H])c7F)c([H])c6[H])c(C(=O)N([H])[H])c5N([H])[H])C4([H])[H])c([H])c3Cl)c([H])c([H])c2C1([H])[H]

>  <smiles>  (9) 
[H]c1c([H])c([H])c2c(c1[H])C([H])([H])C([H])([H])C([H])([H])C2([H])N([H])C(=O)C1([H])N(C(=O)C([H])(N([H])C(=O)C([H])(N([H])C([H])([H])[H])C([H])([H])[H])C(C([H])([H])[H])(C([H])([H])[H])C([H])([H])[H])C([H])([H])c2c([H])c(OC([H])([H])C([H])([H])C([H])([H])Oc3c([H])c([H])c(N([H])C(=O)N4C([H])([H])C([H])([H])C([H])([H])C([H])(n5nc(-c6c([H])c([H])c(Oc7c([H])c([H])c(F)c([H])c7F)c([H])c6[H])c(C(=O)N([H])[H])c5N([H])[H])C4([H])[H])c([H])c3Cl)c([H])c([H])c2C1([H])[H]

$$$$
9:0:0
     RDKit          3D

 92101  0  0  1  0  0  0  0  0999 V2000
  -29.0530  -22.5550   20.6650 C   0  0  0  0  0  0  0  0  0  0  0  0
  -27.3110  -23.2550   19.1930 C   0  0  0  0  0  2  0  0  0  0  0  0
  -27.4900  -21.7250   19.2040 C   0  0  0  0  0  2  0  0  0  0  0  0
  -28.5220  -23.8370   19.9200 C   0  0  0  0  0  3  0  0  0  0  0  0
  -28.5320  -21.3830   20.1810 N   0  0  0  0  0  0  0  0  0  0  0  0
  -29.8720  -22.6390   21.5860 O   0  0  0  0  0  0  0  0  0  0  0  0
  -30.0900  -19.4950   21.0530 C   0  0  0  0  0  3  0  0  0  0  0  0
  -28.0530  -18.9300   19.9230 C   0  0  0  0  0  3  0  0  0  0  0  0
  -30.4560  -18.1030   21.0880 C   0  0  0  0  0  3  0  0  0  0  0  0
  -28.4090  -17.5560   19.9630 C   0  0  0  0  0  3  0  0  0  0  0  0
  -28.8940  -19.9630   20.4210 C   0  0  0  0  0  0  0  0  0  0  0  0
  -29.6380  -17.0950   20.4990 C   0  0  0  0  0  0  0  0  0  0  0  0
  -30.7370  -14.7500   20.8220 C   0  0  0  0  0  0  0  0  0  0  0  0
  -30.6250  -12.4200   19.9670 C   0  0  0  0  0  2  0  0  0  0  0  0
  -29.7820  -12.3630   18.6720 C   0  0  0  0  0  2  0  0  0  0  0  0
  -28.2740  -12.2820   18.9800 C   0  0  0  0  0  2  0  0  0  0  0  0
  -27.8050  -13.2420   20.1100 C   0  0  0  0  0  3  0  0  0  0  0  0
  -28.7730  -13.2320   21.3100 C   0  0  0  0  0  2  0  0  0  0  0  0
  -30.1110  -13.5300   20.7910 N   0  0  0  0  0  0  0  0  0  0  0  0
  -31.9690  -14.8140   20.8520 O   0  0  0  0  0  0  0  0  0  0  0  0
  -30.3270  -15.7050   18.6650 C   0  0  0  0  0  1  0  0  0  0  0  0
  -30.0710  -15.7440   20.1190 N   0  0  0  0  0  0  0  0  0  0  0  0
  -25.3650  -13.8490   20.6300 C   0  0  0  0  0  0  0  0  0  0  0  0
  -24.2730  -13.0800   20.9280 C   0  0  0  0  0  0  0  0  0  0  0  0
  -24.7410  -11.7320   20.9800 C   0  0  0  0  0  0  0  0  0  0  0  0
  -26.4280  -12.9680   20.5090 N   0  0  0  0  0  0  0  0  0  0  0  0
  -26.0540  -11.6920   20.7880 N   0  0  0  0  0  0  0  0  0  0  0  0
  -24.0080  -10.4700   21.1430 C   0  0  0  0  0  0  0  0  0  0  0  0
  -24.3830   -9.5180   22.1150 C   0  0  0  0  0  3  0  0  0  0  0  0
  -23.6490   -8.3210   22.2650 C   0  0  0  0  0  3  0  0  0  0  0  0
  -22.5260   -8.0690   21.4420 C   0  0  0  0  0  0  0  0  0  0  0  0
  -22.1720   -9.0090   20.4600 C   0  0  0  0  0  3  0  0  0  0  0  0
  -22.9070  -10.1980   20.3070 C   0  0  0  0  0  3  0  0  0  0  0  0
  -21.7700   -6.9240   21.5000 O   0  0  0  0  0  0  0  0  0  0  0  0
  -21.6660   -6.1870   22.6530 C   0  0  0  0  0  0  0  0  0  0  0  0
  -21.1780   -6.7470   23.8540 C   0  0  0  0  0  3  0  0  0  0  0  0
  -21.0230   -5.9360   24.9970 C   0  0  0  0  0  3  0  0  0  0  0  0
  -21.3440   -4.5680   24.9380 C   0  0  0  0  0  0  0  0  0  0  0  0
  -21.8250   -4.0070   23.7420 C   0  0  0  0  0  3  0  0  0  0  0  0
  -21.9830   -4.8140   22.6010 C   0  0  0  0  0  0  0  0  0  0  0  0
  -22.4260   -4.2650   21.4450 F   0  0  0  0  0  0  0  0  0  0  0  0
  -21.1880   -3.7870   26.0330 F   0  0  0  0  0  0  0  0  0  0  0  0
  -22.8550  -13.5550   21.0620 C   0  0  0  0  0  0  0  0  0  0  0  0
  -22.0580  -12.8820   21.8830 N   0  0  0  0  0  0  0  0  0  0  0  0
  -22.4600  -14.5610   20.4740 O   0  0  0  0  0  0  0  0  0  0  0  0
  -22.3890  -12.0690   22.3830 H   0  0  0  0  0  0  0  0  0  0  0  0
  -21.1030  -13.1830   22.0150 H   0  0  0  0  0  0  0  0  0  0  0  0
  -25.5410  -15.2150   20.4320 N   0  0  0  0  0  0  0  0  0  0  0  0
  -24.7730  -15.8740   20.4810 H   0  0  0  0  0  0  0  0  0  0  0  0
  -26.4310  -15.6540   20.2400 H   0  0  0  0  0  0  0  0  0  0  0  0
  -28.2220  -25.1870   20.7190 C   0  0  0  0  0  2  0  0  0  0  0  0
  -28.2900  -26.4930   20.0230 O   0  0  0  0  0  0  0  0  0  0  0  0
  -24.5930  -31.8520   23.1330 C   0  0  0  0  0  0  0  0  0  0  0  0
  -27.1620  -27.3180   20.0390 C   0  0  0  0  0  0  0  0  0  0  0  0
  -23.3640  -30.4600   21.5030 C   0  0  0  0  0  3  0  0  0  0  0  0
  -24.7940  -28.9100   20.0570 C   0  0  0  0  0  0  0  0  0  0  0  0
  -25.8970  -30.7870   21.2810 C   0  0  0  0  0  2  0  0  0  0  0  0
  -25.9690  -29.4090   20.6340 C   0  0  0  0  0  0  0  0  0  0  0  0
  -27.1590  -28.6260   20.6100 C   0  0  0  0  0  3  0  0  0  0  0  0
  -25.9680  -26.8610   19.4450 C   0  0  0  0  0  3  0  0  0  0  0  0
  -24.7950  -27.6410   19.4520 C   0  0  0  0  0  3  0  0  0  0  0  0
  -23.5570  -29.7840   20.1200 C   0  0  0  0  0  2  0  0  0  0  0  0
  -24.6370  -31.0510   22.0300 N   0  0  0  0  0  0  0  0  0  0  0  0
  -23.5180  -32.1280   23.6850 O   0  0  0  0  0  0  0  0  0  0  0  0
  -22.7150  -29.4430   22.4710 C   0  0  0  0  0  0  0  0  0  0  0  0
  -21.3850  -29.2760   22.3680 N   0  0  0  0  0  0  0  0  0  0  0  0
  -23.4050  -28.8070   23.2710 O   0  0  0  0  0  0  0  0  0  0  0  0
  -20.8870  -29.8420   21.6950 H   0  0  0  0  0  0  0  0  0  0  0  0
  -18.0080  -28.1080   22.9290 C   0  0  0  0  0  0  0  0  0  0  0  0
  -20.5740  -28.3380   23.1470 C   0  0  0  0  0  3  0  0  0  0  0  0
  -20.6490  -26.9120   22.5550 C   0  0  0  0  0  2  0  0  0  0  0  0
  -19.5220  -26.6110   21.5620 C   0  0  0  0  0  2  0  0  0  0  0  0
  -18.1560  -26.7640   22.2370 C   0  0  0  0  0  2  0  0  0  0  0  0
  -19.1430  -28.8550   23.3420 C   0  0  0  0  0  0  0  0  0  0  0  0
  -18.9510  -30.1140   23.9510 C   0  0  0  0  0  3  0  0  0  0  0  0
  -17.6550  -30.6270   24.1500 C   0  0  0  0  0  3  0  0  0  0  0  0
  -16.5340  -29.8770   23.7530 C   0  0  0  0  0  3  0  0  0  0  0  0
  -16.7120  -28.6200   23.1480 C   0  0  0  0  0  3  0  0  0  0  0  0
  -25.8870  -32.4810   23.7400 C   0  0  0  0  0  3  0  0  0  0  0  0
  -25.5780  -33.8710   24.1040 N   0  0  0  0  0  0  0  0  0  0  0  0
  -25.9090  -34.9410   23.3680 C   0  0  0  0  0  0  0  0  0  0  0  0
  -26.5760  -34.8610   22.3330 O   0  0  0  0  0  0  0  0  0  0  0  0
  -24.9870  -34.0070   24.9100 H   0  0  0  0  0  0  0  0  0  0  0  0
  -24.1930  -36.7510   23.0460 C   0  0  0  0  0  1  0  0  0  0  0  0
  -25.4230  -36.3180   23.8590 C   0  0  0  0  0  3  0  0  0  0  0  0
  -27.5530  -37.1710   24.7370 C   0  0  0  0  0  1  0  0  0  0  0  0
  -26.4620  -37.3700   23.7860 N   0  0  0  0  0  0  0  0  0  0  0  0
  -26.0590  -38.2870   23.9520 H   0  0  0  0  0  0  0  0  0  0  0  0
  -26.4330  -31.6880   24.9910 C   0  0  1  0  0  0  0  0  0  0  0  0
  -25.3650  -31.4300   26.0790 C   0  0  0  0  0  1  0  0  0  0  0  0
  -27.0100  -30.3190   24.5620 C   0  0  0  0  0  1  0  0  0  0  0  0
  -27.5960  -32.4730   25.6420 C   0  0  0  0  0  1  0  0  0  0  0  0
  1  6  2  0
  2  3  1  0
  2  4  1  0
  3  5  1  0
  4  1  1  0
  4 51  1  0
  5 11  1  0
  5  1  1  0
  7  9  1  0
  8 10  2  0
  8 11  1  0
 10 12  1  0
 11  7  2  0
 12  9  2  0
 13 20  2  0
 14 19  1  0
 15 16  1  0
 15 14  1  0
 17 16  1  0
 17 26  1  0
 17 18  1  0
 19 13  1  0
 19 18  1  0
 21 22  1  0
 22 12  1  0
 22 13  1  0
 23 24  2  0
 24 25  1  0
 24 43  1  0
 25 28  1  0
 26 23  1  0
 26 27  1  0
 27 25  2  0
 28 29  1  0
 29 30  2  0
 31 34  1  0
 31 30  1  0
 32 31  2  0
 33 32  1  0
 33 28  2  0
 34 35  1  0
 35 36  1  0
 36 37  2  0
 38 37  1  0
 38 42  1  0
 39 38  2  0
 40 35  2  0
 40 39  1  0
 41 40  1  0
 43 44  1  0
 44 47  1  0
 44 46  1  0
 45 43  2  0
 48 49  1  0
 48 23  1  0
 50 48  1  0
 52 54  1  0
 52 51  1  0
 53 64  2  0
 54 59  1  0
 55 63  1  0
 55 65  1  0
 56 62  1  0
 56 58  1  0
 57 63  1  0
 58 57  1  0
 59 58  2  0
 60 61  1  0
 60 54  2  0
 61 56  2  0
 62 55  1  0
 63 53  1  0
 65 67  2  0
 66 65  1  0
 68 66  1  0
 69 78  2  0
 69 74  1  0
 70 66  1  0
 70 74  1  0
 71 70  1  0
 72 73  1  0
 72 71  1  0
 73 69  1  0
 74 75  2  0
 75 76  1  0
 77 76  2  0
 78 77  1  0
 79 53  1  0
 79 80  1  0
 79 89  1  0
 80 83  1  0
 81 85  1  0
 81 80  1  0
 82 81  2  0
 85 84  1  0
 87 85  1  0
 87 88  1  0
 87 86  1  0
 89 92  1  1
 89 90  1  0
 91 89  1  0
M  ISO  4  13 100  22 100  51 101  52 101
M  END
>  <TORSDO>  (10) 
F 18

>  <SCORE>  (10) 
-14.611

>  <name>  (10) 
9

>  <ligand_id>  (10) 
9

>  <original_smiles>  (10) 
[H]c1c([H])c([H])c2c(c1[H])C([H])([H])C([H])([H])C([H])([H])C2([H])N([H])C(=O)C1([H])N(C(=O)C([H])(N([H])C(=O)C([H])(N([H])C([H])([H])[H])C([H])([H])[H])C(C([H])([H])[H])(C([H])([H])[H])C([H])([H])[H])C([H])([H])c2c([H])c(OC([H])([H])C3([H])C(=O)N(c4c([H])c([H])c(N(C(=O)N5C([H])([H])C([H])([H])C([H])([H])C([H])(n6nc(-c7c([H])c([H])c(Oc8c([H])c([H])c(F)c([H])c8F)c([H])c7[H])c(C(=O)N([H])[H])c6N([H])[H])C5([H])[H])C([H])([H])[H])c([H])c4[H])C([H])([H])C3([H])[H])c([H])c([H])c2C1([H])[H]

>  <smiles>  (10) 
[H]c1c([H])c([H])c2c(c1[H])C([H])([H])C([H])([H])C([H])([H])C2([H])N([H])C(=O)C1([H])N(C(=O)C([H])(N([H])C(=O)C([H])(N([H])C([H])([H])[H])C([H])([H])[H])C(C([H])([H])[H])(C([H])([H])[H])C([H])([H])[H])C([H])([H])c2c([H])c(OC([H])([H])C3([H])C(=O)N(c4c([H])c([H])c(N(C(=O)N5C([H])([H])C([H])([H])C([H])([H])C([H])(n6nc(-c7c([H])c([H])c(Oc8c([H])c([H])c(F)c([H])c8F)c([H])c7[H])c(C(=O)N([H])[H])c6N([H])[H])C5([H])[H])C([H])([H])[H])c([H])c4[H])C([H])([H])C3([H])[H])c([H])c([H])c2C1([H])[H]

$$$$
10:0:0
     RDKit          3D

 91 99  0  0  1  0  0  0  0  0999 V2000
  -29.9620  -20.9370   21.3580 O   0  0  0  0  0  0  0  0  0  0  0  0
  -30.8470  -17.4360   22.0490 C   0  0  0  0  0  3  0  0  0  0  0  0
  -30.7720  -18.8420   22.0910 C   0  0  0  0  0  3  0  0  0  0  0  0
  -29.3550  -17.4330   20.1270 C   0  0  0  0  0  3  0  0  0  0  0  0
  -30.1340  -16.7220   21.0680 C   0  0  0  0  0  0  0  0  0  0  0  0
  -29.9810  -19.5660   21.1720 C   0  0  0  0  0  0  0  0  0  0  0  0
  -29.2790  -18.8430   20.1680 C   0  0  0  0  0  0  0  0  0  0  0  0
  -28.5130  -19.4690   19.2430 F   0  0  0  0  0  0  0  0  0  0  0  0
  -30.6890  -14.4640   20.2610 C   0  0  0  0  0  0  0  0  0  0  0  0
  -30.3460  -12.3840   18.9750 C   0  0  0  0  0  2  0  0  0  0  0  0
  -29.3490  -12.6650   17.8310 C   0  0  0  0  0  2  0  0  0  0  0  0
  -27.8930  -12.5140   18.3130 C   0  0  0  0  0  2  0  0  0  0  0  0
  -27.6200  -13.2770   19.6360 C   0  0  0  0  0  3  0  0  0  0  0  0
  -28.7140  -12.9550   20.6780 C   0  0  0  0  0  2  0  0  0  0  0  0
  -30.0230  -13.2910   20.0850 N   0  0  0  0  0  0  0  0  0  0  0  0
  -31.7320  -14.7530   19.6660 O   0  0  0  0  0  0  0  0  0  0  0  0
  -30.0980  -15.3070   21.1210 N   0  0  0  0  0  0  0  0  0  0  0  0
  -29.3130  -14.9070   21.6130 H   0  0  0  0  0  0  0  0  0  0  0  0
  -25.2400  -13.8660   20.4250 C   0  0  0  0  0  0  0  0  0  0  0  0
  -24.1880  -13.0820   20.8170 C   0  0  0  0  0  0  0  0  0  0  0  0
  -24.6510  -11.7340   20.7420 C   0  0  0  0  0  0  0  0  0  0  0  0
  -26.2820  -12.9920   20.1490 N   0  0  0  0  0  0  0  0  0  0  0  0
  -25.9300  -11.7040   20.3910 N   0  0  0  0  0  0  0  0  0  0  0  0
  -23.9380  -10.4640   20.9310 C   0  0  0  0  0  0  0  0  0  0  0  0
  -24.3780   -9.5010   21.8660 C   0  0  0  0  0  3  0  0  0  0  0  0
  -23.6650   -8.2960   22.0410 C   0  0  0  0  0  3  0  0  0  0  0  0
  -22.4960   -8.0460   21.2850 C   0  0  0  0  0  0  0  0  0  0  0  0
  -22.0750   -8.9980   20.3390 C   0  0  0  0  0  3  0  0  0  0  0  0
  -22.7890  -10.1950   20.1610 C   0  0  0  0  0  3  0  0  0  0  0  0
  -21.7540   -6.8920   21.3710 O   0  0  0  0  0  0  0  0  0  0  0  0
  -21.6740   -6.1740   22.5360 C   0  0  0  0  0  0  0  0  0  0  0  0
  -21.1740   -6.7410   23.7290 C   0  0  0  0  0  3  0  0  0  0  0  0
  -21.0460   -5.9470   24.8870 C   0  0  0  0  0  3  0  0  0  0  0  0
  -21.4060   -4.5860   24.8500 C   0  0  0  0  0  0  0  0  0  0  0  0
  -21.8990   -4.0190   23.6620 C   0  0  0  0  0  3  0  0  0  0  0  0
  -22.0300   -4.8110   22.5080 C   0  0  0  0  0  0  0  0  0  0  0  0
  -22.4860   -4.2540   21.3590 F   0  0  0  0  0  0  0  0  0  0  0  0
  -21.2750   -3.8200   25.9590 F   0  0  0  0  0  0  0  0  0  0  0  0
  -22.7990  -13.5470   21.1490 C   0  0  0  0  0  0  0  0  0  0  0  0
  -22.1030  -12.8240   22.0190 N   0  0  0  0  0  0  0  0  0  0  0  0
  -22.3410  -14.5850   20.6710 O   0  0  0  0  0  0  0  0  0  0  0  0
  -22.4870  -11.9830   22.4240 H   0  0  0  0  0  0  0  0  0  0  0  0
  -21.1740  -13.1170   22.2870 H   0  0  0  0  0  0  0  0  0  0  0  0
  -25.3970  -15.2390   20.2650 N   0  0  0  0  0  0  0  0  0  0  0  0
  -24.6350  -15.8950   20.3990 H   0  0  0  0  0  0  0  0  0  0  0  0
  -26.2380  -15.6790   19.9110 H   0  0  0  0  0  0  0  0  0  0  0  0
  -29.1550  -21.7840   20.5410 C   0  0  0  0  0  2  0  0  0  0  0  0
  -29.2290  -23.1940   21.1610 C   0  0  0  0  0  2  0  0  0  0  0  0
  -28.6940  -24.3490   20.2870 C   0  0  0  0  0  2  0  0  0  0  0  0
  -28.6430  -25.6870   21.0600 C   0  0  0  0  0  2  0  0  0  0  0  0
  -28.5440  -26.8160   20.1910 O   0  0  0  0  0  0  0  0  0  0  0  0
  -24.6030  -31.9090   23.2560 C   0  0  0  0  0  0  0  0  0  0  0  0
  -27.3560  -27.5020   20.2350 C   0  0  0  0  0  0  0  0  0  0  0  0
  -23.4400  -30.4840   21.6020 C   0  0  0  0  0  3  0  0  0  0  0  0
  -24.9350  -28.9530   20.2120 C   0  0  0  0  0  0  0  0  0  0  0  0
  -25.9600  -30.8800   21.4350 C   0  0  0  0  0  2  0  0  0  0  0  0
  -26.0760  -29.5050   20.8100 C   0  0  0  0  0  0  0  0  0  0  0  0
  -27.2920  -28.7870   20.8160 C   0  0  0  0  0  3  0  0  0  0  0  0
  -26.2010  -26.9510   19.6450 C   0  0  0  0  0  3  0  0  0  0  0  0
  -24.9910  -27.6730   19.6310 C   0  0  0  0  0  3  0  0  0  0  0  0
  -23.6790  -29.7950   20.2310 C   0  0  0  0  0  2  0  0  0  0  0  0
  -24.6850  -31.1060   22.1570 N   0  0  0  0  0  0  0  0  0  0  0  0
  -23.5100  -32.1690   23.7770 O   0  0  0  0  0  0  0  0  0  0  0  0
  -22.7870  -29.4610   22.5570 C   0  0  0  0  0  0  0  0  0  0  0  0
  -21.4690  -29.2570   22.4060 N   0  0  0  0  0  0  0  0  0  0  0  0
  -23.4650  -28.8480   23.3870 O   0  0  0  0  0  0  0  0  0  0  0  0
  -20.9830  -29.8040   21.7090 H   0  0  0  0  0  0  0  0  0  0  0  0
  -18.1010  -28.0280   22.8510 C   0  0  0  0  0  0  0  0  0  0  0  0
  -20.6510  -28.3120   23.1630 C   0  0  0  0  0  3  0  0  0  0  0  0
  -20.7770  -26.8810   22.5900 C   0  0  0  0  0  2  0  0  0  0  0  0
  -19.6950  -26.5470   21.5590 C   0  0  0  0  0  2  0  0  0  0  0  0
  -18.3010  -26.6810   22.1790 C   0  0  0  0  0  2  0  0  0  0  0  0
  -19.2040  -28.8020   23.2980 C   0  0  0  0  0  0  0  0  0  0  0  0
  -18.9640  -30.0650   23.8820 C   0  0  0  0  0  3  0  0  0  0  0  0
  -17.6510  -30.5530   24.0260 C   0  0  0  0  0  3  0  0  0  0  0  0
  -16.5620  -29.7760   23.5960 C   0  0  0  0  0  3  0  0  0  0  0  0
  -16.7870  -28.5160   23.0130 C   0  0  0  0  0  3  0  0  0  0  0  0
  -25.8710  -32.5570   23.8930 C   0  0  0  0  0  3  0  0  0  0  0  0
  -25.5440  -33.9550   24.2050 N   0  0  0  0  0  0  0  0  0  0  0  0
  -25.8890  -35.0040   23.4460 C   0  0  0  0  0  0  0  0  0  0  0  0
  -26.5870  -34.8980   22.4340 O   0  0  0  0  0  0  0  0  0  0  0  0
  -24.9270  -34.1110   24.9890 H   0  0  0  0  0  0  0  0  0  0  0  0
  -24.1650  -36.7840   23.0180 C   0  0  0  0  0  1  0  0  0  0  0  0
  -25.3770  -36.3920   23.8780 C   0  0  0  0  0  3  0  0  0  0  0  0
  -27.4730  -37.2920   24.7860 C   0  0  0  0  0  1  0  0  0  0  0  0
  -26.4090  -37.4490   23.7990 N   0  0  0  0  0  0  0  0  0  0  0  0
  -25.9920  -38.3680   23.9260 H   0  0  0  0  0  0  0  0  0  0  0  0
  -26.3740  -31.8010   25.1840 C   0  0  1  0  0  0  0  0  0  0  0  0
  -25.2640  -31.5580   26.2340 C   0  0  0  0  0  1  0  0  0  0  0  0
  -26.9830  -30.4300   24.8100 C   0  0  0  0  0  1  0  0  0  0  0  0
  -27.5040  -32.6150   25.8600 C   0  0  0  0  0  1  0  0  0  0  0  0
  2  3  1  0
  4  7  2  0
  4  5  1  0
  5 17  1  0
  5  2  2  0
  6  1  1  0
  6  3  2  0
  7  6  1  0
  8  7  1  0
  9 17  1  0
 10 15  1  0
 11 12  1  0
 11 10  1  0
 13 12  1  0
 13 22  1  0
 13 14  1  0
 15  9  1  0
 15 14  1  0
 16  9  2  0
 17 18  1  0
 19 20  2  0
 20 39  1  0
 21 20  1  0
 21 24  1  0
 22 23  1  0
 22 19  1  0
 23 21  2  0
 24 25  1  0
 25 26  2  0
 27 30  1  0
 27 26  1  0
 28 27  2  0
 29 28  1  0
 29 24  2  0
 30 31  1  0
 31 32  1  0
 32 33  2  0
 34 33  1  0
 34 38  1  0
 35 34  2  0
 36 31  2  0
 36 35  1  0
 37 36  1  0
 39 40  1  0
 40 43  1  0
 40 42  1  0
 41 39  2  0
 44 45  1  0
 44 19  1  0
 46 44  1  0
 47 48  1  0
 47  1  1  0
 49 50  1  0
 49 48  1  0
 51 53  1  0
 51 50  1  0
 52 63  2  0
 53 58  1  0
 54 62  1  0
 54 64  1  0
 55 61  1  0
 55 57  1  0
 56 62  1  0
 57 58  2  0
 57 56  1  0
 59 53  2  0
 60 59  1  0
 60 55  2  0
 61 54  1  0
 62 52  1  0
 64 66  2  0
 65 64  1  0
 67 65  1  0
 68 77  2  0
 68 73  1  0
 69 65  1  0
 69 73  1  0
 70 69  1  0
 71 72  1  0
 71 70  1  0
 72 68  1  0
 73 74  2  0
 74 75  1  0
 76 75  2  0
 77 76  1  0
 78 52  1  0
 78 79  1  0
 78 88  1  0
 79 82  1  0
 80 84  1  0
 80 79  1  0
 81 80  2  0
 84 83  1  0
 86 84  1  0
 86 87  1  0
 86 85  1  0
 88 91  1  1
 88 89  1  0
 90 88  1  0
M  ISO  4   9 100  17 100  50 101  51 101
M  END
>  <TORSDO>  (11) 
F 21

>  <SCORE>  (11) 
-13.563

>  <name>  (11) 
10

>  <ligand_id>  (11) 
10

>  <original_smiles>  (11) 
[H]c1c([H])c([H])c2c(c1[H])C([H])([H])C([H])([H])C([H])([H])C2([H])N([H])C(=O)C1([H])N(C(=O)C([H])(N([H])C(=O)C([H])(N([H])C([H])([H])[H])C([H])([H])[H])C(C([H])([H])[H])(C([H])([H])[H])C([H])([H])[H])C([H])([H])c2c([H])c(OC([H])([H])C([H])([H])C([H])([H])C([H])([H])Oc3c([H])c([H])c(N([H])C(=O)N4C([H])([H])C([H])([H])C([H])([H])C([H])(n5nc(-c6c([H])c([H])c(Oc7c([H])c([H])c(F)c([H])c7F)c([H])c6[H])c(C(=O)N([H])[H])c5N([H])[H])C4([H])[H])c([H])c3F)c([H])c([H])c2C1([H])[H]

>  <smiles>  (11) 
[H]c1c([H])c([H])c2c(c1[H])C([H])([H])C([H])([H])C([H])([H])C2([H])N([H])C(=O)C1([H])N(C(=O)C([H])(N([H])C(=O)C([H])(N([H])C([H])([H])[H])C([H])([H])[H])C(C([H])([H])[H])(C([H])([H])[H])C([H])([H])[H])C([H])([H])c2c([H])c(OC([H])([H])C([H])([H])C([H])([H])C([H])([H])Oc3c([H])c([H])c(N([H])C(=O)N4C([H])([H])C([H])([H])C([H])([H])C([H])(n5nc(-c6c([H])c([H])c(Oc7c([H])c([H])c(F)c([H])c7F)c([H])c6[H])c(C(=O)N([H])[H])c5N([H])[H])C4([H])[H])c([H])c3F)c([H])c([H])c2C1([H])[H]

$$$$
11:0:0
     RDKit          3D

 95103  0  0  1  0  0  0  0  0999 V2000
  -31.2910  -19.0340   21.0110 C   0  0  0  0  0  3  0  0  0  0  0  0
  -30.7860  -20.3220   21.2930 C   0  0  0  0  0  3  0  0  0  0  0  0
  -30.2400  -20.6180   18.9480 C   0  0  0  0  0  3  0  0  0  0  0  0
  -31.2750  -18.5240   19.6940 C   0  0  0  0  0  0  0  0  0  0  0  0
  -30.2820  -21.1460   20.2580 C   0  0  0  0  0  0  0  0  0  0  0  0
  -30.7180  -19.3200   18.6670 C   0  0  0  0  0  0  0  0  0  0  0  0
  -30.6790  -18.8550   17.3950 F   0  0  0  0  0  0  0  0  0  0  0  0
  -31.9680  -17.1970   19.3610 C   0  0  0  0  0  2  0  0  0  0  0  0
  -31.9620  -14.7890   19.3490 C   0  0  0  0  0  0  0  0  0  0  0  0
  -31.3870  -12.6120   18.3220 C   0  0  0  0  0  2  0  0  0  0  0  0
  -30.2500  -12.7720   17.2920 C   0  0  0  0  0  2  0  0  0  0  0  0
  -28.8730  -12.6780   17.9770 C   0  0  0  0  0  2  0  0  0  0  0  0
  -28.7770  -13.5640   19.2480 C   0  0  0  0  0  3  0  0  0  0  0  0
  -30.0050  -13.3430   20.1500 C   0  0  0  0  0  2  0  0  0  0  0  0
  -31.2090  -13.6460   19.3630 N   0  0  0  0  0  0  0  0  0  0  0  0
  -32.9410  -14.8730   18.5940 O   0  0  0  0  0  0  0  0  0  0  0  0
  -31.5010  -15.9190   19.9720 N   0  0  0  0  0  0  0  0  0  0  0  0
  -26.6930  -14.2390   20.5970 C   0  0  0  0  0  0  0  0  0  0  0  0
  -25.6300  -13.5140   21.0630 C   0  0  0  0  0  0  0  0  0  0  0  0
  -25.8760  -12.1610   20.6770 C   0  0  0  0  0  0  0  0  0  0  0  0
  -27.5290  -13.3290   19.9710 N   0  0  0  0  0  0  0  0  0  0  0  0
  -27.0520  -12.0620   20.0710 N   0  0  0  0  0  0  0  0  0  0  0  0
  -25.0330  -10.9640   20.7980 C   0  0  0  0  0  0  0  0  0  0  0  0
  -25.4200   -9.8660   21.5980 C   0  0  0  0  0  3  0  0  0  0  0  0
  -24.5860   -8.7340   21.7140 C   0  0  0  0  0  3  0  0  0  0  0  0
  -23.3480   -8.6920   21.0280 C   0  0  0  0  0  0  0  0  0  0  0  0
  -22.9780   -9.7780   20.2140 C   0  0  0  0  0  3  0  0  0  0  0  0
  -23.8130  -10.9010   20.0960 C   0  0  0  0  0  3  0  0  0  0  0  0
  -22.4840   -7.6250   21.0600 O   0  0  0  0  0  0  0  0  0  0  0  0
  -22.2240   -6.9410   22.2220 C   0  0  0  0  0  0  0  0  0  0  0  0
  -21.7340   -7.5920   23.3750 C   0  0  0  0  0  3  0  0  0  0  0  0
  -21.4170   -6.8420   24.5250 C   0  0  0  0  0  3  0  0  0  0  0  0
  -21.5820   -5.4430   24.5210 C   0  0  0  0  0  0  0  0  0  0  0  0
  -22.0650   -4.7940   23.3720 C   0  0  0  0  0  3  0  0  0  0  0  0
  -22.3830   -5.5410   22.2250 C   0  0  0  0  0  0  0  0  0  0  0  0
  -22.8290   -4.9080   21.1120 F   0  0  0  0  0  0  0  0  0  0  0  0
  -21.2700   -4.7210   25.6220 F   0  0  0  0  0  0  0  0  0  0  0  0
  -24.4040  -14.0560   21.7420 C   0  0  0  0  0  0  0  0  0  0  0  0
  -23.8100  -13.2840   22.6450 N   0  0  0  0  0  0  0  0  0  0  0  0
  -23.9930  -15.1920   21.5080 O   0  0  0  0  0  0  0  0  0  0  0  0
  -24.1560  -12.3570   22.8490 H   0  0  0  0  0  0  0  0  0  0  0  0
  -22.9980  -13.6240   23.1400 H   0  0  0  0  0  0  0  0  0  0  0  0
  -27.0080  -15.5950   20.6340 N   0  0  0  0  0  0  0  0  0  0  0  0
  -26.3880  -16.2860   21.0410 H   0  0  0  0  0  0  0  0  0  0  0  0
  -27.8330  -16.0000   20.2140 H   0  0  0  0  0  0  0  0  0  0  0  0
  -31.3560  -15.9780   21.4390 C   0  0  0  0  0  2  0  0  0  0  0  0
  -29.8560  -16.5780   23.4160 C   0  0  0  0  0  1  0  0  0  0  0  0
  -29.9590  -16.4610   21.8940 C   0  0  0  0  0  2  0  0  0  0  0  0
  -29.8520  -22.4730   20.4900 N   0  0  0  0  0  0  0  0  0  0  0  0
  -30.7030  -23.6740   22.5350 C   0  0  0  0  0  1  0  0  0  0  0  0
  -29.5740  -22.8680   21.8730 C   0  0  0  0  0  2  0  0  0  0  0  0
  -30.3010  -23.4640   19.4990 C   0  0  0  0  0  2  0  0  0  0  0  0
  -29.2510  -24.5500   19.1250 C   0  0  0  0  0  2  0  0  0  0  0  0
  -29.4650  -25.9210   19.8180 C   0  0  0  0  0  2  0  0  0  0  0  0
  -29.0750  -27.0350   19.0050 O   0  0  0  0  0  0  0  0  0  0  0  0
  -24.6280  -30.9810   22.9400 C   0  0  0  0  0  0  0  0  0  0  0  0
  -27.8060  -27.5210   19.1970 C   0  0  0  0  0  0  0  0  0  0  0  0
  -23.5890  -29.6430   21.1380 C   0  0  0  0  0  3  0  0  0  0  0  0
  -25.2050  -28.5830   19.4730 C   0  0  0  0  0  0  0  0  0  0  0  0
  -26.0060  -30.4470   20.9350 C   0  0  0  0  0  2  0  0  0  0  0  0
  -26.2860  -29.2100   20.1050 C   0  0  0  0  0  0  0  0  0  0  0  0
  -27.5910  -28.6880   19.9640 C   0  0  0  0  0  3  0  0  0  0  0  0
  -26.7120  -26.8980   18.5630 C   0  0  0  0  0  3  0  0  0  0  0  0
  -25.4120  -27.4250   18.6990 C   0  0  0  0  0  3  0  0  0  0  0  0
  -23.8410  -29.2060   19.6690 C   0  0  0  0  0  2  0  0  0  0  0  0
  -24.7590  -30.3660   21.7310 N   0  0  0  0  0  0  0  0  0  0  0  0
  -23.5450  -30.9920   23.5410 O   0  0  0  0  0  0  0  0  0  0  0  0
  -23.1560  -28.4030   21.9530 C   0  0  0  0  0  0  0  0  0  0  0  0
  -21.8850  -28.0010   21.7990 N   0  0  0  0  0  0  0  0  0  0  0  0
  -23.9590  -27.8120   22.6800 O   0  0  0  0  0  0  0  0  0  0  0  0
  -21.2890  -28.5460   21.1920 H   0  0  0  0  0  0  0  0  0  0  0  0
  -18.8110  -26.1210   22.0670 C   0  0  0  0  0  0  0  0  0  0  0  0
  -21.2670  -26.8370   22.4330 C   0  0  0  0  0  3  0  0  0  0  0  0
  -21.6510  -25.5330   21.6970 C   0  0  0  0  0  2  0  0  0  0  0  0
  -20.6360  -25.1260   20.6240 C   0  0  0  0  0  2  0  0  0  0  0  0
  -19.2510  -24.9210   21.2450 C   0  0  0  0  0  2  0  0  0  0  0  0
  -19.7570  -27.0290   22.6100 C   0  0  0  0  0  0  0  0  0  0  0  0
  -19.2940  -28.1470   23.3370 C   0  0  0  0  0  3  0  0  0  0  0  0
  -17.9160  -28.3630   23.5260 C   0  0  0  0  0  3  0  0  0  0  0  0
  -16.9840  -27.4510   22.9980 C   0  0  0  0  0  3  0  0  0  0  0  0
  -17.4320  -26.3310   22.2760 C   0  0  0  0  0  3  0  0  0  0  0  0
  -25.8260  -31.7220   23.6170 C   0  0  0  0  0  3  0  0  0  0  0  0
  -25.3680  -33.0710   23.9730 N   0  0  0  0  0  0  0  0  0  0  0  0
  -25.6450  -34.1770   23.2690 C   0  0  0  0  0  0  0  0  0  0  0  0
  -26.3820  -34.1750   22.2790 O   0  0  0  0  0  0  0  0  0  0  0  0
  -24.7080  -33.1390   24.7350 H   0  0  0  0  0  0  0  0  0  0  0  0
  -23.7780  -35.8130   22.8640 C   0  0  0  0  0  1  0  0  0  0  0  0
  -25.0020  -35.4960   23.7390 C   0  0  0  0  0  3  0  0  0  0  0  0
  -26.9800  -36.5480   24.7410 C   0  0  0  0  0  1  0  0  0  0  0  0
  -25.9350  -36.6430   23.7240 N   0  0  0  0  0  0  0  0  0  0  0  0
  -25.4330  -37.5160   23.8670 H   0  0  0  0  0  0  0  0  0  0  0  0
  -26.3870  -30.9680   24.8840 C   0  0  1  0  0  0  0  0  0  0  0  0
  -25.3010  -30.6000   25.9230 C   0  0  0  0  0  1  0  0  0  0  0  0
  -27.1020  -29.6620   24.4680 C   0  0  0  0  0  1  0  0  0  0  0  0
  -27.4490  -31.8460   25.5890 C   0  0  0  0  0  1  0  0  0  0  0  0
  1  2  1  0
  3  5  1  0
  4  1  2  0
  5 49  1  0
  5  2  2  0
  6  3  2  0
  6  4  1  0
  7  6  1  0
  8  4  1  0
  8 17  1  0
  9 15  1  0
  9 17  1  0
 10 15  1  0
 11 12  1  0
 11 10  1  0
 13 12  1  0
 13 21  1  0
 13 14  1  0
 15 14  1  0
 16  9  2  0
 17 46  1  0
 18 43  1  0
 18 19  2  0
 19 38  1  0
 20 23  1  0
 20 19  1  0
 21 22  1  0
 21 18  1  0
 22 20  2  0
 23 24  1  0
 24 25  2  0
 26 29  1  0
 26 25  1  0
 27 26  2  0
 28 27  1  0
 28 23  2  0
 29 30  1  0
 30 35  2  0
 30 31  1  0
 31 32  2  0
 33 32  1  0
 33 37  1  0
 34 33  2  0
 35 34  1  0
 36 35  1  0
 38 39  1  0
 39 41  1  0
 39 42  1  0
 40 38  2  0
 43 44  1  0
 45 43  1  0
 46 48  1  0
 48 47  1  0
 49 51  1  0
 51 50  1  0
 52 49  1  0
 53 52  1  0
 53 54  1  0
 55 57  1  0
 55 54  1  0
 56 67  2  0
 57 62  1  0
 58 66  1  0
 58 68  1  0
 59 65  1  0
 59 61  1  0
 60 66  1  0
 61 60  1  0
 62 61  2  0
 63 64  1  0
 63 57  2  0
 64 59  2  0
 65 58  1  0
 66 56  1  0
 68 70  2  0
 69 68  1  0
 71 69  1  0
 72 81  2  0
 72 77  1  0
 73 69  1  0
 73 77  1  0
 74 73  1  0
 75 76  1  0
 75 74  1  0
 76 72  1  0
 77 78  2  0
 78 79  1  0
 80 79  2  0
 81 80  1  0
 82 56  1  0
 82 83  1  0
 82 92  1  0
 83 86  1  0
 84 88  1  0
 84 83  1  0
 85 84  2  0
 88 87  1  0
 90 88  1  0
 90 91  1  0
 90 89  1  0
 92 95  1  1
 92 93  1  0
 94 92  1  0
M  ISO  4   9 100  17 100  54 101  55 101
M  END
>  <TORSDO>  (12) 
F 24

>  <SCORE>  (12) 
-4.869

>  <name>  (12) 
11

>  <ligand_id>  (12) 
11

>  <original_smiles>  (12) 
[H]c1c([H])c([H])c2c(c1[H])C([H])([H])C([H])([H])C([H])([H])C2([H])N([H])C(=O)C1([H])N(C(=O)C([H])(N([H])C(=O)C([H])(N([H])C([H])([H])[H])C([H])([H])[H])C(C([H])([H])[H])(C([H])([H])[H])C([H])([H])[H])C([H])([H])c2c([H])c(OC([H])([H])C([H])([H])C([H])([H])N(c3c([H])c([H])c(C([H])([H])N(C(=O)N4C([H])([H])C([H])([H])C([H])([H])C([H])(n5nc(-c6c([H])c([H])c(Oc7c([H])c([H])c(F)c([H])c7F)c([H])c6[H])c(C(=O)N([H])[H])c5N([H])[H])C4([H])[H])C([H])([H])C([H])([H])C([H])([H])[H])c(F)c3[H])C([H])([H])C([H])([H])[H])c([H])c([H])c2C1([H])[H]

>  <smiles>  (12) 
[H]c1c([H])c([H])c2c(c1[H])C([H])([H])C([H])([H])C([H])([H])C2([H])N([H])C(=O)C1([H])N(C(=O)C([H])(N([H])C(=O)C([H])(N([H])C([H])([H])[H])C([H])([H])[H])C(C([H])([H])[H])(C([H])([H])[H])C([H])([H])[H])C([H])([H])c2c([H])c(OC([H])([H])C([H])([H])C([H])([H])N(c3c([H])c([H])c(C([H])([H])N(C(=O)N4C([H])([H])C([H])([H])C([H])([H])C([H])(n5nc(-c6c([H])c([H])c(Oc7c([H])c([H])c(F)c([H])c7F)c([H])c6[H])c(C(=O)N([H])[H])c5N([H])[H])C4([H])[H])C([H])([H])C([H])([H])C([H])([H])[H])c(F)c3[H])C([H])([H])C([H])([H])[H])c([H])c([H])c2C1([H])[H]

$$$$
12:0:0
     RDKit          3D

 91 99  0  0  1  0  0  0  0  0999 V2000
  -30.7250  -19.0090   19.7310 C   0  0  0  0  0  3  0  0  0  0  0  0
  -30.3580  -20.3680   19.8290 C   0  0  0  0  0  3  0  0  0  0  0  0
  -28.3870  -18.3890   19.5330 C   0  0  0  0  0  3  0  0  0  0  0  0
  -29.7470  -18.0090   19.5460 C   0  0  0  0  0  0  0  0  0  0  0  0
  -28.9980  -20.7640   19.7390 C   0  0  0  0  0  0  0  0  0  0  0  0
  -28.0180  -19.7500   19.6300 C   0  0  0  0  0  0  0  0  0  0  0  0
  -26.7070  -20.0870   19.5700 F   0  0  0  0  0  0  0  0  0  0  0  0
  -30.1710  -16.5730   19.2180 C   0  0  0  0  0  2  0  0  0  0  0  0
  -31.1370  -14.4970   20.0290 C   0  0  0  0  0  0  0  0  0  0  0  0
  -30.7430  -12.3200   18.9430 C   0  0  0  0  0  2  0  0  0  0  0  0
  -29.7580  -12.5280   17.7730 C   0  0  0  0  0  2  0  0  0  0  0  0
  -28.2990  -12.4330   18.2650 C   0  0  0  0  0  2  0  0  0  0  0  0
  -28.0330  -13.3010   19.5240 C   0  0  0  0  0  3  0  0  0  0  0  0
  -29.1270  -13.0780   20.5910 C   0  0  0  0  0  2  0  0  0  0  0  0
  -30.4320  -13.3340   19.9620 N   0  0  0  0  0  0  0  0  0  0  0  0
  -32.2670  -14.6150   19.5430 O   0  0  0  0  0  0  0  0  0  0  0  0
  -30.3400  -16.0940   21.6910 C   0  0  0  0  0  1  0  0  0  0  0  0
  -30.4020  -15.6010   20.3120 N   0  0  0  0  0  0  0  0  0  0  0  0
  -25.7000  -13.9920   20.3600 C   0  0  0  0  0  0  0  0  0  0  0  0
  -24.6180  -13.2570   20.7640 C   0  0  0  0  0  0  0  0  0  0  0  0
  -25.0210  -11.8880   20.6850 C   0  0  0  0  0  0  0  0  0  0  0  0
  -26.6940  -13.0730   20.0620 N   0  0  0  0  0  0  0  0  0  0  0  0
  -26.2920  -11.8020   20.3150 N   0  0  0  0  0  0  0  0  0  0  0  0
  -24.2530  -10.6530   20.8850 C   0  0  0  0  0  0  0  0  0  0  0  0
  -24.6410   -9.6920   21.8440 C   0  0  0  0  0  3  0  0  0  0  0  0
  -23.8790   -8.5190   22.0310 C   0  0  0  0  0  3  0  0  0  0  0  0
  -22.7130   -8.3010   21.2580 C   0  0  0  0  0  0  0  0  0  0  0  0
  -22.3440   -9.2510   20.2880 C   0  0  0  0  0  3  0  0  0  0  0  0
  -23.1070  -10.4140   20.1000 C   0  0  0  0  0  3  0  0  0  0  0  0
  -21.9230   -7.1810   21.3530 O   0  0  0  0  0  0  0  0  0  0  0  0
  -21.7720   -6.5050   22.5370 C   0  0  0  0  0  0  0  0  0  0  0  0
  -21.2260   -7.1220   23.6840 C   0  0  0  0  0  3  0  0  0  0  0  0
  -21.0240   -6.3700   24.8590 C   0  0  0  0  0  3  0  0  0  0  0  0
  -21.3590   -5.0030   24.8870 C   0  0  0  0  0  0  0  0  0  0  0  0
  -21.8970   -4.3860   23.7440 C   0  0  0  0  0  3  0  0  0  0  0  0
  -22.1010   -5.1340   22.5720 C   0  0  0  0  0  0  0  0  0  0  0  0
  -22.6020   -4.5290   21.4680 F   0  0  0  0  0  0  0  0  0  0  0  0
  -21.1570   -4.2790   26.0130 F   0  0  0  0  0  0  0  0  0  0  0  0
  -23.2570  -13.7850   21.1110 C   0  0  0  0  0  0  0  0  0  0  0  0
  -22.5420  -13.1030   22.0020 N   0  0  0  0  0  0  0  0  0  0  0  0
  -22.8370  -14.8370   20.6320 O   0  0  0  0  0  0  0  0  0  0  0  0
  -22.8950  -12.2530   22.4130 H   0  0  0  0  0  0  0  0  0  0  0  0
  -21.6290  -13.4390   22.2740 H   0  0  0  0  0  0  0  0  0  0  0  0
  -25.9130  -15.3570   20.2010 N   0  0  0  0  0  0  0  0  0  0  0  0
  -25.1840  -16.0430   20.3640 H   0  0  0  0  0  0  0  0  0  0  0  0
  -26.7700  -15.7630   19.8490 H   0  0  0  0  0  0  0  0  0  0  0  0
  -28.5790  -22.0870   19.7270 O   0  0  0  0  0  0  0  0  0  0  0  0
  -29.5540  -23.0880   19.4150 C   0  0  0  0  0  2  0  0  0  0  0  0
  -28.9410  -24.4720   19.1010 C   0  0  0  0  0  2  0  0  0  0  0  0
  -28.5150  -25.3000   20.3290 C   0  0  0  0  0  2  0  0  0  0  0  0
  -28.5640  -26.7080   20.0580 O   0  0  0  0  0  0  0  0  0  0  0  0
  -24.6650  -31.7220   23.2450 C   0  0  0  0  0  0  0  0  0  0  0  0
  -27.3760  -27.4050   20.0640 C   0  0  0  0  0  0  0  0  0  0  0  0
  -23.4940  -30.3870   21.5210 C   0  0  0  0  0  3  0  0  0  0  0  0
  -24.9780  -28.9000   20.0720 C   0  0  0  0  0  0  0  0  0  0  0  0
  -26.0210  -30.7540   21.3910 C   0  0  0  0  0  2  0  0  0  0  0  0
  -26.1210  -29.4090   20.7010 C   0  0  0  0  0  0  0  0  0  0  0  0
  -27.3250  -28.6720   20.6860 C   0  0  0  0  0  3  0  0  0  0  0  0
  -26.2170  -26.9030   19.4340 C   0  0  0  0  0  3  0  0  0  0  0  0
  -25.0200  -27.6460   19.4350 C   0  0  0  0  0  3  0  0  0  0  0  0
  -23.7330  -29.7570   20.1210 C   0  0  0  0  0  2  0  0  0  0  0  0
  -24.7430  -30.9660   22.1120 N   0  0  0  0  0  0  0  0  0  0  0  0
  -23.5720  -31.9740   23.7720 O   0  0  0  0  0  0  0  0  0  0  0  0
  -22.8210  -29.3310   22.4270 C   0  0  0  0  0  0  0  0  0  0  0  0
  -21.4940  -29.1830   22.2890 N   0  0  0  0  0  0  0  0  0  0  0  0
  -23.4900  -28.6500   23.2090 O   0  0  0  0  0  0  0  0  0  0  0  0
  -21.0160  -29.7850   21.6340 H   0  0  0  0  0  0  0  0  0  0  0  0
  -18.0870  -28.0790   22.7640 C   0  0  0  0  0  0  0  0  0  0  0  0
  -20.6560  -28.2230   23.0080 C   0  0  0  0  0  3  0  0  0  0  0  0
  -20.6960  -26.8340   22.3310 C   0  0  0  0  0  2  0  0  0  0  0  0
  -19.5670  -26.6240   21.3170 C   0  0  0  0  0  2  0  0  0  0  0  0
  -18.2020  -26.7740   21.9950 C   0  0  0  0  0  2  0  0  0  0  0  0
  -19.2400  -28.7680   23.2270 C   0  0  0  0  0  0  0  0  0  0  0  0
  -19.0790  -29.9940   23.9070 C   0  0  0  0  0  3  0  0  0  0  0  0
  -17.7980  -30.5310   24.1290 C   0  0  0  0  0  3  0  0  0  0  0  0
  -16.6580  -29.8370   23.6840 C   0  0  0  0  0  3  0  0  0  0  0  0
  -16.8040  -28.6130   23.0080 C   0  0  0  0  0  3  0  0  0  0  0  0
  -25.9370  -32.3250   23.9160 C   0  0  0  0  0  3  0  0  0  0  0  0
  -25.6230  -33.7080   24.2990 N   0  0  0  0  0  0  0  0  0  0  0  0
  -25.9680  -34.7900   23.5880 C   0  0  0  0  0  0  0  0  0  0  0  0
  -26.6530  -34.7280   22.5630 O   0  0  0  0  0  0  0  0  0  0  0  0
  -25.0190  -33.8300   25.0980 H   0  0  0  0  0  0  0  0  0  0  0  0
  -24.2500  -36.5960   23.2670 C   0  0  0  0  0  1  0  0  0  0  0  0
  -25.4710  -36.1580   24.0920 C   0  0  0  0  0  3  0  0  0  0  0  0
  -27.5790  -37.0090   25.0190 C   0  0  0  0  0  1  0  0  0  0  0  0
  -26.5070  -37.2130   24.0480 N   0  0  0  0  0  0  0  0  0  0  0  0
  -26.0970  -38.1270   24.2180 H   0  0  0  0  0  0  0  0  0  0  0  0
  -26.4330  -31.5000   25.1670 C   0  0  1  0  0  0  0  0  0  0  0  0
  -25.3210  -31.2090   26.2010 C   0  0  0  0  0  1  0  0  0  0  0  0
  -27.0310  -30.1440   24.7220 C   0  0  0  0  0  1  0  0  0  0  0  0
  -27.5650  -32.2680   25.8880 C   0  0  0  0  0  1  0  0  0  0  0  0
  1  2  1  0
  3  4  1  0
  3  6  2  0
  4  1  2  0
  5  2  2  0
  6  5  1  0
  7  6  1  0
  8  4  1  0
  8 18  1  0
  9 18  1  0
 10 15  1  0
 11 12  1  0
 11 10  1  0
 13 12  1  0
 13 22  1  0
 13 14  1  0
 15  9  1  0
 15 14  1  0
 16  9  2  0
 18 17  1  0
 19 20  2  0
 20 39  1  0
 21 20  1  0
 21 24  1  0
 22 23  1  0
 22 19  1  0
 23 21  2  0
 24 25  1  0
 25 26  2  0
 27 30  1  0
 27 26  1  0
 28 27  2  0
 29 28  1  0
 29 24  2  0
 30 31  1  0
 31 36  2  0
 31 32  1  0
 32 33  2  0
 33 34  1  0
 34 38  1  0
 35 34  2  0
 36 35  1  0
 37 36  1  0
 39 40  1  0
 40 43  1  0
 40 42  1  0
 41 39  2  0
 44 19  1  0
 44 45  1  0
 46 44  1  0
 47  5  1  0
 48 47  1  0
 49 48  1  0
 49 50  1  0
 51 53  1  0
 51 50  1  0
 52 63  2  0
 53 58  1  0
 54 62  1  0
 54 64  1  0
 55 61  1  0
 55 57  1  0
 56 62  1  0
 57 56  1  0
 58 57  2  0
 59 60  1  0
 59 53  2  0
 60 55  2  0
 61 54  1  0
 62 52  1  0
 64 66  2  0
 65 64  1  0
 67 65  1  0
 68 77  2  0
 68 73  1  0
 69 65  1  0
 69 73  1  0
 70 69  1  0
 71 72  1  0
 71 70  1  0
 72 68  1  0
 73 74  2  0
 74 75  1  0
 76 75  2  0
 77 76  1  0
 78 52  1  0
 78 79  1  0
 78 88  1  0
 79 82  1  0
 80 84  1  0
 80 79  1  0
 81 80  2  0
 84 83  1  0
 86 84  1  0
 86 87  1  0
 86 85  1  0
 88 91  1  1
 88 89  1  0
 90 88  1  0
M  ISO  4   9 100  18 100  50 101  51 101
M  END
>  <TORSDO>  (13) 
F 21

>  <SCORE>  (13) 
-12.990

>  <name>  (13) 
12

>  <ligand_id>  (13) 
12

>  <original_smiles>  (13) 
[H]c1c([H])c([H])c2c(c1[H])C([H])([H])C([H])([H])C([H])([H])C2([H])N([H])C(=O)C1([H])N(C(=O)C([H])(N([H])C(=O)C([H])(N([H])C([H])([H])[H])C([H])([H])[H])C(C([H])([H])[H])(C([H])([H])[H])C([H])([H])[H])C([H])([H])c2c([H])c(OC([H])([H])C([H])([H])C([H])([H])Oc3c([H])c([H])c(C([H])([H])N(C(=O)N4C([H])([H])C([H])([H])C([H])([H])C([H])(n5nc(-c6c([H])c([H])c(Oc7c([H])c([H])c(F)c([H])c7F)c([H])c6[H])c(C(=O)N([H])[H])c5N([H])[H])C4([H])[H])C([H])([H])[H])c([H])c3F)c([H])c([H])c2C1([H])[H]

>  <smiles>  (13) 
[H]c1c([H])c([H])c2c(c1[H])C([H])([H])C([H])([H])C([H])([H])C2([H])N([H])C(=O)C1([H])N(C(=O)C([H])(N([H])C(=O)C([H])(N([H])C([H])([H])[H])C([H])([H])[H])C(C([H])([H])[H])(C([H])([H])[H])C([H])([H])[H])C([H])([H])c2c([H])c(OC([H])([H])C([H])([H])C([H])([H])Oc3c([H])c([H])c(C([H])([H])N(C(=O)N4C([H])([H])C([H])([H])C([H])([H])C([H])(n5nc(-c6c([H])c([H])c(Oc7c([H])c([H])c(F)c([H])c7F)c([H])c6[H])c(C(=O)N([H])[H])c5N([H])[H])C4([H])[H])C([H])([H])[H])c([H])c3F)c([H])c([H])c2C1([H])[H]

$$$$
13:0:0
     RDKit          3D

 91 99  0  0  1  0  0  0  0  0999 V2000
  -29.0370  -22.0210   21.7240 C   0  0  0  0  0  1  0  0  0  0  0  0
  -29.3030  -21.5410   20.3650 N   0  0  0  0  0  0  0  0  0  0  0  0
  -30.1550  -19.4690   19.0760 C   0  0  0  0  0  3  0  0  0  0  0  0
  -30.3920  -18.0470   19.0120 C   0  0  0  0  0  3  0  0  0  0  0  0
  -29.1720  -19.1960   21.2300 C   0  0  0  0  0  3  0  0  0  0  0  0
  -29.4350  -17.7960   21.1970 C   0  0  0  0  0  0  0  0  0  0  0  0
  -29.5490  -20.1100   20.2030 C   0  0  0  0  0  0  0  0  0  0  0  0
  -30.0600  -17.1700   20.0860 C   0  0  0  0  0  0  0  0  0  0  0  0
  -29.0400  -16.9560   22.4030 C   0  0  0  0  0  1  0  0  0  0  0  0
  -30.9790  -14.7330   19.5820 C   0  0  0  0  0  0  0  0  0  0  0  0
  -30.7360  -12.5030   18.4960 C   0  0  0  0  0  2  0  0  0  0  0  0
  -29.6180  -12.6270   17.4330 C   0  0  0  0  0  2  0  0  0  0  0  0
  -28.2190  -12.4410   18.0580 C   0  0  0  0  0  2  0  0  0  0  0  0
  -28.0320  -13.2530   19.3660 C   0  0  0  0  0  3  0  0  0  0  0  0
  -29.2390  -13.0490   20.3070 C   0  0  0  0  0  2  0  0  0  0  0  0
  -30.4440  -13.4690   19.5710 N   0  0  0  0  0  0  0  0  0  0  0  0
  -32.0710  -14.9720   19.0520 O   0  0  0  0  0  0  0  0  0  0  0  0
  -30.1440  -15.6990   20.0890 N   0  0  0  0  0  0  0  0  0  0  0  0
  -29.3680  -15.2620   20.5670 H   0  0  0  0  0  0  0  0  0  0  0  0
  -25.8180  -13.8080   20.5490 C   0  0  0  0  0  0  0  0  0  0  0  0
  -24.7860  -13.0160   20.9780 C   0  0  0  0  0  0  0  0  0  0  0  0
  -25.1700  -11.6730   20.6780 C   0  0  0  0  0  0  0  0  0  0  0  0
  -26.7670  -12.9430   20.0230 N   0  0  0  0  0  0  0  0  0  0  0  0
  -26.3900  -11.6480   20.1570 N   0  0  0  0  0  0  0  0  0  0  0  0
  -24.4220  -10.4150   20.8010 C   0  0  0  0  0  0  0  0  0  0  0  0
  -24.8870   -9.3550   21.6090 C   0  0  0  0  0  3  0  0  0  0  0  0
  -24.1410   -8.1610   21.7230 C   0  0  0  0  0  3  0  0  0  0  0  0
  -22.9140   -8.0230   21.0330 C   0  0  0  0  0  0  0  0  0  0  0  0
  -22.4680   -9.0730   20.2110 C   0  0  0  0  0  3  0  0  0  0  0  0
  -23.2140  -10.2580   20.0940 C   0  0  0  0  0  3  0  0  0  0  0  0
  -22.1340   -6.8920   21.0690 O   0  0  0  0  0  0  0  0  0  0  0  0
  -22.0550   -6.1070   22.1900 C   0  0  0  0  0  0  0  0  0  0  0  0
  -21.6470   -6.6270   23.4380 C   0  0  0  0  0  3  0  0  0  0  0  0
  -21.5150   -5.7700   24.5490 C   0  0  0  0  0  3  0  0  0  0  0  0
  -21.7770   -4.3930   24.4110 C   0  0  0  0  0  0  0  0  0  0  0  0
  -22.1780   -3.8730   23.1690 C   0  0  0  0  0  3  0  0  0  0  0  0
  -22.3120   -4.7270   22.0600 C   0  0  0  0  0  0  0  0  0  0  0  0
  -22.6780   -4.2160   20.8600 F   0  0  0  0  0  0  0  0  0  0  0  0
  -21.6410   -3.5680   25.4770 F   0  0  0  0  0  0  0  0  0  0  0  0
  -23.4750  -13.4840   21.5390 C   0  0  0  0  0  0  0  0  0  0  0  0
  -22.8770  -12.7040   22.4330 N   0  0  0  0  0  0  0  0  0  0  0  0
  -22.9980  -14.5720   21.2230 O   0  0  0  0  0  0  0  0  0  0  0  0
  -23.2750  -11.8180   22.7040 H   0  0  0  0  0  0  0  0  0  0  0  0
  -22.0070  -13.0000   22.8510 H   0  0  0  0  0  0  0  0  0  0  0  0
  -26.0190  -15.1840   20.5370 N   0  0  0  0  0  0  0  0  0  0  0  0
  -25.3050  -15.8330   20.8520 H   0  0  0  0  0  0  0  0  0  0  0  0
  -26.7910  -15.6520   20.0770 H   0  0  0  0  0  0  0  0  0  0  0  0
  -29.8010  -22.6670   19.5090 C   0  0  0  0  0  2  0  0  0  0  0  0
  -28.8500  -23.9520   19.3060 C   0  0  0  0  0  2  0  0  0  0  0  0
  -28.8130  -25.1700   20.3430 C   0  0  0  0  0  2  0  0  0  0  0  0
  -28.7930  -26.5850   19.8930 O   0  0  0  0  0  0  0  0  0  0  0  0
  -24.8420  -31.6930   23.1770 C   0  0  0  0  0  0  0  0  0  0  0  0
  -27.6170  -27.3390   19.9610 C   0  0  0  0  0  0  0  0  0  0  0  0
  -23.6880  -30.3030   21.4920 C   0  0  0  0  0  3  0  0  0  0  0  0
  -25.1880  -28.8480   20.0150 C   0  0  0  0  0  0  0  0  0  0  0  0
  -26.2070  -30.7220   21.3140 C   0  0  0  0  0  2  0  0  0  0  0  0
  -26.3390  -29.3690   20.6220 C   0  0  0  0  0  0  0  0  0  0  0  0
  -27.5570  -28.6290   20.5770 C   0  0  0  0  0  3  0  0  0  0  0  0
  -26.4400  -26.8570   19.3540 C   0  0  0  0  0  3  0  0  0  0  0  0
  -25.2400  -27.5970   19.3730 C   0  0  0  0  0  3  0  0  0  0  0  0
  -23.9240  -29.6830   20.0900 C   0  0  0  0  0  2  0  0  0  0  0  0
  -24.9290  -30.9230   22.0530 N   0  0  0  0  0  0  0  0  0  0  0  0
  -23.7520  -31.9160   23.7220 O   0  0  0  0  0  0  0  0  0  0  0  0
  -23.0590  -29.2330   22.4170 C   0  0  0  0  0  0  0  0  0  0  0  0
  -21.7460  -28.9970   22.2640 N   0  0  0  0  0  0  0  0  0  0  0  0
  -23.7560  -28.6170   23.2290 O   0  0  0  0  0  0  0  0  0  0  0  0
  -21.2410  -29.5550   21.5900 H   0  0  0  0  0  0  0  0  0  0  0  0
  -18.4240  -27.6200   22.6730 C   0  0  0  0  0  0  0  0  0  0  0  0
  -20.9590  -28.0010   22.9990 C   0  0  0  0  0  3  0  0  0  0  0  0
  -21.1450  -26.5900   22.3940 C   0  0  0  0  0  2  0  0  0  0  0  0
  -20.0800  -26.2370   21.3490 C   0  0  0  0  0  2  0  0  0  0  0  0
  -18.6800  -26.2950   21.9690 C   0  0  0  0  0  2  0  0  0  0  0  0
  -19.4940  -28.4280   23.1400 C   0  0  0  0  0  0  0  0  0  0  0  0
  -19.2040  -29.6660   23.7540 C   0  0  0  0  0  3  0  0  0  0  0  0
  -17.8740  -30.0990   23.9050 C   0  0  0  0  0  3  0  0  0  0  0  0
  -16.8160  -29.2870   23.4570 C   0  0  0  0  0  3  0  0  0  0  0  0
  -17.0920  -28.0510   22.8470 C   0  0  0  0  0  3  0  0  0  0  0  0
  -26.1050  -32.3450   23.8210 C   0  0  0  0  0  3  0  0  0  0  0  0
  -26.6270  -31.5690   25.0940 C   0  0  1  0  0  0  0  0  0  0  0  0
  -25.5240  -31.2680   26.1370 C   0  0  0  0  0  1  0  0  0  0  0  0
  -27.2690  -30.2240   24.6830 C   0  0  0  0  0  1  0  0  0  0  0  0
  -27.7340  -32.3930   25.7930 C   0  0  0  0  0  1  0  0  0  0  0  0
  -25.7590  -33.7310   24.1680 N   0  0  0  0  0  0  0  0  0  0  0  0
  -26.0780  -34.8030   23.4310 C   0  0  0  0  0  0  0  0  0  0  0  0
  -26.7650  -34.7310   22.4090 O   0  0  0  0  0  0  0  0  0  0  0  0
  -25.1430  -33.8530   24.9570 H   0  0  0  0  0  0  0  0  0  0  0  0
  -24.3180  -36.5660   23.0790 C   0  0  0  0  0  1  0  0  0  0  0  0
  -25.5520  -36.1710   23.9040 C   0  0  0  0  0  3  0  0  0  0  0  0
  -27.6500  -37.0860   24.7910 C   0  0  0  0  0  1  0  0  0  0  0  0
  -26.5630  -37.2480   23.8300 N   0  0  0  0  0  0  0  0  0  0  0  0
  -26.1340  -38.1540   23.9950 H   0  0  0  0  0  0  0  0  0  0  0  0
  2  1  1  0
  3  7  1  0
  4  3  2  0
  4  8  1  0
  6  5  1  0
  6  9  1  0
  7  2  1  0
  7  5  2  0
  8 18  1  0
  8  6  2  0
 10 18  1  0
 11 16  1  0
 12 13  1  0
 12 11  1  0
 14 13  1  0
 14 23  1  0
 14 15  1  0
 16 10  1  0
 16 15  1  0
 17 10  2  0
 18 19  1  0
 20 21  2  0
 21 40  1  0
 22 25  1  0
 22 21  1  0
 23 24  1  0
 23 20  1  0
 24 22  2  0
 25 26  1  0
 26 27  2  0
 28 31  1  0
 28 27  1  0
 29 28  2  0
 30 29  1  0
 30 25  2  0
 31 32  1  0
 32 33  1  0
 33 34  2  0
 35 34  1  0
 35 39  1  0
 36 35  2  0
 37 32  2  0
 37 36  1  0
 38 37  1  0
 40 41  1  0
 41 43  1  0
 41 44  1  0
 42 40  2  0
 45 20  1  0
 45 46  1  0
 47 45  1  0
 48  2  1  0
 49 48  1  0
 49 50  1  0
 51 53  1  0
 51 50  1  0
 52 63  2  0
 53 58  1  0
 54 62  1  0
 54 64  1  0
 55 61  1  0
 55 57  1  0
 56 62  1  0
 57 56  1  0
 58 57  2  0
 59 60  1  0
 59 53  2  0
 60 55  2  0
 61 54  1  0
 62 52  1  0
 64 66  2  0
 65 64  1  0
 67 65  1  0
 68 77  2  0
 68 73  1  0
 69 65  1  0
 69 73  1  0
 70 69  1  0
 71 72  1  0
 71 70  1  0
 72 68  1  0
 73 74  2  0
 74 75  1  0
 76 75  2  0
 77 76  1  0
 78 52  1  0
 78 83  1  0
 78 79  1  0
 79 82  1  1
 79 80  1  0
 81 79  1  0
 83 86  1  0
 84 88  1  0
 84 83  1  0
 85 84  2  0
 88 87  1  0
 90 88  1  0
 90 91  1  0
 90 89  1  0
M  ISO  4  10 100  18 100  50 101  51 101
M  END
>  <TORSDO>  (14) 
F 20

>  <SCORE>  (14) 
-9.073

>  <name>  (14) 
13

>  <ligand_id>  (14) 
13

>  <original_smiles>  (14) 
[H]c1c([H])c([H])c2c(c1[H])C([H])([H])C([H])([H])C([H])([H])C2([H])N([H])C(=O)C1([H])N(C(=O)C([H])(N([H])C(=O)C([H])(N([H])C([H])([H])[H])C([H])([H])[H])C(C([H])([H])[H])(C([H])([H])[H])C([H])([H])[H])C([H])([H])c2c([H])c(OC([H])([H])C([H])([H])C([H])([H])N(c3c([H])c([H])c(N([H])C(=O)N4C([H])([H])C([H])([H])C([H])([H])C([H])(n5nc(-c6c([H])c([H])c(Oc7c([H])c([H])c(F)c([H])c7F)c([H])c6[H])c(C(=O)N([H])[H])c5N([H])[H])C4([H])[H])c(C([H])([H])[H])c3[H])C([H])([H])[H])c([H])c([H])c2C1([H])[H]

>  <smiles>  (14) 
[H]c1c([H])c([H])c2c(c1[H])C([H])([H])C([H])([H])C([H])([H])C2([H])N([H])C(=O)C1([H])N(C(=O)C([H])(N([H])C(=O)C([H])(N([H])C([H])([H])[H])C([H])([H])[H])C(C([H])([H])[H])(C([H])([H])[H])C([H])([H])[H])C([H])([H])c2c([H])c(OC([H])([H])C([H])([H])C([H])([H])N(c3c([H])c([H])c(N([H])C(=O)N4C([H])([H])C([H])([H])C([H])([H])C([H])(n5nc(-c6c([H])c([H])c(Oc7c([H])c([H])c(F)c([H])c7F)c([H])c6[H])c(C(=O)N([H])[H])c5N([H])[H])C4([H])[H])c(C([H])([H])[H])c3[H])C([H])([H])[H])c([H])c([H])c2C1([H])[H]

$$$$
14:0:0
     RDKit          3D

 92100  0  0  1  0  0  0  0  0999 V2000
  -29.7930  -21.6260   20.7590 C   0  0  0  0  0  2  0  0  0  0  0  0
  -31.0730  -19.3510   20.4490 C   0  0  0  0  0  3  0  0  0  0  0  0
  -31.1350  -17.9210   20.4350 C   0  0  0  0  0  3  0  0  0  0  0  0
  -28.6710  -19.2710   20.4520 C   0  0  0  0  0  3  0  0  0  0  0  0
  -29.8410  -20.0710   20.4880 C   0  0  0  0  0  0  0  0  0  0  0  0
  -29.9490  -17.1420   20.4530 C   0  0  0  0  0  0  0  0  0  0  0  0
  -28.7270  -17.8540   20.4260 C   0  0  0  0  0  0  0  0  0  0  0  0
  -27.5700  -17.1500   20.3980 F   0  0  0  0  0  0  0  0  0  0  0  0
  -30.6430  -14.6630   20.1690 C   0  0  0  0  0  0  0  0  0  0  0  0
  -30.3670  -12.4740   19.0340 C   0  0  0  0  0  2  0  0  0  0  0  0
  -29.3730  -12.6450   17.8650 C   0  0  0  0  0  2  0  0  0  0  0  0
  -27.9180  -12.4880   18.3470 C   0  0  0  0  0  2  0  0  0  0  0  0
  -27.6110  -13.3210   19.6200 C   0  0  0  0  0  3  0  0  0  0  0  0
  -28.7100  -13.1170   20.6900 C   0  0  0  0  0  2  0  0  0  0  0  0
  -30.0080  -13.4530   20.0770 N   0  0  0  0  0  0  0  0  0  0  0  0
  -31.7920  -14.8330   19.7550 O   0  0  0  0  0  0  0  0  0  0  0  0
  -29.8500  -15.6950   20.5690 N   0  0  0  0  0  0  0  0  0  0  0  0
  -28.9330  -15.3860   20.8550 H   0  0  0  0  0  0  0  0  0  0  0  0
  -25.2310  -13.9140   20.3950 C   0  0  0  0  0  0  0  0  0  0  0  0
  -24.1760  -13.1390   20.7890 C   0  0  0  0  0  0  0  0  0  0  0  0
  -24.6450  -11.7880   20.7510 C   0  0  0  0  0  0  0  0  0  0  0  0
  -26.2750  -13.0390   20.1400 N   0  0  0  0  0  0  0  0  0  0  0  0
  -25.9290  -11.7550   20.4130 N   0  0  0  0  0  0  0  0  0  0  0  0
  -23.9300  -10.5240   20.9570 C   0  0  0  0  0  0  0  0  0  0  0  0
  -24.3800   -9.5630   21.8900 C   0  0  0  0  0  3  0  0  0  0  0  0
  -23.6620   -8.3630   22.0830 C   0  0  0  0  0  3  0  0  0  0  0  0
  -22.4800   -8.1130   21.3450 C   0  0  0  0  0  0  0  0  0  0  0  0
  -22.0500   -9.0630   20.4010 C   0  0  0  0  0  3  0  0  0  0  0  0
  -22.7690  -10.2540   20.2050 C   0  0  0  0  0  3  0  0  0  0  0  0
  -21.7340   -6.9650   21.4500 O   0  0  0  0  0  0  0  0  0  0  0  0
  -21.6980   -6.2320   22.6110 C   0  0  0  0  0  0  0  0  0  0  0  0
  -21.2640   -6.7930   23.8320 C   0  0  0  0  0  3  0  0  0  0  0  0
  -21.1770   -5.9880   24.9860 C   0  0  0  0  0  3  0  0  0  0  0  0
  -21.5140   -4.6230   24.9190 C   0  0  0  0  0  0  0  0  0  0  0  0
  -21.9390   -4.0610   23.7040 C   0  0  0  0  0  3  0  0  0  0  0  0
  -22.0300   -4.8630   22.5520 C   0  0  0  0  0  0  0  0  0  0  0  0
  -22.4190   -4.3120   21.3780 F   0  0  0  0  0  0  0  0  0  0  0  0
  -21.4240   -3.8470   26.0250 F   0  0  0  0  0  0  0  0  0  0  0  0
  -22.7830  -13.6080   21.0910 C   0  0  0  0  0  0  0  0  0  0  0  0
  -22.0740  -12.9070   21.9690 N   0  0  0  0  0  0  0  0  0  0  0  0
  -22.3280  -14.6330   20.5820 O   0  0  0  0  0  0  0  0  0  0  0  0
  -22.4450  -12.0720   22.3990 H   0  0  0  0  0  0  0  0  0  0  0  0
  -21.1420  -13.2080   22.2160 H   0  0  0  0  0  0  0  0  0  0  0  0
  -25.3850  -15.2860   20.2110 N   0  0  0  0  0  0  0  0  0  0  0  0
  -24.6440  -15.9500   20.4030 H   0  0  0  0  0  0  0  0  0  0  0  0
  -26.2520  -15.7460   19.9570 H   0  0  0  0  0  0  0  0  0  0  0  0
  -27.7910  -22.2460   19.3380 C   0  0  0  0  0  1  0  0  0  0  0  0
  -29.1750  -22.6090   19.7680 N   0  0  1  0  0  4  0  0  0  0  0  0
  -29.7260  -22.4830   18.9300 H   0  0  0  0  0  0  0  0  0  0  0  0
  -29.3710  -24.0880   20.1420 C   0  0  0  0  0  3  0  0  0  0  0  0
  -28.1710  -25.1060   19.9120 C   0  0  0  0  0  3  0  0  0  0  0  0
  -28.3600  -26.5430   20.2090 O   0  0  0  0  0  0  0  0  0  0  0  0
  -24.6040  -31.9100   23.2360 C   0  0  0  0  0  0  0  0  0  0  0  0
  -27.2310  -27.3740   20.1690 C   0  0  0  0  0  0  0  0  0  0  0  0
  -23.4040  -30.5140   21.5920 C   0  0  0  0  0  3  0  0  0  0  0  0
  -24.8580  -28.9760   20.1660 C   0  0  0  0  0  0  0  0  0  0  0  0
  -25.9420  -30.8450   21.4070 C   0  0  0  0  0  2  0  0  0  0  0  0
  -26.0290  -29.4640   20.7630 C   0  0  0  0  0  0  0  0  0  0  0  0
  -27.2160  -28.6760   20.7580 C   0  0  0  0  0  3  0  0  0  0  0  0
  -26.0340  -26.9370   19.5550 C   0  0  0  0  0  3  0  0  0  0  0  0
  -24.8630  -27.7160   19.5550 C   0  0  0  0  0  3  0  0  0  0  0  0
  -23.6230  -29.8490   20.2080 C   0  0  0  0  0  2  0  0  0  0  0  0
  -24.6700  -31.1040   22.1350 N   0  0  0  0  0  0  0  0  0  0  0  0
  -23.5190  -32.1800   23.7730 O   0  0  0  0  0  0  0  0  0  0  0  0
  -22.7440  -29.4890   22.5450 C   0  0  0  0  0  0  0  0  0  0  0  0
  -21.4150  -29.3170   22.4250 N   0  0  0  0  0  0  0  0  0  0  0  0
  -23.4240  -28.8460   23.3480 O   0  0  0  0  0  0  0  0  0  0  0  0
  -20.9300  -29.8830   21.7430 H   0  0  0  0  0  0  0  0  0  0  0  0
  -18.0270  -28.1490   22.9310 C   0  0  0  0  0  0  0  0  0  0  0  0
  -20.5910  -28.3810   23.1900 C   0  0  0  0  0  3  0  0  0  0  0  0
  -20.6790  -26.9540   22.6030 C   0  0  0  0  0  2  0  0  0  0  0  0
  -19.5680  -26.6480   21.5920 C   0  0  0  0  0  2  0  0  0  0  0  0
  -18.1890  -26.8010   22.2450 C   0  0  0  0  0  2  0  0  0  0  0  0
  -19.1570  -28.8960   23.3610 C   0  0  0  0  0  0  0  0  0  0  0  0
  -18.9560  -30.1550   23.9650 C   0  0  0  0  0  3  0  0  0  0  0  0
  -17.6600  -30.6720   24.1420 C   0  0  0  0  0  3  0  0  0  0  0  0
  -16.5450  -29.9220   23.7340 C   0  0  0  0  0  3  0  0  0  0  0  0
  -16.7270  -28.6640   23.1310 C   0  0  0  0  0  3  0  0  0  0  0  0
  -25.8870  -32.5440   23.8570 C   0  0  0  0  0  3  0  0  0  0  0  0
  -26.3970  -31.7740   25.1360 C   0  0  1  0  0  0  0  0  0  0  0  0
  -25.2980  -31.5380   26.1990 C   0  0  0  0  0  1  0  0  0  0  0  0
  -26.9780  -30.3960   24.7420 C   0  0  0  0  0  1  0  0  0  0  0  0
  -27.5410  -32.5700   25.8040 C   0  0  0  0  0  1  0  0  0  0  0  0
  -25.5770  -33.9420   24.1820 N   0  0  0  0  0  0  0  0  0  0  0  0
  -25.9130  -34.9920   23.4190 C   0  0  0  0  0  0  0  0  0  0  0  0
  -26.5880  -34.8860   22.3910 O   0  0  0  0  0  0  0  0  0  0  0  0
  -24.9710  -34.0930   24.9750 H   0  0  0  0  0  0  0  0  0  0  0  0
  -24.1910  -36.7900   23.0490 C   0  0  0  0  0  1  0  0  0  0  0  0
  -25.4240  -36.3820   23.8700 C   0  0  0  0  0  3  0  0  0  0  0  0
  -27.5540  -37.2640   24.7170 C   0  0  0  0  0  1  0  0  0  0  0  0
  -26.4580  -37.4340   23.7660 N   0  0  0  0  0  0  0  0  0  0  0  0
  -26.0500  -38.3540   23.9140 H   0  0  0  0  0  0  0  0  0  0  0  0
  2  5  1  0
  3  2  2  0
  3  6  1  0
  4  5  2  0
  5  1  1  0
  6 17  1  0
  7  4  1  0
  7  6  2  0
  8  7  1  0
  9 17  1  0
 10 15  1  0
 11 12  1  0
 11 10  1  0
 13 12  1  0
 13 22  1  0
 13 14  1  0
 15  9  1  0
 15 14  1  0
 16  9  2  0
 17 18  1  0
 19 20  2  0
 20 39  1  0
 21 20  1  0
 21 24  1  0
 22 19  1  0
 22 23  1  0
 23 21  2  0
 24 25  1  0
 25 26  2  0
 27 30  1  0
 27 26  1  0
 28 27  2  0
 29 28  1  0
 29 24  2  0
 30 31  1  0
 31 32  1  0
 32 33  2  0
 34 33  1  0
 34 38  1  0
 35 34  2  0
 36 31  2  0
 36 35  1  0
 37 36  1  0
 39 40  1  0
 40 43  1  0
 40 42  1  0
 41 39  2  0
 44 19  1  0
 44 45  1  0
 46 44  1  0
 47 48  1  0
 48 50  1  0
 48  1  1  0
 48 49  1  6
 51 50  2  0
 51 52  1  0
 53 64  2  0
 54 52  1  0
 54 59  1  0
 55 63  1  0
 55 65  1  0
 56 62  1  0
 56 58  1  0
 57 63  1  0
 58 57  1  0
 59 58  2  0
 60 54  2  0
 61 60  1  0
 61 56  2  0
 62 55  1  0
 63 53  1  0
 65 67  2  0
 66 65  1  0
 68 66  1  0
 69 78  2  0
 69 74  1  0
 70 66  1  0
 70 74  1  0
 71 70  1  0
 72 73  1  0
 72 71  1  0
 73 69  1  0
 74 75  2  0
 75 76  1  0
 77 76  2  0
 78 77  1  0
 79 53  1  0
 79 84  1  0
 79 80  1  0
 80 83  1  1
 80 81  1  0
 82 80  1  0
 84 87  1  0
 85 89  1  0
 85 84  1  0
 86 85  2  0
 89 88  1  0
 91 89  1  0
 91 92  1  0
 91 90  1  0
M  ISO  4   9 100  17 100  51 101  52 101
M  END
>  <TORSDO>  (15) 
F 20

>  <SCORE>  (15) 
-14.124

>  <name>  (15) 
14

>  <ligand_id>  (15) 
14

>  <original_smiles>  (15) 
[H]c1c([H])c([H])c2c(c1[H])C([H])([H])C([H])([H])C([H])([H])C2([H])N([H])C(=O)C1([H])N(C(=O)C([H])(N([H])C(=O)C([H])(N([H])C([H])([H])[H])C([H])([H])[H])C(C([H])([H])[H])(C([H])([H])[H])C([H])([H])[H])C([H])([H])c2c([H])c(OC([H])([H])C([H])([H])[N+]([H])(C([H])([H])[H])C([H])([H])c3c([H])c([H])c(N([H])C(=O)N4C([H])([H])C([H])([H])C([H])([H])C([H])(n5nc(-c6c([H])c([H])c(Oc7c([H])c([H])c(F)c([H])c7F)c([H])c6[H])c(C(=O)N([H])[H])c5N([H])[H])C4([H])[H])c(F)c3[H])c([H])c([H])c2C1([H])[H]

>  <smiles>  (15) 
[H]c1c([H])c([H])c2c(c1[H])C([H])([H])C([H])([H])C([H])([H])C2([H])N([H])C(=O)C1([H])N(C(=O)C([H])(N([H])C(=O)C([H])(N([H])C([H])([H])[H])C([H])([H])[H])C(C([H])([H])[H])(C([H])([H])[H])C([H])([H])[H])C([H])([H])c2c([H])c(OC([H])([H])C([H])([H])[N+]([H])(C([H])([H])[H])C([H])([H])c3c([H])c([H])c(N([H])C(=O)N4C([H])([H])C([H])([H])C([H])([H])C([H])(n5nc(-c6c([H])c([H])c(Oc7c([H])c([H])c(F)c([H])c7F)c([H])c6[H])c(C(=O)N([H])[H])c5N([H])[H])C4([H])[H])c(F)c3[H])c([H])c([H])c2C1([H])[H]

$$$$
15:0:0
     RDKit          3D

 93101  0  0  1  0  0  0  0  0999 V2000
  -27.5700  -21.2480   22.0030 C   0  0  0  0  0  1  0  0  0  0  0  0
  -28.4700  -21.9970   21.0830 N   0  0  1  0  0  4  0  0  0  0  0  0
  -29.3540  -22.0510   21.5700 H   0  0  0  0  0  0  0  0  0  0  0  0
  -28.7930  -21.2600   19.8220 C   0  0  0  0  0  2  0  0  0  0  0  0
  -28.6700  -18.7490   19.3140 C   0  0  0  0  0  3  0  0  0  0  0  0
  -29.0720  -17.4100   19.5190 C   0  0  0  0  0  3  0  0  0  0  0  0
  -30.7550  -18.1570   21.1000 C   0  0  0  0  0  3  0  0  0  0  0  0
  -29.2950  -19.8120   20.0070 C   0  0  0  0  0  0  0  0  0  0  0  0
  -30.1000  -17.0930   20.4360 C   0  0  0  0  0  0  0  0  0  0  0  0
  -30.3720  -19.5020   20.8700 C   0  0  0  0  0  0  0  0  0  0  0  0
  -31.0020  -20.5040   21.5290 F   0  0  0  0  0  0  0  0  0  0  0  0
  -31.0060  -14.8000   20.0890 C   0  0  0  0  0  0  0  0  0  0  0  0
  -30.7430  -12.6020   18.9750 C   0  0  0  0  0  2  0  0  0  0  0  0
  -29.7520  -12.7580   17.8000 C   0  0  0  0  0  2  0  0  0  0  0  0
  -28.2940  -12.6040   18.2820 C   0  0  0  0  0  2  0  0  0  0  0  0
  -27.9890  -13.4710   19.5350 C   0  0  0  0  0  3  0  0  0  0  0  0
  -29.0790  -13.2620   20.6100 C   0  0  0  0  0  2  0  0  0  0  0  0
  -30.3840  -13.5890   20.0080 N   0  0  0  0  0  0  0  0  0  0  0  0
  -32.0730  -15.0450   19.5180 O   0  0  0  0  0  0  0  0  0  0  0  0
  -30.3380  -15.7310   20.8030 N   0  0  0  0  0  0  0  0  0  0  0  0
  -29.5920  -15.3160   21.3410 H   0  0  0  0  0  0  0  0  0  0  0  0
  -25.6320  -14.1040   20.3650 C   0  0  0  0  0  0  0  0  0  0  0  0
  -24.5690  -13.3370   20.7610 C   0  0  0  0  0  0  0  0  0  0  0  0
  -25.0070  -11.9810   20.6730 C   0  0  0  0  0  0  0  0  0  0  0  0
  -26.6520  -13.2120   20.0650 N   0  0  0  0  0  0  0  0  0  0  0  0
  -26.2800  -11.9280   20.3030 N   0  0  0  0  0  0  0  0  0  0  0  0
  -24.2700  -10.7250   20.8640 C   0  0  0  0  0  0  0  0  0  0  0  0
  -24.6300   -9.8030   21.8710 C   0  0  0  0  0  3  0  0  0  0  0  0
  -23.8960   -8.6110   22.0450 C   0  0  0  0  0  3  0  0  0  0  0  0
  -22.7880   -8.3310   21.2090 C   0  0  0  0  0  0  0  0  0  0  0  0
  -22.4500   -9.2410   20.1930 C   0  0  0  0  0  3  0  0  0  0  0  0
  -23.1840  -10.4260   20.0180 C   0  0  0  0  0  3  0  0  0  0  0  0
  -22.0330   -7.1870   21.2870 O   0  0  0  0  0  0  0  0  0  0  0  0
  -21.7730   -6.5760   22.4880 C   0  0  0  0  0  0  0  0  0  0  0  0
  -21.0730   -7.2330   23.5220 C   0  0  0  0  0  3  0  0  0  0  0  0
  -20.7680   -6.5440   24.7130 C   0  0  0  0  0  3  0  0  0  0  0  0
  -21.1530   -5.2000   24.8680 C   0  0  0  0  0  0  0  0  0  0  0  0
  -21.8470   -4.5420   23.8370 C   0  0  0  0  0  3  0  0  0  0  0  0
  -22.1550   -5.2290   22.6490 C   0  0  0  0  0  0  0  0  0  0  0  0
  -22.8040   -4.5840   21.6490 F   0  0  0  0  0  0  0  0  0  0  0  0
  -20.8530   -4.5340   26.0080 F   0  0  0  0  0  0  0  0  0  0  0  0
  -23.1930  -13.8290   21.1080 C   0  0  0  0  0  0  0  0  0  0  0  0
  -22.4940  -13.1190   21.9880 N   0  0  0  0  0  0  0  0  0  0  0  0
  -22.7490  -14.8750   20.6380 O   0  0  0  0  0  0  0  0  0  0  0  0
  -22.8670  -12.2750   22.3950 H   0  0  0  0  0  0  0  0  0  0  0  0
  -21.5690  -13.4270   22.2580 H   0  0  0  0  0  0  0  0  0  0  0  0
  -25.8020  -15.4760   20.2230 N   0  0  0  0  0  0  0  0  0  0  0  0
  -25.0330  -16.1140   20.3920 H   0  0  0  0  0  0  0  0  0  0  0  0
  -26.6380  -15.9470   19.9060 H   0  0  0  0  0  0  0  0  0  0  0  0
  -27.9540  -23.3960   20.9130 C   0  0  0  0  0  2  0  0  0  0  0  0
  -28.9210  -24.4580   20.3090 C   0  0  0  0  0  2  0  0  0  0  0  0
  -28.6090  -25.8860   20.8450 C   0  0  0  0  0  2  0  0  0  0  0  0
  -28.6490  -26.9600   19.8840 O   0  0  0  0  0  0  0  0  0  0  0  0
  -24.6090  -31.8480   23.1520 C   0  0  0  0  0  0  0  0  0  0  0  0
  -27.4830  -27.6920   19.8840 C   0  0  0  0  0  0  0  0  0  0  0  0
  -23.4710  -30.4520   21.4600 C   0  0  0  0  0  3  0  0  0  0  0  0
  -25.0050  -29.0490   19.9720 C   0  0  0  0  0  0  0  0  0  0  0  0
  -25.9700  -30.9610   21.2570 C   0  0  0  0  0  2  0  0  0  0  0  0
  -26.1360  -29.6200   20.5720 C   0  0  0  0  0  0  0  0  0  0  0  0
  -27.3810  -28.9460   20.5320 C   0  0  0  0  0  3  0  0  0  0  0  0
  -26.3390  -27.1370   19.2730 C   0  0  0  0  0  3  0  0  0  0  0  0
  -25.1020  -27.8060   19.3240 C   0  0  0  0  0  3  0  0  0  0  0  0
  -23.7070  -29.8220   20.0610 C   0  0  0  0  0  2  0  0  0  0  0  0
  -24.7030  -31.0990   22.0160 N   0  0  0  0  0  0  0  0  0  0  0  0
  -23.5170  -32.0380   23.7040 O   0  0  0  0  0  0  0  0  0  0  0  0
  -22.8850  -29.3630   22.3880 C   0  0  0  0  0  0  0  0  0  0  0  0
  -21.5730  -29.1170   22.2620 N   0  0  0  0  0  0  0  0  0  0  0  0
  -23.6080  -28.7430   23.1750 O   0  0  0  0  0  0  0  0  0  0  0  0
  -21.0450  -29.6930   21.6230 H   0  0  0  0  0  0  0  0  0  0  0  0
  -18.2750  -27.7190   22.7400 C   0  0  0  0  0  0  0  0  0  0  0  0
  -20.8200  -28.0910   22.9820 C   0  0  0  0  0  3  0  0  0  0  0  0
  -20.9920  -26.7030   22.3160 C   0  0  0  0  0  2  0  0  0  0  0  0
  -19.8790  -26.3680   21.3170 C   0  0  0  0  0  2  0  0  0  0  0  0
  -18.5030  -26.4150   21.9910 C   0  0  0  0  0  2  0  0  0  0  0  0
  -19.3620  -28.5130   23.1920 C   0  0  0  0  0  0  0  0  0  0  0  0
  -19.0980  -29.7330   23.8520 C   0  0  0  0  0  3  0  0  0  0  0  0
  -17.7740  -30.1640   24.0560 C   0  0  0  0  0  3  0  0  0  0  0  0
  -16.7010  -29.3680   23.6210 C   0  0  0  0  0  3  0  0  0  0  0  0
  -16.9520  -28.1450   22.9720 C   0  0  0  0  0  3  0  0  0  0  0  0
  -25.8550  -32.5260   23.7960 C   0  0  0  0  0  3  0  0  0  0  0  0
  -25.4820  -33.9050   24.1360 N   0  0  0  0  0  0  0  0  0  0  0  0
  -25.7880  -34.9820   23.3990 C   0  0  0  0  0  0  0  0  0  0  0  0
  -26.4850  -34.9180   22.3820 O   0  0  0  0  0  0  0  0  0  0  0  0
  -24.8610  -34.0230   24.9230 H   0  0  0  0  0  0  0  0  0  0  0  0
  -24.0090  -36.7160   23.0170 C   0  0  0  0  0  1  0  0  0  0  0  0
  -25.2360  -36.3450   23.8630 C   0  0  0  0  0  3  0  0  0  0  0  0
  -27.3030  -37.2990   24.7840 C   0  0  0  0  0  1  0  0  0  0  0  0
  -26.2340  -37.4360   23.7980 N   0  0  0  0  0  0  0  0  0  0  0  0
  -25.7910  -38.3410   23.9310 H   0  0  0  0  0  0  0  0  0  0  0  0
  -26.3870  -31.7650   25.0720 C   0  0  1  0  0  0  0  0  0  0  0  0
  -25.2890  -31.4630   26.1190 C   0  0  0  0  0  1  0  0  0  0  0  0
  -27.0390  -30.4260   24.6610 C   0  0  0  0  0  1  0  0  0  0  0  0
  -27.4930  -32.6020   25.7570 C   0  0  0  0  0  1  0  0  0  0  0  0
  2  3  1  1
  2  1  1  0
  4  8  1  0
  4  2  1  0
  5  6  2  0
  5  8  1  0
  6  9  1  0
  8 10  2  0
  9 20  1  0
  9  7  2  0
 10  7  1  0
 10 11  1  0
 12 20  1  0
 13 18  1  0
 14 15  1  0
 14 13  1  0
 16 15  1  0
 16 25  1  0
 16 17  1  0
 18 12  1  0
 18 17  1  0
 19 12  2  0
 20 21  1  0
 22 23  2  0
 23 42  1  0
 24 23  1  0
 24 27  1  0
 25 26  1  0
 25 22  1  0
 26 24  2  0
 27 28  1  0
 28 29  2  0
 30 33  1  0
 30 29  1  0
 31 30  2  0
 32 31  1  0
 32 27  2  0
 33 34  1  0
 34 39  2  0
 34 35  1  0
 35 36  2  0
 36 37  1  0
 37 41  1  0
 38 37  2  0
 39 38  1  0
 40 39  1  0
 42 43  1  0
 43 46  1  0
 43 45  1  0
 44 42  2  0
 47 22  1  0
 47 48  1  0
 49 47  1  0
 50  2  1  0
 51 52  1  0
 51 50  1  0
 53 55  1  0
 53 52  1  0
 54 65  2  0
 55 60  1  0
 56 64  1  0
 56 66  1  0
 57 63  1  0
 57 59  1  0
 58 64  1  0
 59 58  1  0
 60 59  2  0
 61 62  1  0
 61 55  2  0
 62 57  2  0
 63 56  1  0
 64 54  1  0
 66 68  2  0
 67 66  1  0
 69 67  1  0
 70 79  2  0
 70 75  1  0
 71 67  1  0
 71 75  1  0
 72 71  1  0
 73 74  1  0
 73 72  1  0
 74 70  1  0
 75 76  2  0
 76 77  1  0
 78 77  2  0
 79 78  1  0
 80 54  1  0
 80 81  1  0
 80 90  1  0
 81 84  1  0
 82 86  1  0
 82 81  1  0
 83 82  2  0
 86 85  1  0
 88 86  1  0
 88 89  1  0
 88 87  1  0
 90 93  1  1
 90 91  1  0
 92 90  1  0
M  ISO  4  12 100  20 100  52 101  53 101
M  END
>  <TORSDO>  (16) 
F 21

>  <SCORE>  (16) 
-11.510

>  <name>  (16) 
15

>  <ligand_id>  (16) 
15

>  <original_smiles>  (16) 
[H]c1c([H])c([H])c2c(c1[H])C([H])([H])C([H])([H])C([H])([H])C2([H])N([H])C(=O)C1([H])N(C(=O)C([H])(N([H])C(=O)C([H])(N([H])C([H])([H])[H])C([H])([H])[H])C(C([H])([H])[H])(C([H])([H])[H])C([H])([H])[H])C([H])([H])c2c([H])c(OC([H])([H])C([H])([H])C([H])([H])[N+]([H])(C([H])([H])[H])C([H])([H])c3c([H])c([H])c(N([H])C(=O)N4C([H])([H])C([H])([H])C([H])([H])C([H])(n5nc(-c6c([H])c([H])c(Oc7c([H])c([H])c(F)c([H])c7F)c([H])c6[H])c(C(=O)N([H])[H])c5N([H])[H])C4([H])[H])c([H])c3F)c([H])c([H])c2C1([H])[H]

>  <smiles>  (16) 
[H]c1c([H])c([H])c2c(c1[H])C([H])([H])C([H])([H])C([H])([H])C2([H])N([H])C(=O)C1([H])N(C(=O)C([H])(N([H])C(=O)C([H])(N([H])C([H])([H])[H])C([H])([H])[H])C(C([H])([H])[H])(C([H])([H])[H])C([H])([H])[H])C([H])([H])c2c([H])c(OC([H])([H])C([H])([H])C([H])([H])[N+]([H])(C([H])([H])[H])C([H])([H])c3c([H])c([H])c(N([H])C(=O)N4C([H])([H])C([H])([H])C([H])([H])C([H])(n5nc(-c6c([H])c([H])c(Oc7c([H])c([H])c(F)c([H])c7F)c([H])c6[H])c(C(=O)N([H])[H])c5N([H])[H])C4([H])[H])c([H])c3F)c([H])c([H])c2C1([H])[H]

$$$$
16:0:0
     RDKit          3D

 92101  0  0  1  0  0  0  0  0999 V2000
  -27.9470  -22.8120   20.2570 C   0  0  0  0  0  3  0  0  0  0  0  0
  -28.3770  -21.4450   20.2670 C   0  0  0  0  0  3  0  0  0  0  0  0
  -30.0090  -23.4760   21.2780 C   0  0  0  0  0  3  0  0  0  0  0  0
  -28.7380  -23.8670   20.7900 C   0  0  0  0  0  0  0  0  0  0  0  0
  -29.6240  -21.0350   20.8180 C   0  0  0  0  0  0  0  0  0  0  0  0
  -30.4410  -22.1150   21.2970 C   0  0  0  0  0  0  0  0  0  0  0  0
  -31.6660  -21.8740   21.8250 F   0  0  0  0  0  0  0  0  0  0  0  0
  -31.1160  -17.6810   21.8180 C   0  0  0  0  0  2  0  0  0  0  0  0
  -31.1530  -19.2190   21.7370 C   0  0  0  0  0  2  0  0  0  0  0  0
  -29.3720  -18.4200   20.3570 C   0  0  0  0  0  2  0  0  0  0  0  0
  -30.3970  -17.2230   20.5440 C   0  0  0  0  0  3  0  0  0  0  0  0
  -30.0160  -19.6400   20.9200 N   0  0  0  0  0  0  0  0  0  0  0  0
  -30.6250  -14.6670   20.3230 C   0  0  0  0  0  0  0  0  0  0  0  0
  -30.3560  -12.4370   19.2610 C   0  0  0  0  0  2  0  0  0  0  0  0
  -29.4040  -12.5630   18.0550 C   0  0  0  0  0  2  0  0  0  0  0  0
  -27.9390  -12.3970   18.5080 C   0  0  0  0  0  2  0  0  0  0  0  0
  -27.5930  -13.2620   19.7470 C   0  0  0  0  0  3  0  0  0  0  0  0
  -28.6660  -13.1390   20.8490 C   0  0  0  0  0  2  0  0  0  0  0  0
  -29.9630  -13.4680   20.2440 N   0  0  0  0  0  0  0  0  0  0  0  0
  -31.7940  -14.7650   19.9410 O   0  0  0  0  0  0  0  0  0  0  0  0
  -29.9050  -15.7950   20.6290 N   0  0  0  0  0  0  0  0  0  0  0  0
  -28.9360  -15.6570   20.8730 H   0  0  0  0  0  0  0  0  0  0  0  0
  -25.2110  -13.8500   20.5070 C   0  0  0  0  0  0  0  0  0  0  0  0
  -24.1510  -13.0730   20.8880 C   0  0  0  0  0  0  0  0  0  0  0  0
  -24.6160  -11.7230   20.8450 C   0  0  0  0  0  0  0  0  0  0  0  0
  -26.2540  -12.9740   20.2530 N   0  0  0  0  0  0  0  0  0  0  0  0
  -25.9030  -11.6880   20.5190 N   0  0  0  0  0  0  0  0  0  0  0  0
  -23.8950  -10.4580   21.0410 C   0  0  0  0  0  0  0  0  0  0  0  0
  -24.3420   -9.4880   21.9670 C   0  0  0  0  0  3  0  0  0  0  0  0
  -23.6200   -8.2870   22.1500 C   0  0  0  0  0  3  0  0  0  0  0  0
  -22.4390   -8.0490   21.4100 C   0  0  0  0  0  0  0  0  0  0  0  0
  -22.0110   -9.0080   20.4750 C   0  0  0  0  0  3  0  0  0  0  0  0
  -22.7320  -10.1990   20.2890 C   0  0  0  0  0  3  0  0  0  0  0  0
  -21.6900   -6.9000   21.5030 O   0  0  0  0  0  0  0  0  0  0  0  0
  -21.6600   -6.1510   22.6510 C   0  0  0  0  0  0  0  0  0  0  0  0
  -21.2440   -6.6970   23.8860 C   0  0  0  0  0  3  0  0  0  0  0  0
  -21.1600   -5.8760   25.0270 C   0  0  0  0  0  3  0  0  0  0  0  0
  -21.4820   -4.5070   24.9360 C   0  0  0  0  0  0  0  0  0  0  0  0
  -21.8910   -3.9610   23.7060 C   0  0  0  0  0  3  0  0  0  0  0  0
  -21.9770   -4.7820   22.5680 C   0  0  0  0  0  0  0  0  0  0  0  0
  -22.3510   -4.2450   21.3820 F   0  0  0  0  0  0  0  0  0  0  0  0
  -21.3940   -3.7160   26.0290 F   0  0  0  0  0  0  0  0  0  0  0  0
  -22.7560  -13.5470   21.1750 C   0  0  0  0  0  0  0  0  0  0  0  0
  -22.0360  -12.8480   22.0450 N   0  0  0  0  0  0  0  0  0  0  0  0
  -22.3110  -14.5740   20.6630 O   0  0  0  0  0  0  0  0  0  0  0  0
  -22.4000  -12.0150   22.4830 H   0  0  0  0  0  0  0  0  0  0  0  0
  -21.1020  -13.1560   22.2780 H   0  0  0  0  0  0  0  0  0  0  0  0
  -25.3710  -15.2230   20.3280 N   0  0  0  0  0  0  0  0  0  0  0  0
  -24.6030  -15.8760   20.4410 H   0  0  0  0  0  0  0  0  0  0  0  0
  -26.2080  -15.6590   19.9660 H   0  0  0  0  0  0  0  0  0  0  0  0
  -28.1320  -25.2910   21.0980 C   0  0  0  0  0  2  0  0  0  0  0  0
  -28.3430  -26.4700   20.2340 O   0  0  0  0  0  0  0  0  0  0  0  0
  -24.6070  -31.8770   23.2360 C   0  0  0  0  0  0  0  0  0  0  0  0
  -27.2510  -27.3450   20.1950 C   0  0  0  0  0  0  0  0  0  0  0  0
  -23.4090  -30.4730   21.5920 C   0  0  0  0  0  3  0  0  0  0  0  0
  -24.8750  -28.9290   20.1670 C   0  0  0  0  0  0  0  0  0  0  0  0
  -25.9440  -30.8110   21.4080 C   0  0  0  0  0  2  0  0  0  0  0  0
  -26.0370  -29.4300   20.7690 C   0  0  0  0  0  0  0  0  0  0  0  0
  -27.2300  -28.6490   20.7770 C   0  0  0  0  0  3  0  0  0  0  0  0
  -26.0750  -26.8960   19.5610 C   0  0  0  0  0  3  0  0  0  0  0  0
  -24.8950  -27.6660   19.5530 C   0  0  0  0  0  3  0  0  0  0  0  0
  -23.6300  -29.7930   20.2120 C   0  0  0  0  0  2  0  0  0  0  0  0
  -24.6720  -31.0700   22.1360 N   0  0  0  0  0  0  0  0  0  0  0  0
  -23.5220  -32.1500   23.7710 O   0  0  0  0  0  0  0  0  0  0  0  0
  -22.7490  -29.4560   22.5520 C   0  0  0  0  0  0  0  0  0  0  0  0
  -21.4210  -29.2840   22.4330 N   0  0  0  0  0  0  0  0  0  0  0  0
  -23.4300  -28.8240   23.3640 O   0  0  0  0  0  0  0  0  0  0  0  0
  -20.9300  -29.8450   21.7510 H   0  0  0  0  0  0  0  0  0  0  0  0
  -18.0420  -28.0980   22.9440 C   0  0  0  0  0  0  0  0  0  0  0  0
  -20.6030  -28.3450   23.2030 C   0  0  0  0  0  3  0  0  0  0  0  0
  -20.6950  -26.9150   22.6210 C   0  0  0  0  0  2  0  0  0  0  0  0
  -19.5870  -26.6020   21.6100 C   0  0  0  0  0  2  0  0  0  0  0  0
  -18.2090  -26.7510   22.2610 C   0  0  0  0  0  2  0  0  0  0  0  0
  -19.1660  -28.8530   23.3710 C   0  0  0  0  0  0  0  0  0  0  0  0
  -18.9550  -30.1160   23.9660 C   0  0  0  0  0  3  0  0  0  0  0  0
  -17.6530  -30.6220   24.1410 C   0  0  0  0  0  3  0  0  0  0  0  0
  -16.5440  -29.8630   23.7310 C   0  0  0  0  0  3  0  0  0  0  0  0
  -16.7390  -28.6030   23.1370 C   0  0  0  0  0  3  0  0  0  0  0  0
  -25.8880  -32.5140   23.8590 C   0  0  0  0  0  3  0  0  0  0  0  0
  -25.5770  -33.9120   24.1880 N   0  0  0  0  0  0  0  0  0  0  0  0
  -25.9080  -34.9630   23.4270 C   0  0  0  0  0  0  0  0  0  0  0  0
  -26.5770  -34.8590   22.3950 O   0  0  0  0  0  0  0  0  0  0  0  0
  -24.9860  -34.0650   24.9920 H   0  0  0  0  0  0  0  0  0  0  0  0
  -24.1820  -36.7550   23.0650 C   0  0  0  0  0  1  0  0  0  0  0  0
  -25.4190  -36.3520   23.8820 C   0  0  0  0  0  3  0  0  0  0  0  0
  -27.5530  -37.2350   24.7170 C   0  0  0  0  0  1  0  0  0  0  0  0
  -26.4520  -37.4060   23.7730 N   0  0  0  0  0  0  0  0  0  0  0  0
  -26.0450  -38.3250   23.9210 H   0  0  0  0  0  0  0  0  0  0  0  0
  -26.4020  -31.7450   25.1370 C   0  0  1  0  0  0  0  0  0  0  0  0
  -25.3090  -31.5130   26.2060 C   0  0  0  0  0  1  0  0  0  0  0  0
  -26.9830  -30.3660   24.7470 C   0  0  0  0  0  1  0  0  0  0  0  0
  -27.5530  -32.5390   25.7980 C   0  0  0  0  0  1  0  0  0  0  0  0
  1  2  2  0
  1  4  1  0
  2  5  1  0
  3  6  1  0
  4 51  1  0
  4  3  2  0
  5 12  1  0
  5  6  2  0
  6  7  1  0
  9  8  1  0
 10 11  1  0
 10 12  1  0
 11 21  1  0
 11  8  1  0
 12  9  1  0
 13 21  1  0
 14 19  1  0
 15 16  1  0
 15 14  1  0
 17 16  1  0
 17 26  1  0
 17 18  1  0
 19 13  1  0
 19 18  1  0
 20 13  2  0
 21 22  1  0
 23 24  2  0
 24 43  1  0
 25 24  1  0
 25 28  1  0
 26 23  1  0
 26 27  1  0
 27 25  2  0
 28 29  1  0
 29 30  2  0
 31 34  1  0
 31 30  1  0
 32 31  2  0
 33 32  1  0
 33 28  2  0
 34 35  1  0
 35 36  1  0
 36 37  2  0
 38 37  1  0
 38 42  1  0
 39 38  2  0
 40 35  2  0
 40 39  1  0
 41 40  1  0
 43 44  1  0
 44 47  1  0
 44 46  1  0
 45 43  2  0
 48 49  1  0
 48 23  1  0
 50 48  1  0
 52 51  1  0
 53 64  2  0
 54 52  1  0
 54 59  1  0
 55 63  1  0
 55 65  1  0
 56 62  1  0
 56 58  1  0
 57 63  1  0
 58 59  2  0
 58 57  1  0
 60 54  2  0
 61 60  1  0
 61 56  2  0
 62 55  1  0
 63 53  1  0
 65 67  2  0
 66 65  1  0
 68 66  1  0
 69 78  2  0
 69 74  1  0
 70 66  1  0
 70 74  1  0
 71 70  1  0
 72 73  1  0
 72 71  1  0
 73 69  1  0
 74 75  2  0
 75 76  1  0
 77 76  2  0
 78 77  1  0
 79 53  1  0
 79 80  1  0
 79 89  1  0
 80 83  1  0
 81 85  1  0
 81 80  1  0
 82 81  2  0
 85 84  1  0
 87 85  1  0
 87 88  1  0
 87 86  1  0
 89 92  1  1
 89 90  1  0
 91 89  1  0
M  ISO  4  13 100  21 100  51 101  52 101
M  END
>  <TORSDO>  (17) 
F 18

>  <SCORE>  (17) 
-15.033

>  <name>  (17) 
16

>  <ligand_id>  (17) 
16

>  <original_smiles>  (17) 
[H]c1c([H])c([H])c2c(c1[H])C([H])([H])C([H])([H])C([H])([H])C2([H])N([H])C(=O)C1([H])N(C(=O)C([H])(N([H])C(=O)C([H])(N([H])C([H])([H])[H])C([H])([H])[H])C(C([H])([H])[H])(C([H])([H])[H])C([H])([H])[H])C([H])([H])c2c([H])c(OC([H])([H])c3c([H])c([H])c(N4C([H])([H])C([H])([H])C([H])(N([H])C(=O)N5C([H])([H])C([H])([H])C([H])([H])C([H])(n6nc(-c7c([H])c([H])c(Oc8c([H])c([H])c(F)c([H])c8F)c([H])c7[H])c(C(=O)N([H])[H])c6N([H])[H])C5([H])[H])C4([H])[H])c(F)c3[H])c([H])c([H])c2C1([H])[H]

>  <smiles>  (17) 
[H]c1c([H])c([H])c2c(c1[H])C([H])([H])C([H])([H])C([H])([H])C2([H])N([H])C(=O)C1([H])N(C(=O)C([H])(N([H])C(=O)C([H])(N([H])C([H])([H])[H])C([H])([H])[H])C(C([H])([H])[H])(C([H])([H])[H])C([H])([H])[H])C([H])([H])c2c([H])c(OC([H])([H])c3c([H])c([H])c(N4C([H])([H])C([H])([H])C([H])(N([H])C(=O)N5C([H])([H])C([H])([H])C([H])([H])C([H])(n6nc(-c7c([H])c([H])c(Oc8c([H])c([H])c(F)c([H])c8F)c([H])c7[H])c(C(=O)N([H])[H])c6N([H])[H])C5([H])[H])C4([H])[H])c(F)c3[H])c([H])c([H])c2C1([H])[H]

$$$$
17:0:0
     RDKit          3D

101111  0  0  1  0  0  0  0  0999 V2000
  -30.5610  -22.5350   14.8870 C   0  0  0  0  0  2  0  0  0  0  0  0
  -28.6640  -21.4000   16.2390 C   0  0  0  0  0  2  0  0  0  0  0  0
  -31.1110  -21.1060   14.9440 C   0  0  0  0  0  2  0  0  0  0  0  0
  -29.7110  -20.4470   16.8730 C   0  0  0  0  0  2  0  0  0  0  0  0
  -29.2010  -22.7030   15.5960 C   0  0  0  0  0  3  0  0  0  0  0  0
  -31.0970  -20.6110   16.3400 N   0  0  1  0  0  4  0  0  0  0  0  0
  -31.5090  -21.3460   16.8940 H   0  0  0  0  0  0  0  0  0  0  0  0
  -28.6560  -25.1330   16.0820 C   0  0  0  0  0  3  0  0  0  0  0  0
  -29.8670  -23.8630   17.7770 C   0  0  0  0  0  3  0  0  0  0  0  0
  -28.7550  -26.2880   16.8770 C   0  0  0  0  0  3  0  0  0  0  0  0
  -29.9780  -25.0260   18.5640 C   0  0  0  0  0  3  0  0  0  0  0  0
  -29.2200  -23.9140   16.5210 C   0  0  0  0  0  0  0  0  0  0  0  0
  -29.4330  -26.2400   18.1120 C   0  0  0  0  0  0  0  0  0  0  0  0
  -29.6110  -27.4890   18.9460 C   0  0  0  0  0  2  0  0  0  0  0  0
  -28.9850  -27.3580   20.2150 O   0  0  0  0  0  0  0  0  0  0  0  0
  -24.7640  -31.7780   23.8070 C   0  0  0  0  0  0  0  0  0  0  0  0
  -27.7720  -27.9840   20.2810 C   0  0  0  0  0  0  0  0  0  0  0  0
  -23.7130  -30.5890   21.9040 C   0  0  0  0  0  3  0  0  0  0  0  0
  -25.3110  -29.3350   20.3640 C   0  0  0  0  0  0  0  0  0  0  0  0
  -26.2190  -31.0800   21.9140 C   0  0  0  0  0  2  0  0  0  0  0  0
  -26.4010  -29.8220   21.0960 C   0  0  0  0  0  0  0  0  0  0  0  0
  -27.6370  -29.1450   21.0660 C   0  0  0  0  0  3  0  0  0  0  0  0
  -26.6690  -27.4890   19.5560 C   0  0  0  0  0  3  0  0  0  0  0  0
  -25.4340  -28.1620   19.5980 C   0  0  0  0  0  3  0  0  0  0  0  0
  -24.0260  -30.1250   20.4550 C   0  0  0  0  0  2  0  0  0  0  0  0
  -24.9120  -31.1550   22.6030 N   0  0  0  0  0  0  0  0  0  0  0  0
  -23.6450  -31.9240   24.3170 O   0  0  0  0  0  0  0  0  0  0  0  0
  -23.0570  -29.4150   22.6650 C   0  0  0  0  0  0  0  0  0  0  0  0
  -21.7640  -29.1800   22.3980 N   0  0  0  0  0  0  0  0  0  0  0  0
  -23.7130  -28.7240   23.4480 O   0  0  0  0  0  0  0  0  0  0  0  0
  -21.2910  -29.7910   21.7470 H   0  0  0  0  0  0  0  0  0  0  0  0
  -18.4670  -27.7100   22.3900 C   0  0  0  0  0  0  0  0  0  0  0  0
  -20.9540  -28.1050   22.9700 C   0  0  0  0  0  3  0  0  0  0  0  0
  -21.2300  -26.7640   22.2540 C   0  0  0  0  0  2  0  0  0  0  0  0
  -20.2680  -26.4910   21.0940 C   0  0  0  0  0  2  0  0  0  0  0  0
  -18.8200  -26.4660   21.5920 C   0  0  0  0  0  2  0  0  0  0  0  0
  -19.4720  -28.4900   23.0240 C   0  0  0  0  0  0  0  0  0  0  0  0
  -19.0940  -29.6560   23.7230 C   0  0  0  0  0  3  0  0  0  0  0  0
  -17.7440  -30.0500   23.7920 C   0  0  0  0  0  3  0  0  0  0  0  0
  -16.7530  -29.2640   23.1790 C   0  0  0  0  0  3  0  0  0  0  0  0
  -17.1130  -28.0940   22.4850 C   0  0  0  0  0  3  0  0  0  0  0  0
  -25.9870  -32.3570   24.5850 C   0  0  0  0  0  3  0  0  0  0  0  0
  -26.3640  -31.5180   25.8680 C   0  0  1  0  0  0  0  0  0  0  0  0
  -25.1640  -31.2350   26.7990 C   0  0  0  0  0  1  0  0  0  0  0  0
  -26.9760  -30.1560   25.4660 C   0  0  0  0  0  1  0  0  0  0  0  0
  -27.4370  -32.2700   26.6910 C   0  0  0  0  0  1  0  0  0  0  0  0
  -25.6630  -33.7450   24.9470 N   0  0  0  0  0  0  0  0  0  0  0  0
  -26.1200  -34.8250   24.3010 C   0  0  0  0  0  0  0  0  0  0  0  0
  -26.9250  -34.7580   23.3670 O   0  0  0  0  0  0  0  0  0  0  0  0
  -24.9610  -33.8750   25.6610 H   0  0  0  0  0  0  0  0  0  0  0  0
  -24.5100  -36.6890   23.8010 C   0  0  0  0  0  1  0  0  0  0  0  0
  -25.6020  -36.2000   24.7630 C   0  0  0  0  0  3  0  0  0  0  0  0
  -27.6070  -36.9580   25.9600 C   0  0  0  0  0  1  0  0  0  0  0  0
  -26.6660  -37.2210   24.8750 N   0  0  0  0  0  0  0  0  0  0  0  0
  -26.2650  -38.1450   25.0210 H   0  0  0  0  0  0  0  0  0  0  0  0
  -32.0160  -19.4540   16.5330 C   0  0  0  0  0  2  0  0  0  0  0  0
  -32.3760  -18.4390   18.8770 C   0  0  0  0  0  3  0  0  0  0  0  0
  -31.9960  -17.5140   19.8780 C   0  0  0  0  0  3  0  0  0  0  0  0
  -30.5120  -17.7000   17.5160 C   0  0  0  0  0  3  0  0  0  0  0  0
  -31.6400  -18.5160   17.6750 C   0  0  0  0  0  0  0  0  0  0  0  0
  -30.8690  -16.6680   19.7100 C   0  0  0  0  0  0  0  0  0  0  0  0
  -30.0940  -16.8300   18.5280 C   0  0  0  0  0  0  0  0  0  0  0  0
  -28.5640  -16.1060   18.2400 Cl  0  0  0  0  0  0  0  0  0  0  0  0
  -31.2980  -14.5860   20.8750 C   0  0  0  0  0  0  0  0  0  0  0  0
  -31.0290  -12.4270   19.7550 C   0  0  0  0  0  2  0  0  0  0  0  0
  -30.1430  -12.6620   18.5190 C   0  0  0  0  0  2  0  0  0  0  0  0
  -28.6400  -12.6050   18.8890 C   0  0  0  0  0  2  0  0  0  0  0  0
  -28.2710  -13.3770   20.1930 C   0  0  0  0  0  3  0  0  0  0  0  0
  -29.2910  -13.1000   21.3100 C   0  0  0  0  0  2  0  0  0  0  0  0
  -30.6200  -13.4120   20.7630 N   0  0  0  0  0  0  0  0  0  0  0  0
  -32.5190  -14.6550   20.7100 O   0  0  0  0  0  0  0  0  0  0  0  0
  -29.8190  -16.2350   21.9040 C   0  0  0  0  0  1  0  0  0  0  0  0
  -30.5450  -15.7160   20.7420 N   0  0  0  0  0  0  0  0  0  0  0  0
  -25.8600  -14.0480   20.7930 C   0  0  0  0  0  0  0  0  0  0  0  0
  -24.7510  -13.2940   21.0670 C   0  0  0  0  0  0  0  0  0  0  0  0
  -25.1750  -11.9300   20.9910 C   0  0  0  0  0  0  0  0  0  0  0  0
  -26.8910  -13.1400   20.5900 N   0  0  0  0  0  0  0  0  0  0  0  0
  -26.4770  -11.8620   20.7630 N   0  0  0  0  0  0  0  0  0  0  0  0
  -24.4080  -10.6850   21.0730 C   0  0  0  0  0  0  0  0  0  0  0  0
  -24.6880   -9.7130   22.0590 C   0  0  0  0  0  3  0  0  0  0  0  0
  -23.9250   -8.5290   22.1300 C   0  0  0  0  0  3  0  0  0  0  0  0
  -22.8740   -8.3060   21.2100 C   0  0  0  0  0  0  0  0  0  0  0  0
  -22.6160   -9.2670   20.2150 C   0  0  0  0  0  3  0  0  0  0  0  0
  -23.3790  -10.4430   20.1420 C   0  0  0  0  0  3  0  0  0  0  0  0
  -22.0940   -7.1750   21.1910 O   0  0  0  0  0  0  0  0  0  0  0  0
  -21.7270   -6.5350   22.3460 C   0  0  0  0  0  0  0  0  0  0  0  0
  -20.9800   -7.1880   23.3530 C   0  0  0  0  0  3  0  0  0  0  0  0
  -20.5630   -6.4740   24.4930 C   0  0  0  0  0  3  0  0  0  0  0  0
  -20.8810   -5.1090   24.6250 C   0  0  0  0  0  0  0  0  0  0  0  0
  -21.6190   -4.4570   23.6230 C   0  0  0  0  0  3  0  0  0  0  0  0
  -22.0380   -5.1670   22.4840 C   0  0  0  0  0  0  0  0  0  0  0  0
  -22.7290   -4.5290   21.5090 F   0  0  0  0  0  0  0  0  0  0  0  0
  -20.4720   -4.4210   25.7170 F   0  0  0  0  0  0  0  0  0  0  0  0
  -23.3540  -13.7980   21.2890 C   0  0  0  0  0  0  0  0  0  0  0  0
  -22.5800  -13.1050   22.1160 N   0  0  0  0  0  0  0  0  0  0  0  0
  -22.9590  -14.8390   20.7700 O   0  0  0  0  0  0  0  0  0  0  0  0
  -22.9110  -12.2560   22.5540 H   0  0  0  0  0  0  0  0  0  0  0  0
  -21.6430  -13.4270   22.3130 H   0  0  0  0  0  0  0  0  0  0  0  0
  -26.0680  -15.4200   20.6820 N   0  0  0  0  0  0  0  0  0  0  0  0
  -25.3130  -16.0930   20.7600 H   0  0  0  0  0  0  0  0  0  0  0  0
  -26.9350  -15.8400   20.3730 H   0  0  0  0  0  0  0  0  0  0  0  0
  1  3  1  0
  1  5  1  0
  2  4  1  0
  3  6  1  0
  5  2  1  0
  5 12  1  0
  6 56  1  0
  6  4  1  0
  6  7  1  1
  8 12  2  0
  8 10  1  0
  9 11  2  0
 10 13  2  0
 12  9  1  0
 13 11  1  0
 13 14  1  0
 14 15  1  0
 15 17  1  0
 16 27  2  0
 17 22  1  0
 18 26  1  0
 18 28  1  0
 19 25  1  0
 19 21  1  0
 20 26  1  0
 21 20  1  0
 22 21  2  0
 23 24  1  0
 23 17  2  0
 24 19  2  0
 25 18  1  0
 26 16  1  0
 28 30  2  0
 29 28  1  0
 31 29  1  0
 32 41  2  0
 32 37  1  0
 33 29  1  0
 33 37  1  0
 34 33  1  0
 35 36  1  0
 35 34  1  0
 36 32  1  0
 37 38  2  0
 38 39  1  0
 40 39  2  0
 41 40  1  0
 42 16  1  0
 42 47  1  0
 42 43  1  0
 43 46  1  1
 43 44  1  0
 45 43  1  0
 47 50  1  0
 48 52  1  0
 48 47  1  0
 49 48  2  0
 52 51  1  0
 52 54  1  0
 54 55  1  0
 54 53  1  0
 56 60  1  0
 57 58  1  0
 59 60  1  0
 59 62  2  0
 60 57  2  0
 61 58  2  0
 61 73  1  0
 62 61  1  0
 63 62  1  0
 65 70  1  0
 66 67  1  0
 66 65  1  0
 68 67  1  0
 68 77  1  0
 68 69  1  0
 70 64  1  0
 70 69  1  0
 71 64  2  0
 73 64  1  0
 73 72  1  0
 74 75  2  0
 75 94  1  0
 76 75  1  0
 76 79  1  0
 77 78  1  0
 77 74  1  0
 78 76  2  0
 79 80  1  0
 80 81  2  0
 82 81  1  0
 83 82  2  0
 84 83  1  0
 84 79  2  0
 85 82  1  0
 85 86  1  0
 86 91  2  0
 86 87  1  0
 87 88  2  0
 88 89  1  0
 89 93  1  0
 90 89  2  0
 91 90  1  0
 92 91  1  0
 94 95  1  0
 95 98  1  0
 95 97  1  0
 96 94  2  0
 99100  1  0
 99 74  1  0
101 99  1  0
M  ISO  4  14 101  15 101  64 100  73 100
M  END
>  <TORSDO>  (18) 
F 20

>  <SCORE>  (18) 
-9.396

>  <name>  (18) 
17

>  <ligand_id>  (18) 
17

>  <original_smiles>  (18) 
[H]c1c([H])c([H])c2c(c1[H])C([H])([H])C([H])([H])C([H])([H])C2([H])N([H])C(=O)C1([H])N(C(=O)C([H])(N([H])C(=O)C([H])(N([H])C([H])([H])[H])C([H])([H])[H])C(C([H])([H])[H])(C([H])([H])[H])C([H])([H])[H])C([H])([H])c2c([H])c(OC([H])([H])c3c([H])c([H])c(C4([H])C([H])([H])C([H])([H])[N+]([H])(C([H])([H])c5c([H])c([H])c(N(C(=O)N6C([H])([H])C([H])([H])C([H])([H])C([H])(n7nc(-c8c([H])c([H])c(Oc9c([H])c([H])c(F)c([H])c9F)c([H])c8[H])c(C(=O)N([H])[H])c7N([H])[H])C6([H])[H])C([H])([H])[H])c(Cl)c5[H])C([H])([H])C4([H])[H])c([H])c3[H])c([H])c([H])c2C1([H])[H]

>  <smiles>  (18) 
[H]c1c([H])c([H])c2c(c1[H])C([H])([H])C([H])([H])C([H])([H])C2([H])N([H])C(=O)C1([H])N(C(=O)C([H])(N([H])C(=O)C([H])(N([H])C([H])([H])[H])C([H])([H])[H])C(C([H])([H])[H])(C([H])([H])[H])C([H])([H])[H])C([H])([H])c2c([H])c(OC([H])([H])c3c([H])c([H])c(C4([H])C([H])([H])C([H])([H])[N+]([H])(C([H])([H])c5c([H])c([H])c(N(C(=O)N6C([H])([H])C([H])([H])C([H])([H])C([H])(n7nc(-c8c([H])c([H])c(Oc9c([H])c([H])c(F)c([H])c9F)c([H])c8[H])c(C(=O)N([H])[H])c7N([H])[H])C6([H])[H])C([H])([H])[H])c(Cl)c5[H])C([H])([H])C4([H])[H])c([H])c3[H])c([H])c([H])c2C1([H])[H]

$$$$
18:0:0
     RDKit          3D

 93101  0  0  1  0  0  0  0  0999 V2000
  -27.0140  -21.2530   21.5060 C   0  0  0  0  0  1  0  0  0  0  0  0
  -28.2260  -21.1780   20.6530 N   0  0  1  0  0  4  0  0  0  0  0  0
  -28.9860  -20.9050   21.2580 H   0  0  0  0  0  0  0  0  0  0  0  0
  -28.1330  -20.0880   19.6550 C   0  0  0  0  0  2  0  0  0  0  0  0
  -30.2920  -18.7830   19.3550 C   0  0  0  0  0  3  0  0  0  0  0  0
  -28.6930  -18.0420   21.0410 C   0  0  0  0  0  3  0  0  0  0  0  0
  -31.1240  -17.6900   19.6620 C   0  0  0  0  0  3  0  0  0  0  0  0
  -29.5210  -16.9480   21.3460 C   0  0  0  0  0  3  0  0  0  0  0  0
  -29.0620  -18.9490   20.0270 C   0  0  0  0  0  0  0  0  0  0  0  0
  -30.7250  -16.7480   20.6380 C   0  0  0  0  0  0  0  0  0  0  0  0
  -31.8470  -14.7210   19.9450 C   0  0  0  0  0  0  0  0  0  0  0  0
  -31.3860  -12.5720   18.8290 C   0  0  0  0  0  2  0  0  0  0  0  0
  -30.3800  -12.7690   17.6790 C   0  0  0  0  0  2  0  0  0  0  0  0
  -28.9270  -12.7140   18.1900 C   0  0  0  0  0  2  0  0  0  0  0  0
  -28.6990  -13.6210   19.4270 C   0  0  0  0  0  3  0  0  0  0  0  0
  -29.7950  -13.3640   20.4860 C   0  0  0  0  0  2  0  0  0  0  0  0
  -31.1180  -13.5790   19.8630 N   0  0  0  0  0  0  0  0  0  0  0  0
  -32.8230  -14.9700   19.2280 O   0  0  0  0  0  0  0  0  0  0  0  0
  -31.4480  -15.5610   20.9060 N   0  0  0  0  0  0  0  0  0  0  0  0
  -31.0770  -15.0590   21.6990 H   0  0  0  0  0  0  0  0  0  0  0  0
  -26.4090  -14.3870   20.3300 C   0  0  0  0  0  0  0  0  0  0  0  0
  -25.3040  -13.6840   20.7340 C   0  0  0  0  0  0  0  0  0  0  0  0
  -25.6420  -12.3030   20.5940 C   0  0  0  0  0  0  0  0  0  0  0  0
  -27.3590  -13.4370   19.9810 N   0  0  0  0  0  0  0  0  0  0  0  0
  -26.9000  -12.1770   20.1910 N   0  0  0  0  0  0  0  0  0  0  0  0
  -24.8250  -11.0950   20.7690 C   0  0  0  0  0  0  0  0  0  0  0  0
  -25.1190  -10.1420   21.7700 C   0  0  0  0  0  3  0  0  0  0  0  0
  -24.3090   -8.9970   21.9290 C   0  0  0  0  0  3  0  0  0  0  0  0
  -23.1920   -8.7970   21.0860 C   0  0  0  0  0  0  0  0  0  0  0  0
  -22.9160   -9.7360   20.0770 C   0  0  0  0  0  3  0  0  0  0  0  0
  -23.7260  -10.8720   19.9160 C   0  0  0  0  0  3  0  0  0  0  0  0
  -22.3620   -7.7030   21.1500 O   0  0  0  0  0  0  0  0  0  0  0  0
  -22.0200   -7.1280   22.3480 C   0  0  0  0  0  0  0  0  0  0  0  0
  -21.3760   -7.8610   23.3690 C   0  0  0  0  0  3  0  0  0  0  0  0
  -20.9800   -7.2140   24.5570 C   0  0  0  0  0  3  0  0  0  0  0  0
  -21.2190   -5.8360   24.7210 C   0  0  0  0  0  0  0  0  0  0  0  0
  -21.8560   -5.1040   23.7030 C   0  0  0  0  0  3  0  0  0  0  0  0
  -22.2540   -5.7500   22.5200 C   0  0  0  0  0  0  0  0  0  0  0  0
  -22.8480   -5.0350   21.5330 F   0  0  0  0  0  0  0  0  0  0  0  0
  -20.8310   -5.2120   25.8580 F   0  0  0  0  0  0  0  0  0  0  0  0
  -23.9740  -14.2560   21.1360 C   0  0  0  0  0  0  0  0  0  0  0  0
  -23.2700  -13.5940   22.0470 N   0  0  0  0  0  0  0  0  0  0  0  0
  -23.5710  -15.3250   20.6780 O   0  0  0  0  0  0  0  0  0  0  0  0
  -23.6080  -12.7270   22.4410 H   0  0  0  0  0  0  0  0  0  0  0  0
  -22.3810  -13.9580   22.3580 H   0  0  0  0  0  0  0  0  0  0  0  0
  -26.6780  -15.7480   20.2160 N   0  0  0  0  0  0  0  0  0  0  0  0
  -25.9840  -16.4560   20.4310 H   0  0  0  0  0  0  0  0  0  0  0  0
  -27.5580  -16.1370   19.9020 H   0  0  0  0  0  0  0  0  0  0  0  0
  -28.6160  -22.4680   20.0270 C   0  0  0  0  0  2  0  0  0  0  0  0
  -28.9210  -23.6010   21.0260 C   0  0  0  0  0  2  0  0  0  0  0  0
  -29.3820  -24.8750   20.3030 C   0  0  0  0  0  2  0  0  0  0  0  0
  -29.3790  -26.1130   21.2110 C   0  0  0  0  0  2  0  0  0  0  0  0
  -29.2840  -27.3000   20.4290 O   0  0  0  0  0  0  0  0  0  0  0  0
  -24.7240  -31.8680   23.3900 C   0  0  0  0  0  0  0  0  0  0  0  0
  -28.0290  -27.8540   20.3990 C   0  0  0  0  0  0  0  0  0  0  0  0
  -23.7750  -30.3720   21.6620 C   0  0  0  0  0  3  0  0  0  0  0  0
  -25.4700  -29.0360   20.3060 C   0  0  0  0  0  0  0  0  0  0  0  0
  -26.2450  -31.0270   21.6080 C   0  0  0  0  0  2  0  0  0  0  0  0
  -26.5220  -29.6890   20.9620 C   0  0  0  0  0  0  0  0  0  0  0  0
  -27.8030  -29.1030   21.0090 C   0  0  0  0  0  3  0  0  0  0  0  0
  -26.9650  -27.2000   19.7410 C   0  0  0  0  0  3  0  0  0  0  0  0
  -25.6840  -27.7850   19.6980 C   0  0  0  0  0  3  0  0  0  0  0  0
  -24.1350  -29.7420   20.2890 C   0  0  0  0  0  2  0  0  0  0  0  0
  -24.9270  -31.1050   22.2790 N   0  0  0  0  0  0  0  0  0  0  0  0
  -23.5930  -32.0060   23.8730 O   0  0  0  0  0  0  0  0  0  0  0  0
  -23.1950  -29.2660   22.5710 C   0  0  0  0  0  0  0  0  0  0  0  0
  -21.9200  -28.9130   22.3410 N   0  0  0  0  0  0  0  0  0  0  0  0
  -23.8920  -28.7280   23.4350 O   0  0  0  0  0  0  0  0  0  0  0  0
  -21.4130  -29.4090   21.6210 H   0  0  0  0  0  0  0  0  0  0  0  0
  -18.7070  -27.2830   22.5700 C   0  0  0  0  0  0  0  0  0  0  0  0
  -21.1790  -27.8670   23.0440 C   0  0  0  0  0  3  0  0  0  0  0  0
  -21.5140  -26.4690   22.4780 C   0  0  0  0  0  2  0  0  0  0  0  0
  -20.5450  -26.0100   21.3820 C   0  0  0  0  0  2  0  0  0  0  0  0
  -19.1090  -25.9740   21.9120 C   0  0  0  0  0  2  0  0  0  0  0  0
  -19.6800  -28.1790   23.0880 C   0  0  0  0  0  0  0  0  0  0  0  0
  -19.2530  -29.3980   23.6600 C   0  0  0  0  0  3  0  0  0  0  0  0
  -17.8850  -29.7240   23.7220 C   0  0  0  0  0  3  0  0  0  0  0  0
  -16.9260  -28.8280   23.2200 C   0  0  0  0  0  3  0  0  0  0  0  0
  -17.3380  -27.6090   22.6510 C   0  0  0  0  0  3  0  0  0  0  0  0
  -25.8980  -32.6260   24.0880 C   0  0  0  0  0  3  0  0  0  0  0  0
  -25.4530  -34.0050   24.3250 N   0  0  0  0  0  0  0  0  0  0  0  0
  -25.7740  -35.0520   23.5530 C   0  0  0  0  0  0  0  0  0  0  0  0
  -26.5470  -34.9650   22.5950 O   0  0  0  0  0  0  0  0  0  0  0  0
  -24.7750  -34.1410   25.0620 H   0  0  0  0  0  0  0  0  0  0  0  0
  -23.9650  -36.6880   22.9420 C   0  0  0  0  0  1  0  0  0  0  0  0
  -25.1360  -36.4100   23.8990 C   0  0  0  0  0  3  0  0  0  0  0  0
  -27.0970  -37.4840   24.9160 C   0  0  0  0  0  1  0  0  0  0  0  0
  -26.0920  -37.5380   23.8560 N   0  0  0  0  0  0  0  0  0  0  0  0
  -25.6040  -38.4270   23.9270 H   0  0  0  0  0  0  0  0  0  0  0  0
  -26.3640  -31.9470   25.4340 C   0  0  1  0  0  0  0  0  0  0  0  0
  -25.2010  -31.6270   26.4010 C   0  0  0  0  0  1  0  0  0  0  0  0
  -27.1170  -30.6270   25.1470 C   0  0  0  0  0  1  0  0  0  0  0  0
  -27.3540  -32.8760   26.1740 C   0  0  0  0  0  1  0  0  0  0  0  0
  2  3  1  1
  2  1  1  0
  4  9  1  0
  4  2  1  0
  5  7  2  0
  5  9  1  0
  6  8  1  0
  7 10  1  0
  9  6  2  0
 10 19  1  0
 10  8  2  0
 11 19  1  0
 12 17  1  0
 13 14  1  0
 13 12  1  0
 15 14  1  0
 15 24  1  0
 15 16  1  0
 17 11  1  0
 17 16  1  0
 18 11  2  0
 19 20  1  0
 21 22  2  0
 22 41  1  0
 23 22  1  0
 23 26  1  0
 24 25  1  0
 24 21  1  0
 25 23  2  0
 26 27  1  0
 27 28  2  0
 29 32  1  0
 29 28  1  0
 30 29  2  0
 31 30  1  0
 31 26  2  0
 32 33  1  0
 33 38  2  0
 33 34  1  0
 34 35  2  0
 35 36  1  0
 36 40  1  0
 37 36  2  0
 38 37  1  0
 39 38  1  0
 41 42  1  0
 42 45  1  0
 42 44  1  0
 43 41  2  0
 46 21  1  0
 46 47  1  0
 48 46  1  0
 49  2  1  0
 49 50  1  0
 51 50  1  0
 51 52  1  0
 53 52  1  0
 54 65  2  0
 55 53  1  0
 55 60  1  0
 56 64  1  0
 56 66  1  0
 57 59  1  0
 58 64  1  0
 59 60  2  0
 59 58  1  0
 61 55  2  0
 62 61  1  0
 62 57  2  0
 63 57  1  0
 63 56  1  0
 64 54  1  0
 66 68  2  0
 67 66  1  0
 69 67  1  0
 70 79  2  0
 70 75  1  0
 71 67  1  0
 71 75  1  0
 72 71  1  0
 73 74  1  0
 73 72  1  0
 74 70  1  0
 75 76  2  0
 76 77  1  0
 78 77  2  0
 79 78  1  0
 80 54  1  0
 80 81  1  0
 80 90  1  0
 81 84  1  0
 82 86  1  0
 82 81  1  0
 83 82  2  0
 86 85  1  0
 88 86  1  0
 88 89  1  0
 88 87  1  0
 90 93  1  1
 90 91  1  0
 92 90  1  0
M  ISO  4  11 100  19 100  52 101  53 101
M  END
>  <TORSDO>  (19) 
F 22

>  <SCORE>  (19) 
-9.053

>  <name>  (19) 
18

>  <ligand_id>  (19) 
18

>  <original_smiles>  (19) 
[H]c1c([H])c([H])c2c(c1[H])C([H])([H])C([H])([H])C([H])([H])C2([H])N([H])C(=O)C1([H])N(C(=O)C([H])(N([H])C(=O)C([H])(N([H])C([H])([H])[H])C([H])([H])[H])C(C([H])([H])[H])(C([H])([H])[H])C([H])([H])[H])C([H])([H])c2c([H])c(OC([H])([H])C([H])([H])C([H])([H])C([H])([H])[N+]([H])(C([H])([H])[H])C([H])([H])c3c([H])c([H])c(N([H])C(=O)N4C([H])([H])C([H])([H])C([H])([H])C([H])(n5nc(-c6c([H])c([H])c(Oc7c([H])c([H])c(F)c([H])c7F)c([H])c6[H])c(C(=O)N([H])[H])c5N([H])[H])C4([H])[H])c([H])c3[H])c([H])c([H])c2C1([H])[H]

>  <smiles>  (19) 
[H]c1c([H])c([H])c2c(c1[H])C([H])([H])C([H])([H])C([H])([H])C2([H])N([H])C(=O)C1([H])N(C(=O)C([H])(N([H])C(=O)C([H])(N([H])C([H])([H])[H])C([H])([H])[H])C(C([H])([H])[H])(C([H])([H])[H])C([H])([H])[H])C([H])([H])c2c([H])c(OC([H])([H])C([H])([H])C([H])([H])C([H])([H])[N+]([H])(C([H])([H])[H])C([H])([H])c3c([H])c([H])c(N([H])C(=O)N4C([H])([H])C([H])([H])C([H])([H])C([H])(n5nc(-c6c([H])c([H])c(Oc7c([H])c([H])c(F)c([H])c7F)c([H])c6[H])c(C(=O)N([H])[H])c5N([H])[H])C4([H])[H])c([H])c3[H])c([H])c([H])c2C1([H])[H]

$$$$
19:0:0
     RDKit          3D

 91 99  0  0  1  0  0  0  0  0999 V2000
  -28.9390  -21.5980   22.3620 C   0  0  0  0  0  1  0  0  0  0  0  0
  -29.3930  -21.4870   20.9700 N   0  0  0  0  0  0  0  0  0  0  0  0
  -29.5450  -17.6270   20.9910 C   0  0  0  0  0  3  0  0  0  0  0  0
  -29.2720  -18.9850   21.3410 C   0  0  0  0  0  3  0  0  0  0  0  0
  -30.4140  -18.4020   18.9090 C   0  0  0  0  0  3  0  0  0  0  0  0
  -30.1440  -17.2810   19.7580 C   0  0  0  0  0  0  0  0  0  0  0  0
  -29.6100  -20.1170   20.5210 C   0  0  0  0  0  0  0  0  0  0  0  0
  -30.2250  -19.7620   19.2850 C   0  0  0  0  0  0  0  0  0  0  0  0
  -30.8810  -20.9520   18.2110 Cl  0  0  0  0  0  0  0  0  0  0  0  0
  -30.9900  -14.8840   20.1240 C   0  0  0  0  0  0  0  0  0  0  0  0
  -30.7200  -12.5890   19.2300 C   0  0  0  0  0  2  0  0  0  0  0  0
  -29.7630  -12.5770   18.0170 C   0  0  0  0  0  2  0  0  0  0  0  0
  -28.3010  -12.4770   18.4770 C   0  0  0  0  0  2  0  0  0  0  0  0
  -27.9420  -13.4330   19.6490 C   0  0  0  0  0  3  0  0  0  0  0  0
  -29.0200  -13.4240   20.7540 C   0  0  0  0  0  2  0  0  0  0  0  0
  -30.3030  -13.6990   20.1040 N   0  0  0  0  0  0  0  0  0  0  0  0
  -32.2200  -14.8820   20.1890 O   0  0  0  0  0  0  0  0  0  0  0  0
  -30.9620  -15.8020   17.9470 C   0  0  0  0  0  1  0  0  0  0  0  0
  -30.4510  -15.8900   19.3380 N   0  0  0  0  0  0  0  0  0  0  0  0
  -25.5490  -14.0310   20.3760 C   0  0  0  0  0  0  0  0  0  0  0  0
  -24.4850  -13.2520   20.7370 C   0  0  0  0  0  0  0  0  0  0  0  0
  -24.9580  -11.9030   20.7280 C   0  0  0  0  0  0  0  0  0  0  0  0
  -26.6020  -13.1570   20.1600 N   0  0  0  0  0  0  0  0  0  0  0  0
  -26.2520  -11.8750   20.4380 N   0  0  0  0  0  0  0  0  0  0  0  0
  -24.2360  -10.6340   20.9170 C   0  0  0  0  0  0  0  0  0  0  0  0
  -24.6380   -9.6950   21.8950 C   0  0  0  0  0  3  0  0  0  0  0  0
  -23.9160   -8.4950   22.0750 C   0  0  0  0  0  3  0  0  0  0  0  0
  -22.7790   -8.2230   21.2770 C   0  0  0  0  0  0  0  0  0  0  0  0
  -22.3960   -9.1480   20.2890 C   0  0  0  0  0  3  0  0  0  0  0  0
  -23.1180  -10.3400   20.1090 C   0  0  0  0  0  3  0  0  0  0  0  0
  -22.0360   -7.0720   21.3600 O   0  0  0  0  0  0  0  0  0  0  0  0
  -21.8950   -6.3920   22.5410 C   0  0  0  0  0  0  0  0  0  0  0  0
  -21.3170   -6.9910   23.6800 C   0  0  0  0  0  3  0  0  0  0  0  0
  -21.1250   -6.2370   24.8540 C   0  0  0  0  0  3  0  0  0  0  0  0
  -21.5000   -4.8800   24.8890 C   0  0  0  0  0  0  0  0  0  0  0  0
  -22.0720   -4.2780   23.7540 C   0  0  0  0  0  3  0  0  0  0  0  0
  -22.2650   -5.0320   22.5820 C   0  0  0  0  0  0  0  0  0  0  0  0
  -22.7920   -4.4410   21.4840 F   0  0  0  0  0  0  0  0  0  0  0  0
  -21.3080   -4.1520   26.0130 F   0  0  0  0  0  0  0  0  0  0  0  0
  -23.0810  -13.7170   20.9860 C   0  0  0  0  0  0  0  0  0  0  0  0
  -22.3590  -13.0370   21.8670 N   0  0  0  0  0  0  0  0  0  0  0  0
  -22.6350  -14.7250   20.4380 O   0  0  0  0  0  0  0  0  0  0  0  0
  -22.7430  -12.2300   22.3390 H   0  0  0  0  0  0  0  0  0  0  0  0
  -21.4120  -13.3220   22.0700 H   0  0  0  0  0  0  0  0  0  0  0  0
  -25.6970  -15.4020   20.1930 N   0  0  0  0  0  0  0  0  0  0  0  0
  -24.9150  -16.0390   20.3140 H   0  0  0  0  0  0  0  0  0  0  0  0
  -26.5540  -15.8650   19.9190 H   0  0  0  0  0  0  0  0  0  0  0  0
  -28.9200  -22.6210   20.0990 C   0  0  0  0  0  2  0  0  0  0  0  0
  -29.3500  -24.1180   20.4890 C   0  0  0  0  0  2  0  0  0  0  0  0
  -28.4010  -25.2400   19.9010 C   0  0  0  0  0  2  0  0  0  0  0  0
  -28.5850  -26.6760   20.2180 O   0  0  0  0  0  0  0  0  0  0  0  0
  -24.6550  -31.9100   23.2490 C   0  0  0  0  0  0  0  0  0  0  0  0
  -27.4510  -27.5010   20.1440 C   0  0  0  0  0  0  0  0  0  0  0  0
  -23.5260  -30.5230   21.5480 C   0  0  0  0  0  3  0  0  0  0  0  0
  -25.0460  -29.0470   20.1210 C   0  0  0  0  0  0  0  0  0  0  0  0
  -26.0600  -30.9100   21.4290 C   0  0  0  0  0  2  0  0  0  0  0  0
  -26.1860  -29.5500   20.7550 C   0  0  0  0  0  0  0  0  0  0  0  0
  -27.3940  -28.7880   20.7610 C   0  0  0  0  0  3  0  0  0  0  0  0
  -26.2820  -27.0540   19.4800 C   0  0  0  0  0  3  0  0  0  0  0  0
  -25.0940  -27.8010   19.4790 C   0  0  0  0  0  3  0  0  0  0  0  0
  -23.7880  -29.8880   20.1580 C   0  0  0  0  0  2  0  0  0  0  0  0
  -24.7640  -31.1290   22.1350 N   0  0  0  0  0  0  0  0  0  0  0  0
  -23.5520  -32.1460   23.7620 O   0  0  0  0  0  0  0  0  0  0  0  0
  -22.8680  -29.4660   22.4680 C   0  0  0  0  0  0  0  0  0  0  0  0
  -21.5540  -29.2460   22.2940 N   0  0  0  0  0  0  0  0  0  0  0  0
  -23.5400  -28.8470   23.2960 O   0  0  0  0  0  0  0  0  0  0  0  0
  -21.0810  -29.7990   21.5970 H   0  0  0  0  0  0  0  0  0  0  0  0
  -18.2010  -27.9410   22.6600 C   0  0  0  0  0  0  0  0  0  0  0  0
  -20.7430  -28.2660   23.0180 C   0  0  0  0  0  3  0  0  0  0  0  0
  -20.9050  -26.8510   22.4080 C   0  0  0  0  0  2  0  0  0  0  0  0
  -19.8350  -26.5210   21.3550 C   0  0  0  0  0  2  0  0  0  0  0  0
  -18.4370  -26.6080   21.9700 C   0  0  0  0  0  2  0  0  0  0  0  0
  -19.2830  -28.7230   23.1520 C   0  0  0  0  0  0  0  0  0  0  0  0
  -19.0060  -29.9590   23.7770 C   0  0  0  0  0  3  0  0  0  0  0  0
  -17.6810  -30.4200   23.9070 C   0  0  0  0  0  3  0  0  0  0  0  0
  -16.6150  -29.6400   23.4260 C   0  0  0  0  0  3  0  0  0  0  0  0
  -16.8780  -28.4020   22.8120 C   0  0  0  0  0  3  0  0  0  0  0  0
  -25.9070  -32.5580   23.9200 C   0  0  0  0  0  3  0  0  0  0  0  0
  -26.3650  -31.8120   25.2340 C   0  0  1  0  0  0  0  0  0  0  0  0
  -25.2220  -31.5880   26.2500 C   0  0  0  0  0  1  0  0  0  0  0  0
  -26.9680  -30.4300   24.8930 C   0  0  0  0  0  1  0  0  0  0  0  0
  -27.4750  -32.6250   25.9380 C   0  0  0  0  0  1  0  0  0  0  0  0
  -25.5740  -33.9600   24.2120 N   0  0  0  0  0  0  0  0  0  0  0  0
  -25.9310  -35.0030   23.4510 C   0  0  0  0  0  0  0  0  0  0  0  0
  -26.6410  -34.8860   22.4490 O   0  0  0  0  0  0  0  0  0  0  0  0
  -24.9480  -34.1260   24.9880 H   0  0  0  0  0  0  0  0  0  0  0  0
  -24.2110  -36.7830   22.9990 C   0  0  0  0  0  1  0  0  0  0  0  0
  -25.4210  -36.3970   23.8650 C   0  0  0  0  0  3  0  0  0  0  0  0
  -27.5120  -37.3120   24.7730 C   0  0  0  0  0  1  0  0  0  0  0  0
  -26.4540  -37.4530   23.7760 N   0  0  0  0  0  0  0  0  0  0  0  0
  -26.0380  -38.3750   23.8800 H   0  0  0  0  0  0  0  0  0  0  0  0
  2  1  1  0
  3  4  1  0
  5  8  2  0
  5  6  1  0
  6  3  2  0
  7  2  1  0
  7  4  2  0
  8  7  1  0
  9  8  1  0
 10 17  2  0
 11 16  1  0
 12 13  1  0
 12 11  1  0
 14 13  1  0
 14 23  1  0
 14 15  1  0
 16 10  1  0
 16 15  1  0
 18 19  1  0
 19  6  1  0
 19 10  1  0
 20 21  2  0
 21 40  1  0
 22 21  1  0
 22 25  1  0
 23 20  1  0
 23 24  1  0
 24 22  2  0
 25 26  1  0
 26 27  2  0
 28 31  1  0
 28 27  1  0
 29 28  2  0
 30 29  1  0
 30 25  2  0
 31 32  1  0
 32 37  2  0
 32 33  1  0
 33 34  2  0
 34 35  1  0
 35 39  1  0
 36 35  2  0
 37 36  1  0
 38 37  1  0
 40 41  1  0
 41 44  1  0
 41 43  1  0
 42 40  2  0
 45 46  1  0
 45 20  1  0
 47 45  1  0
 48 49  1  0
 48  2  1  0
 50 51  1  0
 50 49  1  0
 52 63  2  0
 53 51  1  0
 53 58  1  0
 54 62  1  0
 54 64  1  0
 55 61  1  0
 55 57  1  0
 56 62  1  0
 57 58  2  0
 57 56  1  0
 59 53  2  0
 60 59  1  0
 60 55  2  0
 61 54  1  0
 62 52  1  0
 64 66  2  0
 65 64  1  0
 67 65  1  0
 68 77  2  0
 68 73  1  0
 69 65  1  0
 69 73  1  0
 70 69  1  0
 71 72  1  0
 71 70  1  0
 72 68  1  0
 73 74  2  0
 74 75  1  0
 76 75  2  0
 77 76  1  0
 78 52  1  0
 78 83  1  0
 78 79  1  0
 79 82  1  1
 79 80  1  0
 81 79  1  0
 83 86  1  0
 84 88  1  0
 84 83  1  0
 85 84  2  0
 88 87  1  0
 90 88  1  0
 90 91  1  0
 90 89  1  0
M  ISO  4  10 100  19 100  50 101  51 101
M  END
>  <TORSDO>  (20) 
F 20

>  <SCORE>  (20) 
-12.823

>  <name>  (20) 
19

>  <ligand_id>  (20) 
19

>  <original_smiles>  (20) 
[H]c1c([H])c([H])c2c(c1[H])C([H])([H])C([H])([H])C([H])([H])C2([H])N([H])C(=O)C1([H])N(C(=O)C([H])(N([H])C(=O)C([H])(N([H])C([H])([H])[H])C([H])([H])[H])C(C([H])([H])[H])(C([H])([H])[H])C([H])([H])[H])C([H])([H])c2c([H])c(OC([H])([H])C([H])([H])C([H])([H])N(c3c([H])c([H])c(N(C(=O)N4C([H])([H])C([H])([H])C([H])([H])C([H])(n5nc(-c6c([H])c([H])c(Oc7c([H])c([H])c(F)c([H])c7F)c([H])c6[H])c(C(=O)N([H])[H])c5N([H])[H])C4([H])[H])C([H])([H])[H])c([H])c3Cl)C([H])([H])[H])c([H])c([H])c2C1([H])[H]

>  <smiles>  (20) 
[H]c1c([H])c([H])c2c(c1[H])C([H])([H])C([H])([H])C([H])([H])C2([H])N([H])C(=O)C1([H])N(C(=O)C([H])(N([H])C(=O)C([H])(N([H])C([H])([H])[H])C([H])([H])[H])C(C([H])([H])[H])(C([H])([H])[H])C([H])([H])[H])C([H])([H])c2c([H])c(OC([H])([H])C([H])([H])C([H])([H])N(c3c([H])c([H])c(N(C(=O)N4C([H])([H])C([H])([H])C([H])([H])C([H])(n5nc(-c6c([H])c([H])c(Oc7c([H])c([H])c(F)c([H])c7F)c([H])c6[H])c(C(=O)N([H])[H])c5N([H])[H])C4([H])[H])C([H])([H])[H])c([H])c3Cl)C([H])([H])[H])c([H])c([H])c2C1([H])[H]

$$$$
20:0:0
     RDKit          3D

 96105  0  0  1  0  0  0  0  0999 V2000
  -28.4170  -19.9290   19.7910 C   0  0  0  0  0  3  0  0  0  0  0  0
  -28.6870  -18.5040   19.7710 C   0  0  0  0  0  3  0  0  0  0  0  0
  -30.5130  -18.7880   21.2120 C   0  0  0  0  0  3  0  0  0  0  0  0
  -30.2460  -20.2350   21.2570 C   0  0  0  0  0  0  0  0  0  0  0  0
  -29.1740  -20.8970   20.5240 C   0  0  0  0  0  0  0  0  0  0  0  0
  -29.7670  -17.8250   20.4490 C   0  0  0  0  0  0  0  0  0  0  0  0
  -30.7360  -15.2330   20.8170 C   0  0  0  0  0  0  0  0  0  0  0  0
  -30.7460  -12.7930   20.0790 C   0  0  0  0  0  2  0  0  0  0  0  0
  -29.9220  -12.5000   18.7970 C   0  0  0  0  0  2  0  0  0  0  0  0
  -28.4230  -12.3580   19.1070 C   0  0  0  0  0  2  0  0  0  0  0  0
  -27.8940  -13.4000   20.1290 C   0  0  0  0  0  3  0  0  0  0  0  0
  -28.8420  -13.5720   21.3320 C   0  0  0  0  0  2  0  0  0  0  0  0
  -30.1450  -13.9650   20.7800 N   0  0  0  0  0  0  0  0  0  0  0  0
  -31.9710  -15.2530   20.8860 O   0  0  0  0  0  0  0  0  0  0  0  0
  -30.0770  -16.3300   20.1530 N   0  0  0  0  0  0  0  0  0  0  0  0
  -25.4580  -13.9870   20.6590 C   0  0  0  0  0  0  0  0  0  0  0  0
  -24.3680  -13.2130   20.9470 C   0  0  0  0  0  0  0  0  0  0  0  0
  -24.8400  -11.8660   20.9960 C   0  0  0  0  0  0  0  0  0  0  0  0
  -26.5230  -13.1090   20.5350 N   0  0  0  0  0  0  0  0  0  0  0  0
  -26.1540  -11.8320   20.8110 N   0  0  0  0  0  0  0  0  0  0  0  0
  -24.1070  -10.6020   21.1480 C   0  0  0  0  0  0  0  0  0  0  0  0
  -24.4670   -9.6500   22.1260 C   0  0  0  0  0  3  0  0  0  0  0  0
  -23.7340   -8.4530   22.2660 C   0  0  0  0  0  3  0  0  0  0  0  0
  -22.6240   -8.1970   21.4250 C   0  0  0  0  0  0  0  0  0  0  0  0
  -22.2840   -9.1380   20.4360 C   0  0  0  0  0  3  0  0  0  0  0  0
  -23.0190  -10.3260   20.2950 C   0  0  0  0  0  3  0  0  0  0  0  0
  -21.8690   -7.0510   21.4720 O   0  0  0  0  0  0  0  0  0  0  0  0
  -21.7370   -6.3230   22.6270 C   0  0  0  0  0  0  0  0  0  0  0  0
  -21.2010   -6.8850   23.8060 C   0  0  0  0  0  3  0  0  0  0  0  0
  -21.0190   -6.0810   24.9490 C   0  0  0  0  0  3  0  0  0  0  0  0
  -21.3640   -4.7160   24.9140 C   0  0  0  0  0  0  0  0  0  0  0  0
  -21.8920   -4.1540   23.7390 C   0  0  0  0  0  3  0  0  0  0  0  0
  -22.0750   -4.9540   22.5980 C   0  0  0  0  0  0  0  0  0  0  0  0
  -22.5650   -4.4030   21.4620 F   0  0  0  0  0  0  0  0  0  0  0  0
  -21.1820   -3.9430   26.0090 F   0  0  0  0  0  0  0  0  0  0  0  0
  -22.9490  -13.6850   21.0720 C   0  0  0  0  0  0  0  0  0  0  0  0
  -22.1510  -13.0160   21.8960 N   0  0  0  0  0  0  0  0  0  0  0  0
  -22.5540  -14.6860   20.4740 O   0  0  0  0  0  0  0  0  0  0  0  0
  -22.4810  -12.2090   22.4040 H   0  0  0  0  0  0  0  0  0  0  0  0
  -21.1940  -13.3160   22.0220 H   0  0  0  0  0  0  0  0  0  0  0  0
  -25.6340  -15.3540   20.4640 N   0  0  0  0  0  0  0  0  0  0  0  0
  -24.8600  -16.0090   20.5010 H   0  0  0  0  0  0  0  0  0  0  0  0
  -26.5160  -15.7940   20.2360 H   0  0  0  0  0  0  0  0  0  0  0  0
  -31.1710  -17.0830   17.9800 C   0  0  0  0  0  1  0  0  0  0  0  0
  -30.1720  -16.1360   18.6820 C   0  0  0  0  0  2  0  0  0  0  0  0
  -28.6700  -23.4610   19.7160 C   0  0  0  0  0  0  0  0  0  0  0  0
  -28.0020  -24.4710   21.7330 C   0  0  0  0  0  2  0  0  0  0  0  0
  -28.1980  -22.9230   21.8750 C   0  0  0  0  0  2  0  0  0  0  0  0
  -27.8440  -24.7660   20.2390 C   0  0  0  0  0  3  0  0  0  0  0  0
  -28.7540  -22.3860   20.6220 N   0  0  0  0  0  0  0  0  0  0  0  0
  -29.1570  -23.4310   18.5820 O   0  0  0  0  0  0  0  0  0  0  0  0
  -28.1170  -26.2530   19.8280 O   0  0  0  0  0  0  0  0  0  0  0  0
  -24.5480  -31.8560   23.0740 C   0  0  0  0  0  0  0  0  0  0  0  0
  -27.0620  -27.2390   19.8500 C   0  0  0  0  0  0  0  0  0  0  0  0
  -23.3110  -30.4980   21.4320 C   0  0  0  0  0  3  0  0  0  0  0  0
  -24.7270  -28.9750   19.9230 C   0  0  0  0  0  0  0  0  0  0  0  0
  -25.8580  -30.7850   21.2030 C   0  0  0  0  0  2  0  0  0  0  0  0
  -25.9220  -29.4100   20.5140 C   0  0  0  0  0  0  0  0  0  0  0  0
  -27.0900  -28.5600   20.4590 C   0  0  0  0  0  3  0  0  0  0  0  0
  -25.8450  -26.9170   19.2100 C   0  0  0  0  0  3  0  0  0  0  0  0
  -24.7020  -27.7430   19.2540 C   0  0  0  0  0  3  0  0  0  0  0  0
  -23.4970  -29.8630   20.0280 C   0  0  0  0  0  2  0  0  0  0  0  0
  -24.5940  -31.0660   21.9570 N   0  0  0  0  0  0  0  0  0  0  0  0
  -23.4750  -32.1180   23.6400 O   0  0  0  0  0  0  0  0  0  0  0  0
  -22.6660  -29.4590   22.3830 C   0  0  0  0  0  0  0  0  0  0  0  0
  -21.3370  -29.2750   22.2800 N   0  0  0  0  0  0  0  0  0  0  0  0
  -23.3630  -28.8230   23.1780 O   0  0  0  0  0  0  0  0  0  0  0  0
  -20.8300  -29.8410   21.6160 H   0  0  0  0  0  0  0  0  0  0  0  0
  -17.9840  -28.0160   22.8230 C   0  0  0  0  0  0  0  0  0  0  0  0
  -20.5440  -28.3100   23.0470 C   0  0  0  0  0  3  0  0  0  0  0  0
  -20.6540  -26.8920   22.4410 C   0  0  0  0  0  2  0  0  0  0  0  0
  -19.5380  -26.5740   21.4410 C   0  0  0  0  0  2  0  0  0  0  0  0
  -18.1670  -26.6840   22.1140 C   0  0  0  0  0  2  0  0  0  0  0  0
  -19.0990  -28.7860   23.2470 C   0  0  0  0  0  0  0  0  0  0  0  0
  -18.8720  -30.0310   23.8720 C   0  0  0  0  0  3  0  0  0  0  0  0
  -17.5640  -30.5070   24.0770 C   0  0  0  0  0  3  0  0  0  0  0  0
  -16.4630  -29.7350   23.6670 C   0  0  0  0  0  3  0  0  0  0  0  0
  -16.6740  -28.4900   23.0460 C   0  0  0  0  0  3  0  0  0  0  0  0
  -25.8400  -32.4820   23.6820 C   0  0  0  0  0  3  0  0  0  0  0  0
  -26.4030  -31.6690   24.9130 C   0  0  1  0  0  0  0  0  0  0  0  0
  -25.3480  -31.3840   26.0070 C   0  0  0  0  0  1  0  0  0  0  0  0
  -26.9820  -30.3100   24.4570 C   0  0  0  0  0  1  0  0  0  0  0  0
  -27.5690  -32.4480   25.5660 C   0  0  0  0  0  1  0  0  0  0  0  0
  -25.5230  -33.8620   24.0820 N   0  0  0  0  0  0  0  0  0  0  0  0
  -25.8480  -34.9560   23.3810 C   0  0  0  0  0  0  0  0  0  0  0  0
  -26.5130  -34.9080   22.3440 O   0  0  0  0  0  0  0  0  0  0  0  0
  -24.9300  -33.9720   24.8930 H   0  0  0  0  0  0  0  0  0  0  0  0
  -24.1330  -36.7780   23.1110 C   0  0  0  0  0  1  0  0  0  0  0  0
  -25.3600  -36.3180   23.9140 C   0  0  0  0  0  3  0  0  0  0  0  0
  -27.4830  -37.1440   24.8320 C   0  0  0  0  0  1  0  0  0  0  0  0
  -26.3980  -37.3700   23.8800 N   0  0  0  0  0  0  0  0  0  0  0  0
  -25.9930  -38.2830   24.0730 H   0  0  0  0  0  0  0  0  0  0  0  0
  -31.1810  -21.0650   22.1380 C   0  0  1  0  0  0  0  0  0  0  0  0
  -32.3720  -20.4770   22.2650 F   0  0  0  0  0  0  0  0  0  0  0  0
  -31.3960  -22.2820   21.6400 F   0  0  0  0  0  0  0  0  0  0  0  0
  -30.6500  -21.1840   23.3550 F   0  0  0  0  0  0  0  0  0  0  0  0
  1  5  1  0
  2  1  2  0
  2  6  1  0
  3  4  1  0
  4 93  1  0
  5 50  1  0
  5  4  2  0
  6  3  2  0
  7 14  2  0
  8 13  1  0
  9 10  1  0
  9  8  1  0
 11 10  1  0
 11 19  1  0
 11 12  1  0
 13  7  1  0
 13 12  1  0
 15  6  1  0
 15  7  1  0
 16 17  2  0
 17 18  1  0
 17 36  1  0
 18 21  1  0
 19 16  1  0
 19 20  1  0
 20 18  2  0
 21 22  1  0
 22 23  2  0
 24 27  1  0
 24 23  1  0
 25 24  2  0
 26 25  1  0
 26 21  2  0
 27 28  1  0
 28 29  1  0
 29 30  2  0
 31 30  1  0
 31 35  1  0
 32 31  2  0
 33 28  2  0
 33 32  1  0
 34 33  1  0
 36 37  1  0
 37 40  1  0
 37 39  1  0
 38 36  2  0
 41 42  1  0
 41 16  1  0
 43 41  1  0
 44 45  1  0
 45 15  1  0
 46 49  1  0
 46 50  1  0
 47 48  1  0
 49 52  1  0
 49 47  1  0
 50 48  1  0
 51 46  2  0
 52 54  1  0
 53 64  2  0
 54 59  1  0
 55 63  1  0
 55 65  1  0
 56 62  1  0
 56 58  1  0
 57 63  1  0
 58 57  1  0
 59 58  2  0
 60 61  1  0
 60 54  2  0
 61 56  2  0
 62 55  1  0
 63 53  1  0
 65 67  2  0
 66 65  1  0
 68 66  1  0
 69 78  2  0
 69 74  1  0
 70 66  1  0
 70 74  1  0
 71 70  1  0
 72 73  1  0
 72 71  1  0
 73 69  1  0
 74 75  2  0
 75 76  1  0
 77 76  2  0
 78 77  1  0
 79 53  1  0
 79 84  1  0
 79 80  1  0
 80 83  1  1
 80 81  1  0
 82 80  1  0
 84 87  1  0
 85 89  1  0
 85 84  1  0
 86 85  2  0
 89 88  1  0
 91 89  1  0
 91 92  1  0
 91 90  1  0
 93 94  1  1
 93 96  1  0
 95 93  1  0
M  ISO  4   7 100  15 100  49 101  52 101
M  END
>  <TORSDO>  (21) 
F 19

>  <SCORE>  (21) 
-14.367

>  <name>  (21) 
20

>  <ligand_id>  (21) 
20

>  <original_smiles>  (21) 
[H]c1c([H])c([H])c2c(c1[H])C([H])([H])C([H])([H])C([H])([H])C2([H])N([H])C(=O)C1([H])N(C(=O)C([H])(N([H])C(=O)C([H])(N([H])C([H])([H])[H])C([H])([H])[H])C(C([H])([H])[H])(C([H])([H])[H])C([H])([H])[H])C([H])([H])c2c([H])c(OC3([H])C(=O)N(c4c([H])c([H])c(N(C(=O)N5C([H])([H])C([H])([H])C([H])([H])C([H])(n6nc(-c7c([H])c([H])c(Oc8c([H])c([H])c(F)c([H])c8F)c([H])c7[H])c(C(=O)N([H])[H])c6N([H])[H])C5([H])[H])C([H])([H])C([H])([H])[H])c([H])c4C(F)(F)F)C([H])([H])C3([H])[H])c([H])c([H])c2C1([H])[H]

>  <smiles>  (21) 
[H]c1c([H])c([H])c2c(c1[H])C([H])([H])C([H])([H])C([H])([H])C2([H])N([H])C(=O)C1([H])N(C(=O)C([H])(N([H])C(=O)C([H])(N([H])C([H])([H])[H])C([H])([H])[H])C(C([H])([H])[H])(C([H])([H])[H])C([H])([H])[H])C([H])([H])c2c([H])c(OC3([H])C(=O)N(c4c([H])c([H])c(N(C(=O)N5C([H])([H])C([H])([H])C([H])([H])C([H])(n6nc(-c7c([H])c([H])c(Oc8c([H])c([H])c(F)c([H])c8F)c([H])c7[H])c(C(=O)N([H])[H])c6N([H])[H])C5([H])[H])C([H])([H])C([H])([H])[H])c([H])c4C(F)(F)F)C([H])([H])C3([H])[H])c([H])c([H])c2C1([H])[H]

$$$$
21:0:0
     RDKit          3D

 91100  0  0  1  0  0  0  0  0999 V2000
  -29.5720  -23.1450   22.5460 C   0  0  0  0  0  2  0  0  0  0  0  0
  -30.1940  -23.7830   21.2990 C   0  0  0  0  0  2  0  0  0  0  0  0
  -28.4370  -22.2500   22.0230 C   0  0  0  0  0  2  0  0  0  0  0  0
  -29.1850  -23.4890   20.1940 C   0  0  0  0  0  3  0  0  0  0  0  0
  -28.6820  -22.0740   20.5900 N   0  0  0  0  0  0  0  0  0  0  0  0
  -28.1240  -19.6230   20.5240 C   0  0  0  0  0  3  0  0  0  0  0  0
  -30.4020  -20.0790   20.1480 C   0  0  0  0  0  3  0  0  0  0  0  0
  -28.3900  -18.2060   20.4840 C   0  0  0  0  0  3  0  0  0  0  0  0
  -30.6760  -18.6350   20.1060 C   0  0  0  0  0  3  0  0  0  0  0  0
  -29.1000  -20.6590   20.3730 C   0  0  0  0  0  0  0  0  0  0  0  0
  -29.6740  -17.6120   20.2850 C   0  0  0  0  0  0  0  0  0  0  0  0
  -30.6220  -15.0150   19.9670 C   0  0  0  0  0  0  0  0  0  0  0  0
  -30.4820  -12.7030   18.9390 C   0  0  0  0  0  2  0  0  0  0  0  0
  -29.4660  -12.7280   17.7720 C   0  0  0  0  0  2  0  0  0  0  0  0
  -28.0280  -12.5070   18.2830 C   0  0  0  0  0  2  0  0  0  0  0  0
  -27.7040  -13.3740   19.5270 C   0  0  0  0  0  3  0  0  0  0  0  0
  -28.8280  -13.3030   20.5820 C   0  0  0  0  0  2  0  0  0  0  0  0
  -30.0700  -13.7380   19.9240 N   0  0  0  0  0  0  0  0  0  0  0  0
  -31.7830  -15.1680   19.5690 O   0  0  0  0  0  0  0  0  0  0  0  0
  -29.7620  -16.0840   20.3040 N   0  0  0  0  0  0  0  0  0  0  0  0
  -28.8880  -15.6790   20.6030 H   0  0  0  0  0  0  0  0  0  0  0  0
  -25.3700  -13.9310   20.4290 C   0  0  0  0  0  0  0  0  0  0  0  0
  -24.3300  -13.1430   20.8410 C   0  0  0  0  0  0  0  0  0  0  0  0
  -24.7900  -11.7940   20.7340 C   0  0  0  0  0  0  0  0  0  0  0  0
  -26.3950  -13.0620   20.0930 N   0  0  0  0  0  0  0  0  0  0  0  0
  -26.0580  -11.7700   20.3400 N   0  0  0  0  0  0  0  0  0  0  0  0
  -24.0760  -10.5260   20.9260 C   0  0  0  0  0  0  0  0  0  0  0  0
  -24.5080   -9.5680   21.8700 C   0  0  0  0  0  3  0  0  0  0  0  0
  -23.7920   -8.3650   22.0490 C   0  0  0  0  0  3  0  0  0  0  0  0
  -22.6290   -8.1110   21.2830 C   0  0  0  0  0  0  0  0  0  0  0  0
  -22.2170   -9.0560   20.3270 C   0  0  0  0  0  3  0  0  0  0  0  0
  -22.9340  -10.2510   20.1460 C   0  0  0  0  0  3  0  0  0  0  0  0
  -21.8850   -6.9590   21.3710 O   0  0  0  0  0  0  0  0  0  0  0  0
  -21.7530   -6.2760   22.5530 C   0  0  0  0  0  0  0  0  0  0  0  0
  -21.2160   -6.8840   23.7090 C   0  0  0  0  0  3  0  0  0  0  0  0
  -21.0330   -6.1260   24.8830 C   0  0  0  0  0  3  0  0  0  0  0  0
  -21.3760   -4.7620   24.9010 C   0  0  0  0  0  0  0  0  0  0  0  0
  -21.9050   -4.1520   23.7490 C   0  0  0  0  0  3  0  0  0  0  0  0
  -22.0890   -4.9070   22.5780 C   0  0  0  0  0  0  0  0  0  0  0  0
  -22.5790   -4.3110   21.4650 F   0  0  0  0  0  0  0  0  0  0  0  0
  -21.1930   -4.0310   26.0260 F   0  0  0  0  0  0  0  0  0  0  0  0
  -22.9530  -13.6100   21.2140 C   0  0  0  0  0  0  0  0  0  0  0  0
  -22.2790  -12.8860   22.1000 N   0  0  0  0  0  0  0  0  0  0  0  0
  -22.4850  -14.6510   20.7550 O   0  0  0  0  0  0  0  0  0  0  0  0
  -22.6700  -12.0440   22.4950 H   0  0  0  0  0  0  0  0  0  0  0  0
  -21.3560  -13.1790   22.3890 H   0  0  0  0  0  0  0  0  0  0  0  0
  -25.5190  -15.3080   20.2840 N   0  0  0  0  0  0  0  0  0  0  0  0
  -24.7430  -15.9420   20.4400 H   0  0  0  0  0  0  0  0  0  0  0  0
  -26.3000  -15.7500   19.8170 H   0  0  0  0  0  0  0  0  0  0  0  0
  -28.0960  -24.7760   20.1200 C   0  0  0  0  0  2  0  0  0  0  0  0
  -28.3750  -26.3010   20.1560 O   0  0  0  0  0  0  0  0  0  0  0  0
  -24.6720  -31.8660   23.2480 C   0  0  0  0  0  0  0  0  0  0  0  0
  -27.2990  -27.2570   20.1240 C   0  0  0  0  0  0  0  0  0  0  0  0
  -23.4900  -30.5050   21.5670 C   0  0  0  0  0  3  0  0  0  0  0  0
  -24.9560  -28.9750   20.1200 C   0  0  0  0  0  0  0  0  0  0  0  0
  -26.0430  -30.7920   21.4260 C   0  0  0  0  0  2  0  0  0  0  0  0
  -26.1290  -29.4180   20.7430 C   0  0  0  0  0  0  0  0  0  0  0  0
  -27.3020  -28.5770   20.7280 C   0  0  0  0  0  3  0  0  0  0  0  0
  -26.0950  -26.9110   19.4690 C   0  0  0  0  0  3  0  0  0  0  0  0
  -24.9500  -27.7340   19.4680 C   0  0  0  0  0  3  0  0  0  0  0  0
  -23.7230  -29.8640   20.1750 C   0  0  0  0  0  2  0  0  0  0  0  0
  -24.7550  -31.0740   22.1370 N   0  0  0  0  0  0  0  0  0  0  0  0
  -23.5800  -32.1350   23.7720 O   0  0  0  0  0  0  0  0  0  0  0  0
  -22.8070  -29.4730   22.4980 C   0  0  0  0  0  0  0  0  0  0  0  0
  -21.4800  -29.3080   22.3610 N   0  0  0  0  0  0  0  0  0  0  0  0
  -23.4740  -28.8250   23.3090 O   0  0  0  0  0  0  0  0  0  0  0  0
  -20.9980  -29.8830   21.6840 H   0  0  0  0  0  0  0  0  0  0  0  0
  -18.0900  -28.1250   22.8400 C   0  0  0  0  0  0  0  0  0  0  0  0
  -20.6530  -28.3530   23.1040 C   0  0  0  0  0  3  0  0  0  0  0  0
  -20.7360  -26.9400   22.4800 C   0  0  0  0  0  2  0  0  0  0  0  0
  -19.6260  -26.6630   21.4610 C   0  0  0  0  0  2  0  0  0  0  0  0
  -18.2500  -26.7990   22.1170 C   0  0  0  0  0  2  0  0  0  0  0  0
  -19.2170  -28.8620   23.2900 C   0  0  0  0  0  0  0  0  0  0  0  0
  -19.0130  -30.1040   23.9290 C   0  0  0  0  0  3  0  0  0  0  0  0
  -17.7130  -30.6100   24.1210 C   0  0  0  0  0  3  0  0  0  0  0  0
  -16.5990  -29.8710   23.6860 C   0  0  0  0  0  3  0  0  0  0  0  0
  -16.7890  -28.6300   23.0510 C   0  0  0  0  0  3  0  0  0  0  0  0
  -25.9430  -32.4900   23.9010 C   0  0  0  0  0  3  0  0  0  0  0  0
  -25.6350  -33.8890   24.2340 N   0  0  0  0  0  0  0  0  0  0  0  0
  -25.9530  -34.9430   23.4700 C   0  0  0  0  0  0  0  0  0  0  0  0
  -26.6050  -34.8400   22.4280 O   0  0  0  0  0  0  0  0  0  0  0  0
  -25.0540  -34.0430   25.0450 H   0  0  0  0  0  0  0  0  0  0  0  0
  -24.2030  -36.7250   23.1710 C   0  0  0  0  0  1  0  0  0  0  0  0
  -25.4770  -36.3330   23.9370 C   0  0  0  0  0  3  0  0  0  0  0  0
  -27.6320  -37.2420   24.6840 C   0  0  0  0  0  1  0  0  0  0  0  0
  -26.4970  -37.3910   23.7770 N   0  0  0  0  0  0  0  0  0  0  0  0
  -26.0910  -38.3110   23.9260 H   0  0  0  0  0  0  0  0  0  0  0  0
  -26.4230  -31.7090   25.1870 C   0  0  1  0  0  0  0  0  0  0  0  0
  -25.3040  -31.4790   26.2300 C   0  0  0  0  0  1  0  0  0  0  0  0
  -27.0030  -30.3270   24.8070 C   0  0  0  0  0  1  0  0  0  0  0  0
  -27.5640  -32.4920   25.8780 C   0  0  0  0  0  1  0  0  0  0  0  0
  2  1  1  0
  3  1  1  0
  4 50  1  0
  4  5  1  0
  4  2  1  0
  5  3  1  0
  7 10  1  0
  8  6  1  0
  9  7  2  0
  9 11  1  0
 10  6  2  0
 10  5  1  0
 11 20  1  0
 11  8  2  0
 12 20  1  0
 13 18  1  0
 14 15  1  0
 14 13  1  0
 16 15  1  0
 16 25  1  0
 16 17  1  0
 18 12  1  0
 18 17  1  0
 19 12  2  0
 20 21  1  0
 22 23  2  0
 23 42  1  0
 24 23  1  0
 24 27  1  0
 25 26  1  0
 25 22  1  0
 26 24  2  0
 27 28  1  0
 28 29  2  0
 30 33  1  0
 30 29  1  0
 31 30  2  0
 32 31  1  0
 32 27  2  0
 33 34  1  0
 34 39  2  0
 34 35  1  0
 35 36  2  0
 36 37  1  0
 37 41  1  0
 38 37  2  0
 39 38  1  0
 40 39  1  0
 42 43  1  0
 43 46  1  0
 43 45  1  0
 44 42  2  0
 47 22  1  0
 47 48  1  0
 49 47  1  0
 50 51  1  0
 52 63  2  0
 53 51  1  0
 53 58  1  0
 54 62  1  0
 54 64  1  0
 55 61  1  0
 55 57  1  0
 56 62  1  0
 57 56  1  0
 58 57  2  0
 59 53  2  0
 60 59  1  0
 60 55  2  0
 61 54  1  0
 62 52  1  0
 64 66  2  0
 65 64  1  0
 67 65  1  0
 68 77  2  0
 68 73  1  0
 69 65  1  0
 69 73  1  0
 70 69  1  0
 71 72  1  0
 71 70  1  0
 72 68  1  0
 73 74  2  0
 74 75  1  0
 76 75  2  0
 77 76  1  0
 78 52  1  0
 78 79  1  0
 78 88  1  0
 79 82  1  0
 80 84  1  0
 80 79  1  0
 81 80  2  0
 84 83  1  0
 86 87  1  0
 86 84  1  0
 86 85  1  0
 88 91  1  1
 88 89  1  0
 90 88  1  0
M  ISO  4  12 100  20 100  50 101  51 101
M  END
>  <TORSDO>  (22) 
F 18

>  <SCORE>  (22) 
-14.615

>  <name>  (22) 
21

>  <ligand_id>  (22) 
21

>  <original_smiles>  (22) 
[H]c1c([H])c([H])c2c(c1[H])C([H])([H])C([H])([H])C([H])([H])C2([H])N([H])C(=O)C1([H])N(C(=O)C([H])(N([H])C(=O)C([H])(N([H])C([H])([H])[H])C([H])([H])[H])C(C([H])([H])[H])(C([H])([H])[H])C([H])([H])[H])C([H])([H])c2c([H])c(OC([H])([H])C3([H])N(c4c([H])c([H])c(N([H])C(=O)N5C([H])([H])C([H])([H])C([H])([H])C([H])(n6nc(-c7c([H])c([H])c(Oc8c([H])c([H])c(F)c([H])c8F)c([H])c7[H])c(C(=O)N([H])[H])c6N([H])[H])C5([H])[H])c([H])c4[H])C([H])([H])C([H])([H])C3([H])[H])c([H])c([H])c2C1([H])[H]

>  <smiles>  (22) 
[H]c1c([H])c([H])c2c(c1[H])C([H])([H])C([H])([H])C([H])([H])C2([H])N([H])C(=O)C1([H])N(C(=O)C([H])(N([H])C(=O)C([H])(N([H])C([H])([H])[H])C([H])([H])[H])C(C([H])([H])[H])(C([H])([H])[H])C([H])([H])[H])C([H])([H])c2c([H])c(OC([H])([H])C3([H])N(c4c([H])c([H])c(N([H])C(=O)N5C([H])([H])C([H])([H])C([H])([H])C([H])(n6nc(-c7c([H])c([H])c(Oc8c([H])c([H])c(F)c([H])c8F)c([H])c7[H])c(C(=O)N([H])[H])c6N([H])[H])C5([H])[H])c([H])c4[H])C([H])([H])C([H])([H])C3([H])[H])c([H])c([H])c2C1([H])[H]

$$$$
22:0:0
     RDKit          3D

 90 98  0  0  1  0  0  0  0  0999 V2000
  -30.7010  -19.8590   19.6520 C   0  0  0  0  0  3  0  0  0  0  0  0
  -30.8080  -18.4180   19.7880 C   0  0  0  0  0  3  0  0  0  0  0  0
  -28.4390  -19.8110   20.2760 C   0  0  0  0  0  3  0  0  0  0  0  0
  -29.5200  -20.6730   19.8840 C   0  0  0  0  0  0  0  0  0  0  0  0
  -29.7200  -17.5760   20.1580 C   0  0  0  0  0  0  0  0  0  0  0  0
  -28.5320  -18.3590   20.3930 C   0  0  0  0  0  0  0  0  0  0  0  0
  -27.4120  -17.6810   20.7400 F   0  0  0  0  0  0  0  0  0  0  0  0
  -30.5190  -14.9440   19.9530 C   0  0  0  0  0  0  0  0  0  0  0  0
  -30.3550  -12.6220   18.9590 C   0  0  0  0  0  2  0  0  0  0  0  0
  -29.3370  -12.6350   17.7950 C   0  0  0  0  0  2  0  0  0  0  0  0
  -27.9040  -12.4190   18.3170 C   0  0  0  0  0  2  0  0  0  0  0  0
  -27.5860  -13.3070   19.5480 C   0  0  0  0  0  3  0  0  0  0  0  0
  -28.7120  -13.2590   20.6040 C   0  0  0  0  0  2  0  0  0  0  0  0
  -29.9510  -13.6750   19.9320 N   0  0  0  0  0  0  0  0  0  0  0  0
  -31.6810  -15.0640   19.5500 O   0  0  0  0  0  0  0  0  0  0  0  0
  -29.6990  -16.0500   20.2770 N   0  0  0  0  0  0  0  0  0  0  0  0
  -28.8170  -15.7250   20.6420 H   0  0  0  0  0  0  0  0  0  0  0  0
  -25.2560  -13.8770   20.4490 C   0  0  0  0  0  0  0  0  0  0  0  0
  -24.2120  -13.0970   20.8620 C   0  0  0  0  0  0  0  0  0  0  0  0
  -24.6670  -11.7450   20.7670 C   0  0  0  0  0  0  0  0  0  0  0  0
  -26.2780  -13.0030   20.1200 N   0  0  0  0  0  0  0  0  0  0  0  0
  -25.9360  -11.7130   20.3740 N   0  0  0  0  0  0  0  0  0  0  0  0
  -23.9470  -10.4810   20.9670 C   0  0  0  0  0  0  0  0  0  0  0  0
  -24.4000   -9.5090   21.8840 C   0  0  0  0  0  3  0  0  0  0  0  0
  -23.6780   -8.3110   22.0740 C   0  0  0  0  0  3  0  0  0  0  0  0
  -22.4870   -8.0770   21.3450 C   0  0  0  0  0  0  0  0  0  0  0  0
  -22.0530   -9.0380   20.4150 C   0  0  0  0  0  3  0  0  0  0  0  0
  -22.7760  -10.2270   20.2240 C   0  0  0  0  0  3  0  0  0  0  0  0
  -21.7340   -6.9320   21.4440 O   0  0  0  0  0  0  0  0  0  0  0  0
  -21.6830   -6.2030   22.6050 C   0  0  0  0  0  0  0  0  0  0  0  0
  -21.2310   -6.7660   23.8180 C   0  0  0  0  0  3  0  0  0  0  0  0
  -21.1260   -5.9630   24.9720 C   0  0  0  0  0  3  0  0  0  0  0  0
  -21.4660   -4.5990   24.9120 C   0  0  0  0  0  0  0  0  0  0  0  0
  -21.9100   -4.0350   23.7030 C   0  0  0  0  0  3  0  0  0  0  0  0
  -22.0150   -4.8350   22.5520 C   0  0  0  0  0  0  0  0  0  0  0  0
  -22.4250   -4.2820   21.3850 F   0  0  0  0  0  0  0  0  0  0  0  0
  -21.3580   -3.8250   26.0170 F   0  0  0  0  0  0  0  0  0  0  0  0
  -22.8370  -13.5730   21.2330 C   0  0  0  0  0  0  0  0  0  0  0  0
  -22.1590  -12.8520   22.1210 N   0  0  0  0  0  0  0  0  0  0  0  0
  -22.3770  -14.6170   20.7750 O   0  0  0  0  0  0  0  0  0  0  0  0
  -22.5480  -12.0060   22.5100 H   0  0  0  0  0  0  0  0  0  0  0  0
  -21.2410  -13.1530   22.4150 H   0  0  0  0  0  0  0  0  0  0  0  0
  -25.4150  -15.2530   20.3040 N   0  0  0  0  0  0  0  0  0  0  0  0
  -24.6700  -15.9060   20.5160 H   0  0  0  0  0  0  0  0  0  0  0  0
  -26.2560  -15.7130   19.9810 H   0  0  0  0  0  0  0  0  0  0  0  0
  -30.8240  -22.6670   19.3290 C   0  0  0  0  0  1  0  0  0  0  0  0
  -29.4960  -22.1660   19.6910 N   0  0  0  0  0  0  0  0  0  0  0  0
  -28.5840  -23.3240   20.2180 C   0  0  0  0  0  2  0  0  0  0  0  0
  -28.3960  -24.8050   19.4140 C   0  0  0  0  0  2  0  0  0  0  0  0
  -28.3370  -26.2440   19.9960 O   0  0  0  0  0  0  0  0  0  0  0  0
  -24.6440  -31.7830   23.0820 C   0  0  0  0  0  0  0  0  0  0  0  0
  -27.2430  -27.1750   19.9240 C   0  0  0  0  0  0  0  0  0  0  0  0
  -23.4390  -30.4130   21.4230 C   0  0  0  0  0  3  0  0  0  0  0  0
  -24.8880  -28.8830   19.9540 C   0  0  0  0  0  0  0  0  0  0  0  0
  -25.9870  -30.7110   21.2390 C   0  0  0  0  0  2  0  0  0  0  0  0
  -26.0670  -29.3350   20.5580 C   0  0  0  0  0  0  0  0  0  0  0  0
  -27.2390  -28.4950   20.5320 C   0  0  0  0  0  3  0  0  0  0  0  0
  -26.0310  -26.8160   19.2920 C   0  0  0  0  0  3  0  0  0  0  0  0
  -24.8810  -27.6350   19.3130 C   0  0  0  0  0  3  0  0  0  0  0  0
  -23.6540  -29.7670   20.0280 C   0  0  0  0  0  2  0  0  0  0  0  0
  -24.7100  -30.9890   21.9700 N   0  0  0  0  0  0  0  0  0  0  0  0
  -23.5600  -32.0450   23.6270 O   0  0  0  0  0  0  0  0  0  0  0  0
  -22.7810  -29.3790   22.3700 C   0  0  0  0  0  0  0  0  0  0  0  0
  -21.4530  -29.2040   22.2560 N   0  0  0  0  0  0  0  0  0  0  0  0
  -23.4670  -28.7420   23.1730 O   0  0  0  0  0  0  0  0  0  0  0  0
  -20.9570  -29.7770   21.5890 H   0  0  0  0  0  0  0  0  0  0  0  0
  -18.0820  -27.9800   22.7690 C   0  0  0  0  0  0  0  0  0  0  0  0
  -20.6430  -28.2460   23.0150 C   0  0  0  0  0  3  0  0  0  0  0  0
  -20.7420  -26.8260   22.4080 C   0  0  0  0  0  2  0  0  0  0  0  0
  -19.6300  -26.5220   21.3990 C   0  0  0  0  0  2  0  0  0  0  0  0
  -18.2550  -26.6460   22.0620 C   0  0  0  0  0  2  0  0  0  0  0  0
  -19.2030  -28.7370   23.2020 C   0  0  0  0  0  0  0  0  0  0  0  0
  -18.9870  -29.9830   23.8290 C   0  0  0  0  0  3  0  0  0  0  0  0
  -17.6820  -30.4730   24.0250 C   0  0  0  0  0  3  0  0  0  0  0  0
  -16.5760  -29.7130   23.6080 C   0  0  0  0  0  3  0  0  0  0  0  0
  -16.7760  -28.4700   22.9840 C   0  0  0  0  0  3  0  0  0  0  0  0
  -25.9230  -32.4170   23.7090 C   0  0  0  0  0  3  0  0  0  0  0  0
  -26.4550  -31.6220   24.9650 C   0  0  1  0  0  0  0  0  0  0  0  0
  -25.3720  -31.3550   26.0380 C   0  0  0  0  0  1  0  0  0  0  0  0
  -27.0480  -30.2580   24.5430 C   0  0  0  0  0  1  0  0  0  0  0  0
  -27.6030  -32.4120   25.6350 C   0  0  0  0  0  1  0  0  0  0  0  0
  -25.6010  -33.8040   24.0790 N   0  0  0  0  0  0  0  0  0  0  0  0
  -25.9210  -34.8840   23.3530 C   0  0  0  0  0  0  0  0  0  0  0  0
  -26.5850  -34.8160   22.3140 O   0  0  0  0  0  0  0  0  0  0  0  0
  -25.0110  -33.9290   24.8880 H   0  0  0  0  0  0  0  0  0  0  0  0
  -24.1810  -36.6790   23.0600 C   0  0  0  0  0  1  0  0  0  0  0  0
  -25.4270  -36.2560   23.8560 C   0  0  0  0  0  3  0  0  0  0  0  0
  -27.5570  -37.1310   24.7080 C   0  0  0  0  0  1  0  0  0  0  0  0
  -26.4520  -37.3190   23.7720 N   0  0  0  0  0  0  0  0  0  0  0  0
  -26.0400  -38.2320   23.9440 H   0  0  0  0  0  0  0  0  0  0  0  0
  1  2  2  0
  1  4  1  0
  2  5  1  0
  3  6  1  0
  4  3  2  0
  5 16  1  0
  5  6  2  0
  6  7  1  0
  8 16  1  0
  9 14  1  0
 10 11  1  0
 10  9  1  0
 12 11  1  0
 12 21  1  0
 12 13  1  0
 14  8  1  0
 14 13  1  0
 15  8  2  0
 16 17  1  0
 18 19  2  0
 19 38  1  0
 20 19  1  0
 20 23  1  0
 21 22  1  0
 21 18  1  0
 22 20  2  0
 23 24  1  0
 24 25  2  0
 26 29  1  0
 26 25  1  0
 27 26  2  0
 28 27  1  0
 28 23  2  0
 29 30  1  0
 30 31  1  0
 31 32  2  0
 33 32  1  0
 33 37  1  0
 34 33  2  0
 35 30  2  0
 35 34  1  0
 36 35  1  0
 38 39  1  0
 39 42  1  0
 39 41  1  0
 40 38  2  0
 43 18  1  0
 43 44  1  0
 45 43  1  0
 46 47  1  0
 47  4  1  0
 47 48  1  0
 49 50  1  0
 49 48  1  0
 51 62  2  0
 52 50  1  0
 52 57  1  0
 53 61  1  0
 53 63  1  0
 54 60  1  0
 54 56  1  0
 55 61  1  0
 56 55  1  0
 57 56  2  0
 58 59  1  0
 58 52  2  0
 59 54  2  0
 60 53  1  0
 61 51  1  0
 63 65  2  0
 64 63  1  0
 66 64  1  0
 67 76  2  0
 67 72  1  0
 68 64  1  0
 68 72  1  0
 69 68  1  0
 70 71  1  0
 70 69  1  0
 71 67  1  0
 72 73  2  0
 73 74  1  0
 75 74  2  0
 76 75  1  0
 77 51  1  0
 77 82  1  0
 77 78  1  0
 78 81  1  1
 78 79  1  0
 80 78  1  0
 82 85  1  0
 83 87  1  0
 83 82  1  0
 84 83  2  0
 87 86  1  0
 89 87  1  0
 89 90  1  0
 89 88  1  0
M  ISO  4   8 100  16 100  49 101  50 101
M  END
>  <TORSDO>  (23) 
F 19

>  <SCORE>  (23) 
-14.999

>  <name>  (23) 
22

>  <ligand_id>  (23) 
22

>  <original_smiles>  (23) 
[H]c1c([H])c([H])c2c(c1[H])C([H])([H])C([H])([H])C([H])([H])C2([H])N([H])C(=O)C1([H])N(C(=O)C([H])(N([H])C(=O)C([H])(N([H])C([H])([H])[H])C([H])([H])[H])C(C([H])([H])[H])(C([H])([H])[H])C([H])([H])[H])C([H])([H])c2c([H])c(OC([H])([H])C([H])([H])N(c3c([H])c([H])c(N([H])C(=O)N4C([H])([H])C([H])([H])C([H])([H])C([H])(n5nc(-c6c([H])c([H])c(Oc7c([H])c([H])c(F)c([H])c7F)c([H])c6[H])c(C(=O)N([H])[H])c5N([H])[H])C4([H])[H])c(F)c3[H])C([H])([H])[H])c([H])c([H])c2C1([H])[H]

>  <smiles>  (23) 
[H]c1c([H])c([H])c2c(c1[H])C([H])([H])C([H])([H])C([H])([H])C2([H])N([H])C(=O)C1([H])N(C(=O)C([H])(N([H])C(=O)C([H])(N([H])C([H])([H])[H])C([H])([H])[H])C(C([H])([H])[H])(C([H])([H])[H])C([H])([H])[H])C([H])([H])c2c([H])c(OC([H])([H])C([H])([H])N(c3c([H])c([H])c(N([H])C(=O)N4C([H])([H])C([H])([H])C([H])([H])C([H])(n5nc(-c6c([H])c([H])c(Oc7c([H])c([H])c(F)c([H])c7F)c([H])c6[H])c(C(=O)N([H])[H])c5N([H])[H])C4([H])[H])c(F)c3[H])C([H])([H])[H])c([H])c([H])c2C1([H])[H]

$$$$
23:0:0
     RDKit          3D

 94103  0  0  1  0  0  0  0  0999 V2000
  -31.1360  -21.9510   21.6620 C   0  0  0  0  0  2  0  0  0  0  0  0
  -29.6670  -19.8670   21.6580 C   0  0  0  0  0  3  0  0  0  0  0  0
  -29.3980  -18.5370   21.2790 C   0  0  0  0  0  3  0  0  0  0  0  0
  -31.7130  -19.8300   20.3370 C   0  0  0  0  0  3  0  0  0  0  0  0
  -30.8320  -20.5240   21.1980 C   0  0  0  0  0  0  0  0  0  0  0  0
  -30.2840  -17.8430   20.4300 C   0  0  0  0  0  0  0  0  0  0  0  0
  -31.4380  -18.5020   19.9480 C   0  0  0  0  0  0  0  0  0  0  0  0
  -32.2860  -17.8620   19.1110 F   0  0  0  0  0  0  0  0  0  0  0  0
  -29.9740  -16.4000   20.0360 C   0  0  0  0  0  2  0  0  0  0  0  0
  -31.2980  -14.3560   20.0460 C   0  0  0  0  0  0  0  0  0  0  0  0
  -30.8580  -12.1870   18.9570 C   0  0  0  0  0  2  0  0  0  0  0  0
  -29.8910  -12.3750   17.7710 C   0  0  0  0  0  2  0  0  0  0  0  0
  -28.4250  -12.3240   18.2430 C   0  0  0  0  0  2  0  0  0  0  0  0
  -28.1580  -13.2380   19.4680 C   0  0  0  0  0  3  0  0  0  0  0  0
  -29.2260  -13.0110   20.5610 C   0  0  0  0  0  2  0  0  0  0  0  0
  -30.5520  -13.2230   19.9520 N   0  0  0  0  0  0  0  0  0  0  0  0
  -32.3900  -14.4960   19.4870 O   0  0  0  0  0  0  0  0  0  0  0  0
  -31.2830  -15.7130   22.0580 C   0  0  0  0  0  1  0  0  0  0  0  0
  -30.7350  -15.3580   20.7490 N   0  0  0  0  0  0  0  0  0  0  0  0
  -25.8260  -14.0070   20.2440 C   0  0  0  0  0  0  0  0  0  0  0  0
  -24.7220  -13.3060   20.6500 C   0  0  0  0  0  0  0  0  0  0  0  0
  -25.0920  -11.9270   20.6100 C   0  0  0  0  0  0  0  0  0  0  0  0
  -26.8040  -13.0580   19.9870 N   0  0  0  0  0  0  0  0  0  0  0  0
  -26.3660  -11.8030   20.2610 N   0  0  0  0  0  0  0  0  0  0  0  0
  -24.2930  -10.7150   20.8260 C   0  0  0  0  0  0  0  0  0  0  0  0
  -24.6730   -9.7390   21.7740 C   0  0  0  0  0  3  0  0  0  0  0  0
  -23.8770   -8.5910   21.9750 C   0  0  0  0  0  3  0  0  0  0  0  0
  -22.6890   -8.4100   21.2300 C   0  0  0  0  0  0  0  0  0  0  0  0
  -22.3290   -9.3730   20.2710 C   0  0  0  0  0  3  0  0  0  0  0  0
  -23.1220  -10.5130   20.0660 C   0  0  0  0  0  3  0  0  0  0  0  0
  -21.8680   -7.3140   21.3410 O   0  0  0  0  0  0  0  0  0  0  0  0
  -21.7530   -6.6170   22.5160 C   0  0  0  0  0  0  0  0  0  0  0  0
  -21.3430   -7.2410   23.7150 C   0  0  0  0  0  3  0  0  0  0  0  0
  -21.1710   -6.4740   24.8850 C   0  0  0  0  0  3  0  0  0  0  0  0
  -21.3980   -5.0850   24.8560 C   0  0  0  0  0  0  0  0  0  0  0  0
  -21.8020   -4.4620   23.6630 C   0  0  0  0  0  3  0  0  0  0  0  0
  -21.9760   -5.2250   22.4960 C   0  0  0  0  0  0  0  0  0  0  0  0
  -22.3440   -4.6170   21.3430 F   0  0  0  0  0  0  0  0  0  0  0  0
  -21.2250   -4.3470   25.9770 F   0  0  0  0  0  0  0  0  0  0  0  0
  -23.3680  -13.8730   20.9650 C   0  0  0  0  0  0  0  0  0  0  0  0
  -22.6280  -13.2330   21.8630 N   0  0  0  0  0  0  0  0  0  0  0  0
  -22.9760  -14.9190   20.4460 O   0  0  0  0  0  0  0  0  0  0  0  0
  -22.9580  -12.3870   22.3030 H   0  0  0  0  0  0  0  0  0  0  0  0
  -21.7200  -13.5950   22.1150 H   0  0  0  0  0  0  0  0  0  0  0  0
  -26.0730  -15.3620   20.0530 N   0  0  0  0  0  0  0  0  0  0  0  0
  -25.3490  -16.0640   20.1730 H   0  0  0  0  0  0  0  0  0  0  0  0
  -26.9300  -15.7410   19.6730 H   0  0  0  0  0  0  0  0  0  0  0  0
  -30.6620  -24.3620   21.1200 C   0  0  0  0  0  2  0  0  0  0  0  0
  -29.5580  -23.0170   20.0250 C   0  0  0  0  0  2  0  0  0  0  0  0
  -29.6580  -24.5460   19.9790 C   0  0  0  0  0  3  0  0  0  0  0  0
  -30.8840  -22.9930   20.6340 N   0  0  2  0  0  4  0  0  0  0  0  0
  -31.5950  -22.9790   19.9170 H   0  0  0  0  0  0  0  0  0  0  0  0
  -28.3540  -25.3270   20.1390 C   0  0  0  0  0  2  0  0  0  0  0  0
  -28.4870  -26.7510   20.0080 O   0  0  0  0  0  0  0  0  0  0  0  0
  -24.6050  -31.8300   23.1830 C   0  0  0  0  0  0  0  0  0  0  0  0
  -27.3020  -27.4670   20.0220 C   0  0  0  0  0  0  0  0  0  0  0  0
  -23.4170  -30.4430   21.5200 C   0  0  0  0  0  3  0  0  0  0  0  0
  -24.8880  -28.9520   20.0730 C   0  0  0  0  0  0  0  0  0  0  0  0
  -25.9430  -30.8330   21.3310 C   0  0  0  0  0  2  0  0  0  0  0  0
  -26.0450  -29.4760   20.6640 C   0  0  0  0  0  0  0  0  0  0  0  0
  -27.2560  -28.7440   20.6320 C   0  0  0  0  0  3  0  0  0  0  0  0
  -26.1200  -26.9670   19.4220 C   0  0  0  0  0  3  0  0  0  0  0  0
  -24.9210  -27.6960   19.4520 C   0  0  0  0  0  3  0  0  0  0  0  0
  -23.6350  -29.7920   20.1310 C   0  0  0  0  0  2  0  0  0  0  0  0
  -24.6730  -31.0480   22.0690 N   0  0  0  0  0  0  0  0  0  0  0  0
  -23.5180  -32.0810   23.7240 O   0  0  0  0  0  0  0  0  0  0  0  0
  -22.7790  -29.3950   22.4600 C   0  0  0  0  0  0  0  0  0  0  0  0
  -21.4560  -29.2010   22.3300 N   0  0  0  0  0  0  0  0  0  0  0  0
  -23.4700  -28.7610   23.2620 O   0  0  0  0  0  0  0  0  0  0  0  0
  -20.9580  -29.7620   21.6520 H   0  0  0  0  0  0  0  0  0  0  0  0
  -18.0940  -27.9720   22.8170 C   0  0  0  0  0  0  0  0  0  0  0  0
  -20.6500  -28.2430   23.0860 C   0  0  0  0  0  3  0  0  0  0  0  0
  -20.7600  -26.8240   22.4830 C   0  0  0  0  0  2  0  0  0  0  0  0
  -19.6580  -26.5120   21.4670 C   0  0  0  0  0  2  0  0  0  0  0  0
  -18.2760  -26.6370   22.1150 C   0  0  0  0  0  2  0  0  0  0  0  0
  -19.2080  -28.7330   23.2570 C   0  0  0  0  0  0  0  0  0  0  0  0
  -18.9820  -29.9850   23.8720 C   0  0  0  0  0  3  0  0  0  0  0  0
  -17.6740  -30.4740   24.0500 C   0  0  0  0  0  3  0  0  0  0  0  0
  -16.5740  -29.7100   23.6250 C   0  0  0  0  0  3  0  0  0  0  0  0
  -16.7840  -28.4600   23.0140 C   0  0  0  0  0  3  0  0  0  0  0  0
  -25.8820  -32.4670   23.8130 C   0  0  0  0  0  3  0  0  0  0  0  0
  -26.4020  -31.6920   25.0860 C   0  0  1  0  0  0  0  0  0  0  0  0
  -25.3070  -31.4330   26.1460 C   0  0  0  0  0  1  0  0  0  0  0  0
  -27.0040  -30.3230   24.6880 C   0  0  0  0  0  1  0  0  0  0  0  0
  -27.5400  -32.4970   25.7580 C   0  0  0  0  0  1  0  0  0  0  0  0
  -25.5600  -33.8600   24.1470 N   0  0  0  0  0  0  0  0  0  0  0  0
  -25.8990  -34.9190   23.4000 C   0  0  0  0  0  0  0  0  0  0  0  0
  -26.5860  -34.8290   22.3790 O   0  0  0  0  0  0  0  0  0  0  0  0
  -24.9490  -34.0070   24.9360 H   0  0  0  0  0  0  0  0  0  0  0  0
  -24.1720  -36.7090   23.0230 C   0  0  0  0  0  1  0  0  0  0  0  0
  -25.3960  -36.3020   23.8600 C   0  0  0  0  0  3  0  0  0  0  0  0
  -27.5080  -37.1840   24.7480 C   0  0  0  0  0  1  0  0  0  0  0  0
  -26.4280  -37.3590   23.7810 N   0  0  0  0  0  0  0  0  0  0  0  0
  -26.0160  -38.2760   23.9290 H   0  0  0  0  0  0  0  0  0  0  0  0
  3  2  1  0
  4  5  1  0
  5  2  2  0
  5  1  1  0
  6  3  2  0
  7  4  2  0
  7  6  1  0
  8  7  1  0
  9  6  1  0
  9 19  1  0
 10 19  1  0
 11 16  1  0
 12 13  1  0
 12 11  1  0
 14 13  1  0
 14 23  1  0
 14 15  1  0
 16 10  1  0
 16 15  1  0
 17 10  2  0
 19 18  1  0
 20 21  2  0
 21 40  1  0
 22 21  1  0
 22 25  1  0
 23 20  1  0
 23 24  1  0
 24 22  2  0
 25 26  1  0
 26 27  2  0
 28 31  1  0
 28 27  1  0
 29 28  2  0
 30 29  1  0
 30 25  2  0
 31 32  1  0
 32 33  1  0
 33 34  2  0
 35 34  1  0
 35 39  1  0
 36 35  2  0
 37 32  2  0
 37 36  1  0
 38 37  1  0
 40 41  1  0
 41 44  1  0
 41 43  1  0
 42 40  2  0
 45 46  1  0
 45 20  1  0
 47 45  1  0
 49 51  1  0
 50 49  1  0
 50 53  1  0
 50 48  1  0
 51 48  1  0
 51  1  1  0
 51 52  1  6
 54 56  1  0
 54 53  1  0
 55 66  2  0
 56 61  1  0
 57 65  1  0
 57 67  1  0
 58 64  1  0
 58 60  1  0
 59 65  1  0
 60 59  1  0
 61 60  2  0
 62 63  1  0
 62 56  2  0
 63 58  2  0
 64 57  1  0
 65 55  1  0
 67 69  2  0
 68 67  1  0
 70 68  1  0
 71 80  2  0
 71 76  1  0
 72 68  1  0
 72 76  1  0
 73 72  1  0
 74 75  1  0
 74 73  1  0
 75 71  1  0
 76 77  2  0
 77 78  1  0
 79 78  2  0
 80 79  1  0
 81 55  1  0
 81 86  1  0
 81 82  1  0
 82 85  1  1
 82 83  1  0
 84 82  1  0
 86 89  1  0
 87 91  1  0
 87 86  1  0
 88 87  2  0
 91 90  1  0
 93 91  1  0
 93 94  1  0
 93 92  1  0
M  ISO  4  10 100  19 100  53 101  54 101
M  END
>  <TORSDO>  (24) 
F 20

>  <SCORE>  (24) 
-12.867

>  <name>  (24) 
23

>  <ligand_id>  (24) 
23

>  <original_smiles>  (24) 
[H]c1c([H])c([H])c2c(c1[H])C([H])([H])C([H])([H])C([H])([H])C2([H])N([H])C(=O)C1([H])N(C(=O)C([H])(N([H])C(=O)C([H])(N([H])C([H])([H])[H])C([H])([H])[H])C(C([H])([H])[H])(C([H])([H])[H])C([H])([H])[H])C([H])([H])c2c([H])c(OC([H])([H])C3([H])C([H])([H])[N+]([H])(C([H])([H])c4c([H])c([H])c(C([H])([H])N(C(=O)N5C([H])([H])C([H])([H])C([H])([H])C([H])(n6nc(-c7c([H])c([H])c(Oc8c([H])c([H])c(F)c([H])c8F)c([H])c7[H])c(C(=O)N([H])[H])c6N([H])[H])C5([H])[H])C([H])([H])[H])c(F)c4[H])C3([H])[H])c([H])c([H])c2C1([H])[H]

>  <smiles>  (24) 
[H]c1c([H])c([H])c2c(c1[H])C([H])([H])C([H])([H])C([H])([H])C2([H])N([H])C(=O)C1([H])N(C(=O)C([H])(N([H])C(=O)C([H])(N([H])C([H])([H])[H])C([H])([H])[H])C(C([H])([H])[H])(C([H])([H])[H])C([H])([H])[H])C([H])([H])c2c([H])c(OC([H])([H])C3([H])C([H])([H])[N+]([H])(C([H])([H])c4c([H])c([H])c(C([H])([H])N(C(=O)N5C([H])([H])C([H])([H])C([H])([H])C([H])(n6nc(-c7c([H])c([H])c(Oc8c([H])c([H])c(F)c([H])c8F)c([H])c7[H])c(C(=O)N([H])[H])c6N([H])[H])C5([H])[H])C([H])([H])[H])c(F)c4[H])C3([H])[H])c([H])c([H])c2C1([H])[H]

$$$$
24:0:0
     RDKit          3D

 94102  0  0  1  0  0  0  0  0999 V2000
  -30.1750  -20.5930   19.9220 C   0  0  0  0  0  2  0  0  0  0  0  0
  -30.7310  -16.9490   21.2370 C   0  0  0  0  0  0  0  0  0  0  0  0
  -30.9270  -15.5980   21.2850 C   0  0  0  0  0  3  0  0  0  0  0  0
  -29.9680  -17.6280   22.3570 C   0  0  0  0  0  2  0  0  0  0  0  0
  -29.5810  -19.0300   21.8680 C   0  0  0  0  0  2  0  0  0  0  0  0
  -31.0720  -18.0530   20.2220 C   0  0  0  0  0  3  0  0  0  0  0  0
  -29.9040  -19.1070   20.3630 C   0  0  0  0  0  3  0  0  0  0  0  0
  -31.5610  -14.6830   20.3190 C   0  0  0  0  0  0  0  0  0  0  0  0
  -31.1720  -12.6580   18.9240 C   0  0  0  0  0  2  0  0  0  0  0  0
  -30.1880  -12.9870   17.7770 C   0  0  0  0  0  2  0  0  0  0  0  0
  -28.7160  -12.8840   18.2390 C   0  0  0  0  0  2  0  0  0  0  0  0
  -28.4660  -13.6100   19.5860 C   0  0  0  0  0  3  0  0  0  0  0  0
  -29.5290  -13.1790   20.6150 C   0  0  0  0  0  2  0  0  0  0  0  0
  -30.8570  -13.5320   20.0710 N   0  0  0  0  0  0  0  0  0  0  0  0
  -32.6100  -14.9490   19.7240 O   0  0  0  0  0  0  0  0  0  0  0  0
  -26.1070  -14.3040   20.3590 C   0  0  0  0  0  0  0  0  0  0  0  0
  -25.0160  -13.5680   20.7370 C   0  0  0  0  0  0  0  0  0  0  0  0
  -25.4210  -12.2010   20.6710 C   0  0  0  0  0  0  0  0  0  0  0  0
  -27.1110  -13.3860   20.0860 N   0  0  0  0  0  0  0  0  0  0  0  0
  -26.7000  -12.1160   20.3290 N   0  0  0  0  0  0  0  0  0  0  0  0
  -24.6500  -10.9650   20.8570 C   0  0  0  0  0  0  0  0  0  0  0  0
  -24.9910  -10.0230   21.8530 C   0  0  0  0  0  3  0  0  0  0  0  0
  -24.2230   -8.8510   22.0240 C   0  0  0  0  0  3  0  0  0  0  0  0
  -23.1010   -8.6120   21.1970 C   0  0  0  0  0  0  0  0  0  0  0  0
  -22.7780   -9.5420   20.1940 C   0  0  0  0  0  3  0  0  0  0  0  0
  -23.5470  -10.7050   20.0210 C   0  0  0  0  0  3  0  0  0  0  0  0
  -22.3140   -7.4870   21.2720 O   0  0  0  0  0  0  0  0  0  0  0  0
  -22.0730   -6.8560   22.4660 C   0  0  0  0  0  0  0  0  0  0  0  0
  -21.4600   -7.5200   23.5500 C   0  0  0  0  0  3  0  0  0  0  0  0
  -21.1650   -6.8140   24.7320 C   0  0  0  0  0  3  0  0  0  0  0  0
  -21.4750   -5.4440   24.8310 C   0  0  0  0  0  0  0  0  0  0  0  0
  -22.0820   -4.7800   23.7510 C   0  0  0  0  0  3  0  0  0  0  0  0
  -22.3770   -5.4840   22.5700 C   0  0  0  0  0  0  0  0  0  0  0  0
  -22.9420   -4.8340   21.5240 F   0  0  0  0  0  0  0  0  0  0  0  0
  -21.1860   -4.7640   25.9650 F   0  0  0  0  0  0  0  0  0  0  0  0
  -23.6470  -14.0970   21.0530 C   0  0  0  0  0  0  0  0  0  0  0  0
  -22.9240  -13.4400   21.9530 N   0  0  0  0  0  0  0  0  0  0  0  0
  -23.2250  -15.1310   20.5330 O   0  0  0  0  0  0  0  0  0  0  0  0
  -23.2760  -12.6060   22.4000 H   0  0  0  0  0  0  0  0  0  0  0  0
  -22.0070  -13.7820   22.2020 H   0  0  0  0  0  0  0  0  0  0  0  0
  -26.3250  -15.6700   20.2070 N   0  0  0  0  0  0  0  0  0  0  0  0
  -25.5940  -16.3540   20.3610 H   0  0  0  0  0  0  0  0  0  0  0  0
  -27.1950  -16.0810   19.8960 H   0  0  0  0  0  0  0  0  0  0  0  0
  -30.2390  -17.3480   17.9550 C   0  0  0  0  0  1  0  0  0  0  0  0
  -32.4940  -18.3120   18.1960 C   0  0  0  0  0  1  0  0  0  0  0  0
  -31.3970  -17.5590   18.8520 N   0  0  1  0  0  4  0  0  0  0  0  0
  -31.8020  -16.6360   19.0090 H   0  0  0  0  0  0  0  0  0  0  0  0
  -28.1910  -21.3210   18.6160 C   0  0  0  0  0  1  0  0  0  0  0  0
  -28.9680  -21.4980   19.8700 N   0  0  2  0  0  4  0  0  0  0  0  0
  -28.3560  -21.2060   20.6180 H   0  0  0  0  0  0  0  0  0  0  0  0
  -29.3100  -22.9340   20.1790 C   0  0  0  0  0  2  0  0  0  0  0  0
  -28.2650  -24.0490   19.8160 C   0  0  0  0  0  2  0  0  0  0  0  0
  -28.4380  -25.3560   20.6490 C   0  0  0  0  0  2  0  0  0  0  0  0
  -28.3600  -26.6060   19.9360 O   0  0  0  0  0  0  0  0  0  0  0  0
  -24.5510  -31.7660   23.1190 C   0  0  0  0  0  0  0  0  0  0  0  0
  -27.1830  -27.3220   20.0140 C   0  0  0  0  0  0  0  0  0  0  0  0
  -23.3410  -30.3810   21.4670 C   0  0  0  0  0  3  0  0  0  0  0  0
  -24.7910  -28.8370   20.0440 C   0  0  0  0  0  0  0  0  0  0  0  0
  -25.8690  -30.7280   21.2730 C   0  0  0  0  0  2  0  0  0  0  0  0
  -25.9520  -29.3560   20.6290 C   0  0  0  0  0  0  0  0  0  0  0  0
  -27.1530  -28.6080   20.6060 C   0  0  0  0  0  3  0  0  0  0  0  0
  -26.0030  -26.8100   19.4380 C   0  0  0  0  0  3  0  0  0  0  0  0
  -24.8110  -27.5610   19.4500 C   0  0  0  0  0  3  0  0  0  0  0  0
  -23.5530  -29.7050   20.0860 C   0  0  0  0  0  2  0  0  0  0  0  0
  -24.6060  -30.9730   22.0120 N   0  0  0  0  0  0  0  0  0  0  0  0
  -23.4700  -32.0380   23.6570 O   0  0  0  0  0  0  0  0  0  0  0  0
  -22.6840  -29.3570   22.4200 C   0  0  0  0  0  0  0  0  0  0  0  0
  -21.3530  -29.2050   22.3110 N   0  0  0  0  0  0  0  0  0  0  0  0
  -23.3640  -28.7010   23.2130 O   0  0  0  0  0  0  0  0  0  0  0  0
  -20.8650  -29.7870   21.6440 H   0  0  0  0  0  0  0  0  0  0  0  0
  -17.9560  -28.1110   22.8760 C   0  0  0  0  0  0  0  0  0  0  0  0
  -20.5280  -28.2700   23.0750 C   0  0  0  0  0  3  0  0  0  0  0  0
  -20.5610  -26.8570   22.4470 C   0  0  0  0  0  2  0  0  0  0  0  0
  -19.4170  -26.6090   21.4570 C   0  0  0  0  0  2  0  0  0  0  0  0
  -18.0610  -26.7800   22.1500 C   0  0  0  0  0  2  0  0  0  0  0  0
  -19.1140  -28.8180   23.2960 C   0  0  0  0  0  0  0  0  0  0  0  0
  -18.9610  -30.0670   23.9340 C   0  0  0  0  0  3  0  0  0  0  0  0
  -17.6810  -30.6100   24.1580 C   0  0  0  0  0  3  0  0  0  0  0  0
  -16.5370  -29.8990   23.7540 C   0  0  0  0  0  3  0  0  0  0  0  0
  -16.6750  -28.6520   23.1210 C   0  0  0  0  0  3  0  0  0  0  0  0
  -25.8380  -32.3870   23.7470 C   0  0  0  0  0  3  0  0  0  0  0  0
  -25.5300  -33.7800   24.1010 N   0  0  0  0  0  0  0  0  0  0  0  0
  -25.8810  -34.8450   23.3690 C   0  0  0  0  0  0  0  0  0  0  0  0
  -26.5680  -34.7590   22.3480 O   0  0  0  0  0  0  0  0  0  0  0  0
  -24.9200  -33.9220   24.8940 H   0  0  0  0  0  0  0  0  0  0  0  0
  -24.1880  -36.6670   22.9970 C   0  0  0  0  0  1  0  0  0  0  0  0
  -25.3920  -36.2270   23.8450 C   0  0  0  0  0  3  0  0  0  0  0  0
  -27.4990  -37.0650   24.7870 C   0  0  0  0  0  1  0  0  0  0  0  0
  -26.4410  -37.2700   23.8000 N   0  0  0  0  0  0  0  0  0  0  0  0
  -26.0400  -38.1920   23.9500 H   0  0  0  0  0  0  0  0  0  0  0  0
  -26.3620  -31.5930   25.0060 C   0  0  1  0  0  0  0  0  0  0  0  0
  -25.2730  -31.3320   26.0720 C   0  0  0  0  0  1  0  0  0  0  0  0
  -26.9490  -30.2260   24.5860 C   0  0  0  0  0  1  0  0  0  0  0  0
  -27.5130  -32.3780   25.6790 C   0  0  0  0  0  1  0  0  0  0  0  0
  2  3  2  0
  2  4  1  0
  5  4  1  0
  6 46  1  0
  6  7  1  0
  6  2  1  0
  7  1  1  0
  7  5  1  0
  8  3  1  0
  9 14  1  0
 10 11  1  0
 10  9  1  0
 12 11  1  0
 12 19  1  0
 12 13  1  0
 14  8  1  0
 14 13  1  0
 15  8  2  0
 16 17  2  0
 17 36  1  0
 18 17  1  0
 18 21  1  0
 19 20  1  0
 19 16  1  0
 20 18  2  0
 21 22  1  0
 22 23  2  0
 24 27  1  0
 24 23  1  0
 25 24  2  0
 26 25  1  0
 26 21  2  0
 27 28  1  0
 28 33  2  0
 28 29  1  0
 29 30  2  0
 30 31  1  0
 31 35  1  0
 32 31  2  0
 33 32  1  0
 34 33  1  0
 36 37  1  0
 37 40  1  0
 37 39  1  0
 38 36  2  0
 41 16  1  0
 41 42  1  0
 43 41  1  0
 44 46  1  0
 45 46  1  0
 46 47  1  1
 48 49  1  0
 49  1  1  0
 49 51  1  0
 49 50  1  1
 52 51  1  0
 52 53  1  0
 54 56  1  0
 54 53  1  0
 55 66  2  0
 56 61  1  0
 57 65  1  0
 57 67  1  0
 58 64  1  0
 58 60  1  0
 59 65  1  0
 60 59  1  0
 61 60  2  0
 62 63  1  0
 62 56  2  0
 63 58  2  0
 64 57  1  0
 65 55  1  0
 67 69  2  0
 68 67  1  0
 70 68  1  0
 71 80  2  0
 71 76  1  0
 72 68  1  0
 72 76  1  0
 73 72  1  0
 74 75  1  0
 74 73  1  0
 75 71  1  0
 76 77  2  0
 77 78  1  0
 79 78  2  0
 80 79  1  0
 81 55  1  0
 81 82  1  0
 81 91  1  0
 82 85  1  0
 83 87  1  0
 83 82  1  0
 84 83  2  0
 87 86  1  0
 89 87  1  0
 89 90  1  0
 89 88  1  0
 91 94  1  1
 91 92  1  0
 93 91  1  0
M  ISO  4   3 100   8 100  53 101  54 101
M  END
>  <TORSDO>  (25) 
F 22

>  <SCORE>  (25) 
-10.922

>  <name>  (25) 
24

>  <ligand_id>  (25) 
24

>  <original_smiles>  (25) 
[H]C(C(=O)N1C([H])([H])C([H])([H])C([H])([H])C([H])(n2nc(-c3c([H])c([H])c(Oc4c([H])c([H])c(F)c([H])c4F)c([H])c3[H])c(C(=O)N([H])[H])c2N([H])[H])C1([H])[H])=C1C([H])([H])C([H])([H])C([H])(C([H])([H])[N+]([H])(C([H])([H])[H])C([H])([H])C([H])([H])C([H])([H])Oc2c([H])c([H])c3c(c2[H])C([H])([H])N(C(=O)C([H])(N([H])C(=O)C([H])(N([H])C([H])([H])[H])C([H])([H])[H])C(C([H])([H])[H])(C([H])([H])[H])C([H])([H])[H])C([H])(C(=O)N([H])C2([H])c4c([H])c([H])c([H])c([H])c4C([H])([H])C([H])([H])C2([H])[H])C3([H])[H])C1([H])[N+]([H])(C([H])([H])[H])C([H])([H])[H]

>  <smiles>  (25) 
[H]C(C(=O)N1C([H])([H])C([H])([H])C([H])([H])C([H])(n2nc(-c3c([H])c([H])c(Oc4c([H])c([H])c(F)c([H])c4F)c([H])c3[H])c(C(=O)N([H])[H])c2N([H])[H])C1([H])[H])=C1C([H])([H])C([H])([H])C([H])(C([H])([H])[N+]([H])(C([H])([H])[H])C([H])([H])C([H])([H])C([H])([H])Oc2c([H])c([H])c3c(c2[H])C([H])([H])N(C(=O)C([H])(N([H])C(=O)C([H])(N([H])C([H])([H])[H])C([H])([H])[H])C(C([H])([H])[H])(C([H])([H])[H])C([H])([H])[H])C([H])(C(=O)N([H])C2([H])c4c([H])c([H])c([H])c([H])c4C([H])([H])C([H])([H])C2([H])[H])C3([H])[H])C1([H])[N+]([H])(C([H])([H])[H])C([H])([H])[H]

$$$$
25:0:0
     RDKit          3D

 92101  0  0  1  0  0  0  0  0999 V2000
  -28.1430  -24.0090   19.1080 C   0  0  0  0  0  2  0  0  0  0  0  0
  -29.2520  -24.2330   21.2480 C   0  0  0  0  0  2  0  0  0  0  0  0
  -28.0250  -22.4370   19.3480 C   0  0  0  0  0  2  0  0  0  0  0  0
  -29.1610  -22.6580   21.4670 C   0  0  0  0  0  2  0  0  0  0  0  0
  -28.1210  -24.9080   20.3950 C   0  0  0  0  0  3  0  0  0  0  0  0
  -29.0530  -21.8360   20.2370 N   0  0  0  0  0  0  0  0  0  0  0  0
  -28.2900  -19.4400   19.8070 C   0  0  0  0  0  3  0  0  0  0  0  0
  -28.4530  -18.0140   19.8820 C   0  0  0  0  0  3  0  0  0  0  0  0
  -30.5800  -18.2910   20.9080 C   0  0  0  0  0  3  0  0  0  0  0  0
  -29.2440  -20.3760   20.3080 C   0  0  0  0  0  0  0  0  0  0  0  0
  -29.6020  -17.3680   20.4290 C   0  0  0  0  0  0  0  0  0  0  0  0
  -30.4070  -19.7270   20.8590 C   0  0  0  0  0  0  0  0  0  0  0  0
  -31.4090  -20.4950   21.3540 F   0  0  0  0  0  0  0  0  0  0  0  0
  -30.4890  -14.8270   20.3660 C   0  0  0  0  0  0  0  0  0  0  0  0
  -30.3660  -12.5360   19.3520 C   0  0  0  0  0  2  0  0  0  0  0  0
  -29.4080  -12.5960   18.1390 C   0  0  0  0  0  2  0  0  0  0  0  0
  -27.9410  -12.4040   18.5790 C   0  0  0  0  0  2  0  0  0  0  0  0
  -27.5680  -13.2830   19.8030 C   0  0  0  0  0  3  0  0  0  0  0  0
  -28.6380  -13.1800   20.9130 C   0  0  0  0  0  2  0  0  0  0  0  0
  -29.9250  -13.5680   20.3180 N   0  0  0  0  0  0  0  0  0  0  0  0
  -31.6690  -14.9910   20.0420 O   0  0  0  0  0  0  0  0  0  0  0  0
  -29.6030  -15.8800   20.5830 N   0  0  0  0  0  0  0  0  0  0  0  0
  -28.6820  -15.5060   20.7460 H   0  0  0  0  0  0  0  0  0  0  0  0
  -25.1860  -13.8690   20.5560 C   0  0  0  0  0  0  0  0  0  0  0  0
  -24.1240  -13.0920   20.9270 C   0  0  0  0  0  0  0  0  0  0  0  0
  -24.5870  -11.7420   20.8760 C   0  0  0  0  0  0  0  0  0  0  0  0
  -26.2280  -12.9910   20.3000 N   0  0  0  0  0  0  0  0  0  0  0  0
  -25.8740  -11.7060   20.5560 N   0  0  0  0  0  0  0  0  0  0  0  0
  -23.8610  -10.4770   21.0570 C   0  0  0  0  0  0  0  0  0  0  0  0
  -24.2910   -9.5060   21.9870 C   0  0  0  0  0  3  0  0  0  0  0  0
  -23.5650   -8.3070   22.1560 C   0  0  0  0  0  3  0  0  0  0  0  0
  -22.3950   -8.0720   21.3950 C   0  0  0  0  0  0  0  0  0  0  0  0
  -21.9840   -9.0330   20.4550 C   0  0  0  0  0  3  0  0  0  0  0  0
  -22.7100  -10.2230   20.2840 C   0  0  0  0  0  3  0  0  0  0  0  0
  -21.6420   -6.9260   21.4740 O   0  0  0  0  0  0  0  0  0  0  0  0
  -21.5780   -6.1850   22.6260 C   0  0  0  0  0  0  0  0  0  0  0  0
  -21.0860   -6.7250   23.8340 C   0  0  0  0  0  3  0  0  0  0  0  0
  -20.9730   -5.9070   24.9770 C   0  0  0  0  0  3  0  0  0  0  0  0
  -21.3410   -4.5510   24.9120 C   0  0  0  0  0  0  0  0  0  0  0  0
  -21.8270   -4.0100   23.7080 C   0  0  0  0  0  3  0  0  0  0  0  0
  -21.9420   -4.8240   22.5670 C   0  0  0  0  0  0  0  0  0  0  0  0
  -22.3900   -4.2920   21.4050 F   0  0  0  0  0  0  0  0  0  0  0  0
  -21.2260   -3.7630   26.0060 F   0  0  0  0  0  0  0  0  0  0  0  0
  -22.7290  -13.5670   21.2140 C   0  0  0  0  0  0  0  0  0  0  0  0
  -22.0080  -12.8640   22.0790 N   0  0  0  0  0  0  0  0  0  0  0  0
  -22.2870  -14.5970   20.7050 O   0  0  0  0  0  0  0  0  0  0  0  0
  -22.3780  -12.0310   22.5120 H   0  0  0  0  0  0  0  0  0  0  0  0
  -21.0730  -13.1640   22.3150 H   0  0  0  0  0  0  0  0  0  0  0  0
  -25.3460  -15.2420   20.3890 N   0  0  0  0  0  0  0  0  0  0  0  0
  -24.5680  -15.8850   20.4990 H   0  0  0  0  0  0  0  0  0  0  0  0
  -26.1660  -15.6810   19.9960 H   0  0  0  0  0  0  0  0  0  0  0  0
  -28.2790  -26.4120   20.2470 O   0  0  0  0  0  0  0  0  0  0  0  0
  -24.6110  -31.9250   23.2800 C   0  0  0  0  0  0  0  0  0  0  0  0
  -27.1670  -27.2920   20.2250 C   0  0  0  0  0  0  0  0  0  0  0  0
  -23.3900  -30.5350   21.6470 C   0  0  0  0  0  3  0  0  0  0  0  0
  -24.8220  -28.9620   20.2160 C   0  0  0  0  0  0  0  0  0  0  0  0
  -25.9360  -30.8200   21.4530 C   0  0  0  0  0  2  0  0  0  0  0  0
  -26.0010  -29.4360   20.8050 C   0  0  0  0  0  0  0  0  0  0  0  0
  -27.1780  -28.6160   20.7880 C   0  0  0  0  0  3  0  0  0  0  0  0
  -25.9600  -26.8820   19.6210 C   0  0  0  0  0  3  0  0  0  0  0  0
  -24.8070  -27.6940   19.6130 C   0  0  0  0  0  3  0  0  0  0  0  0
  -23.5940  -29.8530   20.2670 C   0  0  0  0  0  2  0  0  0  0  0  0
  -24.6660  -31.1130   22.1830 N   0  0  0  0  0  0  0  0  0  0  0  0
  -23.5320  -32.2120   23.8190 O   0  0  0  0  0  0  0  0  0  0  0  0
  -22.7190  -29.5290   22.6120 C   0  0  0  0  0  0  0  0  0  0  0  0
  -21.3950  -29.3410   22.4730 N   0  0  0  0  0  0  0  0  0  0  0  0
  -23.3910  -28.9180   23.4480 O   0  0  0  0  0  0  0  0  0  0  0  0
  -20.9100  -29.8860   21.7720 H   0  0  0  0  0  0  0  0  0  0  0  0
  -18.0220  -28.1140   22.9400 C   0  0  0  0  0  0  0  0  0  0  0  0
  -20.5740  -28.4070   23.2450 C   0  0  0  0  0  3  0  0  0  0  0  0
  -20.7000  -26.9680   22.6930 C   0  0  0  0  0  2  0  0  0  0  0  0
  -19.6170  -26.6190   21.6670 C   0  0  0  0  0  2  0  0  0  0  0  0
  -18.2240  -26.7570   22.2870 C   0  0  0  0  0  2  0  0  0  0  0  0
  -19.1260  -28.8960   23.3750 C   0  0  0  0  0  0  0  0  0  0  0  0
  -18.8830  -30.1640   23.9450 C   0  0  0  0  0  3  0  0  0  0  0  0
  -17.5700  -30.6520   24.0860 C   0  0  0  0  0  3  0  0  0  0  0  0
  -16.4810  -29.8680   23.6660 C   0  0  0  0  0  3  0  0  0  0  0  0
  -16.7080  -28.6020   23.0980 C   0  0  0  0  0  3  0  0  0  0  0  0
  -25.8990  -32.5500   23.8970 C   0  0  0  0  0  3  0  0  0  0  0  0
  -25.6020  -33.9530   24.2230 N   0  0  0  0  0  0  0  0  0  0  0  0
  -25.9220  -35.0000   23.4510 C   0  0  0  0  0  0  0  0  0  0  0  0
  -26.5660  -34.8870   22.4040 O   0  0  0  0  0  0  0  0  0  0  0  0
  -25.0290  -34.1160   25.0380 H   0  0  0  0  0  0  0  0  0  0  0  0
  -24.1910  -36.7990   23.1340 C   0  0  0  0  0  1  0  0  0  0  0  0
  -25.4540  -36.3950   23.9110 C   0  0  0  0  0  3  0  0  0  0  0  0
  -27.6100  -37.2840   24.6800 C   0  0  0  0  0  1  0  0  0  0  0  0
  -26.4870  -37.4430   23.7600 N   0  0  0  0  0  0  0  0  0  0  0  0
  -26.0860  -38.3660   23.9060 H   0  0  0  0  0  0  0  0  0  0  0  0
  -26.4090  -31.7820   25.1780 C   0  0  1  0  0  0  0  0  0  0  0  0
  -25.3140  -31.5580   26.2480 C   0  0  0  0  0  1  0  0  0  0  0  0
  -26.9830  -30.3970   24.7970 C   0  0  0  0  0  1  0  0  0  0  0  0
  -27.5650  -32.5720   25.8370 C   0  0  0  0  0  1  0  0  0  0  0  0
  1  3  1  0
  1  5  1  0
  2  4  1  0
  3  6  1  0
  5 52  1  0
  5  2  1  0
  6 10  1  0
  6  4  1  0
  7  8  2  0
  7 10  1  0
  8 11  1  0
 10 12  2  0
 11 22  1  0
 11  9  2  0
 12  9  1  0
 12 13  1  0
 14 22  1  0
 15 20  1  0
 16 17  1  0
 16 15  1  0
 18 17  1  0
 18 27  1  0
 18 19  1  0
 20 14  1  0
 20 19  1  0
 21 14  2  0
 22 23  1  0
 24 25  2  0
 25 44  1  0
 26 25  1  0
 26 29  1  0
 27 24  1  0
 27 28  1  0
 28 26  2  0
 29 30  1  0
 30 31  2  0
 32 35  1  0
 32 31  1  0
 33 32  2  0
 34 33  1  0
 34 29  2  0
 35 36  1  0
 36 37  1  0
 37 38  2  0
 39 38  1  0
 39 43  1  0
 40 39  2  0
 41 36  2  0
 41 40  1  0
 42 41  1  0
 44 45  1  0
 45 48  1  0
 45 47  1  0
 46 44  2  0
 49 50  1  0
 49 24  1  0
 51 49  1  0
 53 64  2  0
 54 52  1  0
 54 59  1  0
 55 63  1  0
 55 65  1  0
 56 62  1  0
 56 58  1  0
 57 63  1  0
 58 57  1  0
 59 58  2  0
 60 54  2  0
 61 60  1  0
 61 56  2  0
 62 55  1  0
 63 53  1  0
 65 67  2  0
 66 65  1  0
 68 66  1  0
 69 78  2  0
 69 74  1  0
 70 66  1  0
 70 74  1  0
 71 70  1  0
 72 73  1  0
 72 71  1  0
 73 69  1  0
 74 75  2  0
 75 76  1  0
 77 76  2  0
 78 77  1  0
 79 53  1  0
 79 80  1  0
 79 89  1  0
 80 83  1  0
 81 85  1  0
 81 80  1  0
 82 81  2  0
 85 84  1  0
 87 88  1  0
 87 85  1  0
 87 86  1  0
 89 92  1  1
 89 90  1  0
 91 89  1  0
M  ISO  4   5 101  14 100  22 100  52 101
M  END
>  <TORSDO>  (26) 
F 17

>  <SCORE>  (26) 
-15.448

>  <name>  (26) 
25

>  <ligand_id>  (26) 
25

>  <original_smiles>  (26) 
[H]c1c([H])c([H])c2c(c1[H])C([H])([H])C([H])([H])C([H])([H])C2([H])N([H])C(=O)C1([H])N(C(=O)C([H])(N([H])C(=O)C([H])(N([H])C([H])([H])[H])C([H])([H])[H])C(C([H])([H])[H])(C([H])([H])[H])C([H])([H])[H])C([H])([H])c2c([H])c(OC3([H])C([H])([H])C([H])([H])N(c4c([H])c([H])c(N([H])C(=O)N5C([H])([H])C([H])([H])C([H])([H])C([H])(n6nc(-c7c([H])c([H])c(Oc8c([H])c([H])c(F)c([H])c8F)c([H])c7[H])c(C(=O)N([H])[H])c6N([H])[H])C5([H])[H])c([H])c4F)C([H])([H])C3([H])[H])c([H])c([H])c2C1([H])[H]

>  <smiles>  (26) 
[H]c1c([H])c([H])c2c(c1[H])C([H])([H])C([H])([H])C([H])([H])C2([H])N([H])C(=O)C1([H])N(C(=O)C([H])(N([H])C(=O)C([H])(N([H])C([H])([H])[H])C([H])([H])[H])C(C([H])([H])[H])(C([H])([H])[H])C([H])([H])[H])C([H])([H])c2c([H])c(OC3([H])C([H])([H])C([H])([H])N(c4c([H])c([H])c(N([H])C(=O)N5C([H])([H])C([H])([H])C([H])([H])C([H])(n6nc(-c7c([H])c([H])c(Oc8c([H])c([H])c(F)c([H])c8F)c([H])c7[H])c(C(=O)N([H])[H])c6N([H])[H])C5([H])[H])c([H])c4F)C([H])([H])C3([H])[H])c([H])c([H])c2C1([H])[H]

$$$$
26:0:0
     RDKit          3D

 90 98  0  0  1  0  0  0  0  0999 V2000
  -31.0370  -17.9100   19.9770 C   0  0  0  0  0  3  0  0  0  0  0  0
  -31.0130  -19.3290   19.8310 C   0  0  0  0  0  3  0  0  0  0  0  0
  -28.7300  -17.9770   20.6360 C   0  0  0  0  0  3  0  0  0  0  0  0
  -29.8880  -17.1860   20.3860 C   0  0  0  0  0  0  0  0  0  0  0  0
  -29.8590  -20.1220   20.0780 C   0  0  0  0  0  0  0  0  0  0  0  0
  -28.7050  -19.3980   20.4900 C   0  0  0  0  0  0  0  0  0  0  0  0
  -27.5490  -20.0520   20.7580 F   0  0  0  0  0  0  0  0  0  0  0  0
  -30.5980  -14.6850   20.1250 C   0  0  0  0  0  0  0  0  0  0  0  0
  -30.3560  -12.4480   19.0640 C   0  0  0  0  0  2  0  0  0  0  0  0
  -29.3690  -12.5900   17.8830 C   0  0  0  0  0  2  0  0  0  0  0  0
  -27.9110  -12.4310   18.3610 C   0  0  0  0  0  2  0  0  0  0  0  0
  -27.6000  -13.2790   19.6230 C   0  0  0  0  0  3  0  0  0  0  0  0
  -28.6980  -13.1110   20.6970 C   0  0  0  0  0  2  0  0  0  0  0  0
  -29.9860  -13.4590   20.0760 N   0  0  0  0  0  0  0  0  0  0  0  0
  -31.7390  -14.8470   19.6810 O   0  0  0  0  0  0  0  0  0  0  0  0
  -29.8100  -15.7270   20.5450 N   0  0  0  0  0  0  0  0  0  0  0  0
  -28.9370  -15.4010   20.9340 H   0  0  0  0  0  0  0  0  0  0  0  0
  -25.2380  -13.8750   20.4420 C   0  0  0  0  0  0  0  0  0  0  0  0
  -24.1830  -13.1000   20.8410 C   0  0  0  0  0  0  0  0  0  0  0  0
  -24.6380  -11.7470   20.7700 C   0  0  0  0  0  0  0  0  0  0  0  0
  -26.2690  -12.9940   20.1530 N   0  0  0  0  0  0  0  0  0  0  0  0
  -25.9140  -11.7080   20.4090 N   0  0  0  0  0  0  0  0  0  0  0  0
  -23.9120  -10.4850   20.9680 C   0  0  0  0  0  0  0  0  0  0  0  0
  -24.3650   -9.5090   21.8830 C   0  0  0  0  0  3  0  0  0  0  0  0
  -23.6420   -8.3110   22.0690 C   0  0  0  0  0  3  0  0  0  0  0  0
  -22.4500   -8.0820   21.3400 C   0  0  0  0  0  0  0  0  0  0  0  0
  -22.0150   -9.0480   20.4150 C   0  0  0  0  0  3  0  0  0  0  0  0
  -22.7400  -10.2360   20.2260 C   0  0  0  0  0  3  0  0  0  0  0  0
  -21.6950   -6.9380   21.4370 O   0  0  0  0  0  0  0  0  0  0  0  0
  -21.6530   -6.1990   22.5920 C   0  0  0  0  0  0  0  0  0  0  0  0
  -21.2070   -6.7480   23.8130 C   0  0  0  0  0  3  0  0  0  0  0  0
  -21.1150   -5.9340   24.9610 C   0  0  0  0  0  3  0  0  0  0  0  0
  -21.4580   -4.5710   24.8850 C   0  0  0  0  0  0  0  0  0  0  0  0
  -21.8970   -4.0200   23.6680 C   0  0  0  0  0  3  0  0  0  0  0  0
  -21.9910   -4.8310   22.5240 C   0  0  0  0  0  0  0  0  0  0  0  0
  -22.3940   -4.2910   21.3490 F   0  0  0  0  0  0  0  0  0  0  0  0
  -21.3620   -3.7860   25.9840 F   0  0  0  0  0  0  0  0  0  0  0  0
  -22.7990  -13.5780   21.1750 C   0  0  0  0  0  0  0  0  0  0  0  0
  -22.1060  -12.8780   22.0650 N   0  0  0  0  0  0  0  0  0  0  0  0
  -22.3450  -14.6100   20.6840 O   0  0  0  0  0  0  0  0  0  0  0  0
  -22.4870  -12.0440   22.4880 H   0  0  0  0  0  0  0  0  0  0  0  0
  -21.1790  -13.1820   22.3300 H   0  0  0  0  0  0  0  0  0  0  0  0
  -25.4000  -15.2470   20.2780 N   0  0  0  0  0  0  0  0  0  0  0  0
  -24.6340  -15.8960   20.4170 H   0  0  0  0  0  0  0  0  0  0  0  0
  -26.2220  -15.6840   19.8800 H   0  0  0  0  0  0  0  0  0  0  0  0
  -29.9680  -21.5220   19.9050 O   0  0  0  0  0  0  0  0  0  0  0  0
  -28.8750  -22.4670   20.1420 C   0  0  0  0  0  3  0  0  0  0  0  0
  -29.2270  -24.0020   19.8750 C   0  0  0  0  0  3  0  0  0  0  0  0
  -28.0550  -25.0580   20.0540 C   0  0  0  0  0  2  0  0  0  0  0  0
  -28.3030  -26.5080   19.8500 O   0  0  0  0  0  0  0  0  0  0  0  0
  -24.6700  -31.8010   23.1690 C   0  0  0  0  0  0  0  0  0  0  0  0
  -27.1900  -27.3650   19.8710 C   0  0  0  0  0  0  0  0  0  0  0  0
  -23.4280  -30.4940   21.4830 C   0  0  0  0  0  3  0  0  0  0  0  0
  -24.8410  -28.9990   19.9700 C   0  0  0  0  0  0  0  0  0  0  0  0
  -25.9690  -30.7950   21.2790 C   0  0  0  0  0  2  0  0  0  0  0  0
  -26.0250  -29.4470   20.5710 C   0  0  0  0  0  0  0  0  0  0  0  0
  -27.2020  -28.6430   20.5130 C   0  0  0  0  0  3  0  0  0  0  0  0
  -25.9840  -26.9800   19.2380 C   0  0  0  0  0  3  0  0  0  0  0  0
  -24.8230  -27.7710   19.2960 C   0  0  0  0  0  3  0  0  0  0  0  0
  -23.6170  -29.8840   20.0710 C   0  0  0  0  0  2  0  0  0  0  0  0
  -24.7090  -31.0450   22.0350 N   0  0  0  0  0  0  0  0  0  0  0  0
  -23.5980  -32.0660   23.7310 O   0  0  0  0  0  0  0  0  0  0  0  0
  -22.7670  -29.4390   22.4030 C   0  0  0  0  0  0  0  0  0  0  0  0
  -21.4370  -29.2880   22.2910 N   0  0  0  0  0  0  0  0  0  0  0  0
  -23.4500  -28.7630   23.1770 O   0  0  0  0  0  0  0  0  0  0  0  0
  -20.9460  -29.8860   21.6410 H   0  0  0  0  0  0  0  0  0  0  0  0
  -18.0450  -28.1480   22.8170 C   0  0  0  0  0  0  0  0  0  0  0  0
  -20.6160  -28.3280   23.0300 C   0  0  0  0  0  3  0  0  0  0  0  0
  -20.6640  -26.9300   22.3690 C   0  0  0  0  0  2  0  0  0  0  0  0
  -19.5260  -26.6940   21.3700 C   0  0  0  0  0  2  0  0  0  0  0  0
  -18.1670  -26.8370   22.0610 C   0  0  0  0  0  2  0  0  0  0  0  0
  -19.1950  -28.8560   23.2580 C   0  0  0  0  0  0  0  0  0  0  0  0
  -19.0250  -30.0880   23.9270 C   0  0  0  0  0  3  0  0  0  0  0  0
  -17.7390  -30.6110   24.1590 C   0  0  0  0  0  3  0  0  0  0  0  0
  -16.6040  -29.8990   23.7320 C   0  0  0  0  0  3  0  0  0  0  0  0
  -16.7580  -28.6700   23.0680 C   0  0  0  0  0  3  0  0  0  0  0  0
  -25.9690  -32.3900   23.8020 C   0  0  0  0  0  3  0  0  0  0  0  0
  -26.4820  -31.5600   25.0420 C   0  0  1  0  0  0  0  0  0  0  0  0
  -25.3960  -31.3020   26.1120 C   0  0  0  0  0  1  0  0  0  0  0  0
  -27.0380  -30.1900   24.5940 C   0  0  0  0  0  1  0  0  0  0  0  0
  -27.6520  -32.3110   25.7230 C   0  0  0  0  0  1  0  0  0  0  0  0
  -25.6830  -33.7790   24.1890 N   0  0  0  0  0  0  0  0  0  0  0  0
  -25.9950  -34.8530   23.4520 C   0  0  0  0  0  0  0  0  0  0  0  0
  -26.6230  -34.7770   22.3920 O   0  0  0  0  0  0  0  0  0  0  0  0
  -25.1190  -33.9120   25.0150 H   0  0  0  0  0  0  0  0  0  0  0  0
  -24.2570  -36.6600   23.2380 C   0  0  0  0  0  1  0  0  0  0  0  0
  -25.5380  -36.2290   23.9710 C   0  0  0  0  0  3  0  0  0  0  0  0
  -27.7130  -37.0900   24.7190 C   0  0  0  0  0  1  0  0  0  0  0  0
  -26.5670  -37.2830   23.8340 N   0  0  0  0  0  0  0  0  0  0  0  0
  -26.1720  -38.2000   24.0220 H   0  0  0  0  0  0  0  0  0  0  0  0
  1  4  1  0
  2  1  2  0
  2  5  1  0
  4 16  1  0
  4  3  2  0
  5  6  2  0
  6  3  1  0
  6  7  1  0
  8 16  1  0
  9 14  1  0
 10 11  1  0
 10  9  1  0
 12 11  1  0
 12 21  1  0
 12 13  1  0
 14  8  1  0
 14 13  1  0
 15  8  2  0
 16 17  1  0
 18 19  2  0
 19 38  1  0
 20 19  1  0
 20 23  1  0
 21 22  1  0
 21 18  1  0
 22 20  2  0
 23 24  1  0
 24 25  2  0
 26 29  1  0
 26 25  1  0
 27 26  2  0
 28 27  1  0
 28 23  2  0
 29 30  1  0
 30 31  1  0
 31 32  2  0
 33 32  1  0
 33 37  1  0
 34 33  2  0
 35 30  2  0
 35 34  1  0
 36 35  1  0
 38 39  1  0
 39 42  1  0
 39 41  1  0
 40 38  2  0
 43 44  1  0
 43 18  1  0
 45 43  1  0
 46  5  1  0
 46 47  1  0
 48 49  1  0
 48 47  2  0
 50 52  1  0
 50 49  1  0
 51 62  2  0
 52 57  1  0
 53 61  1  0
 53 63  1  0
 54 60  1  0
 54 56  1  0
 55 61  1  0
 56 55  1  0
 57 56  2  0
 58 59  1  0
 58 52  2  0
 59 54  2  0
 60 53  1  0
 61 51  1  0
 63 65  2  0
 64 63  1  0
 66 64  1  0
 67 76  2  0
 67 72  1  0
 68 64  1  0
 68 72  1  0
 69 68  1  0
 70 71  1  0
 70 69  1  0
 71 67  1  0
 72 73  2  0
 73 74  1  0
 75 74  2  0
 76 75  1  0
 77 51  1  0
 77 82  1  0
 77 78  1  0
 78 81  1  1
 78 79  1  0
 80 78  1  0
 82 85  1  0
 83 87  1  0
 83 82  1  0
 84 83  2  0
 87 86  1  0
 89 87  1  0
 89 90  1  0
 89 88  1  0
M  ISO  4   8 100  16 100  49 101  50 101
M  END
>  <TORSDO>  (27) 
F 20

>  <SCORE>  (27) 
-13.622

>  <name>  (27) 
26

>  <ligand_id>  (27) 
26

>  <original_smiles>  (27) 
[H]c1c([H])c([H])c2c(c1[H])C([H])([H])C([H])([H])C([H])([H])C2([H])N([H])C(=O)C1([H])N(C(=O)C([H])(N([H])C(=O)C([H])(N([H])C([H])([H])[H])C([H])([H])[H])C(C([H])([H])[H])(C([H])([H])[H])C([H])([H])[H])C([H])([H])c2c([H])c(OC([H])([H])C([H])([H])C([H])([H])Oc3c([H])c([H])c(N([H])C(=O)N4C([H])([H])C([H])([H])C([H])([H])C([H])(n5nc(-c6c([H])c([H])c(Oc7c([H])c([H])c(F)c([H])c7F)c([H])c6[H])c(C(=O)N([H])[H])c5N([H])[H])C4([H])[H])c([H])c3F)c([H])c([H])c2C1([H])[H]

>  <smiles>  (27) 
[H]c1c([H])c([H])c2c(c1[H])C([H])([H])C([H])([H])C([H])([H])C2([H])N([H])C(=O)C1([H])N(C(=O)C([H])(N([H])C(=O)C([H])(N([H])C([H])([H])[H])C([H])([H])[H])C(C([H])([H])[H])(C([H])([H])[H])C([H])([H])[H])C([H])([H])c2c([H])c(OC([H])([H])C([H])([H])C([H])([H])Oc3c([H])c([H])c(N([H])C(=O)N4C([H])([H])C([H])([H])C([H])([H])C([H])(n5nc(-c6c([H])c([H])c(Oc7c([H])c([H])c(F)c([H])c7F)c([H])c6[H])c(C(=O)N([H])[H])c5N([H])[H])C4([H])[H])c([H])c3F)c([H])c([H])c2C1([H])[H]

$$$$
27:0:0
     RDKit          3D

 93101  0  0  1  0  0  0  0  0999 V2000
  -26.8040  -21.4910   21.7520 C   0  0  0  0  0  1  0  0  0  0  0  0
  -27.9040  -21.8910   20.8300 N   0  0  1  0  0  4  0  0  0  0  0  0
  -28.7610  -21.9720   21.3620 H   0  0  0  0  0  0  0  0  0  0  0  0
  -28.1880  -20.8470   19.7850 C   0  0  0  0  0  2  0  0  0  0  0  0
  -29.5550  -19.2670   21.3490 C   0  0  0  0  0  3  0  0  0  0  0  0
  -30.1960  -18.0230   21.5590 C   0  0  0  0  0  3  0  0  0  0  0  0
  -28.7910  -18.4730   19.1960 C   0  0  0  0  0  3  0  0  0  0  0  0
  -28.8480  -19.5140   20.1510 C   0  0  0  0  0  0  0  0  0  0  0  0
  -30.1690  -16.9910   20.5870 C   0  0  0  0  0  0  0  0  0  0  0  0
  -29.4250  -17.2290   19.4070 C   0  0  0  0  0  0  0  0  0  0  0  0
  -29.2920  -16.2700   18.4690 F   0  0  0  0  0  0  0  0  0  0  0  0
  -31.3570  -14.8360   20.0350 C   0  0  0  0  0  0  0  0  0  0  0  0
  -31.0210  -12.6450   18.9420 C   0  0  0  0  0  2  0  0  0  0  0  0
  -30.0230  -12.8210   17.7750 C   0  0  0  0  0  2  0  0  0  0  0  0
  -28.5660  -12.6940   18.2780 C   0  0  0  0  0  2  0  0  0  0  0  0
  -28.2990  -13.5440   19.5510 C   0  0  0  0  0  3  0  0  0  0  0  0
  -29.4060  -13.3480   20.6100 C   0  0  0  0  0  2  0  0  0  0  0  0
  -30.7010  -13.6420   19.9750 N   0  0  0  0  0  0  0  0  0  0  0  0
  -32.3930  -15.0540   19.3960 O   0  0  0  0  0  0  0  0  0  0  0  0
  -30.8620  -15.7670   20.8780 N   0  0  0  0  0  0  0  0  0  0  0  0
  -31.1130  -15.6280   21.8560 H   0  0  0  0  0  0  0  0  0  0  0  0
  -26.0000  -14.2130   20.4930 C   0  0  0  0  0  0  0  0  0  0  0  0
  -24.9220  -13.4770   20.8810 C   0  0  0  0  0  0  0  0  0  0  0  0
  -25.2900  -12.1070   20.6960 C   0  0  0  0  0  0  0  0  0  0  0  0
  -26.9740  -13.3040   20.1080 N   0  0  0  0  0  0  0  0  0  0  0  0
  -26.5470  -12.0280   20.2780 N   0  0  0  0  0  0  0  0  0  0  0  0
  -24.5060  -10.8790   20.8400 C   0  0  0  0  0  0  0  0  0  0  0  0
  -24.8580   -9.8740   21.7700 C   0  0  0  0  0  3  0  0  0  0  0  0
  -24.0730   -8.7080   21.9010 C   0  0  0  0  0  3  0  0  0  0  0  0
  -22.9220   -8.5320   21.0980 C   0  0  0  0  0  0  0  0  0  0  0  0
  -22.5830   -9.5260   20.1640 C   0  0  0  0  0  3  0  0  0  0  0  0
  -23.3690  -10.6830   20.0310 C   0  0  0  0  0  3  0  0  0  0  0  0
  -22.1120   -7.4250   21.1420 O   0  0  0  0  0  0  0  0  0  0  0  0
  -21.8740   -6.7480   22.3120 C   0  0  0  0  0  0  0  0  0  0  0  0
  -21.2930   -7.3790   23.4330 C   0  0  0  0  0  3  0  0  0  0  0  0
  -21.0040   -6.6310   24.5920 C   0  0  0  0  0  3  0  0  0  0  0  0
  -21.2820   -5.2520   24.6280 C   0  0  0  0  0  0  0  0  0  0  0  0
  -21.8550   -4.6200   23.5110 C   0  0  0  0  0  3  0  0  0  0  0  0
  -22.1480   -5.3650   22.3540 C   0  0  0  0  0  0  0  0  0  0  0  0
  -22.6790   -4.7440   21.2730 F   0  0  0  0  0  0  0  0  0  0  0  0
  -20.9970   -4.5340   25.7380 F   0  0  0  0  0  0  0  0  0  0  0  0
  -23.5880  -14.0050   21.3210 C   0  0  0  0  0  0  0  0  0  0  0  0
  -22.9090  -13.2990   22.2150 N   0  0  0  0  0  0  0  0  0  0  0  0
  -23.1540  -15.0810   20.8950 O   0  0  0  0  0  0  0  0  0  0  0  0
  -23.2720  -12.4310   22.5820 H   0  0  0  0  0  0  0  0  0  0  0  0
  -22.0150  -13.6320   22.5530 H   0  0  0  0  0  0  0  0  0  0  0  0
  -26.2260  -15.5900   20.4190 N   0  0  0  0  0  0  0  0  0  0  0  0
  -25.4880  -16.2530   20.6300 H   0  0  0  0  0  0  0  0  0  0  0  0
  -27.0750  -16.0340   20.0840 H   0  0  0  0  0  0  0  0  0  0  0  0
  -27.6030  -23.2080   20.1610 C   0  0  0  0  0  2  0  0  0  0  0  0
  -28.2270  -24.5200   20.7310 C   0  0  0  0  0  2  0  0  0  0  0  0
  -28.8820  -25.4400   19.6280 C   0  0  0  0  0  2  0  0  0  0  0  0
  -28.9360  -26.8800   19.8540 O   0  0  0  0  0  0  0  0  0  0  0  0
  -24.8180  -31.7090   23.1100 C   0  0  0  0  0  0  0  0  0  0  0  0
  -27.7490  -27.6040   19.8110 C   0  0  0  0  0  0  0  0  0  0  0  0
  -23.7230  -30.3330   21.3770 C   0  0  0  0  0  3  0  0  0  0  0  0
  -25.2920  -29.0250   19.8520 C   0  0  0  0  0  0  0  0  0  0  0  0
  -26.2270  -30.8910   21.2070 C   0  0  0  0  0  2  0  0  0  0  0  0
  -26.4140  -29.5620   20.4930 C   0  0  0  0  0  0  0  0  0  0  0  0
  -27.6450  -28.8560   20.4800 C   0  0  0  0  0  3  0  0  0  0  0  0
  -26.6030  -27.1220   19.1260 C   0  0  0  0  0  3  0  0  0  0  0  0
  -25.3870  -27.8200   19.1510 C   0  0  0  0  0  3  0  0  0  0  0  0
  -23.9850  -29.7720   19.9510 C   0  0  0  0  0  2  0  0  0  0  0  0
  -24.9450  -30.9880   21.9600 N   0  0  0  0  0  0  0  0  0  0  0  0
  -23.7190  -31.8550   23.6680 O   0  0  0  0  0  0  0  0  0  0  0  0
  -23.1650  -29.1920   22.2690 C   0  0  0  0  0  0  0  0  0  0  0  0
  -21.8640  -28.8970   22.1130 N   0  0  0  0  0  0  0  0  0  0  0  0
  -23.8990  -28.5800   23.0490 O   0  0  0  0  0  0  0  0  0  0  0  0
  -21.3160  -29.4610   21.4760 H   0  0  0  0  0  0  0  0  0  0  0  0
  -18.6400  -27.2560   22.3940 C   0  0  0  0  0  0  0  0  0  0  0  0
  -21.1370  -27.8230   22.7920 C   0  0  0  0  0  3  0  0  0  0  0  0
  -21.4480  -26.4500   22.1670 C   0  0  0  0  0  2  0  0  0  0  0  0
  -20.4350  -26.0190   21.1140 C   0  0  0  0  0  2  0  0  0  0  0  0
  -19.0360  -25.9620   21.7130 C   0  0  0  0  0  2  0  0  0  0  0  0
  -19.6340  -28.1320   22.9070 C   0  0  0  0  0  0  0  0  0  0  0  0
  -19.2410  -29.3250   23.5430 C   0  0  0  0  0  3  0  0  0  0  0  0
  -17.8800  -29.6350   23.6860 C   0  0  0  0  0  3  0  0  0  0  0  0
  -16.8940  -28.7760   23.1650 C   0  0  0  0  0  3  0  0  0  0  0  0
  -17.2760  -27.5860   22.5150 C   0  0  0  0  0  3  0  0  0  0  0  0
  -26.0460  -32.4130   23.7720 C   0  0  0  0  0  3  0  0  0  0  0  0
  -25.6390  -33.7760   24.1440 N   0  0  0  0  0  0  0  0  0  0  0  0
  -25.9040  -34.8720   23.4180 C   0  0  0  0  0  0  0  0  0  0  0  0
  -26.5980  -34.8450   22.3960 O   0  0  0  0  0  0  0  0  0  0  0  0
  -25.0250  -33.8660   24.9420 H   0  0  0  0  0  0  0  0  0  0  0  0
  -24.0690  -36.5550   23.0650 C   0  0  0  0  0  1  0  0  0  0  0  0
  -25.3120  -36.2100   23.9010 C   0  0  0  0  0  3  0  0  0  0  0  0
  -27.3570  -37.2060   24.8270 C   0  0  0  0  0  1  0  0  0  0  0  0
  -26.2760  -37.3320   23.8510 N   0  0  0  0  0  0  0  0  0  0  0  0
  -25.8050  -38.2190   24.0160 H   0  0  0  0  0  0  0  0  0  0  0  0
  -26.5990  -31.6350   25.0250 C   0  0  1  0  0  0  0  0  0  0  0  0
  -25.5090  -31.2600   26.0590 C   0  0  0  0  0  1  0  0  0  0  0  0
  -27.2960  -30.3280   24.5810 C   0  0  0  0  0  1  0  0  0  0  0  0
  -27.6690  -32.4900   25.7410 C   0  0  0  0  0  1  0  0  0  0  0  0
  2  3  1  1
  2  1  1  0
  4  8  1  0
  4  2  1  0
  5  6  1  0
  7 10  2  0
  7  8  1  0
  8  5  2  0
  9 20  1  0
  9  6  2  0
 10  9  1  0
 11 10  1  0
 12 20  1  0
 13 18  1  0
 14 15  1  0
 14 13  1  0
 16 15  1  0
 16 25  1  0
 16 17  1  0
 18 12  1  0
 18 17  1  0
 19 12  2  0
 20 21  1  0
 22 23  2  0
 23 42  1  0
 24 27  1  0
 24 23  1  0
 25 26  1  0
 25 22  1  0
 26 24  2  0
 27 28  1  0
 28 29  2  0
 30 33  1  0
 30 29  1  0
 31 30  2  0
 32 31  1  0
 32 27  2  0
 33 34  1  0
 34 39  2  0
 34 35  1  0
 35 36  2  0
 36 37  1  0
 37 41  1  0
 38 37  2  0
 39 38  1  0
 40 39  1  0
 42 43  1  0
 43 46  1  0
 43 45  1  0
 44 42  2  0
 47 22  1  0
 47 48  1  0
 49 47  1  0
 50 51  1  0
 50  2  1  0
 52 53  1  0
 52 51  1  0
 54 65  2  0
 55 53  1  0
 55 60  1  0
 56 64  1  0
 56 66  1  0
 57 63  1  0
 57 59  1  0
 58 64  1  0
 59 58  1  0
 60 59  2  0
 61 62  1  0
 61 55  2  0
 62 57  2  0
 63 56  1  0
 64 54  1  0
 66 68  2  0
 67 66  1  0
 69 67  1  0
 70 79  2  0
 70 75  1  0
 71 67  1  0
 71 75  1  0
 72 71  1  0
 73 74  1  0
 73 72  1  0
 74 70  1  0
 75 76  2  0
 76 77  1  0
 78 77  2  0
 79 78  1  0
 80 54  1  0
 80 81  1  0
 80 90  1  0
 81 84  1  0
 82 86  1  0
 82 81  1  0
 83 82  2  0
 86 85  1  0
 88 86  1  0
 88 89  1  0
 88 87  1  0
 90 93  1  1
 90 91  1  0
 92 90  1  0
M  ISO  4  12 100  20 100  52 101  53 101
M  END
>  <TORSDO>  (28) 
F 21

>  <SCORE>  (28) 
-9.220

>  <name>  (28) 
27

>  <ligand_id>  (28) 
27

>  <original_smiles>  (28) 
[H]c1c([H])c([H])c2c(c1[H])C([H])([H])C([H])([H])C([H])([H])C2([H])N([H])C(=O)C1([H])N(C(=O)C([H])(N([H])C(=O)C([H])(N([H])C([H])([H])[H])C([H])([H])[H])C(C([H])([H])[H])(C([H])([H])[H])C([H])([H])[H])C([H])([H])c2c([H])c(OC([H])([H])C([H])([H])C([H])([H])[N+]([H])(C([H])([H])[H])C([H])([H])c3c([H])c([H])c(N([H])C(=O)N4C([H])([H])C([H])([H])C([H])([H])C([H])(n5nc(-c6c([H])c([H])c(Oc7c([H])c([H])c(F)c([H])c7F)c([H])c6[H])c(C(=O)N([H])[H])c5N([H])[H])C4([H])[H])c(F)c3[H])c([H])c([H])c2C1([H])[H]

>  <smiles>  (28) 
[H]c1c([H])c([H])c2c(c1[H])C([H])([H])C([H])([H])C([H])([H])C2([H])N([H])C(=O)C1([H])N(C(=O)C([H])(N([H])C(=O)C([H])(N([H])C([H])([H])[H])C([H])([H])[H])C(C([H])([H])[H])(C([H])([H])[H])C([H])([H])[H])C([H])([H])c2c([H])c(OC([H])([H])C([H])([H])C([H])([H])[N+]([H])(C([H])([H])[H])C([H])([H])c3c([H])c([H])c(N([H])C(=O)N4C([H])([H])C([H])([H])C([H])([H])C([H])(n5nc(-c6c([H])c([H])c(Oc7c([H])c([H])c(F)c([H])c7F)c([H])c6[H])c(C(=O)N([H])[H])c5N([H])[H])C4([H])[H])c(F)c3[H])c([H])c([H])c2C1([H])[H]

$$$$
28:0:0
     RDKit          3D

 93102  0  0  1  0  0  0  0  0999 V2000
  -28.3060  -23.2080   19.8620 C   0  0  0  0  0  0  0  0  0  0  0  0
  -30.0150  -23.4480   21.0060 C   0  0  0  0  0  2  0  0  0  0  0  0
  -29.2710  -24.4090   20.0550 C   0  0  0  0  0  3  0  0  0  0  0  0
  -29.0340  -22.3830   20.7040 N   0  0  0  0  0  0  0  0  0  0  0  0
  -27.2620  -23.0110   19.2770 O   0  0  0  0  0  0  0  0  0  0  0  0
  -28.6600  -21.1270   21.3990 C   0  0  0  0  0  2  0  0  0  0  0  0
  -28.5380  -18.5790   21.2330 C   0  0  0  0  0  3  0  0  0  0  0  0
  -29.0270  -17.3070   20.8520 C   0  0  0  0  0  3  0  0  0  0  0  0
  -30.5440  -19.6270   20.3810 C   0  0  0  0  0  3  0  0  0  0  0  0
  -29.2690  -19.7670   20.9780 C   0  0  0  0  0  0  0  0  0  0  0  0
  -30.2630  -17.1710   20.1880 C   0  0  0  0  0  0  0  0  0  0  0  0
  -31.0340  -18.3520   19.9870 C   0  0  0  0  0  0  0  0  0  0  0  0
  -32.2240  -18.2820   19.3430 F   0  0  0  0  0  0  0  0  0  0  0  0
  -31.2960  -14.8960   19.9240 C   0  0  0  0  0  0  0  0  0  0  0  0
  -30.9990  -12.6390   18.9790 C   0  0  0  0  0  2  0  0  0  0  0  0
  -30.0240  -12.7260   17.7850 C   0  0  0  0  0  2  0  0  0  0  0  0
  -28.5610  -12.6420   18.2620 C   0  0  0  0  0  2  0  0  0  0  0  0
  -28.2420  -13.5500   19.4800 C   0  0  0  0  0  3  0  0  0  0  0  0
  -29.3340  -13.4460   20.5680 C   0  0  0  0  0  2  0  0  0  0  0  0
  -30.6290  -13.7060   19.9240 N   0  0  0  0  0  0  0  0  0  0  0  0
  -32.5150  -14.9470   19.7440 O   0  0  0  0  0  0  0  0  0  0  0  0
  -30.5330  -16.1420   18.0110 C   0  0  0  0  0  1  0  0  0  0  0  0
  -30.5400  -15.9480   19.4750 N   0  0  0  0  0  0  0  0  0  0  0  0
  -25.8740  -14.1760   20.2670 C   0  0  0  0  0  0  0  0  0  0  0  0
  -24.8110  -13.4160   20.6660 C   0  0  0  0  0  0  0  0  0  0  0  0
  -25.2560  -12.0590   20.6160 C   0  0  0  0  0  0  0  0  0  0  0  0
  -26.9050  -13.2850   20.0080 N   0  0  0  0  0  0  0  0  0  0  0  0
  -26.5390  -12.0060   20.2800 N   0  0  0  0  0  0  0  0  0  0  0  0
  -24.5170  -10.8050   20.8150 C   0  0  0  0  0  0  0  0  0  0  0  0
  -24.8960   -9.8710   21.8030 C   0  0  0  0  0  3  0  0  0  0  0  0
  -24.1550   -8.6820   21.9810 C   0  0  0  0  0  3  0  0  0  0  0  0
  -23.0260   -8.4180   21.1720 C   0  0  0  0  0  0  0  0  0  0  0  0
  -22.6670   -9.3420   20.1770 C   0  0  0  0  0  3  0  0  0  0  0  0
  -23.4070  -10.5230   19.9950 C   0  0  0  0  0  3  0  0  0  0  0  0
  -22.2630   -7.2790   21.2600 O   0  0  0  0  0  0  0  0  0  0  0  0
  -22.0340   -6.6530   22.4580 C   0  0  0  0  0  0  0  0  0  0  0  0
  -21.4130   -7.3190   23.5370 C   0  0  0  0  0  3  0  0  0  0  0  0
  -21.1370   -6.6210   24.7300 C   0  0  0  0  0  3  0  0  0  0  0  0
  -21.4660   -5.2580   24.8430 C   0  0  0  0  0  0  0  0  0  0  0  0
  -22.0770   -4.5910   23.7680 C   0  0  0  0  0  3  0  0  0  0  0  0
  -22.3570   -5.2860   22.5780 C   0  0  0  0  0  0  0  0  0  0  0  0
  -22.9250   -4.6320   21.5360 F   0  0  0  0  0  0  0  0  0  0  0  0
  -21.1940   -4.5870   25.9870 F   0  0  0  0  0  0  0  0  0  0  0  0
  -23.4280  -13.9080   20.9760 C   0  0  0  0  0  0  0  0  0  0  0  0
  -22.7240  -13.2380   21.8800 N   0  0  0  0  0  0  0  0  0  0  0  0
  -22.9810  -14.9290   20.4520 O   0  0  0  0  0  0  0  0  0  0  0  0
  -23.0950  -12.4130   22.3300 H   0  0  0  0  0  0  0  0  0  0  0  0
  -21.7970  -13.5510   22.1270 H   0  0  0  0  0  0  0  0  0  0  0  0
  -26.0330  -15.5430   20.0740 N   0  0  0  0  0  0  0  0  0  0  0  0
  -25.2500  -16.1840   20.1480 H   0  0  0  0  0  0  0  0  0  0  0  0
  -26.8410  -15.9550   19.6270 H   0  0  0  0  0  0  0  0  0  0  0  0
  -28.6030  -25.7100   20.6050 C   0  0  0  0  0  2  0  0  0  0  0  0
  -28.5910  -26.8650   19.7200 O   0  0  0  0  0  0  0  0  0  0  0  0
  -24.7380  -31.8380   23.1200 C   0  0  0  0  0  0  0  0  0  0  0  0
  -27.4330  -27.6190   19.7720 C   0  0  0  0  0  0  0  0  0  0  0  0
  -23.5340  -30.4810   21.4400 C   0  0  0  0  0  3  0  0  0  0  0  0
  -24.9990  -29.0640   19.9000 C   0  0  0  0  0  0  0  0  0  0  0  0
  -26.0400  -30.9320   21.1930 C   0  0  0  0  0  2  0  0  0  0  0  0
  -26.1570  -29.5940   20.4840 C   0  0  0  0  0  0  0  0  0  0  0  0
  -27.3800  -28.8830   20.4130 C   0  0  0  0  0  3  0  0  0  0  0  0
  -26.2620  -27.1120   19.1750 C   0  0  0  0  0  3  0  0  0  0  0  0
  -25.0480  -27.8230   19.2390 C   0  0  0  0  0  3  0  0  0  0  0  0
  -23.7280  -29.8770   20.0220 C   0  0  0  0  0  2  0  0  0  0  0  0
  -24.7910  -31.0980   21.9760 N   0  0  0  0  0  0  0  0  0  0  0  0
  -23.6650  -32.0470   23.7030 O   0  0  0  0  0  0  0  0  0  0  0  0
  -22.9400  -29.3940   22.3660 C   0  0  0  0  0  0  0  0  0  0  0  0
  -21.6230  -29.1560   22.2480 N   0  0  0  0  0  0  0  0  0  0  0  0
  -23.6630  -28.7650   23.1430 O   0  0  0  0  0  0  0  0  0  0  0  0
  -21.0980  -29.7190   21.5950 H   0  0  0  0  0  0  0  0  0  0  0  0
  -18.3260  -27.7460   22.6950 C   0  0  0  0  0  0  0  0  0  0  0  0
  -20.8620  -28.1490   22.9870 C   0  0  0  0  0  3  0  0  0  0  0  0
  -21.0520  -26.7430   22.3720 C   0  0  0  0  0  2  0  0  0  0  0  0
  -19.9760  -26.3850   21.3420 C   0  0  0  0  0  2  0  0  0  0  0  0
  -18.5870  -26.4290   21.9830 C   0  0  0  0  0  2  0  0  0  0  0  0
  -19.3950  -28.5610   23.1530 C   0  0  0  0  0  0  0  0  0  0  0  0
  -19.1000  -29.7910   23.7790 C   0  0  0  0  0  3  0  0  0  0  0  0
  -17.7680  -30.2110   23.9500 C   0  0  0  0  0  3  0  0  0  0  0  0
  -16.7130  -29.3950   23.5060 C   0  0  0  0  0  3  0  0  0  0  0  0
  -16.9920  -28.1630   22.8880 C   0  0  0  0  0  3  0  0  0  0  0  0
  -26.0190  -32.4830   23.7380 C   0  0  0  0  0  3  0  0  0  0  0  0
  -26.5970  -31.6670   24.9580 C   0  0  1  0  0  0  0  0  0  0  0  0
  -25.5420  -31.3420   26.0400 C   0  0  0  0  0  1  0  0  0  0  0  0
  -27.2110  -30.3310   24.4770 C   0  0  0  0  0  1  0  0  0  0  0  0
  -27.7410  -32.4650   25.6250 C   0  0  0  0  0  1  0  0  0  0  0  0
  -25.6710  -33.8520   24.1440 N   0  0  0  0  0  0  0  0  0  0  0  0
  -25.9590  -34.9510   23.4340 C   0  0  0  0  0  0  0  0  0  0  0  0
  -26.6130  -34.9210   22.3880 O   0  0  0  0  0  0  0  0  0  0  0  0
  -25.0770  -33.9470   24.9550 H   0  0  0  0  0  0  0  0  0  0  0  0
  -24.1770  -36.7140   23.2000 C   0  0  0  0  0  1  0  0  0  0  0  0
  -25.4410  -36.3000   23.9700 C   0  0  0  0  0  3  0  0  0  0  0  0
  -27.5570  -37.2100   24.8230 C   0  0  0  0  0  1  0  0  0  0  0  0
  -26.4430  -37.3860   23.8950 N   0  0  0  0  0  0  0  0  0  0  0  0
  -26.0120  -38.2860   24.0880 H   0  0  0  0  0  0  0  0  0  0  0  0
  1  3  1  0
  1  4  1  0
  3 52  1  0
  3  2  1  0
  4  2  1  0
  4  6  1  0
  5  1  2  0
  8  7  2  0
  9 10  2  0
 10  7  1  0
 10  6  1  0
 11  8  1  0
 12 11  2  0
 12  9  1  0
 13 12  1  0
 14 20  1  0
 15 20  1  0
 16 17  1  0
 16 15  1  0
 18 17  1  0
 18 27  1  0
 18 19  1  0
 20 19  1  0
 21 14  2  0
 22 23  1  0
 23 14  1  0
 23 11  1  0
 24 25  2  0
 25 44  1  0
 26 25  1  0
 26 29  1  0
 27 24  1  0
 27 28  1  0
 28 26  2  0
 29 30  1  0
 30 31  2  0
 32 35  1  0
 32 31  1  0
 33 32  2  0
 34 33  1  0
 34 29  2  0
 35 36  1  0
 36 41  2  0
 36 37  1  0
 37 38  2  0
 38 39  1  0
 39 43  1  0
 40 39  2  0
 41 40  1  0
 42 41  1  0
 44 45  1  0
 45 48  1  0
 45 47  1  0
 46 44  2  0
 49 50  1  0
 49 24  1  0
 51 49  1  0
 53 55  1  0
 53 52  1  0
 54 65  2  0
 55 60  1  0
 56 64  1  0
 56 66  1  0
 57 63  1  0
 57 59  1  0
 58 64  1  0
 59 58  1  0
 60 59  2  0
 61 62  1  0
 61 55  2  0
 62 57  2  0
 63 56  1  0
 64 54  1  0
 66 68  2  0
 67 66  1  0
 69 67  1  0
 70 79  2  0
 70 75  1  0
 71 67  1  0
 71 75  1  0
 72 71  1  0
 73 74  1  0
 73 72  1  0
 74 70  1  0
 75 76  2  0
 76 77  1  0
 78 77  2  0
 79 78  1  0
 80 54  1  0
 80 85  1  0
 80 81  1  0
 81 84  1  1
 81 82  1  0
 83 81  1  0
 85 88  1  0
 86 90  1  0
 86 85  1  0
 87 86  2  0
 90 89  1  0
 92 90  1  0
 92 93  1  0
 92 91  1  0
M  ISO  4  14 100  23 100  52 101  53 101
M  END
>  <TORSDO>  (29) 
F 19

>  <SCORE>  (29) 
-11.870

>  <name>  (29) 
28

>  <ligand_id>  (29) 
28

>  <original_smiles>  (29) 
[H]c1c([H])c([H])c2c(c1[H])C([H])([H])C([H])([H])C([H])([H])C2([H])N([H])C(=O)C1([H])N(C(=O)C([H])(N([H])C(=O)C([H])(N([H])C([H])([H])[H])C([H])([H])[H])C(C([H])([H])[H])(C([H])([H])[H])C([H])([H])[H])C([H])([H])c2c([H])c(OC([H])([H])C3([H])C(=O)N(C([H])([H])c4c([H])c([H])c(N(C(=O)N5C([H])([H])C([H])([H])C([H])([H])C([H])(n6nc(-c7c([H])c([H])c(Oc8c([H])c([H])c(F)c([H])c8F)c([H])c7[H])c(C(=O)N([H])[H])c6N([H])[H])C5([H])[H])C([H])([H])[H])c(F)c4[H])C3([H])[H])c([H])c([H])c2C1([H])[H]

>  <smiles>  (29) 
[H]c1c([H])c([H])c2c(c1[H])C([H])([H])C([H])([H])C([H])([H])C2([H])N([H])C(=O)C1([H])N(C(=O)C([H])(N([H])C(=O)C([H])(N([H])C([H])([H])[H])C([H])([H])[H])C(C([H])([H])[H])(C([H])([H])[H])C([H])([H])[H])C([H])([H])c2c([H])c(OC([H])([H])C3([H])C(=O)N(C([H])([H])c4c([H])c([H])c(N(C(=O)N5C([H])([H])C([H])([H])C([H])([H])C([H])(n6nc(-c7c([H])c([H])c(Oc8c([H])c([H])c(F)c([H])c8F)c([H])c7[H])c(C(=O)N([H])[H])c6N([H])[H])C5([H])[H])C([H])([H])[H])c(F)c4[H])C3([H])[H])c([H])c([H])c2C1([H])[H]

$$$$
29:0:0
     RDKit          3D

 94 94  0  0  1  0  0  0  0  0999 V2000
  -23.8210  -25.8660   20.0870 C   0  0  0  0  0 15  0  0  0  0  0  0
  -25.2320  -23.2440   18.6580 C   0  0  0  0  0  3  0  0  0  0  0  0
  -26.0750  -21.9160   18.5060 C   0  0  0  0  0  3  0  0  0  0  0  0
  -25.3320  -23.0290   20.7730 C   0  0  0  0  0  3  0  0  0  0  0  0
  -24.6930  -24.0650   19.8290 C   0  0  0  0  0  3  0  0  0  0  0  0
  -26.7290  -20.8870   19.4400 C   0  0  0  0  0  3  0  0  0  0  0  0
  -26.1870  -21.6950   20.6330 C   0  0  0  0  0  0  0  0  0  0  0  0
  -26.5380  -21.1710   21.8340 F   0  0  0  0  0  0  0  0  0  0  0  0
  -27.9760  -19.3410   19.0420 C   0  0  0  0  0  1  0  0  0  0  0  0
  -29.8240  -16.4130   19.1150 C   0  0  0  0  0  0  0  0  0  0  0  0
  -30.5600  -13.8240   18.4860 C   0  0  0  0  0  2  0  0  0  0  0  0
  -29.6500  -13.1090   17.4380 C   0  0  0  0  0  2  0  0  0  0  0  0
  -28.3270  -12.6530   18.0830 C   0  0  0  0  0  2  0  0  0  0  0  0
  -27.8470  -13.7040   19.1040 C   0  0  0  0  0  3  0  0  0  0  0  0
  -28.9130  -14.1570   20.0960 C   0  0  0  0  0  2  0  0  0  0  0  0
  -29.7840  -14.9380   19.2460 N   0  0  0  0  0  0  0  0  0  0  0  0
  -31.0200  -16.5740   18.7220 O   0  0  0  0  0  0  0  0  0  0  0  0
  -28.6280  -17.5520   19.2800 N   0  0  0  0  0  0  0  0  0  0  0  0
  -27.8460  -17.0360   19.6650 H   0  0  0  0  0  0  0  0  0  0  0  0
  -25.8140  -14.2610   20.4420 C   0  0  0  0  0  0  0  0  0  0  0  0
  -24.7890  -13.5000   20.9170 C   0  0  0  0  0  0  0  0  0  0  0  0
  -25.1030  -12.1500   20.5660 C   0  0  0  0  0  0  0  0  0  0  0  0
  -26.6540  -13.3710   19.8120 N   0  0  0  0  0  0  0  0  0  0  0  0
  -26.2780  -12.0830   19.9590 N   0  0  0  0  0  0  0  0  0  0  0  0
  -24.3150  -10.9260   20.6990 C   0  0  0  0  0  0  0  0  0  0  0  0
  -24.7000   -9.8920   21.5790 C   0  0  0  0  0  3  0  0  0  0  0  0
  -23.9070   -8.7320   21.7010 C   0  0  0  0  0  3  0  0  0  0  0  0
  -22.7180   -8.6040   20.9440 C   0  0  0  0  0  0  0  0  0  0  0  0
  -22.3570   -9.6270   20.0500 C   0  0  0  0  0  3  0  0  0  0  0  0
  -23.1500  -10.7780   19.9240 C   0  0  0  0  0  3  0  0  0  0  0  0
  -21.8960   -7.5060   20.9800 O   0  0  0  0  0  0  0  0  0  0  0  0
  -21.5540   -6.9050   22.1650 C   0  0  0  0  0  0  0  0  0  0  0  0
  -20.9500   -7.6240   23.2190 C   0  0  0  0  0  3  0  0  0  0  0  0
  -20.5520   -6.9510   24.3910 C   0  0  0  0  0  3  0  0  0  0  0  0
  -20.7490   -5.5620   24.5070 C   0  0  0  0  0  0  0  0  0  0  0  0
  -21.3470   -4.8450   23.4570 C   0  0  0  0  0  3  0  0  0  0  0  0
  -21.7460   -5.5140   22.2870 C   0  0  0  0  0  0  0  0  0  0  0  0
  -22.3020   -4.8160   21.2690 F   0  0  0  0  0  0  0  0  0  0  0  0
  -20.3600   -4.9130   25.6300 F   0  0  0  0  0  0  0  0  0  0  0  0
  -23.5370  -14.0180   21.5490 C   0  0  0  0  0  0  0  0  0  0  0  0
  -22.9580  -13.2540   22.4660 N   0  0  0  0  0  0  0  0  0  0  0  0
  -23.0940  -15.1300   21.2620 O   0  0  0  0  0  0  0  0  0  0  0  0
  -23.3400  -12.3530   22.7090 H   0  0  0  0  0  0  0  0  0  0  0  0
  -22.1220  -13.5750   22.9310 H   0  0  0  0  0  0  0  0  0  0  0  0
  -26.0810  -15.6310   20.4470 N   0  0  0  0  0  0  0  0  0  0  0  0
  -25.3240  -16.2380   20.7490 H   0  0  0  0  0  0  0  0  0  0  0  0
  -26.5840  -16.0250   19.6640 H   0  0  0  0  0  0  0  0  0  0  0  0
  -22.1970  -27.3700   18.4280 C   0  0  0  0  0  1  0  0  0  0  0  0
  -22.5590  -27.3120   19.8660 N   0  0  0  0  0  2  0  0  0  0  0  0
  -21.7710  -26.8110   20.2480 H   0  0  0  0  0  0  0  0  0  0  0  0
  -22.0530  -29.0800   20.6610 C   0  0  0  0  0 15  0  0  0  0  0  0
  -22.5120  -29.9760   22.7650 C   0  0  0  0  0 15  0  0  0  0  0  0
  -24.3150  -29.2740   23.9190 C   0  0  0  0  0 15  0  0  0  0  0  0
  -26.0480  -28.6030   23.2050 O   0  0  0  0  0  1  0  0  0  0  0  0
  -24.6640  -31.7980   23.2390 C   0  0  0  0  0  0  0  0  0  0  0  0
  -26.8420  -27.9810   22.0610 C   0  0  0  0  0  3  0  0  0  0  0  0
  -24.2790  -29.4990   21.4230 C   0  0  0  0  0  2  0  0  0  0  0  0
  -25.8480  -29.0770   20.0030 C   0  0  0  0  0  3  0  0  0  0  0  0
  -26.2890  -31.0530   21.5680 C   0  0  0  0  0  2  0  0  0  0  0  0
  -26.7330  -29.7750   20.8780 C   0  0  0  0  0  3  0  0  0  0  0  0
  -27.6410  -28.9930   21.5810 C   0  0  0  0  0  2  0  0  0  0  0  0
  -26.4920  -27.0810   20.9810 C   0  0  0  0  0  2  0  0  0  0  0  0
  -25.9250  -27.6850   19.8580 C   0  0  0  0  0  2  0  0  0  0  0  0
  -24.5200  -29.5840   19.9380 C   0  0  0  0  0  2  0  0  0  0  0  0
  -24.9490  -30.8920   22.1240 N   0  0  0  0  0  0  0  0  0  0  0  0
  -23.5150  -32.0510   23.6440 O   0  0  0  0  0  0  0  0  0  0  0  0
  -23.7690  -27.7000   22.2360 C   0  0  0  0  0  2  0  0  0  0  0  0
  -22.4960  -27.3290   22.9850 N   0  0  0  0  0  0  0  0  0  0  0  0
  -24.4260  -26.9260   22.8370 O   0  0  0  0  0  1  0  0  0  0  0  0
  -22.8080  -26.5800   23.5880 H   0  0  0  0  0  0  0  0  0  0  0  0
  -18.3270  -28.0840   22.5860 C   0  0  0  0  0  0  0  0  0  0  0  0
  -20.8850  -27.5200   23.2870 C   0  0  0  0  0  3  0  0  0  0  0  0
  -20.4600  -26.2320   22.6270 C   0  0  0  0  0  2  0  0  0  0  0  0
  -19.6090  -26.3230   21.3610 C   0  0  0  0  0  2  0  0  0  0  0  0
  -18.2610  -26.8130   21.7760 C   0  0  0  0  0  2  0  0  0  0  0  0
  -19.5600  -28.5680   23.1810 C   0  0  0  0  0  0  0  0  0  0  0  0
  -19.3300  -29.8110   23.8890 C   0  0  0  0  0  3  0  0  0  0  0  0
  -18.0570  -30.4580   23.9880 C   0  0  0  0  0  3  0  0  0  0  0  0
  -16.9010  -29.8960   23.4230 C   0  0  0  0  0  3  0  0  0  0  0  0
  -17.0560  -28.7040   22.7190 C   0  0  0  0  0  3  0  0  0  0  0  0
  -25.7440  -32.4170   24.2660 C   0  0  0  0  0  3  0  0  0  0  0  0
  -25.3360  -33.8040   24.5670 N   0  0  0  0  0  0  0  0  0  0  0  0
  -25.8390  -34.8870   23.9720 C   0  0  0  0  0  0  0  0  0  0  0  0
  -26.7050  -34.8090   23.1000 O   0  0  0  0  0  0  0  0  0  0  0  0
  -24.5670  -33.9220   25.2090 H   0  0  0  0  0  0  0  0  0  0  0  0
  -24.1890  -36.6980   23.4030 C   0  0  0  0  0  1  0  0  0  0  0  0
  -25.2880  -36.2660   24.3850 C   0  0  0  0  0  3  0  0  0  0  0  0
  -27.2700  -37.1360   25.5510 C   0  0  0  0  0  1  0  0  0  0  0  0
  -26.3260  -37.3170   24.4530 N   0  0  0  0  0  0  0  0  0  0  0  0
  -25.9010  -38.2340   24.5500 H   0  0  0  0  0  0  0  0  0  0  0  0
  -25.9990  -31.7130   25.6980 C   0  0  1  0  0  0  0  0  0  0  0  0
  -24.7190  -31.5140   26.5730 C   0  0  0  0  0  1  0  0  0  0  0  0
  -26.8210  -30.3990   25.5830 C   0  0  0  0  0  1  0  0  0  0  0  0
  -26.9210  -32.6180   26.5600 C   0  0  0  0  0  1  0  0  0  0  0  0
  2  5  1  0
  3  2  2  0
  3  6  1  0
  5  4  2  0
  6  7  2  0
  7  4  1  0
  7  8  1  0
  9 18  1  0
 10 16  1  0
 10 18  1  0
 11 16  1  0
 12 13  1  0
 12 11  1  0
 14 13  1  0
 14 23  1  0
 14 15  1  0
 16 15  1  0
 17 10  2  0
 18 19  1  0
 20 45  1  0
 20 21  2  0
 21 40  1  0
 22 25  1  0
 22 21  1  0
 23 24  1  0
 23 20  1  0
 24 22  2  0
 25 26  1  0
 26 27  2  0
 28 31  1  0
 28 27  1  0
 29 28  2  0
 30 29  1  0
 30 25  2  0
 31 32  1  0
 32 37  2  0
 32 33  1  0
 33 34  2  0
 34 35  1  0
 35 39  1  0
 36 35  2  0
 37 36  1  0
 38 37  1  0
 40 41  1  0
 41 43  1  0
 41 44  1  0
 42 40  2  0
 45 46  1  0
 47 45  1  0
 48 49  1  0
 49 50  1  0
 55 66  2  0
 56 54  1  0
 57 65  1  0
 58 63  1  0
 58 60  1  0
 59 65  1  0
 60 59  1  0
 60 61  1  0
 61 56  1  0
 62 56  1  0
 63 62  1  0
 64 58  1  0
 64 57  1  0
 65 55  1  0
 67 69  1  0
 67 68  1  0
 68 70  1  0
 71 80  2  0
 71 76  1  0
 72 68  1  0
 73 72  1  0
 74 75  1  0
 74 73  1  0
 75 71  1  0
 76 72  1  0
 76 77  2  0
 77 78  1  0
 79 78  2  0
 80 79  1  0
 81 55  1  0
 81 82  1  0
 81 91  1  0
 82 85  1  0
 83 87  1  0
 83 82  1  0
 84 83  2  0
 87 86  1  0
 87 89  1  0
 89 90  1  0
 89 88  1  0
 91 94  1  1
 91 92  1  0
 93 91  1  0
M  ISO  4  10 100  18 100  53 101  54 101
M  END
>  <TORSDO>  (30) 
F 22

>  <SCORE>  (30) 
-7.910

>  <name>  (30) 
29

>  <ligand_id>  (30) 
29

>  <original_smiles>  (30) 
[H]c1c([H])c([H])c2c(c1[H])C([H])([H])C([H])([H])C([H])([H])C2([H])N([H])C(=O)C1([H])N(C(=O)C([H])(N([H])C(=O)C([H])(N([H])C([H])([H])[H])C([H])([H])[H])C(C([H])([H])[H])(C([H])([H])[H])C([H])([H])[H])C([H])([H])c2c([H])c(OC([H])([H])C([H])([H])C([H])([H])[N+]([H])(C([H])([H])[H])C([H])([H])c3c([H])c([H])c(C([H])([H])N([H])C(=O)N4C([H])([H])C([H])([H])C([H])([H])C([H])(n5nc(-c6c([H])c([H])c(Oc7c([H])c([H])c(F)c([H])c7F)c([H])c6[H])c(C(=O)N([H])[H])c5N([H])[H])C4([H])[H])c(F)c3[H])c([H])c([H])c2C1([H])[H]

>  <smiles>  (30) 
[H]c1c([H])c([H])c2c(c1[H])C([H])([H])C([H])([H])C([H])([H])C2([H])N([H])C(=O)C1([H])N(C(=O)C([H])(N([H])C(=O)C([H])(N([H])C([H])([H])[H])C([H])([H])[H])C(C([H])([H])[H])(C([H])([H])[H])C([H])([H])[H])C([H])([H])c2c([H])c(OC([H])([H])C([H])([H])C([H])([H])[N+]([H])(C([H])([H])[H])C([H])([H])c3c([H])c([H])c(C([H])([H])N([H])C(=O)N4C([H])([H])C([H])([H])C([H])([H])C([H])(n5nc(-c6c([H])c([H])c(Oc7c([H])c([H])c(F)c([H])c7F)c([H])c6[H])c(C(=O)N([H])[H])c5N([H])[H])C4([H])[H])c(F)c3[H])c([H])c([H])c2C1([H])[H]

$$$$
30:0:0
     RDKit          3D

 93101  0  0  1  0  0  0  0  0999 V2000
  -29.6740  -22.9570   20.6380 C   0  0  0  0  0  0  0  0  0  0  0  0
  -30.5560  -22.0220   20.1600 N   0  0  0  0  0  0  0  0  0  0  0  0
  -28.7800  -22.6470   21.4350 O   0  0  0  0  0  0  0  0  0  0  0  0
  -31.1510  -19.2260   22.6220 C   0  0  0  0  0  3  0  0  0  0  0  0
  -30.7950  -18.0880   21.8740 C   0  0  0  0  0  3  0  0  0  0  0  0
  -31.0700  -20.5120   22.0510 C   0  0  0  0  0  3  0  0  0  0  0  0
  -30.2290  -19.5330   19.9920 C   0  0  0  0  0  3  0  0  0  0  0  0
  -30.3470  -18.2270   20.5440 C   0  0  0  0  0  0  0  0  0  0  0  0
  -30.6020  -20.6910   20.7290 C   0  0  0  0  0  0  0  0  0  0  0  0
  -30.0290  -17.0110   19.6620 C   0  0  0  0  0  2  0  0  0  0  0  0
  -30.6680  -14.6250   19.9920 C   0  0  0  0  0  0  0  0  0  0  0  0
  -30.3400  -12.4370   18.9200 C   0  0  0  0  0  2  0  0  0  0  0  0
  -29.3240  -12.6240   17.7730 C   0  0  0  0  0  2  0  0  0  0  0  0
  -27.8820  -12.4670   18.2930 C   0  0  0  0  0  2  0  0  0  0  0  0
  -27.6090  -13.3060   19.5700 C   0  0  0  0  0  3  0  0  0  0  0  0
  -28.7380  -13.1250   20.6150 C   0  0  0  0  0  2  0  0  0  0  0  0
  -30.0200  -13.4290   19.9590 N   0  0  0  0  0  0  0  0  0  0  0  0
  -31.7930  -14.7840   19.5130 O   0  0  0  0  0  0  0  0  0  0  0  0
  -29.9000  -15.6870   20.3070 N   0  0  0  0  0  0  0  0  0  0  0  0
  -28.9980  -15.4770   20.7060 H   0  0  0  0  0  0  0  0  0  0  0  0
  -25.2690  -13.8810   20.4710 C   0  0  0  0  0  0  0  0  0  0  0  0
  -24.2280  -13.0950   20.8830 C   0  0  0  0  0  0  0  0  0  0  0  0
  -24.6830  -11.7450   20.7660 C   0  0  0  0  0  0  0  0  0  0  0  0
  -26.2930  -13.0110   20.1320 N   0  0  0  0  0  0  0  0  0  0  0  0
  -25.9480  -11.7190   20.3660 N   0  0  0  0  0  0  0  0  0  0  0  0
  -23.9700  -10.4760   20.9540 C   0  0  0  0  0  0  0  0  0  0  0  0
  -24.4070   -9.5170   21.8940 C   0  0  0  0  0  3  0  0  0  0  0  0
  -23.6940   -8.3120   22.0710 C   0  0  0  0  0  3  0  0  0  0  0  0
  -22.5290   -8.0560   21.3080 C   0  0  0  0  0  0  0  0  0  0  0  0
  -22.1130   -9.0040   20.3550 C   0  0  0  0  0  3  0  0  0  0  0  0
  -22.8280  -10.2000   20.1780 C   0  0  0  0  0  3  0  0  0  0  0  0
  -21.7880   -6.9030   21.3930 O   0  0  0  0  0  0  0  0  0  0  0  0
  -21.6710   -6.2080   22.5700 C   0  0  0  0  0  0  0  0  0  0  0  0
  -21.1000   -6.7880   23.7240 C   0  0  0  0  0  3  0  0  0  0  0  0
  -20.9360   -6.0160   24.8910 C   0  0  0  0  0  3  0  0  0  0  0  0
  -21.3330   -4.6650   24.9050 C   0  0  0  0  0  0  0  0  0  0  0  0
  -21.8960   -4.0850   23.7550 C   0  0  0  0  0  3  0  0  0  0  0  0
  -22.0620   -4.8540   22.5900 C   0  0  0  0  0  0  0  0  0  0  0  0
  -22.5860   -4.2850   21.4770 F   0  0  0  0  0  0  0  0  0  0  0  0
  -21.1680   -3.9210   26.0230 F   0  0  0  0  0  0  0  0  0  0  0  0
  -22.8540  -13.5580   21.2710 C   0  0  0  0  0  0  0  0  0  0  0  0
  -22.1870  -12.8240   22.1550 N   0  0  0  0  0  0  0  0  0  0  0  0
  -22.3830  -14.6040   20.8260 O   0  0  0  0  0  0  0  0  0  0  0  0
  -22.5820  -11.9760   22.5340 H   0  0  0  0  0  0  0  0  0  0  0  0
  -21.2690  -13.1140   22.4560 H   0  0  0  0  0  0  0  0  0  0  0  0
  -25.4250  -15.2580   20.3380 N   0  0  0  0  0  0  0  0  0  0  0  0
  -24.6750  -15.9120   20.5360 H   0  0  0  0  0  0  0  0  0  0  0  0
  -26.2480  -15.7110   19.9620 H   0  0  0  0  0  0  0  0  0  0  0  0
  -32.6500  -21.4210   18.7750 C   0  0  0  0  0  1  0  0  0  0  0  0
  -31.4700  -22.3780   19.0480 C   0  0  0  0  0  2  0  0  0  0  0  0
  -29.7690  -24.4550   20.2110 C   0  0  0  0  0  2  0  0  0  0  0  0
  -28.4550  -25.2640   20.3890 C   0  0  0  0  0  2  0  0  0  0  0  0
  -28.6020  -26.6980   20.2690 O   0  0  0  0  0  0  0  0  0  0  0  0
  -24.6720  -31.8930   23.2150 C   0  0  0  0  0  0  0  0  0  0  0  0
  -27.4240  -27.4290   20.2340 C   0  0  0  0  0  0  0  0  0  0  0  0
  -23.5070  -30.4370   21.5930 C   0  0  0  0  0  3  0  0  0  0  0  0
  -25.0000  -28.9090   20.2050 C   0  0  0  0  0  0  0  0  0  0  0  0
  -26.0300  -30.8400   21.4030 C   0  0  0  0  0  2  0  0  0  0  0  0
  -26.1470  -29.4580   20.7890 C   0  0  0  0  0  0  0  0  0  0  0  0
  -27.3620  -28.7290   20.7970 C   0  0  0  0  0  3  0  0  0  0  0  0
  -26.2490  -26.9040   19.6420 C   0  0  0  0  0  3  0  0  0  0  0  0
  -25.0470  -27.6300   19.6280 C   0  0  0  0  0  3  0  0  0  0  0  0
  -23.7400  -29.7440   20.2250 C   0  0  0  0  0  2  0  0  0  0  0  0
  -24.7550  -31.0740   22.1280 N   0  0  0  0  0  0  0  0  0  0  0  0
  -23.5820  -32.1510   23.7440 O   0  0  0  0  0  0  0  0  0  0  0  0
  -22.8700  -29.4180   22.5660 C   0  0  0  0  0  0  0  0  0  0  0  0
  -21.5500  -29.2070   22.4350 N   0  0  0  0  0  0  0  0  0  0  0  0
  -23.5630  -28.8200   23.3950 O   0  0  0  0  0  0  0  0  0  0  0  0
  -21.0530  -29.7470   21.7390 H   0  0  0  0  0  0  0  0  0  0  0  0
  -18.2040  -27.9250   22.9070 C   0  0  0  0  0  0  0  0  0  0  0  0
  -20.7480  -28.2670   23.2170 C   0  0  0  0  0  3  0  0  0  0  0  0
  -20.9020  -26.8240   22.6840 C   0  0  0  0  0  2  0  0  0  0  0  0
  -19.8300  -26.4390   21.6600 C   0  0  0  0  0  2  0  0  0  0  0  0
  -18.4320  -26.5630   22.2740 C   0  0  0  0  0  2  0  0  0  0  0  0
  -19.2920  -28.7310   23.3360 C   0  0  0  0  0  0  0  0  0  0  0  0
  -19.0270  -30.0040   23.8850 C   0  0  0  0  0  3  0  0  0  0  0  0
  -17.7060  -30.4720   24.0140 C   0  0  0  0  0  3  0  0  0  0  0  0
  -16.6310  -29.6640   23.6010 C   0  0  0  0  0  3  0  0  0  0  0  0
  -16.8810  -28.3930   23.0560 C   0  0  0  0  0  3  0  0  0  0  0  0
  -25.9400  -32.5630   23.8300 C   0  0  0  0  0  3  0  0  0  0  0  0
  -25.5910  -33.9540   24.1530 N   0  0  0  0  0  0  0  0  0  0  0  0
  -25.9410  -35.0170   23.4180 C   0  0  0  0  0  0  0  0  0  0  0  0
  -26.6630  -34.9320   22.4210 O   0  0  0  0  0  0  0  0  0  0  0  0
  -24.9540  -34.0900   24.9250 H   0  0  0  0  0  0  0  0  0  0  0  0
  -24.2230  -36.7960   22.9590 C   0  0  0  0  0  1  0  0  0  0  0  0
  -25.4040  -36.3920   23.8560 C   0  0  0  0  0  3  0  0  0  0  0  0
  -27.4610  -37.2860   24.8560 C   0  0  0  0  0  1  0  0  0  0  0  0
  -26.4310  -37.4580   23.8360 N   0  0  0  0  0  0  0  0  0  0  0  0
  -26.0040  -38.3720   23.9670 H   0  0  0  0  0  0  0  0  0  0  0  0
  -26.4800  -31.8140   25.1090 C   0  0  1  0  0  0  0  0  0  0  0  0
  -25.3960  -31.5410   26.1770 C   0  0  0  0  0  1  0  0  0  0  0  0
  -27.1110  -30.4570   24.7180 C   0  0  0  0  0  1  0  0  0  0  0  0
  -27.6010  -32.6480   25.7710 C   0  0  0  0  0  1  0  0  0  0  0  0
  1  3  2  0
  2  1  1  0
  2  9  1  0
  5  4  2  0
  6  4  1  0
  7  8  2  0
  7  9  1  0
  8  5  1  0
  9  6  2  0
 10 19  1  0
 10  8  1  0
 11 19  1  0
 12 17  1  0
 13 14  1  0
 13 12  1  0
 15 14  1  0
 15 24  1  0
 15 16  1  0
 17 11  1  0
 17 16  1  0
 18 11  2  0
 19 20  1  0
 21 22  2  0
 22 41  1  0
 23 22  1  0
 23 26  1  0
 24 25  1  0
 24 21  1  0
 25 23  2  0
 26 27  1  0
 27 28  2  0
 29 32  1  0
 29 28  1  0
 30 29  2  0
 31 30  1  0
 31 26  2  0
 32 33  1  0
 33 38  2  0
 33 34  1  0
 34 35  2  0
 35 36  1  0
 36 40  1  0
 37 36  2  0
 38 37  1  0
 39 38  1  0
 41 42  1  0
 42 45  1  0
 42 44  1  0
 43 41  2  0
 46 21  1  0
 46 47  1  0
 48 46  1  0
 49 50  1  0
 50  2  1  0
 51 52  1  0
 51  1  1  0
 53 52  1  0
 54 65  2  0
 55 53  1  0
 55 60  1  0
 56 64  1  0
 56 66  1  0
 57 63  1  0
 57 59  1  0
 58 64  1  0
 59 60  2  0
 59 58  1  0
 61 55  2  0
 62 61  1  0
 62 57  2  0
 63 56  1  0
 64 54  1  0
 66 68  2  0
 67 66  1  0
 69 67  1  0
 70 79  2  0
 70 75  1  0
 71 67  1  0
 71 75  1  0
 72 71  1  0
 73 74  1  0
 73 72  1  0
 74 70  1  0
 75 76  2  0
 76 77  1  0
 78 77  2  0
 79 78  1  0
 80 54  1  0
 80 81  1  0
 80 90  1  0
 81 84  1  0
 82 86  1  0
 82 81  1  0
 83 82  2  0
 86 85  1  0
 88 86  1  0
 88 89  1  0
 88 87  1  0
 90 93  1  1
 90 91  1  0
 92 90  1  0
M  ISO  4  11 100  19 100  52 101  53 101
M  END
>  <TORSDO>  (31) 
F 21

>  <SCORE>  (31) 
-13.451

>  <name>  (31) 
30

>  <ligand_id>  (31) 
30

>  <original_smiles>  (31) 
[H]c1c([H])c(N(C(=O)C([H])([H])C([H])([H])Oc2c([H])c([H])c3c(c2[H])C([H])([H])N(C(=O)C([H])(N([H])C(=O)C([H])(N([H])C([H])([H])[H])C([H])([H])[H])C(C([H])([H])[H])(C([H])([H])[H])C([H])([H])[H])C([H])(C(=O)N([H])C2([H])c4c([H])c([H])c([H])c([H])c4C([H])([H])C([H])([H])C2([H])[H])C3([H])[H])C([H])([H])C([H])([H])[H])c([H])c(C([H])([H])N([H])C(=O)N2C([H])([H])C([H])([H])C([H])([H])C([H])(n3nc(-c4c([H])c([H])c(Oc5c([H])c([H])c(F)c([H])c5F)c([H])c4[H])c(C(=O)N([H])[H])c3N([H])[H])C2([H])[H])c1[H]

>  <smiles>  (31) 
[H]c1c([H])c(N(C(=O)C([H])([H])C([H])([H])Oc2c([H])c([H])c3c(c2[H])C([H])([H])N(C(=O)C([H])(N([H])C(=O)C([H])(N([H])C([H])([H])[H])C([H])([H])[H])C(C([H])([H])[H])(C([H])([H])[H])C([H])([H])[H])C([H])(C(=O)N([H])C2([H])c4c([H])c([H])c([H])c([H])c4C([H])([H])C([H])([H])C2([H])[H])C3([H])[H])C([H])([H])C([H])([H])[H])c([H])c(C([H])([H])N([H])C(=O)N2C([H])([H])C([H])([H])C([H])([H])C([H])(n3nc(-c4c([H])c([H])c(Oc5c([H])c([H])c(F)c([H])c5F)c([H])c4[H])c(C(=O)N([H])[H])c3N([H])[H])C2([H])[H])c1[H]

$$$$
31:0:0
     RDKit          3D

 92100  0  0  1  0  0  0  0  0999 V2000
  -29.6280  -18.6990   21.6060 C   0  0  0  0  0  3  0  0  0  0  0  0
  -29.5190  -20.0890   21.3480 C   0  0  0  0  0  3  0  0  0  0  0  0
  -31.5690  -19.9980   20.0760 C   0  0  0  0  0  3  0  0  0  0  0  0
  -30.7340  -17.9480   21.1400 C   0  0  0  0  0  0  0  0  0  0  0  0
  -30.5170  -20.7820   20.6180 C   0  0  0  0  0  0  0  0  0  0  0  0
  -31.6910  -18.6160   20.3370 C   0  0  0  0  0  0  0  0  0  0  0  0
  -33.0750  -17.7980   19.7030 Cl  0  0  0  0  0  0  0  0  0  0  0  0
  -31.8050  -22.8450   20.2280 C   0  0  0  0  0  1  0  0  0  0  0  0
  -30.5120  -22.2020   20.4890 N   0  0  0  0  0  0  0  0  0  0  0  0
  -29.2660  -22.9330   20.1750 C   0  0  0  0  0  2  0  0  0  0  0  0
  -29.3820  -24.4880   20.2930 C   0  0  0  0  0  2  0  0  0  0  0  0
  -28.0890  -25.2650   19.9600 C   0  0  0  0  0  2  0  0  0  0  0  0
  -28.2570  -26.6970   20.0590 O   0  0  0  0  0  0  0  0  0  0  0  0
  -24.5750  -31.9050   23.2530 C   0  0  0  0  0  0  0  0  0  0  0  0
  -27.1020  -27.4600   20.0590 C   0  0  0  0  0  0  0  0  0  0  0  0
  -23.3210  -30.5320   21.6240 C   0  0  0  0  0  3  0  0  0  0  0  0
  -24.7260  -29.0060   20.1440 C   0  0  0  0  0  0  0  0  0  0  0  0
  -25.8480  -30.8690   21.3730 C   0  0  0  0  0  2  0  0  0  0  0  0
  -25.9060  -29.5070   20.7090 C   0  0  0  0  0  0  0  0  0  0  0  0
  -27.0980  -28.7440   20.6590 C   0  0  0  0  0  3  0  0  0  0  0  0
  -25.8990  -26.9850   19.4850 C   0  0  0  0  0  3  0  0  0  0  0  0
  -24.7180  -27.7460   19.5290 C   0  0  0  0  0  3  0  0  0  0  0  0
  -23.4920  -29.8740   20.2300 C   0  0  0  0  0  2  0  0  0  0  0  0
  -24.6010  -31.1160   22.1400 N   0  0  0  0  0  0  0  0  0  0  0  0
  -23.5080  -32.1770   23.8210 O   0  0  0  0  0  0  0  0  0  0  0  0
  -22.6870  -29.5020   22.5860 C   0  0  0  0  0  0  0  0  0  0  0  0
  -21.3640  -29.3030   22.4620 N   0  0  0  0  0  0  0  0  0  0  0  0
  -23.3810  -28.8840   23.3980 O   0  0  0  0  0  0  0  0  0  0  0  0
  -20.8650  -29.8540   21.7780 H   0  0  0  0  0  0  0  0  0  0  0  0
  -18.0100  -28.0460   22.9480 C   0  0  0  0  0  0  0  0  0  0  0  0
  -20.5600  -28.3550   23.2350 C   0  0  0  0  0  3  0  0  0  0  0  0
  -20.6940  -26.9220   22.6710 C   0  0  0  0  0  2  0  0  0  0  0  0
  -19.6050  -26.5700   21.6520 C   0  0  0  0  0  2  0  0  0  0  0  0
  -18.2170  -26.6940   22.2860 C   0  0  0  0  0  2  0  0  0  0  0  0
  -19.1110  -28.8320   23.3790 C   0  0  0  0  0  0  0  0  0  0  0  0
  -18.8650  -30.0970   23.9570 C   0  0  0  0  0  3  0  0  0  0  0  0
  -17.5500  -30.5750   24.1110 C   0  0  0  0  0  3  0  0  0  0  0  0
  -16.4630  -29.7860   23.6960 C   0  0  0  0  0  3  0  0  0  0  0  0
  -16.6940  -28.5240   23.1200 C   0  0  0  0  0  3  0  0  0  0  0  0
  -25.8800  -32.5190   23.8500 C   0  0  0  0  0  3  0  0  0  0  0  0
  -25.5920  -33.9190   24.1890 N   0  0  0  0  0  0  0  0  0  0  0  0
  -25.9170  -34.9700   23.4240 C   0  0  0  0  0  0  0  0  0  0  0  0
  -26.5640  -34.8620   22.3780 O   0  0  0  0  0  0  0  0  0  0  0  0
  -25.0160  -34.0780   25.0030 H   0  0  0  0  0  0  0  0  0  0  0  0
  -24.2040  -36.7820   23.1040 C   0  0  0  0  0  1  0  0  0  0  0  0
  -25.4520  -36.3610   23.8940 C   0  0  0  0  0  3  0  0  0  0  0  0
  -27.6070  -37.2230   24.6970 C   0  0  0  0  0  1  0  0  0  0  0  0
  -26.4960  -37.4030   23.7660 N   0  0  0  0  0  0  0  0  0  0  0  0
  -26.1010  -38.3280   23.9190 H   0  0  0  0  0  0  0  0  0  0  0  0
  -26.4150  -31.7360   25.1110 C   0  0  1  0  0  0  0  0  0  0  0  0
  -25.3410  -31.4990   26.1980 C   0  0  0  0  0  1  0  0  0  0  0  0
  -26.9830  -30.3580   24.6990 C   0  0  0  0  0  1  0  0  0  0  0  0
  -27.5830  -32.5200   25.7560 C   0  0  0  0  0  1  0  0  0  0  0  0
  -30.9620  -16.5050   21.6310 C   0  0  0  0  0  2  0  0  0  0  0  0
  -30.7570  -14.4900   20.1560 C   0  0  0  0  0  0  0  0  0  0  0  0
  -30.3730  -12.3680   18.9430 C   0  0  0  0  0  2  0  0  0  0  0  0
  -29.3670  -12.5460   17.7890 C   0  0  0  0  0  2  0  0  0  0  0  0
  -27.9240  -12.3840   18.2980 C   0  0  0  0  0  2  0  0  0  0  0  0
  -27.6400  -13.2440   19.5570 C   0  0  0  0  0  3  0  0  0  0  0  0
  -28.7420  -13.0370   20.6200 C   0  0  0  0  0  2  0  0  0  0  0  0
  -30.0380  -13.3460   19.9920 N   0  0  0  0  0  0  0  0  0  0  0  0
  -31.8280  -14.6890   19.5770 O   0  0  0  0  0  0  0  0  0  0  0  0
  -30.2250  -15.4110   20.9800 N   0  0  0  0  0  0  0  0  0  0  0  0
  -29.3130  -15.1970   21.3530 H   0  0  0  0  0  0  0  0  0  0  0  0
  -25.2770  -13.8550   20.3710 C   0  0  0  0  0  0  0  0  0  0  0  0
  -24.2270  -13.0830   20.7890 C   0  0  0  0  0  0  0  0  0  0  0  0
  -24.6870  -11.7320   20.7450 C   0  0  0  0  0  0  0  0  0  0  0  0
  -26.3110  -12.9730   20.0980 N   0  0  0  0  0  0  0  0  0  0  0  0
  -25.9630  -11.6920   20.3820 N   0  0  0  0  0  0  0  0  0  0  0  0
  -23.9720  -10.4690   20.9700 C   0  0  0  0  0  0  0  0  0  0  0  0
  -24.4320   -9.5140   21.9040 C   0  0  0  0  0  3  0  0  0  0  0  0
  -23.7170   -8.3160   22.1120 C   0  0  0  0  0  3  0  0  0  0  0  0
  -22.5280   -8.0630   21.3890 C   0  0  0  0  0  0  0  0  0  0  0  0
  -22.0870   -9.0070   20.4440 C   0  0  0  0  0  3  0  0  0  0  0  0
  -22.8040  -10.1960   20.2320 C   0  0  0  0  0  3  0  0  0  0  0  0
  -21.7810   -6.9170   21.5080 O   0  0  0  0  0  0  0  0  0  0  0  0
  -21.7450   -6.2000   22.6790 C   0  0  0  0  0  0  0  0  0  0  0  0
  -21.2980   -6.7730   23.8890 C   0  0  0  0  0  3  0  0  0  0  0  0
  -21.2120   -5.9820   25.0530 C   0  0  0  0  0  3  0  0  0  0  0  0
  -21.5620   -4.6190   25.0050 C   0  0  0  0  0  0  0  0  0  0  0  0
  -22.0040   -4.0470   23.8010 C   0  0  0  0  0  3  0  0  0  0  0  0
  -22.0920   -4.8350   22.6400 C   0  0  0  0  0  0  0  0  0  0  0  0
  -22.4970   -4.2720   21.4750 F   0  0  0  0  0  0  0  0  0  0  0  0
  -21.4730   -3.8570   26.1210 F   0  0  0  0  0  0  0  0  0  0  0  0
  -22.8420  -13.5610   21.1200 C   0  0  0  0  0  0  0  0  0  0  0  0
  -22.1490  -12.8620   22.0130 N   0  0  0  0  0  0  0  0  0  0  0  0
  -22.3830  -14.5870   20.6200 O   0  0  0  0  0  0  0  0  0  0  0  0
  -22.5330  -12.0300   22.4380 H   0  0  0  0  0  0  0  0  0  0  0  0
  -21.2230  -13.1650   22.2790 H   0  0  0  0  0  0  0  0  0  0  0  0
  -25.4370  -15.2250   20.1820 N   0  0  0  0  0  0  0  0  0  0  0  0
  -24.6810  -15.8860   20.3210 H   0  0  0  0  0  0  0  0  0  0  0  0
  -26.2800  -15.6560   19.8210 H   0  0  0  0  0  0  0  0  0  0  0  0
  2  1  1  0
  3  6  2  0
  3  5  1  0
  4  1  2  0
  4 54  1  0
  5  2  2  0
  6  4  1  0
  7  6  1  0
  8  9  1  0
  9  5  1  0
 10 11  1  0
 10  9  1  0
 12 13  1  0
 12 11  1  0
 13 15  1  0
 14 25  2  0
 15 20  1  0
 16 24  1  0
 16 26  1  0
 17 23  1  0
 17 19  1  0
 18 24  1  0
 19 18  1  0
 20 19  2  0
 21 22  1  0
 21 15  2  0
 22 17  2  0
 23 16  1  0
 24 14  1  0
 26 28  2  0
 27 26  1  0
 29 27  1  0
 30 39  2  0
 30 35  1  0
 31 27  1  0
 31 35  1  0
 32 31  1  0
 33 34  1  0
 33 32  1  0
 34 30  1  0
 35 36  2  0
 36 37  1  0
 38 37  2  0
 39 38  1  0
 40 14  1  0
 40 41  1  0
 40 50  1  0
 41 44  1  0
 42 46  1  0
 42 41  1  0
 43 42  2  0
 46 45  1  0
 48 46  1  0
 48 49  1  0
 48 47  1  0
 50 53  1  1
 50 51  1  0
 52 50  1  0
 55 63  1  0
 56 61  1  0
 57 58  1  0
 57 56  1  0
 59 58  1  0
 59 68  1  0
 59 60  1  0
 61 55  1  0
 61 60  1  0
 62 55  2  0
 63 64  1  0
 63 54  1  0
 65 66  2  0
 66 85  1  0
 67 66  1  0
 67 70  1  0
 68 65  1  0
 68 69  1  0
 69 67  2  0
 70 71  1  0
 71 72  2  0
 73 76  1  0
 73 72  1  0
 74 73  2  0
 75 74  1  0
 75 70  2  0
 76 77  1  0
 77 78  1  0
 78 79  2  0
 80 79  1  0
 80 84  1  0
 81 80  2  0
 82 77  2  0
 82 81  1  0
 83 82  1  0
 85 86  1  0
 86 89  1  0
 86 88  1  0
 87 85  2  0
 90 91  1  0
 90 65  1  0
 92 90  1  0
M  ISO  4  12 101  13 101  55 100  63 100
M  END
>  <TORSDO>  (32) 
F 21

>  <SCORE>  (32) 
-12.911

>  <name>  (32) 
31

>  <ligand_id>  (32) 
31

>  <original_smiles>  (32) 
[H]c1c([H])c([H])c2c(c1[H])C([H])([H])C([H])([H])C([H])([H])C2([H])N([H])C(=O)C1([H])N(C(=O)C([H])(N([H])C(=O)C([H])(N([H])C([H])([H])[H])C([H])([H])[H])C(C([H])([H])[H])(C([H])([H])[H])C([H])([H])[H])C([H])([H])c2c([H])c(OC([H])([H])C([H])([H])C([H])([H])N(c3c([H])c([H])c(C([H])([H])N([H])C(=O)N4C([H])([H])C([H])([H])C([H])([H])C([H])(n5nc(-c6c([H])c([H])c(Oc7c([H])c([H])c(F)c([H])c7F)c([H])c6[H])c(C(=O)N([H])[H])c5N([H])[H])C4([H])[H])c(Cl)c3[H])C([H])([H])[H])c([H])c([H])c2C1([H])[H]

>  <smiles>  (32) 
[H]c1c([H])c([H])c2c(c1[H])C([H])([H])C([H])([H])C([H])([H])C2([H])N([H])C(=O)C1([H])N(C(=O)C([H])(N([H])C(=O)C([H])(N([H])C([H])([H])[H])C([H])([H])[H])C(C([H])([H])[H])(C([H])([H])[H])C([H])([H])[H])C([H])([H])c2c([H])c(OC([H])([H])C([H])([H])C([H])([H])N(c3c([H])c([H])c(C([H])([H])N([H])C(=O)N4C([H])([H])C([H])([H])C([H])([H])C([H])(n5nc(-c6c([H])c([H])c(Oc7c([H])c([H])c(F)c([H])c7F)c([H])c6[H])c(C(=O)N([H])[H])c5N([H])[H])C4([H])[H])c(Cl)c3[H])C([H])([H])[H])c([H])c([H])c2C1([H])[H]

$$$$
32:0:0
     RDKit          3D

 91 99  0  0  1  0  0  0  0  0999 V2000
  -29.7990  -22.5450   21.9020 C   0  0  0  0  0  1  0  0  0  0  0  0
  -29.2640  -22.8360   20.5490 N   0  0  1  0  0  4  0  0  0  0  0  0
  -30.0760  -23.0550   19.9900 H   0  0  0  0  0  0  0  0  0  0  0  0
  -28.6660  -21.5920   19.9070 C   0  0  0  0  0  2  0  0  0  0  0  0
  -30.5190  -19.7030   19.6980 C   0  0  0  0  0  3  0  0  0  0  0  0
  -28.4380  -19.1190   20.7390 C   0  0  0  0  0  3  0  0  0  0  0  0
  -30.8980  -18.3250   19.7130 C   0  0  0  0  0  3  0  0  0  0  0  0
  -28.8050  -17.7390   20.7330 C   0  0  0  0  0  3  0  0  0  0  0  0
  -29.2500  -20.1390   20.1660 C   0  0  0  0  0  0  0  0  0  0  0  0
  -30.0230  -17.2910   20.1640 C   0  0  0  0  0  0  0  0  0  0  0  0
  -30.8980  -14.8580   20.2820 C   0  0  0  0  0  0  0  0  0  0  0  0
  -30.7230  -12.5190   19.4500 C   0  0  0  0  0  2  0  0  0  0  0  0
  -29.8160  -12.4730   18.1990 C   0  0  0  0  0  2  0  0  0  0  0  0
  -28.3280  -12.3980   18.5960 C   0  0  0  0  0  2  0  0  0  0  0  0
  -27.9240  -13.3550   19.7520 C   0  0  0  0  0  3  0  0  0  0  0  0
  -28.9580  -13.3470   20.8970 C   0  0  0  0  0  2  0  0  0  0  0  0
  -30.2630  -13.6410   20.2940 N   0  0  0  0  0  0  0  0  0  0  0  0
  -32.1300  -14.9100   20.2090 O   0  0  0  0  0  0  0  0  0  0  0  0
  -30.1410  -15.8340   18.2330 C   0  0  0  0  0  1  0  0  0  0  0  0
  -30.1760  -15.8990   19.7110 N   0  0  0  0  0  0  0  0  0  0  0  0
  -25.5280  -13.9830   20.4330 C   0  0  0  0  0  0  0  0  0  0  0  0
  -24.4480  -13.2230   20.7930 C   0  0  0  0  0  0  0  0  0  0  0  0
  -24.8990  -11.8680   20.7870 C   0  0  0  0  0  0  0  0  0  0  0  0
  -26.5690  -13.0900   20.2270 N   0  0  0  0  0  0  0  0  0  0  0  0
  -26.1950  -11.8150   20.5060 N   0  0  0  0  0  0  0  0  0  0  0  0
  -24.1600  -10.6130   20.9710 C   0  0  0  0  0  0  0  0  0  0  0  0
  -24.5500   -9.6630   21.9400 C   0  0  0  0  0  3  0  0  0  0  0  0
  -23.8140   -8.4700   22.1110 C   0  0  0  0  0  3  0  0  0  0  0  0
  -22.6730   -8.2220   21.3130 C   0  0  0  0  0  0  0  0  0  0  0  0
  -22.3030   -9.1580   20.3340 C   0  0  0  0  0  3  0  0  0  0  0  0
  -23.0390  -10.3430   20.1600 C   0  0  0  0  0  3  0  0  0  0  0  0
  -21.9070   -7.0820   21.3930 O   0  0  0  0  0  0  0  0  0  0  0  0
  -21.7730   -6.3890   22.5680 C   0  0  0  0  0  0  0  0  0  0  0  0
  -21.2350   -6.9850   23.7310 C   0  0  0  0  0  3  0  0  0  0  0  0
  -21.0530   -6.2130   24.8960 C   0  0  0  0  0  3  0  0  0  0  0  0
  -21.3980   -4.8480   24.8980 C   0  0  0  0  0  0  0  0  0  0  0  0
  -21.9240   -4.2520   23.7400 C   0  0  0  0  0  3  0  0  0  0  0  0
  -22.1100   -5.0210   22.5770 C   0  0  0  0  0  0  0  0  0  0  0  0
  -22.6000   -4.4390   21.4580 F   0  0  0  0  0  0  0  0  0  0  0  0
  -21.2150   -4.1050   26.0150 F   0  0  0  0  0  0  0  0  0  0  0  0
  -23.0500  -13.7130   21.0250 C   0  0  0  0  0  0  0  0  0  0  0  0
  -22.2980  -13.0440   21.8930 N   0  0  0  0  0  0  0  0  0  0  0  0
  -22.6280  -14.7250   20.4650 O   0  0  0  0  0  0  0  0  0  0  0  0
  -22.6440  -12.2250   22.3690 H   0  0  0  0  0  0  0  0  0  0  0  0
  -21.3540  -13.3520   22.0810 H   0  0  0  0  0  0  0  0  0  0  0  0
  -25.7060  -15.3500   20.2380 N   0  0  0  0  0  0  0  0  0  0  0  0
  -24.9330  -16.0000   20.3190 H   0  0  0  0  0  0  0  0  0  0  0  0
  -26.5450  -15.7730   19.8610 H   0  0  0  0  0  0  0  0  0  0  0  0
  -28.3800  -24.0940   20.5550 C   0  0  0  0  0  2  0  0  0  0  0  0
  -28.8280  -25.3430   19.6800 C   0  0  0  0  0  2  0  0  0  0  0  0
  -28.6380  -26.7020   20.2220 O   0  0  0  0  0  0  0  0  0  0  0  0
  -24.5860  -31.8160   23.1980 C   0  0  0  0  0  0  0  0  0  0  0  0
  -27.4460  -27.4300   20.1390 C   0  0  0  0  0  0  0  0  0  0  0  0
  -23.4730  -30.4090   21.4970 C   0  0  0  0  0  3  0  0  0  0  0  0
  -25.0150  -28.9330   20.0840 C   0  0  0  0  0  0  0  0  0  0  0  0
  -25.9990  -30.8240   21.3890 C   0  0  0  0  0  2  0  0  0  0  0  0
  -26.1440  -29.4640   20.7210 C   0  0  0  0  0  0  0  0  0  0  0  0
  -27.3570  -28.7230   20.7360 C   0  0  0  0  0  3  0  0  0  0  0  0
  -26.2890  -26.9330   19.4960 C   0  0  0  0  0  3  0  0  0  0  0  0
  -25.0890  -27.6740   19.4650 C   0  0  0  0  0  3  0  0  0  0  0  0
  -23.7470  -29.7650   20.1110 C   0  0  0  0  0  2  0  0  0  0  0  0
  -24.7020  -31.0340   22.0850 N   0  0  0  0  0  0  0  0  0  0  0  0
  -23.4820  -32.0440   23.7120 O   0  0  0  0  0  0  0  0  0  0  0  0
  -22.8230  -29.3510   22.4210 C   0  0  0  0  0  0  0  0  0  0  0  0
  -21.5020  -29.1530   22.2760 N   0  0  0  0  0  0  0  0  0  0  0  0
  -23.5060  -28.7150   23.2270 O   0  0  0  0  0  0  0  0  0  0  0  0
  -21.0090  -29.7190   21.5990 H   0  0  0  0  0  0  0  0  0  0  0  0
  -18.1380  -27.9120   22.7410 C   0  0  0  0  0  0  0  0  0  0  0  0
  -20.6950  -28.1790   23.0120 C   0  0  0  0  0  3  0  0  0  0  0  0
  -20.8040  -26.7730   22.3790 C   0  0  0  0  0  2  0  0  0  0  0  0
  -19.7010  -26.4850   21.3560 C   0  0  0  0  0  2  0  0  0  0  0  0
  -18.3200  -26.5940   22.0090 C   0  0  0  0  0  2  0  0  0  0  0  0
  -19.2530  -28.6640   23.1980 C   0  0  0  0  0  0  0  0  0  0  0  0
  -19.0260  -29.9010   23.8400 C   0  0  0  0  0  3  0  0  0  0  0  0
  -17.7190  -30.3870   24.0290 C   0  0  0  0  0  3  0  0  0  0  0  0
  -16.6180  -29.6310   23.5880 C   0  0  0  0  0  3  0  0  0  0  0  0
  -16.8280  -28.3950   22.9510 C   0  0  0  0  0  3  0  0  0  0  0  0
  -25.8310  -32.4790   23.8660 C   0  0  0  0  0  3  0  0  0  0  0  0
  -26.3180  -31.7240   25.1640 C   0  0  1  0  0  0  0  0  0  0  0  0
  -25.1910  -31.4650   26.1920 C   0  0  0  0  0  1  0  0  0  0  0  0
  -26.9500  -30.3580   24.8040 C   0  0  0  0  0  1  0  0  0  0  0  0
  -27.4180  -32.5520   25.8690 C   0  0  0  0  0  1  0  0  0  0  0  0
  -25.4770  -33.8710   24.1800 N   0  0  0  0  0  0  0  0  0  0  0  0
  -25.8060  -34.9300   23.4290 C   0  0  0  0  0  0  0  0  0  0  0  0
  -26.5120  -34.8400   22.4200 O   0  0  0  0  0  0  0  0  0  0  0  0
  -24.8570  -34.0130   24.9640 H   0  0  0  0  0  0  0  0  0  0  0  0
  -24.0510  -36.6830   23.0090 C   0  0  0  0  0  1  0  0  0  0  0  0
  -25.2710  -36.3080   23.8650 C   0  0  0  0  0  3  0  0  0  0  0  0
  -27.3510  -37.2490   24.7710 C   0  0  0  0  0  1  0  0  0  0  0  0
  -26.2820  -37.3840   23.7850 N   0  0  0  0  0  0  0  0  0  0  0  0
  -25.8500  -38.2950   23.9080 H   0  0  0  0  0  0  0  0  0  0  0  0
  2 49  1  0
  2  1  1  0
  2  3  1  6
  4  9  1  0
  4  2  1  0
  5  7  2  0
  5  9  1  0
  7 10  1  0
  8  6  1  0
  9  6  2  0
 10  8  2  0
 11 17  1  0
 12 17  1  0
 13 14  1  0
 13 12  1  0
 15 14  1  0
 15 24  1  0
 15 16  1  0
 17 16  1  0
 18 11  2  0
 19 20  1  0
 20 10  1  0
 20 11  1  0
 21 22  2  0
 22 41  1  0
 23 22  1  0
 23 26  1  0
 24 21  1  0
 24 25  1  0
 25 23  2  0
 26 27  1  0
 27 28  2  0
 29 32  1  0
 29 28  1  0
 30 29  2  0
 31 30  1  0
 31 26  2  0
 32 33  1  0
 33 38  2  0
 33 34  1  0
 34 35  2  0
 35 36  1  0
 36 40  1  0
 37 36  2  0
 38 37  1  0
 39 38  1  0
 41 42  1  0
 42 45  1  0
 42 44  1  0
 43 41  2  0
 46 47  1  0
 46 21  1  0
 48 46  1  0
 50 51  1  0
 50 49  1  0
 52 63  2  0
 53 51  1  0
 53 58  1  0
 54 62  1  0
 54 64  1  0
 55 61  1  0
 55 57  1  0
 56 62  1  0
 57 58  2  0
 57 56  1  0
 59 53  2  0
 60 59  1  0
 60 55  2  0
 61 54  1  0
 62 52  1  0
 64 66  2  0
 65 64  1  0
 67 65  1  0
 68 77  2  0
 68 73  1  0
 69 65  1  0
 69 73  1  0
 70 69  1  0
 71 72  1  0
 71 70  1  0
 72 68  1  0
 73 74  2  0
 74 75  1  0
 76 75  2  0
 77 76  1  0
 78 52  1  0
 78 83  1  0
 78 79  1  0
 79 82  1  1
 79 80  1  0
 81 79  1  0
 83 86  1  0
 84 88  1  0
 84 83  1  0
 85 84  2  0
 88 87  1  0
 90 88  1  0
 90 91  1  0
 90 89  1  0
M  ISO  4  11 100  20 100  50 101  51 101
M  END
>  <TORSDO>  (33) 
F 20

>  <SCORE>  (33) 
-13.032

>  <name>  (33) 
32

>  <ligand_id>  (33) 
32

>  <original_smiles>  (33) 
[H]c1c([H])c([H])c2c(c1[H])C([H])([H])C([H])([H])C([H])([H])C2([H])N([H])C(=O)C1([H])N(C(=O)C([H])(N([H])C(=O)C([H])(N([H])C([H])([H])[H])C([H])([H])[H])C(C([H])([H])[H])(C([H])([H])[H])C([H])([H])[H])C([H])([H])c2c([H])c(OC([H])([H])C([H])([H])[N+]([H])(C([H])([H])[H])C([H])([H])c3c([H])c([H])c(N(C(=O)N4C([H])([H])C([H])([H])C([H])([H])C([H])(n5nc(-c6c([H])c([H])c(Oc7c([H])c([H])c(F)c([H])c7F)c([H])c6[H])c(C(=O)N([H])[H])c5N([H])[H])C4([H])[H])C([H])([H])[H])c([H])c3[H])c([H])c([H])c2C1([H])[H]

>  <smiles>  (33) 
[H]c1c([H])c([H])c2c(c1[H])C([H])([H])C([H])([H])C([H])([H])C2([H])N([H])C(=O)C1([H])N(C(=O)C([H])(N([H])C(=O)C([H])(N([H])C([H])([H])[H])C([H])([H])[H])C(C([H])([H])[H])(C([H])([H])[H])C([H])([H])[H])C([H])([H])c2c([H])c(OC([H])([H])C([H])([H])[N+]([H])(C([H])([H])[H])C([H])([H])c3c([H])c([H])c(N(C(=O)N4C([H])([H])C([H])([H])C([H])([H])C([H])(n5nc(-c6c([H])c([H])c(Oc7c([H])c([H])c(F)c([H])c7F)c([H])c6[H])c(C(=O)N([H])[H])c5N([H])[H])C4([H])[H])C([H])([H])[H])c([H])c3[H])c([H])c([H])c2C1([H])[H]

$$$$
33:0:0
     RDKit          3D

 94102  0  0  1  0  0  0  0  0999 V2000
  -30.4270  -22.3640   20.5940 C   0  0  0  0  0  2  0  0  0  0  0  0
  -29.0140  -18.7680   20.6730 C   0  0  0  0  0  3  0  0  0  0  0  0
  -29.1500  -20.1580   20.8760 C   0  0  0  0  0  3  0  0  0  0  0  0
  -31.1990  -18.7050   19.6100 C   0  0  0  0  0  3  0  0  0  0  0  0
  -30.0280  -18.0310   20.0200 C   0  0  0  0  0  0  0  0  0  0  0  0
  -30.3000  -20.8430   20.4210 C   0  0  0  0  0  0  0  0  0  0  0  0
  -31.3330  -20.0970   19.8070 C   0  0  0  0  0  0  0  0  0  0  0  0
  -32.4500  -20.7240   19.3680 F   0  0  0  0  0  0  0  0  0  0  0  0
  -29.8070  -16.5600   19.6530 C   0  0  0  0  0  2  0  0  0  0  0  0
  -30.9740  -14.4580   20.1190 C   0  0  0  0  0  0  0  0  0  0  0  0
  -30.5870  -12.3250   18.9400 C   0  0  0  0  0  2  0  0  0  0  0  0
  -29.6100  -12.5600   17.7690 C   0  0  0  0  0  2  0  0  0  0  0  0
  -28.1460  -12.4530   18.2430 C   0  0  0  0  0  2  0  0  0  0  0  0
  -27.8680  -13.2830   19.5240 C   0  0  0  0  0  3  0  0  0  0  0  0
  -28.9520  -13.0220   20.5950 C   0  0  0  0  0  2  0  0  0  0  0  0
  -30.2660  -13.3010   19.9920 N   0  0  0  0  0  0  0  0  0  0  0  0
  -32.0840  -14.6240   19.6040 O   0  0  0  0  0  0  0  0  0  0  0  0
  -30.3270  -15.8660   22.0100 C   0  0  0  0  0  1  0  0  0  0  0  0
  -30.2720  -15.5150   20.5900 N   0  0  0  0  0  0  0  0  0  0  0  0
  -25.5040  -13.9490   20.2900 C   0  0  0  0  0  0  0  0  0  0  0  0
  -24.4290  -13.2000   20.6910 C   0  0  0  0  0  0  0  0  0  0  0  0
  -24.8610  -11.8390   20.6580 C   0  0  0  0  0  0  0  0  0  0  0  0
  -26.5240  -13.0430   20.0410 N   0  0  0  0  0  0  0  0  0  0  0  0
  -26.1420  -11.7700   20.3180 N   0  0  0  0  0  0  0  0  0  0  0  0
  -24.1150  -10.5940   20.8750 C   0  0  0  0  0  0  0  0  0  0  0  0
  -24.5360   -9.6380   21.8250 C   0  0  0  0  0  3  0  0  0  0  0  0
  -23.7930   -8.4550   22.0290 C   0  0  0  0  0  3  0  0  0  0  0  0
  -22.6130   -8.2220   21.2820 C   0  0  0  0  0  0  0  0  0  0  0  0
  -22.2110   -9.1660   20.3210 C   0  0  0  0  0  3  0  0  0  0  0  0
  -22.9550  -10.3390   20.1160 C   0  0  0  0  0  3  0  0  0  0  0  0
  -21.8410   -7.0910   21.3930 O   0  0  0  0  0  0  0  0  0  0  0  0
  -21.7570   -6.3900   22.5700 C   0  0  0  0  0  0  0  0  0  0  0  0
  -21.3220   -6.9960   23.7690 C   0  0  0  0  0  3  0  0  0  0  0  0
  -21.1850   -6.2220   24.9390 C   0  0  0  0  0  3  0  0  0  0  0  0
  -21.4700   -4.8440   24.9110 C   0  0  0  0  0  0  0  0  0  0  0  0
  -21.9000   -4.2380   23.7160 C   0  0  0  0  0  3  0  0  0  0  0  0
  -22.0390   -5.0090   22.5490 C   0  0  0  0  0  0  0  0  0  0  0  0
  -22.4310   -4.4160   21.3960 F   0  0  0  0  0  0  0  0  0  0  0  0
  -21.3310   -4.0990   26.0320 F   0  0  0  0  0  0  0  0  0  0  0  0
  -23.0490  -13.7070   20.9970 C   0  0  0  0  0  0  0  0  0  0  0  0
  -22.3350  -13.0350   21.8950 N   0  0  0  0  0  0  0  0  0  0  0  0
  -22.6130  -14.7330   20.4770 O   0  0  0  0  0  0  0  0  0  0  0  0
  -22.7010  -12.2050   22.3370 H   0  0  0  0  0  0  0  0  0  0  0  0
  -21.4100  -13.3560   22.1420 H   0  0  0  0  0  0  0  0  0  0  0  0
  -25.6930  -15.3150   20.0980 N   0  0  0  0  0  0  0  0  0  0  0  0
  -24.9480  -15.9900   20.2240 H   0  0  0  0  0  0  0  0  0  0  0  0
  -26.5520  -15.7290   19.7610 H   0  0  0  0  0  0  0  0  0  0  0  0
  -29.7430  -22.8020   18.2470 C   0  0  0  0  0  1  0  0  0  0  0  0
  -29.5710  -23.1770   19.6740 N   0  0  2  0  0  4  0  0  0  0  0  0
  -28.6240  -22.9260   19.9170 H   0  0  0  0  0  0  0  0  0  0  0  0
  -29.7070  -24.6530   19.9270 C   0  0  0  0  0  2  0  0  0  0  0  0
  -28.9670  -26.0770   17.8930 C   0  0  0  0  0  1  0  0  0  0  0  0
  -28.5990  -25.5490   19.2930 C   0  0  0  0  0  3  0  0  0  0  0  0
  -28.4080  -26.7220   20.1100 O   0  0  0  0  0  0  0  0  0  0  0  0
  -24.5530  -31.8660   23.1800 C   0  0  0  0  0  0  0  0  0  0  0  0
  -27.2100  -27.4210   20.0810 C   0  0  0  0  0  0  0  0  0  0  0  0
  -23.3470  -30.4580   21.5420 C   0  0  0  0  0  3  0  0  0  0  0  0
  -24.8030  -28.9260   20.1140 C   0  0  0  0  0  0  0  0  0  0  0  0
  -25.8740  -30.8190   21.3430 C   0  0  0  0  0  2  0  0  0  0  0  0
  -25.9610  -29.4470   20.7030 C   0  0  0  0  0  0  0  0  0  0  0  0
  -27.1610  -28.6980   20.6920 C   0  0  0  0  0  3  0  0  0  0  0  0
  -26.0250  -26.9210   19.4880 C   0  0  0  0  0  3  0  0  0  0  0  0
  -24.8300  -27.6620   19.5080 C   0  0  0  0  0  3  0  0  0  0  0  0
  -23.5560  -29.7810   20.1610 C   0  0  0  0  0  2  0  0  0  0  0  0
  -24.6100  -31.0630   22.0790 N   0  0  0  0  0  0  0  0  0  0  0  0
  -23.4720  -32.1340   23.7210 O   0  0  0  0  0  0  0  0  0  0  0  0
  -22.7050  -29.4330   22.5040 C   0  0  0  0  0  0  0  0  0  0  0  0
  -21.3780  -29.2560   22.3900 N   0  0  0  0  0  0  0  0  0  0  0  0
  -23.3940  -28.8010   23.3080 O   0  0  0  0  0  0  0  0  0  0  0  0
  -20.8820  -29.8190   21.7130 H   0  0  0  0  0  0  0  0  0  0  0  0
  -18.0020  -28.0850   22.9280 C   0  0  0  0  0  0  0  0  0  0  0  0
  -20.5650  -28.3190   23.1650 C   0  0  0  0  0  3  0  0  0  0  0  0
  -20.6470  -26.8910   22.5750 C   0  0  0  0  0  2  0  0  0  0  0  0
  -19.5280  -26.5870   21.5740 C   0  0  0  0  0  2  0  0  0  0  0  0
  -18.1570  -26.7400   22.2400 C   0  0  0  0  0  2  0  0  0  0  0  0
  -19.1340  -28.8340   23.3470 C   0  0  0  0  0  0  0  0  0  0  0  0
  -18.9350  -30.0950   23.9510 C   0  0  0  0  0  3  0  0  0  0  0  0
  -17.6380  -30.6070   24.1390 C   0  0  0  0  0  3  0  0  0  0  0  0
  -16.5210  -29.8550   23.7350 C   0  0  0  0  0  3  0  0  0  0  0  0
  -16.7040  -28.5950   23.1360 C   0  0  0  0  0  3  0  0  0  0  0  0
  -25.8390  -32.5030   23.7930 C   0  0  0  0  0  3  0  0  0  0  0  0
  -25.5200  -33.8950   24.1380 N   0  0  0  0  0  0  0  0  0  0  0  0
  -25.8480  -34.9560   23.3890 C   0  0  0  0  0  0  0  0  0  0  0  0
  -26.5200  -34.8670   22.3580 O   0  0  0  0  0  0  0  0  0  0  0  0
  -24.9230  -34.0370   24.9390 H   0  0  0  0  0  0  0  0  0  0  0  0
  -24.1140  -36.7450   23.0390 C   0  0  0  0  0  1  0  0  0  0  0  0
  -25.3490  -36.3360   23.8590 C   0  0  0  0  0  3  0  0  0  0  0  0
  -27.4710  -37.2190   24.7210 C   0  0  0  0  0  1  0  0  0  0  0  0
  -26.3770  -37.3960   23.7700 N   0  0  0  0  0  0  0  0  0  0  0  0
  -25.9650  -38.3110   23.9260 H   0  0  0  0  0  0  0  0  0  0  0  0
  -26.3760  -31.7240   25.0570 C   0  0  1  0  0  0  0  0  0  0  0  0
  -25.2960  -31.4640   26.1330 C   0  0  0  0  0  1  0  0  0  0  0  0
  -26.9700  -30.3570   24.6450 C   0  0  0  0  0  1  0  0  0  0  0  0
  -27.5240  -32.5240   25.7160 C   0  0  0  0  0  1  0  0  0  0  0  0
  2  3  1  0
  4  7  2  0
  4  5  1  0
  5  2  2  0
  6  1  1  0
  6  3  2  0
  7  6  1  0
  8  7  1  0
  9  5  1  0
  9 19  1  0
 10 19  1  0
 11 16  1  0
 12 13  1  0
 12 11  1  0
 14 13  1  0
 14 23  1  0
 14 15  1  0
 16 10  1  0
 16 15  1  0
 17 10  2  0
 19 18  1  0
 20 21  2  0
 21 40  1  0
 22 21  1  0
 22 25  1  0
 23 20  1  0
 23 24  1  0
 24 22  2  0
 25 26  1  0
 26 27  2  0
 28 31  1  0
 28 27  1  0
 29 28  2  0
 30 29  1  0
 30 25  2  0
 31 32  1  0
 32 33  1  0
 33 34  2  0
 35 34  1  0
 35 39  1  0
 36 35  2  0
 37 32  2  0
 37 36  1  0
 38 37  1  0
 40 41  1  0
 41 44  1  0
 41 43  1  0
 42 40  2  0
 45 46  1  0
 45 20  1  0
 47 45  1  0
 48 49  1  0
 49 50  1  1
 49 51  1  0
 49  1  1  0
 53 52  1  0
 53 51  1  0
 53 54  1  0
 55 66  2  0
 56 54  1  0
 56 61  1  0
 57 65  1  0
 57 67  1  0
 58 64  1  0
 58 60  1  0
 59 65  1  0
 60 59  1  0
 61 60  2  0
 62 63  1  0
 62 56  2  0
 63 58  2  0
 64 57  1  0
 65 55  1  0
 67 69  2  0
 68 67  1  0
 70 68  1  0
 71 80  2  0
 71 76  1  0
 72 68  1  0
 72 76  1  0
 73 72  1  0
 74 75  1  0
 74 73  1  0
 75 71  1  0
 76 77  2  0
 77 78  1  0
 79 78  2  0
 80 79  1  0
 81 55  1  0
 81 82  1  0
 81 91  1  0
 82 85  1  0
 83 87  1  0
 83 82  1  0
 84 83  2  0
 87 86  1  0
 89 87  1  0
 89 90  1  0
 89 88  1  0
 91 94  1  1
 91 92  1  0
 93 91  1  0
M  ISO  4  10 100  19 100  53 101  54 101
M  END
>  <TORSDO>  (34) 
F 21

>  <SCORE>  (34) 
-13.267

>  <name>  (34) 
33

>  <ligand_id>  (34) 
33

>  <original_smiles>  (34) 
[H]c1c([H])c([H])c2c(c1[H])C([H])([H])C([H])([H])C([H])([H])C2([H])N([H])C(=O)C1([H])N(C(=O)C([H])(N([H])C(=O)C([H])(N([H])C([H])([H])[H])C([H])([H])[H])C(C([H])([H])[H])(C([H])([H])[H])C([H])([H])[H])C([H])([H])c2c([H])c(OC([H])(C([H])([H])[H])C([H])([H])[N+]([H])(C([H])([H])[H])C([H])([H])c3c([H])c([H])c(C([H])([H])N(C(=O)N4C([H])([H])C([H])([H])C([H])([H])C([H])(n5nc(-c6c([H])c([H])c(Oc7c([H])c([H])c(F)c([H])c7F)c([H])c6[H])c(C(=O)N([H])[H])c5N([H])[H])C4([H])[H])C([H])([H])[H])c([H])c3F)c([H])c([H])c2C1([H])[H]

>  <smiles>  (34) 
[H]c1c([H])c([H])c2c(c1[H])C([H])([H])C([H])([H])C([H])([H])C2([H])N([H])C(=O)C1([H])N(C(=O)C([H])(N([H])C(=O)C([H])(N([H])C([H])([H])[H])C([H])([H])[H])C(C([H])([H])[H])(C([H])([H])[H])C([H])([H])[H])C([H])([H])c2c([H])c(OC([H])(C([H])([H])[H])C([H])([H])[N+]([H])(C([H])([H])[H])C([H])([H])c3c([H])c([H])c(C([H])([H])N(C(=O)N4C([H])([H])C([H])([H])C([H])([H])C([H])(n5nc(-c6c([H])c([H])c(Oc7c([H])c([H])c(F)c([H])c7F)c([H])c6[H])c(C(=O)N([H])[H])c5N([H])[H])C4([H])[H])C([H])([H])[H])c([H])c3F)c([H])c([H])c2C1([H])[H]

$$$$
34:0:0
     RDKit          3D

 95104  0  0  1  0  0  0  0  0999 V2000
  -30.3210  -20.1510   19.5860 C   0  0  0  0  0  2  0  0  0  0  0  0
  -31.5480  -15.0480   18.8150 C   0  0  0  0  0  0  0  0  0  0  0  0
  -31.0400  -12.8560   17.7140 C   0  0  0  0  0  2  0  0  0  0  0  0
  -29.7480  -12.9570   16.8730 C   0  0  0  0  0  2  0  0  0  0  0  0
  -28.5050  -12.6710   17.7380 C   0  0  0  0  0  2  0  0  0  0  0  0
  -28.5350  -13.4500   19.0770 C   0  0  0  0  0  3  0  0  0  0  0  0
  -29.9000  -13.3250   19.7770 C   0  0  0  0  0  2  0  0  0  0  0  0
  -30.9370  -13.8070   18.8510 N   0  0  0  0  0  0  0  0  0  0  0  0
  -32.4340  -15.2560   17.9760 O   0  0  0  0  0  0  0  0  0  0  0  0
  -31.8920  -15.0060   21.7400 C   0  0  0  0  0  3  0  0  0  0  0  0
  -31.9290  -14.9510   23.1450 C   0  0  0  0  0  3  0  0  0  0  0  0
  -30.5730  -16.9650   23.2530 C   0  0  0  0  0  3  0  0  0  0  0  0
  -30.5100  -17.0200   21.8420 C   0  0  0  0  0  0  0  0  0  0  0  0
  -31.1590  -16.0190   21.0650 C   0  0  0  0  0  0  0  0  0  0  0  0
  -31.2680  -15.9300   23.9040 C   0  0  0  0  0  0  0  0  0  0  0  0
  -29.7010  -18.1580   21.2190 C   0  0  0  0  0  2  0  0  0  0  0  0
  -31.1310  -17.5400   19.1520 C   0  0  0  0  0  2  0  0  0  0  0  0
  -30.0470  -18.5540   19.7630 C   0  0  0  0  0  3  0  0  0  0  0  0
  -31.1110  -16.0970   19.6320 N   0  0  0  0  0  0  0  0  0  0  0  0
  -31.3100  -15.8780   25.2550 F   0  0  0  0  0  0  0  0  0  0  0  0
  -26.7120  -13.8410   20.8380 C   0  0  0  0  0  0  0  0  0  0  0  0
  -25.7620  -13.0170   21.3760 C   0  0  0  0  0  0  0  0  0  0  0  0
  -25.9760  -11.7310   20.7890 C   0  0  0  0  0  0  0  0  0  0  0  0
  -27.4440  -13.0550   19.9640 N   0  0  0  0  0  0  0  0  0  0  0  0
  -27.0320  -11.7610   19.9830 N   0  0  0  0  0  0  0  0  0  0  0  0
  -25.1970  -10.4910   20.9010 C   0  0  0  0  0  0  0  0  0  0  0  0
  -25.6080   -9.4330   21.7410 C   0  0  0  0  0  3  0  0  0  0  0  0
  -24.8330   -8.2600   21.8450 C   0  0  0  0  0  3  0  0  0  0  0  0
  -23.6300   -8.1340   21.1080 C   0  0  0  0  0  0  0  0  0  0  0  0
  -23.2350   -9.1820   20.2580 C   0  0  0  0  0  3  0  0  0  0  0  0
  -24.0130  -10.3490   20.1530 C   0  0  0  0  0  3  0  0  0  0  0  0
  -22.8280   -7.0190   21.1240 O   0  0  0  0  0  0  0  0  0  0  0  0
  -22.4190   -6.4470   22.3000 C   0  0  0  0  0  0  0  0  0  0  0  0
  -21.6900   -7.1720   23.2680 C   0  0  0  0  0  3  0  0  0  0  0  0
  -21.2250   -6.5250   24.4310 C   0  0  0  0  0  3  0  0  0  0  0  0
  -21.4790   -5.1540   24.6240 C   0  0  0  0  0  0  0  0  0  0  0  0
  -22.2010   -4.4290   23.6590 C   0  0  0  0  0  3  0  0  0  0  0  0
  -22.6660   -5.0730   22.5010 C   0  0  0  0  0  0  0  0  0  0  0  0
  -23.3410   -4.3650   21.5640 F   0  0  0  0  0  0  0  0  0  0  0  0
  -21.0270   -4.5320   25.7380 F   0  0  0  0  0  0  0  0  0  0  0  0
  -24.6580  -13.4220   22.3080 C   0  0  0  0  0  0  0  0  0  0  0  0
  -24.0990  -12.4680   23.0440 N   0  0  0  0  0  0  0  0  0  0  0  0
  -24.3170  -14.5990   22.4240 O   0  0  0  0  0  0  0  0  0  0  0  0
  -24.3900  -11.5060   22.9610 H   0  0  0  0  0  0  0  0  0  0  0  0
  -23.3650  -12.7050   23.6960 H   0  0  0  0  0  0  0  0  0  0  0  0
  -27.0020  -15.1920   20.9990 N   0  0  0  0  0  0  0  0  0  0  0  0
  -26.4380  -15.7950   21.5830 H   0  0  0  0  0  0  0  0  0  0  0  0
  -27.7300  -15.6850   20.5010 H   0  0  0  0  0  0  0  0  0  0  0  0
  -27.9160  -20.6990   19.1190 C   0  0  0  0  0  1  0  0  0  0  0  0
  -29.1830  -21.1890   19.7140 N   0  0  2  0  0  4  0  0  0  0  0  0
  -29.0090  -21.2660   20.7060 H   0  0  0  0  0  0  0  0  0  0  0  0
  -29.5070  -22.6170   19.2380 C   0  0  0  0  0  3  0  0  0  0  0  0
  -28.5750  -23.8690   19.6730 C   0  0  0  0  0  3  0  0  0  0  0  0
  -28.8260  -25.2930   18.9550 C   0  0  0  0  0  2  0  0  0  0  0  0
  -28.7530  -26.6200   19.6330 O   0  0  0  0  0  0  0  0  0  0  0  0
  -25.1300  -31.6710   23.2800 C   0  0  0  0  0  0  0  0  0  0  0  0
  -27.6330  -27.4680   19.6520 C   0  0  0  0  0  0  0  0  0  0  0  0
  -23.8850  -30.5080   21.4900 C   0  0  0  0  0  3  0  0  0  0  0  0
  -25.2980  -29.1180   19.8600 C   0  0  0  0  0  0  0  0  0  0  0  0
  -26.4260  -30.8010   21.3170 C   0  0  0  0  0  2  0  0  0  0  0  0
  -26.4760  -29.5070   20.5080 C   0  0  0  0  0  0  0  0  0  0  0  0
  -27.6430  -28.6920   20.3980 C   0  0  0  0  0  3  0  0  0  0  0  0
  -26.4360  -27.1350   18.9840 C   0  0  0  0  0  3  0  0  0  0  0  0
  -25.2830  -27.9410   19.0920 C   0  0  0  0  0  3  0  0  0  0  0  0
  -24.0770  -30.0060   20.0310 C   0  0  0  0  0  2  0  0  0  0  0  0
  -25.1660  -31.0040   22.0880 N   0  0  0  0  0  0  0  0  0  0  0  0
  -24.0580  -31.8970   23.8600 O   0  0  0  0  0  0  0  0  0  0  0  0
  -23.2160  -29.3880   22.3240 C   0  0  0  0  0  0  0  0  0  0  0  0
  -21.8900  -29.2340   22.1760 N   0  0  0  0  0  0  0  0  0  0  0  0
  -23.8900  -28.6670   23.0660 O   0  0  0  0  0  0  0  0  0  0  0  0
  -21.4040  -29.8740   21.5620 H   0  0  0  0  0  0  0  0  0  0  0  0
  -18.5080  -27.9930   22.5080 C   0  0  0  0  0  0  0  0  0  0  0  0
  -21.0640  -28.2150   22.8280 C   0  0  0  0  0  3  0  0  0  0  0  0
  -21.1700  -26.8580   22.0930 C   0  0  0  0  0  2  0  0  0  0  0  0
  -20.0780  -26.6560   21.0380 C   0  0  0  0  0  2  0  0  0  0  0  0
  -18.6900  -26.7300   21.6810 C   0  0  0  0  0  2  0  0  0  0  0  0
  -19.6250  -28.6980   23.0320 C   0  0  0  0  0  0  0  0  0  0  0  0
  -19.4030  -29.8870   23.7610 C   0  0  0  0  0  3  0  0  0  0  0  0
  -18.0980  -30.3700   23.9730 C   0  0  0  0  0  3  0  0  0  0  0  0
  -16.9960  -29.6600   23.4670 C   0  0  0  0  0  3  0  0  0  0  0  0
  -17.2010  -28.4730   22.7390 C   0  0  0  0  0  3  0  0  0  0  0  0
  -26.4290  -32.1990   23.9630 C   0  0  0  0  0  3  0  0  0  0  0  0
  -26.9600  -31.2500   25.1090 C   0  0  1  0  0  0  0  0  0  0  0  0
  -25.8730  -30.8370   26.1300 C   0  0  0  0  0  1  0  0  0  0  0  0
  -27.5560  -29.9550   24.5110 C   0  0  0  0  0  1  0  0  0  0  0  0
  -28.1060  -31.9480   25.8790 C   0  0  0  0  0  1  0  0  0  0  0  0
  -26.1360  -33.5380   24.4980 N   0  0  0  0  0  0  0  0  0  0  0  0
  -26.4610  -34.6880   23.8920 C   0  0  0  0  0  0  0  0  0  0  0  0
  -27.1060  -34.7280   22.8420 O   0  0  0  0  0  0  0  0  0  0  0  0
  -25.5680  -33.5810   25.3330 H   0  0  0  0  0  0  0  0  0  0  0  0
  -24.7330  -36.5180   23.8440 C   0  0  0  0  0  1  0  0  0  0  0  0
  -25.9940  -36.0010   24.5540 C   0  0  0  0  0  3  0  0  0  0  0  0
  -28.1530  -36.7600   25.4410 C   0  0  0  0  0  1  0  0  0  0  0  0
  -27.0260  -37.0590   24.5620 N   0  0  0  0  0  0  0  0  0  0  0  0
  -26.6300  -37.9490   24.8510 H   0  0  0  0  0  0  0  0  0  0  0  0
  1 50  1  0
  2  8  1  0
  2 19  1  0
  3  8  1  0
  4  3  1  0
  4  5  1  0
  6  5  1  0
  6  7  1  0
  6 24  1  0
  8  7  1  0
  9  2  2  0
 10 11  1  0
 11 15  2  0
 12 15  1  0
 13 12  2  0
 14 10  2  0
 14 13  1  0
 15 20  1  0
 16 13  1  0
 17 19  1  0
 17 18  1  0
 18  1  1  0
 18 16  1  0
 19 14  1  0
 21 46  1  0
 21 22  2  0
 22 41  1  0
 23 26  1  0
 23 22  1  0
 24 25  1  0
 24 21  1  0
 25 23  2  0
 26 27  1  0
 27 28  2  0
 29 32  1  0
 29 28  1  0
 30 29  2  0
 31 30  1  0
 31 26  2  0
 32 33  1  0
 33 38  2  0
 33 34  1  0
 34 35  2  0
 35 36  1  0
 36 40  1  0
 37 36  2  0
 38 37  1  0
 39 38  1  0
 41 43  2  0
 41 42  1  0
 42 45  1  0
 44 42  1  0
 46 47  1  0
 48 46  1  0
 49 50  1  0
 50 51  1  1
 52 53  2  0
 52 50  1  0
 54 55  1  0
 54 53  1  0
 55 57  1  0
 56 67  2  0
 57 62  1  0
 58 66  1  0
 58 68  1  0
 59 65  1  0
 59 61  1  0
 60 66  1  0
 61 60  1  0
 62 61  2  0
 63 64  1  0
 63 57  2  0
 64 59  2  0
 65 58  1  0
 66 56  1  0
 68 70  2  0
 69 68  1  0
 71 69  1  0
 72 81  2  0
 72 77  1  0
 73 69  1  0
 73 77  1  0
 74 73  1  0
 75 76  1  0
 75 74  1  0
 76 72  1  0
 77 78  2  0
 78 79  1  0
 80 79  2  0
 81 80  1  0
 82 56  1  0
 82 87  1  0
 82 83  1  0
 83 86  1  1
 83 84  1  0
 85 83  1  0
 87 90  1  0
 88 87  1  0
 88 92  1  0
 89 88  2  0
 92 91  1  0
 92 94  1  0
 94 95  1  0
 94 93  1  0
M  ISO  4   2 100  19 100  54 101  55 101
M  END
>  <TORSDO>  (35) 
F 20

>  <SCORE>  (35) 
4.450

>  <name>  (35) 
34

>  <ligand_id>  (35) 
34

>  <original_smiles>  (35) 
[H]c1c([H])c([H])c2c(c1[H])C([H])([H])C([H])([H])C([H])([H])C2([H])N([H])C(=O)C1([H])N(C(=O)C([H])(N([H])C(=O)C([H])(N([H])C([H])([H])[H])C([H])([H])[H])C(C([H])([H])[H])(C([H])([H])[H])C([H])([H])[H])C([H])([H])c2c([H])c(OC([H])([H])C([H])([H])C([H])([H])[N+]([H])(C([H])([H])[H])C([H])([H])C3([H])C([H])([H])c4c([H])c(F)c([H])c([H])c4N(C(=O)N4C([H])([H])C([H])([H])C([H])([H])C([H])(n5nc(-c6c([H])c([H])c(Oc7c([H])c([H])c(F)c([H])c7F)c([H])c6[H])c(C(=O)N([H])[H])c5N([H])[H])C4([H])[H])C3([H])[H])c([H])c([H])c2C1([H])[H]

>  <smiles>  (35) 
[H]c1c([H])c([H])c2c(c1[H])C([H])([H])C([H])([H])C([H])([H])C2([H])N([H])C(=O)C1([H])N(C(=O)C([H])(N([H])C(=O)C([H])(N([H])C([H])([H])[H])C([H])([H])[H])C(C([H])([H])[H])(C([H])([H])[H])C([H])([H])[H])C([H])([H])c2c([H])c(OC([H])([H])C([H])([H])C([H])([H])[N+]([H])(C([H])([H])[H])C([H])([H])C3([H])C([H])([H])c4c([H])c(F)c([H])c([H])c4N(C(=O)N4C([H])([H])C([H])([H])C([H])([H])C([H])(n5nc(-c6c([H])c([H])c(Oc7c([H])c([H])c(F)c([H])c7F)c([H])c6[H])c(C(=O)N([H])[H])c5N([H])[H])C4([H])[H])C3([H])[H])c([H])c([H])c2C1([H])[H]

$$$$
35:0:0
     RDKit          3D

 90 98  0  0  1  0  0  0  0  0999 V2000
  -27.8170  -21.8590   21.4820 C   0  0  0  0  0  1  0  0  0  0  0  0
  -28.8510  -21.5230   20.5000 N   0  0  0  0  0  0  0  0  0  0  0  0
  -28.7220  -17.7450   21.0840 C   0  0  0  0  0  3  0  0  0  0  0  0
  -30.7610  -18.1740   19.9040 C   0  0  0  0  0  3  0  0  0  0  0  0
  -28.4120  -19.1270   21.0620 C   0  0  0  0  0  3  0  0  0  0  0  0
  -30.4460  -19.5830   19.8980 C   0  0  0  0  0  3  0  0  0  0  0  0
  -29.8940  -17.2100   20.5020 C   0  0  0  0  0  0  0  0  0  0  0  0
  -29.2500  -20.1210   20.4770 C   0  0  0  0  0  0  0  0  0  0  0  0
  -30.8040  -14.7780   20.0020 C   0  0  0  0  0  0  0  0  0  0  0  0
  -30.5680  -12.5550   18.8950 C   0  0  0  0  0  2  0  0  0  0  0  0
  -29.5430  -12.6930   17.7450 C   0  0  0  0  0  2  0  0  0  0  0  0
  -28.0960  -12.5270   18.2590 C   0  0  0  0  0  2  0  0  0  0  0  0
  -27.8160  -13.3560   19.5390 C   0  0  0  0  0  3  0  0  0  0  0  0
  -28.9430  -13.1550   20.5780 C   0  0  0  0  0  2  0  0  0  0  0  0
  -30.2160  -13.5380   19.9390 N   0  0  0  0  0  0  0  0  0  0  0  0
  -31.9070  -14.9980   19.4920 O   0  0  0  0  0  0  0  0  0  0  0  0
  -30.0250  -15.7490   20.5770 N   0  0  0  0  0  0  0  0  0  0  0  0
  -29.2520  -15.3170   21.0570 H   0  0  0  0  0  0  0  0  0  0  0  0
  -25.4770  -13.9400   20.4360 C   0  0  0  0  0  0  0  0  0  0  0  0
  -24.4300  -13.1580   20.8450 C   0  0  0  0  0  0  0  0  0  0  0  0
  -24.8770  -11.8060   20.7260 C   0  0  0  0  0  0  0  0  0  0  0  0
  -26.4970  -13.0630   20.0970 N   0  0  0  0  0  0  0  0  0  0  0  0
  -26.1430  -11.7730   20.3300 N   0  0  0  0  0  0  0  0  0  0  0  0
  -24.1550  -10.5410   20.9120 C   0  0  0  0  0  0  0  0  0  0  0  0
  -24.5700   -9.5860   21.8660 C   0  0  0  0  0  3  0  0  0  0  0  0
  -23.8490   -8.3850   22.0370 C   0  0  0  0  0  3  0  0  0  0  0  0
  -22.6960   -8.1310   21.2560 C   0  0  0  0  0  0  0  0  0  0  0  0
  -22.3000   -9.0750   20.2930 C   0  0  0  0  0  3  0  0  0  0  0  0
  -23.0220  -10.2670   20.1180 C   0  0  0  0  0  3  0  0  0  0  0  0
  -21.9470   -6.9820   21.3370 O   0  0  0  0  0  0  0  0  0  0  0  0
  -21.7830   -6.3130   22.5230 C   0  0  0  0  0  0  0  0  0  0  0  0
  -21.2160   -6.9340   23.6580 C   0  0  0  0  0  3  0  0  0  0  0  0
  -21.0030   -6.1890   24.8340 C   0  0  0  0  0  3  0  0  0  0  0  0
  -21.3430   -4.8240   24.8770 C   0  0  0  0  0  0  0  0  0  0  0  0
  -21.9000   -4.2020   23.7460 C   0  0  0  0  0  3  0  0  0  0  0  0
  -22.1170   -4.9440   22.5710 C   0  0  0  0  0  0  0  0  0  0  0  0
  -22.6350   -4.3350   21.4780 F   0  0  0  0  0  0  0  0  0  0  0  0
  -21.1300   -4.1060   26.0040 F   0  0  0  0  0  0  0  0  0  0  0  0
  -23.0560  -13.6310   21.2290 C   0  0  0  0  0  0  0  0  0  0  0  0
  -22.3810  -12.9020   22.1100 N   0  0  0  0  0  0  0  0  0  0  0  0
  -22.5940  -14.6800   20.7830 O   0  0  0  0  0  0  0  0  0  0  0  0
  -22.7660  -12.0500   22.4920 H   0  0  0  0  0  0  0  0  0  0  0  0
  -21.4620  -13.1980   22.4070 H   0  0  0  0  0  0  0  0  0  0  0  0
  -25.6430  -15.3160   20.3050 N   0  0  0  0  0  0  0  0  0  0  0  0
  -24.8930  -15.9730   20.4890 H   0  0  0  0  0  0  0  0  0  0  0  0
  -26.4660  -15.7550   19.9150 H   0  0  0  0  0  0  0  0  0  0  0  0
  -29.6530  -22.6970   20.0230 C   0  0  0  0  0  2  0  0  0  0  0  0
  -28.8940  -24.0390   19.5470 C   0  0  0  0  0  2  0  0  0  0  0  0
  -28.5450  -25.2350   20.5460 C   0  0  0  0  0  2  0  0  0  0  0  0
  -28.5920  -26.6390   20.0720 O   0  0  0  0  0  0  0  0  0  0  0  0
  -24.7880  -31.8390   23.3650 C   0  0  0  0  0  0  0  0  0  0  0  0
  -27.4430  -27.4370   20.1310 C   0  0  0  0  0  0  0  0  0  0  0  0
  -23.5970  -30.5090   21.6570 C   0  0  0  0  0  3  0  0  0  0  0  0
  -25.0610  -29.0190   20.1780 C   0  0  0  0  0  0  0  0  0  0  0  0
  -26.1320  -30.8500   21.4970 C   0  0  0  0  0  2  0  0  0  0  0  0
  -26.2240  -29.4970   20.7980 C   0  0  0  0  0  0  0  0  0  0  0  0
  -27.4180  -28.7190   20.7590 C   0  0  0  0  0  3  0  0  0  0  0  0
  -26.2560  -26.9960   19.5080 C   0  0  0  0  0  3  0  0  0  0  0  0
  -25.0780  -27.7730   19.5280 C   0  0  0  0  0  3  0  0  0  0  0  0
  -23.8200  -29.8880   20.2520 C   0  0  0  0  0  2  0  0  0  0  0  0
  -24.8570  -31.0810   22.2320 N   0  0  0  0  0  0  0  0  0  0  0  0
  -23.7020  -32.0930   23.9060 O   0  0  0  0  0  0  0  0  0  0  0  0
  -22.9320  -29.4510   22.5700 C   0  0  0  0  0  0  0  0  0  0  0  0
  -21.6070  -29.2760   22.4240 N   0  0  0  0  0  0  0  0  0  0  0  0
  -23.6040  -28.7930   23.3670 O   0  0  0  0  0  0  0  0  0  0  0  0
  -21.1260  -29.8590   21.7520 H   0  0  0  0  0  0  0  0  0  0  0  0
  -18.2290  -28.0480   22.8280 C   0  0  0  0  0  0  0  0  0  0  0  0
  -20.7820  -28.3050   23.1450 C   0  0  0  0  0  3  0  0  0  0  0  0
  -20.8980  -26.8990   22.5110 C   0  0  0  0  0  2  0  0  0  0  0  0
  -19.8110  -26.6160   21.4700 C   0  0  0  0  0  2  0  0  0  0  0  0
  -18.4190  -26.7280   22.1000 C   0  0  0  0  0  2  0  0  0  0  0  0
  -19.3390  -28.7960   23.3030 C   0  0  0  0  0  0  0  0  0  0  0  0
  -19.1070  -30.0330   23.9430 C   0  0  0  0  0  3  0  0  0  0  0  0
  -17.7980  -30.5220   24.1150 C   0  0  0  0  0  3  0  0  0  0  0  0
  -16.7020  -29.7700   23.6570 C   0  0  0  0  0  3  0  0  0  0  0  0
  -16.9180  -28.5350   23.0190 C   0  0  0  0  0  3  0  0  0  0  0  0
  -26.0670  -32.4430   24.0250 C   0  0  0  0  0  3  0  0  0  0  0  0
  -26.5630  -31.6270   25.2810 C   0  0  1  0  0  0  0  0  0  0  0  0
  -25.4530  -31.3550   26.3250 C   0  0  0  0  0  1  0  0  0  0  0  0
  -27.1460  -30.2630   24.8440 C   0  0  0  0  0  1  0  0  0  0  0  0
  -27.7090  -32.3910   25.9840 C   0  0  0  0  0  1  0  0  0  0  0  0
  -25.7600  -33.8310   24.3990 N   0  0  0  0  0  0  0  0  0  0  0  0
  -26.1160  -34.9080   23.6890 C   0  0  0  0  0  0  0  0  0  0  0  0
  -26.8050  -34.8380   22.6660 O   0  0  0  0  0  0  0  0  0  0  0  0
  -25.1460  -33.9580   25.1900 H   0  0  0  0  0  0  0  0  0  0  0  0
  -24.4150  -36.7330   23.3560 C   0  0  0  0  0  1  0  0  0  0  0  0
  -25.6280  -36.2820   24.1870 C   0  0  0  0  0  3  0  0  0  0  0  0
  -27.7440  -37.1110   25.1140 C   0  0  0  0  0  1  0  0  0  0  0  0
  -26.6720  -37.3290   24.1460 N   0  0  0  0  0  0  0  0  0  0  0  0
  -26.2710  -38.2470   24.3180 H   0  0  0  0  0  0  0  0  0  0  0  0
  2  1  1  0
  4  7  1  0
  5  3  1  0
  6  4  2  0
  6  8  1  0
  7 17  1  0
  7  3  2  0
  8  2  1  0
  8  5  2  0
  9 17  1  0
 10 15  1  0
 11 12  1  0
 11 10  1  0
 13 12  1  0
 13 22  1  0
 13 14  1  0
 15  9  1  0
 15 14  1  0
 16  9  2  0
 17 18  1  0
 19 20  2  0
 20 39  1  0
 21 20  1  0
 21 24  1  0
 22 23  1  0
 22 19  1  0
 23 21  2  0
 24 25  1  0
 25 26  2  0
 27 30  1  0
 27 26  1  0
 28 27  2  0
 29 28  1  0
 29 24  2  0
 30 31  1  0
 31 36  2  0
 31 32  1  0
 32 33  2  0
 33 34  1  0
 34 38  1  0
 35 34  2  0
 36 35  1  0
 37 36  1  0
 39 40  1  0
 40 43  1  0
 40 42  1  0
 41 39  2  0
 44 19  1  0
 44 45  1  0
 46 44  1  0
 47  2  1  0
 48 47  1  0
 48 49  1  0
 50 52  1  0
 50 49  1  0
 51 62  2  0
 52 57  1  0
 53 61  1  0
 53 63  1  0
 54 60  1  0
 54 56  1  0
 55 61  1  0
 56 55  1  0
 57 56  2  0
 58 59  1  0
 58 52  2  0
 59 54  2  0
 60 53  1  0
 61 51  1  0
 63 65  2  0
 64 63  1  0
 66 64  1  0
 67 76  2  0
 67 72  1  0
 68 64  1  0
 68 72  1  0
 69 68  1  0
 70 71  1  0
 70 69  1  0
 71 67  1  0
 72 73  2  0
 73 74  1  0
 75 74  2  0
 76 75  1  0
 77 51  1  0
 77 82  1  0
 77 78  1  0
 78 81  1  1
 78 79  1  0
 80 78  1  0
 82 85  1  0
 83 87  1  0
 83 82  1  0
 84 83  2  0
 87 86  1  0
 89 87  1  0
 89 90  1  0
 89 88  1  0
M  ISO  4   9 100  17 100  49 101  50 101
M  END
>  <TORSDO>  (36) 
F 20

>  <SCORE>  (36) 
-12.465

>  <name>  (36) 
35

>  <ligand_id>  (36) 
35

>  <original_smiles>  (36) 
[H]c1c([H])c([H])c2c(c1[H])C([H])([H])C([H])([H])C([H])([H])C2([H])N([H])C(=O)C1([H])N(C(=O)C([H])(N([H])C(=O)C([H])(N([H])C([H])([H])[H])C([H])([H])[H])C(C([H])([H])[H])(C([H])([H])[H])C([H])([H])[H])C([H])([H])c2c([H])c(OC([H])([H])C([H])([H])C([H])([H])N(c3c([H])c([H])c(N([H])C(=O)N4C([H])([H])C([H])([H])C([H])([H])C([H])(n5nc(-c6c([H])c([H])c(Oc7c([H])c([H])c(F)c([H])c7F)c([H])c6[H])c(C(=O)N([H])[H])c5N([H])[H])C4([H])[H])c([H])c3[H])C([H])([H])[H])c([H])c([H])c2C1([H])[H]

>  <smiles>  (36) 
[H]c1c([H])c([H])c2c(c1[H])C([H])([H])C([H])([H])C([H])([H])C2([H])N([H])C(=O)C1([H])N(C(=O)C([H])(N([H])C(=O)C([H])(N([H])C([H])([H])[H])C([H])([H])[H])C(C([H])([H])[H])(C([H])([H])[H])C([H])([H])[H])C([H])([H])c2c([H])c(OC([H])([H])C([H])([H])C([H])([H])N(c3c([H])c([H])c(N([H])C(=O)N4C([H])([H])C([H])([H])C([H])([H])C([H])(n5nc(-c6c([H])c([H])c(Oc7c([H])c([H])c(F)c([H])c7F)c([H])c6[H])c(C(=O)N([H])[H])c5N([H])[H])C4([H])[H])c([H])c3[H])C([H])([H])[H])c([H])c([H])c2C1([H])[H]

$$$$
36:0:0
     RDKit          3D

 93101  0  0  1  0  0  0  0  0999 V2000
  -26.8040  -21.4910   21.7520 C   0  0  0  0  0  1  0  0  0  0  0  0
  -27.9040  -21.8910   20.8300 N   0  0  1  0  0  4  0  0  0  0  0  0
  -28.7610  -21.9720   21.3620 H   0  0  0  0  0  0  0  0  0  0  0  0
  -28.1880  -20.8470   19.7850 C   0  0  0  0  0  2  0  0  0  0  0  0
  -29.5550  -19.2670   21.3490 C   0  0  0  0  0  3  0  0  0  0  0  0
  -30.1960  -18.0230   21.5590 C   0  0  0  0  0  3  0  0  0  0  0  0
  -28.7910  -18.4730   19.1960 C   0  0  0  0  0  3  0  0  0  0  0  0
  -28.8480  -19.5140   20.1510 C   0  0  0  0  0  0  0  0  0  0  0  0
  -30.1690  -16.9910   20.5870 C   0  0  0  0  0  0  0  0  0  0  0  0
  -29.4250  -17.2290   19.4070 C   0  0  0  0  0  0  0  0  0  0  0  0
  -29.2920  -16.2700   18.4690 F   0  0  0  0  0  0  0  0  0  0  0  0
  -31.3570  -14.8360   20.0350 C   0  0  0  0  0  0  0  0  0  0  0  0
  -31.0210  -12.6450   18.9420 C   0  0  0  0  0  2  0  0  0  0  0  0
  -30.0230  -12.8210   17.7750 C   0  0  0  0  0  2  0  0  0  0  0  0
  -28.5660  -12.6940   18.2780 C   0  0  0  0  0  2  0  0  0  0  0  0
  -28.2990  -13.5440   19.5510 C   0  0  0  0  0  3  0  0  0  0  0  0
  -29.4060  -13.3480   20.6100 C   0  0  0  0  0  2  0  0  0  0  0  0
  -30.7010  -13.6420   19.9750 N   0  0  0  0  0  0  0  0  0  0  0  0
  -32.3930  -15.0540   19.3960 O   0  0  0  0  0  0  0  0  0  0  0  0
  -30.8620  -15.7670   20.8780 N   0  0  0  0  0  0  0  0  0  0  0  0
  -31.1130  -15.6280   21.8560 H   0  0  0  0  0  0  0  0  0  0  0  0
  -26.0000  -14.2130   20.4930 C   0  0  0  0  0  0  0  0  0  0  0  0
  -24.9220  -13.4770   20.8810 C   0  0  0  0  0  0  0  0  0  0  0  0
  -25.2900  -12.1070   20.6960 C   0  0  0  0  0  0  0  0  0  0  0  0
  -26.9740  -13.3040   20.1080 N   0  0  0  0  0  0  0  0  0  0  0  0
  -26.5470  -12.0280   20.2780 N   0  0  0  0  0  0  0  0  0  0  0  0
  -24.5060  -10.8790   20.8400 C   0  0  0  0  0  0  0  0  0  0  0  0
  -24.8580   -9.8740   21.7700 C   0  0  0  0  0  3  0  0  0  0  0  0
  -24.0730   -8.7080   21.9010 C   0  0  0  0  0  3  0  0  0  0  0  0
  -22.9220   -8.5320   21.0980 C   0  0  0  0  0  0  0  0  0  0  0  0
  -22.5830   -9.5260   20.1640 C   0  0  0  0  0  3  0  0  0  0  0  0
  -23.3690  -10.6830   20.0310 C   0  0  0  0  0  3  0  0  0  0  0  0
  -22.1120   -7.4250   21.1420 O   0  0  0  0  0  0  0  0  0  0  0  0
  -21.8740   -6.7480   22.3120 C   0  0  0  0  0  0  0  0  0  0  0  0
  -21.2930   -7.3790   23.4330 C   0  0  0  0  0  3  0  0  0  0  0  0
  -21.0040   -6.6310   24.5920 C   0  0  0  0  0  3  0  0  0  0  0  0
  -21.2820   -5.2520   24.6280 C   0  0  0  0  0  0  0  0  0  0  0  0
  -21.8550   -4.6200   23.5110 C   0  0  0  0  0  3  0  0  0  0  0  0
  -22.1480   -5.3650   22.3540 C   0  0  0  0  0  0  0  0  0  0  0  0
  -22.6790   -4.7440   21.2730 F   0  0  0  0  0  0  0  0  0  0  0  0
  -20.9970   -4.5340   25.7380 F   0  0  0  0  0  0  0  0  0  0  0  0
  -23.5880  -14.0050   21.3210 C   0  0  0  0  0  0  0  0  0  0  0  0
  -22.9090  -13.2990   22.2150 N   0  0  0  0  0  0  0  0  0  0  0  0
  -23.1540  -15.0810   20.8950 O   0  0  0  0  0  0  0  0  0  0  0  0
  -23.2720  -12.4310   22.5820 H   0  0  0  0  0  0  0  0  0  0  0  0
  -22.0150  -13.6320   22.5530 H   0  0  0  0  0  0  0  0  0  0  0  0
  -26.2260  -15.5900   20.4190 N   0  0  0  0  0  0  0  0  0  0  0  0
  -25.4880  -16.2530   20.6300 H   0  0  0  0  0  0  0  0  0  0  0  0
  -27.0750  -16.0340   20.0840 H   0  0  0  0  0  0  0  0  0  0  0  0
  -27.6030  -23.2080   20.1610 C   0  0  0  0  0  2  0  0  0  0  0  0
  -28.2270  -24.5200   20.7310 C   0  0  0  0  0  2  0  0  0  0  0  0
  -28.8820  -25.4400   19.6280 C   0  0  0  0  0  2  0  0  0  0  0  0
  -28.9360  -26.8800   19.8540 O   0  0  0  0  0  0  0  0  0  0  0  0
  -24.8180  -31.7090   23.1100 C   0  0  0  0  0  0  0  0  0  0  0  0
  -27.7490  -27.6040   19.8110 C   0  0  0  0  0  0  0  0  0  0  0  0
  -23.7230  -30.3330   21.3770 C   0  0  0  0  0  3  0  0  0  0  0  0
  -25.2920  -29.0250   19.8520 C   0  0  0  0  0  0  0  0  0  0  0  0
  -26.2270  -30.8910   21.2070 C   0  0  0  0  0  2  0  0  0  0  0  0
  -26.4140  -29.5620   20.4930 C   0  0  0  0  0  0  0  0  0  0  0  0
  -27.6450  -28.8560   20.4800 C   0  0  0  0  0  3  0  0  0  0  0  0
  -26.6030  -27.1220   19.1260 C   0  0  0  0  0  3  0  0  0  0  0  0
  -25.3870  -27.8200   19.1510 C   0  0  0  0  0  3  0  0  0  0  0  0
  -23.9850  -29.7720   19.9510 C   0  0  0  0  0  2  0  0  0  0  0  0
  -24.9450  -30.9880   21.9600 N   0  0  0  0  0  0  0  0  0  0  0  0
  -23.7190  -31.8550   23.6680 O   0  0  0  0  0  0  0  0  0  0  0  0
  -23.1650  -29.1920   22.2690 C   0  0  0  0  0  0  0  0  0  0  0  0
  -21.8640  -28.8970   22.1130 N   0  0  0  0  0  0  0  0  0  0  0  0
  -23.8990  -28.5800   23.0490 O   0  0  0  0  0  0  0  0  0  0  0  0
  -21.3160  -29.4610   21.4760 H   0  0  0  0  0  0  0  0  0  0  0  0
  -18.6400  -27.2560   22.3940 C   0  0  0  0  0  0  0  0  0  0  0  0
  -21.1370  -27.8230   22.7920 C   0  0  0  0  0  3  0  0  0  0  0  0
  -21.4480  -26.4500   22.1670 C   0  0  0  0  0  2  0  0  0  0  0  0
  -20.4350  -26.0190   21.1140 C   0  0  0  0  0  2  0  0  0  0  0  0
  -19.0360  -25.9620   21.7130 C   0  0  0  0  0  2  0  0  0  0  0  0
  -19.6340  -28.1320   22.9070 C   0  0  0  0  0  0  0  0  0  0  0  0
  -19.2410  -29.3250   23.5430 C   0  0  0  0  0  3  0  0  0  0  0  0
  -17.8800  -29.6350   23.6860 C   0  0  0  0  0  3  0  0  0  0  0  0
  -16.8940  -28.7760   23.1650 C   0  0  0  0  0  3  0  0  0  0  0  0
  -17.2760  -27.5860   22.5150 C   0  0  0  0  0  3  0  0  0  0  0  0
  -26.0460  -32.4130   23.7720 C   0  0  0  0  0  3  0  0  0  0  0  0
  -25.6390  -33.7760   24.1440 N   0  0  0  0  0  0  0  0  0  0  0  0
  -25.9040  -34.8720   23.4180 C   0  0  0  0  0  0  0  0  0  0  0  0
  -26.5980  -34.8450   22.3960 O   0  0  0  0  0  0  0  0  0  0  0  0
  -25.0250  -33.8660   24.9420 H   0  0  0  0  0  0  0  0  0  0  0  0
  -24.0690  -36.5550   23.0650 C   0  0  0  0  0  1  0  0  0  0  0  0
  -25.3120  -36.2100   23.9010 C   0  0  0  0  0  3  0  0  0  0  0  0
  -27.3570  -37.2060   24.8270 C   0  0  0  0  0  1  0  0  0  0  0  0
  -26.2760  -37.3320   23.8510 N   0  0  0  0  0  0  0  0  0  0  0  0
  -25.8050  -38.2190   24.0160 H   0  0  0  0  0  0  0  0  0  0  0  0
  -26.5990  -31.6350   25.0250 C   0  0  1  0  0  0  0  0  0  0  0  0
  -25.5090  -31.2600   26.0590 C   0  0  0  0  0  1  0  0  0  0  0  0
  -27.2960  -30.3280   24.5810 C   0  0  0  0  0  1  0  0  0  0  0  0
  -27.6690  -32.4900   25.7410 C   0  0  0  0  0  1  0  0  0  0  0  0
  2  3  1  1
  2  1  1  0
  4  8  1  0
  4  2  1  0
  5  6  1  0
  7 10  2  0
  7  8  1  0
  8  5  2  0
  9 20  1  0
  9  6  2  0
 10  9  1  0
 11 10  1  0
 12 20  1  0
 13 18  1  0
 14 15  1  0
 14 13  1  0
 16 15  1  0
 16 25  1  0
 16 17  1  0
 18 12  1  0
 18 17  1  0
 19 12  2  0
 20 21  1  0
 22 23  2  0
 23 42  1  0
 24 27  1  0
 24 23  1  0
 25 26  1  0
 25 22  1  0
 26 24  2  0
 27 28  1  0
 28 29  2  0
 30 33  1  0
 30 29  1  0
 31 30  2  0
 32 31  1  0
 32 27  2  0
 33 34  1  0
 34 39  2  0
 34 35  1  0
 35 36  2  0
 36 37  1  0
 37 41  1  0
 38 37  2  0
 39 38  1  0
 40 39  1  0
 42 43  1  0
 43 46  1  0
 43 45  1  0
 44 42  2  0
 47 22  1  0
 47 48  1  0
 49 47  1  0
 50 51  1  0
 50  2  1  0
 52 53  1  0
 52 51  1  0
 54 65  2  0
 55 53  1  0
 55 60  1  0
 56 64  1  0
 56 66  1  0
 57 63  1  0
 57 59  1  0
 58 64  1  0
 59 58  1  0
 60 59  2  0
 61 62  1  0
 61 55  2  0
 62 57  2  0
 63 56  1  0
 64 54  1  0
 66 68  2  0
 67 66  1  0
 69 67  1  0
 70 79  2  0
 70 75  1  0
 71 67  1  0
 71 75  1  0
 72 71  1  0
 73 74  1  0
 73 72  1  0
 74 70  1  0
 75 76  2  0
 76 77  1  0
 78 77  2  0
 79 78  1  0
 80 54  1  0
 80 81  1  0
 80 90  1  0
 81 84  1  0
 82 86  1  0
 82 81  1  0
 83 82  2  0
 86 85  1  0
 88 86  1  0
 88 89  1  0
 88 87  1  0
 90 93  1  1
 90 91  1  0
 92 90  1  0
M  ISO  4  12 100  20 100  52 101  53 101
M  END
>  <TORSDO>  (37) 
F 21

>  <SCORE>  (37) 
-9.220

>  <name>  (37) 
36

>  <ligand_id>  (37) 
36

>  <original_smiles>  (37) 
[H]c1c([H])c([H])c2c(c1[H])C([H])([H])C([H])([H])C([H])([H])C2([H])N([H])C(=O)C1([H])N(C(=O)C([H])(N([H])C(=O)C([H])(N([H])C([H])([H])[H])C([H])([H])[H])C(C([H])([H])[H])(C([H])([H])[H])C([H])([H])[H])C([H])([H])c2c([H])c(OC([H])([H])C([H])([H])C([H])([H])[N+]([H])(C([H])([H])[H])C([H])([H])c3c([H])c([H])c(N([H])C(=O)N4C([H])([H])C([H])([H])C([H])([H])C([H])(n5nc(-c6c([H])c([H])c(Oc7c([H])c([H])c(F)c([H])c7F)c([H])c6[H])c(C(=O)N([H])[H])c5N([H])[H])C4([H])[H])c(F)c3[H])c([H])c([H])c2C1([H])[H]

>  <smiles>  (37) 
[H]c1c([H])c([H])c2c(c1[H])C([H])([H])C([H])([H])C([H])([H])C2([H])N([H])C(=O)C1([H])N(C(=O)C([H])(N([H])C(=O)C([H])(N([H])C([H])([H])[H])C([H])([H])[H])C(C([H])([H])[H])(C([H])([H])[H])C([H])([H])[H])C([H])([H])c2c([H])c(OC([H])([H])C([H])([H])C([H])([H])[N+]([H])(C([H])([H])[H])C([H])([H])c3c([H])c([H])c(N([H])C(=O)N4C([H])([H])C([H])([H])C([H])([H])C([H])(n5nc(-c6c([H])c([H])c(Oc7c([H])c([H])c(F)c([H])c7F)c([H])c6[H])c(C(=O)N([H])[H])c5N([H])[H])C4([H])[H])c(F)c3[H])c([H])c([H])c2C1([H])[H]

$$$$
37:0:0
     RDKit          3D

 95103  0  0  1  0  0  0  0  0999 V2000
  -30.9910  -22.1760   18.4810 C   0  0  0  0  0  0  0  0  0  0  0  0
  -29.9720  -21.8480   19.3280 N   0  0  0  0  0  0  0  0  0  0  0  0
  -32.0420  -21.5220   18.4430 O   0  0  0  0  0  0  0  0  0  0  0  0
  -29.6400  -18.0730   19.0760 C   0  0  0  0  0  3  0  0  0  0  0  0
  -29.5950  -18.6930   21.4190 C   0  0  0  0  0  3  0  0  0  0  0  0
  -29.7750  -19.4360   18.7260 C   0  0  0  0  0  3  0  0  0  0  0  0
  -29.7350  -20.0600   21.0690 C   0  0  0  0  0  3  0  0  0  0  0  0
  -29.5340  -17.6850   20.4270 C   0  0  0  0  0  0  0  0  0  0  0  0
  -29.8290  -20.4570   19.7120 C   0  0  0  0  0  0  0  0  0  0  0  0
  -29.2590  -16.2130   20.7950 C   0  0  0  0  0  2  0  0  0  0  0  0
  -30.7590  -14.3770   20.0150 C   0  0  0  0  0  0  0  0  0  0  0  0
  -30.3010  -12.2070   18.9110 C   0  0  0  0  0  2  0  0  0  0  0  0
  -29.2920  -12.3760   17.7600 C   0  0  0  0  0  2  0  0  0  0  0  0
  -27.8500  -12.2450   18.2810 C   0  0  0  0  0  2  0  0  0  0  0  0
  -27.5950  -13.1250   19.5290 C   0  0  0  0  0  3  0  0  0  0  0  0
  -28.7200  -12.9650   20.5840 C   0  0  0  0  0  2  0  0  0  0  0  0
  -30.0110  -13.2350   19.9300 N   0  0  0  0  0  0  0  0  0  0  0  0
  -31.8030  -14.5140   19.3670 O   0  0  0  0  0  0  0  0  0  0  0  0
  -31.4870  -15.8870   21.7710 C   0  0  0  0  0  1  0  0  0  0  0  0
  -30.4210  -15.3110   20.9440 N   0  0  0  0  0  0  0  0  0  0  0  0
  -25.2830  -13.7940   20.4370 C   0  0  0  0  0  0  0  0  0  0  0  0
  -24.2160  -13.0490   20.8580 C   0  0  0  0  0  0  0  0  0  0  0  0
  -24.6210  -11.6830   20.7500 C   0  0  0  0  0  0  0  0  0  0  0  0
  -26.2730  -12.8850   20.1020 N   0  0  0  0  0  0  0  0  0  0  0  0
  -25.8840  -11.6080   20.3500 N   0  0  0  0  0  0  0  0  0  0  0  0
  -23.8630  -10.4420   20.9530 C   0  0  0  0  0  0  0  0  0  0  0  0
  -24.2830   -9.4640   21.8810 C   0  0  0  0  0  3  0  0  0  0  0  0
  -23.5280   -8.2860   22.0690 C   0  0  0  0  0  3  0  0  0  0  0  0
  -22.3390   -8.0790   21.3300 C   0  0  0  0  0  0  0  0  0  0  0  0
  -21.9380   -9.0460   20.3920 C   0  0  0  0  0  3  0  0  0  0  0  0
  -22.6930  -10.2150   20.2010 C   0  0  0  0  0  3  0  0  0  0  0  0
  -21.5550   -6.9550   21.4290 O   0  0  0  0  0  0  0  0  0  0  0  0
  -21.4710   -6.2400   22.5960 C   0  0  0  0  0  0  0  0  0  0  0  0
  -20.9850   -6.8140   23.7910 C   0  0  0  0  0  3  0  0  0  0  0  0
  -20.8510   -6.0210   24.9480 C   0  0  0  0  0  3  0  0  0  0  0  0
  -21.1900   -4.6560   24.9110 C   0  0  0  0  0  0  0  0  0  0  0  0
  -21.6680   -4.0810   23.7200 C   0  0  0  0  0  3  0  0  0  0  0  0
  -21.8050   -4.8710   22.5660 C   0  0  0  0  0  0  0  0  0  0  0  0
  -22.2460   -4.3070   21.4150 F   0  0  0  0  0  0  0  0  0  0  0  0
  -21.0530   -3.8930   26.0200 F   0  0  0  0  0  0  0  0  0  0  0  0
  -22.8600  -13.5660   21.2480 C   0  0  0  0  0  0  0  0  0  0  0  0
  -22.1700  -12.8650   22.1410 N   0  0  0  0  0  0  0  0  0  0  0  0
  -22.4270  -14.6260   20.7970 O   0  0  0  0  0  0  0  0  0  0  0  0
  -22.5360  -12.0070   22.5260 H   0  0  0  0  0  0  0  0  0  0  0  0
  -21.2620  -13.1890   22.4430 H   0  0  0  0  0  0  0  0  0  0  0  0
  -25.4890  -15.1630   20.2880 N   0  0  0  0  0  0  0  0  0  0  0  0
  -24.7580  -15.8410   20.4740 H   0  0  0  0  0  0  0  0  0  0  0  0
  -26.3160  -15.5750   19.8760 H   0  0  0  0  0  0  0  0  0  0  0  0
  -30.9690  -22.9290   16.0510 C   0  0  0  0  0  1  0  0  0  0  0  0
  -32.0010  -24.4080   17.8180 C   0  0  0  0  0  1  0  0  0  0  0  0
  -30.8880  -23.3830   17.5200 C   0  0  0  0  0  3  0  0  0  0  0  0
  -28.9040  -22.8100   19.7380 C   0  0  0  0  0  2  0  0  0  0  0  0
  -29.3380  -24.2210   20.2860 C   0  0  0  0  0  2  0  0  0  0  0  0
  -28.1510  -25.1700   20.6010 C   0  0  0  0  0  2  0  0  0  0  0  0
  -28.3880  -26.5620   20.2590 O   0  0  0  0  0  0  0  0  0  0  0  0
  -24.6300  -31.8500   23.2470 C   0  0  0  0  0  0  0  0  0  0  0  0
  -27.2550  -27.3580   20.2040 C   0  0  0  0  0  0  0  0  0  0  0  0
  -23.4270  -30.4520   21.6020 C   0  0  0  0  0  3  0  0  0  0  0  0
  -24.8810  -28.9140   20.1790 C   0  0  0  0  0  0  0  0  0  0  0  0
  -25.9610  -30.7890   21.4240 C   0  0  0  0  0  2  0  0  0  0  0  0
  -26.0420  -29.4190   20.7790 C   0  0  0  0  0  0  0  0  0  0  0  0
  -27.2340  -28.6490   20.7870 C   0  0  0  0  0  3  0  0  0  0  0  0
  -26.0840  -26.8970   19.5600 C   0  0  0  0  0  3  0  0  0  0  0  0
  -24.9010  -27.6550   19.5620 C   0  0  0  0  0  3  0  0  0  0  0  0
  -23.6420  -29.7790   20.2210 C   0  0  0  0  0  2  0  0  0  0  0  0
  -24.6910  -31.0470   22.1480 N   0  0  0  0  0  0  0  0  0  0  0  0
  -23.5470  -32.1280   23.7810 O   0  0  0  0  0  0  0  0  0  0  0  0
  -22.7700  -29.4310   22.5600 C   0  0  0  0  0  0  0  0  0  0  0  0
  -21.4450  -29.2540   22.4290 N   0  0  0  0  0  0  0  0  0  0  0  0
  -23.4490  -28.8030   23.3760 O   0  0  0  0  0  0  0  0  0  0  0  0
  -20.9580  -29.8070   21.7380 H   0  0  0  0  0  0  0  0  0  0  0  0
  -18.0610  -28.0940   22.9390 C   0  0  0  0  0  0  0  0  0  0  0  0
  -20.6230  -28.3210   23.2000 C   0  0  0  0  0  3  0  0  0  0  0  0
  -20.7060  -26.8910   22.6210 C   0  0  0  0  0  2  0  0  0  0  0  0
  -19.5990  -26.5860   21.6060 C   0  0  0  0  0  2  0  0  0  0  0  0
  -18.2170  -26.7480   22.2500 C   0  0  0  0  0  2  0  0  0  0  0  0
  -19.1900  -28.8390   23.3700 C   0  0  0  0  0  0  0  0  0  0  0  0
  -18.9900  -30.1010   23.9710 C   0  0  0  0  0  3  0  0  0  0  0  0
  -17.6930  -30.6180   24.1460 C   0  0  0  0  0  3  0  0  0  0  0  0
  -16.5760  -29.8680   23.7350 C   0  0  0  0  0  3  0  0  0  0  0  0
  -16.7610  -28.6080   23.1370 C   0  0  0  0  0  3  0  0  0  0  0  0
  -25.9150  -32.4810   23.8680 C   0  0  0  0  0  3  0  0  0  0  0  0
  -25.6040  -33.8770   24.2030 N   0  0  0  0  0  0  0  0  0  0  0  0
  -25.9160  -34.9310   23.4380 C   0  0  0  0  0  0  0  0  0  0  0  0
  -26.5700  -34.8320   22.3970 O   0  0  0  0  0  0  0  0  0  0  0  0
  -25.0260  -34.0300   25.0180 H   0  0  0  0  0  0  0  0  0  0  0  0
  -24.1730  -36.7100   23.1100 C   0  0  0  0  0  1  0  0  0  0  0  0
  -25.4270  -36.3170   23.9040 C   0  0  0  0  0  3  0  0  0  0  0  0
  -27.5650  -37.2170   24.7100 C   0  0  0  0  0  1  0  0  0  0  0  0
  -26.4520  -37.3750   23.7760 N   0  0  0  0  0  0  0  0  0  0  0  0
  -26.0430  -38.2940   23.9260 H   0  0  0  0  0  0  0  0  0  0  0  0
  -26.4350  -31.7050   25.1380 C   0  0  1  0  0  0  0  0  0  0  0  0
  -25.3420  -31.4580   26.2050 C   0  0  0  0  0  1  0  0  0  0  0  0
  -27.0190  -30.3300   24.7380 C   0  0  0  0  0  1  0  0  0  0  0  0
  -27.5840  -32.5000   25.8020 C   0  0  0  0  0  1  0  0  0  0  0  0
  1  2  1  0
  2  9  1  0
  2 52  1  0
  3  1  2  0
  4  8  1  0
  6  4  2  0
  6  9  1  0
  7  5  1  0
  8 10  1  0
  8  5  2  0
  9  7  2  0
 10 20  1  0
 11 20  1  0
 12 17  1  0
 13 14  1  0
 13 12  1  0
 15 14  1  0
 15 24  1  0
 15 16  1  0
 17 11  1  0
 17 16  1  0
 18 11  2  0
 20 19  1  0
 21 22  2  0
 22 41  1  0
 23 22  1  0
 23 26  1  0
 24 25  1  0
 24 21  1  0
 25 23  2  0
 26 27  1  0
 27 28  2  0
 29 32  1  0
 29 28  1  0
 30 29  2  0
 31 30  1  0
 31 26  2  0
 32 33  1  0
 33 34  1  0
 34 35  2  0
 36 35  1  0
 36 40  1  0
 37 36  2  0
 38 33  2  0
 38 37  1  0
 39 38  1  0
 41 42  1  0
 42 45  1  0
 42 44  1  0
 43 41  2  0
 46 21  1  0
 46 47  1  0
 48 46  1  0
 49 51  1  0
 51 50  1  0
 51  1  1  0
 52 53  1  0
 53 54  1  0
 55 54  1  0
 56 67  2  0
 57 55  1  0
 57 62  1  0
 58 66  1  0
 58 68  1  0
 59 65  1  0
 59 61  1  0
 60 66  1  0
 61 62  2  0
 61 60  1  0
 63 64  1  0
 63 57  2  0
 64 59  2  0
 65 58  1  0
 66 56  1  0
 68 70  2  0
 69 68  1  0
 71 69  1  0
 72 81  2  0
 72 77  1  0
 73 69  1  0
 73 77  1  0
 74 73  1  0
 75 76  1  0
 75 74  1  0
 76 72  1  0
 77 78  2  0
 78 79  1  0
 80 79  2  0
 81 80  1  0
 82 56  1  0
 82 83  1  0
 82 92  1  0
 83 86  1  0
 84 88  1  0
 84 83  1  0
 85 84  2  0
 88 87  1  0
 90 88  1  0
 90 91  1  0
 90 89  1  0
 92 95  1  1
 92 93  1  0
 94 92  1  0
M  ISO  4  11 100  20 100  54 101  55 101
M  END
>  <TORSDO>  (38) 
F 22

>  <SCORE>  (38) 
-12.511

>  <name>  (38) 
37

>  <ligand_id>  (38) 
37

>  <original_smiles>  (38) 
[H]c1c([H])c([H])c2c(c1[H])C([H])([H])C([H])([H])C([H])([H])C2([H])N([H])C(=O)C1([H])N(C(=O)C([H])(N([H])C(=O)C([H])(N([H])C([H])([H])[H])C([H])([H])[H])C(C([H])([H])[H])(C([H])([H])[H])C([H])([H])[H])C([H])([H])c2c([H])c(OC([H])([H])C([H])([H])C([H])([H])N(C(=O)C([H])(C([H])([H])[H])C([H])([H])[H])c3c([H])c([H])c(C([H])([H])N(C(=O)N4C([H])([H])C([H])([H])C([H])([H])C([H])(n5nc(-c6c([H])c([H])c(Oc7c([H])c([H])c(F)c([H])c7F)c([H])c6[H])c(C(=O)N([H])[H])c5N([H])[H])C4([H])[H])C([H])([H])[H])c([H])c3[H])c([H])c([H])c2C1([H])[H]

>  <smiles>  (38) 
[H]c1c([H])c([H])c2c(c1[H])C([H])([H])C([H])([H])C([H])([H])C2([H])N([H])C(=O)C1([H])N(C(=O)C([H])(N([H])C(=O)C([H])(N([H])C([H])([H])[H])C([H])([H])[H])C(C([H])([H])[H])(C([H])([H])[H])C([H])([H])[H])C([H])([H])c2c([H])c(OC([H])([H])C([H])([H])C([H])([H])N(C(=O)C([H])(C([H])([H])[H])C([H])([H])[H])c3c([H])c([H])c(C([H])([H])N(C(=O)N4C([H])([H])C([H])([H])C([H])([H])C([H])(n5nc(-c6c([H])c([H])c(Oc7c([H])c([H])c(F)c([H])c7F)c([H])c6[H])c(C(=O)N([H])[H])c5N([H])[H])C4([H])[H])C([H])([H])[H])c([H])c3[H])c([H])c([H])c2C1([H])[H]

$$$$
38:0:0
     RDKit          3D

 92100  0  0  1  0  0  0  0  0999 V2000
  -27.4750  -21.8960   19.7850 C   0  0  0  0  0  2  0  0  0  0  0  0
  -30.1160  -19.2310   18.9880 C   0  0  0  0  0  3  0  0  0  0  0  0
  -28.4630  -18.2270   20.4710 C   0  0  0  0  0  3  0  0  0  0  0  0
  -29.3630  -20.4150   18.9350 C   0  0  0  0  0  3  0  0  0  0  0  0
  -27.7190  -19.4290   20.4370 C   0  0  0  0  0  3  0  0  0  0  0  0
  -29.6920  -18.1390   19.7750 C   0  0  0  0  0  0  0  0  0  0  0  0
  -28.1890  -20.5460   19.7060 C   0  0  0  0  0  0  0  0  0  0  0  0
  -30.6420  -16.9530   19.9240 C   0  0  0  0  0  2  0  0  0  0  0  0
  -30.7670  -14.5000   19.9320 C   0  0  0  0  0  0  0  0  0  0  0  0
  -30.3600  -12.3160   18.9120 C   0  0  0  0  0  2  0  0  0  0  0  0
  -29.3540  -12.5090   17.7610 C   0  0  0  0  0  2  0  0  0  0  0  0
  -27.9090  -12.3960   18.2850 C   0  0  0  0  0  2  0  0  0  0  0  0
  -27.6510  -13.2730   19.5420 C   0  0  0  0  0  3  0  0  0  0  0  0
  -28.7740  -13.1050   20.5880 C   0  0  0  0  0  2  0  0  0  0  0  0
  -30.0550  -13.3440   19.9140 N   0  0  0  0  0  0  0  0  0  0  0  0
  -31.9270  -14.5780   19.5240 O   0  0  0  0  0  0  0  0  0  0  0  0
  -30.0640  -15.6250   20.1680 N   0  0  0  0  0  0  0  0  0  0  0  0
  -29.0940  -15.5560   20.4210 H   0  0  0  0  0  0  0  0  0  0  0  0
  -25.3480  -13.9180   20.4860 C   0  0  0  0  0  0  0  0  0  0  0  0
  -24.2870  -13.1600   20.9020 C   0  0  0  0  0  0  0  0  0  0  0  0
  -24.7060  -11.7990   20.7890 C   0  0  0  0  0  0  0  0  0  0  0  0
  -26.3380  -13.0160   20.1280 N   0  0  0  0  0  0  0  0  0  0  0  0
  -25.9620  -11.7350   20.3730 N   0  0  0  0  0  0  0  0  0  0  0  0
  -23.9590  -10.5520   20.9970 C   0  0  0  0  0  0  0  0  0  0  0  0
  -24.4050   -9.5670   21.9040 C   0  0  0  0  0  3  0  0  0  0  0  0
  -23.6640   -8.3830   22.0990 C   0  0  0  0  0  3  0  0  0  0  0  0
  -22.4580   -8.1780   21.3880 C   0  0  0  0  0  0  0  0  0  0  0  0
  -22.0270   -9.1530   20.4710 C   0  0  0  0  0  3  0  0  0  0  0  0
  -22.7710  -10.3290   20.2760 C   0  0  0  0  0  3  0  0  0  0  0  0
  -21.6830   -7.0470   21.4940 O   0  0  0  0  0  0  0  0  0  0  0  0
  -21.6220   -6.3170   22.6520 C   0  0  0  0  0  0  0  0  0  0  0  0
  -21.1930   -6.8850   23.8720 C   0  0  0  0  0  3  0  0  0  0  0  0
  -21.0820   -6.0810   25.0220 C   0  0  0  0  0  3  0  0  0  0  0  0
  -21.3890   -4.7080   24.9550 C   0  0  0  0  0  0  0  0  0  0  0  0
  -21.8080   -4.1380   23.7410 C   0  0  0  0  0  3  0  0  0  0  0  0
  -21.9210   -4.9400   22.5900 C   0  0  0  0  0  0  0  0  0  0  0  0
  -22.3040   -4.3850   21.4170 F   0  0  0  0  0  0  0  0  0  0  0  0
  -21.2770   -3.9290   26.0570 F   0  0  0  0  0  0  0  0  0  0  0  0
  -22.9310  -13.6660   21.3010 C   0  0  0  0  0  0  0  0  0  0  0  0
  -22.2560  -12.9570   22.1970 N   0  0  0  0  0  0  0  0  0  0  0  0
  -22.4830  -14.7230   20.8570 O   0  0  0  0  0  0  0  0  0  0  0  0
  -22.6360  -12.0960   22.5620 H   0  0  0  0  0  0  0  0  0  0  0  0
  -21.3490  -13.2710   22.5100 H   0  0  0  0  0  0  0  0  0  0  0  0
  -25.5430  -15.2920   20.3740 N   0  0  0  0  0  0  0  0  0  0  0  0
  -24.8060  -15.9430   20.6250 H   0  0  0  0  0  0  0  0  0  0  0  0
  -26.4000  -15.7510   20.1020 H   0  0  0  0  0  0  0  0  0  0  0  0
  -28.6320  -22.7490   21.8080 C   0  0  0  0  0  1  0  0  0  0  0  0
  -28.3410  -22.9660   20.3660 N   0  0  2  0  0  4  0  0  0  0  0  0
  -29.2320  -22.8780   19.8990 H   0  0  0  0  0  0  0  0  0  0  0  0
  -27.8490  -24.3360   20.0230 C   0  0  0  0  0  2  0  0  0  0  0  0
  -28.5100  -25.4990   20.8120 C   0  0  0  0  0  2  0  0  0  0  0  0
  -28.5140  -26.7500   20.1260 O   0  0  0  0  0  0  0  0  0  0  0  0
  -24.6770  -31.8720   23.2530 C   0  0  0  0  0  0  0  0  0  0  0  0
  -27.3410  -27.4600   20.1640 C   0  0  0  0  0  0  0  0  0  0  0  0
  -23.4900  -30.4810   21.5890 C   0  0  0  0  0  3  0  0  0  0  0  0
  -24.9530  -28.9530   20.1740 C   0  0  0  0  0  0  0  0  0  0  0  0
  -26.0140  -30.8440   21.4150 C   0  0  0  0  0  2  0  0  0  0  0  0
  -26.1040  -29.4740   20.7780 C   0  0  0  0  0  0  0  0  0  0  0  0
  -27.3050  -28.7340   20.7700 C   0  0  0  0  0  3  0  0  0  0  0  0
  -26.1790  -26.9540   19.5460 C   0  0  0  0  0  3  0  0  0  0  0  0
  -24.9810  -27.6870   19.5640 C   0  0  0  0  0  3  0  0  0  0  0  0
  -23.7160  -29.8180   20.2060 C   0  0  0  0  0  2  0  0  0  0  0  0
  -24.7450  -31.0800   22.1450 N   0  0  0  0  0  0  0  0  0  0  0  0
  -23.5890  -32.1410   23.7810 O   0  0  0  0  0  0  0  0  0  0  0  0
  -22.8290  -29.4480   22.5330 C   0  0  0  0  0  0  0  0  0  0  0  0
  -21.5010  -29.2840   22.4060 N   0  0  0  0  0  0  0  0  0  0  0  0
  -23.5080  -28.8000   23.3330 O   0  0  0  0  0  0  0  0  0  0  0  0
  -21.0130  -29.8700   21.7430 H   0  0  0  0  0  0  0  0  0  0  0  0
  -18.1090  -28.1300   22.9000 C   0  0  0  0  0  0  0  0  0  0  0  0
  -20.6740  -28.3420   23.1620 C   0  0  0  0  0  3  0  0  0  0  0  0
  -20.7510  -26.9210   22.5580 C   0  0  0  0  0  2  0  0  0  0  0  0
  -19.6390  -26.6330   21.5450 C   0  0  0  0  0  2  0  0  0  0  0  0
  -18.2610  -26.7910   22.1960 C   0  0  0  0  0  2  0  0  0  0  0  0
  -19.2430  -28.8660   23.3380 C   0  0  0  0  0  0  0  0  0  0  0  0
  -19.0460  -30.1220   23.9500 C   0  0  0  0  0  3  0  0  0  0  0  0
  -17.7520  -30.6400   24.1330 C   0  0  0  0  0  3  0  0  0  0  0  0
  -16.6340  -29.9000   23.7140 C   0  0  0  0  0  3  0  0  0  0  0  0
  -16.8130  -28.6480   23.1000 C   0  0  0  0  0  3  0  0  0  0  0  0
  -25.9550  -32.5010   23.8920 C   0  0  0  0  0  3  0  0  0  0  0  0
  -25.6540  -33.9020   24.2160 N   0  0  0  0  0  0  0  0  0  0  0  0
  -25.9720  -34.9450   23.4420 C   0  0  0  0  0  0  0  0  0  0  0  0
  -26.6300  -34.8340   22.4050 O   0  0  0  0  0  0  0  0  0  0  0  0
  -25.1010  -34.0700   25.0460 H   0  0  0  0  0  0  0  0  0  0  0  0
  -24.2290  -36.7250   23.0910 C   0  0  0  0  0  1  0  0  0  0  0  0
  -25.4820  -36.3350   23.8920 C   0  0  0  0  0  3  0  0  0  0  0  0
  -27.6200  -37.2380   24.6980 C   0  0  0  0  0  1  0  0  0  0  0  0
  -26.5070  -37.3920   23.7600 N   0  0  0  0  0  0  0  0  0  0  0  0
  -26.0990  -38.3120   23.9060 H   0  0  0  0  0  0  0  0  0  0  0  0
  -26.4500  -31.7350   25.1780 C   0  0  1  0  0  0  0  0  0  0  0  0
  -25.3360  -31.5060   26.2250 C   0  0  0  0  0  1  0  0  0  0  0  0
  -27.0370  -30.3590   24.7930 C   0  0  0  0  0  1  0  0  0  0  0  0
  -27.5920  -32.5310   25.8610 C   0  0  0  0  0  1  0  0  0  0  0  0
  1 48  1  0
  2  6  1  0
  4  2  2  0
  4  7  1  0
  5  3  1  0
  6  8  1  0
  6  3  2  0
  7  1  1  0
  7  5  2  0
  8 17  1  0
  9 17  1  0
 10 15  1  0
 11 12  1  0
 11 10  1  0
 13 12  1  0
 13 22  1  0
 13 14  1  0
 15  9  1  0
 15 14  1  0
 16  9  2  0
 17 18  1  0
 19 20  2  0
 20 39  1  0
 21 20  1  0
 21 24  1  0
 22 23  1  0
 22 19  1  0
 23 21  2  0
 24 25  1  0
 25 26  2  0
 27 30  1  0
 27 26  1  0
 28 27  2  0
 29 28  1  0
 29 24  2  0
 30 31  1  0
 31 32  1  0
 32 33  2  0
 34 33  1  0
 34 38  1  0
 35 34  2  0
 36 31  2  0
 36 35  1  0
 37 36  1  0
 39 40  1  0
 40 43  1  0
 40 42  1  0
 41 39  2  0
 44 19  1  0
 44 45  1  0
 46 44  1  0
 48 47  1  0
 48 49  1  6
 50 48  1  0
 50 51  1  0
 52 54  1  0
 52 51  1  0
 53 64  2  0
 54 59  1  0
 55 63  1  0
 55 65  1  0
 56 62  1  0
 56 58  1  0
 57 63  1  0
 58 57  1  0
 59 58  2  0
 60 61  1  0
 60 54  2  0
 61 56  2  0
 62 55  1  0
 63 53  1  0
 65 67  2  0
 66 65  1  0
 68 66  1  0
 69 78  2  0
 69 74  1  0
 70 66  1  0
 70 74  1  0
 71 70  1  0
 72 73  1  0
 72 71  1  0
 73 69  1  0
 74 75  2  0
 75 76  1  0
 77 76  2  0
 78 77  1  0
 79 53  1  0
 79 80  1  0
 79 89  1  0
 80 83  1  0
 81 85  1  0
 81 80  1  0
 82 81  2  0
 85 84  1  0
 87 85  1  0
 87 88  1  0
 87 86  1  0
 89 92  1  1
 89 90  1  0
 91 89  1  0
M  ISO  4   9 100  17 100  51 101  52 101
M  END
>  <TORSDO>  (39) 
F 21

>  <SCORE>  (39) 
-13.156

>  <name>  (39) 
38

>  <ligand_id>  (39) 
38

>  <original_smiles>  (39) 
[H]c1c([H])c([H])c2c(c1[H])C([H])([H])C([H])([H])C([H])([H])C2([H])N([H])C(=O)C1([H])N(C(=O)C([H])(N([H])C(=O)C([H])(N([H])C([H])([H])[H])C([H])([H])[H])C(C([H])([H])[H])(C([H])([H])[H])C([H])([H])[H])C([H])([H])c2c([H])c(OC([H])([H])C([H])([H])[N+]([H])(C([H])([H])[H])C([H])([H])c3c([H])c([H])c(C([H])([H])N([H])C(=O)N4C([H])([H])C([H])([H])C([H])([H])C([H])(n5nc(-c6c([H])c([H])c(Oc7c([H])c([H])c(F)c([H])c7F)c([H])c6[H])c(C(=O)N([H])[H])c5N([H])[H])C4([H])[H])c([H])c3[H])c([H])c([H])c2C1([H])[H]

>  <smiles>  (39) 
[H]c1c([H])c([H])c2c(c1[H])C([H])([H])C([H])([H])C([H])([H])C2([H])N([H])C(=O)C1([H])N(C(=O)C([H])(N([H])C(=O)C([H])(N([H])C([H])([H])[H])C([H])([H])[H])C(C([H])([H])[H])(C([H])([H])[H])C([H])([H])[H])C([H])([H])c2c([H])c(OC([H])([H])C([H])([H])[N+]([H])(C([H])([H])[H])C([H])([H])c3c([H])c([H])c(C([H])([H])N([H])C(=O)N4C([H])([H])C([H])([H])C([H])([H])C([H])(n5nc(-c6c([H])c([H])c(Oc7c([H])c([H])c(F)c([H])c7F)c([H])c6[H])c(C(=O)N([H])[H])c5N([H])[H])C4([H])[H])c([H])c3[H])c([H])c([H])c2C1([H])[H]

$$$$
39:0:0
     RDKit          3D

 90 98  0  0  1  0  0  0  0  0999 V2000
  -29.5440  -18.1180   21.4500 C   0  0  0  0  0  3  0  0  0  0  0  0
  -29.3420  -19.5070   21.1780 C   0  0  0  0  0  3  0  0  0  0  0  0
  -30.3080  -17.7510   19.2130 C   0  0  0  0  0  3  0  0  0  0  0  0
  -30.0500  -17.1810   20.4910 C   0  0  0  0  0  0  0  0  0  0  0  0
  -29.6330  -20.0710   19.9110 C   0  0  0  0  0  0  0  0  0  0  0  0
  -30.1120  -19.1430   18.9400 C   0  0  0  0  0  0  0  0  0  0  0  0
  -30.4010  -19.6000   17.6960 F   0  0  0  0  0  0  0  0  0  0  0  0
  -30.8040  -14.7500   20.0400 C   0  0  0  0  0  0  0  0  0  0  0  0
  -30.4600  -12.5680   18.8610 C   0  0  0  0  0  2  0  0  0  0  0  0
  -29.4390  -12.7240   17.7140 C   0  0  0  0  0  2  0  0  0  0  0  0
  -28.0000  -12.5430   18.2340 C   0  0  0  0  0  2  0  0  0  0  0  0
  -27.7290  -13.3720   19.5160 C   0  0  0  0  0  3  0  0  0  0  0  0
  -28.8510  -13.1800   20.5520 C   0  0  0  0  0  2  0  0  0  0  0  0
  -30.1270  -13.5540   19.9160 N   0  0  0  0  0  0  0  0  0  0  0  0
  -31.8580  -14.9310   19.4230 O   0  0  0  0  0  0  0  0  0  0  0  0
  -30.3360  -15.4510   22.2860 C   0  0  0  0  0  1  0  0  0  0  0  0
  -30.2760  -15.7500   20.8440 N   0  0  0  0  0  0  0  0  0  0  0  0
  -25.3970  -13.9580   20.4210 C   0  0  0  0  0  0  0  0  0  0  0  0
  -24.3550  -13.1770   20.8420 C   0  0  0  0  0  0  0  0  0  0  0  0
  -24.8060  -11.8250   20.7400 C   0  0  0  0  0  0  0  0  0  0  0  0
  -26.4160  -13.0800   20.0850 N   0  0  0  0  0  0  0  0  0  0  0  0
  -26.0700  -11.7910   20.3380 N   0  0  0  0  0  0  0  0  0  0  0  0
  -24.0870  -10.5620   20.9460 C   0  0  0  0  0  0  0  0  0  0  0  0
  -24.5520   -9.5870   21.8570 C   0  0  0  0  0  3  0  0  0  0  0  0
  -23.8320   -8.3880   22.0500 C   0  0  0  0  0  3  0  0  0  0  0  0
  -22.6360   -8.1530   21.3320 C   0  0  0  0  0  0  0  0  0  0  0  0
  -22.1910   -9.1160   20.4090 C   0  0  0  0  0  3  0  0  0  0  0  0
  -22.9110  -10.3070   20.2140 C   0  0  0  0  0  3  0  0  0  0  0  0
  -21.8860   -7.0070   21.4350 O   0  0  0  0  0  0  0  0  0  0  0  0
  -21.8370   -6.2810   22.5980 C   0  0  0  0  0  0  0  0  0  0  0  0
  -21.3930   -6.8480   23.8120 C   0  0  0  0  0  3  0  0  0  0  0  0
  -21.2920   -6.0470   24.9680 C   0  0  0  0  0  3  0  0  0  0  0  0
  -21.6260   -4.6820   24.9100 C   0  0  0  0  0  0  0  0  0  0  0  0
  -22.0640   -4.1140   23.7000 C   0  0  0  0  0  3  0  0  0  0  0  0
  -22.1660   -4.9120   22.5470 C   0  0  0  0  0  0  0  0  0  0  0  0
  -22.5680   -4.3550   21.3790 F   0  0  0  0  0  0  0  0  0  0  0  0
  -21.5220   -3.9100   26.0170 F   0  0  0  0  0  0  0  0  0  0  0  0
  -22.9830  -13.6520   21.2260 C   0  0  0  0  0  0  0  0  0  0  0  0
  -22.3170  -12.9360   22.1250 N   0  0  0  0  0  0  0  0  0  0  0  0
  -22.5140  -14.6920   20.7660 O   0  0  0  0  0  0  0  0  0  0  0  0
  -22.7100  -12.0930   22.5170 H   0  0  0  0  0  0  0  0  0  0  0  0
  -21.3990  -13.2350   22.4250 H   0  0  0  0  0  0  0  0  0  0  0  0
  -25.5600  -15.3320   20.2770 N   0  0  0  0  0  0  0  0  0  0  0  0
  -24.8150  -15.9910   20.4750 H   0  0  0  0  0  0  0  0  0  0  0  0
  -26.4010  -15.7780   19.9310 H   0  0  0  0  0  0  0  0  0  0  0  0
  -29.4980  -21.4370   19.5570 O   0  0  0  0  0  0  0  0  0  0  0  0
  -28.9230  -22.4710   20.4280 C   0  0  0  0  0  3  0  0  0  0  0  0
  -29.0120  -23.9710   19.8610 C   0  0  0  0  0  3  0  0  0  0  0  0
  -28.2850  -25.1540   20.6530 C   0  0  0  0  0  2  0  0  0  0  0  0
  -28.4820  -26.5690   20.2380 O   0  0  0  0  0  0  0  0  0  0  0  0
  -24.6410  -31.9150   23.2270 C   0  0  0  0  0  0  0  0  0  0  0  0
  -27.3600  -27.4070   20.2040 C   0  0  0  0  0  0  0  0  0  0  0  0
  -23.4870  -30.5230   21.5440 C   0  0  0  0  0  3  0  0  0  0  0  0
  -24.9840  -28.9940   20.1420 C   0  0  0  0  0  0  0  0  0  0  0  0
  -26.0270  -30.8650   21.4240 C   0  0  0  0  0  2  0  0  0  0  0  0
  -26.1340  -29.4920   20.7700 C   0  0  0  0  0  0  0  0  0  0  0  0
  -27.3280  -28.7110   20.7870 C   0  0  0  0  0  3  0  0  0  0  0  0
  -26.1920  -26.9610   19.5500 C   0  0  0  0  0  3  0  0  0  0  0  0
  -25.0160  -27.7340   19.5220 C   0  0  0  0  0  3  0  0  0  0  0  0
  -23.7410  -29.8590   20.1640 C   0  0  0  0  0  2  0  0  0  0  0  0
  -24.7360  -31.1190   22.1230 N   0  0  0  0  0  0  0  0  0  0  0  0
  -23.5420  -32.1790   23.7380 O   0  0  0  0  0  0  0  0  0  0  0  0
  -22.8090  -29.4940   22.4790 C   0  0  0  0  0  0  0  0  0  0  0  0
  -21.4880  -29.3050   22.3130 N   0  0  0  0  0  0  0  0  0  0  0  0
  -23.4700  -28.8690   23.3120 O   0  0  0  0  0  0  0  0  0  0  0  0
  -21.0140  -29.8630   21.6170 H   0  0  0  0  0  0  0  0  0  0  0  0
  -18.1140  -28.0620   22.6940 C   0  0  0  0  0  0  0  0  0  0  0  0
  -20.6580  -28.3540   23.0520 C   0  0  0  0  0  3  0  0  0  0  0  0
  -20.7990  -26.9250   22.4760 C   0  0  0  0  0  2  0  0  0  0  0  0
  -19.7370  -26.5930   21.4230 C   0  0  0  0  0  2  0  0  0  0  0  0
  -18.3320  -26.7160   22.0200 C   0  0  0  0  0  2  0  0  0  0  0  0
  -19.2070  -28.8370   23.1630 C   0  0  0  0  0  0  0  0  0  0  0  0
  -18.9500  -30.0950   23.7520 C   0  0  0  0  0  3  0  0  0  0  0  0
  -17.6340  -30.5780   23.8740 C   0  0  0  0  0  3  0  0  0  0  0  0
  -16.5560  -29.8000   23.4200 C   0  0  0  0  0  3  0  0  0  0  0  0
  -16.7950  -28.5430   22.8360 C   0  0  0  0  0  3  0  0  0  0  0  0
  -25.9030  -32.5500   23.8880 C   0  0  0  0  0  3  0  0  0  0  0  0
  -26.3990  -31.7630   25.1630 C   0  0  1  0  0  0  0  0  0  0  0  0
  -25.2810  -31.4850   26.1950 C   0  0  0  0  0  1  0  0  0  0  0  0
  -27.0170  -30.4030   24.7610 C   0  0  0  0  0  1  0  0  0  0  0  0
  -27.5160  -32.5640   25.8710 C   0  0  0  0  0  1  0  0  0  0  0  0
  -25.5720  -33.9400   24.2340 N   0  0  0  0  0  0  0  0  0  0  0  0
  -25.9070  -35.0080   23.4970 C   0  0  0  0  0  0  0  0  0  0  0  0
  -26.5960  -34.9280   22.4770 O   0  0  0  0  0  0  0  0  0  0  0  0
  -24.9630  -34.0760   25.0270 H   0  0  0  0  0  0  0  0  0  0  0  0
  -24.1630  -36.7860   23.1450 C   0  0  0  0  0  1  0  0  0  0  0  0
  -25.3970  -36.3840   23.9680 C   0  0  0  0  0  3  0  0  0  0  0  0
  -27.5090  -37.2830   24.8420 C   0  0  0  0  0  1  0  0  0  0  0  0
  -26.4190  -37.4500   23.8840 N   0  0  0  0  0  0  0  0  0  0  0  0
  -26.0000  -38.3640   24.0360 H   0  0  0  0  0  0  0  0  0  0  0  0
  2  1  1  0
  3  4  1  0
  4 17  1  0
  4  1  2  0
  5  2  2  0
  6  3  2  0
  6  5  1  0
  7  6  1  0
  8 17  1  0
  9 14  1  0
 10 11  1  0
 10  9  1  0
 12 11  1  0
 12 21  1  0
 12 13  1  0
 14  8  1  0
 14 13  1  0
 15  8  2  0
 17 16  1  0
 18 19  2  0
 19 38  1  0
 20 19  1  0
 20 23  1  0
 21 22  1  0
 21 18  1  0
 22 20  2  0
 23 24  1  0
 24 25  2  0
 26 29  1  0
 26 25  1  0
 27 26  2  0
 28 27  1  0
 28 23  2  0
 29 30  1  0
 30 31  1  0
 31 32  2  0
 33 32  1  0
 33 37  1  0
 34 33  2  0
 35 30  2  0
 35 34  1  0
 36 35  1  0
 38 39  1  0
 39 42  1  0
 39 41  1  0
 40 38  2  0
 43 18  1  0
 43 44  1  0
 45 43  1  0
 46  5  1  0
 46 47  1  0
 48 47  2  0
 48 49  1  0
 50 49  1  0
 51 62  2  0
 52 50  1  0
 52 57  1  0
 53 61  1  0
 53 63  1  0
 54 60  1  0
 54 56  1  0
 55 61  1  0
 56 57  2  0
 56 55  1  0
 58 52  2  0
 59 58  1  0
 59 54  2  0
 60 53  1  0
 61 51  1  0
 63 65  2  0
 64 63  1  0
 66 64  1  0
 67 76  2  0
 67 72  1  0
 68 64  1  0
 68 72  1  0
 69 68  1  0
 70 71  1  0
 70 69  1  0
 71 67  1  0
 72 73  2  0
 73 74  1  0
 75 74  2  0
 76 75  1  0
 77 51  1  0
 77 82  1  0
 77 78  1  0
 78 81  1  1
 78 79  1  0
 80 78  1  0
 82 85  1  0
 83 87  1  0
 83 82  1  0
 84 83  2  0
 87 86  1  0
 89 87  1  0
 89 90  1  0
 89 88  1  0
M  ISO  4   8 100  17 100  49 101  50 101
M  END
>  <TORSDO>  (40) 
F 20

>  <SCORE>  (40) 
-12.362

>  <name>  (40) 
39

>  <ligand_id>  (40) 
39

>  <original_smiles>  (40) 
[H]c1c([H])c([H])c2c(c1[H])C([H])([H])C([H])([H])C([H])([H])C2([H])N([H])C(=O)C1([H])N(C(=O)C([H])(N([H])C(=O)C([H])(N([H])C([H])([H])[H])C([H])([H])[H])C(C([H])([H])[H])(C([H])([H])[H])C([H])([H])[H])C([H])([H])c2c([H])c(OC([H])([H])C([H])([H])C([H])([H])Oc3c([H])c([H])c(N(C(=O)N4C([H])([H])C([H])([H])C([H])([H])C([H])(n5nc(-c6c([H])c([H])c(Oc7c([H])c([H])c(F)c([H])c7F)c([H])c6[H])c(C(=O)N([H])[H])c5N([H])[H])C4([H])[H])C([H])([H])[H])c([H])c3F)c([H])c([H])c2C1([H])[H]

>  <smiles>  (40) 
[H]c1c([H])c([H])c2c(c1[H])C([H])([H])C([H])([H])C([H])([H])C2([H])N([H])C(=O)C1([H])N(C(=O)C([H])(N([H])C(=O)C([H])(N([H])C([H])([H])[H])C([H])([H])[H])C(C([H])([H])[H])(C([H])([H])[H])C([H])([H])[H])C([H])([H])c2c([H])c(OC([H])([H])C([H])([H])C([H])([H])Oc3c([H])c([H])c(N(C(=O)N4C([H])([H])C([H])([H])C([H])([H])C([H])(n5nc(-c6c([H])c([H])c(Oc7c([H])c([H])c(F)c([H])c7F)c([H])c6[H])c(C(=O)N([H])[H])c5N([H])[H])C4([H])[H])C([H])([H])[H])c([H])c3F)c([H])c([H])c2C1([H])[H]

$$$$
40:0:0
     RDKit          3D

 91 99  0  0  1  0  0  0  0  0999 V2000
  -28.1370  -22.3490   22.5800 C   0  0  0  0  0  1  0  0  0  0  0  0
  -29.0540  -22.2430   21.4440 N   0  0  0  0  0  0  0  0  0  0  0  0
  -30.6790  -18.9020   21.9470 C   0  0  0  0  0  3  0  0  0  0  0  0
  -29.8280  -18.9990   19.6790 C   0  0  0  0  0  3  0  0  0  0  0  0
  -30.1830  -20.2010   22.1870 C   0  0  0  0  0  3  0  0  0  0  0  0
  -29.3550  -20.3090   19.9130 C   0  0  0  0  0  3  0  0  0  0  0  0
  -30.4990  -18.2780   20.6950 C   0  0  0  0  0  0  0  0  0  0  0  0
  -29.5190  -20.9340   21.1740 C   0  0  0  0  0  0  0  0  0  0  0  0
  -31.1680  -16.9330   20.3840 C   0  0  0  0  0  2  0  0  0  0  0  0
  -30.8420  -14.5460   19.9580 C   0  0  0  0  0  0  0  0  0  0  0  0
  -30.3640  -12.3860   18.8480 C   0  0  0  0  0  2  0  0  0  0  0  0
  -29.3640  -12.5690   17.6880 C   0  0  0  0  0  2  0  0  0  0  0  0
  -27.9250  -12.3920   18.2000 C   0  0  0  0  0  2  0  0  0  0  0  0
  -27.6530  -13.2570   19.4570 C   0  0  0  0  0  3  0  0  0  0  0  0
  -28.7720  -13.0880   20.5060 C   0  0  0  0  0  2  0  0  0  0  0  0
  -30.0690  -13.4120   19.8750 N   0  0  0  0  0  0  0  0  0  0  0  0
  -31.8670  -14.6330   19.2680 O   0  0  0  0  0  0  0  0  0  0  0  0
  -29.8750  -15.5920   22.0130 C   0  0  0  0  0  1  0  0  0  0  0  0
  -30.4420  -15.6540   20.6600 N   0  0  0  0  0  0  0  0  0  0  0  0
  -25.3240  -13.8590   20.3650 C   0  0  0  0  0  0  0  0  0  0  0  0
  -24.2840  -13.0830   20.7990 C   0  0  0  0  0  0  0  0  0  0  0  0
  -24.7340  -11.7310   20.7070 C   0  0  0  0  0  0  0  0  0  0  0  0
  -26.3400  -12.9770   20.0310 N   0  0  0  0  0  0  0  0  0  0  0  0
  -25.9950  -11.6910   20.2940 N   0  0  0  0  0  0  0  0  0  0  0  0
  -24.0200  -10.4680   20.9300 C   0  0  0  0  0  0  0  0  0  0  0  0
  -24.4760   -9.5190   21.8700 C   0  0  0  0  0  3  0  0  0  0  0  0
  -23.7610   -8.3220   22.0820 C   0  0  0  0  0  3  0  0  0  0  0  0
  -22.5760   -8.0650   21.3530 C   0  0  0  0  0  0  0  0  0  0  0  0
  -22.1380   -9.0050   20.4030 C   0  0  0  0  0  3  0  0  0  0  0  0
  -22.8530  -10.1940   20.1910 C   0  0  0  0  0  3  0  0  0  0  0  0
  -21.8320   -6.9150   21.4700 O   0  0  0  0  0  0  0  0  0  0  0  0
  -21.7440   -6.2320   22.6560 C   0  0  0  0  0  0  0  0  0  0  0  0
  -21.2720   -6.8450   23.8380 C   0  0  0  0  0  3  0  0  0  0  0  0
  -21.1330   -6.0870   25.0160 C   0  0  0  0  0  3  0  0  0  0  0  0
  -21.4570   -4.7180   25.0170 C   0  0  0  0  0  0  0  0  0  0  0  0
  -21.9230   -4.1040   23.8400 C   0  0  0  0  0  3  0  0  0  0  0  0
  -22.0640   -4.8600   22.6640 C   0  0  0  0  0  0  0  0  0  0  0  0
  -22.4940   -4.2590   21.5270 F   0  0  0  0  0  0  0  0  0  0  0  0
  -21.3160   -3.9870   26.1470 F   0  0  0  0  0  0  0  0  0  0  0  0
  -22.9170  -13.5640   21.1920 C   0  0  0  0  0  0  0  0  0  0  0  0
  -22.2650  -12.8700   22.1190 N   0  0  0  0  0  0  0  0  0  0  0  0
  -22.4370  -14.5890   20.7100 O   0  0  0  0  0  0  0  0  0  0  0  0
  -22.6650  -12.0410   22.5300 H   0  0  0  0  0  0  0  0  0  0  0  0
  -21.3520  -13.1760   22.4220 H   0  0  0  0  0  0  0  0  0  0  0  0
  -25.4800  -15.2320   20.2090 N   0  0  0  0  0  0  0  0  0  0  0  0
  -24.7280  -15.8830   20.4090 H   0  0  0  0  0  0  0  0  0  0  0  0
  -26.3240  -15.6890   19.8850 H   0  0  0  0  0  0  0  0  0  0  0  0
  -28.9170  -23.1870   20.3270 C   0  0  0  0  0  2  0  0  0  0  0  0
  -28.7330  -24.6650   20.7560 C   0  0  0  0  0  2  0  0  0  0  0  0
  -28.6730  -25.6020   19.5350 C   0  0  0  0  0  2  0  0  0  0  0  0
  -28.5220  -26.9680   19.9240 O   0  0  0  0  0  0  0  0  0  0  0  0
  -24.6430  -31.9220   23.1970 C   0  0  0  0  0  0  0  0  0  0  0  0
  -27.2880  -27.5890   19.9660 C   0  0  0  0  0  0  0  0  0  0  0  0
  -23.4100  -30.5260   21.5620 C   0  0  0  0  0  3  0  0  0  0  0  0
  -24.8530  -29.0380   20.0760 C   0  0  0  0  0  0  0  0  0  0  0  0
  -25.9230  -30.9390   21.3000 C   0  0  0  0  0  2  0  0  0  0  0  0
  -26.0160  -29.5800   20.6330 C   0  0  0  0  0  0  0  0  0  0  0  0
  -27.2310  -28.8660   20.5710 C   0  0  0  0  0  3  0  0  0  0  0  0
  -26.0990  -27.0480   19.4210 C   0  0  0  0  0  3  0  0  0  0  0  0
  -24.8890  -27.7710   19.4700 C   0  0  0  0  0  3  0  0  0  0  0  0
  -23.5950  -29.8710   20.1650 C   0  0  0  0  0  2  0  0  0  0  0  0
  -24.6770  -31.1470   22.0760 N   0  0  0  0  0  0  0  0  0  0  0  0
  -23.5730  -32.1610   23.7750 O   0  0  0  0  0  0  0  0  0  0  0  0
  -22.8050  -29.4770   22.5230 C   0  0  0  0  0  0  0  0  0  0  0  0
  -21.4880  -29.2440   22.4020 N   0  0  0  0  0  0  0  0  0  0  0  0
  -23.5150  -28.8730   23.3320 O   0  0  0  0  0  0  0  0  0  0  0  0
  -20.9740  -29.7750   21.7130 H   0  0  0  0  0  0  0  0  0  0  0  0
  -18.1710  -27.8950   22.8690 C   0  0  0  0  0  0  0  0  0  0  0  0
  -20.7090  -28.2750   23.1730 C   0  0  0  0  0  3  0  0  0  0  0  0
  -20.8890  -26.8480   22.6060 C   0  0  0  0  0  2  0  0  0  0  0  0
  -19.8190  -26.4650   21.5810 C   0  0  0  0  0  2  0  0  0  0  0  0
  -18.4240  -26.5500   22.2070 C   0  0  0  0  0  2  0  0  0  0  0  0
  -19.2450  -28.7120   23.3060 C   0  0  0  0  0  0  0  0  0  0  0  0
  -18.9600  -29.9710   23.8790 C   0  0  0  0  0  3  0  0  0  0  0  0
  -17.6310  -30.4110   24.0260 C   0  0  0  0  0  3  0  0  0  0  0  0
  -16.5700  -29.5920   23.6050 C   0  0  0  0  0  3  0  0  0  0  0  0
  -16.8400  -28.3350   23.0330 C   0  0  0  0  0  3  0  0  0  0  0  0
  -25.9380  -32.5580   23.7930 C   0  0  0  0  0  3  0  0  0  0  0  0
  -25.6320  -33.9540   24.1340 N   0  0  0  0  0  0  0  0  0  0  0  0
  -25.9370  -35.0090   23.3650 C   0  0  0  0  0  0  0  0  0  0  0  0
  -26.5810  -34.9120   22.3170 O   0  0  0  0  0  0  0  0  0  0  0  0
  -25.0620  -34.1050   24.9540 H   0  0  0  0  0  0  0  0  0  0  0  0
  -24.1780  -36.7740   23.0510 C   0  0  0  0  0  1  0  0  0  0  0  0
  -25.4440  -36.3910   23.8340 C   0  0  0  0  0  3  0  0  0  0  0  0
  -27.5860  -37.2930   24.6210 C   0  0  0  0  0  1  0  0  0  0  0  0
  -26.4630  -37.4550   23.7010 N   0  0  0  0  0  0  0  0  0  0  0  0
  -26.0510  -38.3700   23.8610 H   0  0  0  0  0  0  0  0  0  0  0  0
  -26.4920  -31.7840   25.0540 C   0  0  1  0  0  0  0  0  0  0  0  0
  -25.4220  -31.5090   26.1340 C   0  0  0  0  0  1  0  0  0  0  0  0
  -27.0960  -30.4250   24.6360 C   0  0  0  0  0  1  0  0  0  0  0  0
  -27.6370  -32.5920   25.7100 C   0  0  0  0  0  1  0  0  0  0  0  0
  2  1  1  0
  3  5  1  0
  4  6  2  0
  4  7  1  0
  6  8  1  0
  7  3  2  0
  8  2  1  0
  8  5  2  0
  9 19  1  0
  9  7  1  0
 10 19  1  0
 11 16  1  0
 12 13  1  0
 12 11  1  0
 14 13  1  0
 14 23  1  0
 14 15  1  0
 16 10  1  0
 16 15  1  0
 17 10  2  0
 19 18  1  0
 20 21  2  0
 21 40  1  0
 22 21  1  0
 22 25  1  0
 23 24  1  0
 23 20  1  0
 24 22  2  0
 25 26  1  0
 26 27  2  0
 28 31  1  0
 28 27  1  0
 29 28  2  0
 30 29  1  0
 30 25  2  0
 31 32  1  0
 32 37  2  0
 32 33  1  0
 33 34  2  0
 34 35  1  0
 35 39  1  0
 36 35  2  0
 37 36  1  0
 38 37  1  0
 40 41  1  0
 41 44  1  0
 41 43  1  0
 42 40  2  0
 45 20  1  0
 45 46  1  0
 47 45  1  0
 48 49  1  0
 48  2  1  0
 50 51  1  0
 50 49  1  0
 51 53  1  0
 52 63  2  0
 53 58  1  0
 54 62  1  0
 54 64  1  0
 55 61  1  0
 55 57  1  0
 56 62  1  0
 57 56  1  0
 58 57  2  0
 59 60  1  0
 59 53  2  0
 60 55  2  0
 61 54  1  0
 62 52  1  0
 64 66  2  0
 65 64  1  0
 67 65  1  0
 68 77  2  0
 68 73  1  0
 69 65  1  0
 69 73  1  0
 70 69  1  0
 71 72  1  0
 71 70  1  0
 72 68  1  0
 73 74  2  0
 74 75  1  0
 76 75  2  0
 77 76  1  0
 78 52  1  0
 78 79  1  0
 78 88  1  0
 79 82  1  0
 80 84  1  0
 80 79  1  0
 81 80  2  0
 84 83  1  0
 86 84  1  0
 86 87  1  0
 86 85  1  0
 88 91  1  1
 88 89  1  0
 90 88  1  0
M  ISO  4  10 100  19 100  50 101  51 101
M  END
>  <TORSDO>  (41) 
F 21

>  <SCORE>  (41) 
-11.894

>  <name>  (41) 
40

>  <ligand_id>  (41) 
40

>  <original_smiles>  (41) 
[H]c1c([H])c([H])c2c(c1[H])C([H])([H])C([H])([H])C([H])([H])C2([H])N([H])C(=O)C1([H])N(C(=O)C([H])(N([H])C(=O)C([H])(N([H])C([H])([H])[H])C([H])([H])[H])C(C([H])([H])[H])(C([H])([H])[H])C([H])([H])[H])C([H])([H])c2c([H])c(OC([H])([H])C([H])([H])C([H])([H])N(c3c([H])c([H])c(C([H])([H])N(C(=O)N4C([H])([H])C([H])([H])C([H])([H])C([H])(n5nc(-c6c([H])c([H])c(Oc7c([H])c([H])c(F)c([H])c7F)c([H])c6[H])c(C(=O)N([H])[H])c5N([H])[H])C4([H])[H])C([H])([H])[H])c([H])c3[H])C([H])([H])[H])c([H])c([H])c2C1([H])[H]

>  <smiles>  (41) 
[H]c1c([H])c([H])c2c(c1[H])C([H])([H])C([H])([H])C([H])([H])C2([H])N([H])C(=O)C1([H])N(C(=O)C([H])(N([H])C(=O)C([H])(N([H])C([H])([H])[H])C([H])([H])[H])C(C([H])([H])[H])(C([H])([H])[H])C([H])([H])[H])C([H])([H])c2c([H])c(OC([H])([H])C([H])([H])C([H])([H])N(c3c([H])c([H])c(C([H])([H])N(C(=O)N4C([H])([H])C([H])([H])C([H])([H])C([H])(n5nc(-c6c([H])c([H])c(Oc7c([H])c([H])c(F)c([H])c7F)c([H])c6[H])c(C(=O)N([H])[H])c5N([H])[H])C4([H])[H])C([H])([H])[H])c([H])c3[H])C([H])([H])[H])c([H])c([H])c2C1([H])[H]

$$$$
41:0:0
     RDKit          3D

 93101  0  0  1  0  0  0  0  0999 V2000
  -28.4280  -21.3760   18.4740 C   0  0  0  0  0  1  0  0  0  0  0  0
  -29.2940  -21.8000   19.6030 N   0  0  1  0  0  4  0  0  0  0  0  0
  -28.7820  -21.6050   20.4490 H   0  0  0  0  0  0  0  0  0  0  0  0
  -30.5330  -20.9730   19.7010 C   0  0  0  0  0  2  0  0  0  0  0  0
  -30.0050  -18.5160   19.0900 C   0  0  0  0  0  3  0  0  0  0  0  0
  -29.9610  -17.1430   19.4280 C   0  0  0  0  0  3  0  0  0  0  0  0
  -30.5580  -19.0570   21.3800 C   0  0  0  0  0  3  0  0  0  0  0  0
  -30.3270  -19.4900   20.0600 C   0  0  0  0  0  0  0  0  0  0  0  0
  -30.2780  -16.6860   20.7380 C   0  0  0  0  0  0  0  0  0  0  0  0
  -30.5480  -17.6890   21.7170 C   0  0  0  0  0  0  0  0  0  0  0  0
  -30.8410  -17.3780   23.0010 F   0  0  0  0  0  0  0  0  0  0  0  0
  -30.7510  -14.3780   20.0890 C   0  0  0  0  0  0  0  0  0  0  0  0
  -30.2430  -12.3460   18.7730 C   0  0  0  0  0  2  0  0  0  0  0  0
  -29.2230  -12.6470   17.6590 C   0  0  0  0  0  2  0  0  0  0  0  0
  -27.7800  -12.5220   18.1860 C   0  0  0  0  0  2  0  0  0  0  0  0
  -27.5640  -13.2810   19.5200 C   0  0  0  0  0  3  0  0  0  0  0  0
  -28.6850  -12.9670   20.5280 C   0  0  0  0  0  2  0  0  0  0  0  0
  -29.9830  -13.2650   19.8940 N   0  0  0  0  0  0  0  0  0  0  0  0
  -31.7520  -14.6150   19.4010 O   0  0  0  0  0  0  0  0  0  0  0  0
  -30.4850  -14.8030   22.4320 C   0  0  0  0  0  1  0  0  0  0  0  0
  -30.3470  -15.2610   21.0370 N   0  0  0  0  0  0  0  0  0  0  0  0
  -25.2460  -13.8890   20.4580 C   0  0  0  0  0  0  0  0  0  0  0  0
  -24.1990  -13.1150   20.8810 C   0  0  0  0  0  0  0  0  0  0  0  0
  -24.6320  -11.7590   20.7560 C   0  0  0  0  0  0  0  0  0  0  0  0
  -26.2490  -13.0040   20.0960 N   0  0  0  0  0  0  0  0  0  0  0  0
  -25.8890  -11.7160   20.3320 N   0  0  0  0  0  0  0  0  0  0  0  0
  -23.9000  -10.5000   20.9520 C   0  0  0  0  0  0  0  0  0  0  0  0
  -24.3670   -9.5040   21.8370 C   0  0  0  0  0  3  0  0  0  0  0  0
  -23.6370   -8.3090   22.0200 C   0  0  0  0  0  3  0  0  0  0  0  0
  -22.4240   -8.1040   21.3190 C   0  0  0  0  0  0  0  0  0  0  0  0
  -21.9750   -9.0900   20.4230 C   0  0  0  0  0  3  0  0  0  0  0  0
  -22.7050  -10.2750   20.2370 C   0  0  0  0  0  3  0  0  0  0  0  0
  -21.6620   -6.9650   21.4150 O   0  0  0  0  0  0  0  0  0  0  0  0
  -21.6380   -6.2080   22.5590 C   0  0  0  0  0  0  0  0  0  0  0  0
  -21.2590   -6.7530   23.8060 C   0  0  0  0  0  3  0  0  0  0  0  0
  -21.1820   -5.9240   24.9430 C   0  0  0  0  0  3  0  0  0  0  0  0
  -21.4720   -4.5500   24.8350 C   0  0  0  0  0  0  0  0  0  0  0  0
  -21.8430   -4.0050   23.5920 C   0  0  0  0  0  3  0  0  0  0  0  0
  -21.9220   -4.8320   22.4590 C   0  0  0  0  0  0  0  0  0  0  0  0
  -22.2600   -4.2960   21.2610 F   0  0  0  0  0  0  0  0  0  0  0  0
  -21.3900   -3.7520   25.9240 F   0  0  0  0  0  0  0  0  0  0  0  0
  -22.8370  -13.5980   21.2930 C   0  0  0  0  0  0  0  0  0  0  0  0
  -22.1830  -12.8940   22.2090 N   0  0  0  0  0  0  0  0  0  0  0  0
  -22.3640  -14.6390   20.8350 O   0  0  0  0  0  0  0  0  0  0  0  0
  -22.5790  -12.0510   22.6030 H   0  0  0  0  0  0  0  0  0  0  0  0
  -21.2730  -13.2010   22.5220 H   0  0  0  0  0  0  0  0  0  0  0  0
  -25.4240  -15.2630   20.3320 N   0  0  0  0  0  0  0  0  0  0  0  0
  -24.6940  -15.9290   20.5530 H   0  0  0  0  0  0  0  0  0  0  0  0
  -26.2660  -15.7020   19.9830 H   0  0  0  0  0  0  0  0  0  0  0  0
  -29.5800  -23.2750   19.6150 C   0  0  0  0  0  2  0  0  0  0  0  0
  -28.3230  -24.1770   19.8170 C   0  0  0  0  0  2  0  0  0  0  0  0
  -28.5230  -25.4490   20.7000 C   0  0  0  0  0  2  0  0  0  0  0  0
  -28.5250  -26.7180   20.0260 O   0  0  0  0  0  0  0  0  0  0  0  0
  -24.6120  -31.8410   23.1180 C   0  0  0  0  0  0  0  0  0  0  0  0
  -27.3420  -27.4250   20.0620 C   0  0  0  0  0  0  0  0  0  0  0  0
  -23.4360  -30.4170   21.4770 C   0  0  0  0  0  3  0  0  0  0  0  0
  -24.9200  -28.8860   20.0750 C   0  0  0  0  0  0  0  0  0  0  0  0
  -25.9550  -30.8160   21.2810 C   0  0  0  0  0  2  0  0  0  0  0  0
  -26.0700  -29.4400   20.6530 C   0  0  0  0  0  0  0  0  0  0  0  0
  -27.2890  -28.7190   20.6330 C   0  0  0  0  0  3  0  0  0  0  0  0
  -26.1670  -26.8750   19.5070 C   0  0  0  0  0  3  0  0  0  0  0  0
  -24.9630  -27.6030   19.5040 C   0  0  0  0  0  3  0  0  0  0  0  0
  -23.6630  -29.7290   20.1020 C   0  0  0  0  0  2  0  0  0  0  0  0
  -24.6870  -31.0410   22.0180 N   0  0  0  0  0  0  0  0  0  0  0  0
  -23.5250  -32.0980   23.6530 O   0  0  0  0  0  0  0  0  0  0  0  0
  -22.7920  -29.3920   22.4390 C   0  0  0  0  0  0  0  0  0  0  0  0
  -21.4650  -29.2210   22.3320 N   0  0  0  0  0  0  0  0  0  0  0  0
  -23.4840  -28.7530   23.2360 O   0  0  0  0  0  0  0  0  0  0  0  0
  -20.9680  -29.7880   21.6590 H   0  0  0  0  0  0  0  0  0  0  0  0
  -18.0860  -28.0680   22.8950 C   0  0  0  0  0  0  0  0  0  0  0  0
  -20.6550  -28.2820   23.1050 C   0  0  0  0  0  3  0  0  0  0  0  0
  -20.7200  -26.8610   22.4990 C   0  0  0  0  0  2  0  0  0  0  0  0
  -19.5880  -26.5750   21.5080 C   0  0  0  0  0  2  0  0  0  0  0  0
  -18.2240  -26.7290   22.1900 C   0  0  0  0  0  2  0  0  0  0  0  0
  -19.2270  -28.8040   23.3100 C   0  0  0  0  0  0  0  0  0  0  0  0
  -19.0460  -30.0600   23.9290 C   0  0  0  0  0  3  0  0  0  0  0  0
  -17.7540  -30.5780   24.1380 C   0  0  0  0  0  3  0  0  0  0  0  0
  -16.6270  -29.8390   23.7410 C   0  0  0  0  0  3  0  0  0  0  0  0
  -16.7950  -28.5860   23.1230 C   0  0  0  0  0  3  0  0  0  0  0  0
  -25.8840  -32.4960   23.7450 C   0  0  0  0  0  3  0  0  0  0  0  0
  -25.5430  -33.8830   24.0910 N   0  0  0  0  0  0  0  0  0  0  0  0
  -25.8340  -34.9500   23.3360 C   0  0  0  0  0  0  0  0  0  0  0  0
  -26.4910  -34.8730   22.2930 O   0  0  0  0  0  0  0  0  0  0  0  0
  -24.9600  -34.0140   24.9050 H   0  0  0  0  0  0  0  0  0  0  0  0
  -24.0460  -36.6920   23.0360 C   0  0  0  0  0  1  0  0  0  0  0  0
  -25.3180  -36.3210   23.8150 C   0  0  0  0  0  3  0  0  0  0  0  0
  -27.4490  -37.2630   24.5920 C   0  0  0  0  0  1  0  0  0  0  0  0
  -26.3170  -37.4060   23.6810 N   0  0  0  0  0  0  0  0  0  0  0  0
  -25.8890  -38.3120   23.8490 H   0  0  0  0  0  0  0  0  0  0  0  0
  -26.4220  -31.7220   25.0100 C   0  0  1  0  0  0  0  0  0  0  0  0
  -25.3390  -31.4460   26.0790 C   0  0  0  0  0  1  0  0  0  0  0  0
  -27.0350  -30.3650   24.5910 C   0  0  0  0  0  1  0  0  0  0  0  0
  -27.5620  -32.5310   25.6740 C   0  0  0  0  0  1  0  0  0  0  0  0
  1  2  1  0
  2 50  1  0
  2  4  1  0
  2  3  1  1
  4  8  1  0
  5  6  2  0
  5  8  1  0
  6  9  1  0
  7 10  1  0
  8  7  2  0
  9 21  1  0
  9 10  2  0
 10 11  1  0
 12 21  1  0
 13 18  1  0
 14 15  1  0
 14 13  1  0
 16 15  1  0
 16 25  1  0
 16 17  1  0
 18 12  1  0
 18 17  1  0
 19 12  2  0
 21 20  1  0
 22 23  2  0
 23 42  1  0
 24 23  1  0
 24 27  1  0
 25 26  1  0
 25 22  1  0
 26 24  2  0
 27 28  1  0
 28 29  2  0
 30 33  1  0
 30 29  1  0
 31 30  2  0
 32 31  1  0
 32 27  2  0
 33 34  1  0
 34 35  1  0
 35 36  2  0
 37 36  1  0
 37 41  1  0
 38 37  2  0
 39 34  2  0
 39 38  1  0
 40 39  1  0
 42 43  1  0
 43 46  1  0
 43 45  1  0
 44 42  2  0
 47 22  1  0
 47 48  1  0
 49 47  1  0
 50 51  1  0
 51 52  1  0
 53 55  1  0
 53 52  1  0
 54 65  2  0
 55 60  1  0
 56 64  1  0
 56 66  1  0
 57 63  1  0
 57 59  1  0
 58 64  1  0
 59 58  1  0
 60 59  2  0
 61 55  2  0
 62 61  1  0
 62 57  2  0
 63 56  1  0
 64 54  1  0
 66 68  2  0
 67 66  1  0
 69 67  1  0
 70 79  2  0
 70 75  1  0
 71 67  1  0
 71 75  1  0
 72 71  1  0
 73 74  1  0
 73 72  1  0
 74 70  1  0
 75 76  2  0
 76 77  1  0
 78 77  2  0
 79 78  1  0
 80 54  1  0
 80 81  1  0
 80 90  1  0
 81 84  1  0
 82 86  1  0
 82 81  1  0
 83 82  2  0
 86 85  1  0
 88 86  1  0
 88 89  1  0
 88 87  1  0
 90 93  1  1
 90 91  1  0
 92 90  1  0
M  ISO  4  12 100  21 100  52 101  53 101
M  END
>  <TORSDO>  (42) 
F 21

>  <SCORE>  (42) 
-12.189

>  <name>  (42) 
41

>  <ligand_id>  (42) 
41

>  <original_smiles>  (42) 
[H]c1c([H])c([H])c2c(c1[H])C([H])([H])C([H])([H])C([H])([H])C2([H])N([H])C(=O)C1([H])N(C(=O)C([H])(N([H])C(=O)C([H])(N([H])C([H])([H])[H])C([H])([H])[H])C(C([H])([H])[H])(C([H])([H])[H])C([H])([H])[H])C([H])([H])c2c([H])c(OC([H])([H])C([H])([H])C([H])([H])[N+]([H])(C([H])([H])[H])C([H])([H])c3c([H])c([H])c(N(C(=O)N4C([H])([H])C([H])([H])C([H])([H])C([H])(n5nc(-c6c([H])c([H])c(Oc7c([H])c([H])c(F)c([H])c7F)c([H])c6[H])c(C(=O)N([H])[H])c5N([H])[H])C4([H])[H])C([H])([H])[H])c(F)c3[H])c([H])c([H])c2C1([H])[H]

>  <smiles>  (42) 
[H]c1c([H])c([H])c2c(c1[H])C([H])([H])C([H])([H])C([H])([H])C2([H])N([H])C(=O)C1([H])N(C(=O)C([H])(N([H])C(=O)C([H])(N([H])C([H])([H])[H])C([H])([H])[H])C(C([H])([H])[H])(C([H])([H])[H])C([H])([H])[H])C([H])([H])c2c([H])c(OC([H])([H])C([H])([H])C([H])([H])[N+]([H])(C([H])([H])[H])C([H])([H])c3c([H])c([H])c(N(C(=O)N4C([H])([H])C([H])([H])C([H])([H])C([H])(n5nc(-c6c([H])c([H])c(Oc7c([H])c([H])c(F)c([H])c7F)c([H])c6[H])c(C(=O)N([H])[H])c5N([H])[H])C4([H])[H])C([H])([H])[H])c(F)c3[H])c([H])c([H])c2C1([H])[H]

$$$$
42:0:0
     RDKit          3D

 95104  0  0  1  0  0  0  0  0999 V2000
  -28.7850  -23.1960   18.5640 C   0  0  0  0  0  0  0  0  0  0  0  0
  -28.6850  -24.5070   18.9240 C   0  0  0  0  0  3  0  0  0  0  0  0
  -28.8580  -22.7390   17.1170 C   0  0  0  0  0  2  0  0  0  0  0  0
  -28.2580  -21.3320   17.0620 C   0  0  0  0  0  2  0  0  0  0  0  0
  -27.7620  -21.0700   18.4860 C   0  0  0  0  0  2  0  0  0  0  0  0
  -28.6020  -21.9150   19.3640 N   0  0  1  0  0  4  0  0  0  0  0  0
  -28.0650  -22.0890   20.1990 H   0  0  0  0  0  0  0  0  0  0  0  0
  -29.8760  -21.2400   19.8030 C   0  0  0  0  0  2  0  0  0  0  0  0
  -29.5520  -19.1570   21.3130 C   0  0  0  0  0  3  0  0  0  0  0  0
  -29.7040  -17.7720   21.5800 C   0  0  0  0  0  3  0  0  0  0  0  0
  -30.4840  -17.4090   19.3280 C   0  0  0  0  0  3  0  0  0  0  0  0
  -29.8900  -19.7020   20.0540 C   0  0  0  0  0  0  0  0  0  0  0  0
  -30.2030  -16.8570   20.6100 C   0  0  0  0  0  0  0  0  0  0  0  0
  -30.3510  -18.7970   19.0650 C   0  0  0  0  0  0  0  0  0  0  0  0
  -30.7040  -19.2660   17.8450 F   0  0  0  0  0  0  0  0  0  0  0  0
  -30.9100  -14.5010   20.0990 C   0  0  0  0  0  0  0  0  0  0  0  0
  -30.4940  -12.3890   18.8630 C   0  0  0  0  0  2  0  0  0  0  0  0
  -29.4660  -12.6050   17.7340 C   0  0  0  0  0  2  0  0  0  0  0  0
  -28.0280  -12.4430   18.2610 C   0  0  0  0  0  2  0  0  0  0  0  0
  -27.7820  -13.2400   19.5700 C   0  0  0  0  0  3  0  0  0  0  0  0
  -28.9130  -13.0020   20.5900 C   0  0  0  0  0  2  0  0  0  0  0  0
  -30.1930  -13.3430   19.9470 N   0  0  0  0  0  0  0  0  0  0  0  0
  -31.9460  -14.7050   19.4580 O   0  0  0  0  0  0  0  0  0  0  0  0
  -30.5630  -15.1290   22.3890 C   0  0  0  0  0  1  0  0  0  0  0  0
  -30.4280  -15.4510   20.9580 N   0  0  0  0  0  0  0  0  0  0  0  0
  -25.4450  -13.8140   20.4760 C   0  0  0  0  0  0  0  0  0  0  0  0
  -24.4070  -13.0270   20.8970 C   0  0  0  0  0  0  0  0  0  0  0  0
  -24.8640  -11.6780   20.7900 C   0  0  0  0  0  0  0  0  0  0  0  0
  -26.4690  -12.9430   20.1400 N   0  0  0  0  0  0  0  0  0  0  0  0
  -26.1290  -11.6520   20.3870 N   0  0  0  0  0  0  0  0  0  0  0  0
  -24.1530  -10.4090   20.9930 C   0  0  0  0  0  0  0  0  0  0  0  0
  -24.6220   -9.4370   21.9040 C   0  0  0  0  0  3  0  0  0  0  0  0
  -23.9110   -8.2320   22.0940 C   0  0  0  0  0  3  0  0  0  0  0  0
  -22.7180   -7.9910   21.3730 C   0  0  0  0  0  0  0  0  0  0  0  0
  -22.2690   -8.9510   20.4490 C   0  0  0  0  0  3  0  0  0  0  0  0
  -22.9800  -10.1470   20.2570 C   0  0  0  0  0  3  0  0  0  0  0  0
  -21.9730   -6.8400   21.4750 O   0  0  0  0  0  0  0  0  0  0  0  0
  -21.9250   -6.1140   22.6390 C   0  0  0  0  0  0  0  0  0  0  0  0
  -21.4950   -6.6850   23.8560 C   0  0  0  0  0  3  0  0  0  0  0  0
  -21.3960   -5.8850   25.0130 C   0  0  0  0  0  3  0  0  0  0  0  0
  -21.7170   -4.5150   24.9510 C   0  0  0  0  0  0  0  0  0  0  0  0
  -22.1400   -3.9440   23.7380 C   0  0  0  0  0  3  0  0  0  0  0  0
  -22.2410   -4.7420   22.5850 C   0  0  0  0  0  0  0  0  0  0  0  0
  -22.6290   -4.1820   21.4140 F   0  0  0  0  0  0  0  0  0  0  0  0
  -21.6160   -3.7440   26.0590 F   0  0  0  0  0  0  0  0  0  0  0  0
  -23.0330  -13.4910   21.2870 C   0  0  0  0  0  0  0  0  0  0  0  0
  -22.3840  -12.7850   22.2040 N   0  0  0  0  0  0  0  0  0  0  0  0
  -22.5470  -14.5170   20.8110 O   0  0  0  0  0  0  0  0  0  0  0  0
  -22.7920  -11.9550   22.6110 H   0  0  0  0  0  0  0  0  0  0  0  0
  -21.4650  -13.0770   22.5060 H   0  0  0  0  0  0  0  0  0  0  0  0
  -25.5980  -15.1900   20.3330 N   0  0  0  0  0  0  0  0  0  0  0  0
  -24.8520  -15.8460   20.5380 H   0  0  0  0  0  0  0  0  0  0  0  0
  -26.4400  -15.6390   19.9970 H   0  0  0  0  0  0  0  0  0  0  0  0
  -28.4360  -25.1880   20.2690 C   0  0  0  0  0  2  0  0  0  0  0  0
  -28.5190  -26.6390   20.1830 O   0  0  0  0  0  0  0  0  0  0  0  0
  -24.6960  -31.8830   23.1780 C   0  0  0  0  0  0  0  0  0  0  0  0
  -27.3500  -27.3850   20.1480 C   0  0  0  0  0  0  0  0  0  0  0  0
  -23.5040  -30.4830   21.5250 C   0  0  0  0  0  3  0  0  0  0  0  0
  -24.9660  -28.9270   20.1230 C   0  0  0  0  0  0  0  0  0  0  0  0
  -26.0370  -30.8200   21.3570 C   0  0  0  0  0  2  0  0  0  0  0  0
  -26.1220  -29.4440   20.7190 C   0  0  0  0  0  0  0  0  0  0  0  0
  -27.3190  -28.6850   20.7180 C   0  0  0  0  0  3  0  0  0  0  0  0
  -26.1740  -26.8900   19.5430 C   0  0  0  0  0  3  0  0  0  0  0  0
  -24.9890  -27.6520   19.5310 C   0  0  0  0  0  3  0  0  0  0  0  0
  -23.7260  -29.7950   20.1520 C   0  0  0  0  0  2  0  0  0  0  0  0
  -24.7650  -31.0780   22.0780 N   0  0  0  0  0  0  0  0  0  0  0  0
  -23.6100  -32.1620   23.7040 O   0  0  0  0  0  0  0  0  0  0  0  0
  -22.8340  -29.4690   22.4810 C   0  0  0  0  0  0  0  0  0  0  0  0
  -21.5040  -29.3260   22.3670 N   0  0  0  0  0  0  0  0  0  0  0  0
  -23.5100  -28.8160   23.2810 O   0  0  0  0  0  0  0  0  0  0  0  0
  -21.0230  -29.9020   21.6910 H   0  0  0  0  0  0  0  0  0  0  0  0
  -18.1010  -28.2370   22.9130 C   0  0  0  0  0  0  0  0  0  0  0  0
  -20.6700  -28.4010   23.1350 C   0  0  0  0  0  3  0  0  0  0  0  0
  -20.7120  -26.9800   22.5270 C   0  0  0  0  0  2  0  0  0  0  0  0
  -19.5780  -26.7180   21.5310 C   0  0  0  0  0  2  0  0  0  0  0  0
  -18.2150  -26.8970   22.2070 C   0  0  0  0  0  2  0  0  0  0  0  0
  -19.2540  -28.9490   23.3350 C   0  0  0  0  0  0  0  0  0  0  0  0
  -19.0920  -30.2070   23.9570 C   0  0  0  0  0  3  0  0  0  0  0  0
  -17.8100  -30.7490   24.1620 C   0  0  0  0  0  3  0  0  0  0  0  0
  -16.6710  -30.0320   23.7540 C   0  0  0  0  0  3  0  0  0  0  0  0
  -16.8170  -28.7780   23.1350 C   0  0  0  0  0  3  0  0  0  0  0  0
  -25.9770  -32.5090   23.8120 C   0  0  0  0  0  3  0  0  0  0  0  0
  -26.4890  -31.7260   25.0820 C   0  0  1  0  0  0  0  0  0  0  0  0
  -25.3930  -31.4750   26.1430 C   0  0  0  0  0  1  0  0  0  0  0  0
  -27.0760  -30.3540   24.6770 C   0  0  0  0  0  1  0  0  0  0  0  0
  -27.6340  -32.5170   25.7580 C   0  0  0  0  0  1  0  0  0  0  0  0
  -25.6630  -33.9030   24.1560 N   0  0  0  0  0  0  0  0  0  0  0  0
  -25.9940  -34.9650   23.4090 C   0  0  0  0  0  0  0  0  0  0  0  0
  -26.6670  -34.8730   22.3780 O   0  0  0  0  0  0  0  0  0  0  0  0
  -25.0670  -34.0480   24.9580 H   0  0  0  0  0  0  0  0  0  0  0  0
  -24.2580  -36.7530   23.0710 C   0  0  0  0  0  1  0  0  0  0  0  0
  -25.5020  -36.3470   23.8780 C   0  0  0  0  0  3  0  0  0  0  0  0
  -27.6330  -37.2330   24.7140 C   0  0  0  0  0  1  0  0  0  0  0  0
  -26.5300  -37.4050   23.7730 N   0  0  0  0  0  0  0  0  0  0  0  0
  -26.1200  -38.3220   23.9290 H   0  0  0  0  0  0  0  0  0  0  0  0
  1  2  2  0
  1  6  1  0
  2 54  1  0
  3  1  1  0
  4  3  1  0
  4  5  1  0
  5  6  1  0
  6  8  1  0
  6  7  1  1
  8 12  1  0
  9 10  1  0
 11 13  1  0
 12  9  2  0
 13 25  1  0
 13 10  2  0
 14 11  2  0
 14 12  1  0
 15 14  1  0
 16 25  1  0
 17 22  1  0
 18 19  1  0
 18 17  1  0
 20 19  1  0
 20 29  1  0
 20 21  1  0
 22 16  1  0
 22 21  1  0
 23 16  2  0
 25 24  1  0
 26 27  2  0
 27 46  1  0
 28 27  1  0
 28 31  1  0
 29 30  1  0
 29 26  1  0
 30 28  2  0
 31 32  1  0
 32 33  2  0
 34 37  1  0
 34 33  1  0
 35 34  2  0
 36 35  1  0
 36 31  2  0
 37 38  1  0
 38 39  1  0
 39 40  2  0
 41 40  1  0
 41 45  1  0
 42 41  2  0
 43 38  2  0
 43 42  1  0
 44 43  1  0
 46 47  1  0
 47 50  1  0
 47 49  1  0
 48 46  2  0
 51 26  1  0
 51 52  1  0
 53 51  1  0
 55 54  1  0
 56 67  2  0
 57 55  1  0
 57 62  1  0
 58 66  1  0
 58 68  1  0
 59 65  1  0
 59 61  1  0
 60 66  1  0
 61 60  1  0
 62 61  2  0
 63 57  2  0
 64 63  1  0
 64 59  2  0
 65 58  1  0
 66 56  1  0
 68 70  2  0
 69 68  1  0
 71 69  1  0
 72 81  2  0
 72 77  1  0
 73 69  1  0
 73 77  1  0
 74 73  1  0
 75 76  1  0
 75 74  1  0
 76 72  1  0
 77 78  2  0
 78 79  1  0
 80 79  2  0
 81 80  1  0
 82 56  1  0
 82 87  1  0
 82 83  1  0
 83 86  1  1
 83 84  1  0
 85 83  1  0
 87 90  1  0
 88 92  1  0
 88 87  1  0
 89 88  2  0
 92 91  1  0
 94 92  1  0
 94 95  1  0
 94 93  1  0
M  ISO  4  16 100  25 100  54 101  55 101
M  END
>  <TORSDO>  (43) 
F 19

>  <SCORE>  (43) 
-12.300

>  <name>  (43) 
42

>  <ligand_id>  (43) 
42

>  <original_smiles>  (43) 
[H]C(=C1C([H])([H])C([H])([H])C([H])([H])[N+]1([H])C([H])([H])c1c([H])c([H])c(N(C(=O)N2C([H])([H])C([H])([H])C([H])([H])C([H])(n3nc(-c4c([H])c([H])c(Oc5c([H])c([H])c(F)c([H])c5F)c([H])c4[H])c(C(=O)N([H])[H])c3N([H])[H])C2([H])[H])C([H])([H])[H])c([H])c1F)C([H])([H])Oc1c([H])c([H])c2c(c1[H])C([H])([H])N(C(=O)C([H])(N([H])C(=O)C([H])(N([H])C([H])([H])[H])C([H])([H])[H])C(C([H])([H])[H])(C([H])([H])[H])C([H])([H])[H])C([H])(C(=O)N([H])C1([H])c3c([H])c([H])c([H])c([H])c3C([H])([H])C([H])([H])C1([H])[H])C2([H])[H]

>  <smiles>  (43) 
[H]C(=C1C([H])([H])C([H])([H])C([H])([H])[N+]1([H])C([H])([H])c1c([H])c([H])c(N(C(=O)N2C([H])([H])C([H])([H])C([H])([H])C([H])(n3nc(-c4c([H])c([H])c(Oc5c([H])c([H])c(F)c([H])c5F)c([H])c4[H])c(C(=O)N([H])[H])c3N([H])[H])C2([H])[H])C([H])([H])[H])c([H])c1F)C([H])([H])Oc1c([H])c([H])c2c(c1[H])C([H])([H])N(C(=O)C([H])(N([H])C(=O)C([H])(N([H])C([H])([H])[H])C([H])([H])[H])C(C([H])([H])[H])(C([H])([H])[H])C([H])([H])[H])C([H])(C(=O)N([H])C1([H])c3c([H])c([H])c([H])c([H])c3C([H])([H])C([H])([H])C1([H])[H])C2([H])[H]

$$$$
43:0:0
     RDKit          3D

 95104  0  0  1  0  0  0  0  0999 V2000
  -30.3890  -22.0250   22.6780 C   0  0  0  0  0  2  0  0  0  0  0  0
  -28.4780  -23.5020   21.8270 C   0  0  0  0  0  2  0  0  0  0  0  0
  -31.0420  -22.1700   21.2760 C   0  0  0  0  0  2  0  0  0  0  0  0
  -29.2680  -23.6180   20.5220 C   0  0  0  0  0  3  0  0  0  0  0  0
  -29.4290  -23.1860   22.9950 C   0  0  2  0  0  0  0  0  0  0  0  0
  -30.0280  -22.2630   20.1900 N   0  0  0  0  0  0  0  0  0  0  0  0
  -30.1520  -24.2700   23.2770 F   0  0  0  0  0  0  0  0  0  0  0  0
  -28.6980  -22.8870   24.0680 F   0  0  0  0  0  0  0  0  0  0  0  0
  -28.7740  -19.9520   20.5390 C   0  0  0  0  0  3  0  0  0  0  0  0
  -28.8380  -18.4920   20.5690 C   0  0  0  0  0  3  0  0  0  0  0  0
  -30.8940  -18.5150   19.4310 C   0  0  0  0  0  3  0  0  0  0  0  0
  -29.7960  -20.7940   19.9770 C   0  0  0  0  0  0  0  0  0  0  0  0
  -29.9210  -17.6800   20.0620 C   0  0  0  0  0  0  0  0  0  0  0  0
  -30.8310  -19.9680   19.3870 C   0  0  0  0  0  0  0  0  0  0  0  0
  -31.8790  -20.6010   18.8060 F   0  0  0  0  0  0  0  0  0  0  0  0
  -30.8120  -15.0520   19.9500 C   0  0  0  0  0  0  0  0  0  0  0  0
  -30.7290  -12.6920   19.0330 C   0  0  0  0  0  2  0  0  0  0  0  0
  -29.7580  -12.6750   17.8290 C   0  0  0  0  0  2  0  0  0  0  0  0
  -28.3030  -12.4710   18.3010 C   0  0  0  0  0  2  0  0  0  0  0  0
  -27.9420  -13.3830   19.5060 C   0  0  0  0  0  3  0  0  0  0  0  0
  -29.0300  -13.3420   20.5980 C   0  0  0  0  0  2  0  0  0  0  0  0
  -30.2800  -13.7680   19.9580 N   0  0  0  0  0  0  0  0  0  0  0  0
  -31.9960  -15.1860   19.6120 O   0  0  0  0  0  0  0  0  0  0  0  0
  -29.9240  -16.1450   20.1520 N   0  0  0  0  0  0  0  0  0  0  0  0
  -29.0130  -15.7840   20.3970 H   0  0  0  0  0  0  0  0  0  0  0  0
  -25.6080  -13.9990   20.3560 C   0  0  0  0  0  0  0  0  0  0  0  0
  -24.5460  -13.2400   20.7520 C   0  0  0  0  0  0  0  0  0  0  0  0
  -24.9790  -11.8780   20.6670 C   0  0  0  0  0  0  0  0  0  0  0  0
  -26.6190  -13.1050   20.0460 N   0  0  0  0  0  0  0  0  0  0  0  0
  -26.2530  -11.8220   20.3010 N   0  0  0  0  0  0  0  0  0  0  0  0
  -24.2350  -10.6270   20.8580 C   0  0  0  0  0  0  0  0  0  0  0  0
  -24.6340   -9.6710   21.8180 C   0  0  0  0  0  3  0  0  0  0  0  0
  -23.8940   -8.4830   21.9970 C   0  0  0  0  0  3  0  0  0  0  0  0
  -22.7420   -8.2420   21.2110 C   0  0  0  0  0  0  0  0  0  0  0  0
  -22.3610   -9.1850   20.2410 C   0  0  0  0  0  3  0  0  0  0  0  0
  -23.1010  -10.3660   20.0620 C   0  0  0  0  0  3  0  0  0  0  0  0
  -21.9770   -7.1040   21.2960 O   0  0  0  0  0  0  0  0  0  0  0  0
  -21.8240   -6.4250   22.4780 C   0  0  0  0  0  0  0  0  0  0  0  0
  -21.2600   -7.0360   23.6200 C   0  0  0  0  0  3  0  0  0  0  0  0
  -21.0580   -6.2830   24.7940 C   0  0  0  0  0  3  0  0  0  0  0  0
  -21.4070   -4.9190   24.8230 C   0  0  0  0  0  0  0  0  0  0  0  0
  -21.9610   -4.3080   23.6860 C   0  0  0  0  0  3  0  0  0  0  0  0
  -22.1650   -5.0580   22.5150 C   0  0  0  0  0  0  0  0  0  0  0  0
  -22.6810   -4.4600   21.4140 F   0  0  0  0  0  0  0  0  0  0  0  0
  -21.2030   -4.1930   25.9470 F   0  0  0  0  0  0  0  0  0  0  0  0
  -23.1700  -13.7360   21.0920 C   0  0  0  0  0  0  0  0  0  0  0  0
  -22.4720  -13.0440   21.9830 N   0  0  0  0  0  0  0  0  0  0  0  0
  -22.7260  -14.7740   20.5990 O   0  0  0  0  0  0  0  0  0  0  0  0
  -22.8450  -12.2050   22.4000 H   0  0  0  0  0  0  0  0  0  0  0  0
  -21.5500  -13.3590   22.2530 H   0  0  0  0  0  0  0  0  0  0  0  0
  -25.7940  -15.3710   20.1980 N   0  0  0  0  0  0  0  0  0  0  0  0
  -25.0330  -16.0270   20.3330 H   0  0  0  0  0  0  0  0  0  0  0  0
  -26.5900  -15.7850   19.7340 H   0  0  0  0  0  0  0  0  0  0  0  0
  -28.6750  -24.8270   19.5300 C   0  0  0  0  0  2  0  0  0  0  0  0
  -28.6160  -26.3240   19.9660 O   0  0  0  0  0  0  0  0  0  0  0  0
  -24.5760  -31.7010   22.9550 C   0  0  0  0  0  0  0  0  0  0  0  0
  -27.4890  -27.2180   19.8790 C   0  0  0  0  0  0  0  0  0  0  0  0
  -23.5040  -30.3080   21.2240 C   0  0  0  0  0  3  0  0  0  0  0  0
  -25.0760  -28.8400   19.8220 C   0  0  0  0  0  0  0  0  0  0  0  0
  -26.0480  -30.6900   21.1750 C   0  0  0  0  0  2  0  0  0  0  0  0
  -26.2080  -29.3260   20.4860 C   0  0  0  0  0  0  0  0  0  0  0  0
  -27.4120  -28.5300   20.4980 C   0  0  0  0  0  3  0  0  0  0  0  0
  -26.3250  -26.8300   19.1800 C   0  0  0  0  0  3  0  0  0  0  0  0
  -25.1460  -27.6050   19.1590 C   0  0  0  0  0  3  0  0  0  0  0  0
  -23.8080  -29.6760   19.8370 C   0  0  0  0  0  2  0  0  0  0  0  0
  -24.7270  -30.9200   21.8410 N   0  0  0  0  0  0  0  0  0  0  0  0
  -23.4590  -31.9250   23.4440 O   0  0  0  0  0  0  0  0  0  0  0  0
  -22.8310  -29.2450   22.1290 C   0  0  0  0  0  0  0  0  0  0  0  0
  -21.4970  -29.1180   22.0360 N   0  0  0  0  0  0  0  0  0  0  0  0
  -23.5120  -28.5400   22.8790 O   0  0  0  0  0  0  0  0  0  0  0  0
  -21.0060  -29.7430   21.4110 H   0  0  0  0  0  0  0  0  0  0  0  0
  -18.0920  -28.0450   22.6540 C   0  0  0  0  0  0  0  0  0  0  0  0
  -20.6740  -28.1430   22.7560 C   0  0  0  0  0  3  0  0  0  0  0  0
  -20.6490  -26.7830   22.0230 C   0  0  0  0  0  2  0  0  0  0  0  0
  -19.4640  -26.6350   21.0640 C   0  0  0  0  0  2  0  0  0  0  0  0
  -18.1400  -26.7760   21.8210 C   0  0  0  0  0  2  0  0  0  0  0  0
  -19.2810  -28.6960   23.0810 C   0  0  0  0  0  0  0  0  0  0  0  0
  -19.1770  -29.8890   23.8290 C   0  0  0  0  0  3  0  0  0  0  0  0
  -17.9180  -30.4330   24.1480 C   0  0  0  0  0  3  0  0  0  0  0  0
  -16.7450  -29.7780   23.7360 C   0  0  0  0  0  3  0  0  0  0  0  0
  -16.8330  -28.5850   22.9970 C   0  0  0  0  0  3  0  0  0  0  0  0
  -25.8010  -32.3650   23.6580 C   0  0  0  0  0  3  0  0  0  0  0  0
  -25.4060  -33.7290   24.0510 N   0  0  0  0  0  0  0  0  0  0  0  0
  -25.6940  -34.8370   23.3550 C   0  0  0  0  0  0  0  0  0  0  0  0
  -26.3850  -34.8230   22.3340 O   0  0  0  0  0  0  0  0  0  0  0  0
  -24.7920  -33.8090   24.8470 H   0  0  0  0  0  0  0  0  0  0  0  0
  -23.8710  -36.5490   23.0740 C   0  0  0  0  0  1  0  0  0  0  0  0
  -25.1270  -36.1740   23.8760 C   0  0  0  0  0  3  0  0  0  0  0  0
  -27.1920  -37.1450   24.7830 C   0  0  0  0  0  1  0  0  0  0  0  0
  -26.1000  -37.2870   23.8230 N   0  0  0  0  0  0  0  0  0  0  0  0
  -25.6400  -38.1770   23.9940 H   0  0  0  0  0  0  0  0  0  0  0  0
  -26.3110  -31.5600   24.9180 C   0  0  1  0  0  0  0  0  0  0  0  0
  -25.1920  -31.2190   25.9300 C   0  0  0  0  0  1  0  0  0  0  0  0
  -26.9780  -30.2330   24.4900 C   0  0  0  0  0  1  0  0  0  0  0  0
  -27.3980  -32.3770   25.6580 C   0  0  0  0  0  1  0  0  0  0  0  0
  1  5  1  0
  2  5  1  0
  3  1  1  0
  4 54  1  0
  4  2  1  0
  5  7  1  1
  5  8  1  0
  6  4  1  0
  6  3  1  0
  9 10  1  0
 11 13  1  0
 12  6  1  0
 12  9  2  0
 13 24  1  0
 13 10  2  0
 14 11  2  0
 14 12  1  0
 15 14  1  0
 16 22  1  0
 16 24  1  0
 17 22  1  0
 18 19  1  0
 18 17  1  0
 20 19  1  0
 20 29  1  0
 20 21  1  0
 22 21  1  0
 23 16  2  0
 24 25  1  0
 26 27  2  0
 27 46  1  0
 28 27  1  0
 28 31  1  0
 29 30  1  0
 29 26  1  0
 30 28  2  0
 31 32  1  0
 32 33  2  0
 34 37  1  0
 34 33  1  0
 35 34  2  0
 36 35  1  0
 36 31  2  0
 37 38  1  0
 38 43  2  0
 38 39  1  0
 39 40  2  0
 40 41  1  0
 41 45  1  0
 42 41  2  0
 43 42  1  0
 44 43  1  0
 46 47  1  0
 47 50  1  0
 47 49  1  0
 48 46  2  0
 51 52  1  0
 51 26  1  0
 53 51  1  0
 54 55  1  0
 56 67  2  0
 57 55  1  0
 57 62  1  0
 58 66  1  0
 58 68  1  0
 59 65  1  0
 59 61  1  0
 60 66  1  0
 61 62  2  0
 61 60  1  0
 63 57  2  0
 64 63  1  0
 64 59  2  0
 65 58  1  0
 66 56  1  0
 68 70  2  0
 69 68  1  0
 71 69  1  0
 72 81  2  0
 72 77  1  0
 73 69  1  0
 73 77  1  0
 74 73  1  0
 75 76  1  0
 75 74  1  0
 76 72  1  0
 77 78  2  0
 78 79  1  0
 80 79  2  0
 81 80  1  0
 82 56  1  0
 82 83  1  0
 82 92  1  0
 83 86  1  0
 84 88  1  0
 84 83  1  0
 85 84  2  0
 88 87  1  0
 90 88  1  0
 90 91  1  0
 90 89  1  0
 92 95  1  1
 92 93  1  0
 94 92  1  0
M  ISO  4  16 100  24 100  54 101  55 101
M  END
>  <TORSDO>  (44) 
F 18

>  <SCORE>  (44) 
-13.509

>  <name>  (44) 
43

>  <ligand_id>  (44) 
43

>  <original_smiles>  (44) 
[H]c1c([H])c([H])c2c(c1[H])C([H])([H])C([H])([H])C([H])([H])C2([H])N([H])C(=O)C1([H])N(C(=O)C([H])(N([H])C(=O)C([H])(N([H])C([H])([H])[H])C([H])([H])[H])C(C([H])([H])[H])(C([H])([H])[H])C([H])([H])[H])C([H])([H])c2c([H])c(OC([H])([H])C3([H])N(c4c([H])c([H])c(N([H])C(=O)N5C([H])([H])C([H])([H])C([H])([H])C([H])(n6nc(-c7c([H])c([H])c(Oc8c([H])c([H])c(F)c([H])c8F)c([H])c7[H])c(C(=O)N([H])[H])c6N([H])[H])C5([H])[H])c([H])c4F)C([H])([H])C([H])([H])C(F)(F)C3([H])[H])c([H])c([H])c2C1([H])[H]

>  <smiles>  (44) 
[H]c1c([H])c([H])c2c(c1[H])C([H])([H])C([H])([H])C([H])([H])C2([H])N([H])C(=O)C1([H])N(C(=O)C([H])(N([H])C(=O)C([H])(N([H])C([H])([H])[H])C([H])([H])[H])C(C([H])([H])[H])(C([H])([H])[H])C([H])([H])[H])C([H])([H])c2c([H])c(OC([H])([H])C3([H])N(c4c([H])c([H])c(N([H])C(=O)N5C([H])([H])C([H])([H])C([H])([H])C([H])(n6nc(-c7c([H])c([H])c(Oc8c([H])c([H])c(F)c([H])c8F)c([H])c7[H])c(C(=O)N([H])[H])c6N([H])[H])C5([H])[H])c([H])c4F)C([H])([H])C([H])([H])C(F)(F)C3([H])[H])c([H])c([H])c2C1([H])[H]

$$$$
44:0:0
     RDKit          3D

 95104  0  0  1  0  0  0  0  0999 V2000
  -26.4900  -23.4240   22.1550 C   0  0  0  0  0  2  0  0  0  0  0  0
  -26.6670  -24.7340   21.4090 C   0  0  0  0  0  2  0  0  0  0  0  0
  -26.9000  -22.4060   21.0980 C   0  0  0  0  0  2  0  0  0  0  0  0
  -27.9230  -24.5150   20.5430 C   0  0  0  0  0  3  0  0  0  0  0  0
  -28.0170  -23.0220   20.3310 N   0  0  1  0  0  4  0  0  0  0  0  0
  -27.8390  -22.8140   19.3590 H   0  0  0  0  0  0  0  0  0  0  0  0
  -29.3560  -22.4280   20.6450 C   0  0  0  0  0  2  0  0  0  0  0  0
  -29.8010  -20.4840   19.0110 C   0  0  0  0  0  3  0  0  0  0  0  0
  -29.9650  -19.1060   18.7320 C   0  0  0  0  0  3  0  0  0  0  0  0
  -29.4260  -19.9590   21.3490 C   0  0  0  0  0  3  0  0  0  0  0  0
  -29.5150  -20.9280   20.3220 C   0  0  0  0  0  0  0  0  0  0  0  0
  -29.8390  -18.1380   19.7550 C   0  0  0  0  0  0  0  0  0  0  0  0
  -29.5680  -18.5820   21.0700 C   0  0  0  0  0  0  0  0  0  0  0  0
  -29.4270  -17.6850   22.0750 F   0  0  0  0  0  0  0  0  0  0  0  0
  -29.9120  -16.6340   19.4290 C   0  0  0  0  0  2  0  0  0  0  0  0
  -31.5040  -14.7530   19.2530 C   0  0  0  0  0  0  0  0  0  0  0  0
  -31.0340  -12.4320   18.5310 C   0  0  0  0  0  2  0  0  0  0  0  0
  -29.9730  -12.4100   17.4120 C   0  0  0  0  0  2  0  0  0  0  0  0
  -28.5550  -12.3830   18.0110 C   0  0  0  0  0  2  0  0  0  0  0  0
  -28.3500  -13.4670   19.1010 C   0  0  0  0  0  3  0  0  0  0  0  0
  -29.5100  -13.4490   20.1210 C   0  0  0  0  0  2  0  0  0  0  0  0
  -30.7720  -13.6060   19.3800 N   0  0  0  0  0  0  0  0  0  0  0  0
  -32.5550  -14.7870   18.6030 O   0  0  0  0  0  0  0  0  0  0  0  0
  -32.0560  -16.6030   20.7140 C   0  0  0  0  0  1  0  0  0  0  0  0
  -31.0740  -15.8520   19.9240 N   0  0  0  0  0  0  0  0  0  0  0  0
  -26.1800  -14.3300   20.1820 C   0  0  0  0  0  0  0  0  0  0  0  0
  -25.0750  -13.6780   20.6560 C   0  0  0  0  0  0  0  0  0  0  0  0
  -25.3340  -12.2840   20.4820 C   0  0  0  0  0  0  0  0  0  0  0  0
  -27.0500  -13.3400   19.7530 N   0  0  0  0  0  0  0  0  0  0  0  0
  -26.5520  -12.1000   19.9900 N   0  0  0  0  0  0  0  0  0  0  0  0
  -24.4720  -11.1170   20.7000 C   0  0  0  0  0  0  0  0  0  0  0  0
  -24.8540  -10.0700   21.5670 C   0  0  0  0  0  3  0  0  0  0  0  0
  -23.9990   -8.9650   21.7740 C   0  0  0  0  0  3  0  0  0  0  0  0
  -22.7490   -8.9030   21.1150 C   0  0  0  0  0  0  0  0  0  0  0  0
  -22.3850   -9.9370   20.2340 C   0  0  0  0  0  3  0  0  0  0  0  0
  -23.2390  -11.0330   20.0250 C   0  0  0  0  0  3  0  0  0  0  0  0
  -21.8660   -7.8580   21.2350 O   0  0  0  0  0  0  0  0  0  0  0  0
  -21.7460   -7.1480   22.4030 C   0  0  0  0  0  0  0  0  0  0  0  0
  -21.4250   -7.7760   23.6270 C   0  0  0  0  0  3  0  0  0  0  0  0
  -21.2430   -7.0010   24.7890 C   0  0  0  0  0  3  0  0  0  0  0  0
  -21.3700   -5.6000   24.7300 C   0  0  0  0  0  0  0  0  0  0  0  0
  -21.6840   -4.9730   23.5110 C   0  0  0  0  0  3  0  0  0  0  0  0
  -21.8680   -5.7450   22.3500 C   0  0  0  0  0  0  0  0  0  0  0  0
  -22.1490   -5.1350   21.1750 F   0  0  0  0  0  0  0  0  0  0  0  0
  -21.1870   -4.8550   25.8440 F   0  0  0  0  0  0  0  0  0  0  0  0
  -23.8070  -14.3110   21.1550 C   0  0  0  0  0  0  0  0  0  0  0  0
  -23.1380  -13.6730   22.1090 N   0  0  0  0  0  0  0  0  0  0  0  0
  -23.4270  -15.4030   20.7310 O   0  0  0  0  0  0  0  0  0  0  0  0
  -23.4630  -12.7890   22.4710 H   0  0  0  0  0  0  0  0  0  0  0  0
  -22.2910  -14.0760   22.4840 H   0  0  0  0  0  0  0  0  0  0  0  0
  -26.5060  -15.6770   20.0580 N   0  0  0  0  0  0  0  0  0  0  0  0
  -25.8480  -16.4110   20.2940 H   0  0  0  0  0  0  0  0  0  0  0  0
  -27.3410  -16.0280   19.6080 H   0  0  0  0  0  0  0  0  0  0  0  0
  -27.9420  -25.3620   19.2240 C   0  0  0  0  0  2  0  0  0  0  0  0
  -28.0260  -26.8000   19.4070 O   0  0  0  0  0  0  0  0  0  0  0  0
  -24.5700  -31.8060   23.1110 C   0  0  0  0  0  0  0  0  0  0  0  0
  -26.8720  -27.5640   19.5010 C   0  0  0  0  0  0  0  0  0  0  0  0
  -23.2170  -30.5610   21.4610 C   0  0  0  0  0  3  0  0  0  0  0  0
  -24.5250  -29.1270   19.8090 C   0  0  0  0  0  0  0  0  0  0  0  0
  -25.7310  -30.8900   21.1000 C   0  0  0  0  0  2  0  0  0  0  0  0
  -25.7350  -29.5730   20.3510 C   0  0  0  0  0  0  0  0  0  0  0  0
  -26.9100  -28.7970   20.1980 C   0  0  0  0  0  3  0  0  0  0  0  0
  -25.6420  -27.1630   18.9240 C   0  0  0  0  0  3  0  0  0  0  0  0
  -24.4750  -27.9240   19.0930 C   0  0  0  0  0  3  0  0  0  0  0  0
  -23.3090  -29.9990   20.0180 C   0  0  0  0  0  2  0  0  0  0  0  0
  -24.5290  -31.0970   21.9470 N   0  0  0  0  0  0  0  0  0  0  0  0
  -23.5380  -32.0470   23.7530 O   0  0  0  0  0  0  0  0  0  0  0  0
  -22.6210  -29.4710   22.3820 C   0  0  0  0  0  0  0  0  0  0  0  0
  -21.3000  -29.2530   22.2800 N   0  0  0  0  0  0  0  0  0  0  0  0
  -23.3430  -28.8290   23.1500 O   0  0  0  0  0  0  0  0  0  0  0  0
  -20.7750  -29.8280   21.6350 H   0  0  0  0  0  0  0  0  0  0  0  0
  -18.0070  -27.8190   22.6800 C   0  0  0  0  0  0  0  0  0  0  0  0
  -20.5330  -28.2520   23.0200 C   0  0  0  0  0  3  0  0  0  0  0  0
  -20.7510  -26.8380   22.4300 C   0  0  0  0  0  2  0  0  0  0  0  0
  -19.6980  -26.4540   21.3850 C   0  0  0  0  0  2  0  0  0  0  0  0
  -18.2950  -26.4910   22.0000 C   0  0  0  0  0  2  0  0  0  0  0  0
  -19.0590  -28.6520   23.1460 C   0  0  0  0  0  0  0  0  0  0  0  0
  -18.7380  -29.8920   23.7420 C   0  0  0  0  0  3  0  0  0  0  0  0
  -17.3970  -30.2970   23.8860 C   0  0  0  0  0  3  0  0  0  0  0  0
  -16.3600  -29.4610   23.4350 C   0  0  0  0  0  3  0  0  0  0  0  0
  -16.6650  -28.2260   22.8370 C   0  0  0  0  0  3  0  0  0  0  0  0
  -25.9100  -32.3680   23.6770 C   0  0  0  0  0  3  0  0  0  0  0  0
  -26.4980  -31.5040   24.8600 C   0  0  1  0  0  0  0  0  0  0  0  0
  -25.4780  -31.2110   25.9840 C   0  0  0  0  0  1  0  0  0  0  0  0
  -27.0230  -30.1460   24.3340 C   0  0  0  0  0  1  0  0  0  0  0  0
  -27.7070  -32.2340   25.4900 C   0  0  0  0  0  1  0  0  0  0  0  0
  -25.6610  -33.7480   24.1150 N   0  0  0  0  0  0  0  0  0  0  0  0
  -25.9720  -34.8400   23.4030 C   0  0  0  0  0  0  0  0  0  0  0  0
  -26.5730  -34.7870   22.3260 O   0  0  0  0  0  0  0  0  0  0  0  0
  -25.1190  -33.8660   24.9590 H   0  0  0  0  0  0  0  0  0  0  0  0
  -24.2690  -36.6860   23.2770 C   0  0  0  0  0  1  0  0  0  0  0  0
  -25.5500  -36.2050   23.9770 C   0  0  0  0  0  3  0  0  0  0  0  0
  -27.7570  -36.9940   24.7140 C   0  0  0  0  0  1  0  0  0  0  0  0
  -26.5980  -37.2430   23.8590 N   0  0  0  0  0  0  0  0  0  0  0  0
  -26.2240  -38.1590   24.0900 H   0  0  0  0  0  0  0  0  0  0  0  0
  2  1  1  0
  3  1  1  0
  4 54  1  0
  4  2  1  0
  5  4  1  0
  5  7  1  0
  5  3  1  0
  5  6  1  6
  8 11  1  0
  9  8  2  0
  9 12  1  0
 11  7  1  0
 11 10  2  0
 12 13  2  0
 13 10  1  0
 13 14  1  0
 15 12  1  0
 15 25  1  0
 16 22  1  0
 16 25  1  0
 17 22  1  0
 18 19  1  0
 18 17  1  0
 20 19  1  0
 20 29  1  0
 20 21  1  0
 22 21  1  0
 23 16  2  0
 25 24  1  0
 26 27  2  0
 27 46  1  0
 28 27  1  0
 28 31  1  0
 29 30  1  0
 29 26  1  0
 30 28  2  0
 31 32  1  0
 32 33  2  0
 34 37  1  0
 34 33  1  0
 35 34  2  0
 36 35  1  0
 36 31  2  0
 37 38  1  0
 38 39  1  0
 39 40  2  0
 41 40  1  0
 41 45  1  0
 42 41  2  0
 43 38  2  0
 43 42  1  0
 44 43  1  0
 46 47  1  0
 47 49  1  0
 47 50  1  0
 48 46  2  0
 51 26  1  0
 51 52  1  0
 53 51  1  0
 54 55  1  0
 55 57  1  0
 56 67  2  0
 57 62  1  0
 58 66  1  0
 58 68  1  0
 59 65  1  0
 59 61  1  0
 60 66  1  0
 61 60  1  0
 62 61  2  0
 63 64  1  0
 63 57  2  0
 64 59  2  0
 65 58  1  0
 66 56  1  0
 68 70  2  0
 69 68  1  0
 71 69  1  0
 72 81  2  0
 72 77  1  0
 73 69  1  0
 73 77  1  0
 74 73  1  0
 75 76  1  0
 75 74  1  0
 76 72  1  0
 77 78  2  0
 78 79  1  0
 80 79  2  0
 81 80  1  0
 82 56  1  0
 82 87  1  0
 82 83  1  0
 83 86  1  1
 83 84  1  0
 85 83  1  0
 87 90  1  0
 88 92  1  0
 88 87  1  0
 89 88  2  0
 92 91  1  0
 94 92  1  0
 94 95  1  0
 94 93  1  0
M  ISO  4  16 100  25 100  54 101  55 101
M  END
>  <TORSDO>  (45) 
F 20

>  <SCORE>  (45) 
-11.256

>  <name>  (45) 
44

>  <ligand_id>  (45) 
44

>  <original_smiles>  (45) 
[H]c1c([H])c([H])c2c(c1[H])C([H])([H])C([H])([H])C([H])([H])C2([H])N([H])C(=O)C1([H])N(C(=O)C([H])(N([H])C(=O)C([H])(N([H])C([H])([H])[H])C([H])([H])[H])C(C([H])([H])[H])(C([H])([H])[H])C([H])([H])[H])C([H])([H])c2c([H])c(OC([H])([H])C3([H])C([H])([H])C([H])([H])C([H])([H])[N+]3([H])C([H])([H])c3c([H])c([H])c(C([H])([H])N(C(=O)N4C([H])([H])C([H])([H])C([H])([H])C([H])(n5nc(-c6c([H])c([H])c(Oc7c([H])c([H])c(F)c([H])c7F)c([H])c6[H])c(C(=O)N([H])[H])c5N([H])[H])C4([H])[H])C([H])([H])[H])c(F)c3[H])c([H])c([H])c2C1([H])[H]

>  <smiles>  (45) 
[H]c1c([H])c([H])c2c(c1[H])C([H])([H])C([H])([H])C([H])([H])C2([H])N([H])C(=O)C1([H])N(C(=O)C([H])(N([H])C(=O)C([H])(N([H])C([H])([H])[H])C([H])([H])[H])C(C([H])([H])[H])(C([H])([H])[H])C([H])([H])[H])C([H])([H])c2c([H])c(OC([H])([H])C3([H])C([H])([H])C([H])([H])C([H])([H])[N+]3([H])C([H])([H])c3c([H])c([H])c(C([H])([H])N(C(=O)N4C([H])([H])C([H])([H])C([H])([H])C([H])(n5nc(-c6c([H])c([H])c(Oc7c([H])c([H])c(F)c([H])c7F)c([H])c6[H])c(C(=O)N([H])[H])c5N([H])[H])C4([H])[H])C([H])([H])[H])c(F)c3[H])c([H])c([H])c2C1([H])[H]

$$$$
45:0:0
     RDKit          3D

 92101  0  0  1  0  0  0  0  0999 V2000
  -27.1210  -23.4570   20.6500 C   0  0  0  0  0  2  0  0  0  0  0  0
  -27.3220  -22.0040   21.1290 C   0  0  0  0  0  2  0  0  0  0  0  0
  -29.4020  -22.7940   20.2630 C   0  0  0  0  0  2  0  0  0  0  0  0
  -28.5240  -24.0700   20.5900 C   0  0  0  0  0  3  0  0  0  0  0  0
  -28.6620  -21.5850   20.7070 N   0  0  0  0  0  0  0  0  0  0  0  0
  -28.1120  -19.1450   20.7460 C   0  0  0  0  0  3  0  0  0  0  0  0
  -28.4600  -17.7670   20.6640 C   0  0  0  0  0  3  0  0  0  0  0  0
  -30.4270  -19.7380   20.6440 C   0  0  0  0  0  3  0  0  0  0  0  0
  -29.0750  -20.1920   20.7010 C   0  0  0  0  0  0  0  0  0  0  0  0
  -29.7990  -17.3110   20.5600 C   0  0  0  0  0  0  0  0  0  0  0  0
  -30.7840  -18.3450   20.5820 C   0  0  0  0  0  0  0  0  0  0  0  0
  -32.0930  -18.0170   20.4660 F   0  0  0  0  0  0  0  0  0  0  0  0
  -30.8020  -14.9040   20.6410 C   0  0  0  0  0  0  0  0  0  0  0  0
  -30.7190  -12.5630   19.7870 C   0  0  0  0  0  2  0  0  0  0  0  0
  -29.8550  -12.4940   18.5080 C   0  0  0  0  0  2  0  0  0  0  0  0
  -28.3540  -12.3820   18.8490 C   0  0  0  0  0  2  0  0  0  0  0  0
  -27.8880  -13.3230   19.9940 C   0  0  0  0  0  3  0  0  0  0  0  0
  -28.8850  -13.3290   21.1720 C   0  0  0  0  0  2  0  0  0  0  0  0
  -30.2010  -13.6650   20.6220 N   0  0  0  0  0  0  0  0  0  0  0  0
  -32.0320  -14.9850   20.6050 O   0  0  0  0  0  0  0  0  0  0  0  0
  -29.9710  -15.8970   18.6140 C   0  0  0  0  0  1  0  0  0  0  0  0
  -30.0430  -15.9350   20.0890 N   0  0  0  0  0  0  0  0  0  0  0  0
  -25.4580  -13.9130   20.5550 C   0  0  0  0  0  0  0  0  0  0  0  0
  -24.3740  -13.1380   20.8690 C   0  0  0  0  0  0  0  0  0  0  0  0
  -24.8520  -11.7940   20.9010 C   0  0  0  0  0  0  0  0  0  0  0  0
  -26.5230  -13.0370   20.4140 N   0  0  0  0  0  0  0  0  0  0  0  0
  -26.1620  -11.7600   20.6860 N   0  0  0  0  0  0  0  0  0  0  0  0
  -24.1290  -10.5280   21.0650 C   0  0  0  0  0  0  0  0  0  0  0  0
  -24.5090   -9.5860   22.0440 C   0  0  0  0  0  3  0  0  0  0  0  0
  -23.7860   -8.3840   22.1970 C   0  0  0  0  0  3  0  0  0  0  0  0
  -22.6720   -8.1170   21.3680 C   0  0  0  0  0  0  0  0  0  0  0  0
  -22.3110   -9.0500   20.3800 C   0  0  0  0  0  3  0  0  0  0  0  0
  -23.0340  -10.2430   20.2250 C   0  0  0  0  0  3  0  0  0  0  0  0
  -21.9240   -6.9650   21.4280 O   0  0  0  0  0  0  0  0  0  0  0  0
  -21.7950   -6.2540   22.5950 C   0  0  0  0  0  0  0  0  0  0  0  0
  -21.2610   -6.8340   23.7650 C   0  0  0  0  0  3  0  0  0  0  0  0
  -21.0770   -6.0490   24.9200 C   0  0  0  0  0  3  0  0  0  0  0  0
  -21.4240   -4.6850   24.9070 C   0  0  0  0  0  0  0  0  0  0  0  0
  -21.9540   -4.1040   23.7420 C   0  0  0  0  0  3  0  0  0  0  0  0
  -22.1370   -4.8870   22.5880 C   0  0  0  0  0  0  0  0  0  0  0  0
  -22.6280   -4.3190   21.4600 F   0  0  0  0  0  0  0  0  0  0  0  0
  -21.2440   -3.9270   26.0150 F   0  0  0  0  0  0  0  0  0  0  0  0
  -22.9600  -13.6090   21.0290 C   0  0  0  0  0  0  0  0  0  0  0  0
  -22.1830  -12.9320   21.8660 N   0  0  0  0  0  0  0  0  0  0  0  0
  -22.5480  -14.6130   20.4490 O   0  0  0  0  0  0  0  0  0  0  0  0
  -22.5260  -12.1180   22.3560 H   0  0  0  0  0  0  0  0  0  0  0  0
  -21.2320  -13.2330   22.0250 H   0  0  0  0  0  0  0  0  0  0  0  0
  -25.6180  -15.2780   20.3520 N   0  0  0  0  0  0  0  0  0  0  0  0
  -24.8430  -15.9310   20.3940 H   0  0  0  0  0  0  0  0  0  0  0  0
  -26.4780  -15.6950   20.0210 H   0  0  0  0  0  0  0  0  0  0  0  0
  -28.6470  -25.3380   19.6330 C   0  0  0  0  0  2  0  0  0  0  0  0
  -28.4740  -26.6940   20.1670 O   0  0  0  0  0  0  0  0  0  0  0  0
  -24.6540  -31.9210   23.2060 C   0  0  0  0  0  0  0  0  0  0  0  0
  -27.2920  -27.4370   20.0990 C   0  0  0  0  0  0  0  0  0  0  0  0
  -23.4410  -30.5120   21.5730 C   0  0  0  0  0  3  0  0  0  0  0  0
  -24.8920  -28.9800   20.1220 C   0  0  0  0  0  0  0  0  0  0  0  0
  -25.9670  -30.8770   21.3500 C   0  0  0  0  0  2  0  0  0  0  0  0
  -26.0550  -29.5030   20.6990 C   0  0  0  0  0  0  0  0  0  0  0  0
  -27.2540  -28.7390   20.6770 C   0  0  0  0  0  3  0  0  0  0  0  0
  -26.1070  -26.9480   19.5080 C   0  0  0  0  0  3  0  0  0  0  0  0
  -24.9160  -27.7090   19.5180 C   0  0  0  0  0  3  0  0  0  0  0  0
  -23.6410  -29.8270   20.1930 C   0  0  0  0  0  2  0  0  0  0  0  0
  -24.7060  -31.1220   22.1000 N   0  0  0  0  0  0  0  0  0  0  0  0
  -23.5740  -32.1860   23.7560 O   0  0  0  0  0  0  0  0  0  0  0  0
  -22.8010  -29.4890   22.5420 C   0  0  0  0  0  0  0  0  0  0  0  0
  -21.4760  -29.3020   22.4300 N   0  0  0  0  0  0  0  0  0  0  0  0
  -23.4970  -28.8620   23.3460 O   0  0  0  0  0  0  0  0  0  0  0  0
  -20.9740  -29.8630   21.7560 H   0  0  0  0  0  0  0  0  0  0  0  0
  -18.1140  -28.0790   22.9520 C   0  0  0  0  0  0  0  0  0  0  0  0
  -20.6720  -28.3510   23.1990 C   0  0  0  0  0  3  0  0  0  0  0  0
  -20.7770  -26.9260   22.6080 C   0  0  0  0  0  2  0  0  0  0  0  0
  -19.6680  -26.6040   21.6030 C   0  0  0  0  0  2  0  0  0  0  0  0
  -18.2900  -26.7360   22.2620 C   0  0  0  0  0  2  0  0  0  0  0  0
  -19.2310  -28.8460   23.3740 C   0  0  0  0  0  0  0  0  0  0  0  0
  -19.0100  -30.1040   23.9740 C   0  0  0  0  0  3  0  0  0  0  0  0
  -17.7040  -30.5950   24.1580 C   0  0  0  0  0  3  0  0  0  0  0  0
  -16.6010  -29.8220   23.7560 C   0  0  0  0  0  3  0  0  0  0  0  0
  -16.8070  -28.5660   23.1580 C   0  0  0  0  0  3  0  0  0  0  0  0
  -25.9380  -32.5610   23.8220 C   0  0  0  0  0  3  0  0  0  0  0  0
  -25.6190  -33.9540   24.1680 N   0  0  0  0  0  0  0  0  0  0  0  0
  -25.9400  -35.0170   23.4150 C   0  0  0  0  0  0  0  0  0  0  0  0
  -26.6040  -34.9270   22.3790 O   0  0  0  0  0  0  0  0  0  0  0  0
  -25.0420  -34.0950   24.9850 H   0  0  0  0  0  0  0  0  0  0  0  0
  -24.2110  -36.8090   23.0730 C   0  0  0  0  0  1  0  0  0  0  0  0
  -25.4480  -36.3970   23.8870 C   0  0  0  0  0  3  0  0  0  0  0  0
  -27.5780  -37.2740   24.7430 C   0  0  0  0  0  1  0  0  0  0  0  0
  -26.4820  -37.4530   23.7960 N   0  0  0  0  0  0  0  0  0  0  0  0
  -26.0710  -38.3690   23.9560 H   0  0  0  0  0  0  0  0  0  0  0  0
  -26.4750  -31.7880   25.0910 C   0  0  1  0  0  0  0  0  0  0  0  0
  -25.3960  -31.5350   26.1730 C   0  0  0  0  0  1  0  0  0  0  0  0
  -27.0650  -30.4190   24.6830 C   0  0  0  0  0  1  0  0  0  0  0  0
  -27.6240  -32.5920   25.7450 C   0  0  0  0  0  1  0  0  0  0  0  0
  1  2  1  0
  3  4  1  0
  3  5  1  0
  4 51  1  0
  4  1  1  0
  5  2  1  0
  7  6  2  0
  8  9  2  0
  9  5  1  0
  9  6  1  0
 10 11  2  0
 10  7  1  0
 11  8  1  0
 12 11  1  0
 14 19  1  0
 15 16  1  0
 15 14  1  0
 17 16  1  0
 17 26  1  0
 17 18  1  0
 19 13  1  0
 19 18  1  0
 20 13  2  0
 21 22  1  0
 22 10  1  0
 22 13  1  0
 23 24  2  0
 24 25  1  0
 24 43  1  0
 25 28  1  0
 26 23  1  0
 26 27  1  0
 27 25  2  0
 28 29  1  0
 29 30  2  0
 31 34  1  0
 31 30  1  0
 32 31  2  0
 33 32  1  0
 33 28  2  0
 34 35  1  0
 35 36  1  0
 36 37  2  0
 38 37  1  0
 38 42  1  0
 39 38  2  0
 40 35  2  0
 40 39  1  0
 41 40  1  0
 43 44  1  0
 44 47  1  0
 44 46  1  0
 45 43  2  0
 48 49  1  0
 48 23  1  0
 50 48  1  0
 51 52  1  0
 53 64  2  0
 54 52  1  0
 54 59  1  0
 55 63  1  0
 55 65  1  0
 56 62  1  0
 56 58  1  0
 57 63  1  0
 58 57  1  0
 59 58  2  0
 60 61  1  0
 60 54  2  0
 61 56  2  0
 62 55  1  0
 63 53  1  0
 65 67  2  0
 66 65  1  0
 68 66  1  0
 69 78  2  0
 69 74  1  0
 70 66  1  0
 70 74  1  0
 71 70  1  0
 72 73  1  0
 72 71  1  0
 73 69  1  0
 74 75  2  0
 75 76  1  0
 77 76  2  0
 78 77  1  0
 79 53  1  0
 79 80  1  0
 79 89  1  0
 80 83  1  0
 81 85  1  0
 81 80  1  0
 82 81  2  0
 85 84  1  0
 87 85  1  0
 87 88  1  0
 87 86  1  0
 89 92  1  1
 89 90  1  0
 91 89  1  0
M  ISO  4  13 100  22 100  51 101  52 101
M  END
>  <TORSDO>  (46) 
F 18

>  <SCORE>  (46) 
-13.886

>  <name>  (46) 
45

>  <ligand_id>  (46) 
45

>  <original_smiles>  (46) 
[H]c1c([H])c([H])c2c(c1[H])C([H])([H])C([H])([H])C([H])([H])C2([H])N([H])C(=O)C1([H])N(C(=O)C([H])(N([H])C(=O)C([H])(N([H])C([H])([H])[H])C([H])([H])[H])C(C([H])([H])[H])(C([H])([H])[H])C([H])([H])[H])C([H])([H])c2c([H])c(OC([H])([H])C3([H])C([H])([H])N(c4c([H])c([H])c(N(C(=O)N5C([H])([H])C([H])([H])C([H])([H])C([H])(n6nc(-c7c([H])c([H])c(Oc8c([H])c([H])c(F)c([H])c8F)c([H])c7[H])c(C(=O)N([H])[H])c6N([H])[H])C5([H])[H])C([H])([H])[H])c(F)c4[H])C([H])([H])C3([H])[H])c([H])c([H])c2C1([H])[H]

>  <smiles>  (46) 
[H]c1c([H])c([H])c2c(c1[H])C([H])([H])C([H])([H])C([H])([H])C2([H])N([H])C(=O)C1([H])N(C(=O)C([H])(N([H])C(=O)C([H])(N([H])C([H])([H])[H])C([H])([H])[H])C(C([H])([H])[H])(C([H])([H])[H])C([H])([H])[H])C([H])([H])c2c([H])c(OC([H])([H])C3([H])C([H])([H])N(c4c([H])c([H])c(N(C(=O)N5C([H])([H])C([H])([H])C([H])([H])C([H])(n6nc(-c7c([H])c([H])c(Oc8c([H])c([H])c(F)c([H])c8F)c([H])c7[H])c(C(=O)N([H])[H])c6N([H])[H])C5([H])[H])C([H])([H])[H])c(F)c4[H])C([H])([H])C3([H])[H])c([H])c([H])c2C1([H])[H]

$$$$
46:0:0
     RDKit          3D

 92100  0  0  1  0  0  0  0  0999 V2000
  -28.3680  -19.8640   20.0330 C   0  0  0  0  0  3  0  0  0  0  0  0
  -28.6880  -18.4540   20.0150 C   0  0  0  0  0  3  0  0  0  0  0  0
  -30.3930  -20.2790   21.1570 C   0  0  0  0  0  3  0  0  0  0  0  0
  -29.2030  -20.8750   20.5950 C   0  0  0  0  0  0  0  0  0  0  0  0
  -29.8940  -17.8550   20.5300 C   0  0  0  0  0  0  0  0  0  0  0  0
  -30.7340  -18.8580   21.1230 C   0  0  0  0  0  0  0  0  0  0  0  0
  -31.9180  -18.4690   21.6540 F   0  0  0  0  0  0  0  0  0  0  0  0
  -30.8810  -15.3080   20.8890 C   0  0  0  0  0  0  0  0  0  0  0  0
  -30.8840  -12.8700   20.1700 C   0  0  0  0  0  2  0  0  0  0  0  0
  -30.0830  -12.5770   18.8750 C   0  0  0  0  0  2  0  0  0  0  0  0
  -28.5720  -12.4760   19.1440 C   0  0  0  0  0  2  0  0  0  0  0  0
  -28.0370  -13.5280   20.1520 C   0  0  0  0  0  3  0  0  0  0  0  0
  -28.9610  -13.6820   21.3760 C   0  0  0  0  0  2  0  0  0  0  0  0
  -30.2830  -14.0480   20.8580 N   0  0  0  0  0  0  0  0  0  0  0  0
  -32.1150  -15.3290   20.9550 O   0  0  0  0  0  0  0  0  0  0  0  0
  -30.2170  -16.3840   20.2190 N   0  0  0  0  0  0  0  0  0  0  0  0
  -25.5960  -14.1460   20.6140 C   0  0  0  0  0  0  0  0  0  0  0  0
  -24.4920  -13.3870   20.8900 C   0  0  0  0  0  0  0  0  0  0  0  0
  -24.9500  -12.0360   20.9690 C   0  0  0  0  0  0  0  0  0  0  0  0
  -26.6540  -13.2590   20.5280 N   0  0  0  0  0  0  0  0  0  0  0  0
  -26.2670  -11.9890   20.8150 N   0  0  0  0  0  0  0  0  0  0  0  0
  -24.2030  -10.7810   21.1220 C   0  0  0  0  0  0  0  0  0  0  0  0
  -24.5680   -9.8160   22.0860 C   0  0  0  0  0  3  0  0  0  0  0  0
  -23.8210   -8.6270   22.2280 C   0  0  0  0  0  3  0  0  0  0  0  0
  -22.6940   -8.3950   21.4050 C   0  0  0  0  0  0  0  0  0  0  0  0
  -22.3470   -9.3480   20.4310 C   0  0  0  0  0  3  0  0  0  0  0  0
  -23.0960  -10.5290   20.2880 C   0  0  0  0  0  3  0  0  0  0  0  0
  -21.9240   -7.2570   21.4550 O   0  0  0  0  0  0  0  0  0  0  0  0
  -21.7810   -6.5350   22.6130 C   0  0  0  0  0  0  0  0  0  0  0  0
  -21.2350   -7.1050   23.7830 C   0  0  0  0  0  3  0  0  0  0  0  0
  -21.0410   -6.3080   24.9290 C   0  0  0  0  0  3  0  0  0  0  0  0
  -21.3850   -4.9430   24.9060 C   0  0  0  0  0  0  0  0  0  0  0  0
  -21.9250   -4.3740   23.7390 C   0  0  0  0  0  3  0  0  0  0  0  0
  -22.1200   -5.1670   22.5950 C   0  0  0  0  0  0  0  0  0  0  0  0
  -22.6210   -4.6080   21.4670 F   0  0  0  0  0  0  0  0  0  0  0  0
  -21.1930   -4.1750   26.0040 F   0  0  0  0  0  0  0  0  0  0  0  0
  -23.0750  -13.8740   20.9770 C   0  0  0  0  0  0  0  0  0  0  0  0
  -22.2600  -13.2400   21.8140 N   0  0  0  0  0  0  0  0  0  0  0  0
  -22.6940  -14.8510   20.3360 O   0  0  0  0  0  0  0  0  0  0  0  0
  -22.5760  -12.4480   22.3530 H   0  0  0  0  0  0  0  0  0  0  0  0
  -21.3050  -13.5540   21.9180 H   0  0  0  0  0  0  0  0  0  0  0  0
  -25.7880  -15.5080   20.4010 N   0  0  0  0  0  0  0  0  0  0  0  0
  -25.0230  -16.1730   20.4130 H   0  0  0  0  0  0  0  0  0  0  0  0
  -26.6810  -15.9330   20.1840 H   0  0  0  0  0  0  0  0  0  0  0  0
  -30.2950  -16.1990   18.7470 C   0  0  0  0  0  2  0  0  0  0  0  0
  -31.4800  -16.7720   16.5530 C   0  0  0  0  0  1  0  0  0  0  0  0
  -31.3350  -17.1050   18.0430 C   0  0  0  0  0  2  0  0  0  0  0  0
  -28.5960  -22.5440   22.2250 C   0  0  0  0  0  1  0  0  0  0  0  0
  -28.7400  -22.2750   20.7960 N   0  0  0  0  0  0  0  0  0  0  0  0
  -28.8380  -23.5610   19.9220 C   0  0  0  0  0  3  0  0  0  0  0  0
  -27.9080  -24.9260   20.2420 C   0  0  0  0  0  3  0  0  0  0  0  0
  -28.1330  -26.3880   19.7700 O   0  0  0  0  0  0  0  0  0  0  0  0
  -24.5610  -31.8770   23.1220 C   0  0  0  0  0  0  0  0  0  0  0  0
  -27.0680  -27.3510   19.8080 C   0  0  0  0  0  0  0  0  0  0  0  0
  -23.3190  -30.5540   21.4540 C   0  0  0  0  0  3  0  0  0  0  0  0
  -24.7310  -29.0640   19.9140 C   0  0  0  0  0  0  0  0  0  0  0  0
  -25.8620  -30.8560   21.2200 C   0  0  0  0  0  2  0  0  0  0  0  0
  -25.9240  -29.4960   20.5080 C   0  0  0  0  0  0  0  0  0  0  0  0
  -27.0970  -28.6560   20.4380 C   0  0  0  0  0  3  0  0  0  0  0  0
  -25.8550  -27.0220   19.1680 C   0  0  0  0  0  3  0  0  0  0  0  0
  -24.7080  -27.8420   19.2260 C   0  0  0  0  0  3  0  0  0  0  0  0
  -23.5000  -29.9480   20.0370 C   0  0  0  0  0  2  0  0  0  0  0  0
  -24.6010  -31.1150   21.9870 N   0  0  0  0  0  0  0  0  0  0  0  0
  -23.4910  -32.1210   23.6990 O   0  0  0  0  0  0  0  0  0  0  0  0
  -22.6810  -29.4920   22.3860 C   0  0  0  0  0  0  0  0  0  0  0  0
  -21.3530  -29.3030   22.2810 N   0  0  0  0  0  0  0  0  0  0  0  0
  -23.3810  -28.8440   23.1670 O   0  0  0  0  0  0  0  0  0  0  0  0
  -20.8410  -29.8790   21.6290 H   0  0  0  0  0  0  0  0  0  0  0  0
  -18.0060  -28.0200   22.8020 C   0  0  0  0  0  0  0  0  0  0  0  0
  -20.5650  -28.3230   23.0320 C   0  0  0  0  0  3  0  0  0  0  0  0
  -20.6820  -26.9140   22.4030 C   0  0  0  0  0  2  0  0  0  0  0  0
  -19.5670  -26.6080   21.3970 C   0  0  0  0  0  2  0  0  0  0  0  0
  -18.1960  -26.7010   22.0710 C   0  0  0  0  0  2  0  0  0  0  0  0
  -19.1170  -28.7880   23.2380 C   0  0  0  0  0  0  0  0  0  0  0  0
  -18.8840  -30.0220   23.8840 C   0  0  0  0  0  3  0  0  0  0  0  0
  -17.5720  -30.4880   24.0940 C   0  0  0  0  0  3  0  0  0  0  0  0
  -16.4750  -29.7160   23.6710 C   0  0  0  0  0  3  0  0  0  0  0  0
  -16.6930  -28.4830   23.0310 C   0  0  0  0  0  3  0  0  0  0  0  0
  -25.8540  -32.4930   23.7380 C   0  0  0  0  0  3  0  0  0  0  0  0
  -25.5550  -33.8850   24.1060 N   0  0  0  0  0  0  0  0  0  0  0  0
  -25.8800  -34.9560   23.3680 C   0  0  0  0  0  0  0  0  0  0  0  0
  -26.5280  -34.8750   22.3220 O   0  0  0  0  0  0  0  0  0  0  0  0
  -24.9830  -34.0230   24.9250 H   0  0  0  0  0  0  0  0  0  0  0  0
  -24.1630  -36.7770   23.0890 C   0  0  0  0  0  1  0  0  0  0  0  0
  -25.4110  -36.3370   23.8710 C   0  0  0  0  0  3  0  0  0  0  0  0
  -27.5580  -37.1900   24.7060 C   0  0  0  0  0  1  0  0  0  0  0  0
  -26.4510  -37.3840   23.7730 N   0  0  0  0  0  0  0  0  0  0  0  0
  -26.0520  -38.3040   23.9440 H   0  0  0  0  0  0  0  0  0  0  0  0
  -26.3880  -31.6930   24.9900 C   0  0  1  0  0  0  0  0  0  0  0  0
  -25.3180  -31.4510   26.0810 C   0  0  0  0  0  1  0  0  0  0  0  0
  -26.9430  -30.3130   24.5660 C   0  0  0  0  0  1  0  0  0  0  0  0
  -27.5670  -32.4590   25.6360 C   0  0  0  0  0  1  0  0  0  0  0  0
  1  4  1  0
  2  1  2  0
  2  5  1  0
  4 49  1  0
  4  3  2  0
  5  6  2  0
  6  3  1  0
  6  7  1  0
  8 15  2  0
  9 14  1  0
 10 11  1  0
 10  9  1  0
 12 11  1  0
 12 20  1  0
 12 13  1  0
 14  8  1  0
 14 13  1  0
 16  5  1  0
 16  8  1  0
 17 18  2  0
 18 19  1  0
 18 37  1  0
 19 22  1  0
 20 17  1  0
 20 21  1  0
 21 19  2  0
 22 23  1  0
 23 24  2  0
 25 28  1  0
 25 24  1  0
 26 25  2  0
 27 26  1  0
 27 22  2  0
 28 29  1  0
 29 30  1  0
 30 31  2  0
 32 31  1  0
 32 36  1  0
 33 32  2  0
 34 29  2  0
 34 33  1  0
 35 34  1  0
 37 38  1  0
 38 41  1  0
 38 40  1  0
 39 37  2  0
 42 43  1  0
 42 17  1  0
 44 42  1  0
 45 16  1  0
 46 47  1  0
 47 45  1  0
 49 48  1  0
 50 51  2  0
 50 49  1  0
 52 54  1  0
 52 51  1  0
 53 64  2  0
 54 59  1  0
 55 63  1  0
 55 65  1  0
 56 62  1  0
 56 58  1  0
 57 63  1  0
 58 57  1  0
 59 58  2  0
 60 61  1  0
 60 54  2  0
 61 56  2  0
 62 55  1  0
 63 53  1  0
 65 67  2  0
 66 65  1  0
 68 66  1  0
 69 78  2  0
 69 74  1  0
 70 66  1  0
 70 74  1  0
 71 70  1  0
 72 73  1  0
 72 71  1  0
 73 69  1  0
 74 75  2  0
 75 76  1  0
 77 76  2  0
 78 77  1  0
 79 53  1  0
 79 80  1  0
 79 89  1  0
 80 83  1  0
 81 85  1  0
 81 80  1  0
 82 81  2  0
 85 84  1  0
 87 85  1  0
 87 88  1  0
 87 86  1  0
 89 92  1  1
 89 90  1  0
 91 89  1  0
M  ISO  4   8 100  16 100  51 101  52 101
M  END
>  <TORSDO>  (47) 
F 21

>  <SCORE>  (47) 
-12.871

>  <name>  (47) 
46

>  <ligand_id>  (47) 
46

>  <original_smiles>  (47) 
[H]c1c([H])c([H])c2c(c1[H])C([H])([H])C([H])([H])C([H])([H])C2([H])N([H])C(=O)C1([H])N(C(=O)C([H])(N([H])C(=O)C([H])(N([H])C([H])([H])[H])C([H])([H])[H])C(C([H])([H])[H])(C([H])([H])[H])C([H])([H])[H])C([H])([H])c2c([H])c(OC([H])([H])C([H])([H])N(c3c([H])c([H])c(N(C(=O)N4C([H])([H])C([H])([H])C([H])([H])C([H])(n5nc(-c6c([H])c([H])c(Oc7c([H])c([H])c(F)c([H])c7F)c([H])c6[H])c(C(=O)N([H])[H])c5N([H])[H])C4([H])[H])C([H])([H])C([H])([H])C([H])([H])[H])c(F)c3[H])C([H])([H])[H])c([H])c([H])c2C1([H])[H]

>  <smiles>  (47) 
[H]c1c([H])c([H])c2c(c1[H])C([H])([H])C([H])([H])C([H])([H])C2([H])N([H])C(=O)C1([H])N(C(=O)C([H])(N([H])C(=O)C([H])(N([H])C([H])([H])[H])C([H])([H])[H])C(C([H])([H])[H])(C([H])([H])[H])C([H])([H])[H])C([H])([H])c2c([H])c(OC([H])([H])C([H])([H])N(c3c([H])c([H])c(N(C(=O)N4C([H])([H])C([H])([H])C([H])([H])C([H])(n5nc(-c6c([H])c([H])c(Oc7c([H])c([H])c(F)c([H])c7F)c([H])c6[H])c(C(=O)N([H])[H])c5N([H])[H])C4([H])[H])C([H])([H])C([H])([H])C([H])([H])[H])c(F)c3[H])C([H])([H])[H])c([H])c([H])c2C1([H])[H]

$$$$
47:0:0
     RDKit          3D

 91100  0  0  1  0  0  0  0  0999 V2000
  -31.3130  -22.2580   21.3310 C   0  0  0  0  0  1  0  0  0  0  0  0
  -30.0400  -21.9670   20.6690 N   0  0  0  0  0  0  0  0  0  0  0  0
  -28.1680  -18.8030   19.7170 C   0  0  0  0  0  3  0  0  0  0  0  0
  -28.5110  -20.1690   19.8530 C   0  0  0  0  0  3  0  0  0  0  0  0
  -30.5150  -19.5560   21.0990 C   0  0  0  0  0  3  0  0  0  0  0  0
  -29.0140  -17.8350   20.2840 C   0  0  0  0  0  0  0  0  0  0  0  0
  -30.1600  -18.1980   20.9590 C   0  0  0  0  0  0  0  0  0  0  0  0
  -29.6930  -20.5850   20.5350 C   0  0  0  0  0  0  0  0  0  0  0  0
  -28.8300  -16.3450   20.2660 C   0  0  0  0  0  2  0  0  0  0  0  0
  -30.9010  -16.9770   21.4710 C   0  0  0  0  0  2  0  0  0  0  0  0
  -29.9700  -15.7540   21.1500 C   0  0  0  0  0  3  0  0  0  0  0  0
  -30.6490  -14.5140   20.4890 C   0  0  0  0  0  0  0  0  0  0  0  0
  -30.3520  -12.3390   19.3470 C   0  0  0  0  0  2  0  0  0  0  0  0
  -29.3980  -12.5090   18.1450 C   0  0  0  0  0  2  0  0  0  0  0  0
  -27.9290  -12.3430   18.5850 C   0  0  0  0  0  2  0  0  0  0  0  0
  -27.5830  -13.2040   19.8250 C   0  0  0  0  0  3  0  0  0  0  0  0
  -28.6500  -13.0310   20.9320 C   0  0  0  0  0  2  0  0  0  0  0  0
  -29.9740  -13.3330   20.3660 N   0  0  0  0  0  0  0  0  0  0  0  0
  -31.7670  -14.6640   19.9890 O   0  0  0  0  0  0  0  0  0  0  0  0
  -25.1990  -13.8300   20.5690 C   0  0  0  0  0  0  0  0  0  0  0  0
  -24.1340  -13.0620   20.9530 C   0  0  0  0  0  0  0  0  0  0  0  0
  -24.5920  -11.7100   20.9170 C   0  0  0  0  0  0  0  0  0  0  0  0
  -26.2380  -12.9430   20.3230 N   0  0  0  0  0  0  0  0  0  0  0  0
  -25.8780  -11.6640   20.5930 N   0  0  0  0  0  0  0  0  0  0  0  0
  -23.8660  -10.4510   21.1100 C   0  0  0  0  0  0  0  0  0  0  0  0
  -24.3270   -9.4660   22.0100 C   0  0  0  0  0  3  0  0  0  0  0  0
  -23.6020   -8.2680   22.1910 C   0  0  0  0  0  3  0  0  0  0  0  0
  -22.4050   -8.0480   21.4720 C   0  0  0  0  0  0  0  0  0  0  0  0
  -21.9640   -9.0220   20.5590 C   0  0  0  0  0  3  0  0  0  0  0  0
  -22.6890  -10.2110   20.3760 C   0  0  0  0  0  3  0  0  0  0  0  0
  -21.6490   -6.9050   21.5650 O   0  0  0  0  0  0  0  0  0  0  0  0
  -21.6570   -6.1270   22.6950 C   0  0  0  0  0  0  0  0  0  0  0  0
  -21.3240   -6.6530   23.9630 C   0  0  0  0  0  3  0  0  0  0  0  0
  -21.2780   -5.8030   25.0870 C   0  0  0  0  0  3  0  0  0  0  0  0
  -21.5550   -4.4300   24.9430 C   0  0  0  0  0  0  0  0  0  0  0  0
  -21.8820   -3.9050   23.6800 C   0  0  0  0  0  3  0  0  0  0  0  0
  -21.9300   -4.7520   22.5600 C   0  0  0  0  0  0  0  0  0  0  0  0
  -22.2250   -4.2380   21.3410 F   0  0  0  0  0  0  0  0  0  0  0  0
  -21.5030   -3.6120   26.0190 F   0  0  0  0  0  0  0  0  0  0  0  0
  -22.7400  -13.5430   21.2380 C   0  0  0  0  0  0  0  0  0  0  0  0
  -22.0190  -12.8500   22.1120 N   0  0  0  0  0  0  0  0  0  0  0  0
  -22.2980  -14.5700   20.7220 O   0  0  0  0  0  0  0  0  0  0  0  0
  -22.3860  -12.0190   22.5520 H   0  0  0  0  0  0  0  0  0  0  0  0
  -21.0830  -13.1540   22.3460 H   0  0  0  0  0  0  0  0  0  0  0  0
  -25.3540  -15.2000   20.3880 N   0  0  0  0  0  0  0  0  0  0  0  0
  -24.5870  -15.8480   20.5260 H   0  0  0  0  0  0  0  0  0  0  0  0
  -26.1880  -15.6450   20.0320 H   0  0  0  0  0  0  0  0  0  0  0  0
  -29.5210  -23.0050   19.7500 C   0  0  0  0  0  2  0  0  0  0  0  0
  -29.1790  -24.3620   20.4360 C   0  0  0  0  0  2  0  0  0  0  0  0
  -28.5680  -25.4200   19.4800 C   0  0  0  0  0  2  0  0  0  0  0  0
  -28.4140  -26.7080   20.1240 O   0  0  0  0  0  0  0  0  0  0  0  0
  -24.6010  -31.8840   23.2250 C   0  0  0  0  0  0  0  0  0  0  0  0
  -27.2160  -27.4120   20.1080 C   0  0  0  0  0  0  0  0  0  0  0  0
  -23.3820  -30.4820   21.5960 C   0  0  0  0  0  3  0  0  0  0  0  0
  -24.8210  -28.9430   20.1590 C   0  0  0  0  0  0  0  0  0  0  0  0
  -25.9090  -30.8290   21.3780 C   0  0  0  0  0  2  0  0  0  0  0  0
  -25.9850  -29.4560   20.7380 C   0  0  0  0  0  0  0  0  0  0  0  0
  -27.1800  -28.6940   20.7140 C   0  0  0  0  0  3  0  0  0  0  0  0
  -26.0190  -26.9210   19.5320 C   0  0  0  0  0  3  0  0  0  0  0  0
  -24.8320  -27.6740   19.5600 C   0  0  0  0  0  3  0  0  0  0  0  0
  -23.5810  -29.8050   20.2150 C   0  0  0  0  0  2  0  0  0  0  0  0
  -24.6500  -31.0800   22.1240 N   0  0  0  0  0  0  0  0  0  0  0  0
  -23.5230  -32.1570   23.7720 O   0  0  0  0  0  0  0  0  0  0  0  0
  -22.7380  -29.4590   22.5610 C   0  0  0  0  0  0  0  0  0  0  0  0
  -21.4120  -29.2780   22.4470 N   0  0  0  0  0  0  0  0  0  0  0  0
  -23.4290  -28.8320   23.3690 O   0  0  0  0  0  0  0  0  0  0  0  0
  -20.9140  -29.8370   21.7690 H   0  0  0  0  0  0  0  0  0  0  0  0
  -18.0440  -28.0750   22.9630 C   0  0  0  0  0  0  0  0  0  0  0  0
  -20.6020  -28.3400   23.2250 C   0  0  0  0  0  3  0  0  0  0  0  0
  -20.7070  -26.9060   22.6540 C   0  0  0  0  0  2  0  0  0  0  0  0
  -19.6020  -26.5770   21.6460 C   0  0  0  0  0  2  0  0  0  0  0  0
  -18.2220  -26.7240   22.2930 C   0  0  0  0  0  2  0  0  0  0  0  0
  -19.1620  -28.8420   23.3860 C   0  0  0  0  0  0  0  0  0  0  0  0
  -18.9410  -30.1090   23.9700 C   0  0  0  0  0  3  0  0  0  0  0  0
  -17.6360  -30.6070   24.1380 C   0  0  0  0  0  3  0  0  0  0  0  0
  -16.5330  -29.8370   23.7310 C   0  0  0  0  0  3  0  0  0  0  0  0
  -16.7380  -28.5740   23.1470 C   0  0  0  0  0  3  0  0  0  0  0  0
  -25.8910  -32.5170   23.8320 C   0  0  0  0  0  3  0  0  0  0  0  0
  -26.4310  -31.7380   25.0930 C   0  0  1  0  0  0  0  0  0  0  0  0
  -25.3570  -31.4900   26.1780 C   0  0  0  0  0  1  0  0  0  0  0  0
  -27.0100  -30.3670   24.6760 C   0  0  0  0  0  1  0  0  0  0  0  0
  -27.5900  -32.5310   25.7440 C   0  0  0  0  0  1  0  0  0  0  0  0
  -25.5810  -33.9110   24.1770 N   0  0  0  0  0  0  0  0  0  0  0  0
  -25.8980  -34.9690   23.4190 C   0  0  0  0  0  0  0  0  0  0  0  0
  -26.5520  -34.8760   22.3770 O   0  0  0  0  0  0  0  0  0  0  0  0
  -25.0060  -34.0580   24.9920 H   0  0  0  0  0  0  0  0  0  0  0  0
  -24.1520  -36.7490   23.1050 C   0  0  0  0  0  1  0  0  0  0  0  0
  -25.4100  -36.3500   23.8930 C   0  0  0  0  0  3  0  0  0  0  0  0
  -27.5580  -37.2410   24.6860 C   0  0  0  0  0  1  0  0  0  0  0  0
  -26.4330  -37.4130   23.7700 N   0  0  0  0  0  0  0  0  0  0  0  0
  -26.0220  -38.3260   23.9440 H   0  0  0  0  0  0  0  0  0  0  0  0
  2  1  1  0
  3  4  2  0
  3  6  1  0
  4  8  1  0
  6  7  2  0
  7  5  1  0
  7 10  1  0
  8  2  1  0
  8  5  2  0
  9  6  1  0
  9 11  1  0
 11 12  1  0
 11 10  1  0
 13 18  1  0
 14 15  1  0
 14 13  1  0
 16 15  1  0
 16 23  1  0
 16 17  1  0
 18 12  1  0
 18 17  1  0
 19 12  2  0
 20 21  2  0
 21 40  1  0
 22 21  1  0
 22 25  1  0
 23 20  1  0
 23 24  1  0
 24 22  2  0
 25 26  1  0
 26 27  2  0
 28 31  1  0
 28 27  1  0
 29 28  2  0
 30 29  1  0
 30 25  2  0
 31 32  1  0
 32 33  1  0
 33 34  2  0
 35 34  1  0
 35 39  1  0
 36 35  2  0
 37 32  2  0
 37 36  1  0
 38 37  1  0
 40 41  1  0
 41 44  1  0
 41 43  1  0
 42 40  2  0
 45 46  1  0
 45 20  1  0
 47 45  1  0
 48 49  1  0
 48  2  1  0
 50 51  1  0
 50 49  1  0
 52 63  2  0
 53 51  1  0
 53 58  1  0
 54 62  1  0
 54 64  1  0
 55 61  1  0
 55 57  1  0
 56 62  1  0
 57 56  1  0
 58 57  2  0
 59 60  1  0
 59 53  2  0
 60 55  2  0
 61 54  1  0
 62 52  1  0
 64 66  2  0
 65 64  1  0
 67 65  1  0
 68 77  2  0
 68 73  1  0
 69 65  1  0
 69 73  1  0
 70 69  1  0
 71 72  1  0
 71 70  1  0
 72 68  1  0
 73 74  2  0
 74 75  1  0
 76 75  2  0
 77 76  1  0
 78 52  1  0
 78 83  1  0
 78 79  1  0
 79 82  1  1
 79 80  1  0
 81 79  1  0
 83 86  1  0
 84 88  1  0
 84 83  1  0
 85 84  2  0
 88 87  1  0
 90 88  1  0
 90 91  1  0
 90 89  1  0
M  ISO  4  11 100  12 100  50 101  51 101
M  END
>  <TORSDO>  (48) 
F 20

>  <SCORE>  (48) 
-14.244

>  <name>  (48) 
47

>  <ligand_id>  (48) 
47

>  <original_smiles>  (48) 
[H]c1c([H])c([H])c2c(c1[H])C([H])([H])C([H])([H])C([H])([H])C2([H])N([H])C(=O)C1([H])N(C(=O)C([H])(N([H])C(=O)C([H])(N([H])C([H])([H])[H])C([H])([H])[H])C(C([H])([H])[H])(C([H])([H])[H])C([H])([H])[H])C([H])([H])c2c([H])c(OC([H])([H])C([H])([H])C([H])([H])N(c3c([H])c([H])c4c(c3[H])C([H])([H])C([H])(C(=O)N3C([H])([H])C([H])([H])C([H])([H])C([H])(n5nc(-c6c([H])c([H])c(Oc7c([H])c([H])c(F)c([H])c7F)c([H])c6[H])c(C(=O)N([H])[H])c5N([H])[H])C3([H])[H])C4([H])[H])C([H])([H])[H])c([H])c([H])c2C1([H])[H]

>  <smiles>  (48) 
[H]c1c([H])c([H])c2c(c1[H])C([H])([H])C([H])([H])C([H])([H])C2([H])N([H])C(=O)C1([H])N(C(=O)C([H])(N([H])C(=O)C([H])(N([H])C([H])([H])[H])C([H])([H])[H])C(C([H])([H])[H])(C([H])([H])[H])C([H])([H])[H])C([H])([H])c2c([H])c(OC([H])([H])C([H])([H])C([H])([H])N(c3c([H])c([H])c4c(c3[H])C([H])([H])C([H])(C(=O)N3C([H])([H])C([H])([H])C([H])([H])C([H])(n5nc(-c6c([H])c([H])c(Oc7c([H])c([H])c(F)c([H])c7F)c([H])c6[H])c(C(=O)N([H])[H])c5N([H])[H])C3([H])[H])C4([H])[H])C([H])([H])[H])c([H])c([H])c2C1([H])[H]

$$$$
48:0:0
     RDKit          3D

 90 98  0  0  1  0  0  0  0  0999 V2000
  -31.0370  -17.9100   19.9770 C   0  0  0  0  0  3  0  0  0  0  0  0
  -31.0130  -19.3290   19.8310 C   0  0  0  0  0  3  0  0  0  0  0  0
  -28.7300  -17.9770   20.6360 C   0  0  0  0  0  3  0  0  0  0  0  0
  -29.8880  -17.1860   20.3860 C   0  0  0  0  0  0  0  0  0  0  0  0
  -29.8590  -20.1220   20.0780 C   0  0  0  0  0  0  0  0  0  0  0  0
  -28.7050  -19.3980   20.4900 C   0  0  0  0  0  0  0  0  0  0  0  0
  -27.5490  -20.0520   20.7580 F   0  0  0  0  0  0  0  0  0  0  0  0
  -30.5980  -14.6850   20.1250 C   0  0  0  0  0  0  0  0  0  0  0  0
  -30.3560  -12.4480   19.0640 C   0  0  0  0  0  2  0  0  0  0  0  0
  -29.3690  -12.5900   17.8830 C   0  0  0  0  0  2  0  0  0  0  0  0
  -27.9110  -12.4310   18.3610 C   0  0  0  0  0  2  0  0  0  0  0  0
  -27.6000  -13.2790   19.6230 C   0  0  0  0  0  3  0  0  0  0  0  0
  -28.6980  -13.1110   20.6970 C   0  0  0  0  0  2  0  0  0  0  0  0
  -29.9860  -13.4590   20.0760 N   0  0  0  0  0  0  0  0  0  0  0  0
  -31.7390  -14.8470   19.6810 O   0  0  0  0  0  0  0  0  0  0  0  0
  -29.8100  -15.7270   20.5450 N   0  0  0  0  0  0  0  0  0  0  0  0
  -28.9370  -15.4010   20.9340 H   0  0  0  0  0  0  0  0  0  0  0  0
  -25.2380  -13.8750   20.4420 C   0  0  0  0  0  0  0  0  0  0  0  0
  -24.1830  -13.1000   20.8410 C   0  0  0  0  0  0  0  0  0  0  0  0
  -24.6380  -11.7470   20.7700 C   0  0  0  0  0  0  0  0  0  0  0  0
  -26.2690  -12.9940   20.1530 N   0  0  0  0  0  0  0  0  0  0  0  0
  -25.9140  -11.7080   20.4090 N   0  0  0  0  0  0  0  0  0  0  0  0
  -23.9120  -10.4850   20.9680 C   0  0  0  0  0  0  0  0  0  0  0  0
  -24.3650   -9.5090   21.8830 C   0  0  0  0  0  3  0  0  0  0  0  0
  -23.6420   -8.3110   22.0690 C   0  0  0  0  0  3  0  0  0  0  0  0
  -22.4500   -8.0820   21.3400 C   0  0  0  0  0  0  0  0  0  0  0  0
  -22.0150   -9.0480   20.4150 C   0  0  0  0  0  3  0  0  0  0  0  0
  -22.7400  -10.2360   20.2260 C   0  0  0  0  0  3  0  0  0  0  0  0
  -21.6950   -6.9380   21.4370 O   0  0  0  0  0  0  0  0  0  0  0  0
  -21.6530   -6.1990   22.5920 C   0  0  0  0  0  0  0  0  0  0  0  0
  -21.2070   -6.7480   23.8130 C   0  0  0  0  0  3  0  0  0  0  0  0
  -21.1150   -5.9340   24.9610 C   0  0  0  0  0  3  0  0  0  0  0  0
  -21.4580   -4.5710   24.8850 C   0  0  0  0  0  0  0  0  0  0  0  0
  -21.8970   -4.0200   23.6680 C   0  0  0  0  0  3  0  0  0  0  0  0
  -21.9910   -4.8310   22.5240 C   0  0  0  0  0  0  0  0  0  0  0  0
  -22.3940   -4.2910   21.3490 F   0  0  0  0  0  0  0  0  0  0  0  0
  -21.3620   -3.7860   25.9840 F   0  0  0  0  0  0  0  0  0  0  0  0
  -22.7990  -13.5780   21.1750 C   0  0  0  0  0  0  0  0  0  0  0  0
  -22.1060  -12.8780   22.0650 N   0  0  0  0  0  0  0  0  0  0  0  0
  -22.3450  -14.6100   20.6840 O   0  0  0  0  0  0  0  0  0  0  0  0
  -22.4870  -12.0440   22.4880 H   0  0  0  0  0  0  0  0  0  0  0  0
  -21.1790  -13.1820   22.3300 H   0  0  0  0  0  0  0  0  0  0  0  0
  -25.4000  -15.2470   20.2780 N   0  0  0  0  0  0  0  0  0  0  0  0
  -24.6340  -15.8960   20.4170 H   0  0  0  0  0  0  0  0  0  0  0  0
  -26.2220  -15.6840   19.8800 H   0  0  0  0  0  0  0  0  0  0  0  0
  -29.9680  -21.5220   19.9050 O   0  0  0  0  0  0  0  0  0  0  0  0
  -28.8750  -22.4670   20.1420 C   0  0  0  0  0  3  0  0  0  0  0  0
  -29.2270  -24.0020   19.8750 C   0  0  0  0  0  3  0  0  0  0  0  0
  -28.0550  -25.0580   20.0540 C   0  0  0  0  0  2  0  0  0  0  0  0
  -28.3030  -26.5080   19.8500 O   0  0  0  0  0  0  0  0  0  0  0  0
  -24.6700  -31.8010   23.1690 C   0  0  0  0  0  0  0  0  0  0  0  0
  -27.1900  -27.3650   19.8710 C   0  0  0  0  0  0  0  0  0  0  0  0
  -23.4280  -30.4940   21.4830 C   0  0  0  0  0  3  0  0  0  0  0  0
  -24.8410  -28.9990   19.9700 C   0  0  0  0  0  0  0  0  0  0  0  0
  -25.9690  -30.7950   21.2790 C   0  0  0  0  0  2  0  0  0  0  0  0
  -26.0250  -29.4470   20.5710 C   0  0  0  0  0  0  0  0  0  0  0  0
  -27.2020  -28.6430   20.5130 C   0  0  0  0  0  3  0  0  0  0  0  0
  -25.9840  -26.9800   19.2380 C   0  0  0  0  0  3  0  0  0  0  0  0
  -24.8230  -27.7710   19.2960 C   0  0  0  0  0  3  0  0  0  0  0  0
  -23.6170  -29.8840   20.0710 C   0  0  0  0  0  2  0  0  0  0  0  0
  -24.7090  -31.0450   22.0350 N   0  0  0  0  0  0  0  0  0  0  0  0
  -23.5980  -32.0660   23.7310 O   0  0  0  0  0  0  0  0  0  0  0  0
  -22.7670  -29.4390   22.4030 C   0  0  0  0  0  0  0  0  0  0  0  0
  -21.4370  -29.2880   22.2910 N   0  0  0  0  0  0  0  0  0  0  0  0
  -23.4500  -28.7630   23.1770 O   0  0  0  0  0  0  0  0  0  0  0  0
  -20.9460  -29.8860   21.6410 H   0  0  0  0  0  0  0  0  0  0  0  0
  -18.0450  -28.1480   22.8170 C   0  0  0  0  0  0  0  0  0  0  0  0
  -20.6160  -28.3280   23.0300 C   0  0  0  0  0  3  0  0  0  0  0  0
  -20.6640  -26.9300   22.3690 C   0  0  0  0  0  2  0  0  0  0  0  0
  -19.5260  -26.6940   21.3700 C   0  0  0  0  0  2  0  0  0  0  0  0
  -18.1670  -26.8370   22.0610 C   0  0  0  0  0  2  0  0  0  0  0  0
  -19.1950  -28.8560   23.2580 C   0  0  0  0  0  0  0  0  0  0  0  0
  -19.0250  -30.0880   23.9270 C   0  0  0  0  0  3  0  0  0  0  0  0
  -17.7390  -30.6110   24.1590 C   0  0  0  0  0  3  0  0  0  0  0  0
  -16.6040  -29.8990   23.7320 C   0  0  0  0  0  3  0  0  0  0  0  0
  -16.7580  -28.6700   23.0680 C   0  0  0  0  0  3  0  0  0  0  0  0
  -25.9690  -32.3900   23.8020 C   0  0  0  0  0  3  0  0  0  0  0  0
  -26.4820  -31.5600   25.0420 C   0  0  1  0  0  0  0  0  0  0  0  0
  -25.3960  -31.3020   26.1120 C   0  0  0  0  0  1  0  0  0  0  0  0
  -27.0380  -30.1900   24.5940 C   0  0  0  0  0  1  0  0  0  0  0  0
  -27.6520  -32.3110   25.7230 C   0  0  0  0  0  1  0  0  0  0  0  0
  -25.6830  -33.7790   24.1890 N   0  0  0  0  0  0  0  0  0  0  0  0
  -25.9950  -34.8530   23.4520 C   0  0  0  0  0  0  0  0  0  0  0  0
  -26.6230  -34.7770   22.3920 O   0  0  0  0  0  0  0  0  0  0  0  0
  -25.1190  -33.9120   25.0150 H   0  0  0  0  0  0  0  0  0  0  0  0
  -24.2570  -36.6600   23.2380 C   0  0  0  0  0  1  0  0  0  0  0  0
  -25.5380  -36.2290   23.9710 C   0  0  0  0  0  3  0  0  0  0  0  0
  -27.7130  -37.0900   24.7190 C   0  0  0  0  0  1  0  0  0  0  0  0
  -26.5670  -37.2830   23.8340 N   0  0  0  0  0  0  0  0  0  0  0  0
  -26.1720  -38.2000   24.0220 H   0  0  0  0  0  0  0  0  0  0  0  0
  1  4  1  0
  2  1  2  0
  2  5  1  0
  4 16  1  0
  4  3  2  0
  5  6  2  0
  6  3  1  0
  6  7  1  0
  8 16  1  0
  9 14  1  0
 10 11  1  0
 10  9  1  0
 12 11  1  0
 12 21  1  0
 12 13  1  0
 14  8  1  0
 14 13  1  0
 15  8  2  0
 16 17  1  0
 18 19  2  0
 19 38  1  0
 20 19  1  0
 20 23  1  0
 21 22  1  0
 21 18  1  0
 22 20  2  0
 23 24  1  0
 24 25  2  0
 26 29  1  0
 26 25  1  0
 27 26  2  0
 28 27  1  0
 28 23  2  0
 29 30  1  0
 30 31  1  0
 31 32  2  0
 33 32  1  0
 33 37  1  0
 34 33  2  0
 35 30  2  0
 35 34  1  0
 36 35  1  0
 38 39  1  0
 39 42  1  0
 39 41  1  0
 40 38  2  0
 43 44  1  0
 43 18  1  0
 45 43  1  0
 46  5  1  0
 46 47  1  0
 48 49  1  0
 48 47  2  0
 50 52  1  0
 50 49  1  0
 51 62  2  0
 52 57  1  0
 53 61  1  0
 53 63  1  0
 54 60  1  0
 54 56  1  0
 55 61  1  0
 56 55  1  0
 57 56  2  0
 58 59  1  0
 58 52  2  0
 59 54  2  0
 60 53  1  0
 61 51  1  0
 63 65  2  0
 64 63  1  0
 66 64  1  0
 67 76  2  0
 67 72  1  0
 68 64  1  0
 68 72  1  0
 69 68  1  0
 70 71  1  0
 70 69  1  0
 71 67  1  0
 72 73  2  0
 73 74  1  0
 75 74  2  0
 76 75  1  0
 77 51  1  0
 77 82  1  0
 77 78  1  0
 78 81  1  1
 78 79  1  0
 80 78  1  0
 82 85  1  0
 83 87  1  0
 83 82  1  0
 84 83  2  0
 87 86  1  0
 89 87  1  0
 89 90  1  0
 89 88  1  0
M  ISO  4   8 100  16 100  49 101  50 101
M  END
>  <TORSDO>  (49) 
F 20

>  <SCORE>  (49) 
-13.622

>  <name>  (49) 
48

>  <ligand_id>  (49) 
48

>  <original_smiles>  (49) 
[H]c1c([H])c([H])c2c(c1[H])C([H])([H])C([H])([H])C([H])([H])C2([H])N([H])C(=O)C1([H])N(C(=O)C([H])(N([H])C(=O)C([H])(N([H])C([H])([H])[H])C([H])([H])[H])C(C([H])([H])[H])(C([H])([H])[H])C([H])([H])[H])C([H])([H])c2c([H])c(OC([H])([H])C([H])([H])C([H])([H])Oc3c([H])c([H])c(N([H])C(=O)N4C([H])([H])C([H])([H])C([H])([H])C([H])(n5nc(-c6c([H])c([H])c(Oc7c([H])c([H])c(F)c([H])c7F)c([H])c6[H])c(C(=O)N([H])[H])c5N([H])[H])C4([H])[H])c([H])c3F)c([H])c([H])c2C1([H])[H]

>  <smiles>  (49) 
[H]c1c([H])c([H])c2c(c1[H])C([H])([H])C([H])([H])C([H])([H])C2([H])N([H])C(=O)C1([H])N(C(=O)C([H])(N([H])C(=O)C([H])(N([H])C([H])([H])[H])C([H])([H])[H])C(C([H])([H])[H])(C([H])([H])[H])C([H])([H])[H])C([H])([H])c2c([H])c(OC([H])([H])C([H])([H])C([H])([H])Oc3c([H])c([H])c(N([H])C(=O)N4C([H])([H])C([H])([H])C([H])([H])C([H])(n5nc(-c6c([H])c([H])c(Oc7c([H])c([H])c(F)c([H])c7F)c([H])c6[H])c(C(=O)N([H])[H])c5N([H])[H])C4([H])[H])c([H])c3F)c([H])c([H])c2C1([H])[H]

$$$$
49:0:0
     RDKit          3D

 93103  0  0  1  0  0  0  0  0999 V2000
  -28.8440  -19.2600   20.6910 C   0  0  0  0  0  3  0  0  0  0  0  0
  -28.3950  -20.6260   20.5950 C   0  0  0  0  0  3  0  0  0  0  0  0
  -30.0820  -21.0960   19.0210 C   0  0  0  0  0  3  0  0  0  0  0  0
  -29.9580  -18.7660   19.9520 C   0  0  0  0  0  0  0  0  0  0  0  0
  -28.9920  -21.6290   19.7650 C   0  0  0  0  0  0  0  0  0  0  0  0
  -30.5490  -19.7470   19.1020 C   0  0  0  0  0  0  0  0  0  0  0  0
  -31.6290  -19.4100   18.3570 F   0  0  0  0  0  0  0  0  0  0  0  0
  -30.6870  -14.8220   19.9370 C   0  0  0  0  0  0  0  0  0  0  0  0
  -30.3370  -12.5900   18.8490 C   0  0  0  0  0  2  0  0  0  0  0  0
  -29.3180  -12.7070   17.6950 C   0  0  0  0  0  2  0  0  0  0  0  0
  -27.8870  -12.5090   18.2250 C   0  0  0  0  0  2  0  0  0  0  0  0
  -27.6050  -13.3560   19.4930 C   0  0  0  0  0  3  0  0  0  0  0  0
  -28.7420  -13.2350   20.5270 C   0  0  0  0  0  2  0  0  0  0  0  0
  -29.9940  -13.6250   19.8600 N   0  0  0  0  0  0  0  0  0  0  0  0
  -31.7850  -14.8860   19.3730 O   0  0  0  0  0  0  0  0  0  0  0  0
  -30.6600  -17.0990   22.5520 C   0  0  0  0  0  2  0  0  0  0  0  0
  -31.5800  -17.5780   21.4400 C   0  0  0  0  0  2  0  0  0  0  0  0
  -29.8070  -16.0000   21.9000 C   0  0  0  0  0  2  0  0  0  0  0  0
  -30.7260  -17.3780   20.1850 C   0  0  0  0  0  3  0  0  0  0  0  0
  -30.1080  -15.9940   20.4540 N   0  0  0  0  0  0  0  0  0  0  0  0
  -25.2860  -13.9090   20.4370 C   0  0  0  0  0  0  0  0  0  0  0  0
  -24.2530  -13.1170   20.8570 C   0  0  0  0  0  0  0  0  0  0  0  0
  -24.7080  -11.7700   20.7290 C   0  0  0  0  0  0  0  0  0  0  0  0
  -26.3040  -13.0430   20.0760 N   0  0  0  0  0  0  0  0  0  0  0  0
  -25.9690  -11.7480   20.3130 N   0  0  0  0  0  0  0  0  0  0  0  0
  -23.9970  -10.4990   20.9230 C   0  0  0  0  0  0  0  0  0  0  0  0
  -24.4460   -9.5320   21.8490 C   0  0  0  0  0  3  0  0  0  0  0  0
  -23.7300   -8.3290   22.0310 C   0  0  0  0  0  3  0  0  0  0  0  0
  -22.5520   -8.0840   21.2860 C   0  0  0  0  0  0  0  0  0  0  0  0
  -22.1220   -9.0400   20.3490 C   0  0  0  0  0  3  0  0  0  0  0  0
  -22.8390  -10.2340   20.1640 C   0  0  0  0  0  3  0  0  0  0  0  0
  -21.8070   -6.9330   21.3790 O   0  0  0  0  0  0  0  0  0  0  0  0
  -21.6910   -6.2400   22.5570 C   0  0  0  0  0  0  0  0  0  0  0  0
  -21.1720   -6.8410   23.7260 C   0  0  0  0  0  3  0  0  0  0  0  0
  -21.0060   -6.0760   24.8960 C   0  0  0  0  0  3  0  0  0  0  0  0
  -21.3490   -4.7090   24.8980 C   0  0  0  0  0  0  0  0  0  0  0  0
  -21.8610   -4.1080   23.7360 C   0  0  0  0  0  3  0  0  0  0  0  0
  -22.0290   -4.8730   22.5680 C   0  0  0  0  0  0  0  0  0  0  0  0
  -22.5030   -4.2840   21.4420 F   0  0  0  0  0  0  0  0  0  0  0  0
  -21.1820   -3.9720   26.0200 F   0  0  0  0  0  0  0  0  0  0  0  0
  -22.8830  -13.5820   21.2620 C   0  0  0  0  0  0  0  0  0  0  0  0
  -22.2300  -12.8530   22.1610 N   0  0  0  0  0  0  0  0  0  0  0  0
  -22.4050  -14.6240   20.8190 O   0  0  0  0  0  0  0  0  0  0  0  0
  -22.6310  -12.0080   22.5400 H   0  0  0  0  0  0  0  0  0  0  0  0
  -21.3140  -13.1440   22.4730 H   0  0  0  0  0  0  0  0  0  0  0  0
  -25.4370  -15.2860   20.3100 N   0  0  0  0  0  0  0  0  0  0  0  0
  -24.6870  -15.9340   20.5220 H   0  0  0  0  0  0  0  0  0  0  0  0
  -26.2620  -15.7440   19.9430 H   0  0  0  0  0  0  0  0  0  0  0  0
  -29.3740  -24.1920   19.3180 C   0  0  0  0  0  2  0  0  0  0  0  0
  -27.6760  -23.8400   20.4600 C   0  0  0  0  0  2  0  0  0  0  0  0
  -28.0990  -25.0720   19.5690 C   0  0  0  0  0  3  0  0  0  0  0  0
  -28.5120  -23.0190   19.5620 N   0  0  0  0  0  0  0  0  0  0  0  0
  -28.2110  -26.4760   20.1020 O   0  0  0  0  0  0  0  0  0  0  0  0
  -24.5750  -31.9320   23.2520 C   0  0  0  0  0  0  0  0  0  0  0  0
  -27.0980  -27.3510   20.0960 C   0  0  0  0  0  0  0  0  0  0  0  0
  -23.3400  -30.5590   21.6160 C   0  0  0  0  0  3  0  0  0  0  0  0
  -24.7530  -29.0150   20.1510 C   0  0  0  0  0  0  0  0  0  0  0  0
  -25.8820  -30.8530   21.3980 C   0  0  0  0  0  2  0  0  0  0  0  0
  -25.9400  -29.4770   20.7330 C   0  0  0  0  0  0  0  0  0  0  0  0
  -27.1140  -28.6580   20.6960 C   0  0  0  0  0  3  0  0  0  0  0  0
  -25.8760  -26.9510   19.5080 C   0  0  0  0  0  3  0  0  0  0  0  0
  -24.7250  -27.7590   19.5320 C   0  0  0  0  0  3  0  0  0  0  0  0
  -23.5280  -29.9020   20.2250 C   0  0  0  0  0  2  0  0  0  0  0  0
  -24.6200  -31.1330   22.1440 N   0  0  0  0  0  0  0  0  0  0  0  0
  -23.4990  -32.2100   23.8040 O   0  0  0  0  0  0  0  0  0  0  0  0
  -22.6830  -29.5380   22.5760 C   0  0  0  0  0  0  0  0  0  0  0  0
  -21.3620  -29.3360   22.4390 N   0  0  0  0  0  0  0  0  0  0  0  0
  -23.3640  -28.9260   23.4030 O   0  0  0  0  0  0  0  0  0  0  0  0
  -20.8700  -29.8810   21.7440 H   0  0  0  0  0  0  0  0  0  0  0  0
  -18.0060  -28.0540   22.8830 C   0  0  0  0  0  0  0  0  0  0  0  0
  -20.5500  -28.3890   23.2060 C   0  0  0  0  0  3  0  0  0  0  0  0
  -20.7050  -26.9520   22.6560 C   0  0  0  0  0  2  0  0  0  0  0  0
  -19.6350  -26.5820   21.6240 C   0  0  0  0  0  2  0  0  0  0  0  0
  -18.2340  -26.7000   22.2310 C   0  0  0  0  0  2  0  0  0  0  0  0
  -19.0940  -28.8530   23.3250 C   0  0  0  0  0  0  0  0  0  0  0  0
  -18.8270  -30.1180   23.8910 C   0  0  0  0  0  3  0  0  0  0  0  0
  -17.5050  -30.5850   24.0200 C   0  0  0  0  0  3  0  0  0  0  0  0
  -16.4330  -29.7830   23.5950 C   0  0  0  0  0  3  0  0  0  0  0  0
  -16.6830  -28.5190   23.0310 C   0  0  0  0  0  3  0  0  0  0  0  0
  -25.8690  -32.5530   23.8610 C   0  0  0  0  0  3  0  0  0  0  0  0
  -26.3850  -31.7770   25.1350 C   0  0  1  0  0  0  0  0  0  0  0  0
  -25.2980  -31.5480   26.2110 C   0  0  0  0  0  1  0  0  0  0  0  0
  -26.9550  -30.3960   24.7390 C   0  0  0  0  0  1  0  0  0  0  0  0
  -27.5430  -32.5630   25.7910 C   0  0  0  0  0  1  0  0  0  0  0  0
  -25.5780  -33.9540   24.1960 N   0  0  0  0  0  0  0  0  0  0  0  0
  -25.8880  -35.0050   23.4250 C   0  0  0  0  0  0  0  0  0  0  0  0
  -26.5220  -34.8980   22.3720 O   0  0  0  0  0  0  0  0  0  0  0  0
  -25.0190  -34.1130   25.0210 H   0  0  0  0  0  0  0  0  0  0  0  0
  -24.1470  -36.7960   23.1370 C   0  0  0  0  0  1  0  0  0  0  0  0
  -25.4210  -36.3950   23.8980 C   0  0  0  0  0  3  0  0  0  0  0  0
  -27.5890  -37.2810   24.6320 C   0  0  0  0  0  1  0  0  0  0  0  0
  -26.4450  -37.4500   23.7410 N   0  0  0  0  0  0  0  0  0  0  0  0
  -26.0420  -38.3680   23.9100 H   0  0  0  0  0  0  0  0  0  0  0  0
  2  1  1  0
  3  6  2  0
  3  5  1  0
  4  1  2  0
  5  2  2  0
  6  4  1  0
  7  6  1  0
  8 20  1  0
  9 14  1  0
 10 11  1  0
 10  9  1  0
 12 11  1  0
 12 24  1  0
 12 13  1  0
 14  8  1  0
 14 13  1  0
 15  8  2  0
 17 16  1  0
 18 16  1  0
 19  4  1  0
 19 20  1  0
 19 17  1  0
 20 18  1  0
 21 22  2  0
 22 41  1  0
 23 22  1  0
 23 26  1  0
 24 25  1  0
 24 21  1  0
 25 23  2  0
 26 27  1  0
 27 28  2  0
 29 32  1  0
 29 28  1  0
 30 29  2  0
 31 30  1  0
 31 26  2  0
 32 33  1  0
 33 38  2  0
 33 34  1  0
 34 35  2  0
 35 36  1  0
 36 40  1  0
 37 36  2  0
 38 37  1  0
 39 38  1  0
 41 42  1  0
 42 45  1  0
 42 44  1  0
 43 41  2  0
 46 21  1  0
 46 47  1  0
 48 46  1  0
 49 52  1  0
 49 51  1  0
 51 53  1  0
 51 50  1  0
 52  5  1  0
 52 50  1  0
 54 65  2  0
 55 53  1  0
 55 60  1  0
 56 64  1  0
 56 66  1  0
 57 63  1  0
 57 59  1  0
 58 64  1  0
 59 58  1  0
 60 59  2  0
 61 62  1  0
 61 55  2  0
 62 57  2  0
 63 56  1  0
 64 54  1  0
 66 68  2  0
 67 66  1  0
 69 67  1  0
 70 79  2  0
 70 75  1  0
 71 67  1  0
 71 75  1  0
 72 71  1  0
 73 74  1  0
 73 72  1  0
 74 70  1  0
 75 76  2  0
 76 77  1  0
 78 77  2  0
 79 78  1  0
 80 54  1  0
 80 85  1  0
 80 81  1  0
 81 84  1  1
 81 82  1  0
 83 81  1  0
 85 88  1  0
 86 90  1  0
 86 85  1  0
 87 86  2  0
 90 89  1  0
 92 90  1  0
 92 93  1  0
 92 91  1  0
M  ISO  4   8 100  20 100  51 101  53 101
M  END
>  <TORSDO>  (50) 
F 17

>  <SCORE>  (50) 
-14.655

>  <name>  (50) 
49

>  <ligand_id>  (50) 
49

>  <original_smiles>  (50) 
[H]c1c([H])c([H])c2c(c1[H])C([H])([H])C([H])([H])C([H])([H])C2([H])N([H])C(=O)C1([H])N(C(=O)C([H])(N([H])C(=O)C([H])(N([H])C([H])([H])[H])C([H])([H])[H])C(C([H])([H])[H])(C([H])([H])[H])C([H])([H])[H])C([H])([H])c2c([H])c(OC3([H])C([H])([H])N(c4c([H])c([H])c(C5([H])N(C(=O)N6C([H])([H])C([H])([H])C([H])([H])C([H])(n7nc(-c8c([H])c([H])c(Oc9c([H])c([H])c(F)c([H])c9F)c([H])c8[H])c(C(=O)N([H])[H])c7N([H])[H])C6([H])[H])C([H])([H])C([H])([H])C5([H])[H])c(F)c4[H])C3([H])[H])c([H])c([H])c2C1([H])[H]

>  <smiles>  (50) 
[H]c1c([H])c([H])c2c(c1[H])C([H])([H])C([H])([H])C([H])([H])C2([H])N([H])C(=O)C1([H])N(C(=O)C([H])(N([H])C(=O)C([H])(N([H])C([H])([H])[H])C([H])([H])[H])C(C([H])([H])[H])(C([H])([H])[H])C([H])([H])[H])C([H])([H])c2c([H])c(OC3([H])C([H])([H])N(c4c([H])c([H])c(C5([H])N(C(=O)N6C([H])([H])C([H])([H])C([H])([H])C([H])(n7nc(-c8c([H])c([H])c(Oc9c([H])c([H])c(F)c([H])c9F)c([H])c8[H])c(C(=O)N([H])[H])c7N([H])[H])C6([H])[H])C([H])([H])C([H])([H])C5([H])[H])c(F)c4[H])C3([H])[H])c([H])c([H])c2C1([H])[H]

$$$$
50:0:0
     RDKit          3D

 93102  0  0  1  0  0  0  0  0999 V2000
  -29.8590  -24.2830   19.1240 C   0  0  0  0  0  2  0  0  0  0  0  0
  -30.5590  -22.9210   19.0470 C   0  0  0  0  0  2  0  0  0  0  0  0
  -29.1630  -22.9580   20.9870 C   0  0  0  0  0  2  0  0  0  0  0  0
  -29.4450  -24.4230   20.5830 C   0  0  0  0  0  3  0  0  0  0  0  0
  -30.0260  -22.0830   20.1510 N   0  0  1  0  0  4  0  0  0  0  0  0
  -30.8200  -21.8310   20.7230 H   0  0  0  0  0  0  0  0  0  0  0  0
  -29.3750  -20.8040   19.7350 C   0  0  0  0  0  2  0  0  0  0  0  0
  -29.6070  -18.6400   18.3060 C   0  0  0  0  0  2  0  0  0  0  0  0
  -31.4220  -19.2360   20.0210 C   0  0  0  0  0  2  0  0  0  0  0  0
  -29.2110  -17.4230   19.1770 C   0  0  0  0  0  2  0  0  0  0  0  0
  -30.9510  -18.0360   20.8650 C   0  0  0  0  0  2  0  0  0  0  0  0
  -30.3400  -19.7870   19.0600 C   0  0  0  0  0  3  0  0  0  0  0  0
  -30.4320  -16.9010   19.9560 C   0  0  0  0  0  3  0  0  0  0  0  0
  -30.8150  -14.4600   20.1200 C   0  0  0  0  0  0  0  0  0  0  0  0
  -30.3720  -12.3650   18.8900 C   0  0  0  0  0  2  0  0  0  0  0  0
  -29.3740  -12.6350   17.7470 C   0  0  0  0  0  2  0  0  0  0  0  0
  -27.9260  -12.4800   18.2520 C   0  0  0  0  0  2  0  0  0  0  0  0
  -27.6700  -13.2620   19.5660 C   0  0  0  0  0  3  0  0  0  0  0  0
  -28.7790  -12.9750   20.5940 C   0  0  0  0  0  2  0  0  0  0  0  0
  -30.0730  -13.3180   19.9760 N   0  0  0  0  0  0  0  0  0  0  0  0
  -31.9070  -14.5730   19.5540 O   0  0  0  0  0  0  0  0  0  0  0  0
  -29.7510  -15.6320   22.0160 C   0  0  0  0  0  1  0  0  0  0  0  0
  -30.1990  -15.5750   20.6130 N   0  0  0  0  0  0  0  0  0  0  0  0
  -25.3200  -13.8520   20.4270 C   0  0  0  0  0  0  0  0  0  0  0  0
  -24.2760  -13.0730   20.8430 C   0  0  0  0  0  0  0  0  0  0  0  0
  -24.7350  -11.7210   20.7680 C   0  0  0  0  0  0  0  0  0  0  0  0
  -26.3490  -12.9770   20.1190 N   0  0  0  0  0  0  0  0  0  0  0  0
  -26.0040  -11.6890   20.3790 N   0  0  0  0  0  0  0  0  0  0  0  0
  -24.0230  -10.4550   20.9830 C   0  0  0  0  0  0  0  0  0  0  0  0
  -24.4760   -9.5020   21.9220 C   0  0  0  0  0  3  0  0  0  0  0  0
  -23.7630   -8.3020   22.1260 C   0  0  0  0  0  3  0  0  0  0  0  0
  -22.5840   -8.0430   21.3870 C   0  0  0  0  0  0  0  0  0  0  0  0
  -22.1490   -8.9850   20.4380 C   0  0  0  0  0  3  0  0  0  0  0  0
  -22.8630  -10.1770   20.2330 C   0  0  0  0  0  3  0  0  0  0  0  0
  -21.8430   -6.8920   21.4970 O   0  0  0  0  0  0  0  0  0  0  0  0
  -21.7740   -6.1890   22.6730 C   0  0  0  0  0  0  0  0  0  0  0  0
  -21.3190   -6.7820   23.8710 C   0  0  0  0  0  3  0  0  0  0  0  0
  -21.2000   -6.0040   25.0400 C   0  0  0  0  0  3  0  0  0  0  0  0
  -21.5250   -4.6340   25.0110 C   0  0  0  0  0  0  0  0  0  0  0  0
  -21.9750   -4.0420   23.8180 C   0  0  0  0  0  3  0  0  0  0  0  0
  -22.0960   -4.8170   22.6510 C   0  0  0  0  0  0  0  0  0  0  0  0
  -22.5090   -4.2360   21.4980 F   0  0  0  0  0  0  0  0  0  0  0  0
  -21.4030   -3.8860   26.1300 F   0  0  0  0  0  0  0  0  0  0  0  0
  -22.8960  -13.5420   21.2040 C   0  0  0  0  0  0  0  0  0  0  0  0
  -22.2280  -12.8390   22.1110 N   0  0  0  0  0  0  0  0  0  0  0  0
  -22.4230  -14.5680   20.7180 O   0  0  0  0  0  0  0  0  0  0  0  0
  -22.6250  -12.0040   22.5180 H   0  0  0  0  0  0  0  0  0  0  0  0
  -21.3080  -13.1390   22.4000 H   0  0  0  0  0  0  0  0  0  0  0  0
  -25.4790  -15.2270   20.2680 N   0  0  0  0  0  0  0  0  0  0  0  0
  -24.7340  -15.8870   20.4590 H   0  0  0  0  0  0  0  0  0  0  0  0
  -26.3280  -15.6650   19.9360 H   0  0  0  0  0  0  0  0  0  0  0  0
  -28.2420  -25.3670   20.8030 C   0  0  0  0  0  2  0  0  0  0  0  0
  -28.4250  -26.6640   20.2040 O   0  0  0  0  0  0  0  0  0  0  0  0
  -24.6090  -31.8450   23.2310 C   0  0  0  0  0  0  0  0  0  0  0  0
  -27.2710  -27.4180   20.1600 C   0  0  0  0  0  0  0  0  0  0  0  0
  -23.4100  -30.4360   21.5890 C   0  0  0  0  0  3  0  0  0  0  0  0
  -24.8730  -28.9110   20.1610 C   0  0  0  0  0  0  0  0  0  0  0  0
  -25.9340  -30.8120   21.3930 C   0  0  0  0  0  2  0  0  0  0  0  0
  -26.0280  -29.4440   20.7490 C   0  0  0  0  0  0  0  0  0  0  0  0
  -27.2340  -28.7040   20.7430 C   0  0  0  0  0  3  0  0  0  0  0  0
  -26.1050  -26.9080   19.5470 C   0  0  0  0  0  3  0  0  0  0  0  0
  -24.9060  -27.6450   19.5530 C   0  0  0  0  0  3  0  0  0  0  0  0
  -23.6210  -29.7560   20.2090 C   0  0  0  0  0  2  0  0  0  0  0  0
  -24.6680  -31.0460   22.1280 N   0  0  0  0  0  0  0  0  0  0  0  0
  -23.5260  -32.1120   23.7700 O   0  0  0  0  0  0  0  0  0  0  0  0
  -22.7620  -29.4140   22.5500 C   0  0  0  0  0  0  0  0  0  0  0  0
  -21.4370  -29.2320   22.4240 N   0  0  0  0  0  0  0  0  0  0  0  0
  -23.4480  -28.7880   23.3630 O   0  0  0  0  0  0  0  0  0  0  0  0
  -20.9470  -29.7850   21.7350 H   0  0  0  0  0  0  0  0  0  0  0  0
  -18.0640  -28.0360   22.9270 C   0  0  0  0  0  0  0  0  0  0  0  0
  -20.6220  -28.2920   23.1950 C   0  0  0  0  0  3  0  0  0  0  0  0
  -20.7240  -26.8630   22.6150 C   0  0  0  0  0  2  0  0  0  0  0  0
  -19.6190  -26.5430   21.6020 C   0  0  0  0  0  2  0  0  0  0  0  0
  -18.2370  -26.6890   22.2490 C   0  0  0  0  0  2  0  0  0  0  0  0
  -19.1830  -28.7970   23.3570 C   0  0  0  0  0  0  0  0  0  0  0  0
  -18.9670  -30.0580   23.9510 C   0  0  0  0  0  3  0  0  0  0  0  0
  -17.6630  -30.5600   24.1230 C   0  0  0  0  0  3  0  0  0  0  0  0
  -16.5570  -29.7960   23.7130 C   0  0  0  0  0  3  0  0  0  0  0  0
  -16.7580  -28.5360   23.1210 C   0  0  0  0  0  3  0  0  0  0  0  0
  -25.8930  -32.4810   23.8500 C   0  0  0  0  0  3  0  0  0  0  0  0
  -26.4160  -31.7120   25.1260 C   0  0  1  0  0  0  0  0  0  0  0  0
  -25.3250  -31.4710   26.1950 C   0  0  0  0  0  1  0  0  0  0  0  0
  -27.0030  -30.3350   24.7350 C   0  0  0  0  0  1  0  0  0  0  0  0
  -27.5640  -32.5100   25.7870 C   0  0  0  0  0  1  0  0  0  0  0  0
  -25.5820  -33.8780   24.1780 N   0  0  0  0  0  0  0  0  0  0  0  0
  -25.9090  -34.9290   23.4130 C   0  0  0  0  0  0  0  0  0  0  0  0
  -26.5780  -34.8230   22.3810 O   0  0  0  0  0  0  0  0  0  0  0  0
  -24.9870  -34.0340   24.9780 H   0  0  0  0  0  0  0  0  0  0  0  0
  -24.1750  -36.7150   23.0530 C   0  0  0  0  0  1  0  0  0  0  0  0
  -25.4180  -36.3160   23.8670 C   0  0  0  0  0  3  0  0  0  0  0  0
  -27.5490  -37.2090   24.6960 C   0  0  0  0  0  1  0  0  0  0  0  0
  -26.4470  -37.3720   23.7510 N   0  0  0  0  0  0  0  0  0  0  0  0
  -26.0390  -38.2910   23.8980 H   0  0  0  0  0  0  0  0  0  0  0  0
  1  4  1  0
  2  1  1  0
  2  5  1  0
  4 52  1  0
  4  3  1  0
  5  6  1  1
  5  3  1  0
  7  5  1  0
  8 12  1  0
  8 10  1  0
  9 11  1  0
 10 13  1  0
 12  7  1  0
 12  9  1  0
 13 23  1  0
 13 11  1  0
 14 23  1  0
 15 20  1  0
 16 17  1  0
 16 15  1  0
 18 17  1  0
 18 27  1  0
 18 19  1  0
 20 14  1  0
 20 19  1  0
 21 14  2  0
 23 22  1  0
 24 25  2  0
 25 44  1  0
 26 25  1  0
 26 29  1  0
 27 28  1  0
 27 24  1  0
 28 26  2  0
 29 30  1  0
 30 31  2  0
 32 35  1  0
 32 31  1  0
 33 32  2  0
 34 33  1  0
 34 29  2  0
 35 36  1  0
 36 37  1  0
 37 38  2  0
 39 38  1  0
 39 43  1  0
 40 39  2  0
 41 36  2  0
 41 40  1  0
 42 41  1  0
 44 45  1  0
 45 48  1  0
 45 47  1  0
 46 44  2  0
 49 24  1  0
 49 50  1  0
 51 49  1  0
 53 52  1  0
 54 65  2  0
 55 53  1  0
 55 60  1  0
 56 64  1  0
 56 66  1  0
 57 63  1  0
 57 59  1  0
 58 64  1  0
 59 58  1  0
 60 59  2  0
 61 62  1  0
 61 55  2  0
 62 57  2  0
 63 56  1  0
 64 54  1  0
 66 68  2  0
 67 66  1  0
 69 67  1  0
 70 79  2  0
 70 75  1  0
 71 67  1  0
 71 75  1  0
 72 71  1  0
 73 74  1  0
 73 72  1  0
 74 70  1  0
 75 76  2  0
 76 77  1  0
 78 77  2  0
 79 78  1  0
 80 54  1  0
 80 85  1  0
 80 81  1  0
 81 84  1  1
 81 82  1  0
 83 81  1  0
 85 88  1  0
 86 90  1  0
 86 85  1  0
 87 86  2  0
 90 89  1  0
 92 90  1  0
 92 93  1  0
 92 91  1  0
M  ISO  4  14 100  23 100  52 101  53 101
M  END
>  <TORSDO>  (51) 
F 19

>  <SCORE>  (51) 
-13.538

>  <name>  (51) 
50

>  <ligand_id>  (51) 
50

>  <original_smiles>  (51) 
[H]c1c([H])c([H])c2c(c1[H])C([H])([H])C([H])([H])C([H])([H])C2([H])N([H])C(=O)C1([H])N(C(=O)C([H])(N([H])C(=O)C([H])(N([H])C([H])([H])[H])C([H])([H])[H])C(C([H])([H])[H])(C([H])([H])[H])C([H])([H])[H])C([H])([H])c2c([H])c(OC([H])([H])C3([H])C([H])([H])C([H])([H])[N+]([H])(C([H])([H])C4([H])C([H])([H])C([H])([H])C([H])(N(C(=O)N5C([H])([H])C([H])([H])C([H])([H])C([H])(n6nc(-c7c([H])c([H])c(Oc8c([H])c([H])c(F)c([H])c8F)c([H])c7[H])c(C(=O)N([H])[H])c6N([H])[H])C5([H])[H])C([H])([H])[H])C([H])([H])C4([H])[H])C3([H])[H])c([H])c([H])c2C1([H])[H]

>  <smiles>  (51) 
[H]c1c([H])c([H])c2c(c1[H])C([H])([H])C([H])([H])C([H])([H])C2([H])N([H])C(=O)C1([H])N(C(=O)C([H])(N([H])C(=O)C([H])(N([H])C([H])([H])[H])C([H])([H])[H])C(C([H])([H])[H])(C([H])([H])[H])C([H])([H])[H])C([H])([H])c2c([H])c(OC([H])([H])C3([H])C([H])([H])C([H])([H])[N+]([H])(C([H])([H])C4([H])C([H])([H])C([H])([H])C([H])(N(C(=O)N5C([H])([H])C([H])([H])C([H])([H])C([H])(n6nc(-c7c([H])c([H])c(Oc8c([H])c([H])c(F)c([H])c8F)c([H])c7[H])c(C(=O)N([H])[H])c6N([H])[H])C5([H])[H])C([H])([H])[H])C([H])([H])C4([H])[H])C3([H])[H])c([H])c([H])c2C1([H])[H]

$$$$
51:0:0
     RDKit          3D

 92100  0  0  1  0  0  0  0  0999 V2000
  -30.8070  -21.9950   19.5030 C   0  0  0  0  0  1  0  0  0  0  0  0
  -30.1750  -22.1690   20.8340 N   0  0  1  0  0  4  0  0  0  0  0  0
  -29.1860  -22.0150   20.7030 H   0  0  0  0  0  0  0  0  0  0  0  0
  -30.6310  -21.1460   21.8250 C   0  0  0  0  0  2  0  0  0  0  0  0
  -29.3120  -19.0150   21.2910 C   0  0  0  0  0  3  0  0  0  0  0  0
  -31.7390  -18.8970   21.2870 C   0  0  0  0  0  3  0  0  0  0  0  0
  -29.2520  -17.6200   21.0820 C   0  0  0  0  0  3  0  0  0  0  0  0
  -31.6790  -17.5000   21.0720 C   0  0  0  0  0  3  0  0  0  0  0  0
  -30.5580  -19.6670   21.4180 C   0  0  0  0  0  0  0  0  0  0  0  0
  -30.4290  -16.8430   20.9810 C   0  0  0  0  0  0  0  0  0  0  0  0
  -30.9880  -14.5010   20.1870 C   0  0  0  0  0  0  0  0  0  0  0  0
  -30.6590  -12.3930   18.9330 C   0  0  0  0  0  2  0  0  0  0  0  0
  -29.6760  -12.6540   17.7700 C   0  0  0  0  0  2  0  0  0  0  0  0
  -28.2100  -12.5330   18.2380 C   0  0  0  0  0  2  0  0  0  0  0  0
  -27.9320  -13.3180   19.5470 C   0  0  0  0  0  3  0  0  0  0  0  0
  -29.0100  -12.9970   20.6050 C   0  0  0  0  0  2  0  0  0  0  0  0
  -30.3250  -13.3230   20.0220 N   0  0  0  0  0  0  0  0  0  0  0  0
  -32.0890  -14.7250   19.6720 O   0  0  0  0  0  0  0  0  0  0  0  0
  -30.2740  -15.4280   20.8600 N   0  0  0  0  0  0  0  0  0  0  0  0
  -29.3920  -15.0690   21.1930 H   0  0  0  0  0  0  0  0  0  0  0  0
  -25.5580  -13.9600   20.3110 C   0  0  0  0  0  0  0  0  0  0  0  0
  -24.4890  -13.2010   20.7060 C   0  0  0  0  0  0  0  0  0  0  0  0
  -24.9300  -11.8430   20.6590 C   0  0  0  0  0  0  0  0  0  0  0  0
  -26.5840  -13.0650   20.0530 N   0  0  0  0  0  0  0  0  0  0  0  0
  -26.2110  -11.7860   20.3170 N   0  0  0  0  0  0  0  0  0  0  0  0
  -24.1930  -10.5900   20.8620 C   0  0  0  0  0  0  0  0  0  0  0  0
  -24.5930   -9.6500   21.8390 C   0  0  0  0  0  3  0  0  0  0  0  0
  -23.8580   -8.4590   22.0270 C   0  0  0  0  0  3  0  0  0  0  0  0
  -22.7120   -8.2010   21.2390 C   0  0  0  0  0  0  0  0  0  0  0  0
  -22.3320   -9.1300   20.2550 C   0  0  0  0  0  3  0  0  0  0  0  0
  -23.0660  -10.3110   20.0640 C   0  0  0  0  0  3  0  0  0  0  0  0
  -21.9520   -7.0600   21.3360 O   0  0  0  0  0  0  0  0  0  0  0  0
  -21.7950   -6.3980   22.5270 C   0  0  0  0  0  0  0  0  0  0  0  0
  -21.2320   -7.0260   23.6590 C   0  0  0  0  0  3  0  0  0  0  0  0
  -21.0250   -6.2890   24.8420 C   0  0  0  0  0  3  0  0  0  0  0  0
  -21.3680   -4.9240   24.8930 C   0  0  0  0  0  0  0  0  0  0  0  0
  -21.9230   -4.2970   23.7640 C   0  0  0  0  0  3  0  0  0  0  0  0
  -22.1330   -5.0310   22.5830 C   0  0  0  0  0  0  0  0  0  0  0  0
  -22.6480   -4.4150   21.4920 F   0  0  0  0  0  0  0  0  0  0  0  0
  -21.1620   -4.2140   26.0260 F   0  0  0  0  0  0  0  0  0  0  0  0
  -23.1050  -13.6940   21.0150 C   0  0  0  0  0  0  0  0  0  0  0  0
  -22.3910  -13.0050   21.8990 N   0  0  0  0  0  0  0  0  0  0  0  0
  -22.6660  -14.7270   20.5090 O   0  0  0  0  0  0  0  0  0  0  0  0
  -22.7600  -12.1710   22.3300 H   0  0  0  0  0  0  0  0  0  0  0  0
  -21.4630  -13.3180   22.1470 H   0  0  0  0  0  0  0  0  0  0  0  0
  -25.7380  -15.3280   20.1310 N   0  0  0  0  0  0  0  0  0  0  0  0
  -24.9790  -15.9920   20.2420 H   0  0  0  0  0  0  0  0  0  0  0  0
  -26.5710  -15.7450   19.7340 H   0  0  0  0  0  0  0  0  0  0  0  0
  -30.3470  -23.5430   21.4160 C   0  0  0  0  0  2  0  0  0  0  0  0
  -30.1170  -24.7950   20.5120 C   0  0  0  0  0  2  0  0  0  0  0  0
  -28.6670  -25.3050   20.3550 C   0  0  0  0  0  2  0  0  0  0  0  0
  -28.6980  -26.7210   20.1100 O   0  0  0  0  0  0  0  0  0  0  0  0
  -24.6970  -31.7540   23.1720 C   0  0  0  0  0  0  0  0  0  0  0  0
  -27.4940  -27.3950   20.1090 C   0  0  0  0  0  0  0  0  0  0  0  0
  -23.5470  -30.3310   21.5080 C   0  0  0  0  0  3  0  0  0  0  0  0
  -25.0570  -28.8340   20.0990 C   0  0  0  0  0  0  0  0  0  0  0  0
  -26.0640  -30.7570   21.3400 C   0  0  0  0  0  2  0  0  0  0  0  0
  -26.1940  -29.3920   20.6960 C   0  0  0  0  0  0  0  0  0  0  0  0
  -27.4170  -28.6810   20.6920 C   0  0  0  0  0  3  0  0  0  0  0  0
  -26.3350  -26.8460   19.5120 C   0  0  0  0  0  3  0  0  0  0  0  0
  -25.1220  -27.5600   19.5060 C   0  0  0  0  0  3  0  0  0  0  0  0
  -23.7920  -29.6620   20.1300 C   0  0  0  0  0  2  0  0  0  0  0  0
  -24.7870  -30.9610   22.0660 N   0  0  0  0  0  0  0  0  0  0  0  0
  -23.6040  -31.9970   23.7010 O   0  0  0  0  0  0  0  0  0  0  0  0
  -22.9090  -29.2890   22.4560 C   0  0  0  0  0  0  0  0  0  0  0  0
  -21.5940  -29.0690   22.3040 N   0  0  0  0  0  0  0  0  0  0  0  0
  -23.5960  -28.6830   23.2820 O   0  0  0  0  0  0  0  0  0  0  0  0
  -21.1010  -29.6120   21.6090 H   0  0  0  0  0  0  0  0  0  0  0  0
  -18.2490  -27.7720   22.7270 C   0  0  0  0  0  0  0  0  0  0  0  0
  -20.7910  -28.1060   23.0560 C   0  0  0  0  0  3  0  0  0  0  0  0
  -20.9490  -26.6790   22.4820 C   0  0  0  0  0  2  0  0  0  0  0  0
  -19.8800  -26.3250   21.4440 C   0  0  0  0  0  2  0  0  0  0  0  0
  -18.4810  -26.4280   22.0570 C   0  0  0  0  0  2  0  0  0  0  0  0
  -19.3340  -28.5660   23.1830 C   0  0  0  0  0  0  0  0  0  0  0  0
  -19.0650  -29.8220   23.7670 C   0  0  0  0  0  3  0  0  0  0  0  0
  -17.7440  -30.2870   23.9020 C   0  0  0  0  0  3  0  0  0  0  0  0
  -16.6720  -29.4890   23.4650 C   0  0  0  0  0  3  0  0  0  0  0  0
  -16.9250  -28.2330   22.8840 C   0  0  0  0  0  3  0  0  0  0  0  0
  -25.9600  -32.4130   23.8100 C   0  0  0  0  0  3  0  0  0  0  0  0
  -25.6100  -33.7970   24.1540 N   0  0  0  0  0  0  0  0  0  0  0  0
  -25.9140  -34.8670   23.4060 C   0  0  0  0  0  0  0  0  0  0  0  0
  -26.5890  -34.7940   22.3770 O   0  0  0  0  0  0  0  0  0  0  0  0
  -25.0050  -33.9250   24.9530 H   0  0  0  0  0  0  0  0  0  0  0  0
  -24.1280  -36.6050   23.0730 C   0  0  0  0  0  1  0  0  0  0  0  0
  -25.3840  -36.2360   23.8760 C   0  0  0  0  0  3  0  0  0  0  0  0
  -27.4910  -37.1840   24.7100 C   0  0  0  0  0  1  0  0  0  0  0  0
  -26.3840  -37.3210   23.7680 N   0  0  0  0  0  0  0  0  0  0  0  0
  -25.9490  -38.2260   23.9230 H   0  0  0  0  0  0  0  0  0  0  0  0
  -26.4900  -31.6390   25.0800 C   0  0  1  0  0  0  0  0  0  0  0  0
  -25.3960  -31.3520   26.1330 C   0  0  0  0  0  1  0  0  0  0  0  0
  -27.1160  -30.2860   24.6670 C   0  0  0  0  0  1  0  0  0  0  0  0
  -27.6090  -32.4580   25.7650 C   0  0  0  0  0  1  0  0  0  0  0  0
  1  2  1  0
  2 49  1  0
  2  4  1  0
  2  3  1  6
  5  9  1  0
  6  9  2  0
  7  5  2  0
  8  6  1  0
  9  4  1  0
 10  8  2  0
 10  7  1  0
 11 19  1  0
 12 17  1  0
 13 14  1  0
 13 12  1  0
 15 14  1  0
 15 24  1  0
 15 16  1  0
 17 11  1  0
 17 16  1  0
 18 11  2  0
 19 10  1  0
 19 20  1  0
 21 22  2  0
 22 41  1  0
 23 22  1  0
 23 26  1  0
 24 21  1  0
 24 25  1  0
 25 23  2  0
 26 27  1  0
 27 28  2  0
 29 32  1  0
 29 28  1  0
 30 29  2  0
 31 30  1  0
 31 26  2  0
 32 33  1  0
 33 38  2  0
 33 34  1  0
 34 35  2  0
 35 36  1  0
 36 40  1  0
 37 36  2  0
 38 37  1  0
 39 38  1  0
 41 42  1  0
 42 45  1  0
 42 44  1  0
 43 41  2  0
 46 47  1  0
 46 21  1  0
 48 46  1  0
 50 49  1  0
 51 50  1  0
 52 51  1  0
 53 64  2  0
 54 52  1  0
 54 59  1  0
 55 63  1  0
 55 65  1  0
 56 62  1  0
 56 58  1  0
 57 63  1  0
 58 57  1  0
 59 58  2  0
 60 54  2  0
 61 60  1  0
 61 56  2  0
 62 55  1  0
 63 53  1  0
 65 67  2  0
 66 65  1  0
 68 66  1  0
 69 78  2  0
 69 74  1  0
 70 66  1  0
 70 74  1  0
 71 70  1  0
 72 73  1  0
 72 71  1  0
 73 69  1  0
 74 75  2  0
 75 76  1  0
 77 76  2  0
 78 77  1  0
 79 53  1  0
 79 80  1  0
 79 89  1  0
 80 83  1  0
 81 85  1  0
 81 80  1  0
 82 81  2  0
 85 84  1  0
 87 85  1  0
 87 88  1  0
 87 86  1  0
 89 92  1  1
 89 90  1  0
 91 89  1  0
M  ISO  4  11 100  19 100  51 101  52 101
M  END
>  <TORSDO>  (52) 
F 21

>  <SCORE>  (52) 
-12.816

>  <name>  (52) 
51

>  <ligand_id>  (52) 
51

>  <original_smiles>  (52) 
[H]c1c([H])c([H])c2c(c1[H])C([H])([H])C([H])([H])C([H])([H])C2([H])N([H])C(=O)C1([H])N(C(=O)C([H])(N([H])C(=O)C([H])(N([H])C([H])([H])[H])C([H])([H])[H])C(C([H])([H])[H])(C([H])([H])[H])C([H])([H])[H])C([H])([H])c2c([H])c(OC([H])([H])C([H])([H])C([H])([H])[N+]([H])(C([H])([H])[H])C([H])([H])c3c([H])c([H])c(N([H])C(=O)N4C([H])([H])C([H])([H])C([H])([H])C([H])(n5nc(-c6c([H])c([H])c(Oc7c([H])c([H])c(F)c([H])c7F)c([H])c6[H])c(C(=O)N([H])[H])c5N([H])[H])C4([H])[H])c([H])c3[H])c([H])c([H])c2C1([H])[H]

>  <smiles>  (52) 
[H]c1c([H])c([H])c2c(c1[H])C([H])([H])C([H])([H])C([H])([H])C2([H])N([H])C(=O)C1([H])N(C(=O)C([H])(N([H])C(=O)C([H])(N([H])C([H])([H])[H])C([H])([H])[H])C(C([H])([H])[H])(C([H])([H])[H])C([H])([H])[H])C([H])([H])c2c([H])c(OC([H])([H])C([H])([H])C([H])([H])[N+]([H])(C([H])([H])[H])C([H])([H])c3c([H])c([H])c(N([H])C(=O)N4C([H])([H])C([H])([H])C([H])([H])C([H])(n5nc(-c6c([H])c([H])c(Oc7c([H])c([H])c(F)c([H])c7F)c([H])c6[H])c(C(=O)N([H])[H])c5N([H])[H])C4([H])[H])c([H])c3[H])c([H])c([H])c2C1([H])[H]

$$$$
52:0:0
     RDKit          3D

 98107  0  0  1  0  0  0  0  0999 V2000
  -32.2730  -21.7440   19.5620 C   0  0  0  0  0  3  0  0  0  0  0  0
  -31.4450  -20.6240   19.3380 C   0  0  0  0  0  3  0  0  0  0  0  0
  -30.5930  -22.6830   21.0550 C   0  0  0  0  0  3  0  0  0  0  0  0
  -31.8590  -22.7740   20.4360 C   0  0  0  0  0  0  0  0  0  0  0  0
  -30.1970  -20.5150   19.9870 C   0  0  0  0  0  0  0  0  0  0  0  0
  -29.7690  -21.5610   20.8370 C   0  0  0  0  0  0  0  0  0  0  0  0
  -28.5720  -21.4830   21.4630 F   0  0  0  0  0  0  0  0  0  0  0  0
  -29.3350  -19.2730   19.7810 C   0  0  0  0  0  2  0  0  0  0  0  0
  -29.1570  -16.8790   20.4520 C   0  0  0  0  0  0  0  0  0  0  0  0
  -31.0810  -16.6110   21.8470 C   0  0  0  0  0  2  0  0  0  0  0  0
  -31.1090  -17.9580   21.1090 C   0  0  0  0  0  2  0  0  0  0  0  0
  -29.9200  -15.8000   21.2320 C   0  0  0  0  0  3  0  0  0  0  0  0
  -29.8260  -18.0420   20.4220 N   0  0  0  0  0  0  0  0  0  0  0  0
  -28.0370  -16.7000   19.9640 O   0  0  0  0  0  0  0  0  0  0  0  0
  -30.3750  -14.7200   20.2110 C   0  0  0  0  0  0  0  0  0  0  0  0
  -30.1180  -12.5290   19.0830 C   0  0  0  0  0  2  0  0  0  0  0  0
  -29.1030  -12.6110   17.9270 C   0  0  0  0  0  2  0  0  0  0  0  0
  -27.6760  -12.3530   18.4450 C   0  0  0  0  0  2  0  0  0  0  0  0
  -27.3390  -13.2280   19.6770 C   0  0  0  0  0  3  0  0  0  0  0  0
  -28.4590  -13.1550   20.7410 C   0  0  0  0  0  2  0  0  0  0  0  0
  -29.7350  -13.5210   20.1020 N   0  0  0  0  0  0  0  0  0  0  0  0
  -31.3610  -14.9790   19.5090 O   0  0  0  0  0  0  0  0  0  0  0  0
  -24.9890  -13.7250   20.5980 C   0  0  0  0  0  0  0  0  0  0  0  0
  -23.9740  -12.8990   21.0020 C   0  0  0  0  0  0  0  0  0  0  0  0
  -24.4750  -11.5680   20.8750 C   0  0  0  0  0  0  0  0  0  0  0  0
  -26.0370  -12.8900   20.2450 N   0  0  0  0  0  0  0  0  0  0  0  0
  -25.7370  -11.5860   20.4690 N   0  0  0  0  0  0  0  0  0  0  0  0
  -23.8090  -10.2730   21.0590 C   0  0  0  0  0  0  0  0  0  0  0  0
  -24.2950   -9.3170   21.9790 C   0  0  0  0  0  3  0  0  0  0  0  0
  -23.6280   -8.0860   22.1490 C   0  0  0  0  0  3  0  0  0  0  0  0
  -22.4630   -7.8000   21.3980 C   0  0  0  0  0  0  0  0  0  0  0  0
  -21.9980   -8.7450   20.4670 C   0  0  0  0  0  3  0  0  0  0  0  0
  -22.6640   -9.9690   20.2960 C   0  0  0  0  0  3  0  0  0  0  0  0
  -21.7630   -6.6200   21.4800 O   0  0  0  0  0  0  0  0  0  0  0  0
  -21.7140   -5.8900   22.6390 C   0  0  0  0  0  0  0  0  0  0  0  0
  -21.1730   -6.4200   23.8310 C   0  0  0  0  0  3  0  0  0  0  0  0
  -21.0790   -5.6120   24.9810 C   0  0  0  0  0  3  0  0  0  0  0  0
  -21.5150   -4.2730   24.9410 C   0  0  0  0  0  0  0  0  0  0  0  0
  -22.0510   -3.7430   23.7530 C   0  0  0  0  0  3  0  0  0  0  0  0
  -22.1460   -4.5490   22.6040 C   0  0  0  0  0  0  0  0  0  0  0  0
  -22.6420   -4.0260   21.4570 F   0  0  0  0  0  0  0  0  0  0  0  0
  -21.4180   -3.4940   26.0440 F   0  0  0  0  0  0  0  0  0  0  0  0
  -22.5870  -13.3130   21.4010 C   0  0  0  0  0  0  0  0  0  0  0  0
  -21.9530  -12.5510   22.2860 N   0  0  0  0  0  0  0  0  0  0  0  0
  -22.0720  -14.3400   20.9620 O   0  0  0  0  0  0  0  0  0  0  0  0
  -22.3840  -11.7180   22.6600 H   0  0  0  0  0  0  0  0  0  0  0  0
  -21.0250  -12.8050   22.5940 H   0  0  0  0  0  0  0  0  0  0  0  0
  -25.1080  -15.1070   20.4840 N   0  0  0  0  0  0  0  0  0  0  0  0
  -24.3640  -15.7500   20.7290 H   0  0  0  0  0  0  0  0  0  0  0  0
  -25.9810  -15.5770   20.2530 H   0  0  0  0  0  0  0  0  0  0  0  0
  -32.8020  -23.9250   20.7660 C   0  0  0  0  0  2  0  0  0  0  0  0
  -34.0500  -25.5570   19.4210 C   0  0  0  0  0  1  0  0  0  0  0  0
  -32.7090  -25.0620   19.8130 N   0  0  2  0  0  4  0  0  0  0  0  0
  -32.3200  -24.6810   18.9630 H   0  0  0  0  0  0  0  0  0  0  0  0
  -31.8090  -26.1730   20.2460 C   0  0  0  0  0  2  0  0  0  0  0  0
  -30.3730  -26.0270   19.7080 C   0  0  0  0  0  2  0  0  0  0  0  0
  -29.4720  -27.2510   19.9760 C   0  0  0  0  0  2  0  0  0  0  0  0
  -28.2290  -26.9520   19.3620 O   0  0  0  0  0  0  0  0  0  0  0  0
  -24.5770  -31.8320   23.1740 C   0  0  0  0  0  0  0  0  0  0  0  0
  -27.1230  -27.7430   19.5730 C   0  0  0  0  0  0  0  0  0  0  0  0
  -23.3120  -30.5910   21.4470 C   0  0  0  0  0  3  0  0  0  0  0  0
  -24.7180  -29.2070   19.8320 C   0  0  0  0  0  0  0  0  0  0  0  0
  -25.8280  -30.9850   21.1940 C   0  0  0  0  0  2  0  0  0  0  0  0
  -25.8970  -29.6810   20.4270 C   0  0  0  0  0  0  0  0  0  0  0  0
  -27.1040  -28.9560   20.3040 C   0  0  0  0  0  3  0  0  0  0  0  0
  -25.9290  -27.2820   18.9850 C   0  0  0  0  0  3  0  0  0  0  0  0
  -24.7270  -28.0010   19.1120 C   0  0  0  0  0  3  0  0  0  0  0  0
  -23.4740  -30.0470   20.0020 C   0  0  0  0  0  2  0  0  0  0  0  0
  -24.5930  -31.1450   21.9980 N   0  0  0  0  0  0  0  0  0  0  0  0
  -23.5160  -32.0460   23.7770 O   0  0  0  0  0  0  0  0  0  0  0  0
  -22.6950  -29.4800   22.3260 C   0  0  0  0  0  0  0  0  0  0  0  0
  -21.3670  -29.3070   22.2230 N   0  0  0  0  0  0  0  0  0  0  0  0
  -23.4040  -28.7830   23.0560 O   0  0  0  0  0  0  0  0  0  0  0  0
  -20.8570  -29.9260   21.6080 H   0  0  0  0  0  0  0  0  0  0  0  0
  -18.0100  -28.0650   22.7140 C   0  0  0  0  0  0  0  0  0  0  0  0
  -20.5750  -28.2970   22.9240 C   0  0  0  0  0  3  0  0  0  0  0  0
  -20.6550  -26.9290   22.2070 C   0  0  0  0  0  2  0  0  0  0  0  0
  -19.5200  -26.7080   21.2030 C   0  0  0  0  0  2  0  0  0  0  0  0
  -18.1600  -26.7890   21.9020 C   0  0  0  0  0  2  0  0  0  0  0  0
  -19.1440  -28.7820   23.1800 C   0  0  0  0  0  0  0  0  0  0  0  0
  -18.9480  -29.9820   23.8960 C   0  0  0  0  0  3  0  0  0  0  0  0
  -17.6510  -30.4620   24.1560 C   0  0  0  0  0  3  0  0  0  0  0  0
  -16.5310  -29.7390   23.7070 C   0  0  0  0  0  3  0  0  0  0  0  0
  -16.7120  -28.5430   22.9910 C   0  0  0  0  0  3  0  0  0  0  0  0
  -25.8860  -32.4010   23.8060 C   0  0  0  0  0  3  0  0  0  0  0  0
  -25.6040  -33.7710   24.2500 N   0  0  0  0  0  0  0  0  0  0  0  0
  -25.9470  -34.8750   23.5730 C   0  0  0  0  0  0  0  0  0  0  0  0
  -26.6050  -34.8450   22.5300 O   0  0  0  0  0  0  0  0  0  0  0  0
  -25.0220  -33.8700   25.0690 H   0  0  0  0  0  0  0  0  0  0  0  0
  -24.2470  -36.7170   23.3700 C   0  0  0  0  0  1  0  0  0  0  0  0
  -25.4820  -36.2280   24.1440 C   0  0  0  0  0  3  0  0  0  0  0  0
  -27.6290  -37.0080   25.0450 C   0  0  0  0  0  1  0  0  0  0  0  0
  -26.5310  -37.2710   24.1190 N   0  0  0  0  0  0  0  0  0  0  0  0
  -26.1370  -38.1810   24.3450 H   0  0  0  0  0  0  0  0  0  0  0  0
  -26.4300  -31.5260   25.0000 C   0  0  1  0  0  0  0  0  0  0  0  0
  -25.3660  -31.2140   26.0770 C   0  0  0  0  0  1  0  0  0  0  0  0
  -26.9840  -30.1780   24.4800 C   0  0  0  0  0  1  0  0  0  0  0  0
  -27.6100  -32.2520   25.6890 C   0  0  0  0  0  1  0  0  0  0  0  0
  1  4  1  0
  2  1  2  0
  2  5  1  0
  4 51  1  0
  4  3  2  0
  5  6  2  0
  6  3  1  0
  6  7  1  0
  8  5  1  0
  8 13  1  0
  9 12  1  0
 11 10  1  0
 12 15  1  0
 12 10  1  0
 13  9  1  0
 13 11  1  0
 14  9  2  0
 16 21  1  0
 17 18  1  0
 17 16  1  0
 19 18  1  0
 19 26  1  0
 19 20  1  0
 21 15  1  0
 21 20  1  0
 22 15  2  0
 23 24  2  0
 24 43  1  0
 25 24  1  0
 25 28  1  0
 26 27  1  0
 26 23  1  0
 27 25  2  0
 28 29  1  0
 29 30  2  0
 31 34  1  0
 31 30  1  0
 32 31  2  0
 33 32  1  0
 33 28  2  0
 34 35  1  0
 35 36  1  0
 36 37  2  0
 38 37  1  0
 38 42  1  0
 39 38  2  0
 40 35  2  0
 40 39  1  0
 41 40  1  0
 43 44  1  0
 44 47  1  0
 44 46  1  0
 45 43  2  0
 48 23  1  0
 48 49  1  0
 50 48  1  0
 52 53  1  0
 53 55  1  0
 53 51  1  0
 53 54  1  6
 56 57  1  0
 56 55  1  0
 58 60  1  0
 58 57  1  0
 59 70  2  0
 60 65  1  0
 61 69  1  0
 61 71  1  0
 62 68  1  0
 62 64  1  0
 63 69  1  0
 64 63  1  0
 65 64  2  0
 66 67  1  0
 66 60  2  0
 67 62  2  0
 68 61  1  0
 69 59  1  0
 71 73  2  0
 72 71  1  0
 74 72  1  0
 75 84  2  0
 75 80  1  0
 76 72  1  0
 76 80  1  0
 77 76  1  0
 78 79  1  0
 78 77  1  0
 79 75  1  0
 80 81  2  0
 81 82  1  0
 83 82  2  0
 84 83  1  0
 85 59  1  0
 85 86  1  0
 85 95  1  0
 86 89  1  0
 87 91  1  0
 87 86  1  0
 88 87  2  0
 91 90  1  0
 93 91  1  0
 93 94  1  0
 93 92  1  0
 95 98  1  1
 95 96  1  0
 97 95  1  0
M  ISO  4  12 100  15 100  57 101  58 101
M  END
>  <TORSDO>  (53) 
F 23

>  <SCORE>  (53) 
-12.152

>  <name>  (53) 
52

>  <ligand_id>  (53) 
52

>  <original_smiles>  (53) 
[H]c1c([H])c([H])c2c(c1[H])C([H])([H])C([H])([H])C([H])([H])C2([H])N([H])C(=O)C1([H])N(C(=O)C([H])(N([H])C(=O)C([H])(N([H])C([H])([H])[H])C([H])([H])[H])C(C([H])([H])[H])(C([H])([H])[H])C([H])([H])[H])C([H])([H])c2c([H])c(OC([H])([H])C([H])([H])C([H])([H])[N+]([H])(C([H])([H])[H])C([H])([H])c3c([H])c([H])c(C([H])([H])N4C(=O)C([H])(C(=O)N5C([H])([H])C([H])([H])C([H])([H])C([H])(n6nc(-c7c([H])c([H])c(Oc8c([H])c([H])c(F)c([H])c8F)c([H])c7[H])c(C(=O)N([H])[H])c6N([H])[H])C5([H])[H])C([H])([H])C4([H])[H])c(F)c3[H])c([H])c([H])c2C1([H])[H]

>  <smiles>  (53) 
[H]c1c([H])c([H])c2c(c1[H])C([H])([H])C([H])([H])C([H])([H])C2([H])N([H])C(=O)C1([H])N(C(=O)C([H])(N([H])C(=O)C([H])(N([H])C([H])([H])[H])C([H])([H])[H])C(C([H])([H])[H])(C([H])([H])[H])C([H])([H])[H])C([H])([H])c2c([H])c(OC([H])([H])C([H])([H])C([H])([H])[N+]([H])(C([H])([H])[H])C([H])([H])c3c([H])c([H])c(C([H])([H])N4C(=O)C([H])(C(=O)N5C([H])([H])C([H])([H])C([H])([H])C([H])(n6nc(-c7c([H])c([H])c(Oc8c([H])c([H])c(F)c([H])c8F)c([H])c7[H])c(C(=O)N([H])[H])c6N([H])[H])C5([H])[H])C([H])([H])C4([H])[H])c(F)c3[H])c([H])c([H])c2C1([H])[H]

$$$$
53:0:0
     RDKit          3D

 90 98  0  0  1  0  0  0  0  0999 V2000
  -30.7030  -18.5280   20.2000 C   0  0  0  0  0  3  0  0  0  0  0  0
  -30.4300  -19.9680   20.1690 C   0  0  0  0  0  3  0  0  0  0  0  0
  -28.4040  -18.1160   19.8960 C   0  0  0  0  0  3  0  0  0  0  0  0
  -28.1260  -19.5350   19.8540 C   0  0  0  0  0  0  0  0  0  0  0  0
  -29.6870  -17.5130   20.0880 C   0  0  0  0  0  0  0  0  0  0  0  0
  -29.1230  -20.5600   20.0170 C   0  0  0  0  0  0  0  0  0  0  0  0
  -26.6710  -19.9350   19.6540 C   0  0  0  0  0  1  0  0  0  0  0  0
  -30.6270  -14.9040   19.9150 C   0  0  0  0  0  0  0  0  0  0  0  0
  -30.5010  -12.5580   18.9660 C   0  0  0  0  0  2  0  0  0  0  0  0
  -29.5200  -12.5460   17.7690 C   0  0  0  0  0  2  0  0  0  0  0  0
  -28.0670  -12.3540   18.2460 C   0  0  0  0  0  2  0  0  0  0  0  0
  -27.7120  -13.2680   19.4460 C   0  0  0  0  0  3  0  0  0  0  0  0
  -28.8050  -13.2260   20.5370 C   0  0  0  0  0  2  0  0  0  0  0  0
  -30.0680  -13.6300   19.9020 N   0  0  0  0  0  0  0  0  0  0  0  0
  -31.8020  -15.0350   19.5530 O   0  0  0  0  0  0  0  0  0  0  0  0
  -29.7580  -15.9880   20.1700 N   0  0  0  0  0  0  0  0  0  0  0  0
  -28.8670  -15.6000   20.4360 H   0  0  0  0  0  0  0  0  0  0  0  0
  -25.3540  -13.8740   20.2480 C   0  0  0  0  0  0  0  0  0  0  0  0
  -24.2970  -13.1090   20.6600 C   0  0  0  0  0  0  0  0  0  0  0  0
  -24.7530  -11.7550   20.6260 C   0  0  0  0  0  0  0  0  0  0  0  0
  -26.3840  -12.9870   19.9830 N   0  0  0  0  0  0  0  0  0  0  0  0
  -26.0330  -11.7080   20.2740 N   0  0  0  0  0  0  0  0  0  0  0  0
  -24.0250  -10.4990   20.8490 C   0  0  0  0  0  0  0  0  0  0  0  0
  -24.4750   -9.5410   21.7850 C   0  0  0  0  0  3  0  0  0  0  0  0
  -23.7460   -8.3490   21.9950 C   0  0  0  0  0  3  0  0  0  0  0  0
  -22.5560   -8.1080   21.2700 C   0  0  0  0  0  0  0  0  0  0  0  0
  -22.1240   -9.0550   20.3250 C   0  0  0  0  0  3  0  0  0  0  0  0
  -22.8530  -10.2370   20.1120 C   0  0  0  0  0  3  0  0  0  0  0  0
  -21.7970   -6.9690   21.3910 O   0  0  0  0  0  0  0  0  0  0  0  0
  -21.7560   -6.2500   22.5590 C   0  0  0  0  0  0  0  0  0  0  0  0
  -21.3360   -6.8310   23.7760 C   0  0  0  0  0  3  0  0  0  0  0  0
  -21.2430   -6.0400   24.9380 C   0  0  0  0  0  3  0  0  0  0  0  0
  -21.5610   -4.6690   24.8850 C   0  0  0  0  0  0  0  0  0  0  0  0
  -21.9740   -4.0880   23.6730 C   0  0  0  0  0  3  0  0  0  0  0  0
  -22.0690   -4.8770   22.5130 C   0  0  0  0  0  0  0  0  0  0  0  0
  -22.4480   -4.3080   21.3440 F   0  0  0  0  0  0  0  0  0  0  0  0
  -21.4640   -3.9070   26.0000 F   0  0  0  0  0  0  0  0  0  0  0  0
  -22.9120  -13.5970   20.9690 C   0  0  0  0  0  0  0  0  0  0  0  0
  -22.2100  -12.9210   21.8710 N   0  0  0  0  0  0  0  0  0  0  0  0
  -22.4610  -14.6130   20.4430 O   0  0  0  0  0  0  0  0  0  0  0  0
  -22.5890  -12.0990   22.3190 H   0  0  0  0  0  0  0  0  0  0  0  0
  -21.2820  -13.2300   22.1210 H   0  0  0  0  0  0  0  0  0  0  0  0
  -25.5170  -15.2410   20.0480 N   0  0  0  0  0  0  0  0  0  0  0  0
  -24.7390  -15.8840   20.1510 H   0  0  0  0  0  0  0  0  0  0  0  0
  -26.3100  -15.6550   19.5790 H   0  0  0  0  0  0  0  0  0  0  0  0
  -28.4250  -22.1900   21.6360 C   0  0  0  0  0  1  0  0  0  0  0  0
  -28.7300  -21.9850   20.2190 N   0  0  0  0  0  0  0  0  0  0  0  0
  -28.9920  -23.3320   19.4850 C   0  0  0  0  0  3  0  0  0  0  0  0
  -27.9770  -24.6550   19.7250 C   0  0  0  0  0  3  0  0  0  0  0  0
  -28.2040  -26.1480   19.3750 O   0  0  0  0  0  0  0  0  0  0  0  0
  -24.6780  -31.5590   22.9230 C   0  0  0  0  0  0  0  0  0  0  0  0
  -27.1330  -27.1040   19.4590 C   0  0  0  0  0  0  0  0  0  0  0  0
  -23.4110  -30.2820   21.2380 C   0  0  0  0  0  3  0  0  0  0  0  0
  -24.7990  -28.8210   19.6480 C   0  0  0  0  0  0  0  0  0  0  0  0
  -25.9530  -30.5730   20.9870 C   0  0  0  0  0  2  0  0  0  0  0  0
  -26.0010  -29.2320   20.2380 C   0  0  0  0  0  0  0  0  0  0  0  0
  -27.1700  -28.3920   20.1270 C   0  0  0  0  0  3  0  0  0  0  0  0
  -25.9060  -26.7960   18.8330 C   0  0  0  0  0  3  0  0  0  0  0  0
  -24.7610  -27.6160   18.9310 C   0  0  0  0  0  3  0  0  0  0  0  0
  -23.5740  -29.7060   19.8060 C   0  0  0  0  0  2  0  0  0  0  0  0
  -24.7030  -30.8230   21.7710 N   0  0  0  0  0  0  0  0  0  0  0  0
  -23.6160  -31.8020   23.5150 O   0  0  0  0  0  0  0  0  0  0  0  0
  -22.7740  -29.2060   22.1520 C   0  0  0  0  0  0  0  0  0  0  0  0
  -21.4410  -29.0390   22.0650 N   0  0  0  0  0  0  0  0  0  0  0  0
  -23.4780  -28.5250   22.9020 O   0  0  0  0  0  0  0  0  0  0  0  0
  -20.9290  -29.6410   21.4370 H   0  0  0  0  0  0  0  0  0  0  0  0
  -18.0790  -27.8200   22.6380 C   0  0  0  0  0  0  0  0  0  0  0  0
  -20.6510  -28.0480   22.7990 C   0  0  0  0  0  3  0  0  0  0  0  0
  -20.7120  -26.6640   22.1110 C   0  0  0  0  0  2  0  0  0  0  0  0
  -19.5600  -26.4280   21.1290 C   0  0  0  0  0  2  0  0  0  0  0  0
  -18.2120  -26.5280   21.8500 C   0  0  0  0  0  2  0  0  0  0  0  0
  -19.2240  -28.5420   23.0700 C   0  0  0  0  0  0  0  0  0  0  0  0
  -19.0440  -29.7530   23.7730 C   0  0  0  0  0  3  0  0  0  0  0  0
  -17.7520  -30.2420   24.0450 C   0  0  0  0  0  3  0  0  0  0  0  0
  -16.6230  -29.5180   23.6260 C   0  0  0  0  0  3  0  0  0  0  0  0
  -16.7880  -28.3070   22.9290 C   0  0  0  0  0  3  0  0  0  0  0  0
  -25.9820  -32.1510   23.5390 C   0  0  0  0  0  3  0  0  0  0  0  0
  -26.5630  -31.2740   24.7170 C   0  0  1  0  0  0  0  0  0  0  0  0
  -25.5250  -30.9360   25.8140 C   0  0  0  0  0  1  0  0  0  0  0  0
  -27.1300  -29.9400   24.1810 C   0  0  0  0  0  1  0  0  0  0  0  0
  -27.7440  -32.0160   25.3880 C   0  0  0  0  0  1  0  0  0  0  0  0
  -25.6760  -33.5090   24.0150 N   0  0  0  0  0  0  0  0  0  0  0  0
  -25.9600  -34.6340   23.3460 C   0  0  0  0  0  0  0  0  0  0  0  0
  -26.5730  -34.6380   22.2750 O   0  0  0  0  0  0  0  0  0  0  0  0
  -25.1240  -33.5790   24.8570 H   0  0  0  0  0  0  0  0  0  0  0  0
  -24.1990  -36.4310   23.2640 C   0  0  0  0  0  1  0  0  0  0  0  0
  -25.4890  -35.9680   23.9600 C   0  0  0  0  0  3  0  0  0  0  0  0
  -27.6600  -36.8040   24.7480 C   0  0  0  0  0  1  0  0  0  0  0  0
  -26.5050  -37.0420   23.8870 N   0  0  0  0  0  0  0  0  0  0  0  0
  -26.1000  -37.9390   24.1400 H   0  0  0  0  0  0  0  0  0  0  0  0
  2  1  1  0
  3  5  1  0
  4  3  2  0
  4  6  1  0
  5 16  1  0
  5  1  2  0
  6  2  2  0
  6 47  1  0
  7  4  1  0
  8 16  1  0
  9 14  1  0
 10 11  1  0
 10  9  1  0
 12 11  1  0
 12 21  1  0
 12 13  1  0
 14  8  1  0
 14 13  1  0
 15  8  2  0
 16 17  1  0
 18 19  2  0
 19 38  1  0
 20 19  1  0
 20 23  1  0
 21 18  1  0
 21 22  1  0
 22 20  2  0
 23 24  1  0
 24 25  2  0
 26 29  1  0
 26 25  1  0
 27 26  2  0
 28 27  1  0
 28 23  2  0
 29 30  1  0
 30 31  1  0
 31 32  2  0
 33 32  1  0
 33 37  1  0
 34 33  2  0
 35 30  2  0
 35 34  1  0
 36 35  1  0
 38 39  1  0
 39 42  1  0
 39 41  1  0
 40 38  2  0
 43 44  1  0
 43 18  1  0
 45 43  1  0
 47 46  1  0
 48 49  2  0
 48 47  1  0
 50 52  1  0
 50 49  1  0
 51 62  2  0
 52 57  1  0
 53 61  1  0
 53 63  1  0
 54 60  1  0
 54 56  1  0
 55 61  1  0
 56 55  1  0
 57 56  2  0
 58 59  1  0
 58 52  2  0
 59 54  2  0
 60 53  1  0
 61 51  1  0
 63 65  2  0
 64 63  1  0
 66 64  1  0
 67 76  2  0
 67 72  1  0
 68 64  1  0
 68 72  1  0
 69 68  1  0
 70 71  1  0
 70 69  1  0
 71 67  1  0
 72 73  2  0
 73 74  1  0
 75 74  2  0
 76 75  1  0
 77 51  1  0
 77 82  1  0
 77 78  1  0
 78 81  1  1
 78 79  1  0
 80 78  1  0
 82 85  1  0
 83 87  1  0
 83 82  1  0
 84 83  2  0
 87 86  1  0
 89 87  1  0
 89 90  1  0
 89 88  1  0
M  ISO  4   8 100  16 100  49 101  50 101
M  END
>  <TORSDO>  (54) 
F 19

>  <SCORE>  (54) 
-12.874

>  <name>  (54) 
53

>  <ligand_id>  (54) 
53

>  <original_smiles>  (54) 
[H]c1c([H])c([H])c2c(c1[H])C([H])([H])C([H])([H])C([H])([H])C2([H])N([H])C(=O)C1([H])N(C(=O)C([H])(N([H])C(=O)C([H])(N([H])C([H])([H])[H])C([H])([H])[H])C(C([H])([H])[H])(C([H])([H])[H])C([H])([H])[H])C([H])([H])c2c([H])c(OC([H])([H])C([H])([H])N(c3c([H])c([H])c(N([H])C(=O)N4C([H])([H])C([H])([H])C([H])([H])C([H])(n5nc(-c6c([H])c([H])c(Oc7c([H])c([H])c(F)c([H])c7F)c([H])c6[H])c(C(=O)N([H])[H])c5N([H])[H])C4([H])[H])c([H])c3C([H])([H])[H])C([H])([H])[H])c([H])c([H])c2C1([H])[H]

>  <smiles>  (54) 
[H]c1c([H])c([H])c2c(c1[H])C([H])([H])C([H])([H])C([H])([H])C2([H])N([H])C(=O)C1([H])N(C(=O)C([H])(N([H])C(=O)C([H])(N([H])C([H])([H])[H])C([H])([H])[H])C(C([H])([H])[H])(C([H])([H])[H])C([H])([H])[H])C([H])([H])c2c([H])c(OC([H])([H])C([H])([H])N(c3c([H])c([H])c(N([H])C(=O)N4C([H])([H])C([H])([H])C([H])([H])C([H])(n5nc(-c6c([H])c([H])c(Oc7c([H])c([H])c(F)c([H])c7F)c([H])c6[H])c(C(=O)N([H])[H])c5N([H])[H])C4([H])[H])c([H])c3C([H])([H])[H])C([H])([H])[H])c([H])c([H])c2C1([H])[H]

$$$$
54:0:0
     RDKit          3D

 95104  0  0  1  0  0  0  0  0999 V2000
  -29.0580  -22.7860   17.8030 C   0  0  0  0  0  2  0  0  0  0  0  0
  -28.6070  -24.1380   18.3360 C   0  0  0  0  0  2  0  0  0  0  0  0
  -29.9300  -22.2430   18.9280 C   0  0  0  0  0  2  0  0  0  0  0  0
  -28.4440  -23.9380   19.8570 C   0  0  0  0  0  3  0  0  0  0  0  0
  -29.3410  -22.7240   20.2070 N   0  0  1  0  0  4  0  0  0  0  0  0
  -30.1380  -23.0750   20.7180 H   0  0  0  0  0  0  0  0  0  0  0  0
  -28.7900  -21.6050   21.0920 C   0  0  0  0  0  2  0  0  0  0  0  0
  -28.3860  -19.0550   20.6980 C   0  0  0  0  0  3  0  0  0  0  0  0
  -28.7950  -17.6980   20.5530 C   0  0  0  0  0  3  0  0  0  0  0  0
  -30.6430  -19.6800   21.2060 C   0  0  0  0  0  3  0  0  0  0  0  0
  -29.3020  -20.1020   20.9790 C   0  0  0  0  0  0  0  0  0  0  0  0
  -30.1440  -17.2860   20.6710 C   0  0  0  0  0  0  0  0  0  0  0  0
  -31.0610  -18.3140   21.0420 C   0  0  0  0  0  0  0  0  0  0  0  0
  -32.3740  -18.0150   21.1850 F   0  0  0  0  0  0  0  0  0  0  0  0
  -31.1480  -14.9150   20.7180 C   0  0  0  0  0  0  0  0  0  0  0  0
  -30.9370  -12.6470   19.7300 C   0  0  0  0  0  2  0  0  0  0  0  0
  -30.0870  -12.7000   18.4410 C   0  0  0  0  0  2  0  0  0  0  0  0
  -28.5840  -12.6080   18.7650 C   0  0  0  0  0  2  0  0  0  0  0  0
  -28.1440  -13.5250   19.9370 C   0  0  0  0  0  3  0  0  0  0  0  0
  -29.1230  -13.4420   21.1260 C   0  0  0  0  0  2  0  0  0  0  0  0
  -30.4620  -13.7320   20.6080 N   0  0  0  0  0  0  0  0  0  0  0  0
  -32.3810  -14.9000   20.7410 O   0  0  0  0  0  0  0  0  0  0  0  0
  -30.5500  -15.9960   20.0900 N   0  0  0  0  0  0  0  0  0  0  0  0
  -25.7120  -14.1620   20.4610 C   0  0  0  0  0  0  0  0  0  0  0  0
  -24.6090  -13.4120   20.7610 C   0  0  0  0  0  0  0  0  0  0  0  0
  -25.0550  -12.0560   20.8000 C   0  0  0  0  0  0  0  0  0  0  0  0
  -26.7620  -13.2660   20.3340 N   0  0  0  0  0  0  0  0  0  0  0  0
  -26.3670  -11.9930   20.5980 N   0  0  0  0  0  0  0  0  0  0  0  0
  -24.2940  -10.8110   20.9600 C   0  0  0  0  0  0  0  0  0  0  0  0
  -24.6490   -9.8440   21.9260 C   0  0  0  0  0  3  0  0  0  0  0  0
  -23.8910   -8.6610   22.0700 C   0  0  0  0  0  3  0  0  0  0  0  0
  -22.7610   -8.4370   21.2470 C   0  0  0  0  0  0  0  0  0  0  0  0
  -22.4270   -9.3910   20.2700 C   0  0  0  0  0  3  0  0  0  0  0  0
  -23.1840  -10.5660   20.1260 C   0  0  0  0  0  3  0  0  0  0  0  0
  -21.9770   -7.3110   21.3040 O   0  0  0  0  0  0  0  0  0  0  0  0
  -21.8360   -6.5920   22.4630 C   0  0  0  0  0  0  0  0  0  0  0  0
  -21.3280   -7.1750   23.6440 C   0  0  0  0  0  3  0  0  0  0  0  0
  -21.1300   -6.3810   24.7910 C   0  0  0  0  0  3  0  0  0  0  0  0
  -21.4300   -5.0070   24.7580 C   0  0  0  0  0  0  0  0  0  0  0  0
  -21.9330   -4.4240   23.5820 C   0  0  0  0  0  3  0  0  0  0  0  0
  -22.1330   -5.2140   22.4360 C   0  0  0  0  0  0  0  0  0  0  0  0
  -22.5970   -4.6440   21.2990 F   0  0  0  0  0  0  0  0  0  0  0  0
  -21.2300   -4.2440   25.8570 F   0  0  0  0  0  0  0  0  0  0  0  0
  -23.2040  -13.9150   20.9050 C   0  0  0  0  0  0  0  0  0  0  0  0
  -22.4080  -13.2630   21.7460 N   0  0  0  0  0  0  0  0  0  0  0  0
  -22.8200  -14.9190   20.3070 O   0  0  0  0  0  0  0  0  0  0  0  0
  -22.7340  -12.4490   22.2490 H   0  0  0  0  0  0  0  0  0  0  0  0
  -21.4580  -13.5790   21.8870 H   0  0  0  0  0  0  0  0  0  0  0  0
  -25.9050  -15.5240   20.2670 N   0  0  0  0  0  0  0  0  0  0  0  0
  -25.1440  -16.1940   20.2930 H   0  0  0  0  0  0  0  0  0  0  0  0
  -26.7840  -15.9350   19.9880 H   0  0  0  0  0  0  0  0  0  0  0  0
  -30.0450  -16.7120   17.7050 C   0  0  0  0  0  1  0  0  0  0  0  0
  -31.0830  -16.2050   18.7190 C   0  0  0  0  0  2  0  0  0  0  0  0
  -28.6800  -25.3250   20.6330 C   0  0  0  0  0  2  0  0  0  0  0  0
  -28.5950  -26.6550   19.9620 O   0  0  0  0  0  0  0  0  0  0  0  0
  -24.6880  -31.8370   23.1740 C   0  0  0  0  0  0  0  0  0  0  0  0
  -27.4310  -27.4340   20.0180 C   0  0  0  0  0  0  0  0  0  0  0  0
  -23.5270  -30.4540   21.4880 C   0  0  0  0  0  3  0  0  0  0  0  0
  -25.0230  -28.9770   20.0290 C   0  0  0  0  0  0  0  0  0  0  0  0
  -26.0550  -30.8480   21.3200 C   0  0  0  0  0  2  0  0  0  0  0  0
  -26.1740  -29.4880   20.6420 C   0  0  0  0  0  0  0  0  0  0  0  0
  -27.3830  -28.7320   20.6160 C   0  0  0  0  0  3  0  0  0  0  0  0
  -26.2580  -26.9660   19.3940 C   0  0  0  0  0  3  0  0  0  0  0  0
  -25.0700  -27.7240   19.3940 C   0  0  0  0  0  3  0  0  0  0  0  0
  -23.7610  -29.8170   20.0930 C   0  0  0  0  0  2  0  0  0  0  0  0
  -24.7750  -31.0650   22.0510 N   0  0  0  0  0  0  0  0  0  0  0  0
  -23.5960  -32.0700   23.7130 O   0  0  0  0  0  0  0  0  0  0  0  0
  -22.8890  -29.3960   22.4170 C   0  0  0  0  0  0  0  0  0  0  0  0
  -21.5700  -29.1780   22.2740 N   0  0  0  0  0  0  0  0  0  0  0  0
  -23.5790  -28.7740   23.2270 O   0  0  0  0  0  0  0  0  0  0  0  0
  -21.0670  -29.7370   21.6000 H   0  0  0  0  0  0  0  0  0  0  0  0
  -18.2400  -27.8350   22.6930 C   0  0  0  0  0  0  0  0  0  0  0  0
  -20.7790  -28.1930   23.0130 C   0  0  0  0  0  3  0  0  0  0  0  0
  -20.9490  -26.7780   22.4150 C   0  0  0  0  0  2  0  0  0  0  0  0
  -19.8790  -26.4290   21.3730 C   0  0  0  0  0  2  0  0  0  0  0  0
  -18.4820  -26.5060   21.9950 C   0  0  0  0  0  2  0  0  0  0  0  0
  -19.3180  -28.6330   23.1580 C   0  0  0  0  0  0  0  0  0  0  0  0
  -19.0380  -29.8740   23.7700 C   0  0  0  0  0  3  0  0  0  0  0  0
  -17.7110  -30.3210   23.9190 C   0  0  0  0  0  3  0  0  0  0  0  0
  -16.6460  -29.5200   23.4710 C   0  0  0  0  0  3  0  0  0  0  0  0
  -16.9110  -28.2790   22.8650 C   0  0  0  0  0  3  0  0  0  0  0  0
  -25.9500  -32.4850   23.8220 C   0  0  0  0  0  3  0  0  0  0  0  0
  -26.4550  -31.7200   25.1070 C   0  0  1  0  0  0  0  0  0  0  0  0
  -25.3500  -31.4720   26.1600 C   0  0  0  0  0  1  0  0  0  0  0  0
  -27.0600  -30.3480   24.7290 C   0  0  0  0  0  1  0  0  0  0  0  0
  -27.5860  -32.5290   25.7870 C   0  0  0  0  0  1  0  0  0  0  0  0
  -25.6180  -33.8790   24.1470 N   0  0  0  0  0  0  0  0  0  0  0  0
  -25.9570  -34.9390   23.3980 C   0  0  0  0  0  0  0  0  0  0  0  0
  -26.6490  -34.8420   22.3810 O   0  0  0  0  0  0  0  0  0  0  0  0
  -25.0080  -34.0300   24.9360 H   0  0  0  0  0  0  0  0  0  0  0  0
  -24.2190  -36.7180   23.0140 C   0  0  0  0  0  1  0  0  0  0  0  0
  -25.4460  -36.3210   23.8520 C   0  0  0  0  0  3  0  0  0  0  0  0
  -27.5510  -37.2220   24.7350 C   0  0  0  0  0  1  0  0  0  0  0  0
  -26.4690  -37.3870   23.7680 N   0  0  0  0  0  0  0  0  0  0  0  0
  -26.0500  -38.3020   23.9090 H   0  0  0  0  0  0  0  0  0  0  0  0
  1  2  1  0
  1  3  1  0
  2  4  1  0
  3  5  1  0
  4  5  1  0
  4 54  1  0
  5  6  1  1
  5  7  1  0
  8 11  1  0
  9 12  1  0
  9  8  2  0
 11  7  1  0
 11 10  2  0
 12 13  2  0
 13 14  1  0
 13 10  1  0
 15 22  2  0
 16 21  1  0
 17 18  1  0
 17 16  1  0
 19 18  1  0
 19 27  1  0
 19 20  1  0
 21 15  1  0
 21 20  1  0
 23 12  1  0
 23 15  1  0
 24 25  2  0
 25 26  1  0
 25 44  1  0
 26 29  1  0
 27 24  1  0
 27 28  1  0
 28 26  2  0
 29 30  1  0
 30 31  2  0
 32 35  1  0
 32 31  1  0
 33 32  2  0
 34 33  1  0
 34 29  2  0
 35 36  1  0
 36 37  1  0
 37 38  2  0
 39 38  1  0
 39 43  1  0
 40 39  2  0
 41 36  2  0
 41 40  1  0
 42 41  1  0
 44 45  1  0
 45 48  1  0
 45 47  1  0
 46 44  2  0
 49 50  1  0
 49 24  1  0
 51 49  1  0
 52 53  1  0
 53 23  1  0
 55 57  1  0
 55 54  1  0
 56 67  2  0
 57 62  1  0
 58 66  1  0
 58 68  1  0
 59 65  1  0
 59 61  1  0
 60 66  1  0
 61 60  1  0
 62 61  2  0
 63 64  1  0
 63 57  2  0
 64 59  2  0
 65 58  1  0
 66 56  1  0
 68 70  2  0
 69 68  1  0
 71 69  1  0
 72 81  2  0
 72 77  1  0
 73 69  1  0
 73 77  1  0
 74 73  1  0
 75 76  1  0
 75 74  1  0
 76 72  1  0
 77 78  2  0
 78 79  1  0
 80 79  2  0
 81 80  1  0
 82 56  1  0
 82 87  1  0
 82 83  1  0
 83 86  1  1
 83 84  1  0
 85 83  1  0
 87 90  1  0
 88 92  1  0
 88 87  1  0
 89 88  2  0
 92 91  1  0
 94 92  1  0
 94 95  1  0
 94 93  1  0
M  ISO  4  15 100  23 100  54 101  55 101
M  END
>  <TORSDO>  (55) 
F 20

>  <SCORE>  (55) 
-12.832

>  <name>  (55) 
54

>  <ligand_id>  (55) 
54

>  <original_smiles>  (55) 
[H]c1c([H])c([H])c2c(c1[H])C([H])([H])C([H])([H])C([H])([H])C2([H])N([H])C(=O)C1([H])N(C(=O)C([H])(N([H])C(=O)C([H])(N([H])C([H])([H])[H])C([H])([H])[H])C(C([H])([H])[H])(C([H])([H])[H])C([H])([H])[H])C([H])([H])c2c([H])c(OC([H])([H])C3([H])C([H])([H])C([H])([H])C([H])([H])[N+]3([H])C([H])([H])c3c([H])c([H])c(N(C(=O)N4C([H])([H])C([H])([H])C([H])([H])C([H])(n5nc(-c6c([H])c([H])c(Oc7c([H])c([H])c(F)c([H])c7F)c([H])c6[H])c(C(=O)N([H])[H])c5N([H])[H])C4([H])[H])C([H])([H])C([H])([H])[H])c(F)c3[H])c([H])c([H])c2C1([H])[H]

>  <smiles>  (55) 
[H]c1c([H])c([H])c2c(c1[H])C([H])([H])C([H])([H])C([H])([H])C2([H])N([H])C(=O)C1([H])N(C(=O)C([H])(N([H])C(=O)C([H])(N([H])C([H])([H])[H])C([H])([H])[H])C(C([H])([H])[H])(C([H])([H])[H])C([H])([H])[H])C([H])([H])c2c([H])c(OC([H])([H])C3([H])C([H])([H])C([H])([H])C([H])([H])[N+]3([H])C([H])([H])c3c([H])c([H])c(N(C(=O)N4C([H])([H])C([H])([H])C([H])([H])C([H])(n5nc(-c6c([H])c([H])c(Oc7c([H])c([H])c(F)c([H])c7F)c([H])c6[H])c(C(=O)N([H])[H])c5N([H])[H])C4([H])[H])C([H])([H])C([H])([H])[H])c(F)c3[H])c([H])c([H])c2C1([H])[H]

$$$$
55:0:0
     RDKit          3D

 93102  0  0  1  0  0  0  0  0999 V2000
  -28.2130  -23.3270   22.6370 C   0  0  0  0  0  2  0  0  0  0  0  0
  -29.3270  -24.2400   22.1170 C   0  0  0  0  0  2  0  0  0  0  0  0
  -28.4020  -22.0810   21.7700 C   0  0  0  0  0  2  0  0  0  0  0  0
  -29.2480  -24.0380   20.5940 C   0  0  0  0  0  3  0  0  0  0  0  0
  -28.8980  -22.5510   20.4460 N   0  0  1  0  0  4  0  0  0  0  0  0
  -28.1240  -22.4860   19.8000 H   0  0  0  0  0  0  0  0  0  0  0  0
  -29.9700  -21.6380   19.8740 C   0  0  0  0  0  2  0  0  0  0  0  0
  -30.9080  -19.3790   20.8190 C   0  0  0  0  0  3  0  0  0  0  0  0
  -28.8930  -19.2690   19.5110 C   0  0  0  0  0  3  0  0  0  0  0  0
  -30.9170  -17.9560   20.9430 C   0  0  0  0  0  3  0  0  0  0  0  0
  -28.8900  -17.8530   19.6490 C   0  0  0  0  0  3  0  0  0  0  0  0
  -29.8970  -20.0770   20.0980 C   0  0  0  0  0  0  0  0  0  0  0  0
  -29.9000  -17.1540   20.3600 C   0  0  0  0  0  0  0  0  0  0  0  0
  -30.6330  -14.6690   20.3540 C   0  0  0  0  0  0  0  0  0  0  0  0
  -30.4340  -12.4300   19.3060 C   0  0  0  0  0  2  0  0  0  0  0  0
  -29.4970  -12.5790   18.0880 C   0  0  0  0  0  2  0  0  0  0  0  0
  -28.0190  -12.4230   18.5080 C   0  0  0  0  0  2  0  0  0  0  0  0
  -27.6550  -13.2790   19.7500 C   0  0  0  0  0  3  0  0  0  0  0  0
  -28.7090  -13.1150   20.8670 C   0  0  0  0  0  2  0  0  0  0  0  0
  -30.0250  -13.4430   20.2940 N   0  0  0  0  0  0  0  0  0  0  0  0
  -31.8160  -14.8280   20.0420 O   0  0  0  0  0  0  0  0  0  0  0  0
  -29.7730  -15.7130   20.5460 N   0  0  0  0  0  0  0  0  0  0  0  0
  -28.8250  -15.3830   20.6490 H   0  0  0  0  0  0  0  0  0  0  0  0
  -25.2570  -13.8890   20.4490 C   0  0  0  0  0  0  0  0  0  0  0  0
  -24.1870  -13.1200   20.8240 C   0  0  0  0  0  0  0  0  0  0  0  0
  -24.6490  -11.7680   20.8090 C   0  0  0  0  0  0  0  0  0  0  0  0
  -26.3010  -13.0040   20.2300 N   0  0  0  0  0  0  0  0  0  0  0  0
  -25.9410  -11.7240   20.5070 N   0  0  0  0  0  0  0  0  0  0  0  0
  -23.9190  -10.5090   21.0030 C   0  0  0  0  0  0  0  0  0  0  0  0
  -24.3410   -9.5520   21.9500 C   0  0  0  0  0  3  0  0  0  0  0  0
  -23.6130   -8.3570   22.1320 C   0  0  0  0  0  3  0  0  0  0  0  0
  -22.4500   -8.1110   21.3650 C   0  0  0  0  0  0  0  0  0  0  0  0
  -22.0470   -9.0570   20.4070 C   0  0  0  0  0  3  0  0  0  0  0  0
  -22.7760  -10.2440   20.2240 C   0  0  0  0  0  3  0  0  0  0  0  0
  -21.6940   -6.9690   21.4550 O   0  0  0  0  0  0  0  0  0  0  0  0
  -21.6260   -6.2390   22.6160 C   0  0  0  0  0  0  0  0  0  0  0  0
  -21.1670   -6.8040   23.8260 C   0  0  0  0  0  3  0  0  0  0  0  0
  -21.0470   -6.0010   24.9770 C   0  0  0  0  0  3  0  0  0  0  0  0
  -21.3760   -4.6330   24.9200 C   0  0  0  0  0  0  0  0  0  0  0  0
  -21.8280   -4.0680   23.7150 C   0  0  0  0  0  3  0  0  0  0  0  0
  -21.9490   -4.8680   22.5660 C   0  0  0  0  0  0  0  0  0  0  0  0
  -22.3650   -4.3130   21.4020 F   0  0  0  0  0  0  0  0  0  0  0  0
  -21.2520   -3.8600   26.0230 F   0  0  0  0  0  0  0  0  0  0  0  0
  -22.7900  -13.6040   21.0800 C   0  0  0  0  0  0  0  0  0  0  0  0
  -22.0530  -12.9200   21.9490 N   0  0  0  0  0  0  0  0  0  0  0  0
  -22.3600  -14.6250   20.5470 O   0  0  0  0  0  0  0  0  0  0  0  0
  -22.4120  -12.0960   22.4090 H   0  0  0  0  0  0  0  0  0  0  0  0
  -21.1140  -13.2280   22.1570 H   0  0  0  0  0  0  0  0  0  0  0  0
  -25.4210  -15.2570   20.2530 N   0  0  0  0  0  0  0  0  0  0  0  0
  -24.6330  -15.8950   20.3060 H   0  0  0  0  0  0  0  0  0  0  0  0
  -26.2490  -15.6910   19.8680 H   0  0  0  0  0  0  0  0  0  0  0  0
  -28.1770  -25.0670   20.0010 C   0  0  0  0  0  2  0  0  0  0  0  0
  -28.3960  -26.5240   20.1640 O   0  0  0  0  0  0  0  0  0  0  0  0
  -24.6580  -31.8780   23.2180 C   0  0  0  0  0  0  0  0  0  0  0  0
  -27.2720  -27.3630   20.1130 C   0  0  0  0  0  0  0  0  0  0  0  0
  -23.4470  -30.4960   21.5670 C   0  0  0  0  0  3  0  0  0  0  0  0
  -24.8990  -28.9630   20.1220 C   0  0  0  0  0  0  0  0  0  0  0  0
  -25.9860  -30.8200   21.3760 C   0  0  0  0  0  2  0  0  0  0  0  0
  -26.0680  -29.4500   20.7190 C   0  0  0  0  0  0  0  0  0  0  0  0
  -27.2570  -28.6620   20.7070 C   0  0  0  0  0  3  0  0  0  0  0  0
  -26.0770  -26.9280   19.4890 C   0  0  0  0  0  3  0  0  0  0  0  0
  -24.9080  -27.7080   19.4990 C   0  0  0  0  0  3  0  0  0  0  0  0
  -23.6590  -29.8340   20.1800 C   0  0  0  0  0  2  0  0  0  0  0  0
  -24.7160  -31.0820   22.1110 N   0  0  0  0  0  0  0  0  0  0  0  0
  -23.5780  -32.1460   23.7640 O   0  0  0  0  0  0  0  0  0  0  0  0
  -22.7960  -29.4630   22.5190 C   0  0  0  0  0  0  0  0  0  0  0  0
  -21.4690  -29.2830   22.4040 N   0  0  0  0  0  0  0  0  0  0  0  0
  -23.4850  -28.8250   23.3190 O   0  0  0  0  0  0  0  0  0  0  0  0
  -20.9680  -29.8520   21.7330 H   0  0  0  0  0  0  0  0  0  0  0  0
  -18.0990  -28.0890   22.9340 C   0  0  0  0  0  0  0  0  0  0  0  0
  -20.6610  -28.3390   23.1760 C   0  0  0  0  0  3  0  0  0  0  0  0
  -20.7480  -26.9090   22.5870 C   0  0  0  0  0  2  0  0  0  0  0  0
  -19.6360  -26.6030   21.5790 C   0  0  0  0  0  2  0  0  0  0  0  0
  -18.2620  -26.7470   22.2390 C   0  0  0  0  0  2  0  0  0  0  0  0
  -19.2240  -28.8430   23.3600 C   0  0  0  0  0  0  0  0  0  0  0  0
  -19.0130  -30.1010   23.9660 C   0  0  0  0  0  3  0  0  0  0  0  0
  -17.7110  -30.6040   24.1490 C   0  0  0  0  0  3  0  0  0  0  0  0
  -16.6010  -29.8460   23.7390 C   0  0  0  0  0  3  0  0  0  0  0  0
  -16.7950  -28.5890   23.1390 C   0  0  0  0  0  3  0  0  0  0  0  0
  -25.9440  -32.5100   23.8350 C   0  0  0  0  0  3  0  0  0  0  0  0
  -26.4690  -31.7350   25.1060 C   0  0  1  0  0  0  0  0  0  0  0  0
  -25.3790  -31.4940   26.1770 C   0  0  0  0  0  1  0  0  0  0  0  0
  -27.0520  -30.3610   24.7040 C   0  0  0  0  0  1  0  0  0  0  0  0
  -27.6230  -32.5280   25.7660 C   0  0  0  0  0  1  0  0  0  0  0  0
  -25.6360  -33.9060   24.1760 N   0  0  0  0  0  0  0  0  0  0  0  0
  -25.9540  -34.9640   23.4180 C   0  0  0  0  0  0  0  0  0  0  0  0
  -26.6090  -34.8670   22.3760 O   0  0  0  0  0  0  0  0  0  0  0  0
  -25.0600  -34.0540   24.9920 H   0  0  0  0  0  0  0  0  0  0  0  0
  -24.2140  -36.7520   23.0940 C   0  0  0  0  0  1  0  0  0  0  0  0
  -25.4680  -36.3500   23.8890 C   0  0  0  0  0  3  0  0  0  0  0  0
  -27.6090  -37.2370   24.6990 C   0  0  0  0  0  1  0  0  0  0  0  0
  -26.4960  -37.4050   23.7690 N   0  0  0  0  0  0  0  0  0  0  0  0
  -26.0910  -38.3230   23.9300 H   0  0  0  0  0  0  0  0  0  0  0  0
  2  1  1  0
  3  1  1  0
  4 52  1  0
  4  2  1  0
  5  4  1  0
  5  3  1  0
  5  6  1  6
  7 12  1  0
  7  5  1  0
  8 10  1  0
  9 11  2  0
  9 12  1  0
 11 13  1  0
 12  8  2  0
 13 22  1  0
 13 10  2  0
 14 22  1  0
 15 20  1  0
 16 17  1  0
 16 15  1  0
 18 17  1  0
 18 27  1  0
 18 19  1  0
 20 14  1  0
 20 19  1  0
 21 14  2  0
 22 23  1  0
 24 25  2  0
 25 44  1  0
 26 25  1  0
 26 29  1  0
 27 24  1  0
 27 28  1  0
 28 26  2  0
 29 30  1  0
 30 31  2  0
 32 35  1  0
 32 31  1  0
 33 32  2  0
 34 33  1  0
 34 29  2  0
 35 36  1  0
 36 37  1  0
 37 38  2  0
 39 38  1  0
 39 43  1  0
 40 39  2  0
 41 36  2  0
 41 40  1  0
 42 41  1  0
 44 45  1  0
 45 48  1  0
 45 47  1  0
 46 44  2  0
 49 50  1  0
 49 24  1  0
 51 49  1  0
 52 53  1  0
 54 65  2  0
 55 53  1  0
 55 60  1  0
 56 64  1  0
 56 66  1  0
 57 63  1  0
 57 59  1  0
 58 64  1  0
 59 58  1  0
 60 59  2  0
 61 62  1  0
 61 55  2  0
 62 57  2  0
 63 56  1  0
 64 54  1  0
 66 68  2  0
 67 66  1  0
 69 67  1  0
 70 79  2  0
 70 75  1  0
 71 67  1  0
 71 75  1  0
 72 71  1  0
 73 74  1  0
 73 72  1  0
 74 70  1  0
 75 76  2  0
 76 77  1  0
 78 77  2  0
 79 78  1  0
 80 54  1  0
 80 85  1  0
 80 81  1  0
 81 84  1  1
 81 82  1  0
 83 81  1  0
 85 88  1  0
 86 90  1  0
 86 85  1  0
 87 86  2  0
 90 89  1  0
 92 90  1  0
 92 93  1  0
 92 91  1  0
M  ISO  4  14 100  22 100  52 101  53 101
M  END
>  <TORSDO>  (56) 
F 19

>  <SCORE>  (56) 
-14.020

>  <name>  (56) 
55

>  <ligand_id>  (56) 
55

>  <original_smiles>  (56) 
[H]c1c([H])c([H])c2c(c1[H])C([H])([H])C([H])([H])C([H])([H])C2([H])N([H])C(=O)C1([H])N(C(=O)C([H])(N([H])C(=O)C([H])(N([H])C([H])([H])[H])C([H])([H])[H])C(C([H])([H])[H])(C([H])([H])[H])C([H])([H])[H])C([H])([H])c2c([H])c(OC([H])([H])C3([H])C([H])([H])C([H])([H])C([H])([H])[N+]3([H])C([H])([H])c3c([H])c([H])c(N([H])C(=O)N4C([H])([H])C([H])([H])C([H])([H])C([H])(n5nc(-c6c([H])c([H])c(Oc7c([H])c([H])c(F)c([H])c7F)c([H])c6[H])c(C(=O)N([H])[H])c5N([H])[H])C4([H])[H])c([H])c3[H])c([H])c([H])c2C1([H])[H]

>  <smiles>  (56) 
[H]c1c([H])c([H])c2c(c1[H])C([H])([H])C([H])([H])C([H])([H])C2([H])N([H])C(=O)C1([H])N(C(=O)C([H])(N([H])C(=O)C([H])(N([H])C([H])([H])[H])C([H])([H])[H])C(C([H])([H])[H])(C([H])([H])[H])C([H])([H])[H])C([H])([H])c2c([H])c(OC([H])([H])C3([H])C([H])([H])C([H])([H])C([H])([H])[N+]3([H])C([H])([H])c3c([H])c([H])c(N([H])C(=O)N4C([H])([H])C([H])([H])C([H])([H])C([H])(n5nc(-c6c([H])c([H])c(Oc7c([H])c([H])c(F)c([H])c7F)c([H])c6[H])c(C(=O)N([H])[H])c5N([H])[H])C4([H])[H])c([H])c3[H])c([H])c([H])c2C1([H])[H]

$$$$
57:0:0
     RDKit          3D

 91100  0  0  1  0  0  0  0  0999 V2000
  -30.4280  -23.7960   20.2820 C   0  0  0  0  0  2  0  0  0  0  0  0
  -30.8330  -22.3350   19.9730 C   0  0  0  0  0  2  0  0  0  0  0  0
  -28.4760  -22.4210   20.3650 C   0  0  0  0  0  2  0  0  0  0  0  0
  -28.9270  -23.8850   19.9630 C   0  0  0  0  0  3  0  0  0  0  0  0
  -29.6440  -21.5180   20.2010 N   0  0  0  0  0  0  0  0  0  0  0  0
  -30.8870  -19.3440   19.9990 C   0  0  0  0  0  3  0  0  0  0  0  0
  -28.5890  -19.2900   20.6910 C   0  0  0  0  0  3  0  0  0  0  0  0
  -30.9640  -17.9200   20.0750 C   0  0  0  0  0  3  0  0  0  0  0  0
  -28.6660  -17.8650   20.7740 C   0  0  0  0  0  3  0  0  0  0  0  0
  -29.6990  -20.0790   20.2950 C   0  0  0  0  0  0  0  0  0  0  0  0
  -29.8460  -17.1340   20.4610 C   0  0  0  0  0  0  0  0  0  0  0  0
  -30.6090  -14.6650   20.0700 C   0  0  0  0  0  0  0  0  0  0  0  0
  -30.3600  -12.4660   18.9330 C   0  0  0  0  0  2  0  0  0  0  0  0
  -29.3530  -12.6430   17.7740 C   0  0  0  0  0  2  0  0  0  0  0  0
  -27.9020  -12.4700   18.2690 C   0  0  0  0  0  2  0  0  0  0  0  0
  -27.6120  -13.2830   19.5590 C   0  0  0  0  0  3  0  0  0  0  0  0
  -28.7240  -13.0700   20.6130 C   0  0  0  0  0  2  0  0  0  0  0  0
  -30.0050  -13.4360   19.9870 N   0  0  0  0  0  0  0  0  0  0  0  0
  -31.7360  -14.8590   19.6030 O   0  0  0  0  0  0  0  0  0  0  0  0
  -29.8180  -15.6730   20.5650 N   0  0  0  0  0  0  0  0  0  0  0  0
  -28.9630  -15.3070   20.9520 H   0  0  0  0  0  0  0  0  0  0  0  0
  -25.2510  -13.8670   20.3850 C   0  0  0  0  0  0  0  0  0  0  0  0
  -24.2030  -13.0880   20.7970 C   0  0  0  0  0  0  0  0  0  0  0  0
  -24.6670  -11.7390   20.7330 C   0  0  0  0  0  0  0  0  0  0  0  0
  -26.2860  -12.9910   20.0970 N   0  0  0  0  0  0  0  0  0  0  0  0
  -25.9410  -11.7060   20.3630 N   0  0  0  0  0  0  0  0  0  0  0  0
  -23.9540  -10.4730   20.9450 C   0  0  0  0  0  0  0  0  0  0  0  0
  -24.4160   -9.5120   21.8720 C   0  0  0  0  0  3  0  0  0  0  0  0
  -23.7050   -8.3090   22.0720 C   0  0  0  0  0  3  0  0  0  0  0  0
  -22.5180   -8.0580   21.3440 C   0  0  0  0  0  0  0  0  0  0  0  0
  -22.0740   -9.0070   20.4070 C   0  0  0  0  0  3  0  0  0  0  0  0
  -22.7850  -10.2010   20.2060 C   0  0  0  0  0  3  0  0  0  0  0  0
  -21.7750   -6.9070   21.4550 O   0  0  0  0  0  0  0  0  0  0  0  0
  -21.7350   -6.1850   22.6210 C   0  0  0  0  0  0  0  0  0  0  0  0
  -21.3060   -6.7580   23.8380 C   0  0  0  0  0  3  0  0  0  0  0  0
  -21.2150   -5.9610   24.9970 C   0  0  0  0  0  3  0  0  0  0  0  0
  -21.5420   -4.5930   24.9400 C   0  0  0  0  0  0  0  0  0  0  0  0
  -21.9630   -4.0200   23.7270 C   0  0  0  0  0  3  0  0  0  0  0  0
  -22.0580   -4.8140   22.5710 C   0  0  0  0  0  0  0  0  0  0  0  0
  -22.4440   -4.2520   21.4010 F   0  0  0  0  0  0  0  0  0  0  0  0
  -21.4470   -3.8250   26.0510 F   0  0  0  0  0  0  0  0  0  0  0  0
  -22.8190  -13.5590   21.1400 C   0  0  0  0  0  0  0  0  0  0  0  0
  -22.1340  -12.8530   22.0320 N   0  0  0  0  0  0  0  0  0  0  0  0
  -22.3540  -14.5860   20.6500 O   0  0  0  0  0  0  0  0  0  0  0  0
  -22.5230  -12.0220   22.4520 H   0  0  0  0  0  0  0  0  0  0  0  0
  -21.2080  -13.1510   22.3040 H   0  0  0  0  0  0  0  0  0  0  0  0
  -25.4040  -15.2400   20.2130 N   0  0  0  0  0  0  0  0  0  0  0  0
  -24.6370  -15.8890   20.3500 H   0  0  0  0  0  0  0  0  0  0  0  0
  -26.2240  -15.6750   19.8110 H   0  0  0  0  0  0  0  0  0  0  0  0
  -28.1480  -25.1170   20.6120 C   0  0  0  0  0  2  0  0  0  0  0  0
  -28.3620  -26.5010   20.1260 O   0  0  0  0  0  0  0  0  0  0  0  0
  -24.6250  -31.8720   23.1810 C   0  0  0  0  0  0  0  0  0  0  0  0
  -27.2460  -27.3490   20.1020 C   0  0  0  0  0  0  0  0  0  0  0  0
  -23.4200  -30.4840   21.5310 C   0  0  0  0  0  3  0  0  0  0  0  0
  -24.8770  -28.9430   20.0960 C   0  0  0  0  0  0  0  0  0  0  0  0
  -25.9580  -30.8100   21.3480 C   0  0  0  0  0  2  0  0  0  0  0  0
  -26.0430  -29.4350   20.6950 C   0  0  0  0  0  0  0  0  0  0  0  0
  -27.2330  -28.6500   20.6890 C   0  0  0  0  0  3  0  0  0  0  0  0
  -26.0640  -26.9090   19.4700 C   0  0  0  0  0  3  0  0  0  0  0  0
  -24.8880  -27.6830   19.4720 C   0  0  0  0  0  3  0  0  0  0  0  0
  -23.6360  -29.8120   20.1480 C   0  0  0  0  0  2  0  0  0  0  0  0
  -24.6860  -31.0730   22.0770 N   0  0  0  0  0  0  0  0  0  0  0  0
  -23.5430  -32.1460   23.7190 O   0  0  0  0  0  0  0  0  0  0  0  0
  -22.7600  -29.4610   22.4850 C   0  0  0  0  0  0  0  0  0  0  0  0
  -21.4320  -29.2980   22.3710 N   0  0  0  0  0  0  0  0  0  0  0  0
  -23.4430  -28.8150   23.2860 O   0  0  0  0  0  0  0  0  0  0  0  0
  -20.9430  -29.8640   21.6920 H   0  0  0  0  0  0  0  0  0  0  0  0
  -18.0460  -28.1420   22.9090 C   0  0  0  0  0  0  0  0  0  0  0  0
  -20.6120  -28.3600   23.1390 C   0  0  0  0  0  3  0  0  0  0  0  0
  -20.6830  -26.9380   22.5370 C   0  0  0  0  0  2  0  0  0  0  0  0
  -19.5610  -26.6480   21.5360 C   0  0  0  0  0  2  0  0  0  0  0  0
  -18.1910  -26.8030   22.2050 C   0  0  0  0  0  2  0  0  0  0  0  0
  -19.1830  -28.8800   23.3320 C   0  0  0  0  0  0  0  0  0  0  0  0
  -18.9940  -30.1350   23.9500 C   0  0  0  0  0  3  0  0  0  0  0  0
  -17.7010  -30.6530   24.1450 C   0  0  0  0  0  3  0  0  0  0  0  0
  -16.5780  -29.9140   23.7360 C   0  0  0  0  0  3  0  0  0  0  0  0
  -16.7510  -28.6590   23.1270 C   0  0  0  0  0  3  0  0  0  0  0  0
  -25.9090  -32.5000   23.8050 C   0  0  0  0  0  3  0  0  0  0  0  0
  -25.5970  -33.8940   24.1530 N   0  0  0  0  0  0  0  0  0  0  0  0
  -25.9220  -34.9560   23.4030 C   0  0  0  0  0  0  0  0  0  0  0  0
  -26.5870  -34.8670   22.3680 O   0  0  0  0  0  0  0  0  0  0  0  0
  -25.0070  -34.0360   24.9600 H   0  0  0  0  0  0  0  0  0  0  0  0
  -24.1860  -36.7480   23.0730 C   0  0  0  0  0  1  0  0  0  0  0  0
  -25.4300  -36.3370   23.8770 C   0  0  0  0  0  3  0  0  0  0  0  0
  -27.5670  -37.2190   24.7100 C   0  0  0  0  0  1  0  0  0  0  0  0
  -26.4600  -37.3960   23.7740 N   0  0  0  0  0  0  0  0  0  0  0  0
  -26.0510  -38.3130   23.9350 H   0  0  0  0  0  0  0  0  0  0  0  0
  -26.4320  -31.7150   25.0710 C   0  0  1  0  0  0  0  0  0  0  0  0
  -25.3430  -31.4620   26.1390 C   0  0  0  0  0  1  0  0  0  0  0  0
  -27.0170  -30.3430   24.6640 C   0  0  0  0  0  1  0  0  0  0  0  0
  -27.5860  -32.5030   25.7350 C   0  0  0  0  0  1  0  0  0  0  0  0
  2  5  1  0
  2  1  1  0
  4  1  1  0
  4  3  1  0
  4 50  1  0
  5 10  1  0
  5  3  1  0
  6  8  2  0
  6 10  1  0
  7  9  1  0
  8 11  1  0
 10  7  2  0
 11 20  1  0
 11  9  2  0
 12 20  1  0
 13 18  1  0
 14 15  1  0
 14 13  1  0
 16 15  1  0
 16 25  1  0
 16 17  1  0
 18 12  1  0
 18 17  1  0
 19 12  2  0
 20 21  1  0
 22 23  2  0
 23 42  1  0
 24 23  1  0
 24 27  1  0
 25 26  1  0
 25 22  1  0
 26 24  2  0
 27 28  1  0
 28 29  2  0
 30 33  1  0
 30 29  1  0
 31 30  2  0
 32 31  1  0
 32 27  2  0
 33 34  1  0
 34 35  1  0
 35 36  2  0
 37 36  1  0
 37 41  1  0
 38 37  2  0
 39 34  2  0
 39 38  1  0
 40 39  1  0
 42 43  1  0
 43 46  1  0
 43 45  1  0
 44 42  2  0
 47 48  1  0
 47 22  1  0
 49 47  1  0
 51 50  1  0
 52 63  2  0
 53 51  1  0
 53 58  1  0
 54 62  1  0
 54 64  1  0
 55 61  1  0
 55 57  1  0
 56 62  1  0
 57 56  1  0
 58 57  2  0
 59 60  1  0
 59 53  2  0
 60 55  2  0
 61 54  1  0
 62 52  1  0
 64 66  2  0
 65 64  1  0
 67 65  1  0
 68 77  2  0
 68 73  1  0
 69 65  1  0
 69 73  1  0
 70 69  1  0
 71 72  1  0
 71 70  1  0
 72 68  1  0
 73 74  2  0
 74 75  1  0
 76 75  2  0
 77 76  1  0
 78 52  1  0
 78 79  1  0
 78 88  1  0
 79 82  1  0
 80 84  1  0
 80 79  1  0
 81 80  2  0
 84 83  1  0
 86 84  1  0
 86 87  1  0
 86 85  1  0
 88 91  1  1
 88 89  1  0
 90 88  1  0
M  ISO  4  12 100  20 100  50 101  51 101
M  END
>  <TORSDO>  (57) 
F 18

>  <SCORE>  (57) 
-14.432

>  <name>  (57) 
57

>  <ligand_id>  (57) 
57

>  <original_smiles>  (57) 
[H]c1c([H])c([H])c2c(c1[H])C([H])([H])C([H])([H])C([H])([H])C2([H])N([H])C(=O)C1([H])N(C(=O)C([H])(N([H])C(=O)C([H])(N([H])C([H])([H])[H])C([H])([H])[H])C(C([H])([H])[H])(C([H])([H])[H])C([H])([H])[H])C([H])([H])c2c([H])c(OC([H])([H])C3([H])C([H])([H])N(c4c([H])c([H])c(N([H])C(=O)N5C([H])([H])C([H])([H])C([H])([H])C([H])(n6nc(-c7c([H])c([H])c(Oc8c([H])c([H])c(F)c([H])c8F)c([H])c7[H])c(C(=O)N([H])[H])c6N([H])[H])C5([H])[H])c([H])c4[H])C([H])([H])C3([H])[H])c([H])c([H])c2C1([H])[H]

>  <smiles>  (57) 
[H]c1c([H])c([H])c2c(c1[H])C([H])([H])C([H])([H])C([H])([H])C2([H])N([H])C(=O)C1([H])N(C(=O)C([H])(N([H])C(=O)C([H])(N([H])C([H])([H])[H])C([H])([H])[H])C(C([H])([H])[H])(C([H])([H])[H])C([H])([H])[H])C([H])([H])c2c([H])c(OC([H])([H])C3([H])C([H])([H])N(c4c([H])c([H])c(N([H])C(=O)N5C([H])([H])C([H])([H])C([H])([H])C([H])(n6nc(-c7c([H])c([H])c(Oc8c([H])c([H])c(F)c([H])c8F)c([H])c7[H])c(C(=O)N([H])[H])c6N([H])[H])C5([H])[H])c([H])c4[H])C([H])([H])C3([H])[H])c([H])c([H])c2C1([H])[H]

$$$$
58:0:0
     RDKit          3D

 93101  0  0  1  0  0  0  0  0999 V2000
  -25.9220  -23.2830   19.7740 C   0  0  0  0  0  1  0  0  0  0  0  0
  -27.2630  -22.6550   19.7100 N   0  0  2  0  0  4  0  0  0  0  0  0
  -27.1510  -21.9730   18.9730 H   0  0  0  0  0  0  0  0  0  0  0  0
  -27.5710  -21.8590   20.9270 C   0  0  0  0  0  2  0  0  0  0  0  0
  -28.2600  -18.1500   20.1830 C   0  0  0  0  0  3  0  0  0  0  0  0
  -30.1720  -19.0780   21.3580 C   0  0  0  0  0  3  0  0  0  0  0  0
  -27.6860  -19.4380   20.0960 C   0  0  0  0  0  3  0  0  0  0  0  0
  -29.6070  -20.3670   21.2640 C   0  0  0  0  0  3  0  0  0  0  0  0
  -29.4750  -17.9490   20.8790 C   0  0  0  0  0  0  0  0  0  0  0  0
  -28.3240  -20.5480   20.6990 C   0  0  0  0  0  0  0  0  0  0  0  0
  -29.9880  -16.5370   21.1870 C   0  0  0  0  0  2  0  0  0  0  0  0
  -31.0610  -14.6530   20.0010 C   0  0  0  0  0  0  0  0  0  0  0  0
  -30.6720  -12.4790   18.9390 C   0  0  0  0  0  2  0  0  0  0  0  0
  -29.6860  -12.7050   17.7730 C   0  0  0  0  0  2  0  0  0  0  0  0
  -28.2250  -12.6090   18.2660 C   0  0  0  0  0  2  0  0  0  0  0  0
  -27.9620  -13.4630   19.5360 C   0  0  0  0  0  3  0  0  0  0  0  0
  -29.0640  -13.2250   20.5940 C   0  0  0  0  0  2  0  0  0  0  0  0
  -30.3610  -13.4900   19.9570 N   0  0  0  0  0  0  0  0  0  0  0  0
  -32.2200  -14.7570   19.5990 O   0  0  0  0  0  0  0  0  0  0  0  0
  -30.3080  -15.7660   19.9940 N   0  0  0  0  0  0  0  0  0  0  0  0
  -30.6560  -16.3970   19.2910 H   0  0  0  0  0  0  0  0  0  0  0  0
  -25.6190  -14.1220   20.3790 C   0  0  0  0  0  0  0  0  0  0  0  0
  -24.5470  -13.3740   20.7870 C   0  0  0  0  0  0  0  0  0  0  0  0
  -24.9660  -12.0120   20.7110 C   0  0  0  0  0  0  0  0  0  0  0  0
  -26.6260  -13.2170   20.0830 N   0  0  0  0  0  0  0  0  0  0  0  0
  -26.2400  -11.9400   20.3410 N   0  0  0  0  0  0  0  0  0  0  0  0
  -24.2130  -10.7670   20.9120 C   0  0  0  0  0  0  0  0  0  0  0  0
  -24.6370   -9.7860   21.8340 C   0  0  0  0  0  3  0  0  0  0  0  0
  -23.8830   -8.6080   22.0210 C   0  0  0  0  0  3  0  0  0  0  0  0
  -22.6910   -8.4020   21.2900 C   0  0  0  0  0  0  0  0  0  0  0  0
  -22.2860   -9.3720   20.3570 C   0  0  0  0  0  3  0  0  0  0  0  0
  -23.0400  -10.5420   20.1650 C   0  0  0  0  0  3  0  0  0  0  0  0
  -21.9090   -7.2760   21.3910 O   0  0  0  0  0  0  0  0  0  0  0  0
  -21.8310   -6.5540   22.5560 C   0  0  0  0  0  0  0  0  0  0  0  0
  -21.4340   -7.1440   23.7760 C   0  0  0  0  0  3  0  0  0  0  0  0
  -21.3060   -6.3510   24.9340 C   0  0  0  0  0  3  0  0  0  0  0  0
  -21.5620   -4.9690   24.8720 C   0  0  0  0  0  0  0  0  0  0  0  0
  -21.9520   -4.3780   23.6580 C   0  0  0  0  0  3  0  0  0  0  0  0
  -22.0870   -5.1690   22.5030 C   0  0  0  0  0  0  0  0  0  0  0  0
  -22.4430   -4.5900   21.3310 F   0  0  0  0  0  0  0  0  0  0  0  0
  -21.4300   -4.2050   25.9810 F   0  0  0  0  0  0  0  0  0  0  0  0
  -23.1780  -13.8860   21.1280 C   0  0  0  0  0  0  0  0  0  0  0  0
  -22.4710  -13.2060   22.0240 N   0  0  0  0  0  0  0  0  0  0  0  0
  -22.7440  -14.9270   20.6320 O   0  0  0  0  0  0  0  0  0  0  0  0
  -22.8310  -12.3680   22.4510 H   0  0  0  0  0  0  0  0  0  0  0  0
  -21.5530  -13.5340   22.2910 H   0  0  0  0  0  0  0  0  0  0  0  0
  -25.8140  -15.4900   20.2150 N   0  0  0  0  0  0  0  0  0  0  0  0
  -25.0710  -16.1640   20.3670 H   0  0  0  0  0  0  0  0  0  0  0  0
  -26.6720  -15.9000   19.8700 H   0  0  0  0  0  0  0  0  0  0  0  0
  -28.3380  -23.5570   19.1870 C   0  0  0  0  0  2  0  0  0  0  0  0
  -29.1010  -24.4800   20.1870 C   0  0  0  0  0  2  0  0  0  0  0  0
  -28.3930  -25.7370   20.7490 C   0  0  0  0  0  2  0  0  0  0  0  0
  -28.4140  -26.8410   19.8370 O   0  0  0  0  0  0  0  0  0  0  0  0
  -24.6970  -31.9290   23.1670 C   0  0  0  0  0  0  0  0  0  0  0  0
  -27.2720  -27.6020   19.8850 C   0  0  0  0  0  0  0  0  0  0  0  0
  -23.4560  -30.5710   21.5130 C   0  0  0  0  0  3  0  0  0  0  0  0
  -24.8790  -29.0850   20.0060 C   0  0  0  0  0  0  0  0  0  0  0  0
  -25.9760  -30.9450   21.2700 C   0  0  0  0  0  2  0  0  0  0  0  0
  -26.0490  -29.5960   20.5850 C   0  0  0  0  0  0  0  0  0  0  0  0
  -27.2530  -28.8590   20.5270 C   0  0  0  0  0  3  0  0  0  0  0  0
  -26.0960  -27.1120   19.2880 C   0  0  0  0  0  3  0  0  0  0  0  0
  -24.8960  -27.8440   19.3500 C   0  0  0  0  0  3  0  0  0  0  0  0
  -23.6340  -29.9360   20.1080 C   0  0  0  0  0  2  0  0  0  0  0  0
  -24.7280  -31.1600   22.0420 N   0  0  0  0  0  0  0  0  0  0  0  0
  -23.6280  -32.1890   23.7380 O   0  0  0  0  0  0  0  0  0  0  0  0
  -22.8300  -29.5190   22.4570 C   0  0  0  0  0  0  0  0  0  0  0  0
  -21.5020  -29.3430   22.3640 N   0  0  0  0  0  0  0  0  0  0  0  0
  -23.5360  -28.8650   23.2300 O   0  0  0  0  0  0  0  0  0  0  0  0
  -20.9860  -29.9350   21.7320 H   0  0  0  0  0  0  0  0  0  0  0  0
  -18.1500  -28.0980   22.8550 C   0  0  0  0  0  0  0  0  0  0  0  0
  -20.7110  -28.3730   23.1240 C   0  0  0  0  0  3  0  0  0  0  0  0
  -20.8190  -26.9570   22.5080 C   0  0  0  0  0  2  0  0  0  0  0  0
  -19.7220  -26.6720   21.4820 C   0  0  0  0  0  2  0  0  0  0  0  0
  -18.3340  -26.7850   22.1210 C   0  0  0  0  0  2  0  0  0  0  0  0
  -19.2650  -28.8560   23.3030 C   0  0  0  0  0  0  0  0  0  0  0  0
  -19.0380  -30.0950   23.9320 C   0  0  0  0  0  3  0  0  0  0  0  0
  -17.7350  -30.5830   24.1230 C   0  0  0  0  0  3  0  0  0  0  0  0
  -16.6310  -29.8240   23.6920 C   0  0  0  0  0  3  0  0  0  0  0  0
  -16.8380  -28.5820   23.0630 C   0  0  0  0  0  3  0  0  0  0  0  0
  -25.9990  -32.5460   23.7700 C   0  0  0  0  0  3  0  0  0  0  0  0
  -25.7020  -33.9370   24.1420 N   0  0  0  0  0  0  0  0  0  0  0  0
  -26.0140  -35.0050   23.3960 C   0  0  0  0  0  0  0  0  0  0  0  0
  -26.6580  -34.9230   22.3470 O   0  0  0  0  0  0  0  0  0  0  0  0
  -25.1290  -34.0730   24.9620 H   0  0  0  0  0  0  0  0  0  0  0  0
  -24.2790  -36.8010   23.1180 C   0  0  0  0  0  1  0  0  0  0  0  0
  -25.5360  -36.3810   23.8940 C   0  0  0  0  0  3  0  0  0  0  0  0
  -27.6900  -37.2450   24.6980 C   0  0  0  0  0  1  0  0  0  0  0  0
  -26.5660  -37.4350   23.7850 N   0  0  0  0  0  0  0  0  0  0  0  0
  -26.1630  -38.3500   23.9620 H   0  0  0  0  0  0  0  0  0  0  0  0
  -26.5460  -31.7430   25.0130 C   0  0  1  0  0  0  0  0  0  0  0  0
  -25.4790  -31.4850   26.1030 C   0  0  0  0  0  1  0  0  0  0  0  0
  -27.1200  -30.3750   24.5730 C   0  0  0  0  0  1  0  0  0  0  0  0
  -27.7170  -32.5200   25.6620 C   0  0  0  0  0  1  0  0  0  0  0  0
  2  1  1  0
  2  4  1  0
  2  3  1  6
  5  9  1  0
  7  5  2  0
  7 10  1  0
  8  6  1  0
  9 11  1  0
  9  6  2  0
 10  4  1  0
 10  8  2  0
 13 18  1  0
 14 15  1  0
 14 13  1  0
 16 15  1  0
 16 25  1  0
 16 17  1  0
 18 12  1  0
 18 17  1  0
 19 12  2  0
 20 12  1  0
 20 11  1  0
 21 20  1  0
 22 23  2  0
 23 42  1  0
 24 23  1  0
 24 27  1  0
 25 26  1  0
 25 22  1  0
 26 24  2  0
 27 28  1  0
 28 29  2  0
 30 33  1  0
 30 29  1  0
 31 30  2  0
 32 31  1  0
 32 27  2  0
 33 34  1  0
 34 35  1  0
 35 36  2  0
 37 36  1  0
 37 41  1  0
 38 37  2  0
 39 34  2  0
 39 38  1  0
 40 39  1  0
 42 43  1  0
 43 46  1  0
 43 45  1  0
 44 42  2  0
 47 48  1  0
 47 22  1  0
 49 47  1  0
 50  2  1  0
 50 51  1  0
 51 52  1  0
 53 55  1  0
 53 52  1  0
 54 65  2  0
 55 60  1  0
 56 64  1  0
 56 66  1  0
 57 63  1  0
 57 59  1  0
 58 64  1  0
 59 58  1  0
 60 59  2  0
 61 62  1  0
 61 55  2  0
 62 57  2  0
 63 56  1  0
 64 54  1  0
 66 68  2  0
 67 66  1  0
 69 67  1  0
 70 79  2  0
 70 75  1  0
 71 67  1  0
 71 75  1  0
 72 71  1  0
 73 74  1  0
 73 72  1  0
 74 70  1  0
 75 76  2  0
 76 77  1  0
 78 77  2  0
 79 78  1  0
 80 54  1  0
 80 81  1  0
 80 90  1  0
 81 84  1  0
 82 86  1  0
 82 81  1  0
 83 82  2  0
 86 85  1  0
 88 86  1  0
 88 89  1  0
 88 87  1  0
 90 93  1  1
 90 91  1  0
 92 90  1  0
M  ISO  4  12 100  20 100  52 101  53 101
M  END
>  <TORSDO>  (58) 
F 22

>  <SCORE>  (58) 
-12.668

>  <name>  (58) 
58

>  <ligand_id>  (58) 
58

>  <original_smiles>  (58) 
[H]c1c([H])c([H])c2c(c1[H])C([H])([H])C([H])([H])C([H])([H])C2([H])N([H])C(=O)C1([H])N(C(=O)C([H])(N([H])C(=O)C([H])(N([H])C([H])([H])[H])C([H])([H])[H])C(C([H])([H])[H])(C([H])([H])[H])C([H])([H])[H])C([H])([H])c2c([H])c(OC([H])([H])C([H])([H])C([H])([H])[N+]([H])(C([H])([H])[H])C([H])([H])c3c([H])c([H])c(C([H])([H])N([H])C(=O)N4C([H])([H])C([H])([H])C([H])([H])C([H])(n5nc(-c6c([H])c([H])c(Oc7c([H])c([H])c(F)c([H])c7F)c([H])c6[H])c(C(=O)N([H])[H])c5N([H])[H])C4([H])[H])c([H])c3[H])c([H])c([H])c2C1([H])[H]

>  <smiles>  (58) 
[H]c1c([H])c([H])c2c(c1[H])C([H])([H])C([H])([H])C([H])([H])C2([H])N([H])C(=O)C1([H])N(C(=O)C([H])(N([H])C(=O)C([H])(N([H])C([H])([H])[H])C([H])([H])[H])C(C([H])([H])[H])(C([H])([H])[H])C([H])([H])[H])C([H])([H])c2c([H])c(OC([H])([H])C([H])([H])C([H])([H])[N+]([H])(C([H])([H])[H])C([H])([H])c3c([H])c([H])c(C([H])([H])N([H])C(=O)N4C([H])([H])C([H])([H])C([H])([H])C([H])(n5nc(-c6c([H])c([H])c(Oc7c([H])c([H])c(F)c([H])c7F)c([H])c6[H])c(C(=O)N([H])[H])c5N([H])[H])C4([H])[H])c([H])c3[H])c([H])c([H])c2C1([H])[H]

$$$$
59:0:0
     RDKit          3D

 91 99  0  0  1  0  0  0  0  0999 V2000
  -28.1370  -22.3490   22.5800 C   0  0  0  0  0  1  0  0  0  0  0  0
  -29.0540  -22.2430   21.4440 N   0  0  0  0  0  0  0  0  0  0  0  0
  -30.6790  -18.9020   21.9470 C   0  0  0  0  0  3  0  0  0  0  0  0
  -29.8280  -18.9990   19.6790 C   0  0  0  0  0  3  0  0  0  0  0  0
  -30.1830  -20.2010   22.1870 C   0  0  0  0  0  3  0  0  0  0  0  0
  -29.3550  -20.3090   19.9130 C   0  0  0  0  0  3  0  0  0  0  0  0
  -30.4990  -18.2780   20.6950 C   0  0  0  0  0  0  0  0  0  0  0  0
  -29.5190  -20.9340   21.1740 C   0  0  0  0  0  0  0  0  0  0  0  0
  -31.1680  -16.9330   20.3840 C   0  0  0  0  0  2  0  0  0  0  0  0
  -30.8420  -14.5460   19.9580 C   0  0  0  0  0  0  0  0  0  0  0  0
  -30.3640  -12.3860   18.8480 C   0  0  0  0  0  2  0  0  0  0  0  0
  -29.3640  -12.5690   17.6880 C   0  0  0  0  0  2  0  0  0  0  0  0
  -27.9250  -12.3920   18.2000 C   0  0  0  0  0  2  0  0  0  0  0  0
  -27.6530  -13.2570   19.4570 C   0  0  0  0  0  3  0  0  0  0  0  0
  -28.7720  -13.0880   20.5060 C   0  0  0  0  0  2  0  0  0  0  0  0
  -30.0690  -13.4120   19.8750 N   0  0  0  0  0  0  0  0  0  0  0  0
  -31.8670  -14.6330   19.2680 O   0  0  0  0  0  0  0  0  0  0  0  0
  -29.8750  -15.5920   22.0130 C   0  0  0  0  0  1  0  0  0  0  0  0
  -30.4420  -15.6540   20.6600 N   0  0  0  0  0  0  0  0  0  0  0  0
  -25.3240  -13.8590   20.3650 C   0  0  0  0  0  0  0  0  0  0  0  0
  -24.2840  -13.0830   20.7990 C   0  0  0  0  0  0  0  0  0  0  0  0
  -24.7340  -11.7310   20.7070 C   0  0  0  0  0  0  0  0  0  0  0  0
  -26.3400  -12.9770   20.0310 N   0  0  0  0  0  0  0  0  0  0  0  0
  -25.9950  -11.6910   20.2940 N   0  0  0  0  0  0  0  0  0  0  0  0
  -24.0200  -10.4680   20.9300 C   0  0  0  0  0  0  0  0  0  0  0  0
  -24.4760   -9.5190   21.8700 C   0  0  0  0  0  3  0  0  0  0  0  0
  -23.7610   -8.3220   22.0820 C   0  0  0  0  0  3  0  0  0  0  0  0
  -22.5760   -8.0650   21.3530 C   0  0  0  0  0  0  0  0  0  0  0  0
  -22.1380   -9.0050   20.4030 C   0  0  0  0  0  3  0  0  0  0  0  0
  -22.8530  -10.1940   20.1910 C   0  0  0  0  0  3  0  0  0  0  0  0
  -21.8320   -6.9150   21.4700 O   0  0  0  0  0  0  0  0  0  0  0  0
  -21.7440   -6.2320   22.6560 C   0  0  0  0  0  0  0  0  0  0  0  0
  -21.2720   -6.8450   23.8380 C   0  0  0  0  0  3  0  0  0  0  0  0
  -21.1330   -6.0870   25.0160 C   0  0  0  0  0  3  0  0  0  0  0  0
  -21.4570   -4.7180   25.0170 C   0  0  0  0  0  0  0  0  0  0  0  0
  -21.9230   -4.1040   23.8400 C   0  0  0  0  0  3  0  0  0  0  0  0
  -22.0640   -4.8600   22.6640 C   0  0  0  0  0  0  0  0  0  0  0  0
  -22.4940   -4.2590   21.5270 F   0  0  0  0  0  0  0  0  0  0  0  0
  -21.3160   -3.9870   26.1470 F   0  0  0  0  0  0  0  0  0  0  0  0
  -22.9170  -13.5640   21.1920 C   0  0  0  0  0  0  0  0  0  0  0  0
  -22.2650  -12.8700   22.1190 N   0  0  0  0  0  0  0  0  0  0  0  0
  -22.4370  -14.5890   20.7100 O   0  0  0  0  0  0  0  0  0  0  0  0
  -22.6650  -12.0410   22.5300 H   0  0  0  0  0  0  0  0  0  0  0  0
  -21.3520  -13.1760   22.4220 H   0  0  0  0  0  0  0  0  0  0  0  0
  -25.4800  -15.2320   20.2090 N   0  0  0  0  0  0  0  0  0  0  0  0
  -24.7280  -15.8830   20.4090 H   0  0  0  0  0  0  0  0  0  0  0  0
  -26.3240  -15.6890   19.8850 H   0  0  0  0  0  0  0  0  0  0  0  0
  -28.9170  -23.1870   20.3270 C   0  0  0  0  0  2  0  0  0  0  0  0
  -28.7330  -24.6650   20.7560 C   0  0  0  0  0  2  0  0  0  0  0  0
  -28.6730  -25.6020   19.5350 C   0  0  0  0  0  2  0  0  0  0  0  0
  -28.5220  -26.9680   19.9240 O   0  0  0  0  0  0  0  0  0  0  0  0
  -24.6430  -31.9220   23.1970 C   0  0  0  0  0  0  0  0  0  0  0  0
  -27.2880  -27.5890   19.9660 C   0  0  0  0  0  0  0  0  0  0  0  0
  -23.4100  -30.5260   21.5620 C   0  0  0  0  0  3  0  0  0  0  0  0
  -24.8530  -29.0380   20.0760 C   0  0  0  0  0  0  0  0  0  0  0  0
  -25.9230  -30.9390   21.3000 C   0  0  0  0  0  2  0  0  0  0  0  0
  -26.0160  -29.5800   20.6330 C   0  0  0  0  0  0  0  0  0  0  0  0
  -27.2310  -28.8660   20.5710 C   0  0  0  0  0  3  0  0  0  0  0  0
  -26.0990  -27.0480   19.4210 C   0  0  0  0  0  3  0  0  0  0  0  0
  -24.8890  -27.7710   19.4700 C   0  0  0  0  0  3  0  0  0  0  0  0
  -23.5950  -29.8710   20.1650 C   0  0  0  0  0  2  0  0  0  0  0  0
  -24.6770  -31.1470   22.0760 N   0  0  0  0  0  0  0  0  0  0  0  0
  -23.5730  -32.1610   23.7750 O   0  0  0  0  0  0  0  0  0  0  0  0
  -22.8050  -29.4770   22.5230 C   0  0  0  0  0  0  0  0  0  0  0  0
  -21.4880  -29.2440   22.4020 N   0  0  0  0  0  0  0  0  0  0  0  0
  -23.5150  -28.8730   23.3320 O   0  0  0  0  0  0  0  0  0  0  0  0
  -20.9740  -29.7750   21.7130 H   0  0  0  0  0  0  0  0  0  0  0  0
  -18.1710  -27.8950   22.8690 C   0  0  0  0  0  0  0  0  0  0  0  0
  -20.7090  -28.2750   23.1730 C   0  0  0  0  0  3  0  0  0  0  0  0
  -20.8890  -26.8480   22.6060 C   0  0  0  0  0  2  0  0  0  0  0  0
  -19.8190  -26.4650   21.5810 C   0  0  0  0  0  2  0  0  0  0  0  0
  -18.4240  -26.5500   22.2070 C   0  0  0  0  0  2  0  0  0  0  0  0
  -19.2450  -28.7120   23.3060 C   0  0  0  0  0  0  0  0  0  0  0  0
  -18.9600  -29.9710   23.8790 C   0  0  0  0  0  3  0  0  0  0  0  0
  -17.6310  -30.4110   24.0260 C   0  0  0  0  0  3  0  0  0  0  0  0
  -16.5700  -29.5920   23.6050 C   0  0  0  0  0  3  0  0  0  0  0  0
  -16.8400  -28.3350   23.0330 C   0  0  0  0  0  3  0  0  0  0  0  0
  -25.9380  -32.5580   23.7930 C   0  0  0  0  0  3  0  0  0  0  0  0
  -25.6320  -33.9540   24.1340 N   0  0  0  0  0  0  0  0  0  0  0  0
  -25.9370  -35.0090   23.3650 C   0  0  0  0  0  0  0  0  0  0  0  0
  -26.5810  -34.9120   22.3170 O   0  0  0  0  0  0  0  0  0  0  0  0
  -25.0620  -34.1050   24.9540 H   0  0  0  0  0  0  0  0  0  0  0  0
  -24.1780  -36.7740   23.0510 C   0  0  0  0  0  1  0  0  0  0  0  0
  -25.4440  -36.3910   23.8340 C   0  0  0  0  0  3  0  0  0  0  0  0
  -27.5860  -37.2930   24.6210 C   0  0  0  0  0  1  0  0  0  0  0  0
  -26.4630  -37.4550   23.7010 N   0  0  0  0  0  0  0  0  0  0  0  0
  -26.0510  -38.3700   23.8610 H   0  0  0  0  0  0  0  0  0  0  0  0
  -26.4920  -31.7840   25.0540 C   0  0  1  0  0  0  0  0  0  0  0  0
  -25.4220  -31.5090   26.1340 C   0  0  0  0  0  1  0  0  0  0  0  0
  -27.0960  -30.4250   24.6360 C   0  0  0  0  0  1  0  0  0  0  0  0
  -27.6370  -32.5920   25.7100 C   0  0  0  0  0  1  0  0  0  0  0  0
  2  1  1  0
  3  5  1  0
  4  6  2  0
  4  7  1  0
  6  8  1  0
  7  3  2  0
  8  2  1  0
  8  5  2  0
  9 19  1  0
  9  7  1  0
 10 19  1  0
 11 16  1  0
 12 13  1  0
 12 11  1  0
 14 13  1  0
 14 23  1  0
 14 15  1  0
 16 10  1  0
 16 15  1  0
 17 10  2  0
 19 18  1  0
 20 21  2  0
 21 40  1  0
 22 21  1  0
 22 25  1  0
 23 24  1  0
 23 20  1  0
 24 22  2  0
 25 26  1  0
 26 27  2  0
 28 31  1  0
 28 27  1  0
 29 28  2  0
 30 29  1  0
 30 25  2  0
 31 32  1  0
 32 37  2  0
 32 33  1  0
 33 34  2  0
 34 35  1  0
 35 39  1  0
 36 35  2  0
 37 36  1  0
 38 37  1  0
 40 41  1  0
 41 44  1  0
 41 43  1  0
 42 40  2  0
 45 20  1  0
 45 46  1  0
 47 45  1  0
 48 49  1  0
 48  2  1  0
 50 51  1  0
 50 49  1  0
 51 53  1  0
 52 63  2  0
 53 58  1  0
 54 62  1  0
 54 64  1  0
 55 61  1  0
 55 57  1  0
 56 62  1  0
 57 56  1  0
 58 57  2  0
 59 60  1  0
 59 53  2  0
 60 55  2  0
 61 54  1  0
 62 52  1  0
 64 66  2  0
 65 64  1  0
 67 65  1  0
 68 77  2  0
 68 73  1  0
 69 65  1  0
 69 73  1  0
 70 69  1  0
 71 72  1  0
 71 70  1  0
 72 68  1  0
 73 74  2  0
 74 75  1  0
 76 75  2  0
 77 76  1  0
 78 52  1  0
 78 79  1  0
 78 88  1  0
 79 82  1  0
 80 84  1  0
 80 79  1  0
 81 80  2  0
 84 83  1  0
 86 84  1  0
 86 87  1  0
 86 85  1  0
 88 91  1  1
 88 89  1  0
 90 88  1  0
M  ISO  4  10 100  19 100  50 101  51 101
M  END
>  <TORSDO>  (59) 
F 21

>  <SCORE>  (59) 
-11.894

>  <name>  (59) 
59

>  <ligand_id>  (59) 
59

>  <original_smiles>  (59) 
[H]c1c([H])c([H])c2c(c1[H])C([H])([H])C([H])([H])C([H])([H])C2([H])N([H])C(=O)C1([H])N(C(=O)C([H])(N([H])C(=O)C([H])(N([H])C([H])([H])[H])C([H])([H])[H])C(C([H])([H])[H])(C([H])([H])[H])C([H])([H])[H])C([H])([H])c2c([H])c(OC([H])([H])C([H])([H])C([H])([H])N(c3c([H])c([H])c(C([H])([H])N(C(=O)N4C([H])([H])C([H])([H])C([H])([H])C([H])(n5nc(-c6c([H])c([H])c(Oc7c([H])c([H])c(F)c([H])c7F)c([H])c6[H])c(C(=O)N([H])[H])c5N([H])[H])C4([H])[H])C([H])([H])[H])c([H])c3[H])C([H])([H])[H])c([H])c([H])c2C1([H])[H]

>  <smiles>  (59) 
[H]c1c([H])c([H])c2c(c1[H])C([H])([H])C([H])([H])C([H])([H])C2([H])N([H])C(=O)C1([H])N(C(=O)C([H])(N([H])C(=O)C([H])(N([H])C([H])([H])[H])C([H])([H])[H])C(C([H])([H])[H])(C([H])([H])[H])C([H])([H])[H])C([H])([H])c2c([H])c(OC([H])([H])C([H])([H])C([H])([H])N(c3c([H])c([H])c(C([H])([H])N(C(=O)N4C([H])([H])C([H])([H])C([H])([H])C([H])(n5nc(-c6c([H])c([H])c(Oc7c([H])c([H])c(F)c([H])c7F)c([H])c6[H])c(C(=O)N([H])[H])c5N([H])[H])C4([H])[H])C([H])([H])[H])c([H])c3[H])C([H])([H])[H])c([H])c([H])c2C1([H])[H]

$$$$
60:0:0
     RDKit          3D

 93103  0  0  1  0  0  0  0  0999 V2000
  -30.9840  -23.5550   21.1430 C   0  0  0  0  0  2  0  0  0  0  0  0
  -30.3540  -23.9980   19.8180 C   0  0  0  0  0  2  0  0  0  0  0  0
  -29.9460  -22.6330   21.8010 C   0  0  0  0  0  2  0  0  0  0  0  0
  -28.8740  -23.6500   19.9790 C   0  0  0  0  0  3  0  0  0  0  0  0
  -28.9560  -22.3320   20.7650 N   0  0  0  0  0  0  0  0  0  0  0  0
  -30.5760  -14.8800   20.2020 C   0  0  0  0  0  0  0  0  0  0  0  0
  -30.3580  -12.5890   19.2000 C   0  0  0  0  0  2  0  0  0  0  0  0
  -29.3940  -12.6270   17.9960 C   0  0  0  0  0  2  0  0  0  0  0  0
  -27.9390  -12.4330   18.4650 C   0  0  0  0  0  2  0  0  0  0  0  0
  -27.5780  -13.3260   19.6820 C   0  0  0  0  0  3  0  0  0  0  0  0
  -28.6660  -13.2880   20.7760 C   0  0  0  0  0  2  0  0  0  0  0  0
  -29.9310  -13.6590   20.1330 N   0  0  0  0  0  0  0  0  0  0  0  0
  -31.7760  -14.9180   19.9160 O   0  0  0  0  0  0  0  0  0  0  0  0
  -28.9170  -19.3180   18.3520 C   0  0  0  0  0  3  0  0  0  0  0  0
  -28.8170  -20.6420   18.8850 C   0  0  0  0  0  3  0  0  0  0  0  0
  -29.4130  -19.7820   21.0710 C   0  0  0  0  0  3  0  0  0  0  0  0
  -29.5250  -18.4450   20.5170 C   0  0  0  0  0  0  0  0  0  0  0  0
  -29.2780  -18.2350   19.1890 C   0  0  0  0  0  0  0  0  0  0  0  0
  -29.0620  -20.9510   20.2580 C   0  0  0  0  0  0  0  0  0  0  0  0
  -29.9260  -17.0940   21.1240 C   0  0  0  0  0  0  0  0  0  0  0  0
  -29.4750  -16.7390   18.8970 C   0  0  0  0  0  2  0  0  0  0  0  0
  -29.8270  -16.0660   20.1940 N   0  0  0  0  0  0  0  0  0  0  0  0
  -30.2920  -16.9850   22.2990 O   0  0  0  0  0  0  0  0  0  0  0  0
  -25.2130  -13.8910   20.4820 C   0  0  0  0  0  0  0  0  0  0  0  0
  -24.1610  -13.1080   20.8700 C   0  0  0  0  0  0  0  0  0  0  0  0
  -24.6320  -11.7600   20.8170 C   0  0  0  0  0  0  0  0  0  0  0  0
  -26.2550  -13.0200   20.2110 N   0  0  0  0  0  0  0  0  0  0  0  0
  -25.9160  -11.7330   20.4790 N   0  0  0  0  0  0  0  0  0  0  0  0
  -23.9170  -10.4910   21.0140 C   0  0  0  0  0  0  0  0  0  0  0  0
  -24.3690   -9.5240   21.9380 C   0  0  0  0  0  3  0  0  0  0  0  0
  -23.6530   -8.3210   22.1230 C   0  0  0  0  0  3  0  0  0  0  0  0
  -22.4730   -8.0780   21.3820 C   0  0  0  0  0  0  0  0  0  0  0  0
  -22.0400   -9.0330   20.4450 C   0  0  0  0  0  3  0  0  0  0  0  0
  -22.7570  -10.2270   20.2590 C   0  0  0  0  0  3  0  0  0  0  0  0
  -21.7270   -6.9280   21.4770 O   0  0  0  0  0  0  0  0  0  0  0  0
  -21.6870   -6.1880   22.6320 C   0  0  0  0  0  0  0  0  0  0  0  0
  -21.2510   -6.7420   23.8560 C   0  0  0  0  0  3  0  0  0  0  0  0
  -21.1580   -5.9290   25.0030 C   0  0  0  0  0  3  0  0  0  0  0  0
  -21.4930   -4.5630   24.9270 C   0  0  0  0  0  0  0  0  0  0  0  0
  -21.9220   -4.0090   23.7090 C   0  0  0  0  0  3  0  0  0  0  0  0
  -22.0150   -4.8200   22.5640 C   0  0  0  0  0  0  0  0  0  0  0  0
  -22.4090   -4.2770   21.3870 F   0  0  0  0  0  0  0  0  0  0  0  0
  -21.3970   -3.7800   26.0280 F   0  0  0  0  0  0  0  0  0  0  0  0
  -22.7680  -13.5740   21.1750 C   0  0  0  0  0  0  0  0  0  0  0  0
  -22.0600  -12.8650   22.0460 N   0  0  0  0  0  0  0  0  0  0  0  0
  -22.3160  -14.6040   20.6740 O   0  0  0  0  0  0  0  0  0  0  0  0
  -22.4400  -12.0330   22.4730 H   0  0  0  0  0  0  0  0  0  0  0  0
  -21.1260  -13.1590   22.2920 H   0  0  0  0  0  0  0  0  0  0  0  0
  -25.3650  -15.2650   20.3120 N   0  0  0  0  0  0  0  0  0  0  0  0
  -24.5980  -15.9130   20.4510 H   0  0  0  0  0  0  0  0  0  0  0  0
  -26.2050  -15.7130   19.9700 H   0  0  0  0  0  0  0  0  0  0  0  0
  -28.1030  -24.9510   20.6400 C   0  0  0  0  0  2  0  0  0  0  0  0
  -28.3020  -26.3950   20.2070 O   0  0  0  0  0  0  0  0  0  0  0  0
  -24.6040  -31.9210   23.2410 C   0  0  0  0  0  0  0  0  0  0  0  0
  -27.2080  -27.2980   20.2010 C   0  0  0  0  0  0  0  0  0  0  0  0
  -23.4030  -30.5170   21.6070 C   0  0  0  0  0  3  0  0  0  0  0  0
  -24.8540  -28.9570   20.1810 C   0  0  0  0  0  0  0  0  0  0  0  0
  -25.9470  -30.8240   21.4210 C   0  0  0  0  0  2  0  0  0  0  0  0
  -26.0280  -29.4370   20.7770 C   0  0  0  0  0  0  0  0  0  0  0  0
  -27.2110  -28.6230   20.7690 C   0  0  0  0  0  3  0  0  0  0  0  0
  -26.0120  -26.8930   19.5750 C   0  0  0  0  0  3  0  0  0  0  0  0
  -24.8520  -27.6950   19.5680 C   0  0  0  0  0  3  0  0  0  0  0  0
  -23.6190  -29.8380   20.2290 C   0  0  0  0  0  2  0  0  0  0  0  0
  -24.6710  -31.1060   22.1450 N   0  0  0  0  0  0  0  0  0  0  0  0
  -23.5210  -32.1980   23.7750 O   0  0  0  0  0  0  0  0  0  0  0  0
  -22.7410  -29.5040   22.5710 C   0  0  0  0  0  0  0  0  0  0  0  0
  -21.4160  -29.3160   22.4410 N   0  0  0  0  0  0  0  0  0  0  0  0
  -23.4200  -28.8890   23.3980 O   0  0  0  0  0  0  0  0  0  0  0  0
  -20.9260  -29.8630   21.7480 H   0  0  0  0  0  0  0  0  0  0  0  0
  -18.0490  -28.0800   22.9290 C   0  0  0  0  0  0  0  0  0  0  0  0
  -20.6020  -28.3760   23.2150 C   0  0  0  0  0  3  0  0  0  0  0  0
  -20.7270  -26.9400   22.6540 C   0  0  0  0  0  2  0  0  0  0  0  0
  -19.6360  -26.5950   21.6350 C   0  0  0  0  0  2  0  0  0  0  0  0
  -18.2470  -26.7280   22.2680 C   0  0  0  0  0  2  0  0  0  0  0  0
  -19.1550  -28.8610   23.3610 C   0  0  0  0  0  0  0  0  0  0  0  0
  -18.9150  -30.1260   23.9410 C   0  0  0  0  0  3  0  0  0  0  0  0
  -17.6030  -30.6100   24.0940 C   0  0  0  0  0  3  0  0  0  0  0  0
  -16.5110  -29.8280   23.6780 C   0  0  0  0  0  3  0  0  0  0  0  0
  -16.7350  -28.5650   23.1020 C   0  0  0  0  0  3  0  0  0  0  0  0
  -25.8850  -32.5610   23.8610 C   0  0  0  0  0  3  0  0  0  0  0  0
  -25.5700  -33.9600   24.1870 N   0  0  0  0  0  0  0  0  0  0  0  0
  -25.9010  -35.0130   23.4270 C   0  0  0  0  0  0  0  0  0  0  0  0
  -26.5690  -34.9090   22.3950 O   0  0  0  0  0  0  0  0  0  0  0  0
  -24.9770  -34.1150   24.9880 H   0  0  0  0  0  0  0  0  0  0  0  0
  -24.1720  -36.8070   23.0710 C   0  0  0  0  0  1  0  0  0  0  0  0
  -25.4130  -36.4030   23.8830 C   0  0  0  0  0  3  0  0  0  0  0  0
  -27.5460  -37.2910   24.7160 C   0  0  0  0  0  1  0  0  0  0  0  0
  -26.4450  -37.4560   23.7700 N   0  0  0  0  0  0  0  0  0  0  0  0
  -26.0390  -38.3760   23.9130 H   0  0  0  0  0  0  0  0  0  0  0  0
  -26.4010  -31.7980   25.1430 C   0  0  1  0  0  0  0  0  0  0  0  0
  -25.3080  -31.5650   26.2120 C   0  0  0  0  0  1  0  0  0  0  0  0
  -26.9860  -30.4180   24.7610 C   0  0  0  0  0  1  0  0  0  0  0  0
  -27.5490  -32.5980   25.8010 C   0  0  0  0  0  1  0  0  0  0  0  0
  1  3  1  0
  2  4  1  0
  2  1  1  0
  4 52  1  0
  4  5  1  0
  5  3  1  0
  7 12  1  0
  8  9  1  0
  8  7  1  0
 10  9  1  0
 10 27  1  0
 10 11  1  0
 12  6  1  0
 12 11  1  0
 13  6  2  0
 14 15  2  0
 14 18  1  0
 15 19  1  0
 17 16  1  0
 17 20  1  0
 18 17  2  0
 19  5  1  0
 19 16  2  0
 20 23  2  0
 21 18  1  0
 21 22  1  0
 22  6  1  0
 22 20  1  0
 24 25  2  0
 25 44  1  0
 26 25  1  0
 26 29  1  0
 27 28  1  0
 27 24  1  0
 28 26  2  0
 29 30  1  0
 30 31  2  0
 32 35  1  0
 32 31  1  0
 33 32  2  0
 34 33  1  0
 34 29  2  0
 35 36  1  0
 36 37  1  0
 37 38  2  0
 39 38  1  0
 39 43  1  0
 40 39  2  0
 41 36  2  0
 41 40  1  0
 42 41  1  0
 44 45  1  0
 45 48  1  0
 45 47  1  0
 46 44  2  0
 49 50  1  0
 49 24  1  0
 51 49  1  0
 53 52  1  0
 54 65  2  0
 55 53  1  0
 55 60  1  0
 56 64  1  0
 56 66  1  0
 57 63  1  0
 57 59  1  0
 58 64  1  0
 59 58  1  0
 60 59  2  0
 61 55  2  0
 62 61  1  0
 62 57  2  0
 63 56  1  0
 64 54  1  0
 66 68  2  0
 67 66  1  0
 69 67  1  0
 70 79  2  0
 70 75  1  0
 71 67  1  0
 71 75  1  0
 72 71  1  0
 73 74  1  0
 73 72  1  0
 74 70  1  0
 75 76  2  0
 76 77  1  0
 78 77  2  0
 79 78  1  0
 80 54  1  0
 80 81  1  0
 80 90  1  0
 81 84  1  0
 82 86  1  0
 82 81  1  0
 83 82  2  0
 86 85  1  0
 88 86  1  0
 88 89  1  0
 88 87  1  0
 90 93  1  1
 90 91  1  0
 92 90  1  0
M  ISO  4   6 100  22 100  52 101  53 101
M  END
>  <TORSDO>  (60) 
F 17

>  <SCORE>  (60) 
-15.521

>  <name>  (60) 
60

>  <ligand_id>  (60) 
60

>  <original_smiles>  (60) 
[H]c1c([H])c([H])c2c(c1[H])C([H])([H])C([H])([H])C([H])([H])C2([H])N([H])C(=O)C1([H])N(C(=O)C([H])(N([H])C(=O)C([H])(N([H])C([H])([H])[H])C([H])([H])[H])C(C([H])([H])[H])(C([H])([H])[H])C([H])([H])[H])C([H])([H])c2c([H])c(OC([H])([H])C3([H])N(c4c([H])c([H])c5c(c4[H])C(=O)N(C(=O)N4C([H])([H])C([H])([H])C([H])([H])C([H])(n6nc(-c7c([H])c([H])c(Oc8c([H])c([H])c(F)c([H])c8F)c([H])c7[H])c(C(=O)N([H])[H])c6N([H])[H])C4([H])[H])C5([H])[H])C([H])([H])C([H])([H])C3([H])[H])c([H])c([H])c2C1([H])[H]

>  <smiles>  (60) 
[H]c1c([H])c([H])c2c(c1[H])C([H])([H])C([H])([H])C([H])([H])C2([H])N([H])C(=O)C1([H])N(C(=O)C([H])(N([H])C(=O)C([H])(N([H])C([H])([H])[H])C([H])([H])[H])C(C([H])([H])[H])(C([H])([H])[H])C([H])([H])[H])C([H])([H])c2c([H])c(OC([H])([H])C3([H])N(c4c([H])c([H])c5c(c4[H])C(=O)N(C(=O)N4C([H])([H])C([H])([H])C([H])([H])C([H])(n6nc(-c7c([H])c([H])c(Oc8c([H])c([H])c(F)c([H])c8F)c([H])c7[H])c(C(=O)N([H])[H])c6N([H])[H])C4([H])[H])C5([H])[H])C([H])([H])C([H])([H])C3([H])[H])c([H])c([H])c2C1([H])[H]

$$$$
61:0:0
     RDKit          3D

 91 99  0  0  1  0  0  0  0  0999 V2000
  -30.6270  -21.8030   18.8200 C   0  0  0  0  0  1  0  0  0  0  0  0
  -29.9820  -21.5290   20.1080 N   0  0  0  0  0  0  0  0  0  0  0  0
  -28.6770  -17.9570   20.5380 C   0  0  0  0  0  3  0  0  0  0  0  0
  -28.7020  -19.3790   20.4110 C   0  0  0  0  0  3  0  0  0  0  0  0
  -31.0800  -17.8970   20.6050 C   0  0  0  0  0  3  0  0  0  0  0  0
  -29.8630  -17.1690   20.6210 C   0  0  0  0  0  0  0  0  0  0  0  0
  -29.9190  -20.1050   20.3530 C   0  0  0  0  0  0  0  0  0  0  0  0
  -31.1090  -19.3180   20.4700 C   0  0  0  0  0  0  0  0  0  0  0  0
  -32.3210  -19.9280   20.4400 F   0  0  0  0  0  0  0  0  0  0  0  0
  -30.5700  -14.6650   20.4080 C   0  0  0  0  0  0  0  0  0  0  0  0
  -30.3590  -12.4300   19.3340 C   0  0  0  0  0  2  0  0  0  0  0  0
  -29.4260  -12.5950   18.1150 C   0  0  0  0  0  2  0  0  0  0  0  0
  -27.9540  -12.4020   18.5270 C   0  0  0  0  0  2  0  0  0  0  0  0
  -27.5850  -13.2510   19.7750 C   0  0  0  0  0  3  0  0  0  0  0  0
  -28.6370  -13.1050   20.8980 C   0  0  0  0  0  2  0  0  0  0  0  0
  -29.9550  -13.4410   20.3300 N   0  0  0  0  0  0  0  0  0  0  0  0
  -31.7330  -14.8230   20.0290 O   0  0  0  0  0  0  0  0  0  0  0  0
  -29.7520  -15.7110   20.7570 N   0  0  0  0  0  0  0  0  0  0  0  0
  -28.8320  -15.3870   21.0110 H   0  0  0  0  0  0  0  0  0  0  0  0
  -25.1950  -13.8440   20.4850 C   0  0  0  0  0  0  0  0  0  0  0  0
  -24.1280  -13.0730   20.8530 C   0  0  0  0  0  0  0  0  0  0  0  0
  -24.5950  -11.7200   20.8340 C   0  0  0  0  0  0  0  0  0  0  0  0
  -26.2380  -12.9650   20.2570 N   0  0  0  0  0  0  0  0  0  0  0  0
  -25.8870  -11.6820   20.5270 N   0  0  0  0  0  0  0  0  0  0  0  0
  -23.8720  -10.4590   21.0290 C   0  0  0  0  0  0  0  0  0  0  0  0
  -24.3110   -9.4960   21.9660 C   0  0  0  0  0  3  0  0  0  0  0  0
  -23.5920   -8.2960   22.1480 C   0  0  0  0  0  3  0  0  0  0  0  0
  -22.4190   -8.0510   21.3970 C   0  0  0  0  0  0  0  0  0  0  0  0
  -22.0000   -9.0010   20.4500 C   0  0  0  0  0  3  0  0  0  0  0  0
  -22.7180  -10.1930   20.2650 C   0  0  0  0  0  3  0  0  0  0  0  0
  -21.6670   -6.9030   21.4910 O   0  0  0  0  0  0  0  0  0  0  0  0
  -21.6290   -6.1610   22.6430 C   0  0  0  0  0  0  0  0  0  0  0  0
  -21.2130   -6.7130   23.8740 C   0  0  0  0  0  3  0  0  0  0  0  0
  -21.1230   -5.8950   25.0190 C   0  0  0  0  0  3  0  0  0  0  0  0
  -21.4380   -4.5260   24.9350 C   0  0  0  0  0  0  0  0  0  0  0  0
  -21.8480   -3.9730   23.7100 C   0  0  0  0  0  3  0  0  0  0  0  0
  -21.9430   -4.7880   22.5660 C   0  0  0  0  0  0  0  0  0  0  0  0
  -22.3170   -4.2460   21.3820 F   0  0  0  0  0  0  0  0  0  0  0  0
  -21.3460   -3.7390   26.0310 F   0  0  0  0  0  0  0  0  0  0  0  0
  -22.7280  -13.5440   21.1190 C   0  0  0  0  0  0  0  0  0  0  0  0
  -22.0030  -12.8490   21.9880 N   0  0  0  0  0  0  0  0  0  0  0  0
  -22.2870  -14.5640   20.5910 O   0  0  0  0  0  0  0  0  0  0  0  0
  -22.3790  -12.0250   22.4340 H   0  0  0  0  0  0  0  0  0  0  0  0
  -21.0620  -13.1360   22.2060 H   0  0  0  0  0  0  0  0  0  0  0  0
  -25.3670  -15.2140   20.2950 N   0  0  0  0  0  0  0  0  0  0  0  0
  -24.6060  -15.8800   20.3440 H   0  0  0  0  0  0  0  0  0  0  0  0
  -26.2240  -15.6250   19.9440 H   0  0  0  0  0  0  0  0  0  0  0  0
  -28.9060  -22.5040   20.4650 C   0  0  0  0  0  2  0  0  0  0  0  0
  -29.3030  -24.0540   20.4480 C   0  0  0  0  0  3  0  0  0  0  0  0
  -28.1230  -25.0700   20.1520 C   0  0  0  0  0  3  0  0  0  0  0  0
  -28.3440  -26.5310   20.1960 O   0  0  0  0  0  0  0  0  0  0  0  0
  -24.6050  -31.8770   23.2190 C   0  0  0  0  0  0  0  0  0  0  0  0
  -27.2100  -27.3560   20.1360 C   0  0  0  0  0  0  0  0  0  0  0  0
  -23.3870  -30.4840   21.5880 C   0  0  0  0  0  3  0  0  0  0  0  0
  -24.8320  -28.9430   20.1390 C   0  0  0  0  0  0  0  0  0  0  0  0
  -25.9200  -30.8200   21.3760 C   0  0  0  0  0  2  0  0  0  0  0  0
  -26.0000  -29.4450   20.7220 C   0  0  0  0  0  0  0  0  0  0  0  0
  -27.1950  -28.6640   20.7100 C   0  0  0  0  0  3  0  0  0  0  0  0
  -26.0160  -26.9040   19.5290 C   0  0  0  0  0  3  0  0  0  0  0  0
  -24.8400  -27.6780   19.5350 C   0  0  0  0  0  3  0  0  0  0  0  0
  -23.5840  -29.8010   20.2060 C   0  0  0  0  0  2  0  0  0  0  0  0
  -24.6570  -31.0750   22.1170 N   0  0  0  0  0  0  0  0  0  0  0  0
  -23.5270  -32.1530   23.7640 O   0  0  0  0  0  0  0  0  0  0  0  0
  -22.7310  -29.4670   22.5500 C   0  0  0  0  0  0  0  0  0  0  0  0
  -21.4050  -29.2910   22.4290 N   0  0  0  0  0  0  0  0  0  0  0  0
  -23.4130  -28.8380   23.3610 O   0  0  0  0  0  0  0  0  0  0  0  0
  -20.9140  -29.8440   21.7380 H   0  0  0  0  0  0  0  0  0  0  0  0
  -18.0240  -28.1140   22.9420 C   0  0  0  0  0  0  0  0  0  0  0  0
  -20.5870  -28.3560   23.1990 C   0  0  0  0  0  3  0  0  0  0  0  0
  -20.6770  -26.9270   22.6140 C   0  0  0  0  0  2  0  0  0  0  0  0
  -19.5640  -26.6200   21.6060 C   0  0  0  0  0  2  0  0  0  0  0  0
  -18.1880  -26.7680   22.2590 C   0  0  0  0  0  2  0  0  0  0  0  0
  -19.1510  -28.8680   23.3690 C   0  0  0  0  0  0  0  0  0  0  0  0
  -18.9420  -30.1310   23.9640 C   0  0  0  0  0  3  0  0  0  0  0  0
  -17.6420  -30.6380   24.1430 C   0  0  0  0  0  3  0  0  0  0  0  0
  -16.5300  -29.8790   23.7350 C   0  0  0  0  0  3  0  0  0  0  0  0
  -16.7240  -28.6200   23.1380 C   0  0  0  0  0  3  0  0  0  0  0  0
  -25.8920  -32.5040   23.8390 C   0  0  0  0  0  3  0  0  0  0  0  0
  -26.4100  -31.7210   25.1060 C   0  0  1  0  0  0  0  0  0  0  0  0
  -25.3220  -31.4790   26.1780 C   0  0  0  0  0  1  0  0  0  0  0  0
  -26.9840  -30.3450   24.6990 C   0  0  0  0  0  1  0  0  0  0  0  0
  -27.5740  -32.5030   25.7610 C   0  0  0  0  0  1  0  0  0  0  0  0
  -25.5880  -33.9010   24.1780 N   0  0  0  0  0  0  0  0  0  0  0  0
  -25.9230  -34.9550   23.4230 C   0  0  0  0  0  0  0  0  0  0  0  0
  -26.5860  -34.8540   22.3870 O   0  0  0  0  0  0  0  0  0  0  0  0
  -24.9830  -34.0530   24.9730 H   0  0  0  0  0  0  0  0  0  0  0  0
  -24.1930  -36.7490   23.0970 C   0  0  0  0  0  1  0  0  0  0  0  0
  -25.4470  -36.3440   23.8900 C   0  0  0  0  0  3  0  0  0  0  0  0
  -27.5950  -37.2160   24.6930 C   0  0  0  0  0  1  0  0  0  0  0  0
  -26.4800  -37.3950   23.7650 N   0  0  0  0  0  0  0  0  0  0  0  0
  -26.0800  -38.3170   23.9200 H   0  0  0  0  0  0  0  0  0  0  0  0
  1  2  1  0
  2  7  1  0
  2 48  1  0
  3  6  1  0
  4  3  2  0
  5  6  2  0
  6 18  1  0
  7  4  1  0
  7  8  2  0
  8  5  1  0
  9  8  1  0
 10 18  1  0
 11 16  1  0
 12 13  1  0
 12 11  1  0
 14 13  1  0
 14 23  1  0
 14 15  1  0
 16 10  1  0
 16 15  1  0
 17 10  2  0
 18 19  1  0
 20 21  2  0
 21 40  1  0
 22 21  1  0
 22 25  1  0
 23 20  1  0
 23 24  1  0
 24 22  2  0
 25 26  1  0
 26 27  2  0
 28 31  1  0
 28 27  1  0
 29 28  2  0
 30 29  1  0
 30 25  2  0
 31 32  1  0
 32 33  1  0
 33 34  2  0
 35 34  1  0
 35 39  1  0
 36 35  2  0
 37 32  2  0
 37 36  1  0
 38 37  1  0
 40 41  1  0
 41 44  1  0
 41 43  1  0
 42 40  2  0
 45 46  1  0
 45 20  1  0
 47 45  1  0
 49 48  1  0
 50 51  1  0
 50 49  2  0
 52 63  2  0
 53 51  1  0
 53 58  1  0
 54 62  1  0
 54 64  1  0
 55 61  1  0
 55 57  1  0
 56 62  1  0
 57 56  1  0
 58 57  2  0
 59 60  1  0
 59 53  2  0
 60 55  2  0
 61 54  1  0
 62 52  1  0
 64 66  2  0
 65 64  1  0
 67 65  1  0
 68 77  2  0
 68 73  1  0
 69 65  1  0
 69 73  1  0
 70 69  1  0
 71 72  1  0
 71 70  1  0
 72 68  1  0
 73 74  2  0
 74 75  1  0
 76 75  2  0
 77 76  1  0
 78 52  1  0
 78 83  1  0
 78 79  1  0
 79 82  1  1
 79 80  1  0
 81 79  1  0
 83 86  1  0
 84 88  1  0
 84 83  1  0
 85 84  2  0
 88 87  1  0
 90 88  1  0
 90 91  1  0
 90 89  1  0
M  ISO  4  10 100  18 100  50 101  51 101
M  END
>  <TORSDO>  (61) 
F 20

>  <SCORE>  (61) 
-14.004

>  <name>  (61) 
61

>  <ligand_id>  (61) 
61

>  <original_smiles>  (61) 
[H]c1c([H])c([H])c2c(c1[H])C([H])([H])C([H])([H])C([H])([H])C2([H])N([H])C(=O)C1([H])N(C(=O)C([H])(N([H])C(=O)C([H])(N([H])C([H])([H])[H])C([H])([H])[H])C(C([H])([H])[H])(C([H])([H])[H])C([H])([H])[H])C([H])([H])c2c([H])c(OC([H])([H])C([H])([H])C([H])([H])N(c3c([H])c([H])c(N([H])C(=O)N4C([H])([H])C([H])([H])C([H])([H])C([H])(n5nc(-c6c([H])c([H])c(Oc7c([H])c([H])c(F)c([H])c7F)c([H])c6[H])c(C(=O)N([H])[H])c5N([H])[H])C4([H])[H])c([H])c3F)C([H])([H])[H])c([H])c([H])c2C1([H])[H]

>  <smiles>  (61) 
[H]c1c([H])c([H])c2c(c1[H])C([H])([H])C([H])([H])C([H])([H])C2([H])N([H])C(=O)C1([H])N(C(=O)C([H])(N([H])C(=O)C([H])(N([H])C([H])([H])[H])C([H])([H])[H])C(C([H])([H])[H])(C([H])([H])[H])C([H])([H])[H])C([H])([H])c2c([H])c(OC([H])([H])C([H])([H])C([H])([H])N(c3c([H])c([H])c(N([H])C(=O)N4C([H])([H])C([H])([H])C([H])([H])C([H])(n5nc(-c6c([H])c([H])c(Oc7c([H])c([H])c(F)c([H])c7F)c([H])c6[H])c(C(=O)N([H])[H])c5N([H])[H])C4([H])[H])c([H])c3F)C([H])([H])[H])c([H])c([H])c2C1([H])[H]

$$$$
62:0:0
     RDKit          3D

 94103  0  0  1  0  0  0  0  0999 V2000
  -32.1770  -22.4170   22.5540 C   0  0  0  0  0  2  0  0  0  0  0  0
  -31.4840  -21.1470   23.0460 C   0  0  0  0  0  2  0  0  0  0  0  0
  -31.8220  -22.4570   21.0710 C   0  0  0  0  0  2  0  0  0  0  0  0
  -30.3370  -20.8870   22.0410 C   0  0  0  0  0  3  0  0  0  0  0  0
  -30.4360  -21.9410   20.9840 N   0  0  1  0  0  4  0  0  0  0  0  0
  -30.3140  -21.5030   20.0820 H   0  0  0  0  0  0  0  0  0  0  0  0
  -29.0830  -18.7460   21.4420 C   0  0  0  0  0  3  0  0  0  0  0  0
  -31.5010  -18.7090   21.2440 C   0  0  0  0  0  3  0  0  0  0  0  0
  -29.0410  -17.3700   21.1430 C   0  0  0  0  0  3  0  0  0  0  0  0
  -31.4580  -17.3280   20.9380 C   0  0  0  0  0  3  0  0  0  0  0  0
  -30.3150  -19.4320   21.5300 C   0  0  0  0  0  0  0  0  0  0  0  0
  -30.2230  -16.6360   20.9070 C   0  0  0  0  0  0  0  0  0  0  0  0
  -30.6950  -14.3610   19.8760 C   0  0  0  0  0  0  0  0  0  0  0  0
  -30.2860  -12.2930   18.5810 C   0  0  0  0  0  2  0  0  0  0  0  0
  -29.2180  -12.5760   17.5030 C   0  0  0  0  0  2  0  0  0  0  0  0
  -27.7930  -12.4170   18.0720 C   0  0  0  0  0  2  0  0  0  0  0  0
  -27.6000  -13.1630   19.4190 C   0  0  0  0  0  3  0  0  0  0  0  0
  -28.7560  -12.8280   20.3870 C   0  0  0  0  0  2  0  0  0  0  0  0
  -30.0240  -13.1870   19.7200 N   0  0  0  0  0  0  0  0  0  0  0  0
  -31.7340  -14.6260   19.2620 O   0  0  0  0  0  0  0  0  0  0  0  0
  -30.0710  -15.2310   20.6970 N   0  0  0  0  0  0  0  0  0  0  0  0
  -29.2550  -14.8250   21.1280 H   0  0  0  0  0  0  0  0  0  0  0  0
  -25.2830  -13.7470   20.3830 C   0  0  0  0  0  0  0  0  0  0  0  0
  -24.2510  -12.9610   20.8230 C   0  0  0  0  0  0  0  0  0  0  0  0
  -24.6980  -11.6120   20.6860 C   0  0  0  0  0  0  0  0  0  0  0  0
  -26.2960  -12.8740   20.0120 N   0  0  0  0  0  0  0  0  0  0  0  0
  -25.9500  -11.5830   20.2500 N   0  0  0  0  0  0  0  0  0  0  0  0
  -23.9880  -10.3440   20.8930 C   0  0  0  0  0  0  0  0  0  0  0  0
  -24.4430   -9.3850   21.8240 C   0  0  0  0  0  3  0  0  0  0  0  0
  -23.7330   -8.1800   22.0170 C   0  0  0  0  0  3  0  0  0  0  0  0
  -22.5540   -7.9260   21.2780 C   0  0  0  0  0  0  0  0  0  0  0  0
  -22.1170   -8.8740   20.3360 C   0  0  0  0  0  3  0  0  0  0  0  0
  -22.8270  -10.0700   20.1410 C   0  0  0  0  0  3  0  0  0  0  0  0
  -21.8130   -6.7730   21.3810 O   0  0  0  0  0  0  0  0  0  0  0  0
  -21.6870   -6.1020   22.5710 C   0  0  0  0  0  0  0  0  0  0  0  0
  -21.1430   -6.7180   23.7190 C   0  0  0  0  0  3  0  0  0  0  0  0
  -20.9670   -5.9720   24.9020 C   0  0  0  0  0  3  0  0  0  0  0  0
  -21.3250   -4.6100   24.9360 C   0  0  0  0  0  0  0  0  0  0  0  0
  -21.8610   -3.9940   23.7920 C   0  0  0  0  0  3  0  0  0  0  0  0
  -22.0390   -4.7380   22.6120 C   0  0  0  0  0  0  0  0  0  0  0  0
  -22.5370   -4.1350   21.5060 F   0  0  0  0  0  0  0  0  0  0  0  0
  -21.1480   -3.8910   26.0680 F   0  0  0  0  0  0  0  0  0  0  0  0
  -22.8910  -13.4280   21.2550 C   0  0  0  0  0  0  0  0  0  0  0  0
  -22.2600  -12.7100   22.1780 N   0  0  0  0  0  0  0  0  0  0  0  0
  -22.3980  -14.4640   20.8090 O   0  0  0  0  0  0  0  0  0  0  0  0
  -22.6720  -11.8730   22.5600 H   0  0  0  0  0  0  0  0  0  0  0  0
  -21.3500  -13.0030   22.5060 H   0  0  0  0  0  0  0  0  0  0  0  0
  -25.4380  -15.1240   20.2500 N   0  0  0  0  0  0  0  0  0  0  0  0
  -24.6860  -15.7740   20.4540 H   0  0  0  0  0  0  0  0  0  0  0  0
  -26.2490  -15.5720   19.8400 H   0  0  0  0  0  0  0  0  0  0  0  0
  -29.3650  -22.9850   21.1240 C   0  0  0  0  0  2  0  0  0  0  0  0
  -29.5180  -24.2940   20.2920 C   0  0  0  0  0  2  0  0  0  0  0  0
  -28.2400  -25.1610   20.3450 C   0  0  0  0  0  2  0  0  0  0  0  0
  -28.4100  -26.4880   19.8130 O   0  0  0  0  0  0  0  0  0  0  0  0
  -24.5630  -31.5170   23.0860 C   0  0  0  0  0  0  0  0  0  0  0  0
  -27.2530  -27.2410   19.8180 C   0  0  0  0  0  0  0  0  0  0  0  0
  -23.3780  -30.1880   21.3710 C   0  0  0  0  0  3  0  0  0  0  0  0
  -24.8510  -28.7350   19.8800 C   0  0  0  0  0  0  0  0  0  0  0  0
  -25.9020  -30.5740   21.2040 C   0  0  0  0  0  2  0  0  0  0  0  0
  -26.0030  -29.2360   20.5010 C   0  0  0  0  0  0  0  0  0  0  0  0
  -27.2100  -28.4980   20.4640 C   0  0  0  0  0  3  0  0  0  0  0  0
  -26.0870  -26.7650   19.1790 C   0  0  0  0  0  3  0  0  0  0  0  0
  -24.8880  -27.4990   19.2140 C   0  0  0  0  0  3  0  0  0  0  0  0
  -23.6000  -29.5800   19.9600 C   0  0  0  0  0  2  0  0  0  0  0  0
  -24.6320  -30.7710   21.9460 N   0  0  0  0  0  0  0  0  0  0  0  0
  -23.4760  -31.7530   23.6320 O   0  0  0  0  0  0  0  0  0  0  0  0
  -22.7270  -29.1170   22.2750 C   0  0  0  0  0  0  0  0  0  0  0  0
  -21.4020  -28.9400   22.1390 N   0  0  0  0  0  0  0  0  0  0  0  0
  -23.4120  -28.4480   23.0540 O   0  0  0  0  0  0  0  0  0  0  0  0
  -20.9100  -29.5350   21.4850 H   0  0  0  0  0  0  0  0  0  0  0  0
  -18.0190  -27.7670   22.6230 C   0  0  0  0  0  0  0  0  0  0  0  0
  -20.5870  -27.9640   22.8590 C   0  0  0  0  0  3  0  0  0  0  0  0
  -20.6520  -26.5750   22.1810 C   0  0  0  0  0  2  0  0  0  0  0  0
  -19.5250  -26.3430   21.1700 C   0  0  0  0  0  2  0  0  0  0  0  0
  -18.1590  -26.4650   21.8520 C   0  0  0  0  0  2  0  0  0  0  0  0
  -19.1590  -28.4780   23.0820 C   0  0  0  0  0  0  0  0  0  0  0  0
  -18.9750  -29.7010   23.7620 C   0  0  0  0  0  3  0  0  0  0  0  0
  -17.6830  -30.2110   23.9900 C   0  0  0  0  0  3  0  0  0  0  0  0
  -16.5570  -29.4950   23.5460 C   0  0  0  0  0  3  0  0  0  0  0  0
  -16.7260  -28.2750   22.8690 C   0  0  0  0  0  3  0  0  0  0  0  0
  -25.8410  -32.1260   23.7420 C   0  0  0  0  0  3  0  0  0  0  0  0
  -26.3390  -31.3150   25.0010 C   0  0  1  0  0  0  0  0  0  0  0  0
  -25.2310  -31.0460   26.0450 C   0  0  0  0  0  1  0  0  0  0  0  0
  -26.9250  -29.9500   24.5700 C   0  0  0  0  0  1  0  0  0  0  0  0
  -27.4810  -32.0860   25.7030 C   0  0  0  0  0  1  0  0  0  0  0  0
  -25.5310  -33.5140   24.1070 N   0  0  0  0  0  0  0  0  0  0  0  0
  -25.8720  -34.5850   23.3760 C   0  0  0  0  0  0  0  0  0  0  0  0
  -26.5490  -34.5070   22.3470 O   0  0  0  0  0  0  0  0  0  0  0  0
  -24.9340  -33.6500   24.9090 H   0  0  0  0  0  0  0  0  0  0  0  0
  -24.1440  -36.3820   23.0560 C   0  0  0  0  0  1  0  0  0  0  0  0
  -25.3820  -35.9610   23.8650 C   0  0  0  0  0  3  0  0  0  0  0  0
  -27.5060  -36.8320   24.7340 C   0  0  0  0  0  1  0  0  0  0  0  0
  -26.4140  -37.0170   23.7820 N   0  0  0  0  0  0  0  0  0  0  0  0
  -26.0050  -37.9330   23.9410 H   0  0  0  0  0  0  0  0  0  0  0  0
  1  2  1  0
  3  1  1  0
  4 11  1  0
  4  2  1  0
  5  3  1  0
  5 51  1  0
  5  4  1  0
  5  6  1  6
  7 11  1  0
  8 11  2  0
  9  7  2  0
 10  8  1  0
 12 10  2  0
 12  9  1  0
 13 21  1  0
 14 19  1  0
 15 16  1  0
 15 14  1  0
 17 16  1  0
 17 26  1  0
 17 18  1  0
 19 13  1  0
 19 18  1  0
 20 13  2  0
 21 12  1  0
 21 22  1  0
 23 24  2  0
 24 43  1  0
 25 24  1  0
 25 28  1  0
 26 27  1  0
 26 23  1  0
 27 25  2  0
 28 29  1  0
 29 30  2  0
 31 34  1  0
 31 30  1  0
 32 31  2  0
 33 32  1  0
 33 28  2  0
 34 35  1  0
 35 40  2  0
 35 36  1  0
 36 37  2  0
 37 38  1  0
 38 42  1  0
 39 38  2  0
 40 39  1  0
 41 40  1  0
 43 44  1  0
 44 47  1  0
 44 46  1  0
 45 43  2  0
 48 23  1  0
 48 49  1  0
 50 48  1  0
 52 53  1  0
 52 51  1  0
 54 56  1  0
 54 53  1  0
 55 66  2  0
 56 61  1  0
 57 65  1  0
 57 67  1  0
 58 64  1  0
 58 60  1  0
 59 65  1  0
 60 59  1  0
 61 60  2  0
 62 63  1  0
 62 56  2  0
 63 58  2  0
 64 57  1  0
 65 55  1  0
 67 69  2  0
 68 67  1  0
 70 68  1  0
 71 80  2  0
 71 76  1  0
 72 68  1  0
 72 76  1  0
 73 72  1  0
 74 75  1  0
 74 73  1  0
 75 71  1  0
 76 77  2  0
 77 78  1  0
 79 78  2  0
 80 79  1  0
 81 55  1  0
 81 86  1  0
 81 82  1  0
 82 85  1  1
 82 83  1  0
 84 82  1  0
 86 89  1  0
 87 91  1  0
 87 86  1  0
 88 87  2  0
 91 90  1  0
 93 91  1  0
 93 94  1  0
 93 92  1  0
M  ISO  4  13 100  21 100  53 101  54 101
M  END
>  <TORSDO>  (62) 
F 20

>  <SCORE>  (62) 
-10.769

>  <name>  (62) 
62

>  <ligand_id>  (62) 
62

>  <original_smiles>  (62) 
[H]c1c([H])c([H])c2c(c1[H])C([H])([H])C([H])([H])C([H])([H])C2([H])N([H])C(=O)C1([H])N(C(=O)C([H])(N([H])C(=O)C([H])(N([H])C([H])([H])[H])C([H])([H])[H])C(C([H])([H])[H])(C([H])([H])[H])C([H])([H])[H])C([H])([H])c2c([H])c(OC([H])([H])C([H])([H])C([H])([H])[N+]3([H])C([H])([H])C([H])([H])C([H])([H])C3([H])c3c([H])c([H])c(N([H])C(=O)N4C([H])([H])C([H])([H])C([H])([H])C([H])(n5nc(-c6c([H])c([H])c(Oc7c([H])c([H])c(F)c([H])c7F)c([H])c6[H])c(C(=O)N([H])[H])c5N([H])[H])C4([H])[H])c([H])c3[H])c([H])c([H])c2C1([H])[H]

>  <smiles>  (62) 
[H]c1c([H])c([H])c2c(c1[H])C([H])([H])C([H])([H])C([H])([H])C2([H])N([H])C(=O)C1([H])N(C(=O)C([H])(N([H])C(=O)C([H])(N([H])C([H])([H])[H])C([H])([H])[H])C(C([H])([H])[H])(C([H])([H])[H])C([H])([H])[H])C([H])([H])c2c([H])c(OC([H])([H])C([H])([H])C([H])([H])[N+]3([H])C([H])([H])C([H])([H])C([H])([H])C3([H])c3c([H])c([H])c(N([H])C(=O)N4C([H])([H])C([H])([H])C([H])([H])C([H])(n5nc(-c6c([H])c([H])c(Oc7c([H])c([H])c(F)c([H])c7F)c([H])c6[H])c(C(=O)N([H])[H])c5N([H])[H])C4([H])[H])c([H])c3[H])c([H])c([H])c2C1([H])[H]

$$$$
63:0:0
     RDKit          3D

 94102  0  0  1  0  0  0  0  0999 V2000
  -30.4800  -18.4690   19.5910 C   0  0  0  0  0  3  0  0  0  0  0  0
  -30.5000  -19.8820   19.6530 C   0  0  0  0  0  3  0  0  0  0  0  0
  -28.1440  -19.9000   20.2080 C   0  0  0  0  0  3  0  0  0  0  0  0
  -29.2880  -17.7510   19.8360 C   0  0  0  0  0  0  0  0  0  0  0  0
  -29.3280  -20.6310   19.9470 C   0  0  0  0  0  0  0  0  0  0  0  0
  -28.1220  -18.4880   20.1570 C   0  0  0  0  0  0  0  0  0  0  0  0
  -26.9590  -17.8410   20.4030 F   0  0  0  0  0  0  0  0  0  0  0  0
  -30.6320  -22.7140   20.0630 C   0  0  0  0  0  1  0  0  0  0  0  0
  -29.3290  -22.0520   20.0040 N   0  0  0  0  0  0  0  0  0  0  0  0
  -28.2220  -22.7800   19.3570 C   0  0  0  0  0  2  0  0  0  0  0  0
  -27.9160  -24.1800   19.9650 C   0  0  0  0  0  2  0  0  0  0  0  0
  -28.3260  -25.3760   19.0720 C   0  0  0  0  0  2  0  0  0  0  0  0
  -28.2140  -26.6450   19.7380 O   0  0  0  0  0  0  0  0  0  0  0  0
  -24.5230  -31.7330   23.0600 C   0  0  0  0  0  0  0  0  0  0  0  0
  -27.0180  -27.3380   19.7780 C   0  0  0  0  0  0  0  0  0  0  0  0
  -23.2490  -30.4010   21.4090 C   0  0  0  0  0  3  0  0  0  0  0  0
  -24.6380  -28.8790   19.9050 C   0  0  0  0  0  0  0  0  0  0  0  0
  -25.7720  -30.7250   21.1510 C   0  0  0  0  0  2  0  0  0  0  0  0
  -25.8180  -29.3700   20.4740 C   0  0  0  0  0  0  0  0  0  0  0  0
  -27.0050  -28.6060   20.4080 C   0  0  0  0  0  3  0  0  0  0  0  0
  -25.8120  -26.8570   19.2160 C   0  0  0  0  0  3  0  0  0  0  0  0
  -24.6300  -27.6220   19.2750 C   0  0  0  0  0  3  0  0  0  0  0  0
  -23.4090  -29.7550   20.0050 C   0  0  0  0  0  2  0  0  0  0  0  0
  -24.5350  -30.9660   21.9320 N   0  0  0  0  0  0  0  0  0  0  0  0
  -23.4610  -32.0060   23.6360 O   0  0  0  0  0  0  0  0  0  0  0  0
  -22.6060  -29.3640   22.3570 C   0  0  0  0  0  0  0  0  0  0  0  0
  -21.2740  -29.2150   22.2680 N   0  0  0  0  0  0  0  0  0  0  0  0
  -23.3010  -28.6960   23.1290 O   0  0  0  0  0  0  0  0  0  0  0  0
  -20.7750  -29.8080   21.6180 H   0  0  0  0  0  0  0  0  0  0  0  0
  -17.8890  -28.0920   22.8450 C   0  0  0  0  0  0  0  0  0  0  0  0
  -20.4610  -28.2700   23.0310 C   0  0  0  0  0  3  0  0  0  0  0  0
  -20.5030  -26.8610   22.3990 C   0  0  0  0  0  2  0  0  0  0  0  0
  -19.3570  -26.6070   21.4140 C   0  0  0  0  0  2  0  0  0  0  0  0
  -18.0030  -26.7650   22.1130 C   0  0  0  0  0  2  0  0  0  0  0  0
  -19.0440  -28.8050   23.2630 C   0  0  0  0  0  0  0  0  0  0  0  0
  -18.8840  -30.0510   23.9090 C   0  0  0  0  0  3  0  0  0  0  0  0
  -17.6020  -30.5820   24.1400 C   0  0  0  0  0  3  0  0  0  0  0  0
  -16.4620  -29.8640   23.7400 C   0  0  0  0  0  3  0  0  0  0  0  0
  -16.6060  -28.6210   23.0980 C   0  0  0  0  0  3  0  0  0  0  0  0
  -25.8350  -32.3240   23.6630 C   0  0  0  0  0  3  0  0  0  0  0  0
  -25.5520  -33.7080   24.0690 N   0  0  0  0  0  0  0  0  0  0  0  0
  -25.8760  -34.7900   23.3490 C   0  0  0  0  0  0  0  0  0  0  0  0
  -26.5170  -34.7270   22.2950 O   0  0  0  0  0  0  0  0  0  0  0  0
  -24.9840  -33.8310   24.8930 H   0  0  0  0  0  0  0  0  0  0  0  0
  -24.1600  -36.6140   23.1230 C   0  0  0  0  0  1  0  0  0  0  0  0
  -25.4160  -36.1590   23.8830 C   0  0  0  0  0  3  0  0  0  0  0  0
  -27.5810  -36.9770   24.6980 C   0  0  0  0  0  1  0  0  0  0  0  0
  -26.4560  -37.2070   23.7960 N   0  0  0  0  0  0  0  0  0  0  0  0
  -26.0640  -38.1210   24.0060 H   0  0  0  0  0  0  0  0  0  0  0  0
  -26.3900  -31.4890   24.8820 C   0  0  1  0  0  0  0  0  0  0  0  0
  -25.3320  -31.2030   25.9740 C   0  0  0  0  0  1  0  0  0  0  0  0
  -26.9540  -30.1320   24.4010 C   0  0  0  0  0  1  0  0  0  0  0  0
  -27.5670  -32.2450   25.5450 C   0  0  0  0  0  1  0  0  0  0  0  0
  -29.2140  -16.2240   19.6460 C   0  0  0  0  0  2  0  0  0  0  0  0
  -30.7810  -14.3520   19.4000 C   0  0  0  0  0  0  0  0  0  0  0  0
  -30.2850  -12.1600   18.3600 C   0  0  0  0  0  2  0  0  0  0  0  0
  -29.1950  -12.3220   17.2820 C   0  0  0  0  0  2  0  0  0  0  0  0
  -27.7930  -12.2030   17.9090 C   0  0  0  0  0  2  0  0  0  0  0  0
  -27.6260  -13.0970   19.1640 C   0  0  0  0  0  3  0  0  0  0  0  0
  -28.8170  -12.9260   20.1350 C   0  0  0  0  0  2  0  0  0  0  0  0
  -30.0580  -13.1930   19.3860 N   0  0  0  0  0  0  0  0  0  0  0  0
  -31.8040  -14.4960   18.7230 O   0  0  0  0  0  0  0  0  0  0  0  0
  -30.3030  -15.3640   20.1720 N   0  0  0  0  0  0  0  0  0  0  0  0
  -25.3920  -13.7840   20.2360 C   0  0  0  0  0  0  0  0  0  0  0  0
  -24.3500  -13.0450   20.7280 C   0  0  0  0  0  0  0  0  0  0  0  0
  -24.7340  -11.6780   20.5810 C   0  0  0  0  0  0  0  0  0  0  0  0
  -26.3470  -12.8660   19.8270 N   0  0  0  0  0  0  0  0  0  0  0  0
  -25.9630  -11.5930   20.0880 N   0  0  0  0  0  0  0  0  0  0  0  0
  -23.9820  -10.4420   20.8290 C   0  0  0  0  0  0  0  0  0  0  0  0
  -24.4390   -9.4710   21.7460 C   0  0  0  0  0  3  0  0  0  0  0  0
  -23.6900   -8.2980   21.9800 C   0  0  0  0  0  3  0  0  0  0  0  0
  -22.4680   -8.0890   21.2960 C   0  0  0  0  0  0  0  0  0  0  0  0
  -22.0290   -9.0480   20.3660 C   0  0  0  0  0  3  0  0  0  0  0  0
  -22.7790  -10.2130   20.1310 C   0  0  0  0  0  3  0  0  0  0  0  0
  -21.6860   -6.9700   21.4410 O   0  0  0  0  0  0  0  0  0  0  0  0
  -21.6030   -6.3000   22.6350 C   0  0  0  0  0  0  0  0  0  0  0  0
  -21.1720   -6.9370   23.8190 C   0  0  0  0  0  3  0  0  0  0  0  0
  -21.0340   -6.1950   25.0080 C   0  0  0  0  0  3  0  0  0  0  0  0
  -21.3170   -4.8170   25.0150 C   0  0  0  0  0  0  0  0  0  0  0  0
  -21.7410   -4.1790   23.8360 C   0  0  0  0  0  3  0  0  0  0  0  0
  -21.8810   -4.9180   22.6490 C   0  0  0  0  0  0  0  0  0  0  0  0
  -22.2700   -4.2950   21.5110 F   0  0  0  0  0  0  0  0  0  0  0  0
  -21.1770   -4.1020   26.1550 F   0  0  0  0  0  0  0  0  0  0  0  0
  -23.0340  -13.5730   21.2210 C   0  0  0  0  0  0  0  0  0  0  0  0
  -22.4170  -12.8820   22.1720 N   0  0  0  0  0  0  0  0  0  0  0  0
  -22.5670  -14.6300   20.7960 O   0  0  0  0  0  0  0  0  0  0  0  0
  -22.8090  -12.0230   22.5310 H   0  0  0  0  0  0  0  0  0  0  0  0
  -21.5400  -13.2150   22.5490 H   0  0  0  0  0  0  0  0  0  0  0  0
  -25.5970  -15.1520   20.0830 N   0  0  0  0  0  0  0  0  0  0  0  0
  -24.8930  -15.8360   20.3370 H   0  0  0  0  0  0  0  0  0  0  0  0
  -26.4140  -15.5690   19.6590 H   0  0  0  0  0  0  0  0  0  0  0  0
  -31.3460  -14.6950   22.3440 C   0  0  0  0  0  1  0  0  0  0  0  0
  -32.2500  -16.6960   21.0650 C   0  0  0  0  0  1  0  0  0  0  0  0
  -31.0010  -15.8490   21.3830 C   0  0  0  0  0  3  0  0  0  0  0  0
  1  2  2  0
  1  4  1  0
  2  5  1  0
  4  6  2  0
  5  9  1  0
  5  3  2  0
  6  3  1  0
  6  7  1  0
  9  8  1  0
 10 11  1  0
 10  9  1  0
 12 13  1  0
 12 11  1  0
 13 15  1  0
 14 25  2  0
 15 20  1  0
 16 24  1  0
 16 26  1  0
 17 23  1  0
 17 19  1  0
 18 24  1  0
 19 18  1  0
 20 19  2  0
 21 22  1  0
 21 15  2  0
 22 17  2  0
 23 16  1  0
 24 14  1  0
 26 28  2  0
 27 26  1  0
 29 27  1  0
 30 39  2  0
 30 35  1  0
 31 27  1  0
 31 35  1  0
 32 31  1  0
 33 34  1  0
 33 32  1  0
 34 30  1  0
 35 36  2  0
 36 37  1  0
 38 37  2  0
 39 38  1  0
 40 14  1  0
 40 41  1  0
 40 50  1  0
 41 44  1  0
 42 46  1  0
 42 41  1  0
 43 42  2  0
 46 45  1  0
 48 46  1  0
 48 49  1  0
 48 47  1  0
 50 53  1  1
 50 51  1  0
 52 50  1  0
 54  4  1  0
 54 63  1  0
 55 63  1  0
 56 61  1  0
 57 58  1  0
 57 56  1  0
 59 58  1  0
 59 67  1  0
 59 60  1  0
 61 55  1  0
 61 60  1  0
 62 55  2  0
 63 94  1  0
 64 65  2  0
 65 84  1  0
 66 65  1  0
 66 69  1  0
 67 68  1  0
 67 64  1  0
 68 66  2  0
 69 70  1  0
 70 71  2  0
 72 75  1  0
 72 71  1  0
 73 72  2  0
 74 73  1  0
 74 69  2  0
 75 76  1  0
 76 81  2  0
 76 77  1  0
 77 78  2  0
 78 79  1  0
 79 83  1  0
 80 79  2  0
 81 80  1  0
 82 81  1  0
 84 85  1  0
 85 87  1  0
 85 88  1  0
 86 84  2  0
 89 64  1  0
 89 90  1  0
 91 89  1  0
 93 94  1  0
 94 92  1  0
M  ISO  4  12 101  13 101  55 100  63 100
M  END
>  <TORSDO>  (63) 
F 22

>  <SCORE>  (63) 
-11.309

>  <name>  (63) 
63

>  <ligand_id>  (63) 
63

>  <original_smiles>  (63) 
[H]c1c([H])c([H])c2c(c1[H])C([H])([H])C([H])([H])C([H])([H])C2([H])N([H])C(=O)C1([H])N(C(=O)C([H])(N([H])C(=O)C([H])(N([H])C([H])([H])[H])C([H])([H])[H])C(C([H])([H])[H])(C([H])([H])[H])C([H])([H])[H])C([H])([H])c2c([H])c(OC([H])([H])C([H])([H])C([H])([H])N(c3c([H])c([H])c(C([H])([H])N(C(=O)N4C([H])([H])C([H])([H])C([H])([H])C([H])(n5nc(-c6c([H])c([H])c(Oc7c([H])c([H])c(F)c([H])c7F)c([H])c6[H])c(C(=O)N([H])[H])c5N([H])[H])C4([H])[H])C([H])(C([H])([H])[H])C([H])([H])[H])c(F)c3[H])C([H])([H])[H])c([H])c([H])c2C1([H])[H]

>  <smiles>  (63) 
[H]c1c([H])c([H])c2c(c1[H])C([H])([H])C([H])([H])C([H])([H])C2([H])N([H])C(=O)C1([H])N(C(=O)C([H])(N([H])C(=O)C([H])(N([H])C([H])([H])[H])C([H])([H])[H])C(C([H])([H])[H])(C([H])([H])[H])C([H])([H])[H])C([H])([H])c2c([H])c(OC([H])([H])C([H])([H])C([H])([H])N(c3c([H])c([H])c(C([H])([H])N(C(=O)N4C([H])([H])C([H])([H])C([H])([H])C([H])(n5nc(-c6c([H])c([H])c(Oc7c([H])c([H])c(F)c([H])c7F)c([H])c6[H])c(C(=O)N([H])[H])c5N([H])[H])C4([H])[H])C([H])(C([H])([H])[H])C([H])([H])[H])c(F)c3[H])C([H])([H])[H])c([H])c([H])c2C1([H])[H]

$$$$
64:0:0
     RDKit          3D

 91100  0  0  1  0  0  0  0  0999 V2000
  -27.2690  -24.2080   19.9530 C   0  0  0  0  0  2  0  0  0  0  0  0
  -27.7500  -22.8120   20.4750 C   0  0  0  0  0  2  0  0  0  0  0  0
  -29.5350  -23.9280   19.4520 C   0  0  0  0  0  2  0  0  0  0  0  0
  -28.4990  -25.1320   19.9100 C   0  0  0  0  0  3  0  0  0  0  0  0
  -29.1220  -22.5610   20.0140 N   0  0  0  0  0  0  0  0  0  0  0  0
  -30.2800  -20.5600   18.8100 C   0  0  0  0  0  3  0  0  0  0  0  0
  -30.6860  -19.1640   18.7180 C   0  0  0  0  0  3  0  0  0  0  0  0
  -30.0180  -18.7940   20.9350 C   0  0  0  0  0  3  0  0  0  0  0  0
  -29.6070  -20.1930   21.0370 C   0  0  0  0  0  0  0  0  0  0  0  0
  -29.6700  -21.1650   19.9580 C   0  0  0  0  0  0  0  0  0  0  0  0
  -30.5560  -18.1740   19.7610 C   0  0  0  0  0  0  0  0  0  0  0  0
  -29.0830  -20.6170   22.4000 C   0  0  0  0  0  1  0  0  0  0  0  0
  -31.3510  -15.5490   20.0700 C   0  0  0  0  0  0  0  0  0  0  0  0
  -31.2620  -13.0830   19.4580 C   0  0  0  0  0  2  0  0  0  0  0  0
  -30.3650  -12.8120   18.2270 C   0  0  0  0  0  2  0  0  0  0  0  0
  -28.8770  -12.7090   18.6300 C   0  0  0  0  0  2  0  0  0  0  0  0
  -28.4340  -13.7740   19.6720 C   0  0  0  0  0  3  0  0  0  0  0  0
  -29.4680  -13.9560   20.8010 C   0  0  0  0  0  2  0  0  0  0  0  0
  -30.7420  -14.2920   20.1530 N   0  0  0  0  0  0  0  0  0  0  0  0
  -32.5860  -15.5590   20.0050 O   0  0  0  0  0  0  0  0  0  0  0  0
  -30.4120  -16.4200   18.0730 C   0  0  0  0  0  1  0  0  0  0  0  0
  -30.6180  -16.6530   19.5130 N   0  0  0  0  0  0  0  0  0  0  0  0
  -26.0950  -14.4630   20.4350 C   0  0  0  0  0  0  0  0  0  0  0  0
  -24.9870  -13.7360   20.7730 C   0  0  0  0  0  0  0  0  0  0  0  0
  -25.3770  -12.3630   20.7010 C   0  0  0  0  0  0  0  0  0  0  0  0
  -27.0870  -13.5340   20.1700 N   0  0  0  0  0  0  0  0  0  0  0  0
  -26.6660  -12.2640   20.3970 N   0  0  0  0  0  0  0  0  0  0  0  0
  -24.5830  -11.1370   20.8450 C   0  0  0  0  0  0  0  0  0  0  0  0
  -24.8800  -10.1780   21.8390 C   0  0  0  0  0  3  0  0  0  0  0  0
  -24.0890   -9.0170   21.9710 C   0  0  0  0  0  3  0  0  0  0  0  0
  -22.9870   -8.8070   21.1080 C   0  0  0  0  0  0  0  0  0  0  0  0
  -22.7100   -9.7540   20.1050 C   0  0  0  0  0  3  0  0  0  0  0  0
  -23.5020  -10.9070   19.9720 C   0  0  0  0  0  3  0  0  0  0  0  0
  -22.1770   -7.6970   21.1460 O   0  0  0  0  0  0  0  0  0  0  0  0
  -21.8710   -7.0730   22.3280 C   0  0  0  0  0  0  0  0  0  0  0  0
  -21.2290   -7.7530   23.3880 C   0  0  0  0  0  3  0  0  0  0  0  0
  -20.8710   -7.0540   24.5570 C   0  0  0  0  0  3  0  0  0  0  0  0
  -21.1430   -5.6770   24.6670 C   0  0  0  0  0  0  0  0  0  0  0  0
  -21.7780   -4.9980   23.6120 C   0  0  0  0  0  3  0  0  0  0  0  0
  -22.1380   -5.6940   22.4460 C   0  0  0  0  0  0  0  0  0  0  0  0
  -22.7290   -5.0310   21.4230 F   0  0  0  0  0  0  0  0  0  0  0  0
  -20.7920   -5.0030   25.7870 F   0  0  0  0  0  0  0  0  0  0  0  0
  -23.6160  -14.2800   21.0530 C   0  0  0  0  0  0  0  0  0  0  0  0
  -22.8540  -13.6030   21.9050 N   0  0  0  0  0  0  0  0  0  0  0  0
  -23.2330  -15.3380   20.5550 O   0  0  0  0  0  0  0  0  0  0  0  0
  -23.1770  -12.7440   22.3230 H   0  0  0  0  0  0  0  0  0  0  0  0
  -21.9340  -13.9480   22.1430 H   0  0  0  0  0  0  0  0  0  0  0  0
  -26.3350  -15.8280   20.3050 N   0  0  0  0  0  0  0  0  0  0  0  0
  -25.6060  -16.5220   20.4310 H   0  0  0  0  0  0  0  0  0  0  0  0
  -27.2180  -16.2290   20.0120 H   0  0  0  0  0  0  0  0  0  0  0  0
  -28.3910  -26.5770   19.3230 O   0  0  0  0  0  0  0  0  0  0  0  0
  -24.5020  -31.6990   22.9540 C   0  0  0  0  0  0  0  0  0  0  0  0
  -27.2420  -27.4370   19.4590 C   0  0  0  0  0  0  0  0  0  0  0  0
  -23.3070  -30.3080   21.3060 C   0  0  0  0  0  3  0  0  0  0  0  0
  -24.7770  -28.9640   19.6860 C   0  0  0  0  0  0  0  0  0  0  0  0
  -25.8100  -30.8130   20.9900 C   0  0  0  0  0  2  0  0  0  0  0  0
  -25.9550  -29.4750   20.2490 C   0  0  0  0  0  0  0  0  0  0  0  0
  -27.1860  -28.7290   20.1170 C   0  0  0  0  0  3  0  0  0  0  0  0
  -26.0340  -27.0400   18.8450 C   0  0  0  0  0  3  0  0  0  0  0  0
  -24.8290  -27.7620   18.9650 C   0  0  0  0  0  3  0  0  0  0  0  0
  -23.4850  -29.7430   19.8720 C   0  0  0  0  0  2  0  0  0  0  0  0
  -24.5610  -30.9600   21.8040 N   0  0  0  0  0  0  0  0  0  0  0  0
  -23.4370  -31.8540   23.5710 O   0  0  0  0  0  0  0  0  0  0  0  0
  -22.7890  -29.1850   22.2380 C   0  0  0  0  0  0  0  0  0  0  0  0
  -21.4820  -28.8770   22.1590 N   0  0  0  0  0  0  0  0  0  0  0  0
  -23.5610  -28.5940   22.9970 O   0  0  0  0  0  0  0  0  0  0  0  0
  -20.9070  -29.4110   21.5210 H   0  0  0  0  0  0  0  0  0  0  0  0
  -18.3020  -27.2110   22.6390 C   0  0  0  0  0  0  0  0  0  0  0  0
  -20.8010  -27.8190   22.9100 C   0  0  0  0  0  3  0  0  0  0  0  0
  -21.0990  -26.4280   22.3050 C   0  0  0  0  0  2  0  0  0  0  0  0
  -20.0470  -25.9750   21.2870 C   0  0  0  0  0  2  0  0  0  0  0  0
  -18.6620  -25.9130   21.9360 C   0  0  0  0  0  2  0  0  0  0  0  0
  -19.3060  -28.1130   23.0820 C   0  0  0  0  0  0  0  0  0  0  0  0
  -18.9150  -29.3200   23.7020 C   0  0  0  0  0  3  0  0  0  0  0  0
  -17.5530  -29.6290   23.8820 C   0  0  0  0  0  3  0  0  0  0  0  0
  -16.5640  -28.7270   23.4540 C   0  0  0  0  0  3  0  0  0  0  0  0
  -16.9400  -27.5200   22.8370 C   0  0  0  0  0  3  0  0  0  0  0  0
  -25.7640  -32.4040   23.5360 C   0  0  0  0  0  3  0  0  0  0  0  0
  -25.3630  -33.7490   23.9810 N   0  0  0  0  0  0  0  0  0  0  0  0
  -25.6160  -34.8810   23.3120 C   0  0  0  0  0  0  0  0  0  0  0  0
  -26.2780  -34.9060   22.2710 O   0  0  0  0  0  0  0  0  0  0  0  0
  -24.7670  -33.7970   24.7940 H   0  0  0  0  0  0  0  0  0  0  0  0
  -23.7730  -36.5840   23.1140 C   0  0  0  0  0  1  0  0  0  0  0  0
  -25.0450  -36.1930   23.8850 C   0  0  0  0  0  3  0  0  0  0  0  0
  -27.1260  -37.1420   24.7810 C   0  0  0  0  0  1  0  0  0  0  0  0
  -26.0080  -37.3170   23.8570 N   0  0  0  0  0  0  0  0  0  0  0  0
  -25.5460  -38.1940   24.0790 H   0  0  0  0  0  0  0  0  0  0  0  0
  -26.4250  -31.6050   24.7260 C   0  0  1  0  0  0  0  0  0  0  0  0
  -25.4280  -31.2190   25.8450 C   0  0  0  0  0  1  0  0  0  0  0  0
  -27.0840  -30.3030   24.2180 C   0  0  0  0  0  1  0  0  0  0  0  0
  -27.5550  -32.4500   25.3610 C   0  0  0  0  0  1  0  0  0  0  0  0
  1  2  1  0
  3  4  1  0
  3  5  1  0
  4 51  1  0
  4  1  1  0
  5  2  1  0
  6 10  1  0
  7  6  2  0
  7 11  1  0
  8  9  1  0
  9 12  1  0
 10  5  1  0
 10  9  2  0
 11  8  2  0
 13 19  1  0
 14 19  1  0
 15 16  1  0
 15 14  1  0
 17 16  1  0
 17 26  1  0
 17 18  1  0
 19 18  1  0
 20 13  2  0
 21 22  1  0
 22 11  1  0
 22 13  1  0
 23 24  2  0
 24 43  1  0
 25 24  1  0
 25 28  1  0
 26 27  1  0
 26 23  1  0
 27 25  2  0
 28 29  1  0
 29 30  2  0
 31 34  1  0
 31 30  1  0
 32 31  2  0
 33 32  1  0
 33 28  2  0
 34 35  1  0
 35 40  2  0
 35 36  1  0
 36 37  2  0
 37 38  1  0
 38 42  1  0
 39 38  2  0
 40 39  1  0
 41 40  1  0
 43 44  1  0
 44 47  1  0
 44 46  1  0
 45 43  2  0
 48 49  1  0
 48 23  1  0
 50 48  1  0
 51 53  1  0
 52 63  2  0
 53 58  1  0
 54 62  1  0
 54 64  1  0
 55 61  1  0
 55 57  1  0
 56 62  1  0
 57 56  1  0
 58 57  2  0
 59 60  1  0
 59 53  2  0
 60 55  2  0
 61 54  1  0
 62 52  1  0
 64 66  2  0
 65 64  1  0
 67 65  1  0
 68 77  2  0
 68 73  1  0
 69 65  1  0
 69 73  1  0
 70 69  1  0
 71 72  1  0
 71 70  1  0
 72 68  1  0
 73 74  2  0
 74 75  1  0
 76 75  2  0
 77 76  1  0
 78 52  1  0
 78 79  1  0
 78 88  1  0
 79 82  1  0
 80 84  1  0
 80 79  1  0
 81 80  2  0
 84 83  1  0
 86 84  1  0
 86 87  1  0
 86 85  1  0
 88 91  1  1
 88 89  1  0
 90 88  1  0
M  ISO  4   4 101  13 100  22 100  51 101
M  END
>  <TORSDO>  (64) 
F 17

>  <SCORE>  (64) 
-11.274

>  <name>  (64) 
64

>  <ligand_id>  (64) 
64

>  <original_smiles>  (64) 
[H]c1c([H])c([H])c2c(c1[H])C([H])([H])C([H])([H])C([H])([H])C2([H])N([H])C(=O)C1([H])N(C(=O)C([H])(N([H])C(=O)C([H])(N([H])C([H])([H])[H])C([H])([H])[H])C(C([H])([H])[H])(C([H])([H])[H])C([H])([H])[H])C([H])([H])c2c([H])c(OC3([H])C([H])([H])N(c4c([H])c([H])c(N(C(=O)N5C([H])([H])C([H])([H])C([H])([H])C([H])(n6nc(-c7c([H])c([H])c(Oc8c([H])c([H])c(F)c([H])c8F)c([H])c7[H])c(C(=O)N([H])[H])c6N([H])[H])C5([H])[H])C([H])([H])[H])c([H])c4C([H])([H])[H])C([H])([H])C3([H])[H])c([H])c([H])c2C1([H])[H]

>  <smiles>  (64) 
[H]c1c([H])c([H])c2c(c1[H])C([H])([H])C([H])([H])C([H])([H])C2([H])N([H])C(=O)C1([H])N(C(=O)C([H])(N([H])C(=O)C([H])(N([H])C([H])([H])[H])C([H])([H])[H])C(C([H])([H])[H])(C([H])([H])[H])C([H])([H])[H])C([H])([H])c2c([H])c(OC3([H])C([H])([H])N(c4c([H])c([H])c(N(C(=O)N5C([H])([H])C([H])([H])C([H])([H])C([H])(n6nc(-c7c([H])c([H])c(Oc8c([H])c([H])c(F)c([H])c8F)c([H])c7[H])c(C(=O)N([H])[H])c6N([H])[H])C5([H])[H])C([H])([H])[H])c([H])c4C([H])([H])[H])C([H])([H])C3([H])[H])c([H])c([H])c2C1([H])[H]

$$$$
65:0:0
     RDKit          3D

 94102  0  0  1  0  0  0  0  0999 V2000
  -28.9910  -21.0120   18.4790 C   0  0  0  0  0  2  0  0  0  0  0  0
  -31.4330  -17.8820   20.2690 C   0  0  0  0  0  3  0  0  0  0  0  0
  -32.0180  -19.1050   19.8860 C   0  0  0  0  0  3  0  0  0  0  0  0
  -29.2590  -18.7110   19.5510 C   0  0  0  0  0  3  0  0  0  0  0  0
  -30.0480  -17.6700   20.0940 C   0  0  0  0  0  0  0  0  0  0  0  0
  -29.8410  -19.9360   19.1510 C   0  0  0  0  0  0  0  0  0  0  0  0
  -31.2300  -20.1240   19.3200 C   0  0  0  0  0  0  0  0  0  0  0  0
  -31.8050  -21.2900   18.9380 F   0  0  0  0  0  0  0  0  0  0  0  0
  -29.3630  -16.3410   20.4170 C   0  0  0  0  0  2  0  0  0  0  0  0
  -30.7430  -14.3240   20.1670 C   0  0  0  0  0  0  0  0  0  0  0  0
  -30.3190  -12.2450   18.9070 C   0  0  0  0  0  2  0  0  0  0  0  0
  -29.3100  -12.5100   17.7730 C   0  0  0  0  0  2  0  0  0  0  0  0
  -27.8620  -12.3730   18.2840 C   0  0  0  0  0  2  0  0  0  0  0  0
  -27.6130  -13.1720   19.5900 C   0  0  0  0  0  3  0  0  0  0  0  0
  -28.7230  -12.8860   20.6260 C   0  0  0  0  0  2  0  0  0  0  0  0
  -30.0230  -13.1820   19.9990 N   0  0  0  0  0  0  0  0  0  0  0  0
  -31.8040  -14.5460   19.5750 O   0  0  0  0  0  0  0  0  0  0  0  0
  -30.6810  -15.4340   22.3380 C   0  0  0  0  0  1  0  0  0  0  0  0
  -30.1830  -15.2500   20.9730 N   0  0  0  0  0  0  0  0  0  0  0  0
  -25.2710  -13.8190   20.4380 C   0  0  0  0  0  0  0  0  0  0  0  0
  -24.2100  -13.0610   20.8540 C   0  0  0  0  0  0  0  0  0  0  0  0
  -24.6440  -11.7030   20.7770 C   0  0  0  0  0  0  0  0  0  0  0  0
  -26.2840  -12.9210   20.1380 N   0  0  0  0  0  0  0  0  0  0  0  0
  -25.9130  -11.6430   20.3970 N   0  0  0  0  0  0  0  0  0  0  0  0
  -23.9090  -10.4500   20.9880 C   0  0  0  0  0  0  0  0  0  0  0  0
  -24.3740   -9.4660   21.8860 C   0  0  0  0  0  3  0  0  0  0  0  0
  -23.6430   -8.2750   22.0850 C   0  0  0  0  0  3  0  0  0  0  0  0
  -22.4300   -8.0630   21.3880 C   0  0  0  0  0  0  0  0  0  0  0  0
  -21.9830   -9.0370   20.4780 C   0  0  0  0  0  3  0  0  0  0  0  0
  -22.7150  -10.2180   20.2770 C   0  0  0  0  0  3  0  0  0  0  0  0
  -21.6650   -6.9270   21.4990 O   0  0  0  0  0  0  0  0  0  0  0  0
  -21.6550   -6.1760   22.6460 C   0  0  0  0  0  0  0  0  0  0  0  0
  -21.3090   -6.7310   23.8970 C   0  0  0  0  0  3  0  0  0  0  0  0
  -21.2440   -5.9060   25.0390 C   0  0  0  0  0  3  0  0  0  0  0  0
  -21.5130   -4.5290   24.9300 C   0  0  0  0  0  0  0  0  0  0  0  0
  -21.8520   -3.9740   23.6840 C   0  0  0  0  0  3  0  0  0  0  0  0
  -21.9190   -4.7950   22.5440 C   0  0  0  0  0  0  0  0  0  0  0  0
  -22.2240   -4.2510   21.3420 F   0  0  0  0  0  0  0  0  0  0  0  0
  -21.4430   -3.7360   26.0240 F   0  0  0  0  0  0  0  0  0  0  0  0
  -22.8390  -13.5580   21.2080 C   0  0  0  0  0  0  0  0  0  0  0  0
  -22.1510  -12.8660   22.1100 N   0  0  0  0  0  0  0  0  0  0  0  0
  -22.3880  -14.5940   20.7210 O   0  0  0  0  0  0  0  0  0  0  0  0
  -22.5290  -12.0300   22.5280 H   0  0  0  0  0  0  0  0  0  0  0  0
  -21.2310  -13.1780   22.3860 H   0  0  0  0  0  0  0  0  0  0  0  0
  -25.4500  -15.1900   20.2690 N   0  0  0  0  0  0  0  0  0  0  0  0
  -24.7050  -15.8570   20.4370 H   0  0  0  0  0  0  0  0  0  0  0  0
  -26.2900  -15.6190   19.9040 H   0  0  0  0  0  0  0  0  0  0  0  0
  -29.2090  -22.3710   19.0250 N   0  0  0  0  0  4  0  0  0  0  0  0
  -30.1920  -22.5670   18.9160 H   0  0  0  0  0  0  0  0  0  0  0  0
  -28.9930  -22.3530   20.0080 H   0  0  0  0  0  0  0  0  0  0  0  0
  -28.3990  -23.4160   18.3500 C   0  0  0  0  0  2  0  0  0  0  0  0
  -28.8020  -24.8690   18.6940 C   0  0  0  0  0  2  0  0  0  0  0  0
  -28.4450  -25.3290   20.1200 C   0  0  0  0  0  2  0  0  0  0  0  0
  -28.4700  -26.7570   20.2220 O   0  0  0  0  0  0  0  0  0  0  0  0
  -24.5980  -31.8880   23.2330 C   0  0  0  0  0  0  0  0  0  0  0  0
  -27.2730  -27.4440   20.1920 C   0  0  0  0  0  0  0  0  0  0  0  0
  -23.4010  -30.4740   21.5950 C   0  0  0  0  0  3  0  0  0  0  0  0
  -24.8640  -28.9310   20.1850 C   0  0  0  0  0  0  0  0  0  0  0  0
  -25.9250  -30.8400   21.4030 C   0  0  0  0  0  2  0  0  0  0  0  0
  -26.0170  -29.4660   20.7740 C   0  0  0  0  0  0  0  0  0  0  0  0
  -27.2220  -28.7300   20.7730 C   0  0  0  0  0  3  0  0  0  0  0  0
  -26.1010  -26.9210   19.5940 C   0  0  0  0  0  3  0  0  0  0  0  0
  -24.9020  -27.6570   19.5930 C   0  0  0  0  0  3  0  0  0  0  0  0
  -23.6170  -29.7830   20.2210 C   0  0  0  0  0  2  0  0  0  0  0  0
  -24.6600  -31.0820   22.1360 N   0  0  0  0  0  0  0  0  0  0  0  0
  -23.5150  -32.1620   23.7680 O   0  0  0  0  0  0  0  0  0  0  0  0
  -22.7480  -29.4570   22.5590 C   0  0  0  0  0  0  0  0  0  0  0  0
  -21.4260  -29.2700   22.4230 N   0  0  0  0  0  0  0  0  0  0  0  0
  -23.4280  -28.8400   23.3830 O   0  0  0  0  0  0  0  0  0  0  0  0
  -20.9400  -29.8200   21.7290 H   0  0  0  0  0  0  0  0  0  0  0  0
  -18.0540  -28.0630   22.8930 C   0  0  0  0  0  0  0  0  0  0  0  0
  -20.6070  -28.3360   23.1940 C   0  0  0  0  0  3  0  0  0  0  0  0
  -20.7240  -26.9010   22.6340 C   0  0  0  0  0  2  0  0  0  0  0  0
  -19.6370  -26.5610   21.6100 C   0  0  0  0  0  2  0  0  0  0  0  0
  -18.2460  -26.7070   22.2340 C   0  0  0  0  0  2  0  0  0  0  0  0
  -19.1640  -28.8350   23.3280 C   0  0  0  0  0  0  0  0  0  0  0  0
  -18.9310  -30.1040   23.9020 C   0  0  0  0  0  3  0  0  0  0  0  0
  -17.6230  -30.6010   24.0450 C   0  0  0  0  0  3  0  0  0  0  0  0
  -16.5280  -29.8270   23.6250 C   0  0  0  0  0  3  0  0  0  0  0  0
  -16.7440  -28.5590   23.0560 C   0  0  0  0  0  3  0  0  0  0  0  0
  -25.8820  -32.5240   23.8550 C   0  0  0  0  0  3  0  0  0  0  0  0
  -25.5660  -33.9190   24.1880 N   0  0  0  0  0  0  0  0  0  0  0  0
  -25.8900  -34.9740   23.4290 C   0  0  0  0  0  0  0  0  0  0  0  0
  -26.5600  -34.8770   22.3960 O   0  0  0  0  0  0  0  0  0  0  0  0
  -24.9740  -34.0700   24.9920 H   0  0  0  0  0  0  0  0  0  0  0  0
  -24.1440  -36.7500   23.0820 C   0  0  0  0  0  1  0  0  0  0  0  0
  -25.3940  -36.3590   23.8870 C   0  0  0  0  0  3  0  0  0  0  0  0
  -27.5320  -37.2570   24.6960 C   0  0  0  0  0  1  0  0  0  0  0  0
  -26.4160  -37.4210   23.7670 N   0  0  0  0  0  0  0  0  0  0  0  0
  -26.0040  -38.3360   23.9280 H   0  0  0  0  0  0  0  0  0  0  0  0
  -26.4060  -31.7510   25.1270 C   0  0  1  0  0  0  0  0  0  0  0  0
  -25.3170  -31.5040   26.1970 C   0  0  0  0  0  1  0  0  0  0  0  0
  -26.9930  -30.3780   24.7250 C   0  0  0  0  0  1  0  0  0  0  0  0
  -27.5560  -32.5480   25.7880 C   0  0  0  0  0  1  0  0  0  0  0  0
  1 48  1  0
  1  6  1  0
  3  2  2  0
  4  5  2  0
  5  2  1  0
  5  9  1  0
  6  7  2  0
  6  4  1  0
  7  3  1  0
  8  7  1  0
  9 19  1  0
 10 19  1  0
 11 16  1  0
 12 13  1  0
 12 11  1  0
 14 13  1  0
 14 23  1  0
 14 15  1  0
 16 10  1  0
 16 15  1  0
 17 10  2  0
 19 18  1  0
 20 21  2  0
 21 40  1  0
 22 21  1  0
 22 25  1  0
 23 24  1  0
 23 20  1  0
 24 22  2  0
 25 26  1  0
 26 27  2  0
 28 31  1  0
 28 27  1  0
 29 28  2  0
 30 29  1  0
 30 25  2  0
 31 32  1  0
 32 33  1  0
 33 34  2  0
 35 34  1  0
 35 39  1  0
 36 35  2  0
 37 32  2  0
 37 36  1  0
 38 37  1  0
 40 41  1  0
 41 44  1  0
 41 43  1  0
 42 40  2  0
 45 46  1  0
 45 20  1  0
 47 45  1  0
 48 50  1  0
 49 48  1  0
 51 52  1  0
 51 48  1  0
 52 53  1  0
 53 54  1  0
 55 66  2  0
 56 54  1  0
 56 61  1  0
 57 65  1  0
 57 67  1  0
 58 64  1  0
 58 60  1  0
 59 65  1  0
 60 59  1  0
 61 60  2  0
 62 56  2  0
 63 62  1  0
 63 58  2  0
 64 57  1  0
 65 55  1  0
 67 69  2  0
 68 67  1  0
 70 68  1  0
 71 80  2  0
 71 76  1  0
 72 68  1  0
 72 76  1  0
 73 72  1  0
 74 75  1  0
 74 73  1  0
 75 71  1  0
 76 77  2  0
 77 78  1  0
 79 78  2  0
 80 79  1  0
 81 55  1  0
 81 82  1  0
 81 91  1  0
 82 85  1  0
 83 87  1  0
 83 82  1  0
 84 83  2  0
 87 86  1  0
 89 87  1  0
 89 90  1  0
 89 88  1  0
 91 94  1  1
 91 92  1  0
 93 91  1  0
M  ISO  4  10 100  19 100  53 101  54 101
M  END
>  <TORSDO>  (65) 
F 22

>  <SCORE>  (65) 
-12.616

>  <name>  (65) 
65

>  <ligand_id>  (65) 
65

>  <original_smiles>  (65) 
[H]c1c([H])c([H])c2c(c1[H])C([H])([H])C([H])([H])C([H])([H])C2([H])N([H])C(=O)C1([H])N(C(=O)C([H])(N([H])C(=O)C([H])(N([H])C([H])([H])[H])C([H])([H])[H])C(C([H])([H])[H])(C([H])([H])[H])C([H])([H])[H])C([H])([H])c2c([H])c(OC([H])([H])C([H])([H])C([H])([H])[N+]([H])([H])C([H])([H])c3c([H])c(C([H])([H])N(C(=O)N4C([H])([H])C([H])([H])C([H])([H])C([H])(n5nc(-c6c([H])c([H])c(Oc7c([H])c([H])c(F)c([H])c7F)c([H])c6[H])c(C(=O)N([H])[H])c5N([H])[H])C4([H])[H])C([H])([H])[H])c([H])c([H])c3F)c([H])c([H])c2C1([H])[H]

>  <smiles>  (65) 
[H]c1c([H])c([H])c2c(c1[H])C([H])([H])C([H])([H])C([H])([H])C2([H])N([H])C(=O)C1([H])N(C(=O)C([H])(N([H])C(=O)C([H])(N([H])C([H])([H])[H])C([H])([H])[H])C(C([H])([H])[H])(C([H])([H])[H])C([H])([H])[H])C([H])([H])c2c([H])c(OC([H])([H])C([H])([H])C([H])([H])[N+]([H])([H])C([H])([H])c3c([H])c(C([H])([H])N(C(=O)N4C([H])([H])C([H])([H])C([H])([H])C([H])(n5nc(-c6c([H])c([H])c(Oc7c([H])c([H])c(F)c([H])c7F)c([H])c6[H])c(C(=O)N([H])[H])c5N([H])[H])C4([H])[H])C([H])([H])[H])c([H])c([H])c3F)c([H])c([H])c2C1([H])[H]

$$$$
66:0:0
     RDKit          3D

 87 96  0  0  1  0  0  0  0  0999 V2000
  -30.3540  -15.6740   20.2220 C   0  0  0  0  0  0  0  0  0  0  0  0
  -30.5010  -13.0940   19.5100 C   0  0  0  0  0  2  0  0  0  0  0  0
  -29.6360  -12.6160   18.3060 C   0  0  0  0  0  2  0  0  0  0  0  0
  -28.2010  -12.2740   18.7400 C   0  0  0  0  0  2  0  0  0  0  0  0
  -27.6620  -13.3180   19.7420 C   0  0  0  0  0  3  0  0  0  0  0  0
  -28.6750  -13.6420   20.8660 C   0  0  0  0  0  2  0  0  0  0  0  0
  -29.8480  -14.2910   20.2150 N   0  0  0  0  0  0  0  0  0  0  0  0
  -31.5890  -15.6120   20.0560 O   0  0  0  0  0  0  0  0  0  0  0  0
  -29.9950  -21.3740   19.4910 C   0  0  0  0  0  3  0  0  0  0  0  0
  -30.3840  -19.8850   19.5960 C   0  0  0  0  0  3  0  0  0  0  0  0
  -27.9530  -20.8890   20.2620 C   0  0  0  0  0  3  0  0  0  0  0  0
  -28.3380  -19.4140   20.3480 C   0  0  0  0  0  0  0  0  0  0  0  0
  -28.7220  -22.0950   19.8230 C   0  0  0  0  0  0  0  0  0  0  0  0
  -29.5690  -18.7170   20.0420 C   0  0  0  0  0  0  0  0  0  0  0  0
  -27.4080  -18.3050   20.7810 C   0  0  0  0  0  3  0  0  0  0  0  0
  -28.1340  -16.9100   20.5970 C   0  0  0  0  0  3  0  0  0  0  0  0
  -29.5600  -17.0340   20.2380 N   0  0  0  0  0  0  0  0  0  0  0  0
  -25.2750  -13.8860   20.4270 C   0  0  0  0  0  0  0  0  0  0  0  0
  -24.2040  -13.1240   20.7890 C   0  0  0  0  0  0  0  0  0  0  0  0
  -24.6690  -11.7730   20.7970 C   0  0  0  0  0  0  0  0  0  0  0  0
  -26.3260  -13.0060   20.2340 N   0  0  0  0  0  0  0  0  0  0  0  0
  -25.9700  -11.7270   20.5210 N   0  0  0  0  0  0  0  0  0  0  0  0
  -23.9260  -10.5210   20.9890 C   0  0  0  0  0  0  0  0  0  0  0  0
  -24.3350   -9.5570   21.9350 C   0  0  0  0  0  3  0  0  0  0  0  0
  -23.5880   -8.3730   22.1190 C   0  0  0  0  0  3  0  0  0  0  0  0
  -22.4180   -8.1470   21.3560 C   0  0  0  0  0  0  0  0  0  0  0  0
  -22.0270   -9.1010   20.3980 C   0  0  0  0  0  3  0  0  0  0  0  0
  -22.7760  -10.2750   20.2130 C   0  0  0  0  0  3  0  0  0  0  0  0
  -21.6440   -7.0150   21.4470 O   0  0  0  0  0  0  0  0  0  0  0  0
  -21.5880   -6.2750   22.6010 C   0  0  0  0  0  0  0  0  0  0  0  0
  -21.1830   -6.8400   23.8300 C   0  0  0  0  0  3  0  0  0  0  0  0
  -21.0720   -6.0270   24.9760 C   0  0  0  0  0  3  0  0  0  0  0  0
  -21.3560   -4.6510   24.8940 C   0  0  0  0  0  0  0  0  0  0  0  0
  -21.7540   -4.0860   23.6690 C   0  0  0  0  0  3  0  0  0  0  0  0
  -21.8660   -4.8960   22.5260 C   0  0  0  0  0  0  0  0  0  0  0  0
  -22.2300   -4.3420   21.3440 F   0  0  0  0  0  0  0  0  0  0  0  0
  -21.2420   -3.8690   25.9920 F   0  0  0  0  0  0  0  0  0  0  0  0
  -22.8050  -13.6180   21.0060 C   0  0  0  0  0  0  0  0  0  0  0  0
  -22.0520  -12.9600   21.8800 N   0  0  0  0  0  0  0  0  0  0  0  0
  -22.3870  -14.6270   20.4360 O   0  0  0  0  0  0  0  0  0  0  0  0
  -22.4050  -12.1480   22.3640 H   0  0  0  0  0  0  0  0  0  0  0  0
  -21.1130  -13.2760   22.0720 H   0  0  0  0  0  0  0  0  0  0  0  0
  -25.4240  -15.2490   20.2120 N   0  0  0  0  0  0  0  0  0  0  0  0
  -24.6340  -15.8820   20.2560 H   0  0  0  0  0  0  0  0  0  0  0  0
  -26.2550  -15.6760   19.8300 H   0  0  0  0  0  0  0  0  0  0  0  0
  -28.0140  -23.8060   19.5310 C   0  0  0  0  0  2  0  0  0  0  0  0
  -28.2710  -25.5230   19.7510 O   0  0  0  0  0  0  0  0  0  0  0  0
  -24.6850  -31.6150   22.9550 C   0  0  0  0  0  0  0  0  0  0  0  0
  -27.2810  -26.7210   19.7400 C   0  0  0  0  0  0  0  0  0  0  0  0
  -23.5000  -30.2540   21.2850 C   0  0  0  0  0  3  0  0  0  0  0  0
  -24.9630  -28.6930   19.7910 C   0  0  0  0  0  0  0  0  0  0  0  0
  -26.0730  -30.4620   21.1290 C   0  0  0  0  0  2  0  0  0  0  0  0
  -26.1600  -29.0570   20.4190 C   0  0  0  0  0  0  0  0  0  0  0  0
  -27.3020  -28.0980   20.3650 C   0  0  0  0  0  3  0  0  0  0  0  0
  -26.0430  -26.5660   19.0640 C   0  0  0  0  0  3  0  0  0  0  0  0
  -24.9410  -27.4750   19.0900 C   0  0  0  0  0  3  0  0  0  0  0  0
  -23.7340  -29.6120   19.8870 C   0  0  0  0  0  2  0  0  0  0  0  0
  -24.7770  -30.8080   21.8430 N   0  0  0  0  0  0  0  0  0  0  0  0
  -23.5940  -31.8720   23.4940 O   0  0  0  0  0  0  0  0  0  0  0  0
  -22.8200  -29.2270   22.2310 C   0  0  0  0  0  0  0  0  0  0  0  0
  -21.4850  -29.0700   22.1400 N   0  0  0  0  0  0  0  0  0  0  0  0
  -23.5050  -28.5670   23.0170 O   0  0  0  0  0  0  0  0  0  0  0  0
  -20.9820  -29.6510   21.4830 H   0  0  0  0  0  0  0  0  0  0  0  0
  -18.1170  -27.8390   22.7250 C   0  0  0  0  0  0  0  0  0  0  0  0
  -20.6870  -28.0940   22.8920 C   0  0  0  0  0  3  0  0  0  0  0  0
  -20.7610  -26.6950   22.2370 C   0  0  0  0  0  2  0  0  0  0  0  0
  -19.6160  -26.4300   21.2530 C   0  0  0  0  0  2  0  0  0  0  0  0
  -18.2640  -26.5340   21.9620 C   0  0  0  0  0  2  0  0  0  0  0  0
  -19.2530  -28.5800   23.1480 C   0  0  0  0  0  0  0  0  0  0  0  0
  -19.0580  -29.7990   23.8300 C   0  0  0  0  0  3  0  0  0  0  0  0
  -17.7610  -30.2820   24.0880 C   0  0  0  0  0  3  0  0  0  0  0  0
  -16.6400  -29.5400   23.6750 C   0  0  0  0  0  3  0  0  0  0  0  0
  -16.8190  -28.3190   23.0010 C   0  0  0  0  0  3  0  0  0  0  0  0
  -25.9440  -32.2680   23.6000 C   0  0  0  0  0  3  0  0  0  0  0  0
  -25.5830  -33.6290   24.0440 N   0  0  0  0  0  0  0  0  0  0  0  0
  -25.8580  -34.7580   23.3760 C   0  0  0  0  0  0  0  0  0  0  0  0
  -26.5010  -34.7650   22.3230 O   0  0  0  0  0  0  0  0  0  0  0  0
  -25.0030  -33.6920   24.8690 H   0  0  0  0  0  0  0  0  0  0  0  0
  -24.0610  -36.5190   23.2330 C   0  0  0  0  0  1  0  0  0  0  0  0
  -25.3430  -36.0910   23.9640 C   0  0  0  0  0  3  0  0  0  0  0  0
  -27.4750  -36.9880   24.7950 C   0  0  0  0  0  1  0  0  0  0  0  0
  -26.3370  -37.1860   23.9030 N   0  0  0  0  0  0  0  0  0  0  0  0
  -25.9050  -38.0770   24.1350 H   0  0  0  0  0  0  0  0  0  0  0  0
  -26.5120  -31.4410   24.8210 C   0  0  1  0  0  0  0  0  0  0  0  0
  -25.4520  -31.1150   25.9000 C   0  0  0  0  0  1  0  0  0  0  0  0
  -27.1190  -30.1020   24.3480 C   0  0  0  0  0  1  0  0  0  0  0  0
  -27.6590  -32.2270   25.5000 C   0  0  0  0  0  1  0  0  0  0  0  0
  1 17  1  0
  2  7  1  0
  3  4  1  0
  3  2  1  0
  5  4  1  0
  5 21  1  0
  5  6  1  0
  7  1  1  0
  7  6  1  0
  8  1  2  0
  9 10  2  0
  9 13  1  0
 10 14  1  0
 11 12  1  0
 12 15  1  0
 13 11  2  0
 14 17  1  0
 14 12  2  0
 16 15  2  0
 17 16  1  0
 18 19  2  0
 19 20  1  0
 19 38  1  0
 20 23  1  0
 21 18  1  0
 21 22  1  0
 22 20  2  0
 23 24  1  0
 24 25  2  0
 26 29  1  0
 26 25  1  0
 27 26  2  0
 28 27  1  0
 28 23  2  0
 29 30  1  0
 30 31  1  0
 31 32  2  0
 33 32  1  0
 33 37  1  0
 34 33  2  0
 35 30  2  0
 35 34  1  0
 36 35  1  0
 38 39  1  0
 39 42  1  0
 39 41  1  0
 40 38  2  0
 43 44  1  0
 43 18  1  0
 45 43  1  0
 46 47  1  0
 46 13  1  0
 48 59  2  0
 49 47  1  0
 49 54  1  0
 50 58  1  0
 50 60  1  0
 51 57  1  0
 51 53  1  0
 52 58  1  0
 53 52  1  0
 54 53  2  0
 55 56  1  0
 55 49  2  0
 56 51  2  0
 57 50  1  0
 58 48  1  0
 60 62  2  0
 61 60  1  0
 63 61  1  0
 64 73  2  0
 64 69  1  0
 65 61  1  0
 65 69  1  0
 66 65  1  0
 67 68  1  0
 67 66  1  0
 68 64  1  0
 69 70  2  0
 70 71  1  0
 72 71  2  0
 73 72  1  0
 74 48  1  0
 74 75  1  0
 74 84  1  0
 75 78  1  0
 76 80  1  0
 76 75  1  0
 77 76  2  0
 80 79  1  0
 82 80  1  0
 82 83  1  0
 82 81  1  0
 84 87  1  1
 84 85  1  0
 86 84  1  0
M  ISO  4   1 100  17 100  46 101  47 101
M  END
>  <TORSDO>  (66) 
F 16

>  <SCORE>  (66) 
-15.248

>  <name>  (66) 
66

>  <ligand_id>  (66) 
66

>  <original_smiles>  (66) 
[H]c1c([H])c([H])c2c(c1[H])C([H])([H])C([H])([H])C([H])([H])C2([H])N([H])C(=O)C1([H])N(C(=O)C([H])(N([H])C(=O)C([H])(N([H])C([H])([H])[H])C([H])([H])[H])C(C([H])([H])[H])(C([H])([H])[H])C([H])([H])[H])C([H])([H])c2c([H])c(OC([H])([H])c3c([H])c([H])c4c(c3[H])C([H])([H])C([H])([H])N4C(=O)N3C([H])([H])C([H])([H])C([H])([H])C([H])(n4nc(-c5c([H])c([H])c(Oc6c([H])c([H])c(F)c([H])c6F)c([H])c5[H])c(C(=O)N([H])[H])c4N([H])[H])C3([H])[H])c([H])c([H])c2C1([H])[H]

>  <smiles>  (66) 
[H]c1c([H])c([H])c2c(c1[H])C([H])([H])C([H])([H])C([H])([H])C2([H])N([H])C(=O)C1([H])N(C(=O)C([H])(N([H])C(=O)C([H])(N([H])C([H])([H])[H])C([H])([H])[H])C(C([H])([H])[H])(C([H])([H])[H])C([H])([H])[H])C([H])([H])c2c([H])c(OC([H])([H])c3c([H])c([H])c4c(c3[H])C([H])([H])C([H])([H])N4C(=O)N3C([H])([H])C([H])([H])C([H])([H])C([H])(n4nc(-c5c([H])c([H])c(Oc6c([H])c([H])c(F)c([H])c6F)c([H])c5[H])c(C(=O)N([H])[H])c4N([H])[H])C3([H])[H])c([H])c([H])c2C1([H])[H]

$$$$
67:0:0
     RDKit          3D

 92101  0  0  1  0  0  0  0  0999 V2000
  -28.6560  -19.2170   20.9580 C   0  0  0  0  0  3  0  0  0  0  0  0
  -28.5190  -20.6450   20.8500 C   0  0  0  0  0  3  0  0  0  0  0  0
  -29.4970  -20.5500   18.6720 C   0  0  0  0  0  3  0  0  0  0  0  0
  -29.2040  -18.4090   19.9170 C   0  0  0  0  0  0  0  0  0  0  0  0
  -28.9070  -21.3660   19.6830 C   0  0  0  0  0  0  0  0  0  0  0  0
  -29.6420  -19.1340   18.7780 C   0  0  0  0  0  0  0  0  0  0  0  0
  -30.1690  -18.4560   17.7300 F   0  0  0  0  0  0  0  0  0  0  0  0
  -28.5560  -24.8910   18.2350 C   0  0  0  0  0  2  0  0  0  0  0  0
  -28.9990  -23.4070   18.1790 C   0  0  0  0  0  2  0  0  0  0  0  0
  -28.2630  -23.8770   20.4100 C   0  0  0  0  0  2  0  0  0  0  0  0
  -28.6680  -25.2470   19.7180 C   0  0  0  0  0  3  0  0  0  0  0  0
  -28.7080  -22.7920   19.4800 N   0  0  0  0  0  0  0  0  0  0  0  0
  -28.4120  -26.6410   20.1790 O   0  0  0  0  0  0  0  0  0  0  0  0
  -24.5880  -31.9080   23.2250 C   0  0  0  0  0  0  0  0  0  0  0  0
  -27.2340  -27.3970   20.1200 C   0  0  0  0  0  0  0  0  0  0  0  0
  -23.3910  -30.5190   21.5680 C   0  0  0  0  0  3  0  0  0  0  0  0
  -24.8490  -28.9840   20.1260 C   0  0  0  0  0  0  0  0  0  0  0  0
  -25.9240  -30.8590   21.3820 C   0  0  0  0  0  2  0  0  0  0  0  0
  -26.0110  -29.4860   20.7220 C   0  0  0  0  0  0  0  0  0  0  0  0
  -27.2010  -28.7040   20.7030 C   0  0  0  0  0  3  0  0  0  0  0  0
  -26.0430  -26.9320   19.5260 C   0  0  0  0  0  3  0  0  0  0  0  0
  -24.8670  -27.7140   19.5210 C   0  0  0  0  0  3  0  0  0  0  0  0
  -23.6070  -29.8520   20.1820 C   0  0  0  0  0  2  0  0  0  0  0  0
  -24.6530  -31.1130   22.1160 N   0  0  0  0  0  0  0  0  0  0  0  0
  -23.5040  -32.1740   23.7640 O   0  0  0  0  0  0  0  0  0  0  0  0
  -22.7360  -29.4910   22.5200 C   0  0  0  0  0  0  0  0  0  0  0  0
  -21.4110  -29.3070   22.3900 N   0  0  0  0  0  0  0  0  0  0  0  0
  -23.4180  -28.8630   23.3350 O   0  0  0  0  0  0  0  0  0  0  0  0
  -20.9200  -29.8670   21.7080 H   0  0  0  0  0  0  0  0  0  0  0  0
  -18.0360  -28.1090   22.8980 C   0  0  0  0  0  0  0  0  0  0  0  0
  -20.5970  -28.3560   23.1500 C   0  0  0  0  0  3  0  0  0  0  0  0
  -20.6900  -26.9360   22.5450 C   0  0  0  0  0  2  0  0  0  0  0  0
  -19.5780  -26.6370   21.5340 C   0  0  0  0  0  2  0  0  0  0  0  0
  -18.2030  -26.7730   22.1930 C   0  0  0  0  0  2  0  0  0  0  0  0
  -19.1600  -28.8600   23.3320 C   0  0  0  0  0  0  0  0  0  0  0  0
  -18.9510  -30.1110   23.9520 C   0  0  0  0  0  3  0  0  0  0  0  0
  -17.6490  -30.6120   24.1390 C   0  0  0  0  0  3  0  0  0  0  0  0
  -16.5390  -29.8580   23.7210 C   0  0  0  0  0  3  0  0  0  0  0  0
  -16.7330  -28.6090   23.1060 C   0  0  0  0  0  3  0  0  0  0  0  0
  -25.8670  -32.5410   23.8540 C   0  0  0  0  0  3  0  0  0  0  0  0
  -25.5580  -33.9420   24.1790 N   0  0  0  0  0  0  0  0  0  0  0  0
  -25.8980  -34.9930   23.4200 C   0  0  0  0  0  0  0  0  0  0  0  0
  -26.5750  -34.8860   22.3940 O   0  0  0  0  0  0  0  0  0  0  0  0
  -24.9580  -34.1000   24.9740 H   0  0  0  0  0  0  0  0  0  0  0  0
  -24.1900  -36.7980   23.0360 C   0  0  0  0  0  1  0  0  0  0  0  0
  -25.4110  -36.3840   23.8720 C   0  0  0  0  0  3  0  0  0  0  0  0
  -27.5270  -37.2610   24.7570 C   0  0  0  0  0  1  0  0  0  0  0  0
  -26.4530  -37.4310   23.7820 N   0  0  0  0  0  0  0  0  0  0  0  0
  -26.0470  -38.3540   23.9140 H   0  0  0  0  0  0  0  0  0  0  0  0
  -26.3720  -31.7760   25.1380 C   0  0  1  0  0  0  0  0  0  0  0  0
  -25.2700  -31.5380   26.1960 C   0  0  0  0  0  1  0  0  0  0  0  0
  -26.9630  -30.3990   24.7560 C   0  0  0  0  0  1  0  0  0  0  0  0
  -27.5150  -32.5740   25.8110 C   0  0  0  0  0  1  0  0  0  0  0  0
  -29.1320  -16.8170   19.8930 C   0  0  0  0  0  2  0  0  0  0  0  0
  -30.6970  -14.7790   20.0070 C   0  0  0  0  0  0  0  0  0  0  0  0
  -30.3670  -12.5550   18.9310 C   0  0  0  0  0  2  0  0  0  0  0  0
  -29.3650  -12.6780   17.7650 C   0  0  0  0  0  2  0  0  0  0  0  0
  -27.9240  -12.5060   18.2770 C   0  0  0  0  0  2  0  0  0  0  0  0
  -27.6300  -13.3700   19.5330 C   0  0  0  0  0  3  0  0  0  0  0  0
  -28.7480  -13.2510   20.5900 C   0  0  0  0  0  2  0  0  0  0  0  0
  -30.0140  -13.5890   19.9300 N   0  0  0  0  0  0  0  0  0  0  0  0
  -31.8410  -14.8600   19.5480 O   0  0  0  0  0  0  0  0  0  0  0  0
  -30.8810  -16.5800   21.6260 C   0  0  0  0  0  1  0  0  0  0  0  0
  -30.1100  -15.8930   20.5900 N   0  0  0  0  0  0  0  0  0  0  0  0
  -25.2910  -13.9550   20.4070 C   0  0  0  0  0  0  0  0  0  0  0  0
  -24.2460  -13.1770   20.8230 C   0  0  0  0  0  0  0  0  0  0  0  0
  -24.7010  -11.8260   20.7400 C   0  0  0  0  0  0  0  0  0  0  0  0
  -26.3160  -13.0770   20.0950 N   0  0  0  0  0  0  0  0  0  0  0  0
  -25.9710  -11.7900   20.3560 N   0  0  0  0  0  0  0  0  0  0  0  0
  -23.9810  -10.5610   20.9440 C   0  0  0  0  0  0  0  0  0  0  0  0
  -24.4420   -9.5890   21.8580 C   0  0  0  0  0  3  0  0  0  0  0  0
  -23.7200   -8.3900   22.0520 C   0  0  0  0  0  3  0  0  0  0  0  0
  -22.5240   -8.1570   21.3300 C   0  0  0  0  0  0  0  0  0  0  0  0
  -22.0840   -9.1180   20.4050 C   0  0  0  0  0  3  0  0  0  0  0  0
  -22.8050  -10.3080   20.2100 C   0  0  0  0  0  3  0  0  0  0  0  0
  -21.7730   -7.0120   21.4350 O   0  0  0  0  0  0  0  0  0  0  0  0
  -21.7330   -6.2800   22.5950 C   0  0  0  0  0  0  0  0  0  0  0  0
  -21.2670   -6.8310   23.8080 C   0  0  0  0  0  3  0  0  0  0  0  0
  -21.1770   -6.0240   24.9590 C   0  0  0  0  0  3  0  0  0  0  0  0
  -21.5430   -4.6660   24.8990 C   0  0  0  0  0  0  0  0  0  0  0  0
  -22.0030   -4.1140   23.6890 C   0  0  0  0  0  3  0  0  0  0  0  0
  -22.0940   -4.9190   22.5400 C   0  0  0  0  0  0  0  0  0  0  0  0
  -22.5170   -4.3770   21.3730 F   0  0  0  0  0  0  0  0  0  0  0  0
  -21.4510   -3.8880   26.0020 F   0  0  0  0  0  0  0  0  0  0  0  0
  -22.8680  -13.6530   21.1820 C   0  0  0  0  0  0  0  0  0  0  0  0
  -22.1840  -12.9380   22.0680 N   0  0  0  0  0  0  0  0  0  0  0  0
  -22.4100  -14.6940   20.7130 O   0  0  0  0  0  0  0  0  0  0  0  0
  -22.5690  -12.0950   22.4670 H   0  0  0  0  0  0  0  0  0  0  0  0
  -21.2620  -13.2380   22.3500 H   0  0  0  0  0  0  0  0  0  0  0  0
  -25.4460  -15.3280   20.2450 N   0  0  0  0  0  0  0  0  0  0  0  0
  -24.6820  -15.9760   20.4040 H   0  0  0  0  0  0  0  0  0  0  0  0
  -26.2620  -15.7700   19.8440 H   0  0  0  0  0  0  0  0  0  0  0  0
  2  1  1  0
  3  6  2  0
  3  5  1  0
  4  1  2  0
  5  2  2  0
  6  4  1  0
  7  6  1  0
  8 11  1  0
  9  8  1  0
  9 12  1  0
 11 13  1  0
 11 10  1  0
 12  5  1  0
 12 10  1  0
 14 25  2  0
 15 13  1  0
 15 20  1  0
 16 24  1  0
 16 26  1  0
 17 23  1  0
 17 19  1  0
 18 24  1  0
 19 18  1  0
 20 19  2  0
 21 15  2  0
 22 21  1  0
 22 17  2  0
 23 16  1  0
 24 14  1  0
 26 28  2  0
 27 26  1  0
 29 27  1  0
 30 39  2  0
 30 35  1  0
 31 27  1  0
 31 35  1  0
 32 31  1  0
 33 34  1  0
 33 32  1  0
 34 30  1  0
 35 36  2  0
 36 37  1  0
 38 37  2  0
 39 38  1  0
 40 14  1  0
 40 41  1  0
 40 50  1  0
 41 44  1  0
 42 46  1  0
 42 41  1  0
 43 42  2  0
 46 45  1  0
 48 46  1  0
 48 49  1  0
 48 47  1  0
 50 53  1  1
 50 51  1  0
 52 50  1  0
 54  4  1  0
 54 64  1  0
 55 64  1  0
 56 61  1  0
 57 58  1  0
 57 56  1  0
 59 58  1  0
 59 68  1  0
 59 60  1  0
 61 55  1  0
 61 60  1  0
 62 55  2  0
 64 63  1  0
 65 66  2  0
 66 85  1  0
 67 66  1  0
 67 70  1  0
 68 69  1  0
 68 65  1  0
 69 67  2  0
 70 71  1  0
 71 72  2  0
 73 76  1  0
 73 72  1  0
 74 73  2  0
 75 74  1  0
 75 70  2  0
 76 77  1  0
 77 78  1  0
 78 79  2  0
 80 79  1  0
 80 84  1  0
 81 80  2  0
 82 77  2  0
 82 81  1  0
 83 82  1  0
 85 86  1  0
 86 89  1  0
 86 88  1  0
 87 85  2  0
 90 91  1  0
 90 65  1  0
 92 90  1  0
M  ISO  4  11 101  13 101  55 100  64 100
M  END
>  <TORSDO>  (67) 
F 18

>  <SCORE>  (67) 
-14.531

>  <name>  (67) 
67

>  <ligand_id>  (67) 
67

>  <original_smiles>  (67) 
[H]c1c([H])c([H])c2c(c1[H])C([H])([H])C([H])([H])C([H])([H])C2([H])N([H])C(=O)C1([H])N(C(=O)C([H])(N([H])C(=O)C([H])(N([H])C([H])([H])[H])C([H])([H])[H])C(C([H])([H])[H])(C([H])([H])[H])C([H])([H])[H])C([H])([H])c2c([H])c(OC3([H])C([H])([H])N(c4c([H])c([H])c(C([H])([H])N(C(=O)N5C([H])([H])C([H])([H])C([H])([H])C([H])(n6nc(-c7c([H])c([H])c(Oc8c([H])c([H])c(F)c([H])c8F)c([H])c7[H])c(C(=O)N([H])[H])c6N([H])[H])C5([H])[H])C([H])([H])[H])c(F)c4[H])C([H])([H])C3([H])[H])c([H])c([H])c2C1([H])[H]

>  <smiles>  (67) 
[H]c1c([H])c([H])c2c(c1[H])C([H])([H])C([H])([H])C([H])([H])C2([H])N([H])C(=O)C1([H])N(C(=O)C([H])(N([H])C(=O)C([H])(N([H])C([H])([H])[H])C([H])([H])[H])C(C([H])([H])[H])(C([H])([H])[H])C([H])([H])[H])C([H])([H])c2c([H])c(OC3([H])C([H])([H])N(c4c([H])c([H])c(C([H])([H])N(C(=O)N5C([H])([H])C([H])([H])C([H])([H])C([H])(n6nc(-c7c([H])c([H])c(Oc8c([H])c([H])c(F)c([H])c8F)c([H])c7[H])c(C(=O)N([H])[H])c6N([H])[H])C5([H])[H])C([H])([H])[H])c(F)c4[H])C([H])([H])C3([H])[H])c([H])c([H])c2C1([H])[H]

$$$$
68:0:0
     RDKit          3D

 95104  0  0  1  0  0  0  0  0999 V2000
  -33.6080  -23.2520   14.4700 C   0  0  0  0  0  0  0  0  0  0  0  0
  -34.5840  -21.4290   14.5680 C   0  0  0  0  0  2  0  0  0  0  0  0
  -34.6440  -22.5870   13.5500 C   0  0  0  0  0  3  0  0  0  0  0  0
  -33.4360  -22.1000   15.1970 N   0  0  0  0  0  0  0  0  0  0  0  0
  -33.0690  -24.3310   14.5510 O   0  0  0  0  0  0  0  0  0  0  0  0
  -32.3720  -21.6790   16.1160 C   0  0  0  0  0  2  0  0  0  0  0  0
  -30.8920  -24.3650   18.4270 C   0  0  0  0  0  3  0  0  0  0  0  0
  -31.7140  -23.3360   17.9200 C   0  0  0  0  0  3  0  0  0  0  0  0
  -29.5270  -24.2610   16.4120 C   0  0  0  0  0  3  0  0  0  0  0  0
  -29.8370  -24.8840   17.6380 C   0  0  0  0  0  0  0  0  0  0  0  0
  -31.4650  -22.7780   16.6470 C   0  0  0  0  0  0  0  0  0  0  0  0
  -30.3320  -23.2130   15.9170 C   0  0  0  0  0  0  0  0  0  0  0  0
  -30.0100  -22.6320   14.7370 F   0  0  0  0  0  0  0  0  0  0  0  0
  -28.9800  -26.0630   18.0800 C   0  0  0  0  0  2  0  0  0  0  0  0
  -30.9670  -27.4340   18.7270 C   0  0  0  0  0  0  0  0  0  0  0  0
  -32.4760  -28.8880   17.4310 C   0  0  0  0  0  2  0  0  0  0  0  0
  -31.7140  -30.1620   17.0110 C   0  0  0  0  0  2  0  0  0  0  0  0
  -30.8910  -29.9420   15.7190 C   0  0  0  0  0  2  0  0  0  0  0  0
  -30.0730  -28.6240   15.7330 C   0  0  0  0  0  3  0  0  0  0  0  0
  -31.0260  -27.4840   16.1520 C   0  0  0  0  0  2  0  0  0  0  0  0
  -31.4900  -27.7950   17.5170 N   0  0  0  0  0  0  0  0  0  0  0  0
  -31.5900  -27.6860   19.7670 O   0  0  0  0  0  0  0  0  0  0  0  0
  -28.9210  -27.5810   20.0440 C   0  0  0  0  0  1  0  0  0  0  0  0
  -29.6270  -27.1820   18.8040 N   0  0  0  0  0  0  0  0  0  0  0  0
  -28.1200  -28.5590   14.0490 C   0  0  0  0  0  0  0  0  0  0  0  0
  -28.0730  -28.2490   12.7220 C   0  0  0  0  0  0  0  0  0  0  0  0
  -29.4100  -27.8990   12.3520 C   0  0  0  0  0  0  0  0  0  0  0  0
  -29.4370  -28.3710   14.4430 N   0  0  0  0  0  0  0  0  0  0  0  0
  -30.2040  -27.9320   13.4150 N   0  0  0  0  0  0  0  0  0  0  0  0
  -29.9900  -27.5920   11.0420 C   0  0  0  0  0  0  0  0  0  0  0  0
  -30.1050  -26.2620   10.5820 C   0  0  0  0  0  3  0  0  0  0  0  0
  -30.6500  -25.9900    9.3080 C   0  0  0  0  0  3  0  0  0  0  0  0
  -31.0850  -27.0520    8.4820 C   0  0  0  0  0  0  0  0  0  0  0  0
  -30.9860  -28.3730    8.9540 C   0  0  0  0  0  3  0  0  0  0  0  0
  -30.4490  -28.6410   10.2230 C   0  0  0  0  0  3  0  0  0  0  0  0
  -31.6510  -26.8830    7.2420 O   0  0  0  0  0  0  0  0  0  0  0  0
  -30.9260  -26.4090    6.1790 C   0  0  0  0  0  0  0  0  0  0  0  0
  -29.9470  -27.1960    5.5360 C   0  0  0  0  0  3  0  0  0  0  0  0
  -29.2770  -26.6970    4.4000 C   0  0  0  0  0  3  0  0  0  0  0  0
  -29.5890  -25.4170    3.9040 C   0  0  0  0  0  0  0  0  0  0  0  0
  -30.5670  -24.6330    4.5430 C   0  0  0  0  0  3  0  0  0  0  0  0
  -31.2360  -25.1300    5.6740 C   0  0  0  0  0  0  0  0  0  0  0  0
  -32.1930  -24.3790    6.2720 F   0  0  0  0  0  0  0  0  0  0  0  0
  -28.9520  -24.9420    2.8090 F   0  0  0  0  0  0  0  0  0  0  0  0
  -26.8800  -28.3510   11.8130 C   0  0  0  0  0  0  0  0  0  0  0  0
  -26.5810  -27.2950   11.0710 N   0  0  0  0  0  0  0  0  0  0  0  0
  -26.1720  -29.3590   11.8000 O   0  0  0  0  0  0  0  0  0  0  0  0
  -27.1470  -26.4620   11.1020 H   0  0  0  0  0  0  0  0  0  0  0  0
  -25.7740  -27.3180   10.4620 H   0  0  0  0  0  0  0  0  0  0  0  0
  -27.1570  -28.9920   14.9550 N   0  0  0  0  0  0  0  0  0  0  0  0
  -26.1980  -29.1800   14.6880 H   0  0  0  0  0  0  0  0  0  0  0  0
  -27.3280  -29.1180   15.9450 H   0  0  0  0  0  0  0  0  0  0  0  0
  -35.8370  -23.5260   13.3100 C   0  0  0  0  0  2  0  0  0  0  0  0
  -35.5580  -24.8350   12.5380 C   0  0  0  0  0  2  0  0  0  0  0  0
  -36.5130  -25.8650   12.8130 O   0  0  0  0  0  0  0  0  0  0  0  0
  -39.1760  -31.5150   16.1740 C   0  0  0  0  0  0  0  0  0  0  0  0
  -36.3900  -26.7000   13.9040 C   0  0  0  0  0  0  0  0  0  0  0  0
  -37.3710  -30.3120   17.3720 C   0  0  0  0  0  3  0  0  0  0  0  0
  -36.1300  -28.5420   16.0290 C   0  0  0  0  0  0  0  0  0  0  0  0
  -37.4970  -30.2650   14.8200 C   0  0  0  0  0  2  0  0  0  0  0  0
  -36.8490  -28.8980   14.8820 C   0  0  0  0  0  0  0  0  0  0  0  0
  -36.9770  -27.9800   13.8180 C   0  0  0  0  0  3  0  0  0  0  0  0
  -35.6930  -26.3430   15.0790 C   0  0  0  0  0  3  0  0  0  0  0  0
  -35.5510  -27.2640   16.1360 C   0  0  0  0  0  3  0  0  0  0  0  0
  -36.0170  -29.5980   17.1030 C   0  0  0  0  0  2  0  0  0  0  0  0
  -38.0700  -30.7190   16.1110 N   0  0  0  0  0  0  0  0  0  0  0  0
  -39.5890  -31.9530   17.2560 O   0  0  0  0  0  0  0  0  0  0  0  0
  -38.2390  -29.4180   18.2900 C   0  0  0  0  0  0  0  0  0  0  0  0
  -38.1180  -29.6300   19.6130 N   0  0  0  0  0  0  0  0  0  0  0  0
  -38.9780  -28.5500   17.8130 O   0  0  0  0  0  0  0  0  0  0  0  0
  -37.4540  -30.3320   19.9220 H   0  0  0  0  0  0  0  0  0  0  0  0
  -39.1610  -29.7600   23.0670 C   0  0  0  0  0  0  0  0  0  0  0  0
  -38.8110  -28.8780   20.6630 C   0  0  0  0  0  3  0  0  0  0  0  0
  -37.8730  -27.8210   21.2880 C   0  0  0  0  0  2  0  0  0  0  0  0
  -37.1340  -28.3320   22.5330 C   0  0  0  0  0  2  0  0  0  0  0  0
  -38.1150  -28.8010   23.6140 C   0  0  0  0  0  2  0  0  0  0  0  0
  -39.4820  -29.8050   21.6850 C   0  0  0  0  0  0  0  0  0  0  0  0
  -40.4510  -30.7270   21.2340 C   0  0  0  0  0  3  0  0  0  0  0  0
  -41.0850  -31.6040   22.1410 C   0  0  0  0  0  3  0  0  0  0  0  0
  -40.7670  -31.5510   23.5110 C   0  0  0  0  0  3  0  0  0  0  0  0
  -39.8170  -30.6220   23.9690 C   0  0  0  0  0  3  0  0  0  0  0  0
  -39.9500  -31.9360   14.8820 C   0  0  0  0  0  3  0  0  0  0  0  0
  -40.2740  -33.3630   15.0040 N   0  0  0  0  0  0  0  0  0  0  0  0
  -39.5110  -34.3590   14.5340 C   0  0  0  0  0  0  0  0  0  0  0  0
  -38.4830  -34.1630   13.8820 O   0  0  0  0  0  0  0  0  0  0  0  0
  -41.0650  -33.5960   15.5850 H   0  0  0  0  0  0  0  0  0  0  0  0
  -39.3650  -36.2530   16.1860 C   0  0  0  0  0  1  0  0  0  0  0  0
  -39.9530  -35.8010   14.8390 C   0  0  0  0  0  3  0  0  0  0  0  0
  -40.5630  -36.8560   12.7060 C   0  0  0  0  0  1  0  0  0  0  0  0
  -39.5810  -36.7690   13.7840 N   0  0  0  0  0  0  0  0  0  0  0  0
  -39.4570  -37.6990   14.1770 H   0  0  0  0  0  0  0  0  0  0  0  0
  -41.2670  -31.0940   14.6470 C   0  0  1  0  0  0  0  0  0  0  0  0
  -42.5130  -31.6860   15.3490 C   0  0  0  0  0  1  0  0  0  0  0  0
  -41.0920  -29.6380   15.1390 C   0  0  0  0  0  1  0  0  0  0  0  0
  -41.5730  -31.0090   13.1330 C   0  0  0  0  0  1  0  0  0  0  0  0
  1  5  2  0
  1  4  1  0
  2  4  1  0
  3 53  1  0
  3  1  1  0
  3  2  1  0
  4  6  1  0
  6 11  1  0
  8  7  1  0
  9 10  1  0
 10 14  1  0
 10  7  2  0
 11  8  2  0
 12  9  2  0
 12 11  1  0
 13 12  1  0
 14 24  1  0
 15 24  1  0
 15 22  2  0
 16 21  1  0
 17 16  1  0
 18 19  1  0
 18 17  1  0
 19 28  1  0
 19 20  1  0
 20 21  1  0
 21 15  1  0
 24 23  1  0
 25 28  1  0
 25 50  1  0
 26 25  2  0
 27 26  1  0
 27 29  2  0
 29 28  1  0
 30 27  1  0
 31 30  1  0
 32 31  2  0
 33 34  2  0
 33 32  1  0
 34 35  1  0
 35 30  2  0
 36 33  1  0
 37 36  1  0
 38 37  2  0
 39 38  1  0
 40 39  2  0
 40 41  1  0
 41 42  2  0
 42 37  1  0
 42 43  1  0
 44 40  1  0
 45 26  1  0
 46 48  1  0
 46 45  1  0
 47 45  2  0
 49 46  1  0
 50 52  1  0
 51 50  1  0
 54 55  1  0
 54 53  1  0
 55 57  1  0
 56 67  2  0
 57 63  1  0
 58 68  1  0
 59 64  1  0
 59 65  1  0
 60 61  1  0
 60 66  1  0
 61 59  2  0
 62 57  2  0
 62 61  1  0
 63 64  2  0
 65 58  1  0
 66 56  1  0
 66 58  1  0
 68 69  1  0
 69 71  1  0
 70 68  2  0
 72 76  1  0
 72 81  1  0
 73 69  1  0
 73 74  1  0
 73 77  1  0
 74 75  1  0
 75 76  1  0
 77 72  2  0
 78 77  1  0
 78 79  2  0
 79 80  1  0
 80 81  2  0
 82 83  1  0
 82 56  1  0
 83 86  1  0
 84 88  1  0
 84 83  1  0
 85 84  2  0
 88 87  1  0
 89 90  1  0
 90 91  1  0
 90 88  1  0
 92 82  1  0
 92 94  1  1
 92 93  1  0
 95 92  1  0
M  ISO  4  15 100  24 100  54 101  55 101
M  END
>  <TORSDO>  (68) 
F 21

>  <SCORE>  (68) 
-2.509

>  <name>  (68) 
68

>  <ligand_id>  (68) 
68

>  <original_smiles>  (68) 
[H]c1c([H])c([H])c2c(c1[H])C([H])([H])C([H])([H])C([H])([H])C2([H])N([H])C(=O)C1([H])N(C(=O)C([H])(N([H])C(=O)C([H])(N([H])C([H])([H])[H])C([H])([H])[H])C(C([H])([H])[H])(C([H])([H])[H])C([H])([H])[H])C([H])([H])c2c([H])c(OC([H])([H])C([H])([H])C3([H])C(=O)N(C([H])([H])c4c([H])c([H])c(C([H])([H])N(C(=O)N5C([H])([H])C([H])([H])C([H])([H])C([H])(n6nc(-c7c([H])c([H])c(Oc8c([H])c([H])c(F)c([H])c8F)c([H])c7[H])c(C(=O)N([H])[H])c6N([H])[H])C5([H])[H])C([H])([H])[H])c([H])c4F)C3([H])[H])c([H])c([H])c2C1([H])[H]

>  <smiles>  (68) 
[H]c1c([H])c([H])c2c(c1[H])C([H])([H])C([H])([H])C([H])([H])C2([H])N([H])C(=O)C1([H])N(C(=O)C([H])(N([H])C(=O)C([H])(N([H])C([H])([H])[H])C([H])([H])[H])C(C([H])([H])[H])(C([H])([H])[H])C([H])([H])[H])C([H])([H])c2c([H])c(OC([H])([H])C([H])([H])C3([H])C(=O)N(C([H])([H])c4c([H])c([H])c(C([H])([H])N(C(=O)N5C([H])([H])C([H])([H])C([H])([H])C([H])(n6nc(-c7c([H])c([H])c(Oc8c([H])c([H])c(F)c([H])c8F)c([H])c7[H])c(C(=O)N([H])[H])c6N([H])[H])C5([H])[H])C([H])([H])[H])c([H])c4F)C3([H])[H])c([H])c([H])c2C1([H])[H]

$$$$
69:0:0
     RDKit          3D

 95103  0  0  1  0  0  0  0  0999 V2000
  -27.5580  -22.0090   20.0390 N   0  0  2  0  0  4  0  0  0  0  0  0
  -28.2460  -21.7240   19.3490 H   0  0  0  0  0  0  0  0  0  0  0  0
  -25.1460  -22.8270   20.0260 C   0  0  0  0  0  1  0  0  0  0  0  0
  -26.2830  -22.1160   19.2680 C   0  0  0  0  0  2  0  0  0  0  0  0
  -27.5450  -20.8720   21.0010 C   0  0  0  0  0  2  0  0  0  0  0  0
  -30.4850  -18.6430   22.0640 C   0  0  0  0  0  3  0  0  0  0  0  0
  -29.4290  -19.5790   22.0990 C   0  0  0  0  0  3  0  0  0  0  0  0
  -30.2520  -18.4890   19.6480 C   0  0  0  0  0  3  0  0  0  0  0  0
  -30.8810  -18.0650   20.8420 C   0  0  0  0  0  0  0  0  0  0  0  0
  -28.7630  -19.9570   20.9120 C   0  0  0  0  0  0  0  0  0  0  0  0
  -29.1990  -19.4190   19.6810 C   0  0  0  0  0  0  0  0  0  0  0  0
  -28.6010  -19.7800   18.5190 F   0  0  0  0  0  0  0  0  0  0  0  0
  -31.9460  -16.9740   20.8270 C   0  0  0  0  0  2  0  0  0  0  0  0
  -32.4980  -15.0270   19.4170 C   0  0  0  0  0  0  0  0  0  0  0  0
  -31.8990  -12.7930   18.5960 C   0  0  0  0  0  2  0  0  0  0  0  0
  -30.8310  -12.9430   17.4920 C   0  0  0  0  0  2  0  0  0  0  0  0
  -29.4130  -13.0060   18.0960 C   0  0  0  0  0  2  0  0  0  0  0  0
  -29.3020  -14.0120   19.2730 C   0  0  0  0  0  3  0  0  0  0  0  0
  -30.4660  -13.8120   20.2730 C   0  0  0  0  0  2  0  0  0  0  0  0
  -31.7290  -13.9160   19.5250 N   0  0  0  0  0  0  0  0  0  0  0  0
  -33.5730  -15.0660   18.8170 O   0  0  0  0  0  0  0  0  0  0  0  0
  -31.8430  -16.1670   19.6190 N   0  0  0  0  0  0  0  0  0  0  0  0
  -31.9840  -16.7670   18.8220 H   0  0  0  0  0  0  0  0  0  0  0  0
  -27.2230  -14.9390   20.4760 C   0  0  0  0  0  0  0  0  0  0  0  0
  -26.0690  -14.3380   20.9000 C   0  0  0  0  0  0  0  0  0  0  0  0
  -26.2040  -12.9530   20.5760 C   0  0  0  0  0  0  0  0  0  0  0  0
  -28.0000  -13.9300   19.9310 N   0  0  0  0  0  0  0  0  0  0  0  0
  -27.3950  -12.7190   20.0430 N   0  0  0  0  0  0  0  0  0  0  0  0
  -25.2470  -11.8450   20.6900 C   0  0  0  0  0  0  0  0  0  0  0  0
  -25.5390  -10.6910   21.4490 C   0  0  0  0  0  3  0  0  0  0  0  0
  -24.5970   -9.6470   21.5560 C   0  0  0  0  0  3  0  0  0  0  0  0
  -23.3460   -9.7500   20.9020 C   0  0  0  0  0  0  0  0  0  0  0  0
  -23.0690  -10.8910   20.1280 C   0  0  0  0  0  3  0  0  0  0  0  0
  -24.0110  -11.9270   20.0190 C   0  0  0  0  0  3  0  0  0  0  0  0
  -22.3770   -8.7760   20.9290 O   0  0  0  0  0  0  0  0  0  0  0  0
  -22.2000   -7.9700   22.0250 C   0  0  0  0  0  0  0  0  0  0  0  0
  -21.9520   -8.5020   23.3090 C   0  0  0  0  0  3  0  0  0  0  0  0
  -21.7050   -7.6390   24.3950 C   0  0  0  0  0  3  0  0  0  0  0  0
  -21.6950   -6.2450   24.1980 C   0  0  0  0  0  0  0  0  0  0  0  0
  -21.9370   -5.7120   22.9190 C   0  0  0  0  0  3  0  0  0  0  0  0
  -22.1860   -6.5740   21.8360 C   0  0  0  0  0  0  0  0  0  0  0  0
  -22.3970   -6.0560   20.6020 F   0  0  0  0  0  0  0  0  0  0  0  0
  -21.4500   -5.4150   25.2380 F   0  0  0  0  0  0  0  0  0  0  0  0
  -24.8640  -15.0200   21.4850 C   0  0  0  0  0  0  0  0  0  0  0  0
  -24.1530  -14.3520   22.3870 N   0  0  0  0  0  0  0  0  0  0  0  0
  -24.5740  -16.1750   21.1780 O   0  0  0  0  0  0  0  0  0  0  0  0
  -24.4000  -13.4110   22.6560 H   0  0  0  0  0  0  0  0  0  0  0  0
  -23.3470  -14.7880   22.8140 H   0  0  0  0  0  0  0  0  0  0  0  0
  -27.6700  -16.2580   20.4930 N   0  0  0  0  0  0  0  0  0  0  0  0
  -27.1140  -17.0190   20.8630 H   0  0  0  0  0  0  0  0  0  0  0  0
  -28.5650  -16.5570   20.1250 H   0  0  0  0  0  0  0  0  0  0  0  0
  -28.0330  -23.2700   20.6760 C   0  0  0  0  0  2  0  0  0  0  0  0
  -28.3960  -24.4300   19.7170 C   0  0  0  0  0  2  0  0  0  0  0  0
  -28.6410  -25.7320   20.5140 C   0  0  0  0  0  2  0  0  0  0  0  0
  -28.6140  -26.9180   19.7140 O   0  0  0  0  0  0  0  0  0  0  0  0
  -24.8290  -31.6290   23.4890 C   0  0  0  0  0  0  0  0  0  0  0  0
  -27.4500  -27.6460   19.8260 C   0  0  0  0  0  0  0  0  0  0  0  0
  -23.6130  -30.4680   21.6760 C   0  0  0  0  0  3  0  0  0  0  0  0
  -25.0560  -29.1270   20.0610 C   0  0  0  0  0  0  0  0  0  0  0  0
  -26.1410  -30.8420   21.5220 C   0  0  0  0  0  2  0  0  0  0  0  0
  -26.2190  -29.5720   20.7010 C   0  0  0  0  0  0  0  0  0  0  0  0
  -27.4230  -28.8410   20.5810 C   0  0  0  0  0  3  0  0  0  0  0  0
  -26.2690  -27.2080   19.1910 C   0  0  0  0  0  3  0  0  0  0  0  0
  -25.0740  -27.9400   19.3080 C   0  0  0  0  0  3  0  0  0  0  0  0
  -23.8150  -29.9760   20.2190 C   0  0  0  0  0  2  0  0  0  0  0  0
  -24.8790  -30.9850   22.2890 N   0  0  0  0  0  0  0  0  0  0  0  0
  -23.7490  -31.8300   24.0620 O   0  0  0  0  0  0  0  0  0  0  0  0
  -22.9570  -29.3290   22.4900 C   0  0  0  0  0  0  0  0  0  0  0  0
  -21.6390  -29.1460   22.3090 N   0  0  0  0  0  0  0  0  0  0  0  0
  -23.6330  -28.6160   23.2380 O   0  0  0  0  0  0  0  0  0  0  0  0
  -21.1540  -29.7820   21.6920 H   0  0  0  0  0  0  0  0  0  0  0  0
  -18.2890  -27.8130   22.5130 C   0  0  0  0  0  0  0  0  0  0  0  0
  -20.8220  -28.1110   22.9370 C   0  0  0  0  0  3  0  0  0  0  0  0
  -20.9980  -26.7520   22.2200 C   0  0  0  0  0  2  0  0  0  0  0  0
  -19.9560  -26.5120   21.1240 C   0  0  0  0  0  2  0  0  0  0  0  0
  -18.5420  -26.5460   21.7090 C   0  0  0  0  0  2  0  0  0  0  0  0
  -19.3610  -28.5570   23.0730 C   0  0  0  0  0  0  0  0  0  0  0  0
  -19.0740  -29.7510   23.7690 C   0  0  0  0  0  3  0  0  0  0  0  0
  -17.7470  -30.2010   23.9130 C   0  0  0  0  0  3  0  0  0  0  0  0
  -16.6890  -29.4490   23.3740 C   0  0  0  0  0  3  0  0  0  0  0  0
  -16.9600  -28.2560   22.6810 C   0  0  0  0  0  3  0  0  0  0  0  0
  -26.1210  -32.1630   24.1850 C   0  0  0  0  0  3  0  0  0  0  0  0
  -25.8250  -33.5120   24.6850 N   0  0  0  0  0  0  0  0  0  0  0  0
  -26.1950  -34.6460   24.0730 C   0  0  0  0  0  0  0  0  0  0  0  0
  -26.8930  -34.6610   23.0550 O   0  0  0  0  0  0  0  0  0  0  0  0
  -25.2150  -33.5760   25.4860 H   0  0  0  0  0  0  0  0  0  0  0  0
  -24.5160  -36.5090   23.8970 C   0  0  0  0  0  1  0  0  0  0  0  0
  -25.7180  -35.9730   24.6920 C   0  0  0  0  0  3  0  0  0  0  0  0
  -27.8380  -36.6930   25.7020 C   0  0  0  0  0  1  0  0  0  0  0  0
  -26.7740  -37.0080   24.7510 N   0  0  0  0  0  0  0  0  0  0  0  0
  -26.3790  -37.9110   25.0030 H   0  0  0  0  0  0  0  0  0  0  0  0
  -26.6240  -31.2320   25.3570 C   0  0  1  0  0  0  0  0  0  0  0  0
  -25.5260  -30.8790   26.3850 C   0  0  0  0  0  1  0  0  0  0  0  0
  -27.1920  -29.9060   24.7980 C   0  0  0  0  0  1  0  0  0  0  0  0
  -27.7810  -31.9240   26.1160 C   0  0  0  0  0  1  0  0  0  0  0  0
  1 52  1  0
  1  5  1  0
  1  2  1  6
  4  3  1  0
  4  1  1  0
  6  7  1  0
  8 11  2  0
  8  9  1  0
  9  6  2  0
 10  5  1  0
 10  7  2  0
 11 10  1  0
 12 11  1  0
 13  9  1  0
 14 20  1  0
 14 22  1  0
 15 20  1  0
 16 17  1  0
 16 15  1  0
 18 17  1  0
 18 27  1  0
 18 19  1  0
 20 19  1  0
 21 14  2  0
 22 13  1  0
 23 22  1  0
 24 49  1  0
 24 25  2  0
 25 44  1  0
 26 29  1  0
 26 25  1  0
 27 28  1  0
 27 24  1  0
 28 26  2  0
 29 30  1  0
 30 31  2  0
 32 35  1  0
 32 31  1  0
 33 32  2  0
 34 33  1  0
 34 29  2  0
 35 36  1  0
 36 37  1  0
 37 38  2  0
 39 38  1  0
 39 43  1  0
 40 39  2  0
 41 36  2  0
 41 40  1  0
 42 41  1  0
 44 45  1  0
 45 47  1  0
 45 48  1  0
 46 44  2  0
 49 50  1  0
 51 49  1  0
 53 54  1  0
 53 52  1  0
 55 57  1  0
 55 54  1  0
 56 67  2  0
 57 62  1  0
 58 66  1  0
 58 68  1  0
 59 65  1  0
 59 61  1  0
 60 66  1  0
 61 60  1  0
 62 61  2  0
 63 64  1  0
 63 57  2  0
 64 59  2  0
 65 58  1  0
 66 56  1  0
 68 70  2  0
 69 68  1  0
 71 69  1  0
 72 81  2  0
 72 77  1  0
 73 69  1  0
 73 77  1  0
 74 73  1  0
 75 76  1  0
 75 74  1  0
 76 72  1  0
 77 78  2  0
 78 79  1  0
 80 79  2  0
 81 80  1  0
 82 56  1  0
 82 83  1  0
 82 92  1  0
 83 86  1  0
 84 83  1  0
 84 88  1  0
 85 84  2  0
 88 87  1  0
 88 90  1  0
 90 91  1  0
 90 89  1  0
 92 95  1  1
 92 93  1  0
 94 92  1  0
M  ISO  4  14 100  22 100  54 101  55 101
M  END
>  <TORSDO>  (69) 
F 23

>  <SCORE>  (69) 
-6.711

>  <name>  (69) 
69

>  <ligand_id>  (69) 
69

>  <original_smiles>  (69) 
[H]c1c([H])c([H])c2c(c1[H])C([H])([H])C([H])([H])C([H])([H])C2([H])N([H])C(=O)C1([H])N(C(=O)C([H])(N([H])C(=O)C([H])(N([H])C([H])([H])[H])C([H])([H])[H])C(C([H])([H])[H])(C([H])([H])[H])C([H])([H])[H])C([H])([H])c2c([H])c(OC([H])([H])C([H])([H])C([H])([H])[N+]([H])(C([H])([H])c3c([H])c([H])c(C([H])([H])N([H])C(=O)N4C([H])([H])C([H])([H])C([H])([H])C([H])(n5nc(-c6c([H])c([H])c(Oc7c([H])c([H])c(F)c([H])c7F)c([H])c6[H])c(C(=O)N([H])[H])c5N([H])[H])C4([H])[H])c([H])c3F)C([H])([H])C([H])([H])[H])c([H])c([H])c2C1([H])[H]

>  <smiles>  (69) 
[H]c1c([H])c([H])c2c(c1[H])C([H])([H])C([H])([H])C([H])([H])C2([H])N([H])C(=O)C1([H])N(C(=O)C([H])(N([H])C(=O)C([H])(N([H])C([H])([H])[H])C([H])([H])[H])C(C([H])([H])[H])(C([H])([H])[H])C([H])([H])[H])C([H])([H])c2c([H])c(OC([H])([H])C([H])([H])C([H])([H])[N+]([H])(C([H])([H])c3c([H])c([H])c(C([H])([H])N([H])C(=O)N4C([H])([H])C([H])([H])C([H])([H])C([H])(n5nc(-c6c([H])c([H])c(Oc7c([H])c([H])c(F)c([H])c7F)c([H])c6[H])c(C(=O)N([H])[H])c5N([H])[H])C4([H])[H])c([H])c3F)C([H])([H])C([H])([H])[H])c([H])c([H])c2C1([H])[H]

$$$$
70:0:0
     RDKit          3D

 84 88  0  0  1  0  0  0  0  0999 V2000
  -28.2760  -23.5860   19.8980 C   0  0  0  0  0  1  0  0  0  0  0  0
  -28.1820  -25.3570   20.3340 O   0  0  0  0  0  0  0  0  0  0  0  0
  -24.6560  -31.7880   23.1530 C   0  0  0  0  0  0  0  0  0  0  0  0
  -27.2180  -26.6130   20.2090 C   0  0  0  0  0  0  0  0  0  0  0  0
  -23.4860  -30.3740   21.5190 C   0  0  0  0  0  3  0  0  0  0  0  0
  -24.9490  -28.7040   20.1250 C   0  0  0  0  0  0  0  0  0  0  0  0
  -26.0680  -30.4960   21.4210 C   0  0  0  0  0  2  0  0  0  0  0  0
  -26.1410  -29.0490   20.7720 C   0  0  0  0  0  0  0  0  0  0  0  0
  -27.2490  -28.0320   20.7820 C   0  0  0  0  0  3  0  0  0  0  0  0
  -25.9930  -26.5100   19.4920 C   0  0  0  0  0  3  0  0  0  0  0  0
  -24.9210  -27.4630   19.4610 C   0  0  0  0  0  3  0  0  0  0  0  0
  -23.7410  -29.6620   20.1560 C   0  0  0  0  0  2  0  0  0  0  0  0
  -24.7610  -30.9220   22.0840 N   0  0  0  0  0  0  0  0  0  0  0  0
  -23.5570  -32.0910   23.6510 O   0  0  0  0  0  0  0  0  0  0  0  0
  -22.7570  -29.4100   22.4940 C   0  0  0  0  0  0  0  0  0  0  0  0
  -21.4230  -29.2690   22.3760 N   0  0  0  0  0  0  0  0  0  0  0  0
  -23.4080  -28.7830   23.3340 O   0  0  0  0  0  0  0  0  0  0  0  0
  -20.9450  -29.8240   21.6810 H   0  0  0  0  0  0  0  0  0  0  0  0
  -18.0300  -28.0670   22.8980 C   0  0  0  0  0  0  0  0  0  0  0  0
  -20.5920  -28.3370   23.1520 C   0  0  0  0  0  3  0  0  0  0  0  0
  -20.6890  -26.9010   22.5840 C   0  0  0  0  0  2  0  0  0  0  0  0
  -19.5860  -26.5770   21.5710 C   0  0  0  0  0  2  0  0  0  0  0  0
  -18.2060  -26.7210   22.2170 C   0  0  0  0  0  2  0  0  0  0  0  0
  -19.1490  -28.8340   23.3210 C   0  0  0  0  0  0  0  0  0  0  0  0
  -18.9270  -30.0900   23.9250 C   0  0  0  0  0  3  0  0  0  0  0  0
  -17.6190  -30.5830   24.1030 C   0  0  0  0  0  3  0  0  0  0  0  0
  -16.5170  -29.8160   23.6890 C   0  0  0  0  0  3  0  0  0  0  0  0
  -16.7230  -28.5590   23.0950 C   0  0  0  0  0  3  0  0  0  0  0  0
  -25.9090  -32.4530   23.8020 C   0  0  0  0  0  3  0  0  0  0  0  0
  -25.5730  -33.8520   24.1360 N   0  0  0  0  0  0  0  0  0  0  0  0
  -25.8990  -34.9230   23.3990 C   0  0  0  0  0  0  0  0  0  0  0  0
  -26.5660  -34.8390   22.3660 O   0  0  0  0  0  0  0  0  0  0  0  0
  -24.9770  -33.9910   24.9390 H   0  0  0  0  0  0  0  0  0  0  0  0
  -24.1510  -36.7160   23.0990 C   0  0  0  0  0  1  0  0  0  0  0  0
  -25.4100  -36.3080   23.8800 C   0  0  0  0  0  3  0  0  0  0  0  0
  -27.5530  -37.2110   24.6780 C   0  0  0  0  0  1  0  0  0  0  0  0
  -26.4320  -37.3730   23.7570 N   0  0  0  0  0  0  0  0  0  0  0  0
  -26.0180  -38.2880   23.9190 H   0  0  0  0  0  0  0  0  0  0  0  0
  -26.4020  -31.7010   25.1010 C   0  0  1  0  0  0  0  0  0  0  0  0
  -25.2910  -31.4780   26.1560 C   0  0  0  0  0  1  0  0  0  0  0  0
  -26.9930  -30.3160   24.7530 C   0  0  0  0  0  1  0  0  0  0  0  0
  -27.5420  -32.5050   25.7710 C   0  0  0  0  0  1  0  0  0  0  0  0
  -28.8290  -21.7330   20.4810 C   0  0  0  0  0 15  0  0  0  0  0  0
  -30.9370  -19.7980   19.2570 O   0  0  0  0  0  0  0  0  0  0  0  0
  -28.6190  -19.4380   18.4390 O   0  0  0  0  0  0  0  0  0  0  0  0
  -29.5250  -19.5440   19.5960 S   0  0  0  0  0  0  0  0  0  0  0  0
  -30.3060  -15.8590   19.9160 C   0  0  0  0  0  0  0  0  0  0  0  0
  -30.4150  -13.2600   19.1150 C   0  0  0  0  0  2  0  0  0  0  0  0
  -29.4790  -12.8370   17.9350 C   0  0  0  0  0  2  0  0  0  0  0  0
  -28.0840  -12.4440   18.4400 C   0  0  0  0  0  2  0  0  0  0  0  0
  -27.6090  -13.4270   19.5310 C   0  0  0  0  0  3  0  0  0  0  0  0
  -28.6840  -13.7590   20.5970 C   0  0  0  0  0  2  0  0  0  0  0  0
  -29.8290  -14.4430   19.9290 N   0  0  0  0  0  0  0  0  0  0  0  0
  -31.5040  -15.7680   19.5680 O   0  0  0  0  0  0  0  0  0  0  0  0
  -28.3950  -17.1680   21.0470 C   0  0  0  0  0  1  0  0  0  0  0  0
  -29.5930  -17.3920   20.2440 N   0  0  0  0  0  2  0  0  0  0  0  0
  -25.2890  -13.9210   20.4310 C   0  0  0  0  0  0  0  0  0  0  0  0
  -24.2560  -13.1320   20.8450 C   0  0  0  0  0  0  0  0  0  0  0  0
  -24.7280  -11.7860   20.7560 C   0  0  0  0  0  0  0  0  0  0  0  0
  -26.3230  -13.0630   20.1120 N   0  0  0  0  0  0  0  0  0  0  0  0
  -26.0030  -11.7680   20.3740 N   0  0  0  0  0  0  0  0  0  0  0  0
  -24.0080  -10.5200   20.9560 C   0  0  0  0  0  0  0  0  0  0  0  0
  -24.4640   -9.5440   21.8680 C   0  0  0  0  0  3  0  0  0  0  0  0
  -23.7380   -8.3490   22.0610 C   0  0  0  0  0  3  0  0  0  0  0  0
  -22.5410   -8.1210   21.3400 C   0  0  0  0  0  0  0  0  0  0  0  0
  -22.1040   -9.0850   20.4170 C   0  0  0  0  0  3  0  0  0  0  0  0
  -22.8300  -10.2720   20.2220 C   0  0  0  0  0  3  0  0  0  0  0  0
  -21.7850   -6.9780   21.4420 O   0  0  0  0  0  0  0  0  0  0  0  0
  -21.7480   -6.2390   22.5980 C   0  0  0  0  0  0  0  0  0  0  0  0
  -21.3430   -6.8010   23.8290 C   0  0  0  0  0  3  0  0  0  0  0  0
  -21.2530   -5.9890   24.9760 C   0  0  0  0  0  3  0  0  0  0  0  0
  -21.5580   -4.6170   24.8960 C   0  0  0  0  0  0  0  0  0  0  0  0
  -21.9560   -4.0550   23.6700 C   0  0  0  0  0  3  0  0  0  0  0  0
  -22.0480   -4.8650   22.5240 C   0  0  0  0  0  0  0  0  0  0  0  0
  -22.4110   -4.3140   21.3410 F   0  0  0  0  0  0  0  0  0  0  0  0
  -21.4650   -3.8350   25.9960 F   0  0  0  0  0  0  0  0  0  0  0  0
  -22.8750  -13.6040   21.1900 C   0  0  0  0  0  0  0  0  0  0  0  0
  -22.1910  -12.8970   22.0810 N   0  0  0  0  0  0  0  0  0  0  0  0
  -22.4150  -14.6370   20.7060 O   0  0  0  0  0  0  0  0  0  0  0  0
  -22.5830  -12.0640   22.4960 H   0  0  0  0  0  0  0  0  0  0  0  0
  -21.2660  -13.1930   22.3550 H   0  0  0  0  0  0  0  0  0  0  0  0
  -25.4160  -15.2950   20.2630 N   0  0  0  0  0  0  0  0  0  0  0  0
  -24.6130  -15.9030   20.3880 H   0  0  0  0  0  0  0  0  0  0  0  0
  -26.1730  -15.7370   19.7620 H   0  0  0  0  0  0  0  0  0  0  0  0
  1  2  1  0
  3 14  2  0
  4  2  1  0
  4  9  1  0
  5 13  1  0
  5 15  1  0
  6 12  1  0
  6  8  1  0
  7 13  1  0
  8  9  2  0
  8  7  1  0
 10  4  2  0
 11 10  1  0
 11  6  2  0
 12  5  1  0
 13  3  1  0
 15 17  2  0
 16 15  1  0
 18 16  1  0
 19 28  2  0
 19 24  1  0
 20 16  1  0
 20 24  1  0
 21 20  1  0
 22 23  1  0
 22 21  1  0
 23 19  1  0
 24 25  2  0
 25 26  1  0
 27 26  2  0
 28 27  1  0
 29  3  1  0
 29 30  1  0
 29 39  1  0
 30 33  1  0
 31 35  1  0
 31 30  1  0
 32 31  2  0
 35 34  1  0
 37 35  1  0
 37 38  1  0
 37 36  1  0
 39 42  1  1
 39 40  1  0
 41 39  1  0
 44 46  2  0
 45 46  2  0
 47 53  1  0
 47 56  1  0
 48 53  1  0
 49 50  1  0
 49 48  1  0
 51 50  1  0
 51 60  1  0
 51 52  1  0
 53 52  1  0
 54 47  2  0
 56 55  1  0
 57 58  2  0
 58 77  1  0
 59 58  1  0
 59 62  1  0
 60 61  1  0
 60 57  1  0
 61 59  2  0
 62 63  1  0
 63 64  2  0
 65 68  1  0
 65 64  1  0
 66 65  2  0
 67 66  1  0
 67 62  2  0
 68 69  1  0
 69 70  1  0
 70 71  2  0
 72 71  1  0
 72 76  1  0
 73 72  2  0
 74 69  2  0
 74 73  1  0
 75 74  1  0
 77 78  1  0
 78 81  1  0
 78 80  1  0
 79 77  2  0
 82 83  1  0
 82 57  1  0
 84 82  1  0
M  ISO  4   1 101   2 101  47 100  56 100
M  END
>  <TORSDO>  (70) 
F 18

>  <SCORE>  (70) 
-15.886

>  <name>  (70) 
70

>  <ligand_id>  (70) 
70

>  <original_smiles>  (70) 
[H]c1c([H])c([H])c2c(c1[H])C([H])([H])C([H])([H])C([H])([H])C2([H])N([H])C(=O)C1([H])N(C(=O)C([H])(N([H])C(=O)C([H])(N([H])C([H])([H])[H])C([H])([H])[H])C(C([H])([H])[H])(C([H])([H])[H])C([H])([H])[H])C([H])([H])c2c([H])c(OC([H])([H])C([H])([H])S(=O)(=O)N(C(=O)N3C([H])([H])C([H])([H])C([H])([H])C([H])(n4nc(-c5c([H])c([H])c(Oc6c([H])c([H])c(F)c([H])c6F)c([H])c5[H])c(C(=O)N([H])[H])c4N([H])[H])C3([H])[H])C([H])([H])[H])c([H])c([H])c2C1([H])[H]

>  <smiles>  (70) 
[H]c1c([H])c([H])c2c(c1[H])C([H])([H])C([H])([H])C([H])([H])C2([H])N([H])C(=O)C1([H])N(C(=O)C([H])(N([H])C(=O)C([H])(N([H])C([H])([H])[H])C([H])([H])[H])C(C([H])([H])[H])(C([H])([H])[H])C([H])([H])[H])C([H])([H])c2c([H])c(OC([H])([H])C([H])([H])S(=O)(=O)N(C(=O)N3C([H])([H])C([H])([H])C([H])([H])C([H])(n4nc(-c5c([H])c([H])c(Oc6c([H])c([H])c(F)c([H])c6F)c([H])c5[H])c(C(=O)N([H])[H])c4N([H])[H])C3([H])[H])C([H])([H])[H])c([H])c([H])c2C1([H])[H]

$$$$
72:0:0
     RDKit          3D

 89 97  0  0  1  0  0  0  0  0999 V2000
  -30.2130  -22.4370   22.0920 C   0  0  0  0  0  1  0  0  0  0  0  0
  -29.3420  -22.1380   20.9500 N   0  0  0  0  0  0  0  0  0  0  0  0
  -30.8090  -18.4590   20.6010 C   0  0  0  0  0  3  0  0  0  0  0  0
  -28.4740  -18.3570   20.3010 C   0  0  0  0  0  3  0  0  0  0  0  0
  -30.7020  -19.9120   20.6920 C   0  0  0  0  0  3  0  0  0  0  0  0
  -28.3760  -19.8040   20.3800 C   0  0  0  0  0  3  0  0  0  0  0  0
  -29.6820  -17.5870   20.4330 C   0  0  0  0  0  0  0  0  0  0  0  0
  -29.4790  -20.6840   20.6090 C   0  0  0  0  0  0  0  0  0  0  0  0
  -30.4760  -14.9470   20.2930 C   0  0  0  0  0  0  0  0  0  0  0  0
  -30.3490  -12.6190   19.3140 C   0  0  0  0  0  2  0  0  0  0  0  0
  -29.3980  -12.6290   18.0960 C   0  0  0  0  0  2  0  0  0  0  0  0
  -27.9290  -12.4440   18.5300 C   0  0  0  0  0  2  0  0  0  0  0  0
  -27.5460  -13.3340   19.7440 C   0  0  0  0  0  3  0  0  0  0  0  0
  -28.6190  -13.2820   20.8520 C   0  0  0  0  0  2  0  0  0  0  0  0
  -29.8970  -13.6860   20.2440 N   0  0  0  0  0  0  0  0  0  0  0  0
  -31.6750  -15.0530   20.0010 O   0  0  0  0  0  0  0  0  0  0  0  0
  -29.6230  -16.0640   20.4350 N   0  0  0  0  0  0  0  0  0  0  0  0
  -28.6720  -15.7310   20.5080 H   0  0  0  0  0  0  0  0  0  0  0  0
  -25.1650  -13.9040   20.5080 C   0  0  0  0  0  0  0  0  0  0  0  0
  -24.1060  -13.1280   20.8920 C   0  0  0  0  0  0  0  0  0  0  0  0
  -24.5740  -11.7800   20.8560 C   0  0  0  0  0  0  0  0  0  0  0  0
  -26.2090  -13.0310   20.2530 N   0  0  0  0  0  0  0  0  0  0  0  0
  -25.8610  -11.7440   20.5230 N   0  0  0  0  0  0  0  0  0  0  0  0
  -23.8520  -10.5160   21.0540 C   0  0  0  0  0  0  0  0  0  0  0  0
  -24.3030   -9.5370   21.9680 C   0  0  0  0  0  3  0  0  0  0  0  0
  -23.5730   -8.3430   22.1540 C   0  0  0  0  0  3  0  0  0  0  0  0
  -22.3780   -8.1170   21.4300 C   0  0  0  0  0  0  0  0  0  0  0  0
  -21.9510   -9.0840   20.5010 C   0  0  0  0  0  3  0  0  0  0  0  0
  -22.6810  -10.2690   20.3120 C   0  0  0  0  0  3  0  0  0  0  0  0
  -21.6220   -6.9740   21.5230 O   0  0  0  0  0  0  0  0  0  0  0  0
  -21.6150   -6.2110   22.6640 C   0  0  0  0  0  0  0  0  0  0  0  0
  -21.2590   -6.7490   23.9190 C   0  0  0  0  0  3  0  0  0  0  0  0
  -21.1940   -5.9120   25.0500 C   0  0  0  0  0  3  0  0  0  0  0  0
  -21.4770   -4.5390   24.9300 C   0  0  0  0  0  0  0  0  0  0  0  0
  -21.8310   -4.0020   23.6800 C   0  0  0  0  0  3  0  0  0  0  0  0
  -21.8970   -4.8360   22.5500 C   0  0  0  0  0  0  0  0  0  0  0  0
  -22.2150   -4.3080   21.3450 F   0  0  0  0  0  0  0  0  0  0  0  0
  -21.4120   -3.7330   26.0170 F   0  0  0  0  0  0  0  0  0  0  0  0
  -22.7090  -13.6040   21.1670 C   0  0  0  0  0  0  0  0  0  0  0  0
  -21.9850  -12.9160   22.0400 N   0  0  0  0  0  0  0  0  0  0  0  0
  -22.2690  -14.6240   20.6400 O   0  0  0  0  0  0  0  0  0  0  0  0
  -22.3510  -12.1010   22.5070 H   0  0  0  0  0  0  0  0  0  0  0  0
  -21.0470  -13.2270   22.2580 H   0  0  0  0  0  0  0  0  0  0  0  0
  -25.3080  -15.2770   20.3280 N   0  0  0  0  0  0  0  0  0  0  0  0
  -24.5160  -15.8980   20.4570 H   0  0  0  0  0  0  0  0  0  0  0  0
  -26.1100  -15.7440   19.9310 H   0  0  0  0  0  0  0  0  0  0  0  0
  -28.9750  -23.4020   20.1020 C   0  0  0  0  0  2  0  0  0  0  0  0
  -28.2530  -24.8040   20.7400 C   0  0  0  0  0  2  0  0  0  0  0  0
  -28.3440  -26.2710   20.2300 O   0  0  0  0  0  0  0  0  0  0  0  0
  -24.6350  -31.9050   23.2160 C   0  0  0  0  0  0  0  0  0  0  0  0
  -27.2400  -27.1970   20.2350 C   0  0  0  0  0  0  0  0  0  0  0  0
  -23.4320  -30.4920   21.5900 C   0  0  0  0  0  3  0  0  0  0  0  0
  -24.8870  -28.9060   20.1770 C   0  0  0  0  0  0  0  0  0  0  0  0
  -25.9810  -30.7780   21.4060 C   0  0  0  0  0  2  0  0  0  0  0  0
  -26.0620  -29.3790   20.7760 C   0  0  0  0  0  0  0  0  0  0  0  0
  -27.2380  -28.5420   20.7810 C   0  0  0  0  0  3  0  0  0  0  0  0
  -26.0350  -26.8130   19.6070 C   0  0  0  0  0  3  0  0  0  0  0  0
  -24.8850  -27.6350   19.5750 C   0  0  0  0  0  3  0  0  0  0  0  0
  -23.6530  -29.7960   20.2180 C   0  0  0  0  0  2  0  0  0  0  0  0
  -24.7030  -31.0810   22.1250 N   0  0  0  0  0  0  0  0  0  0  0  0
  -23.5500  -32.1920   23.7460 O   0  0  0  0  0  0  0  0  0  0  0  0
  -22.7600  -29.4940   22.5630 C   0  0  0  0  0  0  0  0  0  0  0  0
  -21.4310  -29.3240   22.4460 N   0  0  0  0  0  0  0  0  0  0  0  0
  -23.4350  -28.8730   23.3870 O   0  0  0  0  0  0  0  0  0  0  0  0
  -20.9390  -29.8750   21.7580 H   0  0  0  0  0  0  0  0  0  0  0  0
  -18.0560  -28.1130   22.9630 C   0  0  0  0  0  0  0  0  0  0  0  0
  -20.6150  -28.3890   23.2250 C   0  0  0  0  0  3  0  0  0  0  0  0
  -20.7190  -26.9510   22.6640 C   0  0  0  0  0  2  0  0  0  0  0  0
  -19.6180  -26.6160   21.6520 C   0  0  0  0  0  2  0  0  0  0  0  0
  -18.2370  -26.7600   22.2950 C   0  0  0  0  0  2  0  0  0  0  0  0
  -19.1730  -28.8850   23.3840 C   0  0  0  0  0  0  0  0  0  0  0  0
  -18.9480  -30.1510   23.9680 C   0  0  0  0  0  3  0  0  0  0  0  0
  -17.6410  -30.6460   24.1340 C   0  0  0  0  0  3  0  0  0  0  0  0
  -16.5390  -29.8720   23.7290 C   0  0  0  0  0  3  0  0  0  0  0  0
  -16.7480  -28.6090   23.1490 C   0  0  0  0  0  3  0  0  0  0  0  0
  -25.9150  -32.5460   23.8370 C   0  0  0  0  0  3  0  0  0  0  0  0
  -26.4390  -31.7770   25.1130 C   0  0  1  0  0  0  0  0  0  0  0  0
  -25.3520  -31.5450   26.1890 C   0  0  0  0  0  1  0  0  0  0  0  0
  -27.0200  -30.3960   24.7250 C   0  0  0  0  0  1  0  0  0  0  0  0
  -27.5870  -32.5750   25.7720 C   0  0  0  0  0  1  0  0  0  0  0  0
  -25.5950  -33.9420   24.1730 N   0  0  0  0  0  0  0  0  0  0  0  0
  -25.9150  -35.0040   23.4210 C   0  0  0  0  0  0  0  0  0  0  0  0
  -26.5790  -34.9110   22.3840 O   0  0  0  0  0  0  0  0  0  0  0  0
  -25.0020  -34.0870   24.9770 H   0  0  0  0  0  0  0  0  0  0  0  0
  -24.1720  -36.7930   23.1100 C   0  0  0  0  0  1  0  0  0  0  0  0
  -25.4280  -36.3870   23.8970 C   0  0  0  0  0  3  0  0  0  0  0  0
  -27.5760  -37.2820   24.6880 C   0  0  0  0  0  1  0  0  0  0  0  0
  -26.4510  -37.4480   23.7710 N   0  0  0  0  0  0  0  0  0  0  0  0
  -26.0390  -38.3630   23.9340 H   0  0  0  0  0  0  0  0  0  0  0  0
  2  1  1  0
  3  5  1  0
  4  6  2  0
  4  7  1  0
  6  8  1  0
  7 17  1  0
  7  3  2  0
  8  5  2  0
  8  2  1  0
  9 17  1  0
 10 15  1  0
 11 12  1  0
 11 10  1  0
 13 12  1  0
 13 22  1  0
 13 14  1  0
 15  9  1  0
 15 14  1  0
 16  9  2  0
 17 18  1  0
 19 20  2  0
 20 39  1  0
 21 20  1  0
 21 24  1  0
 22 19  1  0
 22 23  1  0
 23 21  2  0
 24 25  1  0
 25 26  2  0
 27 30  1  0
 27 26  1  0
 28 27  2  0
 29 28  1  0
 29 24  2  0
 30 31  1  0
 31 32  1  0
 32 33  2  0
 34 33  1  0
 34 38  1  0
 35 34  2  0
 36 31  2  0
 36 35  1  0
 37 36  1  0
 39 40  1  0
 40 43  1  0
 40 42  1  0
 41 39  2  0
 44 45  1  0
 44 19  1  0
 46 44  1  0
 47 48  1  0
 47  2  1  0
 49 51  1  0
 49 48  1  0
 50 61  2  0
 51 56  1  0
 52 60  1  0
 52 62  1  0
 53 59  1  0
 53 55  1  0
 54 60  1  0
 55 56  2  0
 55 54  1  0
 57 51  2  0
 58 57  1  0
 58 53  2  0
 59 52  1  0
 60 50  1  0
 62 64  2  0
 63 62  1  0
 65 63  1  0
 66 75  2  0
 66 71  1  0
 67 63  1  0
 67 71  1  0
 68 67  1  0
 69 70  1  0
 69 68  1  0
 70 66  1  0
 71 72  2  0
 72 73  1  0
 74 73  2  0
 75 74  1  0
 76 50  1  0
 76 81  1  0
 76 77  1  0
 77 80  1  1
 77 78  1  0
 79 77  1  0
 81 84  1  0
 82 86  1  0
 82 81  1  0
 83 82  2  0
 86 85  1  0
 88 86  1  0
 88 89  1  0
 88 87  1  0
M  ISO  4   9 100  17 100  48 101  49 101
M  END
>  <TORSDO>  (71) 
F 19

>  <SCORE>  (71) 
-15.308

>  <name>  (71) 
72

>  <ligand_id>  (71) 
72

>  <original_smiles>  (71) 
[H]c1c([H])c([H])c2c(c1[H])C([H])([H])C([H])([H])C([H])([H])C2([H])N([H])C(=O)C1([H])N(C(=O)C([H])(N([H])C(=O)C([H])(N([H])C([H])([H])[H])C([H])([H])[H])C(C([H])([H])[H])(C([H])([H])[H])C([H])([H])[H])C([H])([H])c2c([H])c(OC([H])([H])C([H])([H])N(c3c([H])c([H])c(N([H])C(=O)N4C([H])([H])C([H])([H])C([H])([H])C([H])(n5nc(-c6c([H])c([H])c(Oc7c([H])c([H])c(F)c([H])c7F)c([H])c6[H])c(C(=O)N([H])[H])c5N([H])[H])C4([H])[H])c([H])c3[H])C([H])([H])[H])c([H])c([H])c2C1([H])[H]

>  <smiles>  (71) 
[H]c1c([H])c([H])c2c(c1[H])C([H])([H])C([H])([H])C([H])([H])C2([H])N([H])C(=O)C1([H])N(C(=O)C([H])(N([H])C(=O)C([H])(N([H])C([H])([H])[H])C([H])([H])[H])C(C([H])([H])[H])(C([H])([H])[H])C([H])([H])[H])C([H])([H])c2c([H])c(OC([H])([H])C([H])([H])N(c3c([H])c([H])c(N([H])C(=O)N4C([H])([H])C([H])([H])C([H])([H])C([H])(n5nc(-c6c([H])c([H])c(Oc7c([H])c([H])c(F)c([H])c7F)c([H])c6[H])c(C(=O)N([H])[H])c5N([H])[H])C4([H])[H])c([H])c3[H])C([H])([H])[H])c([H])c([H])c2C1([H])[H]

$$$$
73:0:0
     RDKit          3D

 89 97  0  0  1  0  0  0  0  0999 V2000
  -28.4990  -18.0880   19.8740 C   0  0  0  0  0  3  0  0  0  0  0  0
  -28.1120  -19.4840   19.7810 C   0  0  0  0  0  3  0  0  0  0  0  0
  -30.2240  -20.1590   20.5490 C   0  0  0  0  0  3  0  0  0  0  0  0
  -29.7740  -17.6230   20.3250 C   0  0  0  0  0  0  0  0  0  0  0  0
  -28.9270  -20.6140   20.1320 C   0  0  0  0  0  0  0  0  0  0  0  0
  -30.6270  -18.7540   20.6430 C   0  0  0  0  0  0  0  0  0  0  0  0
  -32.2360  -18.4550   21.1970 Cl  0  0  0  0  0  0  0  0  0  0  0  0
  -30.6310  -15.0490   20.0330 C   0  0  0  0  0  0  0  0  0  0  0  0
  -30.4350  -12.7420   18.9770 C   0  0  0  0  0  2  0  0  0  0  0  0
  -29.4250  -12.7350   17.8060 C   0  0  0  0  0  2  0  0  0  0  0  0
  -27.9960  -12.4860   18.3220 C   0  0  0  0  0  2  0  0  0  0  0  0
  -27.6590  -13.3630   19.5520 C   0  0  0  0  0  3  0  0  0  0  0  0
  -28.7800  -13.3380   20.6090 C   0  0  0  0  0  2  0  0  0  0  0  0
  -30.0220  -13.7910   19.9580 N   0  0  0  0  0  0  0  0  0  0  0  0
  -31.7350  -15.1690   19.4880 O   0  0  0  0  0  0  0  0  0  0  0  0
  -30.1500  -16.0000   22.1680 C   0  0  0  0  0  1  0  0  0  0  0  0
  -30.0290  -16.1510   20.7100 N   0  0  0  0  0  0  0  0  0  0  0  0
  -25.3300  -13.8830   20.4780 C   0  0  0  0  0  0  0  0  0  0  0  0
  -24.3010  -13.0800   20.8880 C   0  0  0  0  0  0  0  0  0  0  0  0
  -24.7760  -11.7370   20.7720 C   0  0  0  0  0  0  0  0  0  0  0  0
  -26.3610  -13.0280   20.1270 N   0  0  0  0  0  0  0  0  0  0  0  0
  -26.0420  -11.7300   20.3700 N   0  0  0  0  0  0  0  0  0  0  0  0
  -24.0770  -10.4590   20.9600 C   0  0  0  0  0  0  0  0  0  0  0  0
  -24.5370   -9.4940   21.8830 C   0  0  0  0  0  3  0  0  0  0  0  0
  -23.8360   -8.2810   22.0610 C   0  0  0  0  0  3  0  0  0  0  0  0
  -22.6610   -8.0260   21.3160 C   0  0  0  0  0  0  0  0  0  0  0  0
  -22.2190   -8.9800   20.3830 C   0  0  0  0  0  3  0  0  0  0  0  0
  -22.9220  -10.1840   20.2030 C   0  0  0  0  0  3  0  0  0  0  0  0
  -21.9290   -6.8670   21.4040 O   0  0  0  0  0  0  0  0  0  0  0  0
  -21.8350   -6.1620   22.5770 C   0  0  0  0  0  0  0  0  0  0  0  0
  -21.3180   -6.7420   23.7570 C   0  0  0  0  0  3  0  0  0  0  0  0
  -21.1740   -5.9610   24.9210 C   0  0  0  0  0  3  0  0  0  0  0  0
  -21.5360   -4.6010   24.9070 C   0  0  0  0  0  0  0  0  0  0  0  0
  -22.0460   -4.0200   23.7320 C   0  0  0  0  0  3  0  0  0  0  0  0
  -22.1910   -4.7980   22.5700 C   0  0  0  0  0  0  0  0  0  0  0  0
  -22.6620   -4.2280   21.4350 F   0  0  0  0  0  0  0  0  0  0  0  0
  -21.3910   -3.8480   26.0220 F   0  0  0  0  0  0  0  0  0  0  0  0
  -22.9210  -13.5280   21.2740 C   0  0  0  0  0  0  0  0  0  0  0  0
  -22.2670  -12.7980   22.1700 N   0  0  0  0  0  0  0  0  0  0  0  0
  -22.4340  -14.5620   20.8170 O   0  0  0  0  0  0  0  0  0  0  0  0
  -22.6760  -11.9630   22.5620 H   0  0  0  0  0  0  0  0  0  0  0  0
  -21.3440  -13.0800   22.4700 H   0  0  0  0  0  0  0  0  0  0  0  0
  -25.4690  -15.2610   20.3500 N   0  0  0  0  0  0  0  0  0  0  0  0
  -24.7140  -15.9090   20.5520 H   0  0  0  0  0  0  0  0  0  0  0  0
  -26.3050  -15.7190   20.0080 H   0  0  0  0  0  0  0  0  0  0  0  0
  -28.3640  -21.9660   20.0220 O   0  0  0  0  0  0  0  0  0  0  0  0
  -28.8910  -23.3710   20.3640 C   0  0  0  0  0  3  0  0  0  0  0  0
  -27.9400  -24.7440   20.0980 C   0  0  0  0  0  3  0  0  0  0  0  0
  -28.2330  -26.2570   20.3390 O   0  0  0  0  0  0  0  0  0  0  0  0
  -24.6700  -31.9700   23.3400 C   0  0  0  0  0  0  0  0  0  0  0  0
  -27.1880  -27.2510   20.2730 C   0  0  0  0  0  0  0  0  0  0  0  0
  -23.4490  -30.5930   21.7000 C   0  0  0  0  0  3  0  0  0  0  0  0
  -24.8760  -29.0160   20.2590 C   0  0  0  0  0  0  0  0  0  0  0  0
  -26.0060  -30.8380   21.5250 C   0  0  0  0  0  2  0  0  0  0  0  0
  -26.0620  -29.4490   20.8650 C   0  0  0  0  0  0  0  0  0  0  0  0
  -27.2190  -28.5820   20.8550 C   0  0  0  0  0  3  0  0  0  0  0  0
  -25.9760  -26.9220   19.6260 C   0  0  0  0  0  3  0  0  0  0  0  0
  -24.8450  -27.7660   19.6240 C   0  0  0  0  0  3  0  0  0  0  0  0
  -23.6570  -29.9230   20.3170 C   0  0  0  0  0  2  0  0  0  0  0  0
  -24.7290  -31.1540   22.2440 N   0  0  0  0  0  0  0  0  0  0  0  0
  -23.5890  -32.2630   23.8740 O   0  0  0  0  0  0  0  0  0  0  0  0
  -22.7650  -29.5880   22.6600 C   0  0  0  0  0  0  0  0  0  0  0  0
  -21.4400  -29.4060   22.5170 N   0  0  0  0  0  0  0  0  0  0  0  0
  -23.4300  -28.9720   23.4980 O   0  0  0  0  0  0  0  0  0  0  0  0
  -20.9600  -29.9540   21.8170 H   0  0  0  0  0  0  0  0  0  0  0  0
  -18.0670  -28.1620   22.9570 C   0  0  0  0  0  0  0  0  0  0  0  0
  -20.6150  -28.4710   23.2840 C   0  0  0  0  0  3  0  0  0  0  0  0
  -20.7530  -27.0300   22.7390 C   0  0  0  0  0  2  0  0  0  0  0  0
  -19.6820  -26.6710   21.7030 C   0  0  0  0  0  2  0  0  0  0  0  0
  -18.2820  -26.8040   22.3090 C   0  0  0  0  0  2  0  0  0  0  0  0
  -19.1620  -28.9510   23.4000 C   0  0  0  0  0  0  0  0  0  0  0  0
  -18.9070  -30.2190   23.9660 C   0  0  0  0  0  3  0  0  0  0  0  0
  -17.5900  -30.6990   24.0930 C   0  0  0  0  0  3  0  0  0  0  0  0
  -16.5100  -29.9080   23.6660 C   0  0  0  0  0  3  0  0  0  0  0  0
  -16.7490  -28.6410   23.1030 C   0  0  0  0  0  3  0  0  0  0  0  0
  -25.9570  -32.5900   23.9640 C   0  0  0  0  0  3  0  0  0  0  0  0
  -26.4490  -31.8280   25.2560 C   0  0  1  0  0  0  0  0  0  0  0  0
  -25.3430  -31.6250   26.3190 C   0  0  0  0  0  1  0  0  0  0  0  0
  -27.0120  -30.4350   24.8930 C   0  0  0  0  0  1  0  0  0  0  0  0
  -27.6070  -32.6120   25.9170 C   0  0  0  0  0  1  0  0  0  0  0  0
  -25.6690  -33.9980   24.2800 N   0  0  0  0  0  0  0  0  0  0  0  0
  -25.9990  -35.0390   23.5030 C   0  0  0  0  0  0  0  0  0  0  0  0
  -26.6440  -34.9140   22.4590 O   0  0  0  0  0  0  0  0  0  0  0  0
  -25.0940  -34.1700   25.0920 H   0  0  0  0  0  0  0  0  0  0  0  0
  -24.2710  -36.8430   23.1860 C   0  0  0  0  0  1  0  0  0  0  0  0
  -25.5410  -36.4400   23.9550 C   0  0  0  0  0  3  0  0  0  0  0  0
  -27.7100  -37.3250   24.6880 C   0  0  0  0  0  1  0  0  0  0  0  0
  -26.5750  -37.4830   23.7830 N   0  0  0  0  0  0  0  0  0  0  0  0
  -26.1810  -38.4080   23.9270 H   0  0  0  0  0  0  0  0  0  0  0  0
  1  4  1  0
  2  1  2  0
  2  5  1  0
  3  6  1  0
  4  6  2  0
  4 17  1  0
  5  3  2  0
  6  7  1  0
  8 17  1  0
  9 14  1  0
 10 11  1  0
 10  9  1  0
 12 11  1  0
 12 21  1  0
 12 13  1  0
 14  8  1  0
 14 13  1  0
 15  8  2  0
 17 16  1  0
 18 19  2  0
 19 38  1  0
 20 19  1  0
 20 23  1  0
 21 22  1  0
 21 18  1  0
 22 20  2  0
 23 24  1  0
 24 25  2  0
 26 29  1  0
 26 25  1  0
 27 26  2  0
 28 27  1  0
 28 23  2  0
 29 30  1  0
 30 31  1  0
 31 32  2  0
 33 32  1  0
 33 37  1  0
 34 33  2  0
 35 30  2  0
 35 34  1  0
 36 35  1  0
 38 39  1  0
 39 42  1  0
 39 41  1  0
 40 38  2  0
 43 18  1  0
 43 44  1  0
 45 43  1  0
 46  5  1  0
 46 47  1  0
 48 49  1  0
 48 47  2  0
 50 61  2  0
 51 49  1  0
 51 56  1  0
 52 60  1  0
 52 62  1  0
 53 59  1  0
 53 55  1  0
 54 60  1  0
 55 54  1  0
 56 55  2  0
 57 51  2  0
 58 57  1  0
 58 53  2  0
 59 52  1  0
 60 50  1  0
 62 64  2  0
 63 62  1  0
 65 63  1  0
 66 75  2  0
 66 71  1  0
 67 63  1  0
 67 71  1  0
 68 67  1  0
 69 70  1  0
 69 68  1  0
 70 66  1  0
 71 72  2  0
 72 73  1  0
 74 73  2  0
 75 74  1  0
 76 50  1  0
 76 81  1  0
 76 77  1  0
 77 80  1  1
 77 78  1  0
 79 77  1  0
 81 84  1  0
 82 86  1  0
 82 81  1  0
 83 82  2  0
 86 85  1  0
 88 89  1  0
 88 86  1  0
 88 87  1  0
M  ISO  4   8 100  17 100  48 101  49 101
M  END
>  <TORSDO>  (72) 
F 19

>  <SCORE>  (72) 
-13.899

>  <name>  (72) 
73

>  <ligand_id>  (72) 
73

>  <original_smiles>  (72) 
[H]c1c([H])c([H])c2c(c1[H])C([H])([H])C([H])([H])C([H])([H])C2([H])N([H])C(=O)C1([H])N(C(=O)C([H])(N([H])C(=O)C([H])(N([H])C([H])([H])[H])C([H])([H])[H])C(C([H])([H])[H])(C([H])([H])[H])C([H])([H])[H])C([H])([H])c2c([H])c(OC([H])([H])C([H])([H])Oc3c([H])c([H])c(N(C(=O)N4C([H])([H])C([H])([H])C([H])([H])C([H])(n5nc(-c6c([H])c([H])c(Oc7c([H])c([H])c(F)c([H])c7F)c([H])c6[H])c(C(=O)N([H])[H])c5N([H])[H])C4([H])[H])C([H])([H])[H])c(Cl)c3[H])c([H])c([H])c2C1([H])[H]

>  <smiles>  (72) 
[H]c1c([H])c([H])c2c(c1[H])C([H])([H])C([H])([H])C([H])([H])C2([H])N([H])C(=O)C1([H])N(C(=O)C([H])(N([H])C(=O)C([H])(N([H])C([H])([H])[H])C([H])([H])[H])C(C([H])([H])[H])(C([H])([H])[H])C([H])([H])[H])C([H])([H])c2c([H])c(OC([H])([H])C([H])([H])Oc3c([H])c([H])c(N(C(=O)N4C([H])([H])C([H])([H])C([H])([H])C([H])(n5nc(-c6c([H])c([H])c(Oc7c([H])c([H])c(F)c([H])c7F)c([H])c6[H])c(C(=O)N([H])[H])c5N([H])[H])C4([H])[H])C([H])([H])[H])c(Cl)c3[H])c([H])c([H])c2C1([H])[H]

$$$$
74:0:0
     RDKit          3D

 94103  0  0  1  0  0  0  0  0999 V2000
  -30.1610  -19.9990   21.3320 C   0  0  0  0  0  3  0  0  0  0  0  0
  -30.3500  -18.5590   21.2140 C   0  0  0  0  0  3  0  0  0  0  0  0
  -28.5350  -19.9670   19.6570 C   0  0  0  0  0  3  0  0  0  0  0  0
  -28.6970  -18.5170   19.5220 C   0  0  0  0  0  0  0  0  0  0  0  0
  -29.2280  -20.8070   20.5830 C   0  0  0  0  0  0  0  0  0  0  0  0
  -29.6100  -17.7110   20.3250 C   0  0  0  0  0  0  0  0  0  0  0  0
  -30.4890  -15.0560   20.3290 C   0  0  0  0  0  0  0  0  0  0  0  0
  -30.4110  -12.7050   19.3760 C   0  0  0  0  0  2  0  0  0  0  0  0
  -29.4600  -12.6760   18.1550 C   0  0  0  0  0  2  0  0  0  0  0  0
  -27.9960  -12.4670   18.5920 C   0  0  0  0  0  2  0  0  0  0  0  0
  -27.6010  -13.3640   19.7950 C   0  0  0  0  0  3  0  0  0  0  0  0
  -28.6700  -13.3550   20.9080 C   0  0  0  0  0  2  0  0  0  0  0  0
  -29.9310  -13.7820   20.2830 N   0  0  0  0  0  0  0  0  0  0  0  0
  -31.7000  -15.1660   20.1060 O   0  0  0  0  0  0  0  0  0  0  0  0
  -29.6040  -16.1680   20.3550 N   0  0  0  0  0  0  0  0  0  0  0  0
  -28.6620  -15.8150   20.2660 H   0  0  0  0  0  0  0  0  0  0  0  0
  -25.2250  -13.9480   20.5500 C   0  0  0  0  0  0  0  0  0  0  0  0
  -24.1590  -13.1730   20.9210 C   0  0  0  0  0  0  0  0  0  0  0  0
  -24.6240  -11.8230   20.8770 C   0  0  0  0  0  0  0  0  0  0  0  0
  -26.2640  -13.0690   20.2960 N   0  0  0  0  0  0  0  0  0  0  0  0
  -25.9120  -11.7850   20.5580 N   0  0  0  0  0  0  0  0  0  0  0  0
  -23.8960  -10.5600   21.0610 C   0  0  0  0  0  0  0  0  0  0  0  0
  -24.3300   -9.5830   21.9830 C   0  0  0  0  0  3  0  0  0  0  0  0
  -23.6040   -8.3860   22.1550 C   0  0  0  0  0  3  0  0  0  0  0  0
  -22.4260   -8.1570   21.4070 C   0  0  0  0  0  0  0  0  0  0  0  0
  -22.0100   -9.1230   20.4720 C   0  0  0  0  0  3  0  0  0  0  0  0
  -22.7370  -10.3120   20.2980 C   0  0  0  0  0  3  0  0  0  0  0  0
  -21.6720   -7.0120   21.4880 O   0  0  0  0  0  0  0  0  0  0  0  0
  -21.6300   -6.2600   22.6350 C   0  0  0  0  0  0  0  0  0  0  0  0
  -21.2100   -6.8020   23.8670 C   0  0  0  0  0  3  0  0  0  0  0  0
  -21.1140   -5.9780   25.0060 C   0  0  0  0  0  3  0  0  0  0  0  0
  -21.4280   -4.6090   24.9120 C   0  0  0  0  0  0  0  0  0  0  0  0
  -21.8440   -4.0660   23.6840 C   0  0  0  0  0  3  0  0  0  0  0  0
  -21.9420   -4.8880   22.5490 C   0  0  0  0  0  0  0  0  0  0  0  0
  -22.3210   -4.3540   21.3630 F   0  0  0  0  0  0  0  0  0  0  0  0
  -21.3320   -3.8160   26.0030 F   0  0  0  0  0  0  0  0  0  0  0  0
  -22.7640  -13.6520   21.1960 C   0  0  0  0  0  0  0  0  0  0  0  0
  -22.0320  -12.9570   22.0600 N   0  0  0  0  0  0  0  0  0  0  0  0
  -22.3260  -14.6810   20.6810 O   0  0  0  0  0  0  0  0  0  0  0  0
  -22.3910  -12.1240   22.5050 H   0  0  0  0  0  0  0  0  0  0  0  0
  -21.0960  -13.2670   22.2760 H   0  0  0  0  0  0  0  0  0  0  0  0
  -25.3870  -15.3180   20.3820 N   0  0  0  0  0  0  0  0  0  0  0  0
  -24.6180  -15.9620   20.5240 H   0  0  0  0  0  0  0  0  0  0  0  0
  -26.1820  -15.7490   19.9280 H   0  0  0  0  0  0  0  0  0  0  0  0
  -29.4890  -24.4930   21.7850 C   0  0  0  0  0  2  0  0  0  0  0  0
  -29.5750  -22.9410   21.9760 C   0  0  0  0  0  2  0  0  0  0  0  0
  -28.2990  -23.4190   20.0540 C   0  0  0  0  0  2  0  0  0  0  0  0
  -28.2640  -24.8320   20.9120 C   0  0  0  0  0  3  0  0  0  0  0  0
  -29.0310  -22.2810   20.7880 N   0  0  0  0  0  0  0  0  0  0  0  0
  -28.3770  -26.3100   20.4300 O   0  0  0  0  0  0  0  0  0  0  0  0
  -24.6460  -31.9770   23.2920 C   0  0  0  0  0  0  0  0  0  0  0  0
  -27.2870  -27.2430   20.4000 C   0  0  0  0  0  0  0  0  0  0  0  0
  -23.4710  -30.5450   21.6630 C   0  0  0  0  0  3  0  0  0  0  0  0
  -24.9470  -28.9530   20.2870 C   0  0  0  0  0  0  0  0  0  0  0  0
  -26.0240  -30.8360   21.5120 C   0  0  0  0  0  2  0  0  0  0  0  0
  -26.1140  -29.4320   20.8950 C   0  0  0  0  0  0  0  0  0  0  0  0
  -27.2890  -28.5940   20.9270 C   0  0  0  0  0  3  0  0  0  0  0  0
  -26.0960  -26.8500   19.7590 C   0  0  0  0  0  3  0  0  0  0  0  0
  -24.9510  -27.6780   19.7000 C   0  0  0  0  0  3  0  0  0  0  0  0
  -23.7100  -29.8410   20.3000 C   0  0  0  0  0  2  0  0  0  0  0  0
  -24.7330  -31.1410   22.2120 N   0  0  0  0  0  0  0  0  0  0  0  0
  -23.5540  -32.2630   23.8070 O   0  0  0  0  0  0  0  0  0  0  0  0
  -22.7950  -29.5500   22.6370 C   0  0  0  0  0  0  0  0  0  0  0  0
  -21.4720  -29.3580   22.4920 N   0  0  0  0  0  0  0  0  0  0  0  0
  -23.4620  -28.9520   23.4840 O   0  0  0  0  0  0  0  0  0  0  0  0
  -20.9900  -29.8910   21.7820 H   0  0  0  0  0  0  0  0  0  0  0  0
  -18.0970  -28.1290   22.9650 C   0  0  0  0  0  0  0  0  0  0  0  0
  -20.6490  -28.4270   23.2690 C   0  0  0  0  0  3  0  0  0  0  0  0
  -20.7770  -26.9840   22.7240 C   0  0  0  0  0  2  0  0  0  0  0  0
  -19.6950  -26.6300   21.6980 C   0  0  0  0  0  2  0  0  0  0  0  0
  -18.3010  -26.7700   22.3170 C   0  0  0  0  0  2  0  0  0  0  0  0
  -19.2000  -28.9130   23.3980 C   0  0  0  0  0  0  0  0  0  0  0  0
  -18.9560  -30.1850   23.9640 C   0  0  0  0  0  3  0  0  0  0  0  0
  -17.6420  -30.6700   24.1020 C   0  0  0  0  0  3  0  0  0  0  0  0
  -16.5530  -29.8830   23.6860 C   0  0  0  0  0  3  0  0  0  0  0  0
  -16.7830  -28.6140   23.1240 C   0  0  0  0  0  3  0  0  0  0  0  0
  -25.9140  -32.6310   23.9220 C   0  0  0  0  0  3  0  0  0  0  0  0
  -26.4180  -31.8850   25.2210 C   0  0  1  0  0  0  0  0  0  0  0  0
  -25.3100  -31.6530   26.2750 C   0  0  0  0  0  1  0  0  0  0  0  0
  -27.0200  -30.5070   24.8620 C   0  0  0  0  0  1  0  0  0  0  0  0
  -27.5500  -32.7010   25.8880 C   0  0  0  0  0  1  0  0  0  0  0  0
  -25.5900  -34.0340   24.2300 N   0  0  0  0  0  0  0  0  0  0  0  0
  -25.9190  -35.0800   23.4610 C   0  0  0  0  0  0  0  0  0  0  0  0
  -26.5940  -34.9670   22.4340 O   0  0  0  0  0  0  0  0  0  0  0  0
  -24.9880  -34.1920   25.0250 H   0  0  0  0  0  0  0  0  0  0  0  0
  -24.1760  -36.8550   23.0880 C   0  0  0  0  0  1  0  0  0  0  0  0
  -25.4220  -36.4710   23.9010 C   0  0  0  0  0  3  0  0  0  0  0  0
  -27.5510  -37.3880   24.7140 C   0  0  0  0  0  1  0  0  0  0  0  0
  -26.4450  -37.5310   23.7680 N   0  0  0  0  0  0  0  0  0  0  0  0
  -26.0310  -38.4500   23.9010 H   0  0  0  0  0  0  0  0  0  0  0  0
  -27.8640  -17.8870   18.4010 C   0  0  1  0  0  0  0  0  0  0  0  0
  -28.5010  -18.0870   17.2470 F   0  0  0  0  0  0  0  0  0  0  0  0
  -27.6620  -16.5770   18.5480 F   0  0  0  0  0  0  0  0  0  0  0  0
  -26.6630  -18.4640   18.3240 F   0  0  0  0  0  0  0  0  0  0  0  0
  2  1  1  0
  3  5  1  0
  4  3  2  0
  4  6  1  0
  5 49  1  0
  5  1  2  0
  6 15  1  0
  6  2  2  0
  7 15  1  0
  8 13  1  0
  9 10  1  0
  9  8  1  0
 11 10  1  0
 11 20  1  0
 11 12  1  0
 13  7  1  0
 13 12  1  0
 14  7  2  0
 16 15  1  0
 17 18  2  0
 18 37  1  0
 19 18  1  0
 19 22  1  0
 20 17  1  0
 20 21  1  0
 21 19  2  0
 22 23  1  0
 23 24  2  0
 25 28  1  0
 25 24  1  0
 26 25  2  0
 27 26  1  0
 27 22  2  0
 28 29  1  0
 29 30  1  0
 30 31  2  0
 32 31  1  0
 32 36  1  0
 33 32  2  0
 34 29  2  0
 34 33  1  0
 35 34  1  0
 37 38  1  0
 38 41  1  0
 38 40  1  0
 39 37  2  0
 42 43  1  0
 42 17  1  0
 44 42  1  0
 45 46  1  0
 47 49  1  0
 47 48  1  0
 48 50  1  0
 48 45  1  0
 49 46  1  0
 51 62  2  0
 52 50  1  0
 52 57  1  0
 53 61  1  0
 53 63  1  0
 54 60  1  0
 54 56  1  0
 55 61  1  0
 56 57  2  0
 56 55  1  0
 58 52  2  0
 59 58  1  0
 59 54  2  0
 60 53  1  0
 61 51  1  0
 63 65  2  0
 64 63  1  0
 66 64  1  0
 67 76  2  0
 67 72  1  0
 68 64  1  0
 68 72  1  0
 69 68  1  0
 70 71  1  0
 70 69  1  0
 71 67  1  0
 72 73  2  0
 73 74  1  0
 75 74  2  0
 76 75  1  0
 77 51  1  0
 77 82  1  0
 77 78  1  0
 78 81  1  1
 78 79  1  0
 80 78  1  0
 82 85  1  0
 83 87  1  0
 83 82  1  0
 84 83  2  0
 87 86  1  0
 89 87  1  0
 89 90  1  0
 89 88  1  0
 91 93  1  1
 91  4  1  0
 92 91  1  0
 94 91  1  0
M  ISO  4   7 100  15 100  48 101  50 101
M  END
>  <TORSDO>  (73) 
F 18

>  <SCORE>  (73) 
-15.059

>  <name>  (73) 
74

>  <ligand_id>  (73) 
74

>  <original_smiles>  (73) 
[H]c1c([H])c([H])c2c(c1[H])C([H])([H])C([H])([H])C([H])([H])C2([H])N([H])C(=O)C1([H])N(C(=O)C([H])(N([H])C(=O)C([H])(N([H])C([H])([H])[H])C([H])([H])[H])C(C([H])([H])[H])(C([H])([H])[H])C([H])([H])[H])C([H])([H])c2c([H])c(OC3([H])C([H])([H])N(c4c([H])c([H])c(N([H])C(=O)N5C([H])([H])C([H])([H])C([H])([H])C([H])(n6nc(-c7c([H])c([H])c(Oc8c([H])c([H])c(F)c([H])c8F)c([H])c7[H])c(C(=O)N([H])[H])c6N([H])[H])C5([H])[H])c(C(F)(F)F)c4[H])C([H])([H])C3([H])[H])c([H])c([H])c2C1([H])[H]

>  <smiles>  (73) 
[H]c1c([H])c([H])c2c(c1[H])C([H])([H])C([H])([H])C([H])([H])C2([H])N([H])C(=O)C1([H])N(C(=O)C([H])(N([H])C(=O)C([H])(N([H])C([H])([H])[H])C([H])([H])[H])C(C([H])([H])[H])(C([H])([H])[H])C([H])([H])[H])C([H])([H])c2c([H])c(OC3([H])C([H])([H])N(c4c([H])c([H])c(N([H])C(=O)N5C([H])([H])C([H])([H])C([H])([H])C([H])(n6nc(-c7c([H])c([H])c(Oc8c([H])c([H])c(F)c([H])c8F)c([H])c7[H])c(C(=O)N([H])[H])c6N([H])[H])C5([H])[H])c(C(F)(F)F)c4[H])C([H])([H])C3([H])[H])c([H])c([H])c2C1([H])[H]

$$$$
75:0:0
     RDKit          3D

 91100  0  0  1  0  0  0  0  0999 V2000
  -28.9940  -24.4010   21.8230 C   0  0  0  0  0  2  0  0  0  0  0  0
  -29.0310  -22.8450   21.9740 C   0  0  0  0  0  2  0  0  0  0  0  0
  -28.5380  -23.3920   19.7420 C   0  0  0  0  0  2  0  0  0  0  0  0
  -28.1310  -24.7520   20.5950 C   0  0  0  0  0  3  0  0  0  0  0  0
  -29.0080  -22.2350   20.6400 N   0  0  0  0  0  0  0  0  0  0  0  0
  -28.4440  -19.8660   19.6780 C   0  0  0  0  0  3  0  0  0  0  0  0
  -28.6090  -18.4190   19.6300 C   0  0  0  0  0  3  0  0  0  0  0  0
  -30.4440  -18.5480   21.0880 C   0  0  0  0  0  3  0  0  0  0  0  0
  -29.2350  -20.7580   20.4760 C   0  0  0  0  0  0  0  0  0  0  0  0
  -29.6160  -17.6570   20.3270 C   0  0  0  0  0  0  0  0  0  0  0  0
  -30.2600  -19.9960   21.1690 C   0  0  0  0  0  0  0  0  0  0  0  0
  -31.1260  -20.6660   21.9660 F   0  0  0  0  0  0  0  0  0  0  0  0
  -30.4720  -15.0070   20.2490 C   0  0  0  0  0  0  0  0  0  0  0  0
  -30.3890  -12.6630   19.2790 C   0  0  0  0  0  2  0  0  0  0  0  0
  -29.4280  -12.6210   18.0670 C   0  0  0  0  0  2  0  0  0  0  0  0
  -27.9730  -12.3990   18.5220 C   0  0  0  0  0  2  0  0  0  0  0  0
  -27.5800  -13.3090   19.7140 C   0  0  0  0  0  3  0  0  0  0  0  0
  -28.6550  -13.3020   20.8230 C   0  0  0  0  0  2  0  0  0  0  0  0
  -29.9150  -13.7320   20.2000 N   0  0  0  0  0  0  0  0  0  0  0  0
  -31.6730  -15.1230   19.9750 O   0  0  0  0  0  0  0  0  0  0  0  0
  -29.5930  -16.1180   20.3670 N   0  0  0  0  0  0  0  0  0  0  0  0
  -28.6510  -15.7650   20.4120 H   0  0  0  0  0  0  0  0  0  0  0  0
  -25.2060  -13.8760   20.4900 C   0  0  0  0  0  0  0  0  0  0  0  0
  -24.1500  -13.0940   20.8710 C   0  0  0  0  0  0  0  0  0  0  0  0
  -24.6200  -11.7450   20.8220 C   0  0  0  0  0  0  0  0  0  0  0  0
  -26.2490  -13.0040   20.2290 N   0  0  0  0  0  0  0  0  0  0  0  0
  -25.9060  -11.7160   20.4930 N   0  0  0  0  0  0  0  0  0  0  0  0
  -23.9000  -10.4790   21.0090 C   0  0  0  0  0  0  0  0  0  0  0  0
  -24.3270   -9.5190   21.9510 C   0  0  0  0  0  3  0  0  0  0  0  0
  -23.6070   -8.3180   22.1270 C   0  0  0  0  0  3  0  0  0  0  0  0
  -22.4430   -8.0700   21.3590 C   0  0  0  0  0  0  0  0  0  0  0  0
  -22.0360   -9.0180   20.4050 C   0  0  0  0  0  3  0  0  0  0  0  0
  -22.7580  -10.2100   20.2280 C   0  0  0  0  0  3  0  0  0  0  0  0
  -21.6950   -6.9210   21.4440 O   0  0  0  0  0  0  0  0  0  0  0  0
  -21.6110   -6.2000   22.6080 C   0  0  0  0  0  0  0  0  0  0  0  0
  -21.1240   -6.7720   23.8050 C   0  0  0  0  0  3  0  0  0  0  0  0
  -20.9900   -5.9770   24.9610 C   0  0  0  0  0  3  0  0  0  0  0  0
  -21.3300   -4.6120   24.9200 C   0  0  0  0  0  0  0  0  0  0  0  0
  -21.8100   -4.0390   23.7290 C   0  0  0  0  0  3  0  0  0  0  0  0
  -21.9460   -4.8310   22.5750 C   0  0  0  0  0  0  0  0  0  0  0  0
  -22.3880   -4.2710   21.4240 F   0  0  0  0  0  0  0  0  0  0  0  0
  -21.1940   -3.8450   26.0280 F   0  0  0  0  0  0  0  0  0  0  0  0
  -22.7560  -13.5640   21.1650 C   0  0  0  0  0  0  0  0  0  0  0  0
  -22.0400  -12.8580   22.0330 N   0  0  0  0  0  0  0  0  0  0  0  0
  -22.3090  -14.5930   20.6600 O   0  0  0  0  0  0  0  0  0  0  0  0
  -22.4140  -12.0240   22.4610 H   0  0  0  0  0  0  0  0  0  0  0  0
  -21.1050  -13.1550   22.2720 H   0  0  0  0  0  0  0  0  0  0  0  0
  -25.3570  -15.2500   20.3210 N   0  0  0  0  0  0  0  0  0  0  0  0
  -24.5740  -15.8850   20.4340 H   0  0  0  0  0  0  0  0  0  0  0  0
  -26.1740  -15.6990   19.9330 H   0  0  0  0  0  0  0  0  0  0  0  0
  -28.2890  -26.2580   20.2250 O   0  0  0  0  0  0  0  0  0  0  0  0
  -24.6070  -31.9040   23.2340 C   0  0  0  0  0  0  0  0  0  0  0  0
  -27.2020  -27.2020   20.2210 C   0  0  0  0  0  0  0  0  0  0  0  0
  -23.4090  -30.5060   21.5930 C   0  0  0  0  0  3  0  0  0  0  0  0
  -24.8610  -28.9250   20.1790 C   0  0  0  0  0  0  0  0  0  0  0  0
  -25.9610  -30.7800   21.4250 C   0  0  0  0  0  2  0  0  0  0  0  0
  -26.0390  -29.3860   20.7820 C   0  0  0  0  0  0  0  0  0  0  0  0
  -27.2120  -28.5430   20.7780 C   0  0  0  0  0  3  0  0  0  0  0  0
  -25.9970  -26.8310   19.5900 C   0  0  0  0  0  3  0  0  0  0  0  0
  -24.8520  -27.6600   19.5680 C   0  0  0  0  0  3  0  0  0  0  0  0
  -23.6340  -29.8210   20.2170 C   0  0  0  0  0  2  0  0  0  0  0  0
  -24.6790  -31.0860   22.1390 N   0  0  0  0  0  0  0  0  0  0  0  0
  -23.5210  -32.1870   23.7630 O   0  0  0  0  0  0  0  0  0  0  0  0
  -22.7290  -29.5030   22.5570 C   0  0  0  0  0  0  0  0  0  0  0  0
  -21.4030  -29.3230   22.4220 N   0  0  0  0  0  0  0  0  0  0  0  0
  -23.3980  -28.8850   23.3900 O   0  0  0  0  0  0  0  0  0  0  0  0
  -20.9180  -29.8740   21.7290 H   0  0  0  0  0  0  0  0  0  0  0  0
  -18.0270  -28.1000   22.9030 C   0  0  0  0  0  0  0  0  0  0  0  0
  -20.5820  -28.3850   23.1920 C   0  0  0  0  0  3  0  0  0  0  0  0
  -20.7000  -26.9490   22.6300 C   0  0  0  0  0  2  0  0  0  0  0  0
  -19.6100  -26.6100   21.6080 C   0  0  0  0  0  2  0  0  0  0  0  0
  -18.2210  -26.7480   22.2370 C   0  0  0  0  0  2  0  0  0  0  0  0
  -19.1360  -28.8750   23.3380 C   0  0  0  0  0  0  0  0  0  0  0  0
  -18.8990  -30.1390   23.9220 C   0  0  0  0  0  3  0  0  0  0  0  0
  -17.5880  -30.6280   24.0750 C   0  0  0  0  0  3  0  0  0  0  0  0
  -16.4950  -29.8510   23.6540 C   0  0  0  0  0  3  0  0  0  0  0  0
  -16.7150  -28.5890   23.0760 C   0  0  0  0  0  3  0  0  0  0  0  0
  -25.8850  -32.5410   23.8630 C   0  0  0  0  0  3  0  0  0  0  0  0
  -25.5750  -33.9410   24.1930 N   0  0  0  0  0  0  0  0  0  0  0  0
  -25.9000  -34.9950   23.4330 C   0  0  0  0  0  0  0  0  0  0  0  0
  -26.5620  -34.8920   22.3960 O   0  0  0  0  0  0  0  0  0  0  0  0
  -24.9890  -34.0960   25.0010 H   0  0  0  0  0  0  0  0  0  0  0  0
  -24.1660  -36.7880   23.1000 C   0  0  0  0  0  1  0  0  0  0  0  0
  -25.4190  -36.3850   23.8950 C   0  0  0  0  0  3  0  0  0  0  0  0
  -27.5650  -37.2740   24.6950 C   0  0  0  0  0  1  0  0  0  0  0  0
  -26.4480  -37.4410   23.7680 N   0  0  0  0  0  0  0  0  0  0  0  0
  -26.0430  -38.3590   23.9250 H   0  0  0  0  0  0  0  0  0  0  0  0
  -26.3910  -31.7760   25.1470 C   0  0  1  0  0  0  0  0  0  0  0  0
  -25.2920  -31.5500   26.2120 C   0  0  0  0  0  1  0  0  0  0  0  0
  -26.9710  -30.3940   24.7670 C   0  0  0  0  0  1  0  0  0  0  0  0
  -27.5410  -32.5680   25.8110 C   0  0  0  0  0  1  0  0  0  0  0  0
  1  2  1  0
  3  4  1  0
  3  5  1  0
  4 51  1  0
  4  1  1  0
  5  2  1  0
  6  9  1  0
  7  6  2  0
  7 10  1  0
  8 11  1  0
  9  5  1  0
  9 11  2  0
 10 21  1  0
 10  8  2  0
 11 12  1  0
 13 21  1  0
 14 19  1  0
 15 16  1  0
 15 14  1  0
 17 16  1  0
 17 26  1  0
 17 18  1  0
 19 13  1  0
 19 18  1  0
 20 13  2  0
 21 22  1  0
 23 24  2  0
 24 43  1  0
 25 24  1  0
 25 28  1  0
 26 23  1  0
 26 27  1  0
 27 25  2  0
 28 29  1  0
 29 30  2  0
 31 34  1  0
 31 30  1  0
 32 31  2  0
 33 32  1  0
 33 28  2  0
 34 35  1  0
 35 36  1  0
 36 37  2  0
 38 37  1  0
 38 42  1  0
 39 38  2  0
 40 35  2  0
 40 39  1  0
 41 40  1  0
 43 44  1  0
 44 47  1  0
 44 46  1  0
 45 43  2  0
 48 49  1  0
 48 23  1  0
 50 48  1  0
 52 63  2  0
 53 51  1  0
 53 58  1  0
 54 62  1  0
 54 64  1  0
 55 61  1  0
 55 57  1  0
 56 62  1  0
 57 56  1  0
 58 57  2  0
 59 53  2  0
 60 59  1  0
 60 55  2  0
 61 54  1  0
 62 52  1  0
 64 66  2  0
 65 64  1  0
 67 65  1  0
 68 77  2  0
 68 73  1  0
 69 65  1  0
 69 73  1  0
 70 69  1  0
 71 72  1  0
 71 70  1  0
 72 68  1  0
 73 74  2  0
 74 75  1  0
 76 75  2  0
 77 76  1  0
 78 52  1  0
 78 79  1  0
 78 88  1  0
 79 82  1  0
 80 84  1  0
 80 79  1  0
 81 80  2  0
 84 83  1  0
 86 84  1  0
 86 87  1  0
 86 85  1  0
 88 91  1  1
 88 89  1  0
 90 88  1  0
M  ISO  4   4 101  13 100  21 100  51 101
M  END
>  <TORSDO>  (74) 
F 17

>  <SCORE>  (74) 
-15.402

>  <name>  (74) 
75

>  <ligand_id>  (74) 
75

>  <original_smiles>  (74) 
[H]c1c([H])c([H])c2c(c1[H])C([H])([H])C([H])([H])C([H])([H])C2([H])N([H])C(=O)C1([H])N(C(=O)C([H])(N([H])C(=O)C([H])(N([H])C([H])([H])[H])C([H])([H])[H])C(C([H])([H])[H])(C([H])([H])[H])C([H])([H])[H])C([H])([H])c2c([H])c(OC3([H])C([H])([H])N(c4c([H])c([H])c(N([H])C(=O)N5C([H])([H])C([H])([H])C([H])([H])C([H])(n6nc(-c7c([H])c([H])c(Oc8c([H])c([H])c(F)c([H])c8F)c([H])c7[H])c(C(=O)N([H])[H])c6N([H])[H])C5([H])[H])c([H])c4F)C([H])([H])C3([H])[H])c([H])c([H])c2C1([H])[H]

>  <smiles>  (74) 
[H]c1c([H])c([H])c2c(c1[H])C([H])([H])C([H])([H])C([H])([H])C2([H])N([H])C(=O)C1([H])N(C(=O)C([H])(N([H])C(=O)C([H])(N([H])C([H])([H])[H])C([H])([H])[H])C(C([H])([H])[H])(C([H])([H])[H])C([H])([H])[H])C([H])([H])c2c([H])c(OC3([H])C([H])([H])N(c4c([H])c([H])c(N([H])C(=O)N5C([H])([H])C([H])([H])C([H])([H])C([H])(n6nc(-c7c([H])c([H])c(Oc8c([H])c([H])c(F)c([H])c8F)c([H])c7[H])c(C(=O)N([H])[H])c6N([H])[H])C5([H])[H])c([H])c4F)C([H])([H])C3([H])[H])c([H])c([H])c2C1([H])[H]

$$$$
76:0:0
     RDKit          3D

 90 98  0  0  1  0  0  0  0  0999 V2000
  -28.4410  -19.2460   21.1130 C   0  0  0  0  0  3  0  0  0  0  0  0
  -30.6660  -19.2790   20.2150 C   0  0  0  0  0  3  0  0  0  0  0  0
  -28.3310  -20.6700   20.9440 C   0  0  0  0  0  3  0  0  0  0  0  0
  -30.5530  -20.6880   20.0260 C   0  0  0  0  0  3  0  0  0  0  0  0
  -29.6030  -18.5020   20.7400 C   0  0  0  0  0  0  0  0  0  0  0  0
  -29.3920  -21.4330   20.3720 C   0  0  0  0  0  0  0  0  0  0  0  0
  -29.4160  -22.8460   20.0970 N   0  0  0  0  0  0  0  0  0  0  0  0
  -30.2810  -23.1810   19.6740 H   0  0  0  0  0  0  0  0  0  0  0  0
  -28.5400  -23.9770   20.5520 C   0  0  0  0  0  2  0  0  0  0  0  0
  -28.6690  -25.2840   19.6400 C   0  0  0  0  0  2  0  0  0  0  0  0
  -28.5220  -26.6460   20.1880 O   0  0  0  0  0  0  0  0  0  0  0  0
  -24.6380  -31.8670   23.1970 C   0  0  0  0  0  0  0  0  0  0  0  0
  -27.3570  -27.4150   20.0940 C   0  0  0  0  0  0  0  0  0  0  0  0
  -23.4720  -30.4860   21.5130 C   0  0  0  0  0  3  0  0  0  0  0  0
  -24.9600  -28.9780   20.0780 C   0  0  0  0  0  0  0  0  0  0  0  0
  -26.0040  -30.8490   21.3620 C   0  0  0  0  0  2  0  0  0  0  0  0
  -26.1100  -29.4820   20.6950 C   0  0  0  0  0  0  0  0  0  0  0  0
  -27.3060  -28.7100   20.6930 C   0  0  0  0  0  3  0  0  0  0  0  0
  -26.1850  -26.9550   19.4540 C   0  0  0  0  0  3  0  0  0  0  0  0
  -25.0010  -27.7220   19.4510 C   0  0  0  0  0  3  0  0  0  0  0  0
  -23.7110  -29.8350   20.1230 C   0  0  0  0  0  2  0  0  0  0  0  0
  -24.7230  -31.0830   22.0820 N   0  0  0  0  0  0  0  0  0  0  0  0
  -23.5470  -32.1150   23.7280 O   0  0  0  0  0  0  0  0  0  0  0  0
  -22.8150  -29.4400   22.4440 C   0  0  0  0  0  0  0  0  0  0  0  0
  -21.4930  -29.2480   22.2990 N   0  0  0  0  0  0  0  0  0  0  0  0
  -23.4940  -28.8080   23.2570 O   0  0  0  0  0  0  0  0  0  0  0  0
  -21.0080  -29.8130   21.6170 H   0  0  0  0  0  0  0  0  0  0  0  0
  -18.1270  -28.0040   22.7410 C   0  0  0  0  0  0  0  0  0  0  0  0
  -20.6810  -28.2840   23.0430 C   0  0  0  0  0  3  0  0  0  0  0  0
  -20.8050  -26.8680   22.4370 C   0  0  0  0  0  2  0  0  0  0  0  0
  -19.7150  -26.5560   21.4050 C   0  0  0  0  0  2  0  0  0  0  0  0
  -18.3260  -26.6730   22.0390 C   0  0  0  0  0  2  0  0  0  0  0  0
  -19.2330  -28.7660   23.2020 C   0  0  0  0  0  0  0  0  0  0  0  0
  -18.9960  -30.0130   23.8220 C   0  0  0  0  0  3  0  0  0  0  0  0
  -17.6840  -30.4980   23.9860 C   0  0  0  0  0  3  0  0  0  0  0  0
  -16.5920  -29.7310   23.5430 C   0  0  0  0  0  3  0  0  0  0  0  0
  -16.8140  -28.4860   22.9250 C   0  0  0  0  0  3  0  0  0  0  0  0
  -25.9070  -32.5040   23.8450 C   0  0  0  0  0  3  0  0  0  0  0  0
  -26.4050  -31.7310   25.1290 C   0  0  1  0  0  0  0  0  0  0  0  0
  -25.2940  -31.4830   26.1730 C   0  0  0  0  0  1  0  0  0  0  0  0
  -27.0060  -30.3590   24.7430 C   0  0  0  0  0  1  0  0  0  0  0  0
  -27.5390  -32.5290   25.8180 C   0  0  0  0  0  1  0  0  0  0  0  0
  -25.5840  -33.8990   24.1780 N   0  0  0  0  0  0  0  0  0  0  0  0
  -25.9180  -34.9570   23.4280 C   0  0  0  0  0  0  0  0  0  0  0  0
  -26.6030  -34.8620   22.4050 O   0  0  0  0  0  0  0  0  0  0  0  0
  -24.9770  -34.0440   24.9710 H   0  0  0  0  0  0  0  0  0  0  0  0
  -24.1830  -36.7410   23.0510 C   0  0  0  0  0  1  0  0  0  0  0  0
  -25.4120  -36.3390   23.8830 C   0  0  0  0  0  3  0  0  0  0  0  0
  -27.5210  -37.2390   24.7660 C   0  0  0  0  0  1  0  0  0  0  0  0
  -26.4400  -37.4000   23.7960 N   0  0  0  0  0  0  0  0  0  0  0  0
  -26.0230  -38.3180   23.9390 H   0  0  0  0  0  0  0  0  0  0  0  0
  -29.7370  -16.9380   21.0120 C   0  0  0  0  0  2  0  0  0  0  0  0
  -30.7710  -14.7840   20.0150 C   0  0  0  0  0  0  0  0  0  0  0  0
  -30.4780  -12.5400   18.9720 C   0  0  0  0  0  2  0  0  0  0  0  0
  -29.4870  -12.6460   17.7940 C   0  0  0  0  0  2  0  0  0  0  0  0
  -28.0390  -12.4830   18.2980 C   0  0  0  0  0  2  0  0  0  0  0  0
  -27.7330  -13.3640   19.5390 C   0  0  0  0  0  3  0  0  0  0  0  0
  -28.8430  -13.2620   20.6100 C   0  0  0  0  0  2  0  0  0  0  0  0
  -30.1100  -13.5820   19.9510 N   0  0  0  0  0  0  0  0  0  0  0  0
  -31.9610  -14.8480   19.6890 O   0  0  0  0  0  0  0  0  0  0  0  0
  -29.9900  -16.5400   18.5770 C   0  0  0  0  0  1  0  0  0  0  0  0
  -29.9930  -15.9270   19.9080 N   0  0  0  0  0  0  0  0  0  0  0  0
  -25.3890  -13.9630   20.3990 C   0  0  0  0  0  0  0  0  0  0  0  0
  -24.3380  -13.1900   20.8000 C   0  0  0  0  0  0  0  0  0  0  0  0
  -24.7840  -11.8350   20.7150 C   0  0  0  0  0  0  0  0  0  0  0  0
  -26.4140  -13.0810   20.0930 N   0  0  0  0  0  0  0  0  0  0  0  0
  -26.0600  -11.7940   20.3510 N   0  0  0  0  0  0  0  0  0  0  0  0
  -24.0580  -10.5740   20.9050 C   0  0  0  0  0  0  0  0  0  0  0  0
  -24.5010   -9.5940   21.8210 C   0  0  0  0  0  3  0  0  0  0  0  0
  -23.7720   -8.4000   22.0030 C   0  0  0  0  0  3  0  0  0  0  0  0
  -22.5860   -8.1720   21.2670 C   0  0  0  0  0  0  0  0  0  0  0  0
  -22.1580   -9.1400   20.3410 C   0  0  0  0  0  3  0  0  0  0  0  0
  -22.8880  -10.3280   20.1570 C   0  0  0  0  0  3  0  0  0  0  0  0
  -21.8280   -7.0280   21.3530 O   0  0  0  0  0  0  0  0  0  0  0  0
  -21.7680   -6.2900   22.5090 C   0  0  0  0  0  0  0  0  0  0  0  0
  -21.3170   -6.8470   23.7250 C   0  0  0  0  0  3  0  0  0  0  0  0
  -21.2070   -6.0360   24.8740 C   0  0  0  0  0  3  0  0  0  0  0  0
  -21.5390   -4.6700   24.8040 C   0  0  0  0  0  0  0  0  0  0  0  0
  -21.9860   -4.1130   23.5910 C   0  0  0  0  0  3  0  0  0  0  0  0
  -22.0960   -4.9220   22.4460 C   0  0  0  0  0  0  0  0  0  0  0  0
  -22.5050   -4.3760   21.2760 F   0  0  0  0  0  0  0  0  0  0  0  0
  -21.4270   -3.8860   25.9010 F   0  0  0  0  0  0  0  0  0  0  0  0
  -22.9600  -13.6710   21.1520 C   0  0  0  0  0  0  0  0  0  0  0  0
  -22.2720  -12.9650   22.0410 N   0  0  0  0  0  0  0  0  0  0  0  0
  -22.5060  -14.7110   20.6770 O   0  0  0  0  0  0  0  0  0  0  0  0
  -22.6480  -12.1220   22.4490 H   0  0  0  0  0  0  0  0  0  0  0  0
  -21.3510  -13.2740   22.3160 H   0  0  0  0  0  0  0  0  0  0  0  0
  -25.5550  -15.3390   20.2510 N   0  0  0  0  0  0  0  0  0  0  0  0
  -24.7940  -15.9830   20.4440 H   0  0  0  0  0  0  0  0  0  0  0  0
  -26.4120  -15.7980   19.9770 H   0  0  0  0  0  0  0  0  0  0  0  0
  2  5  1  0
  3  1  1  0
  4  2  2  0
  4  6  1  0
  5 52  1  0
  5  1  2  0
  6  3  2  0
  7  6  1  0
  7  9  1  0
  8  7  1  0
 10 11  1  0
 10  9  1  0
 12 23  2  0
 13 11  1  0
 13 18  1  0
 14 22  1  0
 14 24  1  0
 15 21  1  0
 15 17  1  0
 16 22  1  0
 17 16  1  0
 18 17  2  0
 19 13  2  0
 20 19  1  0
 20 15  2  0
 21 14  1  0
 22 12  1  0
 24 26  2  0
 25 24  1  0
 27 25  1  0
 28 37  2  0
 28 33  1  0
 29 25  1  0
 29 33  1  0
 30 29  1  0
 31 32  1  0
 31 30  1  0
 32 28  1  0
 33 34  2  0
 34 35  1  0
 36 35  2  0
 37 36  1  0
 38 12  1  0
 38 43  1  0
 38 39  1  0
 39 42  1  1
 39 40  1  0
 41 39  1  0
 43 46  1  0
 44 48  1  0
 44 43  1  0
 45 44  2  0
 48 47  1  0
 50 48  1  0
 50 51  1  0
 50 49  1  0
 54 59  1  0
 55 56  1  0
 55 54  1  0
 57 56  1  0
 57 66  1  0
 57 58  1  0
 59 53  1  0
 59 58  1  0
 60 53  2  0
 61 62  1  0
 62 53  1  0
 62 52  1  0
 63 64  2  0
 64 83  1  0
 65 64  1  0
 65 68  1  0
 66 67  1  0
 66 63  1  0
 67 65  2  0
 68 69  1  0
 69 70  2  0
 71 74  1  0
 71 70  1  0
 72 71  2  0
 73 72  1  0
 73 68  2  0
 74 75  1  0
 75 76  1  0
 76 77  2  0
 78 77  1  0
 78 82  1  0
 79 78  2  0
 80 75  2  0
 80 79  1  0
 81 80  1  0
 83 84  1  0
 84 87  1  0
 84 86  1  0
 85 83  2  0
 88 63  1  0
 88 89  1  0
 90 88  1  0
M  ISO  4  10 101  11 101  53 100  62 100
M  END
>  <TORSDO>  (75) 
F 20

>  <SCORE>  (75) 
-12.956

>  <name>  (75) 
76

>  <ligand_id>  (75) 
76

>  <original_smiles>  (75) 
[H]c1c([H])c([H])c2c(c1[H])C([H])([H])C([H])([H])C([H])([H])C2([H])N([H])C(=O)C1([H])N(C(=O)C([H])(N([H])C(=O)C([H])(N([H])C([H])([H])[H])C([H])([H])[H])C(C([H])([H])[H])(C([H])([H])[H])C([H])([H])[H])C([H])([H])c2c([H])c(OC([H])([H])C([H])([H])N([H])c3c([H])c([H])c(C([H])([H])N(C(=O)N4C([H])([H])C([H])([H])C([H])([H])C([H])(n5nc(-c6c([H])c([H])c(Oc7c([H])c([H])c(F)c([H])c7F)c([H])c6[H])c(C(=O)N([H])[H])c5N([H])[H])C4([H])[H])C([H])([H])[H])c([H])c3[H])c([H])c([H])c2C1([H])[H]

>  <smiles>  (75) 
[H]c1c([H])c([H])c2c(c1[H])C([H])([H])C([H])([H])C([H])([H])C2([H])N([H])C(=O)C1([H])N(C(=O)C([H])(N([H])C(=O)C([H])(N([H])C([H])([H])[H])C([H])([H])[H])C(C([H])([H])[H])(C([H])([H])[H])C([H])([H])[H])C([H])([H])c2c([H])c(OC([H])([H])C([H])([H])N([H])c3c([H])c([H])c(C([H])([H])N(C(=O)N4C([H])([H])C([H])([H])C([H])([H])C([H])(n5nc(-c6c([H])c([H])c(Oc7c([H])c([H])c(F)c([H])c7F)c([H])c6[H])c(C(=O)N([H])[H])c5N([H])[H])C4([H])[H])C([H])([H])[H])c([H])c3[H])c([H])c([H])c2C1([H])[H]

$$$$
77:0:0
     RDKit          3D

 92100  0  0  1  0  0  0  0  0999 V2000
  -28.3570  -18.7300   20.7340 C   0  0  0  0  0  3  0  0  0  0  0  0
  -30.2200  -20.2520   19.2970 C   0  0  0  0  0  3  0  0  0  0  0  0
  -29.4300  -18.0600   20.1050 C   0  0  0  0  0  0  0  0  0  0  0  0
  -29.1080  -20.9170   19.8800 C   0  0  0  0  0  0  0  0  0  0  0  0
  -28.1980  -20.1300   20.6230 C   0  0  0  0  0  0  0  0  0  0  0  0
  -30.3720  -18.8450   19.3970 C   0  0  0  0  0  0  0  0  0  0  0  0
  -27.1320  -20.7210   21.2140 F   0  0  0  0  0  0  0  0  0  0  0  0
  -31.4100  -18.2440   18.7710 F   0  0  0  0  0  0  0  0  0  0  0  0
  -29.4560  -16.5140   20.0900 C   0  0  0  0  0  2  0  0  0  0  0  0
  -31.1500  -14.7090   19.9590 C   0  0  0  0  0  0  0  0  0  0  0  0
  -30.7580  -12.4840   18.9430 C   0  0  0  0  0  2  0  0  0  0  0  0
  -29.7650  -12.5930   17.7700 C   0  0  0  0  0  2  0  0  0  0  0  0
  -28.3150  -12.4720   18.2780 C   0  0  0  0  0  2  0  0  0  0  0  0
  -28.0300  -13.4020   19.4850 C   0  0  0  0  0  3  0  0  0  0  0  0
  -29.1370  -13.2830   20.5580 C   0  0  0  0  0  2  0  0  0  0  0  0
  -30.4290  -13.5490   19.9080 N   0  0  0  0  0  0  0  0  0  0  0  0
  -32.2660  -14.8000   19.4350 O   0  0  0  0  0  0  0  0  0  0  0  0
  -31.4850  -16.5230   21.5430 C   0  0  0  0  0  1  0  0  0  0  0  0
  -30.6200  -15.7680   20.6320 N   0  0  0  0  0  0  0  0  0  0  0  0
  -25.7320  -14.0980   20.4060 C   0  0  0  0  0  0  0  0  0  0  0  0
  -24.6470  -13.3650   20.8020 C   0  0  0  0  0  0  0  0  0  0  0  0
  -25.0220  -11.9950   20.6530 C   0  0  0  0  0  0  0  0  0  0  0  0
  -26.7020  -13.1750   20.0450 N   0  0  0  0  0  0  0  0  0  0  0  0
  -26.2830  -11.9010   20.2530 N   0  0  0  0  0  0  0  0  0  0  0  0
  -24.2340  -10.7650   20.8100 C   0  0  0  0  0  0  0  0  0  0  0  0
  -24.6180   -9.7580   21.7210 C   0  0  0  0  0  3  0  0  0  0  0  0
  -23.8360   -8.5910   21.8690 C   0  0  0  0  0  3  0  0  0  0  0  0
  -22.6560   -8.4280   21.1030 C   0  0  0  0  0  0  0  0  0  0  0  0
  -22.2930   -9.4250   20.1810 C   0  0  0  0  0  3  0  0  0  0  0  0
  -23.0750  -10.5820   20.0330 C   0  0  0  0  0  3  0  0  0  0  0  0
  -21.8480   -7.3190   21.1620 O   0  0  0  0  0  0  0  0  0  0  0  0
  -21.6980   -6.5970   22.3190 C   0  0  0  0  0  0  0  0  0  0  0  0
  -21.1800   -7.1760   23.4970 C   0  0  0  0  0  3  0  0  0  0  0  0
  -20.9790   -6.3820   24.6420 C   0  0  0  0  0  3  0  0  0  0  0  0
  -21.2850   -5.0080   24.6100 C   0  0  0  0  0  0  0  0  0  0  0  0
  -21.7960   -4.4280   23.4350 C   0  0  0  0  0  3  0  0  0  0  0  0
  -21.9990   -5.2200   22.2920 C   0  0  0  0  0  0  0  0  0  0  0  0
  -22.4720   -4.6530   21.1570 F   0  0  0  0  0  0  0  0  0  0  0  0
  -21.0840   -4.2420   25.7080 F   0  0  0  0  0  0  0  0  0  0  0  0
  -23.3020  -13.9020   21.1980 C   0  0  0  0  0  0  0  0  0  0  0  0
  -22.5980  -13.2010   22.0800 N   0  0  0  0  0  0  0  0  0  0  0  0
  -22.8880  -14.9740   20.7610 O   0  0  0  0  0  0  0  0  0  0  0  0
  -22.9470  -12.3310   22.4560 H   0  0  0  0  0  0  0  0  0  0  0  0
  -21.6970  -13.5420   22.3860 H   0  0  0  0  0  0  0  0  0  0  0  0
  -25.9610  -15.4670   20.3000 N   0  0  0  0  0  0  0  0  0  0  0  0
  -25.2260  -16.1400   20.4830 H   0  0  0  0  0  0  0  0  0  0  0  0
  -26.7770  -15.8820   19.8700 H   0  0  0  0  0  0  0  0  0  0  0  0
  -28.8320  -22.2790   19.7640 O   0  0  0  0  0  0  0  0  0  0  0  0
  -29.6890  -23.1150   18.9750 C   0  0  0  0  0  2  0  0  0  0  0  0
  -29.1040  -24.5290   18.6750 C   0  0  0  0  0  2  0  0  0  0  0  0
  -28.8340  -25.4550   19.8890 C   0  0  0  0  0  2  0  0  0  0  0  0
  -28.7830  -26.8580   19.5480 O   0  0  0  0  0  0  0  0  0  0  0  0
  -24.6360  -31.4970   23.0320 C   0  0  0  0  0  0  0  0  0  0  0  0
  -27.5620  -27.4990   19.6100 C   0  0  0  0  0  0  0  0  0  0  0  0
  -23.5260  -30.1800   21.2550 C   0  0  0  0  0  3  0  0  0  0  0  0
  -25.0800  -28.8600   19.7180 C   0  0  0  0  0  0  0  0  0  0  0  0
  -26.0270  -30.7040   21.1190 C   0  0  0  0  0  2  0  0  0  0  0  0
  -26.2010  -29.4020   20.3600 C   0  0  0  0  0  0  0  0  0  0  0  0
  -27.4460  -28.7330   20.2950 C   0  0  0  0  0  3  0  0  0  0  0  0
  -26.4230  -26.9690   18.9680 C   0  0  0  0  0  3  0  0  0  0  0  0
  -25.1870  -27.6460   19.0160 C   0  0  0  0  0  3  0  0  0  0  0  0
  -23.7870  -29.6390   19.8220 C   0  0  0  0  0  2  0  0  0  0  0  0
  -24.7480  -30.8040   21.8620 N   0  0  0  0  0  0  0  0  0  0  0  0
  -23.5360  -31.6520   23.5820 O   0  0  0  0  0  0  0  0  0  0  0  0
  -22.9300  -29.0400   22.1130 C   0  0  0  0  0  0  0  0  0  0  0  0
  -21.6150  -28.8110   21.9730 N   0  0  0  0  0  0  0  0  0  0  0  0
  -23.6490  -28.3690   22.8570 O   0  0  0  0  0  0  0  0  0  0  0  0
  -21.0930  -29.4100   21.3500 H   0  0  0  0  0  0  0  0  0  0  0  0
  -18.2980  -27.4350   22.3790 C   0  0  0  0  0  0  0  0  0  0  0  0
  -20.8490  -27.7650   22.6490 C   0  0  0  0  0  3  0  0  0  0  0  0
  -20.9980  -26.4080   21.9210 C   0  0  0  0  0  2  0  0  0  0  0  0
  -19.8930  -26.1520   20.8910 C   0  0  0  0  0  2  0  0  0  0  0  0
  -18.5160  -26.1730   21.5620 C   0  0  0  0  0  2  0  0  0  0  0  0
  -19.3930  -28.1910   22.8770 C   0  0  0  0  0  0  0  0  0  0  0  0
  -19.1360  -29.3740   23.6010 C   0  0  0  0  0  3  0  0  0  0  0  0
  -17.8160  -29.8040   23.8330 C   0  0  0  0  0  3  0  0  0  0  0  0
  -16.7360  -29.0450   23.3520 C   0  0  0  0  0  3  0  0  0  0  0  0
  -16.9770  -27.8610   22.6320 C   0  0  0  0  0  3  0  0  0  0  0  0
  -25.8760  -32.1430   23.7230 C   0  0  0  0  0  3  0  0  0  0  0  0
  -25.5100  -33.5160   24.0960 N   0  0  0  0  0  0  0  0  0  0  0  0
  -25.8420  -34.6090   23.3960 C   0  0  0  0  0  0  0  0  0  0  0  0
  -26.5590  -34.5690   22.3930 O   0  0  0  0  0  0  0  0  0  0  0  0
  -24.8780  -33.6190   24.8770 H   0  0  0  0  0  0  0  0  0  0  0  0
  -24.0690  -36.3570   23.0430 C   0  0  0  0  0  1  0  0  0  0  0  0
  -25.2910  -35.9610   23.8880 C   0  0  0  0  0  3  0  0  0  0  0  0
  -27.3540  -36.8850   24.8470 C   0  0  0  0  0  1  0  0  0  0  0  0
  -26.2910  -37.0500   23.8580 N   0  0  0  0  0  0  0  0  0  0  0  0
  -25.8490  -37.9510   24.0180 H   0  0  0  0  0  0  0  0  0  0  0  0
  -26.3780  -31.3370   24.9830 C   0  0  1  0  0  0  0  0  0  0  0  0
  -25.2630  -31.0380   26.0130 C   0  0  0  0  0  1  0  0  0  0  0  0
  -27.0010  -29.9890   24.5550 C   0  0  0  0  0  1  0  0  0  0  0  0
  -27.4930  -32.1310   25.7050 C   0  0  0  0  0  1  0  0  0  0  0  0
  2  6  2  0
  2  4  1  0
  3  1  2  0
  4  5  2  0
  5  1  1  0
  5  7  1  0
  6  3  1  0
  8  6  1  0
  9  3  1  0
  9 19  1  0
 10 19  1  0
 11 16  1  0
 12 13  1  0
 12 11  1  0
 14 13  1  0
 14 23  1  0
 14 15  1  0
 16 10  1  0
 16 15  1  0
 17 10  2  0
 19 18  1  0
 20 21  2  0
 21 40  1  0
 22 21  1  0
 22 25  1  0
 23 24  1  0
 23 20  1  0
 24 22  2  0
 25 26  1  0
 26 27  2  0
 28 31  1  0
 28 27  1  0
 29 28  2  0
 30 29  1  0
 30 25  2  0
 31 32  1  0
 32 33  1  0
 33 34  2  0
 35 34  1  0
 35 39  1  0
 36 35  2  0
 37 32  2  0
 37 36  1  0
 38 37  1  0
 40 41  1  0
 41 44  1  0
 41 43  1  0
 42 40  2  0
 45 20  1  0
 45 46  1  0
 47 45  1  0
 48  4  1  0
 49 48  1  0
 50 49  1  0
 50 51  1  0
 52 54  1  0
 52 51  1  0
 53 64  2  0
 54 59  1  0
 55 63  1  0
 55 65  1  0
 56 62  1  0
 56 58  1  0
 57 63  1  0
 58 57  1  0
 59 58  2  0
 60 61  1  0
 60 54  2  0
 61 56  2  0
 62 55  1  0
 63 53  1  0
 65 67  2  0
 66 65  1  0
 68 66  1  0
 69 78  2  0
 69 74  1  0
 70 66  1  0
 70 74  1  0
 71 70  1  0
 72 73  1  0
 72 71  1  0
 73 69  1  0
 74 75  2  0
 75 76  1  0
 77 76  2  0
 78 77  1  0
 79 53  1  0
 79 80  1  0
 79 89  1  0
 80 83  1  0
 81 85  1  0
 81 80  1  0
 82 81  2  0
 85 84  1  0
 87 85  1  0
 87 88  1  0
 87 86  1  0
 89 92  1  1
 89 90  1  0
 91 89  1  0
M  ISO  4  10 100  19 100  51 101  52 101
M  END
>  <TORSDO>  (76) 
F 21

>  <SCORE>  (76) 
-11.320

>  <name>  (76) 
77

>  <ligand_id>  (76) 
77

>  <original_smiles>  (76) 
[H]c1c([H])c([H])c2c(c1[H])C([H])([H])C([H])([H])C([H])([H])C2([H])N([H])C(=O)C1([H])N(C(=O)C([H])(N([H])C(=O)C([H])(N([H])C([H])([H])[H])C([H])([H])[H])C(C([H])([H])[H])(C([H])([H])[H])C([H])([H])[H])C([H])([H])c2c([H])c(OC([H])([H])C([H])([H])C([H])([H])Oc3c([H])c(F)c(C([H])([H])N(C(=O)N4C([H])([H])C([H])([H])C([H])([H])C([H])(n5nc(-c6c([H])c([H])c(Oc7c([H])c([H])c(F)c([H])c7F)c([H])c6[H])c(C(=O)N([H])[H])c5N([H])[H])C4([H])[H])C([H])([H])[H])c([H])c3F)c([H])c([H])c2C1([H])[H]

>  <smiles>  (76) 
[H]c1c([H])c([H])c2c(c1[H])C([H])([H])C([H])([H])C([H])([H])C2([H])N([H])C(=O)C1([H])N(C(=O)C([H])(N([H])C(=O)C([H])(N([H])C([H])([H])[H])C([H])([H])[H])C(C([H])([H])[H])(C([H])([H])[H])C([H])([H])[H])C([H])([H])c2c([H])c(OC([H])([H])C([H])([H])C([H])([H])Oc3c([H])c(F)c(C([H])([H])N(C(=O)N4C([H])([H])C([H])([H])C([H])([H])C([H])(n5nc(-c6c([H])c([H])c(Oc7c([H])c([H])c(F)c([H])c7F)c([H])c6[H])c(C(=O)N([H])[H])c5N([H])[H])C4([H])[H])C([H])([H])[H])c([H])c3F)c([H])c([H])c2C1([H])[H]

$$$$
78:0:0
     RDKit          3D

 95104  0  0  1  0  0  0  0  0999 V2000
  -31.9360  -23.9540   20.7190 C   0  0  0  0  0  2  0  0  0  0  0  0
  -30.9900  -24.9420   20.0200 C   0  0  0  0  0  2  0  0  0  0  0  0
  -31.7540  -22.5290   20.1770 C   0  0  0  0  0  2  0  0  0  0  0  0
  -29.3660  -22.9990   19.6830 C   0  0  0  0  0  2  0  0  0  0  0  0
  -29.5250  -24.4830   20.1520 C   0  0  0  0  0  3  0  0  0  0  0  0
  -30.3600  -22.0960   20.2960 N   0  0  0  0  0  0  0  0  0  0  0  0
  -28.7040  -18.7560   20.7390 C   0  0  0  0  0  3  0  0  0  0  0  0
  -28.9430  -20.1480   20.7680 C   0  0  0  0  0  3  0  0  0  0  0  0
  -31.0320  -19.8060   19.5910 C   0  0  0  0  0  3  0  0  0  0  0  0
  -29.6260  -17.8710   20.1380 C   0  0  0  0  0  0  0  0  0  0  0  0
  -30.1160  -20.7000   20.2050 C   0  0  0  0  0  0  0  0  0  0  0  0
  -30.7880  -18.4160   19.5490 C   0  0  0  0  0  0  0  0  0  0  0  0
  -31.6760  -17.6060   18.9270 F   0  0  0  0  0  0  0  0  0  0  0  0
  -29.3270  -16.3620   20.0760 C   0  0  0  0  0  2  0  0  0  0  0  0
  -30.8200  -14.4130   20.0830 C   0  0  0  0  0  0  0  0  0  0  0  0
  -30.3980  -12.2550   18.9560 C   0  0  0  0  0  2  0  0  0  0  0  0
  -29.4200  -12.4580   17.7810 C   0  0  0  0  0  2  0  0  0  0  0  0
  -27.9610  -12.3510   18.2650 C   0  0  0  0  0  2  0  0  0  0  0  0
  -27.6840  -13.2230   19.5180 C   0  0  0  0  0  3  0  0  0  0  0  0
  -28.7730  -13.0150   20.5940 C   0  0  0  0  0  2  0  0  0  0  0  0
  -30.0820  -13.2710   19.9720 N   0  0  0  0  0  0  0  0  0  0  0  0
  -31.9400  -14.5270   19.5760 O   0  0  0  0  0  0  0  0  0  0  0  0
  -30.9870  -16.0140   21.8980 C   0  0  0  0  0  1  0  0  0  0  0  0
  -30.2600  -15.4400   20.7650 N   0  0  0  0  0  0  0  0  0  0  0  0
  -25.3340  -13.9080   20.3090 C   0  0  0  0  0  0  0  0  0  0  0  0
  -24.2580  -13.1710   20.7210 C   0  0  0  0  0  0  0  0  0  0  0  0
  -24.6770  -11.8060   20.6850 C   0  0  0  0  0  0  0  0  0  0  0  0
  -26.3440  -12.9940   20.0490 N   0  0  0  0  0  0  0  0  0  0  0  0
  -25.9550  -11.7250   20.3320 N   0  0  0  0  0  0  0  0  0  0  0  0
  -23.9210  -10.5680   20.9080 C   0  0  0  0  0  0  0  0  0  0  0  0
  -24.3560   -9.5930   21.8350 C   0  0  0  0  0  3  0  0  0  0  0  0
  -23.6020   -8.4190   22.0440 C   0  0  0  0  0  3  0  0  0  0  0  0
  -22.3990   -8.2100   21.3280 C   0  0  0  0  0  0  0  0  0  0  0  0
  -21.9840   -9.1710   20.3890 C   0  0  0  0  0  3  0  0  0  0  0  0
  -22.7390  -10.3380   20.1780 C   0  0  0  0  0  3  0  0  0  0  0  0
  -21.6160   -7.0870   21.4480 O   0  0  0  0  0  0  0  0  0  0  0  0
  -21.5810   -6.3560   22.6070 C   0  0  0  0  0  0  0  0  0  0  0  0
  -21.2220   -6.9350   23.8440 C   0  0  0  0  0  3  0  0  0  0  0  0
  -21.1300   -6.1300   24.9970 C   0  0  0  0  0  3  0  0  0  0  0  0
  -21.3880   -4.7500   24.9160 C   0  0  0  0  0  0  0  0  0  0  0  0
  -21.7410   -4.1700   23.6840 C   0  0  0  0  0  3  0  0  0  0  0  0
  -21.8340   -4.9720   22.5340 C   0  0  0  0  0  0  0  0  0  0  0  0
  -22.1540   -4.4050   21.3450 F   0  0  0  0  0  0  0  0  0  0  0  0
  -21.2940   -3.9750   26.0220 F   0  0  0  0  0  0  0  0  0  0  0  0
  -22.8850  -13.6920   21.0380 C   0  0  0  0  0  0  0  0  0  0  0  0
  -22.1680  -13.0250   21.9360 N   0  0  0  0  0  0  0  0  0  0  0  0
  -22.4590  -14.7250   20.5240 O   0  0  0  0  0  0  0  0  0  0  0  0
  -22.5260  -12.1890   22.3740 H   0  0  0  0  0  0  0  0  0  0  0  0
  -21.2480  -13.3560   22.1900 H   0  0  0  0  0  0  0  0  0  0  0  0
  -25.5310  -15.2720   20.1120 N   0  0  0  0  0  0  0  0  0  0  0  0
  -24.7820  -15.9440   20.2340 H   0  0  0  0  0  0  0  0  0  0  0  0
  -26.3670  -15.6810   19.7170 H   0  0  0  0  0  0  0  0  0  0  0  0
  -28.5860  -25.4620   19.4070 C   0  0  0  0  0  0  0  0  0  0  0  0
  -28.1010  -25.1610   18.3130 O   0  0  0  0  0  0  0  0  0  0  0  0
  -28.3850  -26.6530   20.0780 O   0  0  0  0  0  0  0  0  0  0  0  0
  -24.6120  -31.8500   23.1740 C   0  0  0  0  0  0  0  0  0  0  0  0
  -27.2120  -27.3980   20.0270 C   0  0  0  0  0  0  0  0  0  0  0  0
  -23.3870  -30.4600   21.5390 C   0  0  0  0  0  3  0  0  0  0  0  0
  -24.8180  -28.9330   20.0870 C   0  0  0  0  0  0  0  0  0  0  0  0
  -25.9150  -30.8080   21.3180 C   0  0  0  0  0  2  0  0  0  0  0  0
  -25.9890  -29.4420   20.6600 C   0  0  0  0  0  0  0  0  0  0  0  0
  -27.1860  -28.6850   20.6250 C   0  0  0  0  0  3  0  0  0  0  0  0
  -26.0030  -26.9060   19.4710 C   0  0  0  0  0  3  0  0  0  0  0  0
  -24.8220  -27.6640   19.4910 C   0  0  0  0  0  3  0  0  0  0  0  0
  -23.5780  -29.7940   20.1530 C   0  0  0  0  0  2  0  0  0  0  0  0
  -24.6570  -31.0540   22.0670 N   0  0  0  0  0  0  0  0  0  0  0  0
  -23.5360  -32.1220   23.7240 O   0  0  0  0  0  0  0  0  0  0  0  0
  -22.7420  -29.4330   22.4980 C   0  0  0  0  0  0  0  0  0  0  0  0
  -21.4130  -29.2640   22.3900 N   0  0  0  0  0  0  0  0  0  0  0  0
  -23.4330  -28.7940   23.2940 O   0  0  0  0  0  0  0  0  0  0  0  0
  -20.9190  -29.8330   21.7180 H   0  0  0  0  0  0  0  0  0  0  0  0
  -18.0370  -28.0950   22.9310 C   0  0  0  0  0  0  0  0  0  0  0  0
  -20.6010  -28.3240   23.1630 C   0  0  0  0  0  3  0  0  0  0  0  0
  -20.6800  -26.8990   22.5710 C   0  0  0  0  0  2  0  0  0  0  0  0
  -19.5610  -26.5970   21.5720 C   0  0  0  0  0  2  0  0  0  0  0  0
  -18.1900  -26.7510   22.2380 C   0  0  0  0  0  2  0  0  0  0  0  0
  -19.1700  -28.8410   23.3500 C   0  0  0  0  0  0  0  0  0  0  0  0
  -18.9730  -30.1020   23.9550 C   0  0  0  0  0  3  0  0  0  0  0  0
  -17.6760  -30.6150   24.1460 C   0  0  0  0  0  3  0  0  0  0  0  0
  -16.5580  -29.8640   23.7440 C   0  0  0  0  0  3  0  0  0  0  0  0
  -16.7390  -28.6050   23.1420 C   0  0  0  0  0  3  0  0  0  0  0  0
  -25.9050  -32.4750   23.7840 C   0  0  0  0  0  3  0  0  0  0  0  0
  -26.4470  -31.6840   25.0370 C   0  0  1  0  0  0  0  0  0  0  0  0
  -25.3730  -31.4220   26.1180 C   0  0  0  0  0  1  0  0  0  0  0  0
  -27.0270  -30.3160   24.6080 C   0  0  0  0  0  1  0  0  0  0  0  0
  -27.6070  -32.4700   25.6930 C   0  0  0  0  0  1  0  0  0  0  0  0
  -25.5960  -33.8650   24.1430 N   0  0  0  0  0  0  0  0  0  0  0  0
  -25.9110  -34.9320   23.3960 C   0  0  0  0  0  0  0  0  0  0  0  0
  -26.5660  -34.8490   22.3530 O   0  0  0  0  0  0  0  0  0  0  0  0
  -25.0180  -34.0050   24.9580 H   0  0  0  0  0  0  0  0  0  0  0  0
  -24.1690  -36.7190   23.0940 C   0  0  0  0  0  1  0  0  0  0  0  0
  -25.4230  -36.3080   23.8830 C   0  0  0  0  0  3  0  0  0  0  0  0
  -27.5630  -37.1870   24.7030 C   0  0  0  0  0  1  0  0  0  0  0  0
  -26.4480  -37.3690   23.7770 N   0  0  0  0  0  0  0  0  0  0  0  0
  -26.0390  -38.2850   23.9500 H   0  0  0  0  0  0  0  0  0  0  0  0
  2  5  1  0
  2  1  1  0
  3  6  1  0
  3  1  1  0
  4  5  1  0
  4  6  1  0
  5 53  1  0
  7  8  1  0
  9 11  1  0
 10  7  2  0
 11  6  1  0
 11  8  2  0
 12  9  2  0
 12 10  1  0
 13 12  1  0
 14 10  1  0
 14 24  1  0
 15 24  1  0
 16 21  1  0
 17 18  1  0
 17 16  1  0
 19 18  1  0
 19 28  1  0
 19 20  1  0
 21 15  1  0
 21 20  1  0
 22 15  2  0
 24 23  1  0
 25 26  2  0
 26 45  1  0
 27 26  1  0
 27 30  1  0
 28 25  1  0
 28 29  1  0
 29 27  2  0
 30 31  1  0
 31 32  2  0
 33 36  1  0
 33 32  1  0
 34 33  2  0
 35 34  1  0
 35 30  2  0
 36 37  1  0
 37 38  1  0
 38 39  2  0
 40 39  1  0
 40 44  1  0
 41 40  2  0
 42 37  2  0
 42 41  1  0
 43 42  1  0
 45 46  1  0
 46 49  1  0
 46 48  1  0
 47 45  2  0
 50 51  1  0
 50 25  1  0
 52 50  1  0
 53 55  1  0
 54 53  2  0
 56 67  2  0
 57 55  1  0
 57 62  1  0
 58 66  1  0
 58 68  1  0
 59 65  1  0
 59 61  1  0
 60 66  1  0
 61 60  1  0
 62 61  2  0
 63 64  1  0
 63 57  2  0
 64 59  2  0
 65 58  1  0
 66 56  1  0
 68 70  2  0
 69 68  1  0
 71 69  1  0
 72 81  2  0
 72 77  1  0
 73 69  1  0
 73 77  1  0
 74 73  1  0
 75 76  1  0
 75 74  1  0
 76 72  1  0
 77 78  2  0
 78 79  1  0
 80 79  2  0
 81 80  1  0
 82 56  1  0
 82 87  1  0
 82 83  1  0
 83 86  1  1
 83 84  1  0
 85 83  1  0
 87 90  1  0
 88 92  1  0
 88 87  1  0
 89 88  2  0
 92 91  1  0
 94 92  1  0
 94 95  1  0
 94 93  1  0
M  ISO  4  15 100  24 100  53 101  55 101
M  END
>  <TORSDO>  (77) 
F 19

>  <SCORE>  (77) 
-14.078

>  <name>  (77) 
78

>  <ligand_id>  (77) 
78

>  <original_smiles>  (77) 
[H]c1c([H])c([H])c2c(c1[H])C([H])([H])C([H])([H])C([H])([H])C2([H])N([H])C(=O)C1([H])N(C(=O)C([H])(N([H])C(=O)C([H])(N([H])C([H])([H])[H])C([H])([H])[H])C(C([H])([H])[H])(C([H])([H])[H])C([H])([H])[H])C([H])([H])c2c([H])c(OC(=O)C3([H])C([H])([H])N(c4c([H])c([H])c(C([H])([H])N(C(=O)N5C([H])([H])C([H])([H])C([H])([H])C([H])(n6nc(-c7c([H])c([H])c(Oc8c([H])c([H])c(F)c([H])c8F)c([H])c7[H])c(C(=O)N([H])[H])c6N([H])[H])C5([H])[H])C([H])([H])[H])c(F)c4[H])C([H])([H])C([H])([H])C3([H])[H])c([H])c([H])c2C1([H])[H]

>  <smiles>  (77) 
[H]c1c([H])c([H])c2c(c1[H])C([H])([H])C([H])([H])C([H])([H])C2([H])N([H])C(=O)C1([H])N(C(=O)C([H])(N([H])C(=O)C([H])(N([H])C([H])([H])[H])C([H])([H])[H])C(C([H])([H])[H])(C([H])([H])[H])C([H])([H])[H])C([H])([H])c2c([H])c(OC(=O)C3([H])C([H])([H])N(c4c([H])c([H])c(C([H])([H])N(C(=O)N5C([H])([H])C([H])([H])C([H])([H])C([H])(n6nc(-c7c([H])c([H])c(Oc8c([H])c([H])c(F)c([H])c8F)c([H])c7[H])c(C(=O)N([H])[H])c6N([H])[H])C5([H])[H])C([H])([H])[H])c(F)c4[H])C([H])([H])C([H])([H])C3([H])[H])c([H])c([H])c2C1([H])[H]

$$$$
79:0:0
     RDKit          3D

 98107  0  0  1  0  0  0  0  0999 V2000
  -30.7470  -25.3550   19.6790 C   0  0  0  0  0  3  0  0  0  0  0  0
  -31.2930  -24.0730   19.5420 C   0  0  0  0  0  3  0  0  0  0  0  0
  -30.6970  -23.5680   21.8560 C   0  0  0  0  0  3  0  0  0  0  0  0
  -30.1110  -25.7200   20.8820 C   0  0  0  0  0  0  0  0  0  0  0  0
  -31.2140  -23.1550   20.6090 C   0  0  0  0  0  0  0  0  0  0  0  0
  -30.1350  -24.8520   21.9930 C   0  0  0  0  0  0  0  0  0  0  0  0
  -29.5580  -25.2110   23.1660 F   0  0  0  0  0  0  0  0  0  0  0  0
  -31.5790  -21.8260   20.4110 N   0  0  0  0  0  0  0  0  0  0  0  0
  -31.6350  -21.2710   21.2530 H   0  0  0  0  0  0  0  0  0  0  0  0
  -30.0020  -21.4450   18.4240 O   0  0  0  0  0  0  0  0  0  0  0  0
  -32.4650  -20.7670   18.2740 O   0  0  0  0  0  0  0  0  0  0  0  0
  -31.2080  -20.8590   19.0350 S   0  0  1  0  0  0  0  0  0  0  0  0
  -31.5850  -17.1920   20.7330 C   0  0  0  0  0  3  0  0  0  0  0  0
  -29.1990  -17.5340   20.3220 C   0  0  0  0  0  3  0  0  0  0  0  0
  -31.8640  -18.4790   20.2460 C   0  0  0  0  0  3  0  0  0  0  0  0
  -29.4780  -18.8310   19.8410 C   0  0  0  0  0  3  0  0  0  0  0  0
  -30.2620  -16.6870   20.7080 C   0  0  0  0  0  0  0  0  0  0  0  0
  -30.8120  -19.2750   19.7620 C   0  0  0  0  0  0  0  0  0  0  0  0
  -30.5820  -14.3170   20.3340 C   0  0  0  0  0  0  0  0  0  0  0  0
  -30.1750  -12.2150   19.1440 C   0  0  0  0  0  2  0  0  0  0  0  0
  -29.2080  -12.4970   17.9760 C   0  0  0  0  0  2  0  0  0  0  0  0
  -27.7460  -12.3670   18.4460 C   0  0  0  0  0  2  0  0  0  0  0  0
  -27.4610  -13.1570   19.7520 C   0  0  0  0  0  3  0  0  0  0  0  0
  -28.5500  -12.8980   20.8180 C   0  0  0  0  0  2  0  0  0  0  0  0
  -29.8650  -13.1730   20.2150 N   0  0  0  0  0  0  0  0  0  0  0  0
  -31.6730  -14.4740   19.7760 O   0  0  0  0  0  0  0  0  0  0  0  0
  -29.9850  -15.3240   20.9930 N   0  0  0  0  0  0  0  0  0  0  0  0
  -29.0770  -15.1060   21.3770 H   0  0  0  0  0  0  0  0  0  0  0  0
  -25.0760  -13.7330   20.5430 C   0  0  0  0  0  0  0  0  0  0  0  0
  -24.0300  -12.9460   20.9440 C   0  0  0  0  0  0  0  0  0  0  0  0
  -24.5050  -11.5990   20.8870 C   0  0  0  0  0  0  0  0  0  0  0  0
  -26.1230  -12.8660   20.2710 N   0  0  0  0  0  0  0  0  0  0  0  0
  -25.7840  -11.5780   20.5320 N   0  0  0  0  0  0  0  0  0  0  0  0
  -23.8000  -10.3270   21.0930 C   0  0  0  0  0  0  0  0  0  0  0  0
  -24.2810   -9.3530   21.9980 C   0  0  0  0  0  3  0  0  0  0  0  0
  -23.5750   -8.1470   22.1920 C   0  0  0  0  0  3  0  0  0  0  0  0
  -22.3740   -7.9040   21.4820 C   0  0  0  0  0  0  0  0  0  0  0  0
  -21.9110   -8.8670   20.5650 C   0  0  0  0  0  3  0  0  0  0  0  0
  -22.6210  -10.0650   20.3690 C   0  0  0  0  0  3  0  0  0  0  0  0
  -21.6370   -6.7490   21.5860 O   0  0  0  0  0  0  0  0  0  0  0  0
  -21.6530   -5.9850   22.7250 C   0  0  0  0  0  0  0  0  0  0  0  0
  -21.2920   -6.5130   23.9840 C   0  0  0  0  0  3  0  0  0  0  0  0
  -21.2560   -5.6740   25.1150 C   0  0  0  0  0  3  0  0  0  0  0  0
  -21.5720   -4.3100   24.9910 C   0  0  0  0  0  0  0  0  0  0  0  0
  -21.9280   -3.7800   23.7380 C   0  0  0  0  0  3  0  0  0  0  0  0
  -21.9640   -4.6160   22.6080 C   0  0  0  0  0  0  0  0  0  0  0  0
  -22.2880   -4.0960   21.3980 F   0  0  0  0  0  0  0  0  0  0  0  0
  -21.5310   -3.5010   26.0760 F   0  0  0  0  0  0  0  0  0  0  0  0
  -22.6370  -13.4060   21.2700 C   0  0  0  0  0  0  0  0  0  0  0  0
  -21.9480  -12.6960   22.1570 N   0  0  0  0  0  0  0  0  0  0  0  0
  -22.1700  -14.4290   20.7740 O   0  0  0  0  0  0  0  0  0  0  0  0
  -22.3410  -11.8710   22.5850 H   0  0  0  0  0  0  0  0  0  0  0  0
  -21.0160  -12.9870   22.4160 H   0  0  0  0  0  0  0  0  0  0  0  0
  -25.2180  -15.1050   20.3680 N   0  0  0  0  0  0  0  0  0  0  0  0
  -24.4460  -15.7500   20.4950 H   0  0  0  0  0  0  0  0  0  0  0  0
  -26.0450  -15.5530   19.9900 H   0  0  0  0  0  0  0  0  0  0  0  0
  -29.2620  -26.9650   20.8820 C   0  0  0  0  0  2  0  0  0  0  0  0
  -28.2410  -26.7590   19.9150 O   0  0  0  0  0  0  0  0  0  0  0  0
  -24.4670  -31.8580   23.1430 C   0  0  0  0  0  0  0  0  0  0  0  0
  -27.1060  -27.5160   19.9950 C   0  0  0  0  0  0  0  0  0  0  0  0
  -23.2480  -30.4770   21.4880 C   0  0  0  0  0  3  0  0  0  0  0  0
  -24.6940  -28.9630   20.0400 C   0  0  0  0  0  0  0  0  0  0  0  0
  -25.7610  -30.8630   21.2680 C   0  0  0  0  0  2  0  0  0  0  0  0
  -25.8460  -29.4980   20.6280 C   0  0  0  0  0  0  0  0  0  0  0  0
  -27.0560  -28.7810   20.6130 C   0  0  0  0  0  3  0  0  0  0  0  0
  -25.9460  -26.9820   19.4020 C   0  0  0  0  0  3  0  0  0  0  0  0
  -24.7330  -27.6960   19.4290 C   0  0  0  0  0  3  0  0  0  0  0  0
  -23.4460  -29.8110   20.1000 C   0  0  0  0  0  2  0  0  0  0  0  0
  -24.5110  -31.0780   22.0260 N   0  0  0  0  0  0  0  0  0  0  0  0
  -23.3910  -32.1210   23.6960 O   0  0  0  0  0  0  0  0  0  0  0  0
  -22.6100  -29.4410   22.4390 C   0  0  0  0  0  0  0  0  0  0  0  0
  -21.2830  -29.2710   22.3290 N   0  0  0  0  0  0  0  0  0  0  0  0
  -23.3020  -28.7920   23.2280 O   0  0  0  0  0  0  0  0  0  0  0  0
  -20.7870  -29.8460   21.6610 H   0  0  0  0  0  0  0  0  0  0  0  0
  -17.9030  -28.1290   22.8710 C   0  0  0  0  0  0  0  0  0  0  0  0
  -20.4690  -28.3280   23.0910 C   0  0  0  0  0  3  0  0  0  0  0  0
  -20.5320  -26.9130   22.4730 C   0  0  0  0  0  2  0  0  0  0  0  0
  -19.4010  -26.6400   21.4760 C   0  0  0  0  0  2  0  0  0  0  0  0
  -18.0370  -26.7940   22.1560 C   0  0  0  0  0  2  0  0  0  0  0  0
  -19.0450  -28.8550   23.2960 C   0  0  0  0  0  0  0  0  0  0  0  0
  -18.8670  -30.1070   23.9250 C   0  0  0  0  0  3  0  0  0  0  0  0
  -17.5780  -30.6320   24.1310 C   0  0  0  0  0  3  0  0  0  0  0  0
  -16.4490  -29.9010   23.7250 C   0  0  0  0  0  3  0  0  0  0  0  0
  -16.6110  -28.6510   23.1010 C   0  0  0  0  0  3  0  0  0  0  0  0
  -25.7600  -32.4780   23.7600 C   0  0  0  0  0  3  0  0  0  0  0  0
  -26.2930  -31.6810   25.0130 C   0  0  1  0  0  0  0  0  0  0  0  0
  -25.2150  -31.4210   26.0910 C   0  0  0  0  0  1  0  0  0  0  0  0
  -26.8720  -30.3140   24.5810 C   0  0  0  0  0  1  0  0  0  0  0  0
  -27.4530  -32.4620   25.6760 C   0  0  0  0  0  1  0  0  0  0  0  0
  -25.4540  -33.8700   24.1160 N   0  0  0  0  0  0  0  0  0  0  0  0
  -25.7860  -34.9330   23.3720 C   0  0  0  0  0  0  0  0  0  0  0  0
  -26.4550  -34.8460   22.3380 O   0  0  0  0  0  0  0  0  0  0  0  0
  -24.8640  -34.0120   24.9210 H   0  0  0  0  0  0  0  0  0  0  0  0
  -24.0580  -36.7290   23.0460 C   0  0  0  0  0  1  0  0  0  0  0  0
  -25.2990  -36.3140   23.8510 C   0  0  0  0  0  3  0  0  0  0  0  0
  -27.4350  -37.1820   24.6930 C   0  0  0  0  0  1  0  0  0  0  0  0
  -26.3310  -37.3680   23.7550 N   0  0  0  0  0  0  0  0  0  0  0  0
  -25.9260  -38.2840   23.9200 H   0  0  0  0  0  0  0  0  0  0  0  0
  1  4  1  0
  2  1  2  0
  2  5  1  0
  3  6  1  0
  4 57  1  0
  4  6  2  0
  5  3  2  0
  6  7  1  0
  8  5  1  0
  8  9  1  0
 10 12  2  0
 11 12  2  0
 12 18  1  0
 12  8  1  1
 14 17  2  0
 15 13  2  0
 16 14  1  0
 17 13  1  0
 17 27  1  0
 18 16  2  0
 18 15  1  0
 19 27  1  0
 20 25  1  0
 21 22  1  0
 21 20  1  0
 23 22  1  0
 23 32  1  0
 23 24  1  0
 25 19  1  0
 25 24  1  0
 26 19  2  0
 27 28  1  0
 29 30  2  0
 30 49  1  0
 31 30  1  0
 31 34  1  0
 32 33  1  0
 32 29  1  0
 33 31  2  0
 34 35  1  0
 35 36  2  0
 37 40  1  0
 37 36  1  0
 38 37  2  0
 39 38  1  0
 39 34  2  0
 40 41  1  0
 41 42  1  0
 42 43  2  0
 44 43  1  0
 44 48  1  0
 45 44  2  0
 46 41  2  0
 46 45  1  0
 47 46  1  0
 49 50  1  0
 50 53  1  0
 50 52  1  0
 51 49  2  0
 54 55  1  0
 54 29  1  0
 56 54  1  0
 58 60  1  0
 58 57  1  0
 59 70  2  0
 60 65  1  0
 61 69  1  0
 61 71  1  0
 62 68  1  0
 62 64  1  0
 63 69  1  0
 64 63  1  0
 65 64  2  0
 66 67  1  0
 66 60  2  0
 67 62  2  0
 68 61  1  0
 69 59  1  0
 71 73  2  0
 72 71  1  0
 74 72  1  0
 75 84  2  0
 75 80  1  0
 76 72  1  0
 76 80  1  0
 77 76  1  0
 78 79  1  0
 78 77  1  0
 79 75  1  0
 80 81  2  0
 81 82  1  0
 83 82  2  0
 84 83  1  0
 85 59  1  0
 85 90  1  0
 85 86  1  0
 86 89  1  1
 86 87  1  0
 88 86  1  0
 90 93  1  0
 91 95  1  0
 91 90  1  0
 92 91  2  0
 95 94  1  0
 97 95  1  0
 97 98  1  0
 97 96  1  0
M  ISO  4  19 100  27 100  57 101  58 101
M  END
>  <TORSDO>  (78) 
F 20

>  <SCORE>  (78) 
-13.959

>  <name>  (78) 
79

>  <ligand_id>  (78) 
79

>  <original_smiles>  (78) 
[H]c1c([H])c([H])c2c(c1[H])C([H])([H])C([H])([H])C([H])([H])C2([H])N([H])C(=O)C1([H])N(C(=O)C([H])(N([H])C(=O)C([H])(N([H])C([H])([H])[H])C([H])([H])[H])C(C([H])([H])[H])(C([H])([H])[H])C([H])([H])[H])C([H])([H])c2c([H])c(OC([H])([H])c3c([H])c([H])c(N([H])S(=O)(=O)c4c([H])c([H])c(N([H])C(=O)N5C([H])([H])C([H])([H])C([H])([H])C([H])(n6nc(-c7c([H])c([H])c(Oc8c([H])c([H])c(F)c([H])c8F)c([H])c7[H])c(C(=O)N([H])[H])c6N([H])[H])C5([H])[H])c([H])c4[H])c([H])c3F)c([H])c([H])c2C1([H])[H]

>  <smiles>  (78) 
[H]c1c([H])c([H])c2c(c1[H])C([H])([H])C([H])([H])C([H])([H])C2([H])N([H])C(=O)C1([H])N(C(=O)C([H])(N([H])C(=O)C([H])(N([H])C([H])([H])[H])C([H])([H])[H])C(C([H])([H])[H])(C([H])([H])[H])C([H])([H])[H])C([H])([H])c2c([H])c(OC([H])([H])c3c([H])c([H])c(N([H])S(=O)(=O)c4c([H])c([H])c(N([H])C(=O)N5C([H])([H])C([H])([H])C([H])([H])C([H])(n6nc(-c7c([H])c([H])c(Oc8c([H])c([H])c(F)c([H])c8F)c([H])c7[H])c(C(=O)N([H])[H])c6N([H])[H])C5([H])[H])c([H])c4[H])c([H])c3F)c([H])c([H])c2C1([H])[H]

$$$$
80:0:0
     RDKit          3D

 88 96  0  0  1  0  0  0  0  0999 V2000
  -27.1380  -19.9950   19.2590 C   0  0  0  0  0  3  0  0  0  0  0  0
  -27.4720  -21.3470   19.5250 C   0  0  0  0  0  3  0  0  0  0  0  0
  -28.0650  -18.9330   19.3760 C   0  0  0  0  0  3  0  0  0  0  0  0
  -29.7220  -20.5840   20.0120 C   0  0  0  0  0  3  0  0  0  0  0  0
  -28.7780  -21.7370   19.8890 C   0  0  0  0  0  0  0  0  0  0  0  0
  -29.3980  -19.1440   19.7910 C   0  0  0  0  0  0  0  0  0  0  0  0
  -29.0760  -23.3530   20.1410 C   0  0  0  0  0  3  0  0  0  0  0  0
  -28.0190  -24.6580   19.8910 C   0  0  0  0  0  3  0  0  0  0  0  0
  -28.2810  -26.1860   20.1320 O   0  0  0  0  0  0  0  0  0  0  0  0
  -24.6480  -31.8370   23.2180 C   0  0  0  0  0  0  0  0  0  0  0  0
  -27.2270  -27.1750   20.0880 C   0  0  0  0  0  0  0  0  0  0  0  0
  -23.4520  -30.4710   21.5530 C   0  0  0  0  0  3  0  0  0  0  0  0
  -24.9000  -28.9270   20.0970 C   0  0  0  0  0  0  0  0  0  0  0  0
  -26.0060  -30.7400   21.3930 C   0  0  0  0  0  2  0  0  0  0  0  0
  -26.0820  -29.3590   20.7130 C   0  0  0  0  0  0  0  0  0  0  0  0
  -27.2450  -28.5000   20.6930 C   0  0  0  0  0  3  0  0  0  0  0  0
  -26.0170  -26.8500   19.4370 C   0  0  0  0  0  3  0  0  0  0  0  0
  -24.8790  -27.6870   19.4460 C   0  0  0  0  0  3  0  0  0  0  0  0
  -23.6760  -29.8280   20.1600 C   0  0  0  0  0  2  0  0  0  0  0  0
  -24.7220  -31.0370   22.1100 N   0  0  0  0  0  0  0  0  0  0  0  0
  -23.5610  -32.1070   23.7510 O   0  0  0  0  0  0  0  0  0  0  0  0
  -22.7760  -29.4400   22.4930 C   0  0  0  0  0  0  0  0  0  0  0  0
  -21.4510  -29.2600   22.3550 N   0  0  0  0  0  0  0  0  0  0  0  0
  -23.4480  -28.8100   23.3130 O   0  0  0  0  0  0  0  0  0  0  0  0
  -20.9640  -29.8210   21.6700 H   0  0  0  0  0  0  0  0  0  0  0  0
  -18.0780  -28.0150   22.8110 C   0  0  0  0  0  0  0  0  0  0  0  0
  -20.6320  -28.3060   23.1070 C   0  0  0  0  0  3  0  0  0  0  0  0
  -20.7570  -26.8800   22.5220 C   0  0  0  0  0  2  0  0  0  0  0  0
  -19.6690  -26.5540   21.4920 C   0  0  0  0  0  2  0  0  0  0  0  0
  -18.2790  -26.6760   22.1220 C   0  0  0  0  0  2  0  0  0  0  0  0
  -19.1830  -28.7860   23.2600 C   0  0  0  0  0  0  0  0  0  0  0  0
  -18.9410  -30.0390   23.8670 C   0  0  0  0  0  3  0  0  0  0  0  0
  -17.6280  -30.5200   24.0260 C   0  0  0  0  0  3  0  0  0  0  0  0
  -16.5380  -29.7470   23.5890 C   0  0  0  0  0  3  0  0  0  0  0  0
  -16.7640  -28.4950   22.9880 C   0  0  0  0  0  3  0  0  0  0  0  0
  -25.9230  -32.4630   23.8580 C   0  0  0  0  0  3  0  0  0  0  0  0
  -26.4210  -31.6850   25.1370 C   0  0  1  0  0  0  0  0  0  0  0  0
  -25.3160  -31.4500   26.1940 C   0  0  0  0  0  1  0  0  0  0  0  0
  -27.0020  -30.3060   24.7500 C   0  0  0  0  0  1  0  0  0  0  0  0
  -27.5690  -32.4730   25.8150 C   0  0  0  0  0  1  0  0  0  0  0  0
  -25.6140  -33.8620   24.1970 N   0  0  0  0  0  0  0  0  0  0  0  0
  -25.9280  -34.9200   23.4390 C   0  0  0  0  0  0  0  0  0  0  0  0
  -26.5770  -34.8230   22.3940 O   0  0  0  0  0  0  0  0  0  0  0  0
  -25.0340  -34.0100   25.0110 H   0  0  0  0  0  0  0  0  0  0  0  0
  -24.1750  -36.7020   23.1510 C   0  0  0  0  0  1  0  0  0  0  0  0
  -25.4490  -36.3070   23.9150 C   0  0  0  0  0  3  0  0  0  0  0  0
  -27.6050  -37.2120   24.6650 C   0  0  0  0  0  1  0  0  0  0  0  0
  -26.4690  -37.3670   23.7600 N   0  0  0  0  0  0  0  0  0  0  0  0
  -26.0610  -38.2850   23.9190 H   0  0  0  0  0  0  0  0  0  0  0  0
  -30.3880  -17.8140   19.8840 C   0  0  0  0  0  2  0  0  0  0  0  0
  -30.6710  -15.0750   19.9540 C   0  0  0  0  0  0  0  0  0  0  0  0
  -30.4850  -12.7440   18.9380 C   0  0  0  0  0  2  0  0  0  0  0  0
  -29.4700  -12.7090   17.7710 C   0  0  0  0  0  2  0  0  0  0  0  0
  -28.0360  -12.4800   18.2900 C   0  0  0  0  0  2  0  0  0  0  0  0
  -27.7150  -13.3430   19.5370 C   0  0  0  0  0  3  0  0  0  0  0  0
  -28.8540  -13.2980   20.5770 C   0  0  0  0  0  2  0  0  0  0  0  0
  -30.0580  -13.8090   19.9000 N   0  0  0  0  0  0  0  0  0  0  0  0
  -31.8300  -15.1180   19.5260 O   0  0  0  0  0  0  0  0  0  0  0  0
  -28.9930  -16.3620   21.3060 C   0  0  0  0  0  1  0  0  0  0  0  0
  -29.9680  -16.3160   20.2170 N   0  0  0  0  0  0  0  0  0  0  0  0
  -25.3980  -13.8800   20.4750 C   0  0  0  0  0  0  0  0  0  0  0  0
  -24.3670  -13.0850   20.8970 C   0  0  0  0  0  0  0  0  0  0  0  0
  -24.8290  -11.7400   20.7750 C   0  0  0  0  0  0  0  0  0  0  0  0
  -26.4200  -13.0160   20.1220 N   0  0  0  0  0  0  0  0  0  0  0  0
  -26.0940  -11.7210   20.3690 N   0  0  0  0  0  0  0  0  0  0  0  0
  -24.1180  -10.4690   20.9630 C   0  0  0  0  0  0  0  0  0  0  0  0
  -24.5720   -9.4950   21.8790 C   0  0  0  0  0  3  0  0  0  0  0  0
  -23.8570   -8.2930   22.0570 C   0  0  0  0  0  3  0  0  0  0  0  0
  -22.6740   -8.0530   21.3180 C   0  0  0  0  0  0  0  0  0  0  0  0
  -22.2400   -9.0160   20.3900 C   0  0  0  0  0  3  0  0  0  0  0  0
  -22.9560  -10.2090   20.2100 C   0  0  0  0  0  3  0  0  0  0  0  0
  -21.9270   -6.9020   21.4070 O   0  0  0  0  0  0  0  0  0  0  0  0
  -21.8300   -6.1940   22.5770 C   0  0  0  0  0  0  0  0  0  0  0  0
  -21.3240   -6.7760   23.7600 C   0  0  0  0  0  3  0  0  0  0  0  0
  -21.1760   -5.9920   24.9230 C   0  0  0  0  0  3  0  0  0  0  0  0
  -21.5250   -4.6290   24.9020 C   0  0  0  0  0  0  0  0  0  0  0  0
  -22.0240   -4.0470   23.7240 C   0  0  0  0  0  3  0  0  0  0  0  0
  -22.1730   -4.8260   22.5650 C   0  0  0  0  0  0  0  0  0  0  0  0
  -22.6350   -4.2540   21.4260 F   0  0  0  0  0  0  0  0  0  0  0  0
  -21.3740   -3.8750   26.0170 F   0  0  0  0  0  0  0  0  0  0  0  0
  -22.9940  -13.5460   21.2930 C   0  0  0  0  0  0  0  0  0  0  0  0
  -22.3410  -12.8180   22.1900 N   0  0  0  0  0  0  0  0  0  0  0  0
  -22.5140  -14.5860   20.8460 O   0  0  0  0  0  0  0  0  0  0  0  0
  -22.7480  -11.9770   22.5740 H   0  0  0  0  0  0  0  0  0  0  0  0
  -21.4260  -13.1070   22.5040 H   0  0  0  0  0  0  0  0  0  0  0  0
  -25.5340  -15.2570   20.3360 N   0  0  0  0  0  0  0  0  0  0  0  0
  -24.7790  -15.8980   20.5560 H   0  0  0  0  0  0  0  0  0  0  0  0
  -26.3370  -15.7160   19.9250 H   0  0  0  0  0  0  0  0  0  0  0  0
  1  3  2  0
  1  2  1  0
  2  5  2  0
  3  6  1  0
  5  4  1  0
  5  7  1  0
  6 50  1  0
  6  4  2  0
  8  9  1  0
  8  7  2  0
 10 21  2  0
 11  9  1  0
 11 16  1  0
 12 20  1  0
 12 22  1  0
 13 19  1  0
 13 15  1  0
 14 20  1  0
 15 14  1  0
 16 15  2  0
 17 18  1  0
 17 11  2  0
 18 13  2  0
 19 12  1  0
 20 10  1  0
 22 24  2  0
 23 22  1  0
 25 23  1  0
 26 35  2  0
 26 31  1  0
 27 23  1  0
 27 31  1  0
 28 27  1  0
 29 30  1  0
 29 28  1  0
 30 26  1  0
 31 32  2  0
 32 33  1  0
 34 33  2  0
 35 34  1  0
 36 10  1  0
 36 41  1  0
 36 37  1  0
 37 40  1  1
 37 38  1  0
 39 37  1  0
 41 44  1  0
 42 46  1  0
 42 41  1  0
 43 42  2  0
 46 45  1  0
 48 46  1  0
 48 49  1  0
 48 47  1  0
 50 60  1  0
 51 60  1  0
 52 57  1  0
 53 54  1  0
 53 52  1  0
 55 54  1  0
 55 64  1  0
 55 56  1  0
 57 51  1  0
 57 56  1  0
 58 51  2  0
 60 59  1  0
 61 62  2  0
 62 81  1  0
 63 62  1  0
 63 66  1  0
 64 65  1  0
 64 61  1  0
 65 63  2  0
 66 67  1  0
 67 68  2  0
 69 72  1  0
 69 68  1  0
 70 69  2  0
 71 70  1  0
 71 66  2  0
 72 73  1  0
 73 74  1  0
 74 75  2  0
 76 75  1  0
 76 80  1  0
 77 76  2  0
 78 73  2  0
 78 77  1  0
 79 78  1  0
 81 82  1  0
 82 85  1  0
 82 84  1  0
 83 81  2  0
 86 61  1  0
 86 87  1  0
 88 86  1  0
M  ISO  4   8 101   9 101  51 100  60 100
M  END
>  <TORSDO>  (79) 
F 19

>  <SCORE>  (79) 
-14.329

>  <name>  (79) 
80

>  <ligand_id>  (79) 
80

>  <original_smiles>  (79) 
[H]c1c([H])c(C([H])([H])N(C(=O)N2C([H])([H])C([H])([H])C([H])([H])C([H])(n3nc(-c4c([H])c([H])c(Oc5c([H])c([H])c(F)c([H])c5F)c([H])c4[H])c(C(=O)N([H])[H])c3N([H])[H])C2([H])[H])C([H])([H])[H])c([H])c(C([H])([H])C([H])([H])Oc2c([H])c([H])c3c(c2[H])C([H])([H])N(C(=O)C([H])(N([H])C(=O)C([H])(N([H])C([H])([H])[H])C([H])([H])[H])C(C([H])([H])[H])(C([H])([H])[H])C([H])([H])[H])C([H])(C(=O)N([H])C2([H])c4c([H])c([H])c([H])c([H])c4C([H])([H])C([H])([H])C2([H])[H])C3([H])[H])c1[H]

>  <smiles>  (79) 
[H]c1c([H])c(C([H])([H])N(C(=O)N2C([H])([H])C([H])([H])C([H])([H])C([H])(n3nc(-c4c([H])c([H])c(Oc5c([H])c([H])c(F)c([H])c5F)c([H])c4[H])c(C(=O)N([H])[H])c3N([H])[H])C2([H])[H])C([H])([H])[H])c([H])c(C([H])([H])C([H])([H])Oc2c([H])c([H])c3c(c2[H])C([H])([H])N(C(=O)C([H])(N([H])C(=O)C([H])(N([H])C([H])([H])[H])C([H])([H])[H])C(C([H])([H])[H])(C([H])([H])[H])C([H])([H])[H])C([H])(C(=O)N([H])C2([H])c4c([H])c([H])c([H])c([H])c4C([H])([H])C([H])([H])C2([H])[H])C3([H])[H])c1[H]

$$$$
81:0:0
     RDKit          3D

 91100  0  0  1  0  0  0  0  0999 V2000
  -29.2050  -24.4170   21.7210 C   0  0  0  0  0  2  0  0  0  0  0  0
  -29.2820  -22.8660   21.9110 C   0  0  0  0  0  2  0  0  0  0  0  0
  -28.3910  -23.3450   19.7840 C   0  0  0  0  0  2  0  0  0  0  0  0
  -28.1520  -24.7430   20.6430 C   0  0  0  0  0  3  0  0  0  0  0  0
  -29.0020  -22.2120   20.6290 N   0  0  0  0  0  0  0  0  0  0  0  0
  -30.2590  -19.9940   21.1420 C   0  0  0  0  0  3  0  0  0  0  0  0
  -30.4600  -18.5490   21.0980 C   0  0  0  0  0  3  0  0  0  0  0  0
  -28.3690  -19.8120   19.7630 C   0  0  0  0  0  3  0  0  0  0  0  0
  -29.2010  -20.7310   20.4880 C   0  0  0  0  0  0  0  0  0  0  0  0
  -29.5960  -17.6370   20.4060 C   0  0  0  0  0  0  0  0  0  0  0  0
  -28.5380  -18.3620   19.7470 C   0  0  0  0  0  0  0  0  0  0  0  0
  -27.6120  -17.6270   19.0850 F   0  0  0  0  0  0  0  0  0  0  0  0
  -30.4690  -14.9960   20.3510 C   0  0  0  0  0  0  0  0  0  0  0  0
  -30.4100  -12.6450   19.3920 C   0  0  0  0  0  2  0  0  0  0  0  0
  -29.4690  -12.5940   18.1640 C   0  0  0  0  0  2  0  0  0  0  0  0
  -28.0060  -12.3710   18.5980 C   0  0  0  0  0  2  0  0  0  0  0  0
  -27.5930  -13.2920   19.7760 C   0  0  0  0  0  3  0  0  0  0  0  0
  -28.6470  -13.2890   20.9030 C   0  0  0  0  0  2  0  0  0  0  0  0
  -29.9180  -13.7170   20.3000 N   0  0  0  0  0  0  0  0  0  0  0  0
  -31.6730  -15.1150   20.0920 O   0  0  0  0  0  0  0  0  0  0  0  0
  -29.5860  -16.1010   20.4670 N   0  0  0  0  0  0  0  0  0  0  0  0
  -28.6400  -15.7530   20.4890 H   0  0  0  0  0  0  0  0  0  0  0  0
  -25.2090  -13.8650   20.5130 C   0  0  0  0  0  0  0  0  0  0  0  0
  -24.1460  -13.0850   20.8780 C   0  0  0  0  0  0  0  0  0  0  0  0
  -24.6150  -11.7350   20.8430 C   0  0  0  0  0  0  0  0  0  0  0  0
  -26.2540  -12.9900   20.2690 N   0  0  0  0  0  0  0  0  0  0  0  0
  -25.9060  -11.7050   20.5350 N   0  0  0  0  0  0  0  0  0  0  0  0
  -23.8920  -10.4700   21.0270 C   0  0  0  0  0  0  0  0  0  0  0  0
  -24.3130   -9.5080   21.9710 C   0  0  0  0  0  3  0  0  0  0  0  0
  -23.5890   -8.3090   22.1420 C   0  0  0  0  0  3  0  0  0  0  0  0
  -22.4300   -8.0620   21.3690 C   0  0  0  0  0  0  0  0  0  0  0  0
  -22.0290   -9.0130   20.4130 C   0  0  0  0  0  3  0  0  0  0  0  0
  -22.7530  -10.2030   20.2400 C   0  0  0  0  0  3  0  0  0  0  0  0
  -21.6790   -6.9150   21.4480 O   0  0  0  0  0  0  0  0  0  0  0  0
  -21.6000   -6.1860   22.6080 C   0  0  0  0  0  0  0  0  0  0  0  0
  -21.1170   -6.7480   23.8110 C   0  0  0  0  0  3  0  0  0  0  0  0
  -20.9880   -5.9440   24.9600 C   0  0  0  0  0  3  0  0  0  0  0  0
  -21.3290   -4.5800   24.9090 C   0  0  0  0  0  0  0  0  0  0  0  0
  -21.8050   -4.0170   23.7110 C   0  0  0  0  0  3  0  0  0  0  0  0
  -21.9360   -4.8180   22.5630 C   0  0  0  0  0  0  0  0  0  0  0  0
  -22.3740   -4.2660   21.4060 F   0  0  0  0  0  0  0  0  0  0  0  0
  -21.1980   -3.8060   26.0110 F   0  0  0  0  0  0  0  0  0  0  0  0
  -22.7460  -13.5560   21.1450 C   0  0  0  0  0  0  0  0  0  0  0  0
  -22.0150  -12.8540   22.0020 N   0  0  0  0  0  0  0  0  0  0  0  0
  -22.3080  -14.5840   20.6290 O   0  0  0  0  0  0  0  0  0  0  0  0
  -22.3810  -12.0210   22.4410 H   0  0  0  0  0  0  0  0  0  0  0  0
  -21.0750  -13.1510   22.2240 H   0  0  0  0  0  0  0  0  0  0  0  0
  -25.3640  -15.2380   20.3410 N   0  0  0  0  0  0  0  0  0  0  0  0
  -24.5860  -15.8770   20.4650 H   0  0  0  0  0  0  0  0  0  0  0  0
  -26.1810  -15.6920   19.9530 H   0  0  0  0  0  0  0  0  0  0  0  0
  -28.2810  -26.2390   20.2200 O   0  0  0  0  0  0  0  0  0  0  0  0
  -24.6120  -31.8920   23.2410 C   0  0  0  0  0  0  0  0  0  0  0  0
  -27.1940  -27.1820   20.2270 C   0  0  0  0  0  0  0  0  0  0  0  0
  -23.4100  -30.4920   21.6040 C   0  0  0  0  0  3  0  0  0  0  0  0
  -24.8560  -28.9070   20.1890 C   0  0  0  0  0  0  0  0  0  0  0  0
  -25.9600  -30.7650   21.4290 C   0  0  0  0  0  2  0  0  0  0  0  0
  -26.0360  -29.3680   20.7870 C   0  0  0  0  0  0  0  0  0  0  0  0
  -27.2090  -28.5240   20.7820 C   0  0  0  0  0  3  0  0  0  0  0  0
  -25.9860  -26.8080   19.6040 C   0  0  0  0  0  3  0  0  0  0  0  0
  -24.8430  -27.6410   19.5820 C   0  0  0  0  0  3  0  0  0  0  0  0
  -23.6290  -29.8040   20.2290 C   0  0  0  0  0  2  0  0  0  0  0  0
  -24.6820  -31.0710   22.1480 N   0  0  0  0  0  0  0  0  0  0  0  0
  -23.5260  -32.1740   23.7700 O   0  0  0  0  0  0  0  0  0  0  0  0
  -22.7320  -29.4890   22.5720 C   0  0  0  0  0  0  0  0  0  0  0  0
  -21.4050  -29.3160   22.4440 N   0  0  0  0  0  0  0  0  0  0  0  0
  -23.4040  -28.8670   23.3990 O   0  0  0  0  0  0  0  0  0  0  0  0
  -20.9180  -29.8710   21.7540 H   0  0  0  0  0  0  0  0  0  0  0  0
  -18.0250  -28.1110   22.9460 C   0  0  0  0  0  0  0  0  0  0  0  0
  -20.5820  -28.3800   23.2170 C   0  0  0  0  0  3  0  0  0  0  0  0
  -20.6880  -26.9450   22.6490 C   0  0  0  0  0  2  0  0  0  0  0  0
  -19.5880  -26.6170   21.6340 C   0  0  0  0  0  2  0  0  0  0  0  0
  -18.2060  -26.7620   22.2740 C   0  0  0  0  0  2  0  0  0  0  0  0
  -19.1410  -28.8780   23.3750 C   0  0  0  0  0  0  0  0  0  0  0  0
  -18.9170  -30.1420   23.9650 C   0  0  0  0  0  3  0  0  0  0  0  0
  -17.6100  -30.6380   24.1290 C   0  0  0  0  0  3  0  0  0  0  0  0
  -16.5090  -29.8690   23.7150 C   0  0  0  0  0  3  0  0  0  0  0  0
  -16.7170  -28.6080   23.1300 C   0  0  0  0  0  3  0  0  0  0  0  0
  -25.8910  -32.5290   23.8660 C   0  0  0  0  0  3  0  0  0  0  0  0
  -25.5810  -33.9290   24.1950 N   0  0  0  0  0  0  0  0  0  0  0  0
  -25.9110  -34.9840   23.4370 C   0  0  0  0  0  0  0  0  0  0  0  0
  -26.5750  -34.8790   22.4020 O   0  0  0  0  0  0  0  0  0  0  0  0
  -24.9910  -34.0840   25.0000 H   0  0  0  0  0  0  0  0  0  0  0  0
  -24.1820  -36.7800   23.0960 C   0  0  0  0  0  1  0  0  0  0  0  0
  -25.4290  -36.3740   23.8980 C   0  0  0  0  0  3  0  0  0  0  0  0
  -27.5700  -37.2570   24.7130 C   0  0  0  0  0  1  0  0  0  0  0  0
  -26.4620  -37.4260   23.7780 N   0  0  0  0  0  0  0  0  0  0  0  0
  -26.0570  -38.3460   23.9310 H   0  0  0  0  0  0  0  0  0  0  0  0
  -26.3990  -31.7640   25.1500 C   0  0  1  0  0  0  0  0  0  0  0  0
  -25.3020  -31.5380   26.2170 C   0  0  0  0  0  1  0  0  0  0  0  0
  -26.9790  -30.3820   24.7710 C   0  0  0  0  0  1  0  0  0  0  0  0
  -27.5500  -32.5580   25.8120 C   0  0  0  0  0  1  0  0  0  0  0  0
  1  2  1  0
  3  5  1  0
  3  4  1  0
  4 51  1  0
  4  1  1  0
  5  2  1  0
  7  6  1  0
  8  9  1  0
  9  5  1  0
  9  6  2  0
 10 21  1  0
 10  7  2  0
 11  8  2  0
 11 10  1  0
 12 11  1  0
 13 21  1  0
 14 19  1  0
 15 16  1  0
 15 14  1  0
 17 16  1  0
 17 26  1  0
 17 18  1  0
 19 13  1  0
 19 18  1  0
 20 13  2  0
 21 22  1  0
 23 24  2  0
 24 43  1  0
 25 24  1  0
 25 28  1  0
 26 23  1  0
 26 27  1  0
 27 25  2  0
 28 29  1  0
 29 30  2  0
 31 34  1  0
 31 30  1  0
 32 31  2  0
 33 32  1  0
 33 28  2  0
 34 35  1  0
 35 36  1  0
 36 37  2  0
 38 37  1  0
 38 42  1  0
 39 38  2  0
 40 35  2  0
 40 39  1  0
 41 40  1  0
 43 44  1  0
 44 47  1  0
 44 46  1  0
 45 43  2  0
 48 49  1  0
 48 23  1  0
 50 48  1  0
 51 53  1  0
 52 63  2  0
 53 58  1  0
 54 62  1  0
 54 64  1  0
 55 61  1  0
 55 57  1  0
 56 62  1  0
 57 56  1  0
 58 57  2  0
 59 53  2  0
 60 59  1  0
 60 55  2  0
 61 54  1  0
 62 52  1  0
 64 66  2  0
 65 64  1  0
 67 65  1  0
 68 77  2  0
 68 73  1  0
 69 65  1  0
 69 73  1  0
 70 69  1  0
 71 72  1  0
 71 70  1  0
 72 68  1  0
 73 74  2  0
 74 75  1  0
 76 75  2  0
 77 76  1  0
 78 52  1  0
 78 79  1  0
 78 88  1  0
 79 82  1  0
 80 84  1  0
 80 79  1  0
 81 80  2  0
 84 83  1  0
 86 84  1  0
 86 87  1  0
 86 85  1  0
 88 91  1  1
 88 89  1  0
 90 88  1  0
M  ISO  4   4 101  13 100  21 100  51 101
M  END
>  <TORSDO>  (80) 
F 17

>  <SCORE>  (80) 
-15.443

>  <name>  (80) 
81

>  <ligand_id>  (80) 
81

>  <original_smiles>  (80) 
[H]c1c([H])c([H])c2c(c1[H])C([H])([H])C([H])([H])C([H])([H])C2([H])N([H])C(=O)C1([H])N(C(=O)C([H])(N([H])C(=O)C([H])(N([H])C([H])([H])[H])C([H])([H])[H])C(C([H])([H])[H])(C([H])([H])[H])C([H])([H])[H])C([H])([H])c2c([H])c(OC3([H])C([H])([H])N(c4c([H])c([H])c(N([H])C(=O)N5C([H])([H])C([H])([H])C([H])([H])C([H])(n6nc(-c7c([H])c([H])c(Oc8c([H])c([H])c(F)c([H])c8F)c([H])c7[H])c(C(=O)N([H])[H])c6N([H])[H])C5([H])[H])c(F)c4[H])C([H])([H])C3([H])[H])c([H])c([H])c2C1([H])[H]

>  <smiles>  (80) 
[H]c1c([H])c([H])c2c(c1[H])C([H])([H])C([H])([H])C([H])([H])C2([H])N([H])C(=O)C1([H])N(C(=O)C([H])(N([H])C(=O)C([H])(N([H])C([H])([H])[H])C([H])([H])[H])C(C([H])([H])[H])(C([H])([H])[H])C([H])([H])[H])C([H])([H])c2c([H])c(OC3([H])C([H])([H])N(c4c([H])c([H])c(N([H])C(=O)N5C([H])([H])C([H])([H])C([H])([H])C([H])(n6nc(-c7c([H])c([H])c(Oc8c([H])c([H])c(F)c([H])c8F)c([H])c7[H])c(C(=O)N([H])[H])c6N([H])[H])C5([H])[H])c(F)c4[H])C([H])([H])C3([H])[H])c([H])c([H])c2C1([H])[H]

$$$$
82:0:0
     RDKit          3D

 93102  0  0  1  0  0  0  0  0999 V2000
  -30.7390  -21.9780   20.5760 C   0  0  0  0  0  2  0  0  0  0  0  0
  -30.6570  -14.8870   20.1310 C   0  0  0  0  0  0  0  0  0  0  0  0
  -30.4250  -12.6200   19.0750 C   0  0  0  0  0  2  0  0  0  0  0  0
  -29.4200  -12.6300   17.9010 C   0  0  0  0  0  2  0  0  0  0  0  0
  -27.9810  -12.3790   18.4000 C   0  0  0  0  0  2  0  0  0  0  0  0
  -27.6310  -13.2570   19.6190 C   0  0  0  0  0  3  0  0  0  0  0  0
  -28.7580  -13.2040   20.6920 C   0  0  0  0  0  2  0  0  0  0  0  0
  -29.9980  -13.6640   20.0380 N   0  0  0  0  0  0  0  0  0  0  0  0
  -31.8590  -14.9180   19.8490 O   0  0  0  0  0  0  0  0  0  0  0  0
  -31.7120  -19.5720   20.0860 C   0  0  0  0  0  3  0  0  0  0  0  0
  -31.6360  -18.1350   20.0550 C   0  0  0  0  0  3  0  0  0  0  0  0
  -29.4480  -19.7450   20.9010 C   0  0  0  0  0  3  0  0  0  0  0  0
  -29.3880  -18.3330   20.8430 C   0  0  0  0  0  0  0  0  0  0  0  0
  -30.6220  -20.4120   20.4930 C   0  0  0  0  0  0  0  0  0  0  0  0
  -30.4310  -17.4890   20.4270 C   0  0  0  0  0  0  0  0  0  0  0  0
  -28.1510  -17.5470   21.0460 C   0  0  0  0  0  2  0  0  0  0  0  0
  -28.4880  -16.2920   20.2320 C   0  0  0  0  0  3  0  0  0  0  0  0
  -28.0820  -16.5520   18.7500 C   0  0  0  0  0  1  0  0  0  0  0  0
  -29.9550  -16.1000   20.2960 N   0  0  0  0  0  0  0  0  0  0  0  0
  -25.2720  -13.9100   20.4320 C   0  0  0  0  0  0  0  0  0  0  0  0
  -24.2140  -13.1460   20.8290 C   0  0  0  0  0  0  0  0  0  0  0  0
  -24.6680  -11.7940   20.7680 C   0  0  0  0  0  0  0  0  0  0  0  0
  -26.3040  -13.0160   20.1590 N   0  0  0  0  0  0  0  0  0  0  0  0
  -25.9450  -11.7410   20.4240 N   0  0  0  0  0  0  0  0  0  0  0  0
  -23.9430  -10.5380   20.9540 C   0  0  0  0  0  0  0  0  0  0  0  0
  -24.3780   -9.5770   21.8900 C   0  0  0  0  0  3  0  0  0  0  0  0
  -23.6570   -8.3780   22.0660 C   0  0  0  0  0  3  0  0  0  0  0  0
  -22.4880   -8.1380   21.3050 C   0  0  0  0  0  0  0  0  0  0  0  0
  -22.0750   -9.0900   20.3560 C   0  0  0  0  0  3  0  0  0  0  0  0
  -22.7980  -10.2800   20.1770 C   0  0  0  0  0  3  0  0  0  0  0  0
  -21.7370   -6.9930   21.3930 O   0  0  0  0  0  0  0  0  0  0  0  0
  -21.6450   -6.2840   22.5630 C   0  0  0  0  0  0  0  0  0  0  0  0
  -21.1210   -6.8590   23.7420 C   0  0  0  0  0  3  0  0  0  0  0  0
  -20.9790   -6.0730   24.9030 C   0  0  0  0  0  3  0  0  0  0  0  0
  -21.3500   -4.7140   24.8840 C   0  0  0  0  0  0  0  0  0  0  0  0
  -21.8690   -4.1410   23.7100 C   0  0  0  0  0  3  0  0  0  0  0  0
  -22.0120   -4.9240   22.5510 C   0  0  0  0  0  0  0  0  0  0  0  0
  -22.4920   -4.3630   21.4160 F   0  0  0  0  0  0  0  0  0  0  0  0
  -21.2050   -3.9570   25.9960 F   0  0  0  0  0  0  0  0  0  0  0  0
  -22.8290  -13.6320   21.1470 C   0  0  0  0  0  0  0  0  0  0  0  0
  -22.1330  -12.9440   22.0450 N   0  0  0  0  0  0  0  0  0  0  0  0
  -22.3760  -14.6560   20.6370 O   0  0  0  0  0  0  0  0  0  0  0  0
  -22.5150  -12.1160   22.4780 H   0  0  0  0  0  0  0  0  0  0  0  0
  -21.2060  -13.2510   22.3040 H   0  0  0  0  0  0  0  0  0  0  0  0
  -25.4090  -15.2820   20.2570 N   0  0  0  0  0  0  0  0  0  0  0  0
  -24.6290  -15.9150   20.3910 H   0  0  0  0  0  0  0  0  0  0  0  0
  -26.2250  -15.7280   19.8620 H   0  0  0  0  0  0  0  0  0  0  0  0
  -29.5900  -22.8390   20.0920 N   0  0  0  0  0  4  0  0  0  0  0  0
  -28.7470  -22.4780   20.5090 H   0  0  0  0  0  0  0  0  0  0  0  0
  -29.5110  -22.7070   19.0950 H   0  0  0  0  0  0  0  0  0  0  0  0
  -29.6700  -24.3320   20.3890 C   0  0  0  0  0  3  0  0  0  0  0  0
  -28.4170  -25.2190   19.9780 C   0  0  0  0  0  3  0  0  0  0  0  0
  -28.4750  -26.6560   20.3060 O   0  0  0  0  0  0  0  0  0  0  0  0
  -24.6260  -31.9090   23.3600 C   0  0  0  0  0  0  0  0  0  0  0  0
  -27.3060  -27.4310   20.2630 C   0  0  0  0  0  0  0  0  0  0  0  0
  -23.4350  -30.5240   21.6930 C   0  0  0  0  0  3  0  0  0  0  0  0
  -24.9050  -28.9920   20.2630 C   0  0  0  0  0  0  0  0  0  0  0  0
  -25.9700  -30.8640   21.5280 C   0  0  0  0  0  2  0  0  0  0  0  0
  -26.0640  -29.4960   20.8680 C   0  0  0  0  0  0  0  0  0  0  0  0
  -27.2620  -28.7260   20.8590 C   0  0  0  0  0  3  0  0  0  0  0  0
  -26.1200  -26.9660   19.6430 C   0  0  0  0  0  3  0  0  0  0  0  0
  -24.9350  -27.7310   19.6450 C   0  0  0  0  0  3  0  0  0  0  0  0
  -23.6610  -29.8560   20.3100 C   0  0  0  0  0  2  0  0  0  0  0  0
  -24.6950  -31.1150   22.2510 N   0  0  0  0  0  0  0  0  0  0  0  0
  -23.5400  -32.1780   23.8920 O   0  0  0  0  0  0  0  0  0  0  0  0
  -22.7700  -29.4980   22.6410 C   0  0  0  0  0  0  0  0  0  0  0  0
  -21.4480  -29.3050   22.4880 N   0  0  0  0  0  0  0  0  0  0  0  0
  -23.4410  -28.8750   23.4680 O   0  0  0  0  0  0  0  0  0  0  0  0
  -20.9680  -29.8590   21.7930 H   0  0  0  0  0  0  0  0  0  0  0  0
  -18.0730  -28.0800   22.9260 C   0  0  0  0  0  0  0  0  0  0  0  0
  -20.6250  -28.3560   23.2380 C   0  0  0  0  0  3  0  0  0  0  0  0
  -20.7480  -26.9300   22.6550 C   0  0  0  0  0  2  0  0  0  0  0  0
  -19.6650  -26.6060   21.6210 C   0  0  0  0  0  2  0  0  0  0  0  0
  -18.2710  -26.7360   22.2430 C   0  0  0  0  0  2  0  0  0  0  0  0
  -19.1800  -28.8480   23.3780 C   0  0  0  0  0  0  0  0  0  0  0  0
  -18.9420  -30.1040   23.9740 C   0  0  0  0  0  3  0  0  0  0  0  0
  -17.6320  -30.5950   24.1240 C   0  0  0  0  0  3  0  0  0  0  0  0
  -16.5390  -29.8250   23.6890 C   0  0  0  0  0  3  0  0  0  0  0  0
  -16.7620  -28.5690   23.0950 C   0  0  0  0  0  3  0  0  0  0  0  0
  -25.9060  -32.5350   23.9980 C   0  0  0  0  0  3  0  0  0  0  0  0
  -26.3850  -31.7800   25.2990 C   0  0  1  0  0  0  0  0  0  0  0  0
  -25.2650  -31.5710   26.3450 C   0  0  0  0  0  1  0  0  0  0  0  0
  -26.9640  -30.3900   24.9430 C   0  0  0  0  0  1  0  0  0  0  0  0
  -27.5270  -32.5750   25.9750 C   0  0  0  0  0  1  0  0  0  0  0  0
  -25.6100  -33.9430   24.2970 N   0  0  0  0  0  0  0  0  0  0  0  0
  -25.9380  -34.9740   23.5090 C   0  0  0  0  0  0  0  0  0  0  0  0
  -26.5940  -34.8420   22.4720 O   0  0  0  0  0  0  0  0  0  0  0  0
  -25.0280  -34.1190   25.1030 H   0  0  0  0  0  0  0  0  0  0  0  0
  -24.2030  -36.7610   23.1490 C   0  0  0  0  0  1  0  0  0  0  0  0
  -25.4640  -36.3770   23.9400 C   0  0  0  0  0  3  0  0  0  0  0  0
  -27.6140  -37.2880   24.6990 C   0  0  0  0  0  1  0  0  0  0  0  0
  -26.4960  -37.4230   23.7690 N   0  0  0  0  0  0  0  0  0  0  0  0
  -26.0940  -38.3490   23.8930 H   0  0  0  0  0  0  0  0  0  0  0  0
  2 19  1  0
  3  8  1  0
  4  5  1  0
  4  3  1  0
  6  5  1  0
  6 23  1  0
  6  7  1  0
  8  2  1  0
  8  7  1  0
  9  2  2  0
 10 14  1  0
 11 10  2  0
 11 15  1  0
 13 12  1  0
 13 16  1  0
 14  1  1  0
 14 12  2  0
 15 13  2  0
 17 18  1  0
 17 19  1  0
 17 16  1  0
 19 15  1  0
 20 21  2  0
 21 40  1  0
 22 21  1  0
 22 25  1  0
 23 24  1  0
 23 20  1  0
 24 22  2  0
 25 26  1  0
 26 27  2  0
 28 31  1  0
 28 27  1  0
 29 28  2  0
 30 29  1  0
 30 25  2  0
 31 32  1  0
 32 33  1  0
 33 34  2  0
 35 34  1  0
 35 39  1  0
 36 35  2  0
 37 32  2  0
 37 36  1  0
 38 37  1  0
 40 41  1  0
 41 44  1  0
 41 43  1  0
 42 40  2  0
 45 46  1  0
 45 20  1  0
 47 45  1  0
 48 51  1  0
 48 49  1  0
 48  1  1  0
 50 48  1  0
 52 53  1  0
 52 51  2  0
 54 65  2  0
 55 53  1  0
 55 60  1  0
 56 64  1  0
 56 66  1  0
 57 63  1  0
 57 59  1  0
 58 64  1  0
 59 58  1  0
 60 59  2  0
 61 62  1  0
 61 55  2  0
 62 57  2  0
 63 56  1  0
 64 54  1  0
 66 68  2  0
 67 66  1  0
 69 67  1  0
 70 79  2  0
 70 75  1  0
 71 67  1  0
 71 75  1  0
 72 71  1  0
 73 74  1  0
 73 72  1  0
 74 70  1  0
 75 76  2  0
 76 77  1  0
 78 77  2  0
 79 78  1  0
 80 54  1  0
 80 85  1  0
 80 81  1  0
 81 84  1  1
 81 82  1  0
 83 81  1  0
 85 88  1  0
 86 90  1  0
 86 85  1  0
 87 86  2  0
 90 89  1  0
 92 93  1  0
 92 90  1  0
 92 91  1  0
M  ISO  4   2 100  19 100  52 101  53 101
M  END
>  <TORSDO>  (81) 
F 19

>  <SCORE>  (81) 
-13.660

>  <name>  (81) 
82

>  <ligand_id>  (81) 
82

>  <original_smiles>  (81) 
[H]c1c([H])c([H])c2c(c1[H])C([H])([H])C([H])([H])C([H])([H])C2([H])N([H])C(=O)C1([H])N(C(=O)C([H])(N([H])C(=O)C([H])(N([H])C([H])([H])[H])C([H])([H])[H])C(C([H])([H])[H])(C([H])([H])[H])C([H])([H])[H])C([H])([H])c2c([H])c(OC([H])([H])C([H])([H])[N+]([H])([H])C([H])([H])c3c([H])c([H])c4c(c3[H])C([H])([H])C([H])(C([H])([H])[H])N4C(=O)N3C([H])([H])C([H])([H])C([H])([H])C([H])(n4nc(-c5c([H])c([H])c(Oc6c([H])c([H])c(F)c([H])c6F)c([H])c5[H])c(C(=O)N([H])[H])c4N([H])[H])C3([H])[H])c([H])c([H])c2C1([H])[H]

>  <smiles>  (81) 
[H]c1c([H])c([H])c2c(c1[H])C([H])([H])C([H])([H])C([H])([H])C2([H])N([H])C(=O)C1([H])N(C(=O)C([H])(N([H])C(=O)C([H])(N([H])C([H])([H])[H])C([H])([H])[H])C(C([H])([H])[H])(C([H])([H])[H])C([H])([H])[H])C([H])([H])c2c([H])c(OC([H])([H])C([H])([H])[N+]([H])([H])C([H])([H])c3c([H])c([H])c4c(c3[H])C([H])([H])C([H])(C([H])([H])[H])N4C(=O)N3C([H])([H])C([H])([H])C([H])([H])C([H])(n4nc(-c5c([H])c([H])c(Oc6c([H])c([H])c(F)c([H])c6F)c([H])c5[H])c(C(=O)N([H])[H])c4N([H])[H])C3([H])[H])c([H])c([H])c2C1([H])[H]

$$$$
83:0:0
     RDKit          3D

 90 98  0  0  1  0  0  0  0  0999 V2000
  -27.5040  -18.7690   19.7510 C   0  0  0  0  0  3  0  0  0  0  0  0
  -28.4380  -17.7370   19.9550 C   0  0  0  0  0  3  0  0  0  0  0  0
  -27.8880  -20.1180   19.8730 C   0  0  0  0  0  3  0  0  0  0  0  0
  -30.1470  -19.4130   20.4140 C   0  0  0  0  0  3  0  0  0  0  0  0
  -29.7690  -18.0500   20.2940 C   0  0  0  0  0  0  0  0  0  0  0  0
  -29.2230  -20.4650   20.2040 C   0  0  0  0  0  0  0  0  0  0  0  0
  -30.8230  -16.9500   20.4510 C   0  0  0  0  0  2  0  0  0  0  0  0
  -30.8580  -14.5020   20.1380 C   0  0  0  0  0  0  0  0  0  0  0  0
  -30.4190  -12.3920   18.9200 C   0  0  0  0  0  2  0  0  0  0  0  0
  -29.4150  -12.6150   17.7710 C   0  0  0  0  0  2  0  0  0  0  0  0
  -27.9660  -12.4630   18.2740 C   0  0  0  0  0  2  0  0  0  0  0  0
  -27.7020  -13.2660   19.5750 C   0  0  0  0  0  3  0  0  0  0  0  0
  -28.8160  -13.0060   20.6080 C   0  0  0  0  0  2  0  0  0  0  0  0
  -30.1090  -13.3610   19.9930 N   0  0  0  0  0  0  0  0  0  0  0  0
  -31.9110  -14.6360   19.5070 O   0  0  0  0  0  0  0  0  0  0  0  0
  -29.8370  -15.5230   22.1740 C   0  0  0  0  0  1  0  0  0  0  0  0
  -30.3370  -15.5840   20.7930 N   0  0  0  0  0  0  0  0  0  0  0  0
  -25.3550  -13.8490   20.4560 C   0  0  0  0  0  0  0  0  0  0  0  0
  -24.3120  -13.0660   20.8690 C   0  0  0  0  0  0  0  0  0  0  0  0
  -24.7680  -11.7160   20.7680 C   0  0  0  0  0  0  0  0  0  0  0  0
  -26.3810  -12.9770   20.1280 N   0  0  0  0  0  0  0  0  0  0  0  0
  -26.0350  -11.6860   20.3740 N   0  0  0  0  0  0  0  0  0  0  0  0
  -24.0520  -10.4500   20.9660 C   0  0  0  0  0  0  0  0  0  0  0  0
  -24.5030   -9.4830   21.8920 C   0  0  0  0  0  3  0  0  0  0  0  0
  -23.7880   -8.2800   22.0760 C   0  0  0  0  0  3  0  0  0  0  0  0
  -22.6070   -8.0370   21.3350 C   0  0  0  0  0  0  0  0  0  0  0  0
  -22.1750   -8.9920   20.3980 C   0  0  0  0  0  3  0  0  0  0  0  0
  -22.8910  -10.1870   20.2120 C   0  0  0  0  0  3  0  0  0  0  0  0
  -21.8610   -6.8870   21.4310 O   0  0  0  0  0  0  0  0  0  0  0  0
  -21.7790   -6.1770   22.6020 C   0  0  0  0  0  0  0  0  0  0  0  0
  -21.3040   -6.7630   23.7970 C   0  0  0  0  0  3  0  0  0  0  0  0
  -21.1690   -5.9780   24.9590 C   0  0  0  0  0  3  0  0  0  0  0  0
  -21.4980   -4.6100   24.9290 C   0  0  0  0  0  0  0  0  0  0  0  0
  -21.9650   -4.0230   23.7390 C   0  0  0  0  0  3  0  0  0  0  0  0
  -22.1020   -4.8050   22.5780 C   0  0  0  0  0  0  0  0  0  0  0  0
  -22.5310   -4.2310   21.4290 F   0  0  0  0  0  0  0  0  0  0  0  0
  -21.3630   -3.8550   26.0420 F   0  0  0  0  0  0  0  0  0  0  0  0
  -22.9370  -13.5350   21.2480 C   0  0  0  0  0  0  0  0  0  0  0  0
  -22.2720  -12.8260   22.1530 N   0  0  0  0  0  0  0  0  0  0  0  0
  -22.4620  -14.5670   20.7740 O   0  0  0  0  0  0  0  0  0  0  0  0
  -22.6670  -11.9920   22.5590 H   0  0  0  0  0  0  0  0  0  0  0  0
  -21.3520  -13.1240   22.4450 H   0  0  0  0  0  0  0  0  0  0  0  0
  -25.5100  -15.2250   20.3130 N   0  0  0  0  0  0  0  0  0  0  0  0
  -24.7590  -15.8760   20.5130 H   0  0  0  0  0  0  0  0  0  0  0  0
  -26.3460  -15.6780   19.9680 H   0  0  0  0  0  0  0  0  0  0  0  0
  -29.6750  -21.7750   20.3250 O   0  0  0  0  0  0  0  0  0  0  0  0
  -28.7430  -22.8280   20.0480 C   0  0  0  0  0  2  0  0  0  0  0  0
  -29.2940  -24.2670   20.2290 C   0  0  0  0  0  2  0  0  0  0  0  0
  -28.2130  -25.2760   19.7870 C   0  0  0  0  0  2  0  0  0  0  0  0
  -28.4190  -26.6750   20.0790 O   0  0  0  0  0  0  0  0  0  0  0  0
  -24.6240  -31.8400   23.2200 C   0  0  0  0  0  0  0  0  0  0  0  0
  -27.2700  -27.4550   20.0410 C   0  0  0  0  0  0  0  0  0  0  0  0
  -23.4250  -30.4790   21.5440 C   0  0  0  0  0  3  0  0  0  0  0  0
  -24.8830  -28.9910   20.0810 C   0  0  0  0  0  0  0  0  0  0  0  0
  -25.9570  -30.8370   21.3680 C   0  0  0  0  0  2  0  0  0  0  0  0
  -26.0430  -29.4840   20.6910 C   0  0  0  0  0  0  0  0  0  0  0  0
  -27.2400  -28.7240   20.6700 C   0  0  0  0  0  3  0  0  0  0  0  0
  -26.0870  -27.0020   19.4010 C   0  0  0  0  0  3  0  0  0  0  0  0
  -24.9010  -27.7500   19.4310 C   0  0  0  0  0  3  0  0  0  0  0  0
  -23.6400  -29.8460   20.1460 C   0  0  0  0  0  2  0  0  0  0  0  0
  -24.6870  -31.0660   22.1030 N   0  0  0  0  0  0  0  0  0  0  0  0
  -23.5400  -32.0990   23.7620 O   0  0  0  0  0  0  0  0  0  0  0  0
  -22.7740  -29.4290   22.4740 C   0  0  0  0  0  0  0  0  0  0  0  0
  -21.4490  -29.2520   22.3420 N   0  0  0  0  0  0  0  0  0  0  0  0
  -23.4560  -28.7800   23.2700 O   0  0  0  0  0  0  0  0  0  0  0  0
  -20.9590  -29.8280   21.6710 H   0  0  0  0  0  0  0  0  0  0  0  0
  -18.0690  -28.0650   22.8210 C   0  0  0  0  0  0  0  0  0  0  0  0
  -20.6300  -28.2970   23.0880 C   0  0  0  0  0  3  0  0  0  0  0  0
  -20.7210  -26.8830   22.4690 C   0  0  0  0  0  2  0  0  0  0  0  0
  -19.6120  -26.5980   21.4510 C   0  0  0  0  0  2  0  0  0  0  0  0
  -18.2350  -26.7340   22.1050 C   0  0  0  0  0  2  0  0  0  0  0  0
  -19.1950  -28.8060   23.2680 C   0  0  0  0  0  0  0  0  0  0  0  0
  -18.9880  -30.0530   23.8970 C   0  0  0  0  0  3  0  0  0  0  0  0
  -17.6880  -30.5590   24.0820 C   0  0  0  0  0  3  0  0  0  0  0  0
  -16.5770  -29.8140   23.6510 C   0  0  0  0  0  3  0  0  0  0  0  0
  -16.7680  -28.5690   23.0260 C   0  0  0  0  0  3  0  0  0  0  0  0
  -25.9070  -32.4590   23.8580 C   0  0  0  0  0  3  0  0  0  0  0  0
  -25.6020  -33.8560   24.1960 N   0  0  0  0  0  0  0  0  0  0  0  0
  -25.9290  -34.9100   23.4370 C   0  0  0  0  0  0  0  0  0  0  0  0
  -26.5910  -34.8080   22.4000 O   0  0  0  0  0  0  0  0  0  0  0  0
  -25.0150  -34.0090   25.0040 H   0  0  0  0  0  0  0  0  0  0  0  0
  -24.1890  -36.6950   23.1110 C   0  0  0  0  0  1  0  0  0  0  0  0
  -25.4450  -36.2960   23.9020 C   0  0  0  0  0  3  0  0  0  0  0  0
  -27.5910  -37.1870   24.6970 C   0  0  0  0  0  1  0  0  0  0  0  0
  -26.4730  -37.3520   23.7710 N   0  0  0  0  0  0  0  0  0  0  0  0
  -26.0670  -38.2710   23.9230 H   0  0  0  0  0  0  0  0  0  0  0  0
  -26.4090  -31.6720   25.1300 C   0  0  1  0  0  0  0  0  0  0  0  0
  -25.3040  -31.4280   26.1850 C   0  0  0  0  0  1  0  0  0  0  0  0
  -26.9880  -30.2960   24.7280 C   0  0  0  0  0  1  0  0  0  0  0  0
  -27.5570  -32.4540   25.8100 C   0  0  0  0  0  1  0  0  0  0  0  0
  1  3  2  0
  1  2  1  0
  2  5  2  0
  3  6  1  0
  5  4  1  0
  5  7  1  0
  6 46  1  0
  6  4  2  0
  7 17  1  0
  8 17  1  0
  9 14  1  0
 10 11  1  0
 10  9  1  0
 12 11  1  0
 12 21  1  0
 12 13  1  0
 14  8  1  0
 14 13  1  0
 15  8  2  0
 17 16  1  0
 18 19  2  0
 19 38  1  0
 20 19  1  0
 20 23  1  0
 21 22  1  0
 21 18  1  0
 22 20  2  0
 23 24  1  0
 24 25  2  0
 26 29  1  0
 26 25  1  0
 27 26  2  0
 28 27  1  0
 28 23  2  0
 29 30  1  0
 30 31  1  0
 31 32  2  0
 33 32  1  0
 33 37  1  0
 34 33  2  0
 35 30  2  0
 35 34  1  0
 36 35  1  0
 38 39  1  0
 39 42  1  0
 39 41  1  0
 40 38  2  0
 43 18  1  0
 43 44  1  0
 45 43  1  0
 47 48  1  0
 47 46  1  0
 49 50  1  0
 49 48  1  0
 51 62  2  0
 52 50  1  0
 52 57  1  0
 53 61  1  0
 53 63  1  0
 54 60  1  0
 54 56  1  0
 55 61  1  0
 56 55  1  0
 57 56  2  0
 58 59  1  0
 58 52  2  0
 59 54  2  0
 60 53  1  0
 61 51  1  0
 63 65  2  0
 64 63  1  0
 66 64  1  0
 67 76  2  0
 67 72  1  0
 68 64  1  0
 68 72  1  0
 69 68  1  0
 70 71  1  0
 70 69  1  0
 71 67  1  0
 72 73  2  0
 73 74  1  0
 75 74  2  0
 76 75  1  0
 77 51  1  0
 77 78  1  0
 77 87  1  0
 78 81  1  0
 79 83  1  0
 79 78  1  0
 80 79  2  0
 83 82  1  0
 85 83  1  0
 85 86  1  0
 85 84  1  0
 87 90  1  1
 87 88  1  0
 89 87  1  0
M  ISO  4   8 100  17 100  49 101  50 101
M  END
>  <TORSDO>  (82) 
F 21

>  <SCORE>  (82) 
-12.597

>  <name>  (82) 
83

>  <ligand_id>  (82) 
83

>  <original_smiles>  (82) 
[H]c1c([H])c(OC([H])([H])C([H])([H])C([H])([H])Oc2c([H])c([H])c3c(c2[H])C([H])([H])N(C(=O)C([H])(N([H])C(=O)C([H])(N([H])C([H])([H])[H])C([H])([H])[H])C(C([H])([H])[H])(C([H])([H])[H])C([H])([H])[H])C([H])(C(=O)N([H])C2([H])c4c([H])c([H])c([H])c([H])c4C([H])([H])C([H])([H])C2([H])[H])C3([H])[H])c([H])c(C([H])([H])N(C(=O)N2C([H])([H])C([H])([H])C([H])([H])C([H])(n3nc(-c4c([H])c([H])c(Oc5c([H])c([H])c(F)c([H])c5F)c([H])c4[H])c(C(=O)N([H])[H])c3N([H])[H])C2([H])[H])C([H])([H])[H])c1[H]

>  <smiles>  (82) 
[H]c1c([H])c(OC([H])([H])C([H])([H])C([H])([H])Oc2c([H])c([H])c3c(c2[H])C([H])([H])N(C(=O)C([H])(N([H])C(=O)C([H])(N([H])C([H])([H])[H])C([H])([H])[H])C(C([H])([H])[H])(C([H])([H])[H])C([H])([H])[H])C([H])(C(=O)N([H])C2([H])c4c([H])c([H])c([H])c([H])c4C([H])([H])C([H])([H])C2([H])[H])C3([H])[H])c([H])c(C([H])([H])N(C(=O)N2C([H])([H])C([H])([H])C([H])([H])C([H])(n3nc(-c4c([H])c([H])c(Oc5c([H])c([H])c(F)c([H])c5F)c([H])c4[H])c(C(=O)N([H])[H])c3N([H])[H])C2([H])[H])C([H])([H])[H])c1[H]

$$$$
84:0:0
     RDKit          3D

 96104  0  0  1  0  0  0  0  0999 V2000
  -30.6170  -21.8790   18.4100 C   0  0  0  0  0  0  0  0  0  0  0  0
  -30.5660  -21.3870   19.6590 N   0  0  0  0  0  0  0  0  0  0  0  0
  -30.7940  -21.2440   17.3650 O   0  0  0  0  0  0  0  0  0  0  0  0
  -30.4350  -22.0970   20.3650 H   0  0  0  0  0  0  0  0  0  0  0  0
  -30.8680  -18.5840   22.0820 C   0  0  0  0  0  3  0  0  0  0  0  0
  -30.9820  -17.6490   19.8420 C   0  0  0  0  0  3  0  0  0  0  0  0
  -30.7010  -19.8690   21.5310 C   0  0  0  0  0  3  0  0  0  0  0  0
  -30.8200  -18.9310   19.2900 C   0  0  0  0  0  3  0  0  0  0  0  0
  -31.0250  -17.4640   21.2410 C   0  0  0  0  0  0  0  0  0  0  0  0
  -30.6940  -20.0570   20.1330 C   0  0  0  0  0  0  0  0  0  0  0  0
  -31.3060  -16.0960   21.8560 C   0  0  0  0  0  2  0  0  0  0  0  0
  -30.8480  -14.2490   20.2520 C   0  0  0  0  0  0  0  0  0  0  0  0
  -30.3190  -12.2550   18.9100 C   0  0  0  0  0  2  0  0  0  0  0  0
  -29.3370  -12.5830   17.7740 C   0  0  0  0  0  2  0  0  0  0  0  0
  -27.8830  -12.4730   18.2650 C   0  0  0  0  0  2  0  0  0  0  0  0
  -27.6440  -13.2410   19.5930 C   0  0  0  0  0  3  0  0  0  0  0  0
  -28.7360  -12.9180   20.6360 C   0  0  0  0  0  2  0  0  0  0  0  0
  -30.0540  -13.1730   20.0250 N   0  0  0  0  0  0  0  0  0  0  0  0
  -31.8430  -14.5070   19.5680 O   0  0  0  0  0  0  0  0  0  0  0  0
  -30.5160  -14.9960   21.3090 N   0  0  0  0  0  0  0  0  0  0  0  0
  -29.7170  -14.6930   21.8460 H   0  0  0  0  0  0  0  0  0  0  0  0
  -25.2820  -13.8800   20.3970 C   0  0  0  0  0  0  0  0  0  0  0  0
  -24.2170  -13.1230   20.8060 C   0  0  0  0  0  0  0  0  0  0  0  0
  -24.6560  -11.7640   20.7470 C   0  0  0  0  0  0  0  0  0  0  0  0
  -26.3030  -12.9850   20.1190 N   0  0  0  0  0  0  0  0  0  0  0  0
  -25.9310  -11.7070   20.3830 N   0  0  0  0  0  0  0  0  0  0  0  0
  -23.9190  -10.5120   20.9610 C   0  0  0  0  0  0  0  0  0  0  0  0
  -24.3640   -9.5430   21.8880 C   0  0  0  0  0  3  0  0  0  0  0  0
  -23.6300   -8.3540   22.0890 C   0  0  0  0  0  3  0  0  0  0  0  0
  -22.4370   -8.1260   21.3620 C   0  0  0  0  0  0  0  0  0  0  0  0
  -22.0130   -9.0830   20.4230 C   0  0  0  0  0  3  0  0  0  0  0  0
  -22.7470  -10.2630   20.2200 C   0  0  0  0  0  3  0  0  0  0  0  0
  -21.6730   -6.9910   21.4710 O   0  0  0  0  0  0  0  0  0  0  0  0
  -21.6390   -6.2550   22.6280 C   0  0  0  0  0  0  0  0  0  0  0  0
  -21.2410   -6.8200   23.8610 C   0  0  0  0  0  3  0  0  0  0  0  0
  -21.1530   -6.0110   25.0110 C   0  0  0  0  0  3  0  0  0  0  0  0
  -21.4540   -4.6370   24.9310 C   0  0  0  0  0  0  0  0  0  0  0  0
  -21.8450   -4.0720   23.7030 C   0  0  0  0  0  3  0  0  0  0  0  0
  -21.9340   -4.8790   22.5560 C   0  0  0  0  0  0  0  0  0  0  0  0
  -22.2900   -4.3250   21.3710 F   0  0  0  0  0  0  0  0  0  0  0  0
  -21.3630   -3.8570   26.0330 F   0  0  0  0  0  0  0  0  0  0  0  0
  -22.8410  -13.6190   21.1430 C   0  0  0  0  0  0  0  0  0  0  0  0
  -22.1410  -12.9250   22.0330 N   0  0  0  0  0  0  0  0  0  0  0  0
  -22.3970  -14.6580   20.6540 O   0  0  0  0  0  0  0  0  0  0  0  0
  -22.5150  -12.0850   22.4490 H   0  0  0  0  0  0  0  0  0  0  0  0
  -21.2180  -13.2360   22.3010 H   0  0  0  0  0  0  0  0  0  0  0  0
  -25.4580  -15.2500   20.2220 N   0  0  0  0  0  0  0  0  0  0  0  0
  -24.7060  -15.9140   20.3620 H   0  0  0  0  0  0  0  0  0  0  0  0
  -26.3100  -15.6830   19.8850 H   0  0  0  0  0  0  0  0  0  0  0  0
  -30.4440  -23.4200   18.3860 C   0  0  0  0  0  0  0  0  0  0  0  0
  -28.0890  -23.1180   17.6030 C   0  0  0  0  0  1  0  0  0  0  0  0
  -29.2080  -23.9150   18.1220 N   0  0  0  0  0  0  0  0  0  0  0  0
  -31.4070  -24.1240   18.7140 O   0  0  0  0  0  0  0  0  0  0  0  0
  -28.8930  -25.3070   18.4630 C   0  0  0  0  0  2  0  0  0  0  0  0
  -28.5620  -25.4140   19.9610 C   0  0  0  0  0  2  0  0  0  0  0  0
  -28.4810  -26.7730   20.3600 O   0  0  0  0  0  0  0  0  0  0  0  0
  -24.6130  -31.9020   23.3130 C   0  0  0  0  0  0  0  0  0  0  0  0
  -27.2720  -27.4280   20.3170 C   0  0  0  0  0  0  0  0  0  0  0  0
  -23.4110  -30.4820   21.6800 C   0  0  0  0  0  3  0  0  0  0  0  0
  -24.8680  -28.9150   20.2940 C   0  0  0  0  0  0  0  0  0  0  0  0
  -25.9370  -30.8340   21.4940 C   0  0  0  0  0  2  0  0  0  0  0  0
  -26.0190  -29.4530   20.8790 C   0  0  0  0  0  0  0  0  0  0  0  0
  -27.2190  -28.7150   20.8910 C   0  0  0  0  0  3  0  0  0  0  0  0
  -26.1020  -26.8940   19.7270 C   0  0  0  0  0  3  0  0  0  0  0  0
  -24.9030  -27.6310   19.7190 C   0  0  0  0  0  3  0  0  0  0  0  0
  -23.6260  -29.7780   20.3130 C   0  0  0  0  0  2  0  0  0  0  0  0
  -24.6720  -31.0870   22.2210 N   0  0  0  0  0  0  0  0  0  0  0  0
  -23.5290  -32.1890   23.8380 O   0  0  0  0  0  0  0  0  0  0  0  0
  -22.7490  -29.4770   22.6490 C   0  0  0  0  0  0  0  0  0  0  0  0
  -21.4300  -29.2800   22.4940 N   0  0  0  0  0  0  0  0  0  0  0  0
  -23.4200  -28.8780   23.4940 O   0  0  0  0  0  0  0  0  0  0  0  0
  -20.9540  -29.8150   21.7800 H   0  0  0  0  0  0  0  0  0  0  0  0
  -18.0600  -28.0550   22.9090 C   0  0  0  0  0  0  0  0  0  0  0  0
  -20.6020  -28.3550   23.2650 C   0  0  0  0  0  3  0  0  0  0  0  0
  -20.7430  -26.9090   22.7370 C   0  0  0  0  0  2  0  0  0  0  0  0
  -19.6810  -26.5400   21.6970 C   0  0  0  0  0  2  0  0  0  0  0  0
  -18.2750  -26.6870   22.2870 C   0  0  0  0  0  2  0  0  0  0  0  0
  -19.1520  -28.8450   23.3540 C   0  0  0  0  0  0  0  0  0  0  0  0
  -18.8970  -30.1260   23.8900 C   0  0  0  0  0  3  0  0  0  0  0  0
  -17.5810  -30.6130   23.9950 C   0  0  0  0  0  3  0  0  0  0  0  0
  -16.5020  -29.8210   23.5690 C   0  0  0  0  0  3  0  0  0  0  0  0
  -16.7420  -28.5440   23.0290 C   0  0  0  0  0  3  0  0  0  0  0  0
  -25.8980  -32.5310   23.9350 C   0  0  0  0  0  3  0  0  0  0  0  0
  -25.5950  -33.9320   24.2490 N   0  0  0  0  0  0  0  0  0  0  0  0
  -25.9270  -34.9730   23.4730 C   0  0  0  0  0  0  0  0  0  0  0  0
  -26.5930  -34.8540   22.4410 O   0  0  0  0  0  0  0  0  0  0  0  0
  -25.0080  -34.0970   25.0530 H   0  0  0  0  0  0  0  0  0  0  0  0
  -24.1930  -36.7550   23.1050 C   0  0  0  0  0  1  0  0  0  0  0  0
  -25.4420  -36.3680   23.9130 C   0  0  0  0  0  3  0  0  0  0  0  0
  -27.5810  -37.2680   24.7150 C   0  0  0  0  0  1  0  0  0  0  0  0
  -26.4710  -37.4200   23.7760 N   0  0  0  0  0  0  0  0  0  0  0  0
  -26.0660  -38.3420   23.9130 H   0  0  0  0  0  0  0  0  0  0  0  0
  -26.4090  -31.7650   25.2160 C   0  0  1  0  0  0  0  0  0  0  0  0
  -25.3090  -31.5300   26.2790 C   0  0  0  0  0  1  0  0  0  0  0  0
  -26.9960  -30.3860   24.8290 C   0  0  0  0  0  1  0  0  0  0  0  0
  -27.5580  -32.5620   25.8790 C   0  0  0  0  0  1  0  0  0  0  0  0
  1  2  1  0
  2 10  1  0
  2  4  1  0
  3  1  2  0
  6  9  1  0
  7  5  1  0
  8  6  2  0
  8 10  1  0
  9 11  1  0
  9  5  2  0
 10  7  2  0
 12 20  1  0
 13 18  1  0
 14 15  1  0
 14 13  1  0
 16 15  1  0
 16 25  1  0
 16 17  1  0
 18 12  1  0
 18 17  1  0
 19 12  2  0
 20 21  1  0
 20 11  1  0
 22 23  2  0
 23 42  1  0
 24 23  1  0
 24 27  1  0
 25 26  1  0
 25 22  1  0
 26 24  2  0
 27 28  1  0
 28 29  2  0
 30 33  1  0
 30 29  1  0
 31 30  2  0
 32 31  1  0
 32 27  2  0
 33 34  1  0
 34 35  1  0
 35 36  2  0
 37 36  1  0
 37 41  1  0
 38 37  2  0
 39 34  2  0
 39 38  1  0
 40 39  1  0
 42 43  1  0
 43 46  1  0
 43 45  1  0
 44 42  2  0
 47 48  1  0
 47 22  1  0
 49 47  1  0
 50  1  1  0
 50 53  2  0
 51 52  1  0
 52 50  1  0
 52 54  1  0
 54 55  1  0
 55 56  1  0
 57 68  2  0
 58 56  1  0
 58 63  1  0
 59 67  1  0
 59 69  1  0
 60 66  1  0
 60 62  1  0
 61 67  1  0
 62 63  2  0
 62 61  1  0
 64 58  2  0
 65 64  1  0
 65 60  2  0
 66 59  1  0
 67 57  1  0
 69 71  2  0
 70 69  1  0
 72 70  1  0
 73 82  2  0
 73 78  1  0
 74 70  1  0
 74 78  1  0
 75 74  1  0
 76 77  1  0
 76 75  1  0
 77 73  1  0
 78 79  2  0
 79 80  1  0
 81 80  2  0
 82 81  1  0
 83 57  1  0
 83 84  1  0
 83 93  1  0
 84 87  1  0
 85 89  1  0
 85 84  1  0
 86 85  2  0
 89 88  1  0
 91 89  1  0
 91 92  1  0
 91 90  1  0
 93 96  1  1
 93 94  1  0
 95 93  1  0
M  ISO  4  12 100  20 100  55 101  56 101
M  END
>  <TORSDO>  (83) 
F 21

>  <SCORE>  (83) 
-13.333

>  <name>  (83) 
84

>  <ligand_id>  (83) 
84

>  <original_smiles>  (83) 
[H]c1c([H])c([H])c2c(c1[H])C([H])([H])C([H])([H])C([H])([H])C2([H])N([H])C(=O)C1([H])N(C(=O)C([H])(N([H])C(=O)C([H])(N([H])C([H])([H])[H])C([H])([H])[H])C(C([H])([H])[H])(C([H])([H])[H])C([H])([H])[H])C([H])([H])c2c([H])c(OC([H])([H])C([H])([H])N(C(=O)C(=O)N([H])c3c([H])c([H])c(C([H])([H])N([H])C(=O)N4C([H])([H])C([H])([H])C([H])([H])C([H])(n5nc(-c6c([H])c([H])c(Oc7c([H])c([H])c(F)c([H])c7F)c([H])c6[H])c(C(=O)N([H])[H])c5N([H])[H])C4([H])[H])c([H])c3[H])C([H])([H])[H])c([H])c([H])c2C1([H])[H]

>  <smiles>  (83) 
[H]c1c([H])c([H])c2c(c1[H])C([H])([H])C([H])([H])C([H])([H])C2([H])N([H])C(=O)C1([H])N(C(=O)C([H])(N([H])C(=O)C([H])(N([H])C([H])([H])[H])C([H])([H])[H])C(C([H])([H])[H])(C([H])([H])[H])C([H])([H])[H])C([H])([H])c2c([H])c(OC([H])([H])C([H])([H])N(C(=O)C(=O)N([H])c3c([H])c([H])c(C([H])([H])N([H])C(=O)N4C([H])([H])C([H])([H])C([H])([H])C([H])(n5nc(-c6c([H])c([H])c(Oc7c([H])c([H])c(F)c([H])c7F)c([H])c6[H])c(C(=O)N([H])[H])c5N([H])[H])C4([H])[H])c([H])c3[H])C([H])([H])[H])c([H])c([H])c2C1([H])[H]

$$$$
85:0:0
     RDKit          3D

 90 98  0  0  1  0  0  0  0  0999 V2000
  -27.8170  -21.8590   21.4820 C   0  0  0  0  0  1  0  0  0  0  0  0
  -28.8510  -21.5230   20.5000 N   0  0  0  0  0  0  0  0  0  0  0  0
  -28.7220  -17.7450   21.0840 C   0  0  0  0  0  3  0  0  0  0  0  0
  -30.7610  -18.1740   19.9040 C   0  0  0  0  0  3  0  0  0  0  0  0
  -28.4120  -19.1270   21.0620 C   0  0  0  0  0  3  0  0  0  0  0  0
  -30.4460  -19.5830   19.8980 C   0  0  0  0  0  3  0  0  0  0  0  0
  -29.8940  -17.2100   20.5020 C   0  0  0  0  0  0  0  0  0  0  0  0
  -29.2500  -20.1210   20.4770 C   0  0  0  0  0  0  0  0  0  0  0  0
  -30.8040  -14.7780   20.0020 C   0  0  0  0  0  0  0  0  0  0  0  0
  -30.5680  -12.5550   18.8950 C   0  0  0  0  0  2  0  0  0  0  0  0
  -29.5430  -12.6930   17.7450 C   0  0  0  0  0  2  0  0  0  0  0  0
  -28.0960  -12.5270   18.2590 C   0  0  0  0  0  2  0  0  0  0  0  0
  -27.8160  -13.3560   19.5390 C   0  0  0  0  0  3  0  0  0  0  0  0
  -28.9430  -13.1550   20.5780 C   0  0  0  0  0  2  0  0  0  0  0  0
  -30.2160  -13.5380   19.9390 N   0  0  0  0  0  0  0  0  0  0  0  0
  -31.9070  -14.9980   19.4920 O   0  0  0  0  0  0  0  0  0  0  0  0
  -30.0250  -15.7490   20.5770 N   0  0  0  0  0  0  0  0  0  0  0  0
  -29.2520  -15.3170   21.0570 H   0  0  0  0  0  0  0  0  0  0  0  0
  -25.4770  -13.9400   20.4360 C   0  0  0  0  0  0  0  0  0  0  0  0
  -24.4300  -13.1580   20.8450 C   0  0  0  0  0  0  0  0  0  0  0  0
  -24.8770  -11.8060   20.7260 C   0  0  0  0  0  0  0  0  0  0  0  0
  -26.4970  -13.0630   20.0970 N   0  0  0  0  0  0  0  0  0  0  0  0
  -26.1430  -11.7730   20.3300 N   0  0  0  0  0  0  0  0  0  0  0  0
  -24.1550  -10.5410   20.9120 C   0  0  0  0  0  0  0  0  0  0  0  0
  -24.5700   -9.5860   21.8660 C   0  0  0  0  0  3  0  0  0  0  0  0
  -23.8490   -8.3850   22.0370 C   0  0  0  0  0  3  0  0  0  0  0  0
  -22.6960   -8.1310   21.2560 C   0  0  0  0  0  0  0  0  0  0  0  0
  -22.3000   -9.0750   20.2930 C   0  0  0  0  0  3  0  0  0  0  0  0
  -23.0220  -10.2670   20.1180 C   0  0  0  0  0  3  0  0  0  0  0  0
  -21.9470   -6.9820   21.3370 O   0  0  0  0  0  0  0  0  0  0  0  0
  -21.7830   -6.3130   22.5230 C   0  0  0  0  0  0  0  0  0  0  0  0
  -21.2160   -6.9340   23.6580 C   0  0  0  0  0  3  0  0  0  0  0  0
  -21.0030   -6.1890   24.8340 C   0  0  0  0  0  3  0  0  0  0  0  0
  -21.3430   -4.8240   24.8770 C   0  0  0  0  0  0  0  0  0  0  0  0
  -21.9000   -4.2020   23.7460 C   0  0  0  0  0  3  0  0  0  0  0  0
  -22.1170   -4.9440   22.5710 C   0  0  0  0  0  0  0  0  0  0  0  0
  -22.6350   -4.3350   21.4780 F   0  0  0  0  0  0  0  0  0  0  0  0
  -21.1300   -4.1060   26.0040 F   0  0  0  0  0  0  0  0  0  0  0  0
  -23.0560  -13.6310   21.2290 C   0  0  0  0  0  0  0  0  0  0  0  0
  -22.3810  -12.9020   22.1100 N   0  0  0  0  0  0  0  0  0  0  0  0
  -22.5940  -14.6800   20.7830 O   0  0  0  0  0  0  0  0  0  0  0  0
  -22.7660  -12.0500   22.4920 H   0  0  0  0  0  0  0  0  0  0  0  0
  -21.4620  -13.1980   22.4070 H   0  0  0  0  0  0  0  0  0  0  0  0
  -25.6430  -15.3160   20.3050 N   0  0  0  0  0  0  0  0  0  0  0  0
  -24.8930  -15.9730   20.4890 H   0  0  0  0  0  0  0  0  0  0  0  0
  -26.4660  -15.7550   19.9150 H   0  0  0  0  0  0  0  0  0  0  0  0
  -29.6530  -22.6970   20.0230 C   0  0  0  0  0  2  0  0  0  0  0  0
  -28.8940  -24.0390   19.5470 C   0  0  0  0  0  2  0  0  0  0  0  0
  -28.5450  -25.2350   20.5460 C   0  0  0  0  0  2  0  0  0  0  0  0
  -28.5920  -26.6390   20.0720 O   0  0  0  0  0  0  0  0  0  0  0  0
  -24.7880  -31.8390   23.3650 C   0  0  0  0  0  0  0  0  0  0  0  0
  -27.4430  -27.4370   20.1310 C   0  0  0  0  0  0  0  0  0  0  0  0
  -23.5970  -30.5090   21.6570 C   0  0  0  0  0  3  0  0  0  0  0  0
  -25.0610  -29.0190   20.1780 C   0  0  0  0  0  0  0  0  0  0  0  0
  -26.1320  -30.8500   21.4970 C   0  0  0  0  0  2  0  0  0  0  0  0
  -26.2240  -29.4970   20.7980 C   0  0  0  0  0  0  0  0  0  0  0  0
  -27.4180  -28.7190   20.7590 C   0  0  0  0  0  3  0  0  0  0  0  0
  -26.2560  -26.9960   19.5080 C   0  0  0  0  0  3  0  0  0  0  0  0
  -25.0780  -27.7730   19.5280 C   0  0  0  0  0  3  0  0  0  0  0  0
  -23.8200  -29.8880   20.2520 C   0  0  0  0  0  2  0  0  0  0  0  0
  -24.8570  -31.0810   22.2320 N   0  0  0  0  0  0  0  0  0  0  0  0
  -23.7020  -32.0930   23.9060 O   0  0  0  0  0  0  0  0  0  0  0  0
  -22.9320  -29.4510   22.5700 C   0  0  0  0  0  0  0  0  0  0  0  0
  -21.6070  -29.2760   22.4240 N   0  0  0  0  0  0  0  0  0  0  0  0
  -23.6040  -28.7930   23.3670 O   0  0  0  0  0  0  0  0  0  0  0  0
  -21.1260  -29.8590   21.7520 H   0  0  0  0  0  0  0  0  0  0  0  0
  -18.2290  -28.0480   22.8280 C   0  0  0  0  0  0  0  0  0  0  0  0
  -20.7820  -28.3050   23.1450 C   0  0  0  0  0  3  0  0  0  0  0  0
  -20.8980  -26.8990   22.5110 C   0  0  0  0  0  2  0  0  0  0  0  0
  -19.8110  -26.6160   21.4700 C   0  0  0  0  0  2  0  0  0  0  0  0
  -18.4190  -26.7280   22.1000 C   0  0  0  0  0  2  0  0  0  0  0  0
  -19.3390  -28.7960   23.3030 C   0  0  0  0  0  0  0  0  0  0  0  0
  -19.1070  -30.0330   23.9430 C   0  0  0  0  0  3  0  0  0  0  0  0
  -17.7980  -30.5220   24.1150 C   0  0  0  0  0  3  0  0  0  0  0  0
  -16.7020  -29.7700   23.6570 C   0  0  0  0  0  3  0  0  0  0  0  0
  -16.9180  -28.5350   23.0190 C   0  0  0  0  0  3  0  0  0  0  0  0
  -26.0670  -32.4430   24.0250 C   0  0  0  0  0  3  0  0  0  0  0  0
  -26.5630  -31.6270   25.2810 C   0  0  1  0  0  0  0  0  0  0  0  0
  -25.4530  -31.3550   26.3250 C   0  0  0  0  0  1  0  0  0  0  0  0
  -27.1460  -30.2630   24.8440 C   0  0  0  0  0  1  0  0  0  0  0  0
  -27.7090  -32.3910   25.9840 C   0  0  0  0  0  1  0  0  0  0  0  0
  -25.7600  -33.8310   24.3990 N   0  0  0  0  0  0  0  0  0  0  0  0
  -26.1160  -34.9080   23.6890 C   0  0  0  0  0  0  0  0  0  0  0  0
  -26.8050  -34.8380   22.6660 O   0  0  0  0  0  0  0  0  0  0  0  0
  -25.1460  -33.9580   25.1900 H   0  0  0  0  0  0  0  0  0  0  0  0
  -24.4150  -36.7330   23.3560 C   0  0  0  0  0  1  0  0  0  0  0  0
  -25.6280  -36.2820   24.1870 C   0  0  0  0  0  3  0  0  0  0  0  0
  -27.7440  -37.1110   25.1140 C   0  0  0  0  0  1  0  0  0  0  0  0
  -26.6720  -37.3290   24.1460 N   0  0  0  0  0  0  0  0  0  0  0  0
  -26.2710  -38.2470   24.3180 H   0  0  0  0  0  0  0  0  0  0  0  0
  2  1  1  0
  4  7  1  0
  5  3  1  0
  6  4  2  0
  6  8  1  0
  7 17  1  0
  7  3  2  0
  8  2  1  0
  8  5  2  0
  9 17  1  0
 10 15  1  0
 11 12  1  0
 11 10  1  0
 13 12  1  0
 13 22  1  0
 13 14  1  0
 15  9  1  0
 15 14  1  0
 16  9  2  0
 17 18  1  0
 19 20  2  0
 20 39  1  0
 21 20  1  0
 21 24  1  0
 22 23  1  0
 22 19  1  0
 23 21  2  0
 24 25  1  0
 25 26  2  0
 27 30  1  0
 27 26  1  0
 28 27  2  0
 29 28  1  0
 29 24  2  0
 30 31  1  0
 31 36  2  0
 31 32  1  0
 32 33  2  0
 33 34  1  0
 34 38  1  0
 35 34  2  0
 36 35  1  0
 37 36  1  0
 39 40  1  0
 40 43  1  0
 40 42  1  0
 41 39  2  0
 44 19  1  0
 44 45  1  0
 46 44  1  0
 47  2  1  0
 48 47  1  0
 48 49  1  0
 50 52  1  0
 50 49  1  0
 51 62  2  0
 52 57  1  0
 53 61  1  0
 53 63  1  0
 54 60  1  0
 54 56  1  0
 55 61  1  0
 56 55  1  0
 57 56  2  0
 58 59  1  0
 58 52  2  0
 59 54  2  0
 60 53  1  0
 61 51  1  0
 63 65  2  0
 64 63  1  0
 66 64  1  0
 67 76  2  0
 67 72  1  0
 68 64  1  0
 68 72  1  0
 69 68  1  0
 70 71  1  0
 70 69  1  0
 71 67  1  0
 72 73  2  0
 73 74  1  0
 75 74  2  0
 76 75  1  0
 77 51  1  0
 77 82  1  0
 77 78  1  0
 78 81  1  1
 78 79  1  0
 80 78  1  0
 82 85  1  0
 83 87  1  0
 83 82  1  0
 84 83  2  0
 87 86  1  0
 89 87  1  0
 89 90  1  0
 89 88  1  0
M  ISO  4   9 100  17 100  49 101  50 101
M  END
>  <TORSDO>  (84) 
F 20

>  <SCORE>  (84) 
-12.465

>  <name>  (84) 
85

>  <ligand_id>  (84) 
85

>  <original_smiles>  (84) 
[H]c1c([H])c([H])c2c(c1[H])C([H])([H])C([H])([H])C([H])([H])C2([H])N([H])C(=O)C1([H])N(C(=O)C([H])(N([H])C(=O)C([H])(N([H])C([H])([H])[H])C([H])([H])[H])C(C([H])([H])[H])(C([H])([H])[H])C([H])([H])[H])C([H])([H])c2c([H])c(OC([H])([H])C([H])([H])C([H])([H])N(c3c([H])c([H])c(N([H])C(=O)N4C([H])([H])C([H])([H])C([H])([H])C([H])(n5nc(-c6c([H])c([H])c(Oc7c([H])c([H])c(F)c([H])c7F)c([H])c6[H])c(C(=O)N([H])[H])c5N([H])[H])C4([H])[H])c([H])c3[H])C([H])([H])[H])c([H])c([H])c2C1([H])[H]

>  <smiles>  (84) 
[H]c1c([H])c([H])c2c(c1[H])C([H])([H])C([H])([H])C([H])([H])C2([H])N([H])C(=O)C1([H])N(C(=O)C([H])(N([H])C(=O)C([H])(N([H])C([H])([H])[H])C([H])([H])[H])C(C([H])([H])[H])(C([H])([H])[H])C([H])([H])[H])C([H])([H])c2c([H])c(OC([H])([H])C([H])([H])C([H])([H])N(c3c([H])c([H])c(N([H])C(=O)N4C([H])([H])C([H])([H])C([H])([H])C([H])(n5nc(-c6c([H])c([H])c(Oc7c([H])c([H])c(F)c([H])c7F)c([H])c6[H])c(C(=O)N([H])[H])c5N([H])[H])C4([H])[H])c([H])c3[H])C([H])([H])[H])c([H])c([H])c2C1([H])[H]

$$$$
86:0:0
     RDKit          3D

 92100  0  0  1  0  0  0  0  0999 V2000
  -28.7830  -18.7600   21.2510 C   0  0  0  0  0  3  0  0  0  0  0  0
  -28.8430  -20.1660   21.1120 C   0  0  0  0  0  3  0  0  0  0  0  0
  -30.0080  -18.5040   19.1760 C   0  0  0  0  0  3  0  0  0  0  0  0
  -29.3590  -17.9100   20.2820 C   0  0  0  0  0  0  0  0  0  0  0  0
  -29.4880  -20.7720   20.0080 C   0  0  0  0  0  0  0  0  0  0  0  0
  -30.0710  -19.9110   19.0350 C   0  0  0  0  0  0  0  0  0  0  0  0
  -30.6810  -20.4190   17.9340 F   0  0  0  0  0  0  0  0  0  0  0  0
  -30.7740  -22.7770   19.4190 C   0  0  0  0  0  1  0  0  0  0  0  0
  -29.5360  -22.1920   19.9300 N   0  0  0  0  0  0  0  0  0  0  0  0
  -28.2670  -22.8780   19.6350 C   0  0  0  0  0  2  0  0  0  0  0  0
  -28.1510  -24.3260   20.1980 C   0  0  0  0  0  2  0  0  0  0  0  0
  -28.5010  -25.4670   19.2060 C   0  0  0  0  0  2  0  0  0  0  0  0
  -28.4010  -26.7800   19.7890 O   0  0  0  0  0  0  0  0  0  0  0  0
  -24.5970  -31.7710   23.1540 C   0  0  0  0  0  0  0  0  0  0  0  0
  -27.1950  -27.4570   19.8370 C   0  0  0  0  0  0  0  0  0  0  0  0
  -23.3610  -30.4260   21.4870 C   0  0  0  0  0  3  0  0  0  0  0  0
  -24.7860  -28.9510   19.9710 C   0  0  0  0  0  0  0  0  0  0  0  0
  -25.8800  -30.8040   21.2460 C   0  0  0  0  0  2  0  0  0  0  0  0
  -25.9560  -29.4580   20.5520 C   0  0  0  0  0  0  0  0  0  0  0  0
  -27.1590  -28.7180   20.4820 C   0  0  0  0  0  3  0  0  0  0  0  0
  -25.9990  -26.9600   19.2670 C   0  0  0  0  0  3  0  0  0  0  0  0
  -24.8040  -27.7000   19.3310 C   0  0  0  0  0  3  0  0  0  0  0  0
  -23.5420  -29.8030   20.0770 C   0  0  0  0  0  2  0  0  0  0  0  0
  -24.6330  -31.0140   22.0200 N   0  0  0  0  0  0  0  0  0  0  0  0
  -23.5270  -32.0170   23.7260 O   0  0  0  0  0  0  0  0  0  0  0  0
  -22.7380  -29.3650   22.4210 C   0  0  0  0  0  0  0  0  0  0  0  0
  -21.4120  -29.1780   22.3130 N   0  0  0  0  0  0  0  0  0  0  0  0
  -23.4400  -28.7160   23.1990 O   0  0  0  0  0  0  0  0  0  0  0  0
  -20.9040  -29.7550   21.6580 H   0  0  0  0  0  0  0  0  0  0  0  0
  -18.0550  -27.9480   22.8400 C   0  0  0  0  0  0  0  0  0  0  0  0
  -20.6180  -28.2060   23.0650 C   0  0  0  0  0  3  0  0  0  0  0  0
  -20.7130  -26.8010   22.4280 C   0  0  0  0  0  2  0  0  0  0  0  0
  -19.5890  -26.5140   21.4270 C   0  0  0  0  0  2  0  0  0  0  0  0
  -18.2210  -26.6270   22.1090 C   0  0  0  0  0  2  0  0  0  0  0  0
  -19.1810  -28.6970   23.2750 C   0  0  0  0  0  0  0  0  0  0  0  0
  -18.9720  -29.9350   23.9200 C   0  0  0  0  0  3  0  0  0  0  0  0
  -17.6700  -30.4250   24.1350 C   0  0  0  0  0  3  0  0  0  0  0  0
  -16.5590  -29.6730   23.7170 C   0  0  0  0  0  3  0  0  0  0  0  0
  -16.7530  -28.4360   23.0750 C   0  0  0  0  0  3  0  0  0  0  0  0
  -25.8940  -32.3850   23.7680 C   0  0  0  0  0  3  0  0  0  0  0  0
  -25.5920  -33.7740   24.1390 N   0  0  0  0  0  0  0  0  0  0  0  0
  -25.9140  -34.8440   23.4010 C   0  0  0  0  0  0  0  0  0  0  0  0
  -26.5670  -34.7650   22.3570 O   0  0  0  0  0  0  0  0  0  0  0  0
  -25.0090  -33.9090   24.9520 H   0  0  0  0  0  0  0  0  0  0  0  0
  -24.1860  -36.6490   23.1120 C   0  0  0  0  0  1  0  0  0  0  0  0
  -25.4340  -36.2190   23.8990 C   0  0  0  0  0  3  0  0  0  0  0  0
  -27.5760  -37.0790   24.7400 C   0  0  0  0  0  1  0  0  0  0  0  0
  -26.4680  -37.2730   23.8060 N   0  0  0  0  0  0  0  0  0  0  0  0
  -26.0650  -38.1900   23.9770 H   0  0  0  0  0  0  0  0  0  0  0  0
  -26.4360  -31.5790   25.0130 C   0  0  1  0  0  0  0  0  0  0  0  0
  -25.3610  -31.2990   26.0900 C   0  0  0  0  0  1  0  0  0  0  0  0
  -27.0230  -30.2190   24.5690 C   0  0  0  0  0  1  0  0  0  0  0  0
  -27.5940  -32.3610   25.6780 C   0  0  0  0  0  1  0  0  0  0  0  0
  -29.2010  -16.3810   20.3840 C   0  0  0  0  0  2  0  0  0  0  0  0
  -30.8810  -14.5790   20.1680 C   0  0  0  0  0  0  0  0  0  0  0  0
  -30.5420  -12.3970   19.0490 C   0  0  0  0  0  2  0  0  0  0  0  0
  -29.5690  -12.5410   17.8640 C   0  0  0  0  0  2  0  0  0  0  0  0
  -28.1120  -12.3760   18.3400 C   0  0  0  0  0  2  0  0  0  0  0  0
  -27.7880  -13.2420   19.5840 C   0  0  0  0  0  3  0  0  0  0  0  0
  -28.8800  -13.1000   20.6710 C   0  0  0  0  0  2  0  0  0  0  0  0
  -30.1800  -13.4120   20.0560 N   0  0  0  0  0  0  0  0  0  0  0  0
  -31.9930  -14.7240   19.6510 O   0  0  0  0  0  0  0  0  0  0  0  0
  -31.1910  -16.2940   21.8630 C   0  0  0  0  0  1  0  0  0  0  0  0
  -30.3380  -15.5850   20.9040 N   0  0  0  0  0  0  0  0  0  0  0  0
  -25.4140  -13.8380   20.3650 C   0  0  0  0  0  0  0  0  0  0  0  0
  -24.3620  -13.0590   20.7660 C   0  0  0  0  0  0  0  0  0  0  0  0
  -24.8310  -11.7110   20.7230 C   0  0  0  0  0  0  0  0  0  0  0  0
  -26.4560  -12.9620   20.1070 N   0  0  0  0  0  0  0  0  0  0  0  0
  -26.1120  -11.6780   20.3800 N   0  0  0  0  0  0  0  0  0  0  0  0
  -24.1190  -10.4440   20.9320 C   0  0  0  0  0  0  0  0  0  0  0  0
  -24.5520   -9.5080   21.8970 C   0  0  0  0  0  3  0  0  0  0  0  0
  -23.8410   -8.3040   22.0920 C   0  0  0  0  0  3  0  0  0  0  0  0
  -22.6840   -8.0300   21.3250 C   0  0  0  0  0  0  0  0  0  0  0  0
  -22.2720   -8.9560   20.3510 C   0  0  0  0  0  3  0  0  0  0  0  0
  -22.9830  -10.1510   20.1520 C   0  0  0  0  0  3  0  0  0  0  0  0
  -21.9460   -6.8760   21.4290 O   0  0  0  0  0  0  0  0  0  0  0  0
  -21.8580   -6.1830   22.6090 C   0  0  0  0  0  0  0  0  0  0  0  0
  -21.3250   -6.7670   23.7790 C   0  0  0  0  0  3  0  0  0  0  0  0
  -21.1890   -5.9970   24.9510 C   0  0  0  0  0  3  0  0  0  0  0  0
  -21.5770   -4.6430   24.9550 C   0  0  0  0  0  0  0  0  0  0  0  0
  -22.1030   -4.0590   23.7890 C   0  0  0  0  0  3  0  0  0  0  0  0
  -22.2410   -4.8250   22.6190 C   0  0  0  0  0  0  0  0  0  0  0  0
  -22.7290   -4.2520   21.4930 F   0  0  0  0  0  0  0  0  0  0  0  0
  -21.4390   -3.9010   26.0780 F   0  0  0  0  0  0  0  0  0  0  0  0
  -22.9700  -13.5280   21.0750 C   0  0  0  0  0  0  0  0  0  0  0  0
  -22.2660  -12.8180   21.9490 N   0  0  0  0  0  0  0  0  0  0  0  0
  -22.5170  -14.5570   20.5770 O   0  0  0  0  0  0  0  0  0  0  0  0
  -22.6470  -11.9840   22.3720 H   0  0  0  0  0  0  0  0  0  0  0  0
  -21.3340  -13.1130   22.2010 H   0  0  0  0  0  0  0  0  0  0  0  0
  -25.5600  -15.2090   20.1760 N   0  0  0  0  0  0  0  0  0  0  0  0
  -24.7820  -15.8490   20.2950 H   0  0  0  0  0  0  0  0  0  0  0  0
  -26.3770  -15.6520   19.7790 H   0  0  0  0  0  0  0  0  0  0  0  0
  2  1  1  0
  3  4  1  0
  4 54  1  0
  4  1  2  0
  5  2  2  0
  6  3  2  0
  6  5  1  0
  7  6  1  0
  8  9  1  0
  9  5  1  0
 10  9  1  0
 10 11  1  0
 12 13  1  0
 12 11  1  0
 13 15  1  0
 14 25  2  0
 15 20  1  0
 16 24  1  0
 16 26  1  0
 17 23  1  0
 17 19  1  0
 18 24  1  0
 19 18  1  0
 20 19  2  0
 21 22  1  0
 21 15  2  0
 22 17  2  0
 23 16  1  0
 24 14  1  0
 26 28  2  0
 27 26  1  0
 29 27  1  0
 30 39  2  0
 30 35  1  0
 31 27  1  0
 31 35  1  0
 32 31  1  0
 33 34  1  0
 33 32  1  0
 34 30  1  0
 35 36  2  0
 36 37  1  0
 38 37  2  0
 39 38  1  0
 40 14  1  0
 40 41  1  0
 40 50  1  0
 41 44  1  0
 42 46  1  0
 42 41  1  0
 43 42  2  0
 46 45  1  0
 48 46  1  0
 48 49  1  0
 48 47  1  0
 50 53  1  1
 50 51  1  0
 52 50  1  0
 54 64  1  0
 55 64  1  0
 56 61  1  0
 57 58  1  0
 57 56  1  0
 59 58  1  0
 59 68  1  0
 59 60  1  0
 61 55  1  0
 61 60  1  0
 62 55  2  0
 64 63  1  0
 65 66  2  0
 66 85  1  0
 67 66  1  0
 67 70  1  0
 68 65  1  0
 68 69  1  0
 69 67  2  0
 70 71  1  0
 71 72  2  0
 73 76  1  0
 73 72  1  0
 74 73  2  0
 75 74  1  0
 75 70  2  0
 76 77  1  0
 77 82  2  0
 77 78  1  0
 78 79  2  0
 79 80  1  0
 80 84  1  0
 81 80  2  0
 82 81  1  0
 83 82  1  0
 85 86  1  0
 86 89  1  0
 86 88  1  0
 87 85  2  0
 90 91  1  0
 90 65  1  0
 92 90  1  0
M  ISO  4  12 101  13 101  55 100  64 100
M  END
>  <TORSDO>  (85) 
F 21

>  <SCORE>  (85) 
-12.561

>  <name>  (85) 
86

>  <ligand_id>  (85) 
86

>  <original_smiles>  (85) 
[H]c1c([H])c([H])c2c(c1[H])C([H])([H])C([H])([H])C([H])([H])C2([H])N([H])C(=O)C1([H])N(C(=O)C([H])(N([H])C(=O)C([H])(N([H])C([H])([H])[H])C([H])([H])[H])C(C([H])([H])[H])(C([H])([H])[H])C([H])([H])[H])C([H])([H])c2c([H])c(OC([H])([H])C([H])([H])C([H])([H])N(c3c([H])c([H])c(C([H])([H])N(C(=O)N4C([H])([H])C([H])([H])C([H])([H])C([H])(n5nc(-c6c([H])c([H])c(Oc7c([H])c([H])c(F)c([H])c7F)c([H])c6[H])c(C(=O)N([H])[H])c5N([H])[H])C4([H])[H])C([H])([H])[H])c([H])c3F)C([H])([H])[H])c([H])c([H])c2C1([H])[H]

>  <smiles>  (85) 
[H]c1c([H])c([H])c2c(c1[H])C([H])([H])C([H])([H])C([H])([H])C2([H])N([H])C(=O)C1([H])N(C(=O)C([H])(N([H])C(=O)C([H])(N([H])C([H])([H])[H])C([H])([H])[H])C(C([H])([H])[H])(C([H])([H])[H])C([H])([H])[H])C([H])([H])c2c([H])c(OC([H])([H])C([H])([H])C([H])([H])N(c3c([H])c([H])c(C([H])([H])N(C(=O)N4C([H])([H])C([H])([H])C([H])([H])C([H])(n5nc(-c6c([H])c([H])c(Oc7c([H])c([H])c(F)c([H])c7F)c([H])c6[H])c(C(=O)N([H])[H])c5N([H])[H])C4([H])[H])C([H])([H])[H])c([H])c3F)C([H])([H])[H])c([H])c([H])c2C1([H])[H]

$$$$
87:0:0
     RDKit          3D

 91 99  0  0  1  0  0  0  0  0999 V2000
  -28.1370  -22.3490   22.5800 C   0  0  0  0  0  1  0  0  0  0  0  0
  -29.0540  -22.2430   21.4440 N   0  0  0  0  0  0  0  0  0  0  0  0
  -30.6790  -18.9020   21.9470 C   0  0  0  0  0  3  0  0  0  0  0  0
  -29.8280  -18.9990   19.6790 C   0  0  0  0  0  3  0  0  0  0  0  0
  -30.1830  -20.2010   22.1870 C   0  0  0  0  0  3  0  0  0  0  0  0
  -29.3550  -20.3090   19.9130 C   0  0  0  0  0  3  0  0  0  0  0  0
  -30.4990  -18.2780   20.6950 C   0  0  0  0  0  0  0  0  0  0  0  0
  -29.5190  -20.9340   21.1740 C   0  0  0  0  0  0  0  0  0  0  0  0
  -31.1680  -16.9330   20.3840 C   0  0  0  0  0  2  0  0  0  0  0  0
  -30.8420  -14.5460   19.9580 C   0  0  0  0  0  0  0  0  0  0  0  0
  -30.3640  -12.3860   18.8480 C   0  0  0  0  0  2  0  0  0  0  0  0
  -29.3640  -12.5690   17.6880 C   0  0  0  0  0  2  0  0  0  0  0  0
  -27.9250  -12.3920   18.2000 C   0  0  0  0  0  2  0  0  0  0  0  0
  -27.6530  -13.2570   19.4570 C   0  0  0  0  0  3  0  0  0  0  0  0
  -28.7720  -13.0880   20.5060 C   0  0  0  0  0  2  0  0  0  0  0  0
  -30.0690  -13.4120   19.8750 N   0  0  0  0  0  0  0  0  0  0  0  0
  -31.8670  -14.6330   19.2680 O   0  0  0  0  0  0  0  0  0  0  0  0
  -29.8750  -15.5920   22.0130 C   0  0  0  0  0  1  0  0  0  0  0  0
  -30.4420  -15.6540   20.6600 N   0  0  0  0  0  0  0  0  0  0  0  0
  -25.3240  -13.8590   20.3650 C   0  0  0  0  0  0  0  0  0  0  0  0
  -24.2840  -13.0830   20.7990 C   0  0  0  0  0  0  0  0  0  0  0  0
  -24.7340  -11.7310   20.7070 C   0  0  0  0  0  0  0  0  0  0  0  0
  -26.3400  -12.9770   20.0310 N   0  0  0  0  0  0  0  0  0  0  0  0
  -25.9950  -11.6910   20.2940 N   0  0  0  0  0  0  0  0  0  0  0  0
  -24.0200  -10.4680   20.9300 C   0  0  0  0  0  0  0  0  0  0  0  0
  -24.4760   -9.5190   21.8700 C   0  0  0  0  0  3  0  0  0  0  0  0
  -23.7610   -8.3220   22.0820 C   0  0  0  0  0  3  0  0  0  0  0  0
  -22.5760   -8.0650   21.3530 C   0  0  0  0  0  0  0  0  0  0  0  0
  -22.1380   -9.0050   20.4030 C   0  0  0  0  0  3  0  0  0  0  0  0
  -22.8530  -10.1940   20.1910 C   0  0  0  0  0  3  0  0  0  0  0  0
  -21.8320   -6.9150   21.4700 O   0  0  0  0  0  0  0  0  0  0  0  0
  -21.7440   -6.2320   22.6560 C   0  0  0  0  0  0  0  0  0  0  0  0
  -21.2720   -6.8450   23.8380 C   0  0  0  0  0  3  0  0  0  0  0  0
  -21.1330   -6.0870   25.0160 C   0  0  0  0  0  3  0  0  0  0  0  0
  -21.4570   -4.7180   25.0170 C   0  0  0  0  0  0  0  0  0  0  0  0
  -21.9230   -4.1040   23.8400 C   0  0  0  0  0  3  0  0  0  0  0  0
  -22.0640   -4.8600   22.6640 C   0  0  0  0  0  0  0  0  0  0  0  0
  -22.4940   -4.2590   21.5270 F   0  0  0  0  0  0  0  0  0  0  0  0
  -21.3160   -3.9870   26.1470 F   0  0  0  0  0  0  0  0  0  0  0  0
  -22.9170  -13.5640   21.1920 C   0  0  0  0  0  0  0  0  0  0  0  0
  -22.2650  -12.8700   22.1190 N   0  0  0  0  0  0  0  0  0  0  0  0
  -22.4370  -14.5890   20.7100 O   0  0  0  0  0  0  0  0  0  0  0  0
  -22.6650  -12.0410   22.5300 H   0  0  0  0  0  0  0  0  0  0  0  0
  -21.3520  -13.1760   22.4220 H   0  0  0  0  0  0  0  0  0  0  0  0
  -25.4800  -15.2320   20.2090 N   0  0  0  0  0  0  0  0  0  0  0  0
  -24.7280  -15.8830   20.4090 H   0  0  0  0  0  0  0  0  0  0  0  0
  -26.3240  -15.6890   19.8850 H   0  0  0  0  0  0  0  0  0  0  0  0
  -28.9170  -23.1870   20.3270 C   0  0  0  0  0  2  0  0  0  0  0  0
  -28.7330  -24.6650   20.7560 C   0  0  0  0  0  2  0  0  0  0  0  0
  -28.6730  -25.6020   19.5350 C   0  0  0  0  0  2  0  0  0  0  0  0
  -28.5220  -26.9680   19.9240 O   0  0  0  0  0  0  0  0  0  0  0  0
  -24.6430  -31.9220   23.1970 C   0  0  0  0  0  0  0  0  0  0  0  0
  -27.2880  -27.5890   19.9660 C   0  0  0  0  0  0  0  0  0  0  0  0
  -23.4100  -30.5260   21.5620 C   0  0  0  0  0  3  0  0  0  0  0  0
  -24.8530  -29.0380   20.0760 C   0  0  0  0  0  0  0  0  0  0  0  0
  -25.9230  -30.9390   21.3000 C   0  0  0  0  0  2  0  0  0  0  0  0
  -26.0160  -29.5800   20.6330 C   0  0  0  0  0  0  0  0  0  0  0  0
  -27.2310  -28.8660   20.5710 C   0  0  0  0  0  3  0  0  0  0  0  0
  -26.0990  -27.0480   19.4210 C   0  0  0  0  0  3  0  0  0  0  0  0
  -24.8890  -27.7710   19.4700 C   0  0  0  0  0  3  0  0  0  0  0  0
  -23.5950  -29.8710   20.1650 C   0  0  0  0  0  2  0  0  0  0  0  0
  -24.6770  -31.1470   22.0760 N   0  0  0  0  0  0  0  0  0  0  0  0
  -23.5730  -32.1610   23.7750 O   0  0  0  0  0  0  0  0  0  0  0  0
  -22.8050  -29.4770   22.5230 C   0  0  0  0  0  0  0  0  0  0  0  0
  -21.4880  -29.2440   22.4020 N   0  0  0  0  0  0  0  0  0  0  0  0
  -23.5150  -28.8730   23.3320 O   0  0  0  0  0  0  0  0  0  0  0  0
  -20.9740  -29.7750   21.7130 H   0  0  0  0  0  0  0  0  0  0  0  0
  -18.1710  -27.8950   22.8690 C   0  0  0  0  0  0  0  0  0  0  0  0
  -20.7090  -28.2750   23.1730 C   0  0  0  0  0  3  0  0  0  0  0  0
  -20.8890  -26.8480   22.6060 C   0  0  0  0  0  2  0  0  0  0  0  0
  -19.8190  -26.4650   21.5810 C   0  0  0  0  0  2  0  0  0  0  0  0
  -18.4240  -26.5500   22.2070 C   0  0  0  0  0  2  0  0  0  0  0  0
  -19.2450  -28.7120   23.3060 C   0  0  0  0  0  0  0  0  0  0  0  0
  -18.9600  -29.9710   23.8790 C   0  0  0  0  0  3  0  0  0  0  0  0
  -17.6310  -30.4110   24.0260 C   0  0  0  0  0  3  0  0  0  0  0  0
  -16.5700  -29.5920   23.6050 C   0  0  0  0  0  3  0  0  0  0  0  0
  -16.8400  -28.3350   23.0330 C   0  0  0  0  0  3  0  0  0  0  0  0
  -25.9380  -32.5580   23.7930 C   0  0  0  0  0  3  0  0  0  0  0  0
  -25.6320  -33.9540   24.1340 N   0  0  0  0  0  0  0  0  0  0  0  0
  -25.9370  -35.0090   23.3650 C   0  0  0  0  0  0  0  0  0  0  0  0
  -26.5810  -34.9120   22.3170 O   0  0  0  0  0  0  0  0  0  0  0  0
  -25.0620  -34.1050   24.9540 H   0  0  0  0  0  0  0  0  0  0  0  0
  -24.1780  -36.7740   23.0510 C   0  0  0  0  0  1  0  0  0  0  0  0
  -25.4440  -36.3910   23.8340 C   0  0  0  0  0  3  0  0  0  0  0  0
  -27.5860  -37.2930   24.6210 C   0  0  0  0  0  1  0  0  0  0  0  0
  -26.4630  -37.4550   23.7010 N   0  0  0  0  0  0  0  0  0  0  0  0
  -26.0510  -38.3700   23.8610 H   0  0  0  0  0  0  0  0  0  0  0  0
  -26.4920  -31.7840   25.0540 C   0  0  1  0  0  0  0  0  0  0  0  0
  -25.4220  -31.5090   26.1340 C   0  0  0  0  0  1  0  0  0  0  0  0
  -27.0960  -30.4250   24.6360 C   0  0  0  0  0  1  0  0  0  0  0  0
  -27.6370  -32.5920   25.7100 C   0  0  0  0  0  1  0  0  0  0  0  0
  2  1  1  0
  3  5  1  0
  4  6  2  0
  4  7  1  0
  6  8  1  0
  7  3  2  0
  8  2  1  0
  8  5  2  0
  9 19  1  0
  9  7  1  0
 10 19  1  0
 11 16  1  0
 12 13  1  0
 12 11  1  0
 14 13  1  0
 14 23  1  0
 14 15  1  0
 16 10  1  0
 16 15  1  0
 17 10  2  0
 19 18  1  0
 20 21  2  0
 21 40  1  0
 22 21  1  0
 22 25  1  0
 23 24  1  0
 23 20  1  0
 24 22  2  0
 25 26  1  0
 26 27  2  0
 28 31  1  0
 28 27  1  0
 29 28  2  0
 30 29  1  0
 30 25  2  0
 31 32  1  0
 32 37  2  0
 32 33  1  0
 33 34  2  0
 34 35  1  0
 35 39  1  0
 36 35  2  0
 37 36  1  0
 38 37  1  0
 40 41  1  0
 41 44  1  0
 41 43  1  0
 42 40  2  0
 45 20  1  0
 45 46  1  0
 47 45  1  0
 48 49  1  0
 48  2  1  0
 50 51  1  0
 50 49  1  0
 51 53  1  0
 52 63  2  0
 53 58  1  0
 54 62  1  0
 54 64  1  0
 55 61  1  0
 55 57  1  0
 56 62  1  0
 57 56  1  0
 58 57  2  0
 59 60  1  0
 59 53  2  0
 60 55  2  0
 61 54  1  0
 62 52  1  0
 64 66  2  0
 65 64  1  0
 67 65  1  0
 68 77  2  0
 68 73  1  0
 69 65  1  0
 69 73  1  0
 70 69  1  0
 71 72  1  0
 71 70  1  0
 72 68  1  0
 73 74  2  0
 74 75  1  0
 76 75  2  0
 77 76  1  0
 78 52  1  0
 78 79  1  0
 78 88  1  0
 79 82  1  0
 80 84  1  0
 80 79  1  0
 81 80  2  0
 84 83  1  0
 86 84  1  0
 86 87  1  0
 86 85  1  0
 88 91  1  1
 88 89  1  0
 90 88  1  0
M  ISO  4  10 100  19 100  50 101  51 101
M  END
>  <TORSDO>  (86) 
F 21

>  <SCORE>  (86) 
-11.894

>  <name>  (86) 
87

>  <ligand_id>  (86) 
87

>  <original_smiles>  (86) 
[H]c1c([H])c([H])c2c(c1[H])C([H])([H])C([H])([H])C([H])([H])C2([H])N([H])C(=O)C1([H])N(C(=O)C([H])(N([H])C(=O)C([H])(N([H])C([H])([H])[H])C([H])([H])[H])C(C([H])([H])[H])(C([H])([H])[H])C([H])([H])[H])C([H])([H])c2c([H])c(OC([H])([H])C([H])([H])C([H])([H])N(c3c([H])c([H])c(C([H])([H])N(C(=O)N4C([H])([H])C([H])([H])C([H])([H])C([H])(n5nc(-c6c([H])c([H])c(Oc7c([H])c([H])c(F)c([H])c7F)c([H])c6[H])c(C(=O)N([H])[H])c5N([H])[H])C4([H])[H])C([H])([H])[H])c([H])c3[H])C([H])([H])[H])c([H])c([H])c2C1([H])[H]

>  <smiles>  (86) 
[H]c1c([H])c([H])c2c(c1[H])C([H])([H])C([H])([H])C([H])([H])C2([H])N([H])C(=O)C1([H])N(C(=O)C([H])(N([H])C(=O)C([H])(N([H])C([H])([H])[H])C([H])([H])[H])C(C([H])([H])[H])(C([H])([H])[H])C([H])([H])[H])C([H])([H])c2c([H])c(OC([H])([H])C([H])([H])C([H])([H])N(c3c([H])c([H])c(C([H])([H])N(C(=O)N4C([H])([H])C([H])([H])C([H])([H])C([H])(n5nc(-c6c([H])c([H])c(Oc7c([H])c([H])c(F)c([H])c7F)c([H])c6[H])c(C(=O)N([H])[H])c5N([H])[H])C4([H])[H])C([H])([H])[H])c([H])c3[H])C([H])([H])[H])c([H])c([H])c2C1([H])[H]

$$$$
88:0:0
     RDKit          3D

 90 98  0  0  1  0  0  0  0  0999 V2000
  -28.9100  -17.6550   20.9850 C   0  0  0  0  0  3  0  0  0  0  0  0
  -28.6100  -19.0360   21.1920 C   0  0  0  0  0  3  0  0  0  0  0  0
  -30.4420  -19.6810   19.7880 C   0  0  0  0  0  3  0  0  0  0  0  0
  -29.9810  -17.2420   20.1520 C   0  0  0  0  0  0  0  0  0  0  0  0
  -29.3320  -20.0930   20.5720 C   0  0  0  0  0  0  0  0  0  0  0  0
  -30.7650  -18.3020   19.5950 C   0  0  0  0  0  0  0  0  0  0  0  0
  -31.8120  -18.0000   18.7900 F   0  0  0  0  0  0  0  0  0  0  0  0
  -30.8380  -14.8080   20.1110 C   0  0  0  0  0  0  0  0  0  0  0  0
  -30.6620  -12.4840   19.2390 C   0  0  0  0  0  2  0  0  0  0  0  0
  -29.7100  -12.4500   18.0220 C   0  0  0  0  0  2  0  0  0  0  0  0
  -28.2320  -12.3620   18.4640 C   0  0  0  0  0  2  0  0  0  0  0  0
  -27.8640  -13.2810   19.6640 C   0  0  0  0  0  3  0  0  0  0  0  0
  -28.9430  -13.2540   20.7650 C   0  0  0  0  0  2  0  0  0  0  0  0
  -30.2210  -13.5800   20.1230 N   0  0  0  0  0  0  0  0  0  0  0  0
  -32.0650  -14.8780   19.9900 O   0  0  0  0  0  0  0  0  0  0  0  0
  -29.8860  -15.8370   18.1690 C   0  0  0  0  0  1  0  0  0  0  0  0
  -30.0660  -15.8630   19.6370 N   0  0  0  0  0  0  0  0  0  0  0  0
  -25.4890  -13.8780   20.4240 C   0  0  0  0  0  0  0  0  0  0  0  0
  -24.4260  -13.1030   20.7990 C   0  0  0  0  0  0  0  0  0  0  0  0
  -24.8900  -11.7520   20.7630 C   0  0  0  0  0  0  0  0  0  0  0  0
  -26.5310  -12.9970   20.1780 N   0  0  0  0  0  0  0  0  0  0  0  0
  -26.1780  -11.7150   20.4460 N   0  0  0  0  0  0  0  0  0  0  0  0
  -24.1690  -10.4900   20.9530 C   0  0  0  0  0  0  0  0  0  0  0  0
  -24.5880   -9.5390   21.9090 C   0  0  0  0  0  3  0  0  0  0  0  0
  -23.8660   -8.3390   22.0890 C   0  0  0  0  0  3  0  0  0  0  0  0
  -22.7130   -8.0820   21.3110 C   0  0  0  0  0  0  0  0  0  0  0  0
  -22.3150   -9.0220   20.3420 C   0  0  0  0  0  3  0  0  0  0  0  0
  -23.0380  -10.2120   20.1610 C   0  0  0  0  0  3  0  0  0  0  0  0
  -21.9640   -6.9340   21.4000 O   0  0  0  0  0  0  0  0  0  0  0  0
  -21.8610   -6.2330   22.5740 C   0  0  0  0  0  0  0  0  0  0  0  0
  -21.3140   -6.8100   23.7410 C   0  0  0  0  0  3  0  0  0  0  0  0
  -21.1610   -6.0320   24.9060 C   0  0  0  0  0  3  0  0  0  0  0  0
  -21.5430   -4.6760   24.9040 C   0  0  0  0  0  0  0  0  0  0  0  0
  -22.0810   -4.0990   23.7410 C   0  0  0  0  0  3  0  0  0  0  0  0
  -22.2370   -4.8740   22.5780 C   0  0  0  0  0  0  0  0  0  0  0  0
  -22.7350   -4.3060   21.4540 F   0  0  0  0  0  0  0  0  0  0  0  0
  -21.3890   -3.9270   26.0200 F   0  0  0  0  0  0  0  0  0  0  0  0
  -23.0310  -13.5780   21.0810 C   0  0  0  0  0  0  0  0  0  0  0  0
  -22.3110  -12.8810   21.9540 N   0  0  0  0  0  0  0  0  0  0  0  0
  -22.5870  -14.6020   20.5640 O   0  0  0  0  0  0  0  0  0  0  0  0
  -22.6820  -12.0510   22.3940 H   0  0  0  0  0  0  0  0  0  0  0  0
  -21.3740  -13.1800   22.1840 H   0  0  0  0  0  0  0  0  0  0  0  0
  -25.6520  -15.2490   20.2500 N   0  0  0  0  0  0  0  0  0  0  0  0
  -24.8910  -15.9070   20.3820 H   0  0  0  0  0  0  0  0  0  0  0  0
  -26.5060  -15.6880   19.9300 H   0  0  0  0  0  0  0  0  0  0  0  0
  -28.9230  -21.4290   20.7980 O   0  0  0  0  0  0  0  0  0  0  0  0
  -29.2430  -22.5490   19.9020 C   0  0  0  0  0  3  0  0  0  0  0  0
  -28.7460  -23.9920   20.3950 C   0  0  0  0  0  3  0  0  0  0  0  0
  -28.8290  -25.2230   19.3840 C   0  0  0  0  0  2  0  0  0  0  0  0
  -28.6800  -26.6130   19.8760 O   0  0  0  0  0  0  0  0  0  0  0  0
  -24.6420  -31.6510   23.0420 C   0  0  0  0  0  0  0  0  0  0  0  0
  -27.4890  -27.3530   19.8260 C   0  0  0  0  0  0  0  0  0  0  0  0
  -23.5160  -30.2760   21.3260 C   0  0  0  0  0  3  0  0  0  0  0  0
  -25.0470  -28.8500   19.8520 C   0  0  0  0  0  0  0  0  0  0  0  0
  -26.0390  -30.7150   21.1860 C   0  0  0  0  0  2  0  0  0  0  0  0
  -26.1840  -29.3700   20.4820 C   0  0  0  0  0  0  0  0  0  0  0  0
  -27.4030  -28.6330   20.4580 C   0  0  0  0  0  3  0  0  0  0  0  0
  -26.3220  -26.8740   19.1870 C   0  0  0  0  0  3  0  0  0  0  0  0
  -25.1180  -27.6090   19.1980 C   0  0  0  0  0  3  0  0  0  0  0  0
  -23.7730  -29.6670   19.9210 C   0  0  0  0  0  2  0  0  0  0  0  0
  -24.7500  -30.8960   21.9100 N   0  0  0  0  0  0  0  0  0  0  0  0
  -23.5430  -31.8570   23.5760 O   0  0  0  0  0  0  0  0  0  0  0  0
  -22.8890  -29.1920   22.2340 C   0  0  0  0  0  0  0  0  0  0  0  0
  -21.5650  -28.9910   22.1070 N   0  0  0  0  0  0  0  0  0  0  0  0
  -23.5900  -28.5370   23.0090 O   0  0  0  0  0  0  0  0  0  0  0  0
  -21.0590  -29.5750   21.4570 H   0  0  0  0  0  0  0  0  0  0  0  0
  -18.2100  -27.7460   22.6220 C   0  0  0  0  0  0  0  0  0  0  0  0
  -20.7750  -27.9940   22.8280 C   0  0  0  0  0  3  0  0  0  0  0  0
  -20.8600  -26.6110   22.1400 C   0  0  0  0  0  2  0  0  0  0  0  0
  -19.7270  -26.3640   21.1400 C   0  0  0  0  0  2  0  0  0  0  0  0
  -18.3670  -26.4530   21.8370 C   0  0  0  0  0  2  0  0  0  0  0  0
  -19.3410  -28.4760   23.0730 C   0  0  0  0  0  0  0  0  0  0  0  0
  -19.1390  -29.6890   23.7680 C   0  0  0  0  0  3  0  0  0  0  0  0
  -17.8390  -30.1700   24.0140 C   0  0  0  0  0  3  0  0  0  0  0  0
  -16.7230  -29.4350   23.5780 C   0  0  0  0  0  3  0  0  0  0  0  0
  -16.9100  -28.2230   22.8880 C   0  0  0  0  0  3  0  0  0  0  0  0
  -25.8900  -32.3070   23.7100 C   0  0  0  0  0  3  0  0  0  0  0  0
  -26.4060  -31.5190   24.9750 C   0  0  1  0  0  0  0  0  0  0  0  0
  -25.3010  -31.2220   26.0170 C   0  0  0  0  0  1  0  0  0  0  0  0
  -27.0360  -30.1690   24.5590 C   0  0  0  0  0  1  0  0  0  0  0  0
  -27.5200  -32.3290   25.6790 C   0  0  0  0  0  1  0  0  0  0  0  0
  -25.5290  -33.6850   24.0710 N   0  0  0  0  0  0  0  0  0  0  0  0
  -25.8510  -34.7700   23.3550 C   0  0  0  0  0  0  0  0  0  0  0  0
  -26.5540  -34.7180   22.3420 O   0  0  0  0  0  0  0  0  0  0  0  0
  -24.9080  -33.7970   24.8590 H   0  0  0  0  0  0  0  0  0  0  0  0
  -24.0970  -36.5340   22.9840 C   0  0  0  0  0  1  0  0  0  0  0  0
  -25.3090  -36.1290   23.8390 C   0  0  0  0  0  3  0  0  0  0  0  0
  -27.3700  -37.0400   24.8130 C   0  0  0  0  0  1  0  0  0  0  0  0
  -26.3180  -37.2100   23.8130 N   0  0  0  0  0  0  0  0  0  0  0  0
  -25.8810  -38.1150   23.9630 H   0  0  0  0  0  0  0  0  0  0  0  0
  1  2  1  0
  3  5  1  0
  4  1  2  0
  5 46  1  0
  5  2  2  0
  6  3  2  0
  6  4  1  0
  7  6  1  0
  8 14  1  0
  9 14  1  0
 10 11  1  0
 10  9  1  0
 12 11  1  0
 12 21  1  0
 12 13  1  0
 14 13  1  0
 15  8  2  0
 16 17  1  0
 17  8  1  0
 17  4  1  0
 18 19  2  0
 19 38  1  0
 20 19  1  0
 20 23  1  0
 21 18  1  0
 21 22  1  0
 22 20  2  0
 23 24  1  0
 24 25  2  0
 26 29  1  0
 26 25  1  0
 27 26  2  0
 28 27  1  0
 28 23  2  0
 29 30  1  0
 30 35  2  0
 30 31  1  0
 31 32  2  0
 33 32  1  0
 33 37  1  0
 34 33  2  0
 35 34  1  0
 36 35  1  0
 38 39  1  0
 39 42  1  0
 39 41  1  0
 40 38  2  0
 43 44  1  0
 43 18  1  0
 45 43  1  0
 47 48  2  0
 47 46  1  0
 49 50  1  0
 49 48  1  0
 51 62  2  0
 52 50  1  0
 52 57  1  0
 53 61  1  0
 53 63  1  0
 54 60  1  0
 54 56  1  0
 55 61  1  0
 56 55  1  0
 57 56  2  0
 58 59  1  0
 58 52  2  0
 59 54  2  0
 60 53  1  0
 61 51  1  0
 63 65  2  0
 64 63  1  0
 66 64  1  0
 67 76  2  0
 67 72  1  0
 68 64  1  0
 68 72  1  0
 69 68  1  0
 70 71  1  0
 70 69  1  0
 71 67  1  0
 72 73  2  0
 73 74  1  0
 75 74  2  0
 76 75  1  0
 77 51  1  0
 77 82  1  0
 77 78  1  0
 78 81  1  1
 78 79  1  0
 80 78  1  0
 82 85  1  0
 83 87  1  0
 83 82  1  0
 84 83  2  0
 87 86  1  0
 89 87  1  0
 89 90  1  0
 89 88  1  0
M  ISO  4   8 100  17 100  49 101  50 101
M  END
>  <TORSDO>  (87) 
F 20

>  <SCORE>  (87) 
-11.861

>  <name>  (87) 
88

>  <ligand_id>  (87) 
88

>  <original_smiles>  (87) 
[H]c1c([H])c([H])c2c(c1[H])C([H])([H])C([H])([H])C([H])([H])C2([H])N([H])C(=O)C1([H])N(C(=O)C([H])(N([H])C(=O)C([H])(N([H])C([H])([H])[H])C([H])([H])[H])C(C([H])([H])[H])(C([H])([H])[H])C([H])([H])[H])C([H])([H])c2c([H])c(OC([H])([H])C([H])([H])C([H])([H])Oc3c([H])c([H])c(N(C(=O)N4C([H])([H])C([H])([H])C([H])([H])C([H])(n5nc(-c6c([H])c([H])c(Oc7c([H])c([H])c(F)c([H])c7F)c([H])c6[H])c(C(=O)N([H])[H])c5N([H])[H])C4([H])[H])C([H])([H])[H])c(F)c3[H])c([H])c([H])c2C1([H])[H]

>  <smiles>  (87) 
[H]c1c([H])c([H])c2c(c1[H])C([H])([H])C([H])([H])C([H])([H])C2([H])N([H])C(=O)C1([H])N(C(=O)C([H])(N([H])C(=O)C([H])(N([H])C([H])([H])[H])C([H])([H])[H])C(C([H])([H])[H])(C([H])([H])[H])C([H])([H])[H])C([H])([H])c2c([H])c(OC([H])([H])C([H])([H])C([H])([H])Oc3c([H])c([H])c(N(C(=O)N4C([H])([H])C([H])([H])C([H])([H])C([H])(n5nc(-c6c([H])c([H])c(Oc7c([H])c([H])c(F)c([H])c7F)c([H])c6[H])c(C(=O)N([H])[H])c5N([H])[H])C4([H])[H])C([H])([H])[H])c(F)c3[H])c([H])c([H])c2C1([H])[H]

$$$$
89:0:0
     RDKit          3D

 98106  0  0  1  0  0  0  0  0999 V2000
  -29.5170  -21.8600   17.8670 C   0  0  0  0  0  2  0  0  0  0  0  0
  -29.9520  -20.5090   17.5170 N   0  0  0  0  0  0  0  0  0  0  0  0
  -29.9450  -20.2740   16.5280 H   0  0  0  0  0  0  0  0  0  0  0  0
  -29.4300  -17.0540   18.7570 C   0  0  0  0  0  3  0  0  0  0  0  0
  -29.6060  -18.1550   17.8990 C   0  0  0  0  0  3  0  0  0  0  0  0
  -29.7860  -19.6290   19.8250 C   0  0  0  0  0  3  0  0  0  0  0  0
  -29.4510  -17.2240   20.1580 C   0  0  0  0  0  0  0  0  0  0  0  0
  -29.7810  -19.4520   18.4220 C   0  0  0  0  0  0  0  0  0  0  0  0
  -29.6280  -18.5230   20.6870 C   0  0  0  0  0  0  0  0  0  0  0  0
  -29.6470  -18.7180   22.0270 F   0  0  0  0  0  0  0  0  0  0  0  0
  -29.2530  -16.0240   21.0820 C   0  0  0  0  0  2  0  0  0  0  0  0
  -30.7340  -14.2730   20.1390 C   0  0  0  0  0  0  0  0  0  0  0  0
  -30.2640  -12.2050   18.8730 C   0  0  0  0  0  2  0  0  0  0  0  0
  -29.2520  -12.4560   17.7400 C   0  0  0  0  0  2  0  0  0  0  0  0
  -27.8090  -12.3160   18.2600 C   0  0  0  0  0  2  0  0  0  0  0  0
  -27.5680  -13.1320   19.5550 C   0  0  0  0  0  3  0  0  0  0  0  0
  -28.6820  -12.8520   20.5910 C   0  0  0  0  0  2  0  0  0  0  0  0
  -29.9800  -13.1520   19.9650 N   0  0  0  0  0  0  0  0  0  0  0  0
  -31.7630  -14.4810   19.4850 O   0  0  0  0  0  0  0  0  0  0  0  0
  -31.4740  -15.6240   22.0090 C   0  0  0  0  0  1  0  0  0  0  0  0
  -30.3990  -15.0960   21.1630 N   0  0  0  0  0  0  0  0  0  0  0  0
  -25.2210  -13.7820   20.3910 C   0  0  0  0  0  0  0  0  0  0  0  0
  -24.1650  -13.0250   20.8250 C   0  0  0  0  0  0  0  0  0  0  0  0
  -24.6080  -11.6680   20.7750 C   0  0  0  0  0  0  0  0  0  0  0  0
  -26.2400  -12.8840   20.1080 N   0  0  0  0  0  0  0  0  0  0  0  0
  -25.8770  -11.6090   20.3950 N   0  0  0  0  0  0  0  0  0  0  0  0
  -23.8790  -10.4140   21.0110 C   0  0  0  0  0  0  0  0  0  0  0  0
  -24.3320   -9.4640   21.9520 C   0  0  0  0  0  3  0  0  0  0  0  0
  -23.6060   -8.2740   22.1740 C   0  0  0  0  0  3  0  0  0  0  0  0
  -22.4120   -8.0280   21.4540 C   0  0  0  0  0  0  0  0  0  0  0  0
  -21.9780   -8.9680   20.5020 C   0  0  0  0  0  3  0  0  0  0  0  0
  -22.7060  -10.1480   20.2790 C   0  0  0  0  0  3  0  0  0  0  0  0
  -21.6540   -6.8890   21.5850 O   0  0  0  0  0  0  0  0  0  0  0  0
  -21.6110   -6.1850   22.7620 C   0  0  0  0  0  0  0  0  0  0  0  0
  -21.2010   -6.7840   23.9730 C   0  0  0  0  0  3  0  0  0  0  0  0
  -21.1040   -6.0060   25.1440 C   0  0  0  0  0  3  0  0  0  0  0  0
  -21.4060   -4.6320   25.1050 C   0  0  0  0  0  0  0  0  0  0  0  0
  -21.8100   -4.0340   23.8990 C   0  0  0  0  0  3  0  0  0  0  0  0
  -21.9090   -4.8080   22.7290 C   0  0  0  0  0  0  0  0  0  0  0  0
  -22.2780   -4.2230   21.5650 F   0  0  0  0  0  0  0  0  0  0  0  0
  -21.3060   -3.8830   26.2280 F   0  0  0  0  0  0  0  0  0  0  0  0
  -22.7910  -13.5200   21.1740 C   0  0  0  0  0  0  0  0  0  0  0  0
  -22.1090  -12.8390   22.0880 N   0  0  0  0  0  0  0  0  0  0  0  0
  -22.3350  -14.5450   20.6720 O   0  0  0  0  0  0  0  0  0  0  0  0
  -22.4930  -12.0080   22.5140 H   0  0  0  0  0  0  0  0  0  0  0  0
  -21.1900  -13.1530   22.3650 H   0  0  0  0  0  0  0  0  0  0  0  0
  -25.3910  -15.1490   20.1940 N   0  0  0  0  0  0  0  0  0  0  0  0
  -24.6330  -15.8080   20.3350 H   0  0  0  0  0  0  0  0  0  0  0  0
  -26.2100  -15.5730   19.7800 H   0  0  0  0  0  0  0  0  0  0  0  0
  -31.1280  -23.0160   16.2390 C   0  0  0  0  0  1  0  0  0  0  0  0
  -29.6570  -22.8370   16.6690 C   0  0  0  0  0  3  0  0  0  0  0  0
  -27.5200  -24.0870   16.7380 C   0  0  0  0  0  1  0  0  0  0  0  0
  -28.9960  -24.1580   16.8920 N   0  0  1  0  0  4  0  0  0  0  0  0
  -29.3110  -24.7260   16.1210 H   0  0  0  0  0  0  0  0  0  0  0  0
  -29.4130  -24.8720   18.1310 C   0  0  0  0  0  2  0  0  0  0  0  0
  -29.2790  -26.4060   18.0170 C   0  0  0  0  0  2  0  0  0  0  0  0
  -29.5700  -27.1250   19.3450 C   0  0  0  0  0  2  0  0  0  0  0  0
  -28.6090  -26.7460   20.3250 O   0  0  0  0  0  0  0  0  0  0  0  0
  -24.6860  -31.9000   23.2550 C   0  0  0  0  0  0  0  0  0  0  0  0
  -27.4420  -27.4650   20.2990 C   0  0  0  0  0  0  0  0  0  0  0  0
  -23.5240  -30.4520   21.6180 C   0  0  0  0  0  3  0  0  0  0  0  0
  -25.0210  -28.9030   20.2530 C   0  0  0  0  0  0  0  0  0  0  0  0
  -26.0430  -30.8460   21.4520 C   0  0  0  0  0  2  0  0  0  0  0  0
  -26.1580  -29.4660   20.8460 C   0  0  0  0  0  0  0  0  0  0  0  0
  -27.3730  -28.7500   20.8720 C   0  0  0  0  0  3  0  0  0  0  0  0
  -26.2900  -26.8960   19.7220 C   0  0  0  0  0  3  0  0  0  0  0  0
  -25.0790  -27.6140   19.6900 C   0  0  0  0  0  3  0  0  0  0  0  0
  -23.7640  -29.7420   20.2580 C   0  0  0  0  0  2  0  0  0  0  0  0
  -24.7680  -31.0810   22.1670 N   0  0  0  0  0  0  0  0  0  0  0  0
  -23.5940  -32.1700   23.7720 O   0  0  0  0  0  0  0  0  0  0  0  0
  -22.8670  -29.4440   22.5880 C   0  0  0  0  0  0  0  0  0  0  0  0
  -21.5470  -29.2470   22.4390 N   0  0  0  0  0  0  0  0  0  0  0  0
  -23.5420  -28.8400   23.4250 O   0  0  0  0  0  0  0  0  0  0  0  0
  -21.0650  -29.7860   21.7330 H   0  0  0  0  0  0  0  0  0  0  0  0
  -18.1750  -28.0360   22.8950 C   0  0  0  0  0  0  0  0  0  0  0  0
  -20.7240  -28.3160   23.2100 C   0  0  0  0  0  3  0  0  0  0  0  0
  -20.8490  -26.8760   22.6610 C   0  0  0  0  0  2  0  0  0  0  0  0
  -19.7680  -26.5280   21.6330 C   0  0  0  0  0  2  0  0  0  0  0  0
  -18.3740  -26.6750   22.2480 C   0  0  0  0  0  2  0  0  0  0  0  0
  -19.2790  -28.8130   23.3320 C   0  0  0  0  0  0  0  0  0  0  0  0
  -19.0420  -30.0870   23.8930 C   0  0  0  0  0  3  0  0  0  0  0  0
  -17.7310  -30.5820   24.0240 C   0  0  0  0  0  3  0  0  0  0  0  0
  -16.6400  -29.8010   23.6060 C   0  0  0  0  0  3  0  0  0  0  0  0
  -16.8630  -28.5310   23.0460 C   0  0  0  0  0  3  0  0  0  0  0  0
  -25.9560  -32.5540   23.8850 C   0  0  0  0  0  3  0  0  0  0  0  0
  -25.6230  -33.9480   24.2080 N   0  0  0  0  0  0  0  0  0  0  0  0
  -25.9440  -35.0010   23.4450 C   0  0  0  0  0  0  0  0  0  0  0  0
  -26.6240  -34.9040   22.4190 O   0  0  0  0  0  0  0  0  0  0  0  0
  -25.0220  -34.0960   25.0050 H   0  0  0  0  0  0  0  0  0  0  0  0
  -24.1860  -36.7580   23.0670 C   0  0  0  0  0  1  0  0  0  0  0  0
  -25.4280  -36.3820   23.8900 C   0  0  0  0  0  3  0  0  0  0  0  0
  -27.5410  -37.3080   24.7300 C   0  0  0  0  0  1  0  0  0  0  0  0
  -26.4420  -37.4530   23.7800 N   0  0  0  0  0  0  0  0  0  0  0  0
  -26.0190  -38.3660   23.9220 H   0  0  0  0  0  0  0  0  0  0  0  0
  -26.4780  -31.7930   25.1650 C   0  0  1  0  0  0  0  0  0  0  0  0
  -25.3810  -31.5330   26.2250 C   0  0  0  0  0  1  0  0  0  0  0  0
  -27.0910  -30.4270   24.7740 C   0  0  0  0  0  1  0  0  0  0  0  0
  -27.6090  -32.6080   25.8350 C   0  0  0  0  0  1  0  0  0  0  0  0
  2  1  1  0
  2  8  1  0
  3  2  1  0
  4  7  1  0
  5  8  1  0
  5  4  2  0
  6  9  1  0
  7  9  2  0
  7 11  1  0
  8  6  2  0
  9 10  1  0
 11 21  1  0
 12 21  1  0
 13 18  1  0
 14 15  1  0
 14 13  1  0
 16 15  1  0
 16 25  1  0
 16 17  1  0
 18 12  1  0
 18 17  1  0
 19 12  2  0
 21 20  1  0
 22 23  2  0
 23 42  1  0
 24 23  1  0
 24 27  1  0
 25 22  1  0
 25 26  1  0
 26 24  2  0
 27 28  1  0
 28 29  2  0
 30 33  1  0
 30 29  1  0
 31 30  2  0
 32 31  1  0
 32 27  2  0
 33 34  1  0
 34 35  1  0
 35 36  2  0
 37 36  1  0
 37 41  1  0
 38 37  2  0
 39 34  2  0
 39 38  1  0
 40 39  1  0
 42 43  1  0
 43 46  1  0
 43 45  1  0
 44 42  2  0
 47 48  1  0
 47 22  1  0
 49 47  1  0
 51 50  1  0
 51 53  1  0
 51  1  1  0
 52 53  1  0
 53 55  1  0
 53 54  1  6
 56 55  1  0
 56 57  1  0
 57 58  1  0
 59 70  2  0
 60 58  1  0
 60 65  1  0
 61 69  1  0
 61 71  1  0
 62 68  1  0
 62 64  1  0
 63 69  1  0
 64 65  2  0
 64 63  1  0
 66 60  2  0
 67 66  1  0
 67 62  2  0
 68 61  1  0
 69 59  1  0
 71 73  2  0
 72 71  1  0
 74 72  1  0
 75 84  2  0
 75 80  1  0
 76 72  1  0
 76 80  1  0
 77 76  1  0
 78 79  1  0
 78 77  1  0
 79 75  1  0
 80 81  2  0
 81 82  1  0
 83 82  2  0
 84 83  1  0
 85 59  1  0
 85 86  1  0
 85 95  1  0
 86 89  1  0
 87 91  1  0
 87 86  1  0
 88 87  2  0
 91 90  1  0
 93 91  1  0
 93 94  1  0
 93 92  1  0
 95 98  1  1
 95 96  1  0
 97 95  1  0
M  ISO  4  12 100  21 100  57 101  58 101
M  END
>  <TORSDO>  (88) 
F 24

>  <SCORE>  (88) 
-11.394

>  <name>  (88) 
89

>  <ligand_id>  (88) 
89

>  <original_smiles>  (88) 
[H]c1c([H])c([H])c2c(c1[H])C([H])([H])C([H])([H])C([H])([H])C2([H])N([H])C(=O)C1([H])N(C(=O)C([H])(N([H])C(=O)C([H])(N([H])C([H])([H])[H])C([H])([H])[H])C(C([H])([H])[H])(C([H])([H])[H])C([H])([H])[H])C([H])([H])c2c([H])c(OC([H])([H])C([H])([H])C([H])([H])[N+]([H])(C([H])([H])[H])C([H])(C([H])([H])[H])C([H])([H])N([H])c3c([H])c([H])c(C([H])([H])N(C(=O)N4C([H])([H])C([H])([H])C([H])([H])C([H])(n5nc(-c6c([H])c([H])c(Oc7c([H])c([H])c(F)c([H])c7F)c([H])c6[H])c(C(=O)N([H])[H])c5N([H])[H])C4([H])[H])C([H])([H])[H])c(F)c3[H])c([H])c([H])c2C1([H])[H]

>  <smiles>  (88) 
[H]c1c([H])c([H])c2c(c1[H])C([H])([H])C([H])([H])C([H])([H])C2([H])N([H])C(=O)C1([H])N(C(=O)C([H])(N([H])C(=O)C([H])(N([H])C([H])([H])[H])C([H])([H])[H])C(C([H])([H])[H])(C([H])([H])[H])C([H])([H])[H])C([H])([H])c2c([H])c(OC([H])([H])C([H])([H])C([H])([H])[N+]([H])(C([H])([H])[H])C([H])(C([H])([H])[H])C([H])([H])N([H])c3c([H])c([H])c(C([H])([H])N(C(=O)N4C([H])([H])C([H])([H])C([H])([H])C([H])(n5nc(-c6c([H])c([H])c(Oc7c([H])c([H])c(F)c([H])c7F)c([H])c6[H])c(C(=O)N([H])[H])c5N([H])[H])C4([H])[H])C([H])([H])[H])c(F)c3[H])c([H])c([H])c2C1([H])[H]

$$$$
90:0:0
     RDKit          3D

 93102  0  0  1  0  0  0  0  0999 V2000
  -28.9840  -19.9550   20.6020 C   0  0  0  0  0  3  0  0  0  0  0  0
  -31.1320  -20.2520   21.6700 C   0  0  0  0  0  3  0  0  0  0  0  0
  -28.7350  -21.3480   20.7210 C   0  0  0  0  0  3  0  0  0  0  0  0
  -30.8760  -21.6310   21.8070 C   0  0  0  0  0  3  0  0  0  0  0  0
  -30.1760  -19.3660   21.1080 C   0  0  0  0  0  0  0  0  0  0  0  0
  -29.6640  -22.1980   21.3670 C   0  0  0  0  0  0  0  0  0  0  0  0
  -29.7410  -16.9140   20.5740 C   0  0  0  0  0  0  0  0  0  0  0  0
  -31.3070  -15.8830   22.0960 C   0  0  0  0  0  3  0  0  0  0  0  0
  -31.4990  -17.3970   21.9990 C   0  0  0  0  0  3  0  0  0  0  0  0
  -30.1400  -15.5440   21.1640 C   0  0  0  0  0  3  0  0  0  0  0  0
  -30.4310  -17.9330   21.1510 N   0  0  0  0  0  0  0  0  0  0  0  0
  -28.8590  -17.0220   19.7160 O   0  0  0  0  0  0  0  0  0  0  0  0
  -30.5240  -14.5390   20.0330 C   0  0  0  0  0  0  0  0  0  0  0  0
  -30.1310  -12.4530   18.7440 C   0  0  0  0  0  2  0  0  0  0  0  0
  -29.0810  -12.6710   17.6380 C   0  0  0  0  0  2  0  0  0  0  0  0
  -27.6510  -12.4910   18.1870 C   0  0  0  0  0  2  0  0  0  0  0  0
  -27.4190  -13.2800   19.5040 C   0  0  0  0  0  3  0  0  0  0  0  0
  -28.5630  -13.0000   20.5000 C   0  0  0  0  0  2  0  0  0  0  0  0
  -29.8300  -13.3780   19.8520 N   0  0  0  0  0  0  0  0  0  0  0  0
  -31.5110  -14.8040   19.3350 O   0  0  0  0  0  0  0  0  0  0  0  0
  -25.0860  -13.8490   20.4300 C   0  0  0  0  0  0  0  0  0  0  0  0
  -24.0550  -13.0570   20.8620 C   0  0  0  0  0  0  0  0  0  0  0  0
  -24.5180  -11.7100   20.7480 C   0  0  0  0  0  0  0  0  0  0  0  0
  -26.1110  -12.9820   20.0830 N   0  0  0  0  0  0  0  0  0  0  0  0
  -25.7770  -11.6890   20.3280 N   0  0  0  0  0  0  0  0  0  0  0  0
  -23.8170  -10.4370   20.9580 C   0  0  0  0  0  0  0  0  0  0  0  0
  -24.3030   -9.4670   21.8620 C   0  0  0  0  0  3  0  0  0  0  0  0
  -23.6020   -8.2580   22.0610 C   0  0  0  0  0  3  0  0  0  0  0  0
  -22.4010   -8.0100   21.3550 C   0  0  0  0  0  0  0  0  0  0  0  0
  -21.9330   -8.9690   20.4400 C   0  0  0  0  0  3  0  0  0  0  0  0
  -22.6350  -10.1700   20.2400 C   0  0  0  0  0  3  0  0  0  0  0  0
  -21.6670   -6.8540   21.4650 O   0  0  0  0  0  0  0  0  0  0  0  0
  -21.6540   -6.1170   22.6220 C   0  0  0  0  0  0  0  0  0  0  0  0
  -21.2250   -6.6650   23.8500 C   0  0  0  0  0  3  0  0  0  0  0  0
  -21.1620   -5.8530   25.0000 C   0  0  0  0  0  3  0  0  0  0  0  0
  -21.5140   -4.4930   24.9220 C   0  0  0  0  0  0  0  0  0  0  0  0
  -21.9350   -3.9430   23.6980 C   0  0  0  0  0  3  0  0  0  0  0  0
  -22.0010   -4.7530   22.5500 C   0  0  0  0  0  0  0  0  0  0  0  0
  -22.3860   -4.2130   21.3690 F   0  0  0  0  0  0  0  0  0  0  0  0
  -21.4460   -3.7090   26.0240 F   0  0  0  0  0  0  0  0  0  0  0  0
  -22.6850  -13.5140   21.2700 C   0  0  0  0  0  0  0  0  0  0  0  0
  -22.0400  -12.7860   22.1750 N   0  0  0  0  0  0  0  0  0  0  0  0
  -22.1960  -14.5520   20.8230 O   0  0  0  0  0  0  0  0  0  0  0  0
  -22.4480  -11.9460   22.5580 H   0  0  0  0  0  0  0  0  0  0  0  0
  -21.1220  -13.0720   22.4890 H   0  0  0  0  0  0  0  0  0  0  0  0
  -25.2330  -15.2250   20.2860 N   0  0  0  0  0  0  0  0  0  0  0  0
  -24.4830  -15.8770   20.4870 H   0  0  0  0  0  0  0  0  0  0  0  0
  -26.0660  -15.6770   19.9270 H   0  0  0  0  0  0  0  0  0  0  0  0
  -29.2150  -23.7660   23.1190 C   0  0  0  0  0  1  0  0  0  0  0  0
  -29.4000  -23.5510   21.6840 N   0  0  0  0  0  0  0  0  0  0  0  0
  -28.6990  -24.4450   20.7460 C   0  0  0  0  0  2  0  0  0  0  0  0
  -28.8310  -25.9480   21.1440 C   0  0  0  0  0  2  0  0  0  0  0  0
  -28.5850  -26.8590   20.0660 O   0  0  0  0  0  0  0  0  0  0  0  0
  -24.5790  -31.8840   23.2090 C   0  0  0  0  0  0  0  0  0  0  0  0
  -27.4020  -27.5580   20.1250 C   0  0  0  0  0  0  0  0  0  0  0  0
  -23.4410  -30.4680   21.5300 C   0  0  0  0  0  3  0  0  0  0  0  0
  -24.9640  -28.9860   20.1160 C   0  0  0  0  0  0  0  0  0  0  0  0
  -25.9570  -30.9020   21.3780 C   0  0  0  0  0  2  0  0  0  0  0  0
  -26.0950  -29.5390   20.7320 C   0  0  0  0  0  0  0  0  0  0  0  0
  -27.3190  -28.8300   20.7380 C   0  0  0  0  0  3  0  0  0  0  0  0
  -26.2590  -27.0160   19.5080 C   0  0  0  0  0  3  0  0  0  0  0  0
  -25.0390  -27.7210   19.5040 C   0  0  0  0  0  3  0  0  0  0  0  0
  -23.6940  -29.8080   20.1480 C   0  0  0  0  0  2  0  0  0  0  0  0
  -24.6760  -31.1010   22.0980 N   0  0  0  0  0  0  0  0  0  0  0  0
  -23.4820  -32.1170   23.7360 O   0  0  0  0  0  0  0  0  0  0  0  0
  -22.8050  -29.4180   22.4690 C   0  0  0  0  0  0  0  0  0  0  0  0
  -21.4890  -29.2010   22.3190 N   0  0  0  0  0  0  0  0  0  0  0  0
  -23.4940  -28.8020   23.2870 O   0  0  0  0  0  0  0  0  0  0  0  0
  -20.9940  -29.7510   21.6320 H   0  0  0  0  0  0  0  0  0  0  0  0
  -18.1430  -27.9010   22.7410 C   0  0  0  0  0  0  0  0  0  0  0  0
  -20.6870  -28.2290   23.0640 C   0  0  0  0  0  3  0  0  0  0  0  0
  -20.8430  -26.8090   22.4740 C   0  0  0  0  0  2  0  0  0  0  0  0
  -19.7700  -26.4670   21.4360 C   0  0  0  0  0  2  0  0  0  0  0  0
  -18.3720  -26.5650   22.0550 C   0  0  0  0  0  2  0  0  0  0  0  0
  -19.2310  -28.6900   23.2010 C   0  0  0  0  0  0  0  0  0  0  0  0
  -18.9650  -29.9400   23.8010 C   0  0  0  0  0  3  0  0  0  0  0  0
  -17.6430  -30.4020   23.9460 C   0  0  0  0  0  3  0  0  0  0  0  0
  -16.5700  -29.6110   23.5040 C   0  0  0  0  0  3  0  0  0  0  0  0
  -16.8200  -28.3610   22.9070 C   0  0  0  0  0  3  0  0  0  0  0  0
  -25.8370  -32.5440   23.8570 C   0  0  0  0  0  3  0  0  0  0  0  0
  -26.3430  -31.7860   25.1440 C   0  0  1  0  0  0  0  0  0  0  0  0
  -25.2330  -31.5210   26.1880 C   0  0  0  0  0  1  0  0  0  0  0  0
  -26.9670  -30.4220   24.7630 C   0  0  0  0  0  1  0  0  0  0  0  0
  -27.4600  -32.6060   25.8310 C   0  0  0  0  0  1  0  0  0  0  0  0
  -25.4910  -33.9360   24.1750 N   0  0  0  0  0  0  0  0  0  0  0  0
  -25.8090  -34.9910   23.4130 C   0  0  0  0  0  0  0  0  0  0  0  0
  -26.4940  -34.8970   22.3910 O   0  0  0  0  0  0  0  0  0  0  0  0
  -24.8830  -34.0810   24.9680 H   0  0  0  0  0  0  0  0  0  0  0  0
  -24.0360  -36.7320   23.0340 C   0  0  0  0  0  1  0  0  0  0  0  0
  -25.2830  -36.3710   23.8550 C   0  0  0  0  0  3  0  0  0  0  0  0
  -27.3870  -37.3210   24.6900 C   0  0  0  0  0  1  0  0  0  0  0  0
  -26.2870  -37.4490   23.7360 N   0  0  0  0  0  0  0  0  0  0  0  0
  -25.8570  -38.3600   23.8700 H   0  0  0  0  0  0  0  0  0  0  0  0
  1  3  2  0
  1  5  1  0
  2  4  1  0
  3  6  1  0
  5 11  1  0
  5  2  2  0
  6 50  1  0
  6  4  2  0
  7 11  1  0
  7 10  1  0
  9  8  2  0
 10 13  1  0
 10  8  1  0
 11  9  1  0
 12  7  2  0
 14 19  1  0
 15 16  1  0
 15 14  1  0
 17 16  1  0
 17 24  1  0
 17 18  1  0
 19 13  1  0
 19 18  1  0
 20 13  2  0
 21 22  2  0
 22 41  1  0
 23 22  1  0
 23 26  1  0
 24 25  1  0
 24 21  1  0
 25 23  2  0
 26 27  1  0
 27 28  2  0
 29 32  1  0
 29 28  1  0
 30 29  2  0
 31 30  1  0
 31 26  2  0
 32 33  1  0
 33 34  1  0
 34 35  2  0
 36 35  1  0
 36 40  1  0
 37 36  2  0
 38 33  2  0
 38 37  1  0
 39 38  1  0
 41 42  1  0
 42 45  1  0
 42 44  1  0
 43 41  2  0
 46 21  1  0
 46 47  1  0
 48 46  1  0
 50 49  1  0
 51 52  1  0
 51 50  1  0
 53 55  1  0
 53 52  1  0
 54 65  2  0
 55 60  1  0
 56 64  1  0
 56 66  1  0
 57 63  1  0
 57 59  1  0
 58 64  1  0
 59 60  2  0
 59 58  1  0
 61 55  2  0
 62 61  1  0
 62 57  2  0
 63 56  1  0
 64 54  1  0
 66 68  2  0
 67 66  1  0
 69 67  1  0
 70 79  2  0
 70 75  1  0
 71 67  1  0
 71 75  1  0
 72 71  1  0
 73 74  1  0
 73 72  1  0
 74 70  1  0
 75 76  2  0
 76 77  1  0
 78 77  2  0
 79 78  1  0
 80 54  1  0
 80 85  1  0
 80 81  1  0
 81 84  1  1
 81 82  1  0
 83 81  1  0
 85 88  1  0
 86 90  1  0
 86 85  1  0
 87 86  2  0
 90 89  1  0
 92 90  1  0
 92 93  1  0
 92 91  1  0
M  ISO  4  10 100  13 100  52 101  53 101
M  END
>  <TORSDO>  (89) 
F 20

>  <SCORE>  (89) 
-13.313

>  <name>  (89) 
90

>  <ligand_id>  (89) 
90

>  <original_smiles>  (89) 
[H]c1c([H])c([H])c2c(c1[H])C([H])([H])C([H])([H])C([H])([H])C2([H])N([H])C(=O)C1([H])N(C(=O)C([H])(N([H])C(=O)C([H])(N([H])C([H])([H])[H])C([H])([H])[H])C(C([H])([H])[H])(C([H])([H])[H])C([H])([H])[H])C([H])([H])c2c([H])c(OC([H])([H])C([H])([H])N(c3c([H])c([H])c(N4C(=O)C([H])(C(=O)N5C([H])([H])C([H])([H])C([H])([H])C([H])(n6nc(-c7c([H])c([H])c(Oc8c([H])c([H])c(F)c([H])c8F)c([H])c7[H])c(C(=O)N([H])[H])c6N([H])[H])C5([H])[H])C([H])([H])C4([H])[H])c([H])c3[H])C([H])([H])[H])c([H])c([H])c2C1([H])[H]

>  <smiles>  (89) 
[H]c1c([H])c([H])c2c(c1[H])C([H])([H])C([H])([H])C([H])([H])C2([H])N([H])C(=O)C1([H])N(C(=O)C([H])(N([H])C(=O)C([H])(N([H])C([H])([H])[H])C([H])([H])[H])C(C([H])([H])[H])(C([H])([H])[H])C([H])([H])[H])C([H])([H])c2c([H])c(OC([H])([H])C([H])([H])N(c3c([H])c([H])c(N4C(=O)C([H])(C(=O)N5C([H])([H])C([H])([H])C([H])([H])C([H])(n6nc(-c7c([H])c([H])c(Oc8c([H])c([H])c(F)c([H])c8F)c([H])c7[H])c(C(=O)N([H])[H])c6N([H])[H])C5([H])[H])C([H])([H])C4([H])[H])c([H])c3[H])C([H])([H])[H])c([H])c([H])c2C1([H])[H]

$$$$
91:0:0
     RDKit          3D

 92100  0  0  1  0  0  0  0  0999 V2000
  -31.7750  -18.5490   20.3740 C   0  0  0  0  0  3  0  0  0  0  0  0
  -31.5680  -19.9280   20.1460 C   0  0  0  0  0  3  0  0  0  0  0  0
  -30.5930  -20.1350   22.3510 C   0  0  0  0  0  3  0  0  0  0  0  0
  -31.4710  -17.9500   21.6170 C   0  0  0  0  0  0  0  0  0  0  0  0
  -30.8450  -18.7600   22.6060 C   0  0  0  0  0  0  0  0  0  0  0  0
  -31.0060  -20.7520   21.1490 C   0  0  0  0  0  0  0  0  0  0  0  0
  -30.4980  -18.2420   23.9920 C   0  0  0  0  0  1  0  0  0  0  0  0
  -32.3480  -22.7320   20.8390 C   0  0  0  0  0  1  0  0  0  0  0  0
  -31.0110  -22.1670   21.0360 N   0  0  0  0  0  0  0  0  0  0  0  0
  -29.8330  -22.8790   20.4950 C   0  0  0  0  0  2  0  0  0  0  0  0
  -29.8720  -24.4350   20.7110 C   0  0  0  0  0  2  0  0  0  0  0  0
  -28.6390  -25.2450   20.2080 C   0  0  0  0  0  2  0  0  0  0  0  0
  -28.7300  -26.6750   20.4520 O   0  0  0  0  0  0  0  0  0  0  0  0
  -24.8290  -31.8780   23.3760 C   0  0  0  0  0  0  0  0  0  0  0  0
  -27.5630  -27.4260   20.3690 C   0  0  0  0  0  0  0  0  0  0  0  0
  -23.6640  -30.4610   21.7200 C   0  0  0  0  0  3  0  0  0  0  0  0
  -25.1560  -28.9370   20.3200 C   0  0  0  0  0  0  0  0  0  0  0  0
  -26.1910  -30.8420   21.5600 C   0  0  0  0  0  2  0  0  0  0  0  0
  -26.3010  -29.4680   20.9260 C   0  0  0  0  0  0  0  0  0  0  0  0
  -27.5060  -28.7220   20.9450 C   0  0  0  0  0  3  0  0  0  0  0  0
  -26.3970  -26.9300   19.7360 C   0  0  0  0  0  3  0  0  0  0  0  0
  -25.2020  -27.6710   19.7170 C   0  0  0  0  0  3  0  0  0  0  0  0
  -23.9000  -29.7810   20.3470 C   0  0  0  0  0  2  0  0  0  0  0  0
  -24.9120  -31.0760   22.2780 N   0  0  0  0  0  0  0  0  0  0  0  0
  -23.7360  -32.1400   23.9000 O   0  0  0  0  0  0  0  0  0  0  0  0
  -23.0110  -29.4350   22.6750 C   0  0  0  0  0  0  0  0  0  0  0  0
  -21.6950  -29.2170   22.5100 N   0  0  0  0  0  0  0  0  0  0  0  0
  -23.6840  -28.8360   23.5180 O   0  0  0  0  0  0  0  0  0  0  0  0
  -21.2120  -29.7480   21.8000 H   0  0  0  0  0  0  0  0  0  0  0  0
  -18.3410  -27.9310   22.9070 C   0  0  0  0  0  0  0  0  0  0  0  0
  -20.8780  -28.2720   23.2700 C   0  0  0  0  0  3  0  0  0  0  0  0
  -21.0460  -26.8340   22.7280 C   0  0  0  0  0  2  0  0  0  0  0  0
  -19.9930  -26.4590   21.6810 C   0  0  0  0  0  2  0  0  0  0  0  0
  -18.5840  -26.5730   22.2680 C   0  0  0  0  0  2  0  0  0  0  0  0
  -19.4190  -28.7340   23.3630 C   0  0  0  0  0  0  0  0  0  0  0  0
  -19.1410  -30.0030   23.9200 C   0  0  0  0  0  3  0  0  0  0  0  0
  -17.8160  -30.4650   24.0280 C   0  0  0  0  0  3  0  0  0  0  0  0
  -16.7520  -29.6600   23.5870 C   0  0  0  0  0  3  0  0  0  0  0  0
  -17.0150  -28.3950   23.0310 C   0  0  0  0  0  3  0  0  0  0  0  0
  -26.1000  -32.5250   24.0110 C   0  0  0  0  0  3  0  0  0  0  0  0
  -25.7810  -33.9280   24.3030 N   0  0  0  0  0  0  0  0  0  0  0  0
  -26.0920  -34.9600   23.5060 C   0  0  0  0  0  0  0  0  0  0  0  0
  -26.7500  -34.8310   22.4690 O   0  0  0  0  0  0  0  0  0  0  0  0
  -25.1930  -34.1020   25.1040 H   0  0  0  0  0  0  0  0  0  0  0  0
  -24.3190  -36.7080   23.1430 C   0  0  0  0  0  1  0  0  0  0  0  0
  -25.5940  -36.3570   23.9260 C   0  0  0  0  0  3  0  0  0  0  0  0
  -27.7350  -37.3170   24.6520 C   0  0  0  0  0  1  0  0  0  0  0  0
  -26.6040  -37.4210   23.7350 N   0  0  0  0  0  0  0  0  0  0  0  0
  -26.1830  -38.3390   23.8500 H   0  0  0  0  0  0  0  0  0  0  0  0
  -26.5900  -31.7820   25.3150 C   0  0  1  0  0  0  0  0  0  0  0  0
  -25.4670  -31.5580   26.3560 C   0  0  0  0  0  1  0  0  0  0  0  0
  -27.1960  -30.4020   24.9670 C   0  0  0  0  0  1  0  0  0  0  0  0
  -27.7130  -32.6000   25.9950 C   0  0  0  0  0  1  0  0  0  0  0  0
  -31.9850  -16.5170   21.8780 C   0  0  0  0  0  2  0  0  0  0  0  0
  -31.5820  -14.4500   20.5040 C   0  0  0  0  0  0  0  0  0  0  0  0
  -31.1500  -12.2570   19.4110 C   0  0  0  0  0  2  0  0  0  0  0  0
  -30.2290  -12.4010   18.1820 C   0  0  0  0  0  2  0  0  0  0  0  0
  -28.7520  -12.3280   18.5990 C   0  0  0  0  0  2  0  0  0  0  0  0
  -28.4290  -13.2810   19.7820 C   0  0  0  0  0  3  0  0  0  0  0  0
  -29.4640  -13.1150   20.9220 C   0  0  0  0  0  2  0  0  0  0  0  0
  -30.8130  -13.3260   20.3720 N   0  0  0  0  0  0  0  0  0  0  0  0
  -32.6320  -14.6010   19.8770 O   0  0  0  0  0  0  0  0  0  0  0  0
  -31.1700  -15.3830   21.3870 N   0  0  0  0  0  0  0  0  0  0  0  0
  -30.3010  -15.2100   21.8690 H   0  0  0  0  0  0  0  0  0  0  0  0
  -26.0780  -14.0350   20.5240 C   0  0  0  0  0  0  0  0  0  0  0  0
  -24.9550  -13.3290   20.8680 C   0  0  0  0  0  0  0  0  0  0  0  0
  -25.3160  -11.9500   20.7790 C   0  0  0  0  0  0  0  0  0  0  0  0
  -27.0580  -13.0890   20.2570 N   0  0  0  0  0  0  0  0  0  0  0  0
  -26.5980  -11.8290   20.4670 N   0  0  0  0  0  0  0  0  0  0  0  0
  -24.4970  -10.7380   20.9190 C   0  0  0  0  0  0  0  0  0  0  0  0
  -24.8350   -9.7260   21.8450 C   0  0  0  0  0  3  0  0  0  0  0  0
  -24.0270   -8.5770   21.9810 C   0  0  0  0  0  3  0  0  0  0  0  0
  -22.8660   -8.4300   21.1870 C   0  0  0  0  0  0  0  0  0  0  0  0
  -22.5420   -9.4300   20.2550 C   0  0  0  0  0  3  0  0  0  0  0  0
  -23.3490  -10.5710   20.1170 C   0  0  0  0  0  3  0  0  0  0  0  0
  -22.0350   -7.3360   21.2290 O   0  0  0  0  0  0  0  0  0  0  0  0
  -21.8550   -6.6150   22.3800 C   0  0  0  0  0  0  0  0  0  0  0  0
  -21.3510   -7.2060   23.5600 C   0  0  0  0  0  3  0  0  0  0  0  0
  -21.1140   -6.4110   24.6990 C   0  0  0  0  0  3  0  0  0  0  0  0
  -21.3700   -5.0270   24.6590 C   0  0  0  0  0  0  0  0  0  0  0  0
  -21.8680   -4.4370   23.4860 C   0  0  0  0  0  3  0  0  0  0  0  0
  -22.1050   -5.2280   22.3470 C   0  0  0  0  0  0  0  0  0  0  0  0
  -22.5640   -4.6510   21.2110 F   0  0  0  0  0  0  0  0  0  0  0  0
  -21.1340   -4.2630   25.7510 F   0  0  0  0  0  0  0  0  0  0  0  0
  -23.5970  -13.8960   21.1650 C   0  0  0  0  0  0  0  0  0  0  0  0
  -22.8260  -13.2250   22.0170 N   0  0  0  0  0  0  0  0  0  0  0  0
  -23.2300  -14.9670   20.6850 O   0  0  0  0  0  0  0  0  0  0  0  0
  -23.1410  -12.3590   22.4260 H   0  0  0  0  0  0  0  0  0  0  0  0
  -21.9150  -13.5830   22.2590 H   0  0  0  0  0  0  0  0  0  0  0  0
  -26.3430  -15.3940   20.4020 N   0  0  0  0  0  0  0  0  0  0  0  0
  -25.6310  -16.1000   20.5590 H   0  0  0  0  0  0  0  0  0  0  0  0
  -27.2310  -15.7850   20.1110 H   0  0  0  0  0  0  0  0  0  0  0  0
  1  4  1  0
  2  1  2  0
  2  6  1  0
  3  5  1  0
  4 54  1  0
  4  5  2  0
  5  7  1  0
  6  3  2  0
  8  9  1  0
  9  6  1  0
 10 11  1  0
 10  9  1  0
 12 13  1  0
 12 11  1  0
 14 25  2  0
 15 13  1  0
 15 20  1  0
 16 24  1  0
 16 26  1  0
 17 23  1  0
 17 19  1  0
 18 24  1  0
 19 20  2  0
 19 18  1  0
 21 15  2  0
 22 21  1  0
 22 17  2  0
 23 16  1  0
 24 14  1  0
 26 28  2  0
 27 26  1  0
 29 27  1  0
 30 39  2  0
 30 35  1  0
 31 27  1  0
 31 35  1  0
 32 31  1  0
 33 34  1  0
 33 32  1  0
 34 30  1  0
 35 36  2  0
 36 37  1  0
 38 37  2  0
 39 38  1  0
 40 14  1  0
 40 41  1  0
 40 50  1  0
 41 44  1  0
 42 46  1  0
 42 41  1  0
 43 42  2  0
 46 45  1  0
 48 49  1  0
 48 46  1  0
 48 47  1  0
 50 53  1  1
 50 51  1  0
 52 50  1  0
 55 63  1  0
 56 61  1  0
 57 58  1  0
 57 56  1  0
 59 58  1  0
 59 68  1  0
 59 60  1  0
 61 55  1  0
 61 60  1  0
 62 55  2  0
 63 64  1  0
 63 54  1  0
 65 66  2  0
 66 85  1  0
 67 66  1  0
 67 70  1  0
 68 69  1  0
 68 65  1  0
 69 67  2  0
 70 71  1  0
 71 72  2  0
 73 76  1  0
 73 72  1  0
 74 73  2  0
 75 74  1  0
 75 70  2  0
 76 77  1  0
 77 78  1  0
 78 79  2  0
 80 79  1  0
 80 84  1  0
 81 80  2  0
 82 77  2  0
 82 81  1  0
 83 82  1  0
 85 86  1  0
 86 89  1  0
 86 88  1  0
 87 85  2  0
 90 65  1  0
 90 91  1  0
 92 90  1  0
M  ISO  4  12 101  13 101  55 100  63 100
M  END
>  <TORSDO>  (90) 
F 21

>  <SCORE>  (90) 
-10.481

>  <name>  (90) 
91

>  <ligand_id>  (90) 
91

>  <original_smiles>  (90) 
[H]c1c([H])c([H])c2c(c1[H])C([H])([H])C([H])([H])C([H])([H])C2([H])N([H])C(=O)C1([H])N(C(=O)C([H])(N([H])C(=O)C([H])(N([H])C([H])([H])[H])C([H])([H])[H])C(C([H])([H])[H])(C([H])([H])[H])C([H])([H])[H])C([H])([H])c2c([H])c(OC([H])([H])C([H])([H])C([H])([H])N(c3c([H])c([H])c(C([H])([H])N([H])C(=O)N4C([H])([H])C([H])([H])C([H])([H])C([H])(n5nc(-c6c([H])c([H])c(Oc7c([H])c([H])c(F)c([H])c7F)c([H])c6[H])c(C(=O)N([H])[H])c5N([H])[H])C4([H])[H])c(C([H])([H])[H])c3[H])C([H])([H])[H])c([H])c([H])c2C1([H])[H]

>  <smiles>  (90) 
[H]c1c([H])c([H])c2c(c1[H])C([H])([H])C([H])([H])C([H])([H])C2([H])N([H])C(=O)C1([H])N(C(=O)C([H])(N([H])C(=O)C([H])(N([H])C([H])([H])[H])C([H])([H])[H])C(C([H])([H])[H])(C([H])([H])[H])C([H])([H])[H])C([H])([H])c2c([H])c(OC([H])([H])C([H])([H])C([H])([H])N(c3c([H])c([H])c(C([H])([H])N([H])C(=O)N4C([H])([H])C([H])([H])C([H])([H])C([H])(n5nc(-c6c([H])c([H])c(Oc7c([H])c([H])c(F)c([H])c7F)c([H])c6[H])c(C(=O)N([H])[H])c5N([H])[H])C4([H])[H])c(C([H])([H])[H])c3[H])C([H])([H])[H])c([H])c([H])c2C1([H])[H]

$$$$
92:0:0
     RDKit          3D

 94103  0  0  1  0  0  0  0  0999 V2000
  -31.5490  -23.4480   20.7950 C   0  0  0  0  0  2  0  0  0  0  0  0
  -30.7350  -24.6070   20.2300 C   0  0  0  0  0  2  0  0  0  0  0  0
  -30.4780  -22.5350   21.3850 C   0  0  0  0  0  2  0  0  0  0  0  0
  -29.3650  -24.0080   19.8400 C   0  0  0  0  0  3  0  0  0  0  0  0
  -29.3470  -22.5870   20.4310 N   0  0  1  0  0  4  0  0  0  0  0  0
  -28.4980  -22.4550   20.9610 H   0  0  0  0  0  0  0  0  0  0  0  0
  -29.3920  -21.4430   19.4300 C   0  0  0  0  0  2  0  0  0  0  0  0
  -30.8390  -19.2580   19.6460 C   0  0  0  0  0  3  0  0  0  0  0  0
  -30.9940  -17.8530   19.8670 C   0  0  0  0  0  3  0  0  0  0  0  0
  -28.5590  -19.1480   20.4010 C   0  0  0  0  0  3  0  0  0  0  0  0
  -29.6130  -19.9450   19.8860 C   0  0  0  0  0  0  0  0  0  0  0  0
  -29.9170  -17.0550   20.3400 C   0  0  0  0  0  0  0  0  0  0  0  0
  -28.7100  -17.7470   20.6180 C   0  0  0  0  0  0  0  0  0  0  0  0
  -27.6500  -17.0350   21.0730 F   0  0  0  0  0  0  0  0  0  0  0  0
  -30.6840  -14.5810   20.0630 C   0  0  0  0  0  0  0  0  0  0  0  0
  -30.4060  -12.3630   18.9730 C   0  0  0  0  0  2  0  0  0  0  0  0
  -29.4060  -12.5290   17.8050 C   0  0  0  0  0  2  0  0  0  0  0  0
  -27.9540  -12.3810   18.3000 C   0  0  0  0  0  2  0  0  0  0  0  0
  -27.6660  -13.2250   19.5700 C   0  0  0  0  0  3  0  0  0  0  0  0
  -28.7710  -13.0260   20.6330 C   0  0  0  0  0  2  0  0  0  0  0  0
  -30.0610  -13.3610   20.0050 N   0  0  0  0  0  0  0  0  0  0  0  0
  -31.8120  -14.7500   19.5920 O   0  0  0  0  0  0  0  0  0  0  0  0
  -29.9220  -15.6080   20.5480 N   0  0  0  0  0  0  0  0  0  0  0  0
  -29.0700  -15.2820   20.9790 H   0  0  0  0  0  0  0  0  0  0  0  0
  -25.3120  -13.8450   20.3990 C   0  0  0  0  0  0  0  0  0  0  0  0
  -24.2520  -13.0810   20.8050 C   0  0  0  0  0  0  0  0  0  0  0  0
  -24.6970  -11.7250   20.7390 C   0  0  0  0  0  0  0  0  0  0  0  0
  -26.3350  -12.9560   20.1090 N   0  0  0  0  0  0  0  0  0  0  0  0
  -25.9720  -11.6750   20.3720 N   0  0  0  0  0  0  0  0  0  0  0  0
  -23.9640  -10.4690   20.9470 C   0  0  0  0  0  0  0  0  0  0  0  0
  -24.4100   -9.4970   21.8700 C   0  0  0  0  0  3  0  0  0  0  0  0
  -23.6770   -8.3070   22.0650 C   0  0  0  0  0  3  0  0  0  0  0  0
  -22.4830   -8.0810   21.3390 C   0  0  0  0  0  0  0  0  0  0  0  0
  -22.0560   -9.0420   20.4060 C   0  0  0  0  0  3  0  0  0  0  0  0
  -22.7900  -10.2240   20.2090 C   0  0  0  0  0  3  0  0  0  0  0  0
  -21.7210   -6.9420   21.4440 O   0  0  0  0  0  0  0  0  0  0  0  0
  -21.6740   -6.2130   22.6050 C   0  0  0  0  0  0  0  0  0  0  0  0
  -21.2750   -6.7890   23.8310 C   0  0  0  0  0  3  0  0  0  0  0  0
  -21.1720   -5.9870   24.9860 C   0  0  0  0  0  3  0  0  0  0  0  0
  -21.4590   -4.6100   24.9150 C   0  0  0  0  0  0  0  0  0  0  0  0
  -21.8530   -4.0340   23.6940 C   0  0  0  0  0  3  0  0  0  0  0  0
  -21.9570   -4.8340   22.5420 C   0  0  0  0  0  0  0  0  0  0  0  0
  -22.3150   -4.2700   21.3630 F   0  0  0  0  0  0  0  0  0  0  0  0
  -21.3540   -3.8390   26.0220 F   0  0  0  0  0  0  0  0  0  0  0  0
  -22.8750  -13.5720   21.1470 C   0  0  0  0  0  0  0  0  0  0  0  0
  -22.1800  -12.8780   22.0410 N   0  0  0  0  0  0  0  0  0  0  0  0
  -22.4270  -14.6090   20.6580 O   0  0  0  0  0  0  0  0  0  0  0  0
  -22.5570  -12.0410   22.4590 H   0  0  0  0  0  0  0  0  0  0  0  0
  -21.2590  -13.1910   22.3140 H   0  0  0  0  0  0  0  0  0  0  0  0
  -25.4840  -15.2160   20.2360 N   0  0  0  0  0  0  0  0  0  0  0  0
  -24.7430  -15.8770   20.4370 H   0  0  0  0  0  0  0  0  0  0  0  0
  -26.3540  -15.6680   19.9870 H   0  0  0  0  0  0  0  0  0  0  0  0
  -28.1990  -25.0010   20.2800 C   0  0  0  0  0  2  0  0  0  0  0  0
  -28.3510  -26.4320   19.9180 O   0  0  0  0  0  0  0  0  0  0  0  0
  -24.5220  -31.6900   23.0520 C   0  0  0  0  0  0  0  0  0  0  0  0
  -27.2100  -27.2420   19.9210 C   0  0  0  0  0  0  0  0  0  0  0  0
  -23.3440  -30.3140   21.3730 C   0  0  0  0  0  3  0  0  0  0  0  0
  -24.8210  -28.8090   19.9280 C   0  0  0  0  0  0  0  0  0  0  0  0
  -25.8790  -30.6690   21.2110 C   0  0  0  0  0  2  0  0  0  0  0  0
  -25.9790  -29.3060   20.5400 C   0  0  0  0  0  0  0  0  0  0  0  0
  -27.1780  -28.5350   20.5250 C   0  0  0  0  0  3  0  0  0  0  0  0
  -26.0320  -26.7970   19.2790 C   0  0  0  0  0  3  0  0  0  0  0  0
  -24.8490  -27.5590   19.2890 C   0  0  0  0  0  3  0  0  0  0  0  0
  -23.5750  -29.6690   19.9820 C   0  0  0  0  0  2  0  0  0  0  0  0
  -24.6000  -30.9070   21.9360 N   0  0  0  0  0  0  0  0  0  0  0  0
  -23.4330  -31.9440   23.5860 O   0  0  0  0  0  0  0  0  0  0  0  0
  -22.6870  -29.2700   22.3070 C   0  0  0  0  0  0  0  0  0  0  0  0
  -21.3590  -29.1010   22.1840 N   0  0  0  0  0  0  0  0  0  0  0  0
  -23.3700  -28.6150   23.0990 O   0  0  0  0  0  0  0  0  0  0  0  0
  -20.8680  -29.6810   21.5170 H   0  0  0  0  0  0  0  0  0  0  0  0
  -17.9770  -27.9240   22.6890 C   0  0  0  0  0  0  0  0  0  0  0  0
  -20.5410  -28.1430   22.9300 C   0  0  0  0  0  3  0  0  0  0  0  0
  -20.6180  -26.7340   22.2990 C   0  0  0  0  0  2  0  0  0  0  0  0
  -19.4970  -26.4630   21.2900 C   0  0  0  0  0  2  0  0  0  0  0  0
  -18.1270  -26.5990   21.9600 C   0  0  0  0  0  2  0  0  0  0  0  0
  -19.1110  -28.6570   23.1310 C   0  0  0  0  0  0  0  0  0  0  0  0
  -18.9160  -29.8980   23.7730 C   0  0  0  0  0  3  0  0  0  0  0  0
  -17.6190  -30.4080   23.9770 C   0  0  0  0  0  3  0  0  0  0  0  0
  -16.5000  -29.6720   23.5510 C   0  0  0  0  0  3  0  0  0  0  0  0
  -16.6800  -28.4310   22.9130 C   0  0  0  0  0  3  0  0  0  0  0  0
  -25.7940  -32.3200   23.6970 C   0  0  0  0  0  3  0  0  0  0  0  0
  -26.3170  -31.5180   24.9520 C   0  0  1  0  0  0  0  0  0  0  0  0
  -25.2240  -31.2370   26.0090 C   0  0  0  0  0  1  0  0  0  0  0  0
  -26.9170  -30.1600   24.5210 C   0  0  0  0  0  1  0  0  0  0  0  0
  -27.4560  -32.3070   25.6400 C   0  0  0  0  0  1  0  0  0  0  0  0
  -25.4650  -33.7030   24.0680 N   0  0  0  0  0  0  0  0  0  0  0  0
  -25.7910  -34.7840   23.3450 C   0  0  0  0  0  0  0  0  0  0  0  0
  -26.4710  -34.7210   22.3180 O   0  0  0  0  0  0  0  0  0  0  0  0
  -24.8610  -33.8250   24.8680 H   0  0  0  0  0  0  0  0  0  0  0  0
  -24.0460  -36.5690   23.0290 C   0  0  0  0  0  1  0  0  0  0  0  0
  -25.2820  -36.1520   23.8420 C   0  0  0  0  0  3  0  0  0  0  0  0
  -27.3980  -37.0320   24.7250 C   0  0  0  0  0  1  0  0  0  0  0  0
  -26.3040  -37.2190   23.7750 N   0  0  0  0  0  0  0  0  0  0  0  0
  -25.8860  -38.1290   23.9460 H   0  0  0  0  0  0  0  0  0  0  0  0
  1  3  1  0
  2  1  1  0
  4  2  1  0
  4 53  1  0
  4  5  1  0
  5  6  1  1
  5  3  1  0
  7 11  1  0
  7  5  1  0
  8  9  2  0
  8 11  1  0
  9 12  1  0
 10 13  1  0
 11 10  2  0
 12 23  1  0
 12 13  2  0
 13 14  1  0
 15 23  1  0
 16 21  1  0
 17 18  1  0
 17 16  1  0
 19 18  1  0
 19 28  1  0
 19 20  1  0
 21 15  1  0
 21 20  1  0
 22 15  2  0
 23 24  1  0
 25 26  2  0
 26 45  1  0
 27 26  1  0
 27 30  1  0
 28 29  1  0
 28 25  1  0
 29 27  2  0
 30 31  1  0
 31 32  2  0
 33 36  1  0
 33 32  1  0
 34 33  2  0
 35 34  1  0
 35 30  2  0
 36 37  1  0
 37 38  1  0
 38 39  2  0
 40 39  1  0
 40 44  1  0
 41 40  2  0
 42 37  2  0
 42 41  1  0
 43 42  1  0
 45 46  1  0
 46 49  1  0
 46 48  1  0
 47 45  2  0
 50 25  1  0
 50 51  1  0
 52 50  1  0
 54 56  1  0
 54 53  1  0
 55 66  2  0
 56 61  1  0
 57 65  1  0
 57 67  1  0
 58 64  1  0
 58 60  1  0
 59 65  1  0
 60 59  1  0
 61 60  2  0
 62 63  1  0
 62 56  2  0
 63 58  2  0
 64 57  1  0
 65 55  1  0
 67 69  2  0
 68 67  1  0
 70 68  1  0
 71 80  2  0
 71 76  1  0
 72 68  1  0
 72 76  1  0
 73 72  1  0
 74 75  1  0
 74 73  1  0
 75 71  1  0
 76 77  2  0
 77 78  1  0
 79 78  2  0
 80 79  1  0
 81 55  1  0
 81 86  1  0
 81 82  1  0
 82 85  1  1
 82 83  1  0
 84 82  1  0
 86 89  1  0
 87 91  1  0
 87 86  1  0
 88 87  2  0
 91 90  1  0
 93 91  1  0
 93 94  1  0
 93 92  1  0
M  ISO  4  15 100  23 100  53 101  54 101
M  END
>  <TORSDO>  (91) 
F 19

>  <SCORE>  (91) 
-13.893

>  <name>  (91) 
92

>  <ligand_id>  (91) 
92

>  <original_smiles>  (91) 
[H]c1c([H])c([H])c2c(c1[H])C([H])([H])C([H])([H])C([H])([H])C2([H])N([H])C(=O)C1([H])N(C(=O)C([H])(N([H])C(=O)C([H])(N([H])C([H])([H])[H])C([H])([H])[H])C(C([H])([H])[H])(C([H])([H])[H])C([H])([H])[H])C([H])([H])c2c([H])c(OC([H])([H])C3([H])C([H])([H])C([H])([H])C([H])([H])[N+]3([H])C([H])([H])c3c([H])c([H])c(N([H])C(=O)N4C([H])([H])C([H])([H])C([H])([H])C([H])(n5nc(-c6c([H])c([H])c(Oc7c([H])c([H])c(F)c([H])c7F)c([H])c6[H])c(C(=O)N([H])[H])c5N([H])[H])C4([H])[H])c(F)c3[H])c([H])c([H])c2C1([H])[H]

>  <smiles>  (91) 
[H]c1c([H])c([H])c2c(c1[H])C([H])([H])C([H])([H])C([H])([H])C2([H])N([H])C(=O)C1([H])N(C(=O)C([H])(N([H])C(=O)C([H])(N([H])C([H])([H])[H])C([H])([H])[H])C(C([H])([H])[H])(C([H])([H])[H])C([H])([H])[H])C([H])([H])c2c([H])c(OC([H])([H])C3([H])C([H])([H])C([H])([H])C([H])([H])[N+]3([H])C([H])([H])c3c([H])c([H])c(N([H])C(=O)N4C([H])([H])C([H])([H])C([H])([H])C([H])(n5nc(-c6c([H])c([H])c(Oc7c([H])c([H])c(F)c([H])c7F)c([H])c6[H])c(C(=O)N([H])[H])c5N([H])[H])C4([H])[H])c(F)c3[H])c([H])c([H])c2C1([H])[H]

$$$$
93:0:0
     RDKit          3D

105115  0  0  1  0  0  0  0  0999 V2000
  -29.3250  -23.5040   23.4560 C   0  0  0  0  0  3  0  0  0  0  0  0
  -28.3670  -24.5140   23.2850 C   0  0  0  0  0  3  0  0  0  0  0  0
  -31.0960  -25.1770   23.4120 C   0  0  0  0  0  3  0  0  0  0  0  0
  -30.6950  -23.8250   23.4200 C   0  0  0  0  0  0  0  0  0  0  0  0
  -28.7560  -25.8590   23.1290 C   0  0  0  0  0  0  0  0  0  0  0  0
  -30.1220  -26.1990   23.3170 C   0  0  0  0  0  0  0  0  0  0  0  0
  -30.5420  -27.6480   23.4600 C   0  0  0  0  0  1  0  0  0  0  0  0
  -31.4440  -21.5110   22.3400 C   0  0  0  0  0  2  0  0  0  0  0  0
  -32.2900  -21.6940   24.1990 C   0  0  0  0  0  2  0  0  0  0  0  0
  -31.7160  -22.7250   23.2140 C   0  0  0  0  0  3  0  0  0  0  0  0
  -32.6530  -20.9710   22.9730 N   0  0  1  0  0  4  0  0  0  0  0  0
  -33.4530  -21.3950   22.5290 H   0  0  0  0  0  0  0  0  0  0  0  0
  -32.8380  -19.5070   22.9910 C   0  0  0  0  0  2  0  0  0  0  0  0
  -33.0120  -18.8690   20.5840 C   0  0  0  0  0  3  0  0  0  0  0  0
  -33.6980  -18.7830   19.3630 C   0  0  0  0  0  3  0  0  0  0  0  0
  -35.8070  -19.1420   20.5260 C   0  0  0  0  0  3  0  0  0  0  0  0
  -33.6970  -19.1710   21.7760 C   0  0  0  0  0  0  0  0  0  0  0  0
  -35.1150  -19.3010   21.7560 C   0  0  0  0  0  0  0  0  0  0  0  0
  -35.1050  -18.9000   19.3150 C   0  0  0  0  0  0  0  0  0  0  0  0
  -35.9190  -19.6460   23.0130 C   0  0  0  0  0  1  0  0  0  0  0  0
  -36.4700  -17.7370   17.5770 C   0  0  0  0  0  0  0  0  0  0  0  0
  -36.0570  -15.7140   16.2350 C   0  0  0  0  0  2  0  0  0  0  0  0
  -34.9550  -16.0340   15.1970 C   0  0  0  0  0  2  0  0  0  0  0  0
  -33.5560  -15.7740   15.7750 C   0  0  0  0  0  2  0  0  0  0  0  0
  -33.3780  -16.4470   17.1540 C   0  0  0  0  0  3  0  0  0  0  0  0
  -34.5640  -16.1180   18.0880 C   0  0  0  0  0  2  0  0  0  0  0  0
  -35.8020  -16.5560   17.4180 N   0  0  0  0  0  0  0  0  0  0  0  0
  -37.5720  -17.9230   17.0420 O   0  0  0  0  0  0  0  0  0  0  0  0
  -35.9450  -20.0860   17.3290 C   0  0  0  0  0  1  0  0  0  0  0  0
  -35.7670  -18.8100   18.0480 N   0  0  0  0  0  0  0  0  0  0  0  0
  -30.9930  -16.8640   17.9950 C   0  0  0  0  0  0  0  0  0  0  0  0
  -30.0470  -16.0310   18.5110 C   0  0  0  0  0  0  0  0  0  0  0  0
  -30.6430  -14.7300   18.5540 C   0  0  0  0  0  0  0  0  0  0  0  0
  -32.1070  -16.0780   17.7580 N   0  0  0  0  0  0  0  0  0  0  0  0
  -31.9050  -14.7910   18.1460 N   0  0  0  0  0  0  0  0  0  0  0  0
  -30.0680  -13.4260   18.8950 C   0  0  0  0  0  0  0  0  0  0  0  0
  -30.2730  -12.8330   20.1600 C   0  0  0  0  0  3  0  0  0  0  0  0
  -29.6980  -11.5820   20.4650 C   0  0  0  0  0  3  0  0  0  0  0  0
  -28.9020  -10.9120   19.5080 C   0  0  0  0  0  0  0  0  0  0  0  0
  -28.7240  -11.4950   18.2410 C   0  0  0  0  0  3  0  0  0  0  0  0
  -29.3010  -12.7360   17.9350 C   0  0  0  0  0  3  0  0  0  0  0  0
  -28.3240   -9.6830   19.7110 O   0  0  0  0  0  0  0  0  0  0  0  0
  -27.2890   -9.5130   20.5980 C   0  0  0  0  0  0  0  0  0  0  0  0
  -26.2030  -10.4120   20.6590 C   0  0  0  0  0  3  0  0  0  0  0  0
  -25.1260  -10.1570   21.5330 C   0  0  0  0  0  3  0  0  0  0  0  0
  -25.1360   -9.0060   22.3450 C   0  0  0  0  0  0  0  0  0  0  0  0
  -26.2180   -8.1100   22.2860 C   0  0  0  0  0  3  0  0  0  0  0  0
  -27.2920   -8.3620   21.4120 C   0  0  0  0  0  0  0  0  0  0  0  0
  -28.3210   -7.4820   21.3400 F   0  0  0  0  0  0  0  0  0  0  0  0
  -24.1020   -8.7570   23.1820 F   0  0  0  0  0  0  0  0  0  0  0  0
  -28.6340  -16.3880   18.8730 C   0  0  0  0  0  0  0  0  0  0  0  0
  -28.0990  -15.7740   19.9170 N   0  0  0  0  0  0  0  0  0  0  0  0
  -28.0140  -17.2540   18.2520 O   0  0  0  0  0  0  0  0  0  0  0  0
  -28.6150  -15.0610   20.4140 H   0  0  0  0  0  0  0  0  0  0  0  0
  -27.1650  -16.0140   20.2220 H   0  0  0  0  0  0  0  0  0  0  0  0
  -31.0080  -18.2190   17.6740 N   0  0  0  0  0  0  0  0  0  0  0  0
  -30.1990  -18.8260   17.7400 H   0  0  0  0  0  0  0  0  0  0  0  0
  -31.8240  -18.6780   17.2940 H   0  0  0  0  0  0  0  0  0  0  0  0
  -27.6860  -26.8820   22.7410 C   0  0  0  0  0  2  0  0  0  0  0  0
  -28.4650  -29.1300   22.0300 C   0  0  0  0  0  1  0  0  0  0  0  0
  -28.1210  -27.7430   21.5970 N   0  0  2  0  0  4  0  0  0  0  0  0
  -28.9960  -27.3650   21.2570 H   0  0  0  0  0  0  0  0  0  0  0  0
  -27.1700  -27.7330   20.4440 C   0  0  0  0  0  2  0  0  0  0  0  0
  -27.5580  -26.7990   19.2450 C   0  0  0  0  0  2  0  0  0  0  0  0
  -26.4830  -26.6070   18.2980 O   0  0  0  0  0  0  0  0  0  0  0  0
  -24.1160  -31.2760   22.9470 C   0  0  0  0  0  0  0  0  0  0  0  0
  -25.4310  -27.4300   18.5830 C   0  0  0  0  0  0  0  0  0  0  0  0
  -22.3750  -30.2110   21.5360 C   0  0  0  0  0  3  0  0  0  0  0  0
  -23.2410  -28.9300   19.5060 C   0  0  0  0  0  0  0  0  0  0  0  0
  -24.7570  -30.5530   20.6690 C   0  0  0  0  0  2  0  0  0  0  0  0
  -24.5460  -29.3380   19.8030 C   0  0  0  0  0  0  0  0  0  0  0  0
  -25.6410  -28.6140   19.3130 C   0  0  0  0  0  3  0  0  0  0  0  0
  -24.1230  -27.0480   18.2320 C   0  0  0  0  0  3  0  0  0  0  0  0
  -23.0210  -27.7990   18.6920 C   0  0  0  0  0  3  0  0  0  0  0  0
  -22.1260  -29.7800   20.0620 C   0  0  0  0  0  2  0  0  0  0  0  0
  -23.7770  -30.6910   21.7660 N   0  0  0  0  0  0  0  0  0  0  0  0
  -23.2700  -31.4660   23.8340 O   0  0  0  0  0  0  0  0  0  0  0  0
  -21.9680  -29.0580   22.4780 C   0  0  0  0  0  0  0  0  0  0  0  0
  -20.7890  -28.4680   22.2230 N   0  0  0  0  0  0  0  0  0  0  0  0
  -22.7090  -28.6950   23.3950 O   0  0  0  0  0  0  0  0  0  0  0  0
  -20.2270  -28.8380   21.4670 H   0  0  0  0  0  0  0  0  0  0  0  0
  -18.3020  -25.8600   22.0590 C   0  0  0  0  0  0  0  0  0  0  0  0
  -20.2200  -27.3390   22.9590 C   0  0  0  0  0  3  0  0  0  0  0  0
  -21.1140  -26.0810   22.8380 C   0  0  0  0  0  2  0  0  0  0  0  0
  -20.7090  -25.1730   21.6790 C   0  0  0  0  0  2  0  0  0  0  0  0
  -19.2630  -24.7020   21.8440 C   0  0  0  0  0  2  0  0  0  0  0  0
  -18.7560  -27.1050   22.5720 C   0  0  0  0  0  0  0  0  0  0  0  0
  -17.8320  -28.1580   22.7260 C   0  0  0  0  0  3  0  0  0  0  0  0
  -16.4760  -27.9860   22.3810 C   0  0  0  0  0  3  0  0  0  0  0  0
  -16.0330  -26.7510   21.8770 C   0  0  0  0  0  3  0  0  0  0  0  0
  -16.9420  -25.6900   21.7220 C   0  0  0  0  0  3  0  0  0  0  0  0
  -25.5700  -31.7760   23.2220 C   0  0  0  0  0  3  0  0  0  0  0  0
  -25.4440  -33.0940   23.8600 N   0  0  0  0  0  0  0  0  0  0  0  0
  -26.0100  -34.2190   23.4030 C   0  0  0  0  0  0  0  0  0  0  0  0
  -26.7420  -34.2430   22.4100 O   0  0  0  0  0  0  0  0  0  0  0  0
  -24.7550  -33.1670   24.5950 H   0  0  0  0  0  0  0  0  0  0  0  0
  -24.7630  -36.4150   23.3830 C   0  0  0  0  0  1  0  0  0  0  0  0
  -25.7230  -35.5200   24.1820 C   0  0  0  0  0  3  0  0  0  0  0  0
  -27.8210  -35.6210   25.4540 C   0  0  0  0  0  1  0  0  0  0  0  0
  -26.9380  -36.2920   24.5110 N   0  0  0  0  0  0  0  0  0  0  0  0
  -26.6850  -37.1970   24.9000 H   0  0  0  0  0  0  0  0  0  0  0  0
  -26.4270  -30.8030   24.1220 C   0  0  1  0  0  0  0  0  0  0  0  0
  -25.7150  -30.4130   25.4360 C   0  0  0  0  0  1  0  0  0  0  0  0
  -26.7800  -29.4900   23.3810 C   0  0  0  0  0  1  0  0  0  0  0  0
  -27.7720  -31.4950   24.4630 C   0  0  0  0  0  1  0  0  0  0  0  0
  2  1  2  0
  3  4  2  0
  4  1  1  0
  5  2  1  0
  5  6  2  0
  6  3  1  0
  6  7  1  0
  8 11  1  0
  8 10  1  0
 10  4  1  0
 10  9  1  0
 11 13  1  0
 11  9  1  0
 11 12  1  6
 14 17  1  0
 15 14  2  0
 16 18  1  0
 17 13  1  0
 18 17  2  0
 18 20  1  0
 19 15  1  0
 19 16  2  0
 21 30  1  0
 22 27  1  0
 23 24  1  0
 23 22  1  0
 25 24  1  0
 25 34  1  0
 25 26  1  0
 27 21  1  0
 27 26  1  0
 28 21  2  0
 29 30  1  0
 30 19  1  0
 31 32  2  0
 32 33  1  0
 32 51  1  0
 33 36  1  0
 34 31  1  0
 34 35  1  0
 35 33  2  0
 36 37  1  0
 37 38  2  0
 39 42  1  0
 39 38  1  0
 40 39  2  0
 41 40  1  0
 41 36  2  0
 42 43  1  0
 43 44  2  0
 43 48  1  0
 44 45  1  0
 45 46  2  0
 46 50  1  0
 47 46  1  0
 48 47  2  0
 49 48  1  0
 51 52  1  0
 52 55  1  0
 52 54  1  0
 53 51  2  0
 56 57  1  0
 56 31  1  0
 58 56  1  0
 59  5  1  0
 61 60  1  0
 61 59  1  0
 61 62  1  6
 63 61  1  0
 64 63  1  0
 65 67  1  0
 65 64  1  0
 66 77  2  0
 67 72  1  0
 68 76  1  0
 68 78  1  0
 69 71  1  0
 69 75  1  0
 70 76  1  0
 71 70  1  0
 72 71  2  0
 73 67  2  0
 73 74  1  0
 74 69  2  0
 75 68  1  0
 76 66  1  0
 78 80  2  0
 79 78  1  0
 81 79  1  0
 82 87  1  0
 83 79  1  0
 84 83  1  0
 85 86  1  0
 85 84  1  0
 86 82  1  0
 87 88  2  0
 87 83  1  0
 89 88  1  0
 90 89  2  0
 91 90  1  0
 91 82  2  0
 92 66  1  0
 92 93  1  0
 92102  1  0
 93 96  1  0
 94 93  1  0
 94 98  1  0
 95 94  2  0
 98 97  1  0
 98100  1  0
100101  1  0
100 99  1  0
102105  1  1
102103  1  0
104102  1  0
M  ISO  4  21 100  30 100  64 101  65 101
M  END
>  <TORSDO>  (92) 
F 23

>  <SCORE>  (92) 
-0.082

>  <name>  (92) 
93

>  <ligand_id>  (92) 
93

>  <original_smiles>  (92) 
[H]c1c([H])c([H])c2c(c1[H])C([H])([H])C([H])([H])C([H])([H])C2([H])N([H])C(=O)C1([H])N(C(=O)C([H])(N([H])C(=O)C([H])(N([H])C([H])([H])[H])C([H])([H])[H])C(C([H])([H])[H])(C([H])([H])[H])C([H])([H])[H])C([H])([H])c2c([H])c(OC([H])([H])C([H])([H])[N+]([H])(C([H])([H])[H])C([H])([H])c3c([H])c([H])c(C4([H])C([H])([H])[N+]([H])(C([H])([H])c5c([H])c([H])c(N(C(=O)N6C([H])([H])C([H])([H])C([H])([H])C([H])(n7nc(-c8c([H])c([H])c(Oc9c([H])c([H])c(F)c([H])c9F)c([H])c8[H])c(C(=O)N([H])[H])c7N([H])[H])C6([H])[H])C([H])([H])[H])c([H])c5C([H])([H])[H])C4([H])[H])c([H])c3C([H])([H])[H])c([H])c([H])c2C1([H])[H]

>  <smiles>  (92) 
[H]c1c([H])c([H])c2c(c1[H])C([H])([H])C([H])([H])C([H])([H])C2([H])N([H])C(=O)C1([H])N(C(=O)C([H])(N([H])C(=O)C([H])(N([H])C([H])([H])[H])C([H])([H])[H])C(C([H])([H])[H])(C([H])([H])[H])C([H])([H])[H])C([H])([H])c2c([H])c(OC([H])([H])C([H])([H])[N+]([H])(C([H])([H])[H])C([H])([H])c3c([H])c([H])c(C4([H])C([H])([H])[N+]([H])(C([H])([H])c5c([H])c([H])c(N(C(=O)N6C([H])([H])C([H])([H])C([H])([H])C([H])(n7nc(-c8c([H])c([H])c(Oc9c([H])c([H])c(F)c([H])c9F)c([H])c8[H])c(C(=O)N([H])[H])c7N([H])[H])C6([H])[H])C([H])([H])[H])c([H])c5C([H])([H])[H])C4([H])[H])c([H])c3C([H])([H])[H])c([H])c([H])c2C1([H])[H]

$$$$
94:0:0
     RDKit          3D

 92100  0  0  1  0  0  0  0  0999 V2000
  -31.6780  -17.7120   21.1050 C   0  0  0  0  0  3  0  0  0  0  0  0
  -32.5990  -18.7090   21.4370 C   0  0  0  0  0  3  0  0  0  0  0  0
  -31.2190  -20.3150   20.3240 C   0  0  0  0  0  3  0  0  0  0  0  0
  -30.5020  -17.8850   20.3140 C   0  0  0  0  0  0  0  0  0  0  0  0
  -30.2010  -19.3750   19.9910 C   0  0  0  0  0  0  0  0  0  0  0  0
  -32.4090  -20.0150   21.0080 C   0  0  0  0  0  0  0  0  0  0  0  0
  -30.5160  -15.1750   19.8880 C   0  0  0  0  0  0  0  0  0  0  0  0
  -30.3180  -12.7900   18.9940 C   0  0  0  0  0  2  0  0  0  0  0  0
  -29.3310  -12.6570   17.8130 C   0  0  0  0  0  2  0  0  0  0  0  0
  -27.9110  -12.4070   18.3410 C   0  0  0  0  0  2  0  0  0  0  0  0
  -27.5370  -13.3690   19.4970 C   0  0  0  0  0  3  0  0  0  0  0  0
  -28.6490  -13.4990   20.5630 C   0  0  0  0  0  2  0  0  0  0  0  0
  -29.8630  -13.9290   19.8590 N   0  0  0  0  0  0  0  0  0  0  0  0
  -31.6970  -15.1200   19.5290 O   0  0  0  0  0  0  0  0  0  0  0  0
  -29.8760  -16.4690   20.0780 N   0  0  0  0  0  0  0  0  0  0  0  0
  -28.8690  -16.4400   20.1010 H   0  0  0  0  0  0  0  0  0  0  0  0
  -25.2080  -13.9100   20.3920 C   0  0  0  0  0  0  0  0  0  0  0  0
  -24.1710  -13.1210   20.8040 C   0  0  0  0  0  0  0  0  0  0  0  0
  -24.6400  -11.7730   20.7210 C   0  0  0  0  0  0  0  0  0  0  0  0
  -26.2400  -13.0440   20.0750 N   0  0  0  0  0  0  0  0  0  0  0  0
  -25.9130  -11.7520   20.3410 N   0  0  0  0  0  0  0  0  0  0  0  0
  -23.9290  -10.5030   20.9240 C   0  0  0  0  0  0  0  0  0  0  0  0
  -24.3740   -9.5500   21.8660 C   0  0  0  0  0  3  0  0  0  0  0  0
  -23.6580   -8.3480   22.0570 C   0  0  0  0  0  3  0  0  0  0  0  0
  -22.4870   -8.0910   21.3080 C   0  0  0  0  0  0  0  0  0  0  0  0
  -22.0620   -9.0340   20.3550 C   0  0  0  0  0  3  0  0  0  0  0  0
  -22.7770  -10.2270   20.1610 C   0  0  0  0  0  3  0  0  0  0  0  0
  -21.7430   -6.9400   21.4090 O   0  0  0  0  0  0  0  0  0  0  0  0
  -21.6620   -6.2370   22.5830 C   0  0  0  0  0  0  0  0  0  0  0  0
  -21.1190   -6.8060   23.7550 C   0  0  0  0  0  3  0  0  0  0  0  0
  -20.9880   -6.0250   24.9220 C   0  0  0  0  0  3  0  0  0  0  0  0
  -21.3930   -4.6770   24.9170 C   0  0  0  0  0  0  0  0  0  0  0  0
  -21.9280   -4.1070   23.7490 C   0  0  0  0  0  3  0  0  0  0  0  0
  -22.0590   -4.8840   22.5850 C   0  0  0  0  0  0  0  0  0  0  0  0
  -22.5550   -4.3240   21.4550 F   0  0  0  0  0  0  0  0  0  0  0  0
  -21.2630   -3.9240   26.0350 F   0  0  0  0  0  0  0  0  0  0  0  0
  -22.7890  -13.5850   21.1570 C   0  0  0  0  0  0  0  0  0  0  0  0
  -22.1080  -12.8630   22.0390 N   0  0  0  0  0  0  0  0  0  0  0  0
  -22.3250  -14.6250   20.6900 O   0  0  0  0  0  0  0  0  0  0  0  0
  -22.4980  -12.0210   22.4360 H   0  0  0  0  0  0  0  0  0  0  0  0
  -21.1840  -13.1550   22.3230 H   0  0  0  0  0  0  0  0  0  0  0  0
  -25.3540  -15.2850   20.2320 N   0  0  0  0  0  0  0  0  0  0  0  0
  -24.5910  -15.9310   20.4080 H   0  0  0  0  0  0  0  0  0  0  0  0
  -26.1790  -15.7370   19.8620 H   0  0  0  0  0  0  0  0  0  0  0  0
  -27.8710  -19.3990   19.2510 C   0  0  0  0  0  1  0  0  0  0  0  0
  -29.0650  -20.1980   19.4850 N   0  0  0  0  0  0  0  0  0  0  0  0
  -29.0070  -21.7440   19.0580 C   0  0  0  0  0  2  0  0  0  0  0  0
  -28.6040  -23.1500   19.9610 C   0  0  0  0  0  3  0  0  0  0  0  0
  -28.2360  -24.7030   19.3110 C   0  0  0  0  0  3  0  0  0  0  0  0
  -28.2260  -26.1530   19.9520 O   0  0  0  0  0  0  0  0  0  0  0  0
  -24.5810  -31.7600   23.1330 C   0  0  0  0  0  0  0  0  0  0  0  0
  -27.1710  -27.1570   19.8830 C   0  0  0  0  0  0  0  0  0  0  0  0
  -23.3900  -30.4390   21.4290 C   0  0  0  0  0  3  0  0  0  0  0  0
  -24.8460  -28.9370   19.9260 C   0  0  0  0  0  0  0  0  0  0  0  0
  -25.9470  -30.7010   21.2890 C   0  0  0  0  0  2  0  0  0  0  0  0
  -26.0230  -29.3400   20.5680 C   0  0  0  0  0  0  0  0  0  0  0  0
  -27.1810  -28.4660   20.5330 C   0  0  0  0  0  3  0  0  0  0  0  0
  -25.9670  -26.8770   19.1960 C   0  0  0  0  0  3  0  0  0  0  0  0
  -24.8360  -27.7220   19.2260 C   0  0  0  0  0  3  0  0  0  0  0  0
  -23.6160  -29.8320   20.0190 C   0  0  0  0  0  2  0  0  0  0  0  0
  -24.6600  -30.9870   22.0060 N   0  0  0  0  0  0  0  0  0  0  0  0
  -23.4930  -32.0210   23.6680 O   0  0  0  0  0  0  0  0  0  0  0  0
  -22.7080  -29.3880   22.3400 C   0  0  0  0  0  0  0  0  0  0  0  0
  -21.3760  -29.2490   22.2280 N   0  0  0  0  0  0  0  0  0  0  0  0
  -23.3820  -28.7030   23.1140 O   0  0  0  0  0  0  0  0  0  0  0  0
  -20.8880  -29.8480   21.5770 H   0  0  0  0  0  0  0  0  0  0  0  0
  -17.9770  -28.1140   22.7620 C   0  0  0  0  0  0  0  0  0  0  0  0
  -20.5510  -28.2820   22.9580 C   0  0  0  0  0  3  0  0  0  0  0  0
  -20.5900  -26.8940   22.2770 C   0  0  0  0  0  2  0  0  0  0  0  0
  -19.4460  -26.6800   21.2810 C   0  0  0  0  0  2  0  0  0  0  0  0
  -18.0900  -26.8170   21.9800 C   0  0  0  0  0  2  0  0  0  0  0  0
  -19.1330  -28.8110   23.2070 C   0  0  0  0  0  0  0  0  0  0  0  0
  -18.9700  -30.0300   23.9010 C   0  0  0  0  0  3  0  0  0  0  0  0
  -17.6870  -30.5520   24.1520 C   0  0  0  0  0  3  0  0  0  0  0  0
  -16.5480  -29.8490   23.7220 C   0  0  0  0  0  3  0  0  0  0  0  0
  -16.6940  -28.6330   23.0330 C   0  0  0  0  0  3  0  0  0  0  0  0
  -25.8550  -32.3680   23.7940 C   0  0  0  0  0  3  0  0  0  0  0  0
  -25.5640  -33.7760   24.1150 N   0  0  0  0  0  0  0  0  0  0  0  0
  -25.9570  -34.8250   23.3820 C   0  0  0  0  0  0  0  0  0  0  0  0
  -26.6670  -34.7070   22.3790 O   0  0  0  0  0  0  0  0  0  0  0  0
  -24.9330  -33.9430   24.8860 H   0  0  0  0  0  0  0  0  0  0  0  0
  -24.3120  -36.6820   22.9540 C   0  0  0  0  0  1  0  0  0  0  0  0
  -25.4910  -36.2250   23.8280 C   0  0  0  0  0  3  0  0  0  0  0  0
  -27.5910  -37.0440   24.8020 C   0  0  0  0  0  1  0  0  0  0  0  0
  -26.5630  -37.2440   23.7850 N   0  0  0  0  0  0  0  0  0  0  0  0
  -26.1780  -38.1780   23.9040 H   0  0  0  0  0  0  0  0  0  0  0  0
  -26.3100  -31.5930   25.0920 C   0  0  1  0  0  0  0  0  0  0  0  0
  -25.1760  -31.3850   26.1230 C   0  0  0  0  0  1  0  0  0  0  0  0
  -26.8750  -30.2000   24.7330 C   0  0  0  0  0  1  0  0  0  0  0  0
  -27.4580  -32.3640   25.7840 C   0  0  0  0  0  1  0  0  0  0  0  0
  -33.4380  -22.1470   20.5810 C   0  0  0  0  0  1  0  0  0  0  0  0
  -33.3830  -20.9370   21.3310 O   0  0  0  0  0  0  0  0  0  0  0  0
  1  2  1  0
  3  6  1  0
  4  1  2  0
  5  4  1  0
  5  3  2  0
  6 92  1  0
  6  2  2  0
  7 15  1  0
  8 13  1  0
  9 10  1  0
  9  8  1  0
 11 10  1  0
 11 20  1  0
 11 12  1  0
 13  7  1  0
 13 12  1  0
 14  7  2  0
 15 16  1  0
 15  4  1  0
 17 18  2  0
 18 37  1  0
 19 18  1  0
 19 22  1  0
 20 21  1  0
 20 17  1  0
 21 19  2  0
 22 23  1  0
 23 24  2  0
 25 28  1  0
 25 24  1  0
 26 25  2  0
 27 26  1  0
 27 22  2  0
 28 29  1  0
 29 34  2  0
 29 30  1  0
 30 31  2  0
 32 31  1  0
 32 36  1  0
 33 32  2  0
 34 33  1  0
 35 34  1  0
 37 38  1  0
 38 41  1  0
 38 40  1  0
 39 37  2  0
 42 17  1  0
 42 43  1  0
 44 42  1  0
 45 46  1  0
 46  5  1  0
 47 46  1  0
 47 48  1  0
 49 50  1  0
 49 48  2  0
 51 62  2  0
 52 50  1  0
 52 57  1  0
 53 61  1  0
 53 63  1  0
 54 60  1  0
 54 56  1  0
 55 61  1  0
 56 55  1  0
 57 56  2  0
 58 59  1  0
 58 52  2  0
 59 54  2  0
 60 53  1  0
 61 51  1  0
 63 65  2  0
 64 63  1  0
 66 64  1  0
 67 76  2  0
 67 72  1  0
 68 64  1  0
 68 72  1  0
 69 68  1  0
 70 71  1  0
 70 69  1  0
 71 67  1  0
 72 73  2  0
 73 74  1  0
 75 74  2  0
 76 75  1  0
 77 51  1  0
 77 78  1  0
 77 87  1  0
 78 81  1  0
 79 83  1  0
 79 78  1  0
 80 79  2  0
 83 82  1  0
 85 83  1  0
 85 86  1  0
 85 84  1  0
 87 90  1  1
 87 88  1  0
 89 87  1  0
 91 92  1  0
M  ISO  4   7 100  15 100  49 101  50 101
M  END
>  <TORSDO>  (93) 
F 21

>  <SCORE>  (93) 
-14.400

>  <name>  (93) 
94

>  <ligand_id>  (93) 
94

>  <original_smiles>  (93) 
[H]c1c([H])c([H])c2c(c1[H])C([H])([H])C([H])([H])C([H])([H])C2([H])N([H])C(=O)C1([H])N(C(=O)C([H])(N([H])C(=O)C([H])(N([H])C([H])([H])[H])C([H])([H])[H])C(C([H])([H])[H])(C([H])([H])[H])C([H])([H])[H])C([H])([H])c2c([H])c(OC([H])([H])C([H])([H])C([H])([H])N(c3c([H])c(OC([H])([H])[H])c([H])c([H])c3N([H])C(=O)N3C([H])([H])C([H])([H])C([H])([H])C([H])(n4nc(-c5c([H])c([H])c(Oc6c([H])c([H])c(F)c([H])c6F)c([H])c5[H])c(C(=O)N([H])[H])c4N([H])[H])C3([H])[H])C([H])([H])[H])c([H])c([H])c2C1([H])[H]

>  <smiles>  (93) 
[H]c1c([H])c([H])c2c(c1[H])C([H])([H])C([H])([H])C([H])([H])C2([H])N([H])C(=O)C1([H])N(C(=O)C([H])(N([H])C(=O)C([H])(N([H])C([H])([H])[H])C([H])([H])[H])C(C([H])([H])[H])(C([H])([H])[H])C([H])([H])[H])C([H])([H])c2c([H])c(OC([H])([H])C([H])([H])C([H])([H])N(c3c([H])c(OC([H])([H])[H])c([H])c([H])c3N([H])C(=O)N3C([H])([H])C([H])([H])C([H])([H])C([H])(n4nc(-c5c([H])c([H])c(Oc6c([H])c([H])c(F)c([H])c6F)c([H])c5[H])c(C(=O)N([H])[H])c4N([H])[H])C3([H])[H])C([H])([H])[H])c([H])c([H])c2C1([H])[H]

$$$$
95:0:0
     RDKit          3D

 91100  0  0  1  0  0  0  0  0999 V2000
  -28.1220  -24.0000   19.1170 C   0  0  0  0  0  2  0  0  0  0  0  0
  -29.2830  -24.2320   21.2260 C   0  0  0  0  0  2  0  0  0  0  0  0
  -28.0020  -22.4300   19.3680 C   0  0  0  0  0  2  0  0  0  0  0  0
  -29.2000  -22.6580   21.4570 C   0  0  0  0  0  2  0  0  0  0  0  0
  -28.1300  -24.9060   20.3980 C   0  0  0  0  0  3  0  0  0  0  0  0
  -29.0450  -21.8260   20.2380 N   0  0  0  0  0  0  0  0  0  0  0  0
  -28.3350  -19.4280   19.7210 C   0  0  0  0  0  3  0  0  0  0  0  0
  -30.3460  -19.7280   20.9470 C   0  0  0  0  0  3  0  0  0  0  0  0
  -28.5090  -18.0030   19.7980 C   0  0  0  0  0  3  0  0  0  0  0  0
  -30.5390  -18.2950   21.0040 C   0  0  0  0  0  3  0  0  0  0  0  0
  -29.2340  -20.3690   20.3060 C   0  0  0  0  0  0  0  0  0  0  0  0
  -29.6160  -17.3650   20.4350 C   0  0  0  0  0  0  0  0  0  0  0  0
  -30.5000  -14.8270   20.3720 C   0  0  0  0  0  0  0  0  0  0  0  0
  -30.3760  -12.5350   19.3600 C   0  0  0  0  0  2  0  0  0  0  0  0
  -29.4180  -12.5910   18.1470 C   0  0  0  0  0  2  0  0  0  0  0  0
  -27.9520  -12.4000   18.5880 C   0  0  0  0  0  2  0  0  0  0  0  0
  -27.5800  -13.2800   19.8110 C   0  0  0  0  0  3  0  0  0  0  0  0
  -28.6500  -13.1800   20.9210 C   0  0  0  0  0  2  0  0  0  0  0  0
  -29.9370  -13.5690   20.3250 N   0  0  0  0  0  0  0  0  0  0  0  0
  -31.6800  -14.9900   20.0430 O   0  0  0  0  0  0  0  0  0  0  0  0
  -29.6190  -15.8790   20.6010 N   0  0  0  0  0  0  0  0  0  0  0  0
  -28.6970  -15.5080   20.7690 H   0  0  0  0  0  0  0  0  0  0  0  0
  -25.1980  -13.8670   20.5640 C   0  0  0  0  0  0  0  0  0  0  0  0
  -24.1360  -13.0900   20.9370 C   0  0  0  0  0  0  0  0  0  0  0  0
  -24.5990  -11.7400   20.8890 C   0  0  0  0  0  0  0  0  0  0  0  0
  -26.2400  -12.9890   20.3090 N   0  0  0  0  0  0  0  0  0  0  0  0
  -25.8860  -11.7050   20.5680 N   0  0  0  0  0  0  0  0  0  0  0  0
  -23.8740  -10.4760   21.0730 C   0  0  0  0  0  0  0  0  0  0  0  0
  -24.3110   -9.5020   21.9970 C   0  0  0  0  0  3  0  0  0  0  0  0
  -23.5860   -8.3030   22.1700 C   0  0  0  0  0  3  0  0  0  0  0  0
  -22.4090   -8.0710   21.4180 C   0  0  0  0  0  0  0  0  0  0  0  0
  -21.9920   -9.0330   20.4830 C   0  0  0  0  0  3  0  0  0  0  0  0
  -22.7170  -10.2240   20.3080 C   0  0  0  0  0  3  0  0  0  0  0  0
  -21.6560   -6.9250   21.5000 O   0  0  0  0  0  0  0  0  0  0  0  0
  -21.6080   -6.1760   22.6480 C   0  0  0  0  0  0  0  0  0  0  0  0
  -21.1550   -6.7170   23.8720 C   0  0  0  0  0  3  0  0  0  0  0  0
  -21.0560   -5.8930   25.0120 C   0  0  0  0  0  3  0  0  0  0  0  0
  -21.3980   -4.5310   24.9290 C   0  0  0  0  0  0  0  0  0  0  0  0
  -21.8440   -3.9900   23.7100 C   0  0  0  0  0  3  0  0  0  0  0  0
  -21.9450   -4.8090   22.5720 C   0  0  0  0  0  0  0  0  0  0  0  0
  -22.3550   -4.2780   21.3950 F   0  0  0  0  0  0  0  0  0  0  0  0
  -21.2960   -3.7380   26.0200 F   0  0  0  0  0  0  0  0  0  0  0  0
  -22.7410  -13.5650   21.2240 C   0  0  0  0  0  0  0  0  0  0  0  0
  -22.0220  -12.8660   22.0940 N   0  0  0  0  0  0  0  0  0  0  0  0
  -22.2960  -14.5920   20.7110 O   0  0  0  0  0  0  0  0  0  0  0  0
  -22.3940  -12.0350   22.5310 H   0  0  0  0  0  0  0  0  0  0  0  0
  -21.0870  -13.1660   22.3300 H   0  0  0  0  0  0  0  0  0  0  0  0
  -25.3570  -15.2400   20.3950 N   0  0  0  0  0  0  0  0  0  0  0  0
  -24.5810  -15.8830   20.5100 H   0  0  0  0  0  0  0  0  0  0  0  0
  -26.1820  -15.6820   20.0150 H   0  0  0  0  0  0  0  0  0  0  0  0
  -28.2870  -26.4080   20.2390 O   0  0  0  0  0  0  0  0  0  0  0  0
  -24.6120  -31.9100   23.2850 C   0  0  0  0  0  0  0  0  0  0  0  0
  -27.1750  -27.2880   20.2180 C   0  0  0  0  0  0  0  0  0  0  0  0
  -23.3940  -30.5250   21.6440 C   0  0  0  0  0  3  0  0  0  0  0  0
  -24.8290  -28.9580   20.2110 C   0  0  0  0  0  0  0  0  0  0  0  0
  -25.9400  -30.8130   21.4560 C   0  0  0  0  0  2  0  0  0  0  0  0
  -26.0070  -29.4300   20.8030 C   0  0  0  0  0  0  0  0  0  0  0  0
  -27.1840  -28.6110   20.7850 C   0  0  0  0  0  3  0  0  0  0  0  0
  -25.9690  -26.8800   19.6100 C   0  0  0  0  0  3  0  0  0  0  0  0
  -24.8160  -27.6920   19.6020 C   0  0  0  0  0  3  0  0  0  0  0  0
  -23.6010  -29.8490   20.2630 C   0  0  0  0  0  2  0  0  0  0  0  0
  -24.6690  -31.1020   22.1850 N   0  0  0  0  0  0  0  0  0  0  0  0
  -23.5320  -32.1950   23.8230 O   0  0  0  0  0  0  0  0  0  0  0  0
  -22.7220  -29.5150   22.6050 C   0  0  0  0  0  0  0  0  0  0  0  0
  -21.3960  -29.3400   22.4740 N   0  0  0  0  0  0  0  0  0  0  0  0
  -23.3950  -28.8910   23.4290 O   0  0  0  0  0  0  0  0  0  0  0  0
  -20.9110  -29.8950   21.7830 H   0  0  0  0  0  0  0  0  0  0  0  0
  -18.0160  -28.1380   22.9570 C   0  0  0  0  0  0  0  0  0  0  0  0
  -20.5730  -28.4050   23.2440 C   0  0  0  0  0  3  0  0  0  0  0  0
  -20.6820  -26.9710   22.6760 C   0  0  0  0  0  2  0  0  0  0  0  0
  -19.5870  -26.6410   21.6560 C   0  0  0  0  0  2  0  0  0  0  0  0
  -18.2000  -26.7850   22.2890 C   0  0  0  0  0  2  0  0  0  0  0  0
  -19.1300  -28.9050   23.3910 C   0  0  0  0  0  0  0  0  0  0  0  0
  -18.9030  -30.1700   23.9770 C   0  0  0  0  0  3  0  0  0  0  0  0
  -17.5950  -30.6670   24.1330 C   0  0  0  0  0  3  0  0  0  0  0  0
  -16.4970  -29.8980   23.7140 C   0  0  0  0  0  3  0  0  0  0  0  0
  -16.7080  -28.6350   23.1310 C   0  0  0  0  0  3  0  0  0  0  0  0
  -25.8990  -32.5340   23.9070 C   0  0  0  0  0  3  0  0  0  0  0  0
  -25.6010  -33.9350   24.2370 N   0  0  0  0  0  0  0  0  0  0  0  0
  -25.9160  -34.9850   23.4660 C   0  0  0  0  0  0  0  0  0  0  0  0
  -26.5580  -34.8750   22.4170 O   0  0  0  0  0  0  0  0  0  0  0  0
  -25.0290  -34.0950   25.0530 H   0  0  0  0  0  0  0  0  0  0  0  0
  -24.1760  -36.7770   23.1660 C   0  0  0  0  0  1  0  0  0  0  0  0
  -25.4480  -36.3770   23.9310 C   0  0  0  0  0  3  0  0  0  0  0  0
  -27.6100  -37.2720   24.6750 C   0  0  0  0  0  1  0  0  0  0  0  0
  -26.4750  -37.4290   23.7700 N   0  0  0  0  0  0  0  0  0  0  0  0
  -26.0740  -38.3510   23.9220 H   0  0  0  0  0  0  0  0  0  0  0  0
  -26.4070  -31.7610   25.1850 C   0  0  1  0  0  0  0  0  0  0  0  0
  -25.3110  -31.5340   26.2540 C   0  0  0  0  0  1  0  0  0  0  0  0
  -26.9790  -30.3770   24.7990 C   0  0  0  0  0  1  0  0  0  0  0  0
  -27.5640  -32.5460   25.8470 C   0  0  0  0  0  1  0  0  0  0  0  0
  1  3  1  0
  1  5  1  0
  2  4  1  0
  3  6  1  0
  5 51  1  0
  5  2  1  0
  6 11  1  0
  6  4  1  0
  7  9  2  0
  7 11  1  0
  8 10  1  0
  9 12  1  0
 11  8  2  0
 12 21  1  0
 12 10  2  0
 13 21  1  0
 14 19  1  0
 15 16  1  0
 15 14  1  0
 17 16  1  0
 17 26  1  0
 17 18  1  0
 19 13  1  0
 19 18  1  0
 20 13  2  0
 21 22  1  0
 23 24  2  0
 24 43  1  0
 25 24  1  0
 25 28  1  0
 26 23  1  0
 26 27  1  0
 27 25  2  0
 28 29  1  0
 29 30  2  0
 31 34  1  0
 31 30  1  0
 32 31  2  0
 33 32  1  0
 33 28  2  0
 34 35  1  0
 35 36  1  0
 36 37  2  0
 38 37  1  0
 38 42  1  0
 39 38  2  0
 40 35  2  0
 40 39  1  0
 41 40  1  0
 43 44  1  0
 44 47  1  0
 44 46  1  0
 45 43  2  0
 48 49  1  0
 48 23  1  0
 50 48  1  0
 52 63  2  0
 53 51  1  0
 53 58  1  0
 54 62  1  0
 54 64  1  0
 55 61  1  0
 55 57  1  0
 56 62  1  0
 57 56  1  0
 58 57  2  0
 59 53  2  0
 60 59  1  0
 60 55  2  0
 61 54  1  0
 62 52  1  0
 64 66  2  0
 65 64  1  0
 67 65  1  0
 68 77  2  0
 68 73  1  0
 69 65  1  0
 69 73  1  0
 70 69  1  0
 71 72  1  0
 71 70  1  0
 72 68  1  0
 73 74  2  0
 74 75  1  0
 76 75  2  0
 77 76  1  0
 78 52  1  0
 78 79  1  0
 78 88  1  0
 79 82  1  0
 80 84  1  0
 80 79  1  0
 81 80  2  0
 84 83  1  0
 86 87  1  0
 86 84  1  0
 86 85  1  0
 88 91  1  1
 88 89  1  0
 90 88  1  0
M  ISO  4   5 101  13 100  21 100  51 101
M  END
>  <TORSDO>  (94) 
F 17

>  <SCORE>  (94) 
-15.343

>  <name>  (94) 
95

>  <ligand_id>  (94) 
95

>  <original_smiles>  (94) 
[H]c1c([H])c([H])c2c(c1[H])C([H])([H])C([H])([H])C([H])([H])C2([H])N([H])C(=O)C1([H])N(C(=O)C([H])(N([H])C(=O)C([H])(N([H])C([H])([H])[H])C([H])([H])[H])C(C([H])([H])[H])(C([H])([H])[H])C([H])([H])[H])C([H])([H])c2c([H])c(OC3([H])C([H])([H])C([H])([H])N(c4c([H])c([H])c(N([H])C(=O)N5C([H])([H])C([H])([H])C([H])([H])C([H])(n6nc(-c7c([H])c([H])c(Oc8c([H])c([H])c(F)c([H])c8F)c([H])c7[H])c(C(=O)N([H])[H])c6N([H])[H])C5([H])[H])c([H])c4[H])C([H])([H])C3([H])[H])c([H])c([H])c2C1([H])[H]

>  <smiles>  (94) 
[H]c1c([H])c([H])c2c(c1[H])C([H])([H])C([H])([H])C([H])([H])C2([H])N([H])C(=O)C1([H])N(C(=O)C([H])(N([H])C(=O)C([H])(N([H])C([H])([H])[H])C([H])([H])[H])C(C([H])([H])[H])(C([H])([H])[H])C([H])([H])[H])C([H])([H])c2c([H])c(OC3([H])C([H])([H])C([H])([H])N(c4c([H])c([H])c(N([H])C(=O)N5C([H])([H])C([H])([H])C([H])([H])C([H])(n6nc(-c7c([H])c([H])c(Oc8c([H])c([H])c(F)c([H])c8F)c([H])c7[H])c(C(=O)N([H])[H])c6N([H])[H])C5([H])[H])c([H])c4[H])C([H])([H])C3([H])[H])c([H])c([H])c2C1([H])[H]

$$$$
96:0:0
     RDKit          3D

 94103  0  0  1  0  0  0  0  0999 V2000
  -31.5490  -23.4480   20.7950 C   0  0  0  0  0  2  0  0  0  0  0  0
  -30.7350  -24.6070   20.2300 C   0  0  0  0  0  2  0  0  0  0  0  0
  -30.4780  -22.5350   21.3850 C   0  0  0  0  0  2  0  0  0  0  0  0
  -29.3650  -24.0080   19.8400 C   0  0  0  0  0  3  0  0  0  0  0  0
  -29.3470  -22.5870   20.4310 N   0  0  1  0  0  4  0  0  0  0  0  0
  -28.4980  -22.4550   20.9610 H   0  0  0  0  0  0  0  0  0  0  0  0
  -29.3920  -21.4430   19.4300 C   0  0  0  0  0  2  0  0  0  0  0  0
  -30.8390  -19.2580   19.6460 C   0  0  0  0  0  3  0  0  0  0  0  0
  -30.9940  -17.8530   19.8670 C   0  0  0  0  0  3  0  0  0  0  0  0
  -28.5590  -19.1480   20.4010 C   0  0  0  0  0  3  0  0  0  0  0  0
  -29.6130  -19.9450   19.8860 C   0  0  0  0  0  0  0  0  0  0  0  0
  -29.9170  -17.0550   20.3400 C   0  0  0  0  0  0  0  0  0  0  0  0
  -28.7100  -17.7470   20.6180 C   0  0  0  0  0  0  0  0  0  0  0  0
  -27.6500  -17.0350   21.0730 F   0  0  0  0  0  0  0  0  0  0  0  0
  -30.6840  -14.5810   20.0630 C   0  0  0  0  0  0  0  0  0  0  0  0
  -30.4060  -12.3630   18.9730 C   0  0  0  0  0  2  0  0  0  0  0  0
  -29.4060  -12.5290   17.8050 C   0  0  0  0  0  2  0  0  0  0  0  0
  -27.9540  -12.3810   18.3000 C   0  0  0  0  0  2  0  0  0  0  0  0
  -27.6660  -13.2250   19.5700 C   0  0  0  0  0  3  0  0  0  0  0  0
  -28.7710  -13.0260   20.6330 C   0  0  0  0  0  2  0  0  0  0  0  0
  -30.0610  -13.3610   20.0050 N   0  0  0  0  0  0  0  0  0  0  0  0
  -31.8120  -14.7500   19.5920 O   0  0  0  0  0  0  0  0  0  0  0  0
  -29.9220  -15.6080   20.5480 N   0  0  0  0  0  0  0  0  0  0  0  0
  -29.0700  -15.2820   20.9790 H   0  0  0  0  0  0  0  0  0  0  0  0
  -25.3120  -13.8450   20.3990 C   0  0  0  0  0  0  0  0  0  0  0  0
  -24.2520  -13.0810   20.8050 C   0  0  0  0  0  0  0  0  0  0  0  0
  -24.6970  -11.7250   20.7390 C   0  0  0  0  0  0  0  0  0  0  0  0
  -26.3350  -12.9560   20.1090 N   0  0  0  0  0  0  0  0  0  0  0  0
  -25.9720  -11.6750   20.3720 N   0  0  0  0  0  0  0  0  0  0  0  0
  -23.9640  -10.4690   20.9470 C   0  0  0  0  0  0  0  0  0  0  0  0
  -24.4100   -9.4970   21.8700 C   0  0  0  0  0  3  0  0  0  0  0  0
  -23.6770   -8.3070   22.0650 C   0  0  0  0  0  3  0  0  0  0  0  0
  -22.4830   -8.0810   21.3390 C   0  0  0  0  0  0  0  0  0  0  0  0
  -22.0560   -9.0420   20.4060 C   0  0  0  0  0  3  0  0  0  0  0  0
  -22.7900  -10.2240   20.2090 C   0  0  0  0  0  3  0  0  0  0  0  0
  -21.7210   -6.9420   21.4440 O   0  0  0  0  0  0  0  0  0  0  0  0
  -21.6740   -6.2130   22.6050 C   0  0  0  0  0  0  0  0  0  0  0  0
  -21.2750   -6.7890   23.8310 C   0  0  0  0  0  3  0  0  0  0  0  0
  -21.1720   -5.9870   24.9860 C   0  0  0  0  0  3  0  0  0  0  0  0
  -21.4590   -4.6100   24.9150 C   0  0  0  0  0  0  0  0  0  0  0  0
  -21.8530   -4.0340   23.6940 C   0  0  0  0  0  3  0  0  0  0  0  0
  -21.9570   -4.8340   22.5420 C   0  0  0  0  0  0  0  0  0  0  0  0
  -22.3150   -4.2700   21.3630 F   0  0  0  0  0  0  0  0  0  0  0  0
  -21.3540   -3.8390   26.0220 F   0  0  0  0  0  0  0  0  0  0  0  0
  -22.8750  -13.5720   21.1470 C   0  0  0  0  0  0  0  0  0  0  0  0
  -22.1800  -12.8780   22.0410 N   0  0  0  0  0  0  0  0  0  0  0  0
  -22.4270  -14.6090   20.6580 O   0  0  0  0  0  0  0  0  0  0  0  0
  -22.5570  -12.0410   22.4590 H   0  0  0  0  0  0  0  0  0  0  0  0
  -21.2590  -13.1910   22.3140 H   0  0  0  0  0  0  0  0  0  0  0  0
  -25.4840  -15.2160   20.2360 N   0  0  0  0  0  0  0  0  0  0  0  0
  -24.7430  -15.8770   20.4370 H   0  0  0  0  0  0  0  0  0  0  0  0
  -26.3540  -15.6680   19.9870 H   0  0  0  0  0  0  0  0  0  0  0  0
  -28.1990  -25.0010   20.2800 C   0  0  0  0  0  2  0  0  0  0  0  0
  -28.3510  -26.4320   19.9180 O   0  0  0  0  0  0  0  0  0  0  0  0
  -24.5220  -31.6900   23.0520 C   0  0  0  0  0  0  0  0  0  0  0  0
  -27.2100  -27.2420   19.9210 C   0  0  0  0  0  0  0  0  0  0  0  0
  -23.3440  -30.3140   21.3730 C   0  0  0  0  0  3  0  0  0  0  0  0
  -24.8210  -28.8090   19.9280 C   0  0  0  0  0  0  0  0  0  0  0  0
  -25.8790  -30.6690   21.2110 C   0  0  0  0  0  2  0  0  0  0  0  0
  -25.9790  -29.3060   20.5400 C   0  0  0  0  0  0  0  0  0  0  0  0
  -27.1780  -28.5350   20.5250 C   0  0  0  0  0  3  0  0  0  0  0  0
  -26.0320  -26.7970   19.2790 C   0  0  0  0  0  3  0  0  0  0  0  0
  -24.8490  -27.5590   19.2890 C   0  0  0  0  0  3  0  0  0  0  0  0
  -23.5750  -29.6690   19.9820 C   0  0  0  0  0  2  0  0  0  0  0  0
  -24.6000  -30.9070   21.9360 N   0  0  0  0  0  0  0  0  0  0  0  0
  -23.4330  -31.9440   23.5860 O   0  0  0  0  0  0  0  0  0  0  0  0
  -22.6870  -29.2700   22.3070 C   0  0  0  0  0  0  0  0  0  0  0  0
  -21.3590  -29.1010   22.1840 N   0  0  0  0  0  0  0  0  0  0  0  0
  -23.3700  -28.6150   23.0990 O   0  0  0  0  0  0  0  0  0  0  0  0
  -20.8680  -29.6810   21.5170 H   0  0  0  0  0  0  0  0  0  0  0  0
  -17.9770  -27.9240   22.6890 C   0  0  0  0  0  0  0  0  0  0  0  0
  -20.5410  -28.1430   22.9300 C   0  0  0  0  0  3  0  0  0  0  0  0
  -20.6180  -26.7340   22.2990 C   0  0  0  0  0  2  0  0  0  0  0  0
  -19.4970  -26.4630   21.2900 C   0  0  0  0  0  2  0  0  0  0  0  0
  -18.1270  -26.5990   21.9600 C   0  0  0  0  0  2  0  0  0  0  0  0
  -19.1110  -28.6570   23.1310 C   0  0  0  0  0  0  0  0  0  0  0  0
  -18.9160  -29.8980   23.7730 C   0  0  0  0  0  3  0  0  0  0  0  0
  -17.6190  -30.4080   23.9770 C   0  0  0  0  0  3  0  0  0  0  0  0
  -16.5000  -29.6720   23.5510 C   0  0  0  0  0  3  0  0  0  0  0  0
  -16.6800  -28.4310   22.9130 C   0  0  0  0  0  3  0  0  0  0  0  0
  -25.7940  -32.3200   23.6970 C   0  0  0  0  0  3  0  0  0  0  0  0
  -26.3170  -31.5180   24.9520 C   0  0  1  0  0  0  0  0  0  0  0  0
  -25.2240  -31.2370   26.0090 C   0  0  0  0  0  1  0  0  0  0  0  0
  -26.9170  -30.1600   24.5210 C   0  0  0  0  0  1  0  0  0  0  0  0
  -27.4560  -32.3070   25.6400 C   0  0  0  0  0  1  0  0  0  0  0  0
  -25.4650  -33.7030   24.0680 N   0  0  0  0  0  0  0  0  0  0  0  0
  -25.7910  -34.7840   23.3450 C   0  0  0  0  0  0  0  0  0  0  0  0
  -26.4710  -34.7210   22.3180 O   0  0  0  0  0  0  0  0  0  0  0  0
  -24.8610  -33.8250   24.8680 H   0  0  0  0  0  0  0  0  0  0  0  0
  -24.0460  -36.5690   23.0290 C   0  0  0  0  0  1  0  0  0  0  0  0
  -25.2820  -36.1520   23.8420 C   0  0  0  0  0  3  0  0  0  0  0  0
  -27.3980  -37.0320   24.7250 C   0  0  0  0  0  1  0  0  0  0  0  0
  -26.3040  -37.2190   23.7750 N   0  0  0  0  0  0  0  0  0  0  0  0
  -25.8860  -38.1290   23.9460 H   0  0  0  0  0  0  0  0  0  0  0  0
  1  3  1  0
  2  1  1  0
  4  2  1  0
  4 53  1  0
  4  5  1  0
  5  6  1  1
  5  3  1  0
  7 11  1  0
  7  5  1  0
  8  9  2  0
  8 11  1  0
  9 12  1  0
 10 13  1  0
 11 10  2  0
 12 23  1  0
 12 13  2  0
 13 14  1  0
 15 23  1  0
 16 21  1  0
 17 18  1  0
 17 16  1  0
 19 18  1  0
 19 28  1  0
 19 20  1  0
 21 15  1  0
 21 20  1  0
 22 15  2  0
 23 24  1  0
 25 26  2  0
 26 45  1  0
 27 26  1  0
 27 30  1  0
 28 29  1  0
 28 25  1  0
 29 27  2  0
 30 31  1  0
 31 32  2  0
 33 36  1  0
 33 32  1  0
 34 33  2  0
 35 34  1  0
 35 30  2  0
 36 37  1  0
 37 38  1  0
 38 39  2  0
 40 39  1  0
 40 44  1  0
 41 40  2  0
 42 37  2  0
 42 41  1  0
 43 42  1  0
 45 46  1  0
 46 49  1  0
 46 48  1  0
 47 45  2  0
 50 25  1  0
 50 51  1  0
 52 50  1  0
 54 56  1  0
 54 53  1  0
 55 66  2  0
 56 61  1  0
 57 65  1  0
 57 67  1  0
 58 64  1  0
 58 60  1  0
 59 65  1  0
 60 59  1  0
 61 60  2  0
 62 63  1  0
 62 56  2  0
 63 58  2  0
 64 57  1  0
 65 55  1  0
 67 69  2  0
 68 67  1  0
 70 68  1  0
 71 80  2  0
 71 76  1  0
 72 68  1  0
 72 76  1  0
 73 72  1  0
 74 75  1  0
 74 73  1  0
 75 71  1  0
 76 77  2  0
 77 78  1  0
 79 78  2  0
 80 79  1  0
 81 55  1  0
 81 86  1  0
 81 82  1  0
 82 85  1  1
 82 83  1  0
 84 82  1  0
 86 89  1  0
 87 91  1  0
 87 86  1  0
 88 87  2  0
 91 90  1  0
 93 91  1  0
 93 94  1  0
 93 92  1  0
M  ISO  4  15 100  23 100  53 101  54 101
M  END
>  <TORSDO>  (95) 
F 19

>  <SCORE>  (95) 
-13.893

>  <name>  (95) 
96

>  <ligand_id>  (95) 
96

>  <original_smiles>  (95) 
[H]c1c([H])c([H])c2c(c1[H])C([H])([H])C([H])([H])C([H])([H])C2([H])N([H])C(=O)C1([H])N(C(=O)C([H])(N([H])C(=O)C([H])(N([H])C([H])([H])[H])C([H])([H])[H])C(C([H])([H])[H])(C([H])([H])[H])C([H])([H])[H])C([H])([H])c2c([H])c(OC([H])([H])C3([H])C([H])([H])C([H])([H])C([H])([H])[N+]3([H])C([H])([H])c3c([H])c([H])c(N([H])C(=O)N4C([H])([H])C([H])([H])C([H])([H])C([H])(n5nc(-c6c([H])c([H])c(Oc7c([H])c([H])c(F)c([H])c7F)c([H])c6[H])c(C(=O)N([H])[H])c5N([H])[H])C4([H])[H])c(F)c3[H])c([H])c([H])c2C1([H])[H]

>  <smiles>  (95) 
[H]c1c([H])c([H])c2c(c1[H])C([H])([H])C([H])([H])C([H])([H])C2([H])N([H])C(=O)C1([H])N(C(=O)C([H])(N([H])C(=O)C([H])(N([H])C([H])([H])[H])C([H])([H])[H])C(C([H])([H])[H])(C([H])([H])[H])C([H])([H])[H])C([H])([H])c2c([H])c(OC([H])([H])C3([H])C([H])([H])C([H])([H])C([H])([H])[N+]3([H])C([H])([H])c3c([H])c([H])c(N([H])C(=O)N4C([H])([H])C([H])([H])C([H])([H])C([H])(n5nc(-c6c([H])c([H])c(Oc7c([H])c([H])c(F)c([H])c7F)c([H])c6[H])c(C(=O)N([H])[H])c5N([H])[H])C4([H])[H])c(F)c3[H])c([H])c([H])c2C1([H])[H]

$$$$
97:0:0
     RDKit          3D

 91 99  0  0  1  0  0  0  0  0999 V2000
  -30.6570  -18.1350   19.3520 C   0  0  0  0  0  3  0  0  0  0  0  0
  -29.7950  -18.0890   21.5890 C   0  0  0  0  0  3  0  0  0  0  0  0
  -30.3230  -17.3550   20.5000 C   0  0  0  0  0  0  0  0  0  0  0  0
  -29.9110  -20.2840   20.4140 C   0  0  0  0  0  0  0  0  0  0  0  0
  -30.4490  -19.5610   19.3040 C   0  0  0  0  0  0  0  0  0  0  0  0
  -29.6080  -19.4970   21.5540 C   0  0  0  0  0  0  0  0  0  0  0  0
  -30.7760  -20.2270   18.1690 F   0  0  0  0  0  0  0  0  0  0  0  0
  -29.1040  -20.1070   22.6550 F   0  0  0  0  0  0  0  0  0  0  0  0
  -31.1360  -14.8640   20.1720 C   0  0  0  0  0  0  0  0  0  0  0  0
  -30.9420  -12.5700   19.2100 C   0  0  0  0  0  2  0  0  0  0  0  0
  -30.0120  -12.6450   17.9770 C   0  0  0  0  0  2  0  0  0  0  0  0
  -28.5300  -12.5330   18.3880 C   0  0  0  0  0  2  0  0  0  0  0  0
  -28.1700  -13.4620   19.5770 C   0  0  0  0  0  3  0  0  0  0  0  0
  -29.2050  -13.3220   20.7160 C   0  0  0  0  0  2  0  0  0  0  0  0
  -30.5320  -13.6320   20.1530 N   0  0  0  0  0  0  0  0  0  0  0  0
  -32.2760  -15.0300   19.7240 O   0  0  0  0  0  0  0  0  0  0  0  0
  -30.3520  -15.8890   20.6350 N   0  0  0  0  0  0  0  0  0  0  0  0
  -29.5520  -15.5200   21.1270 H   0  0  0  0  0  0  0  0  0  0  0  0
  -25.7870  -14.1600   20.2420 C   0  0  0  0  0  0  0  0  0  0  0  0
  -24.6900  -13.4320   20.6180 C   0  0  0  0  0  0  0  0  0  0  0  0
  -25.1090  -12.0660   20.6290 C   0  0  0  0  0  0  0  0  0  0  0  0
  -26.8060  -13.2400   20.0470 N   0  0  0  0  0  0  0  0  0  0  0  0
  -26.4010  -11.9770   20.3390 N   0  0  0  0  0  0  0  0  0  0  0  0
  -24.3400  -10.8330   20.8450 C   0  0  0  0  0  0  0  0  0  0  0  0
  -24.7310   -9.8780   21.8080 C   0  0  0  0  0  3  0  0  0  0  0  0
  -23.9660   -8.7090   22.0090 C   0  0  0  0  0  3  0  0  0  0  0  0
  -22.7950   -8.4880   21.2460 C   0  0  0  0  0  0  0  0  0  0  0  0
  -22.4220   -9.4310   20.2730 C   0  0  0  0  0  3  0  0  0  0  0  0
  -23.1880  -10.5910   20.0690 C   0  0  0  0  0  3  0  0  0  0  0  0
  -22.0040   -7.3700   21.3550 O   0  0  0  0  0  0  0  0  0  0  0  0
  -21.9250   -6.6540   22.5230 C   0  0  0  0  0  0  0  0  0  0  0  0
  -21.4940   -7.2450   23.7300 C   0  0  0  0  0  3  0  0  0  0  0  0
  -21.3610   -6.4570   24.8920 C   0  0  0  0  0  3  0  0  0  0  0  0
  -21.6490   -5.0810   24.8460 C   0  0  0  0  0  0  0  0  0  0  0  0
  -22.0730   -4.4890   23.6420 C   0  0  0  0  0  3  0  0  0  0  0  0
  -22.2070   -5.2740   22.4830 C   0  0  0  0  0  0  0  0  0  0  0  0
  -22.5960   -4.6960   21.3220 F   0  0  0  0  0  0  0  0  0  0  0  0
  -21.5140   -4.3210   25.9580 F   0  0  0  0  0  0  0  0  0  0  0  0
  -23.3060  -13.9600   20.8600 C   0  0  0  0  0  0  0  0  0  0  0  0
  -22.5490  -13.3170   21.7420 N   0  0  0  0  0  0  0  0  0  0  0  0
  -22.9050  -14.9810   20.3010 O   0  0  0  0  0  0  0  0  0  0  0  0
  -22.8860  -12.4910   22.2150 H   0  0  0  0  0  0  0  0  0  0  0  0
  -21.6200  -13.6550   21.9470 H   0  0  0  0  0  0  0  0  0  0  0  0
  -25.9980  -15.5190   20.0290 N   0  0  0  0  0  0  0  0  0  0  0  0
  -25.2520  -16.2000   20.1080 H   0  0  0  0  0  0  0  0  0  0  0  0
  -26.8630  -15.9190   19.6880 H   0  0  0  0  0  0  0  0  0  0  0  0
  -29.6620  -21.6760   20.5370 O   0  0  0  0  0  0  0  0  0  0  0  0
  -29.6470  -22.6690   19.4600 C   0  0  0  0  0  2  0  0  0  0  0  0
  -29.2300  -24.1370   19.9640 C   0  0  0  0  0  3  0  0  0  0  0  0
  -29.0920  -25.3360   18.9190 C   0  0  0  0  0  3  0  0  0  0  0  0
  -28.9570  -26.7320   19.4060 O   0  0  0  0  0  0  0  0  0  0  0  0
  -24.9450  -31.5050   23.0110 C   0  0  0  0  0  0  0  0  0  0  0  0
  -27.7540  -27.4570   19.4440 C   0  0  0  0  0  0  0  0  0  0  0  0
  -23.7890  -30.2290   21.2390 C   0  0  0  0  0  3  0  0  0  0  0  0
  -25.2950  -28.9180   19.6380 C   0  0  0  0  0  0  0  0  0  0  0  0
  -26.3030  -30.7040   21.0640 C   0  0  0  0  0  2  0  0  0  0  0  0
  -26.4430  -29.4090   20.2710 C   0  0  0  0  0  0  0  0  0  0  0  0
  -27.6690  -28.6890   20.1660 C   0  0  0  0  0  3  0  0  0  0  0  0
  -26.5730  -27.0080   18.8080 C   0  0  0  0  0  3  0  0  0  0  0  0
  -25.3620  -27.7240   18.9010 C   0  0  0  0  0  3  0  0  0  0  0  0
  -24.0150  -29.7140   19.7920 C   0  0  0  0  0  2  0  0  0  0  0  0
  -25.0310  -30.8250   21.8300 N   0  0  0  0  0  0  0  0  0  0  0  0
  -23.8580  -31.6640   23.5850 O   0  0  0  0  0  0  0  0  0  0  0  0
  -23.1960  -29.0820   22.0930 C   0  0  0  0  0  0  0  0  0  0  0  0
  -21.8810  -28.8460   21.9560 N   0  0  0  0  0  0  0  0  0  0  0  0
  -23.9180  -28.4120   22.8340 O   0  0  0  0  0  0  0  0  0  0  0  0
  -21.3530  -29.4450   21.3360 H   0  0  0  0  0  0  0  0  0  0  0  0
  -18.5810  -27.4120   22.3370 C   0  0  0  0  0  0  0  0  0  0  0  0
  -21.1230  -27.7880   22.6280 C   0  0  0  0  0  3  0  0  0  0  0  0
  -21.3020  -26.4330   21.9060 C   0  0  0  0  0  2  0  0  0  0  0  0
  -20.2120  -26.1530   20.8660 C   0  0  0  0  0  2  0  0  0  0  0  0
  -18.8300  -26.1520   21.5250 C   0  0  0  0  0  2  0  0  0  0  0  0
  -19.6590  -28.1890   22.8410 C   0  0  0  0  0  0  0  0  0  0  0  0
  -19.3720  -29.3690   23.5610 C   0  0  0  0  0  3  0  0  0  0  0  0
  -18.0420  -29.7750   23.7800 C   0  0  0  0  0  3  0  0  0  0  0  0
  -16.9800  -28.9950   23.2920 C   0  0  0  0  0  3  0  0  0  0  0  0
  -17.2510  -27.8140   22.5760 C   0  0  0  0  0  3  0  0  0  0  0  0
  -26.2030  -32.1340   23.6850 C   0  0  0  0  0  3  0  0  0  0  0  0
  -26.7820  -31.2550   24.8620 C   0  0  1  0  0  0  0  0  0  0  0  0
  -25.7250  -30.8490   25.9140 C   0  0  0  0  0  1  0  0  0  0  0  0
  -27.4220  -29.9590   24.3130 C   0  0  0  0  0  1  0  0  0  0  0  0
  -27.9070  -32.0290   25.5900 C   0  0  0  0  0  1  0  0  0  0  0  0
  -25.8250  -33.4680   24.1750 N   0  0  0  0  0  0  0  0  0  0  0  0
  -26.1060  -34.6180   23.5480 C   0  0  0  0  0  0  0  0  0  0  0  0
  -26.7800  -34.6680   22.5150 O   0  0  0  0  0  0  0  0  0  0  0  0
  -25.2240  -33.4980   24.9860 H   0  0  0  0  0  0  0  0  0  0  0  0
  -24.2890  -36.3510   23.4030 C   0  0  0  0  0  1  0  0  0  0  0  0
  -25.5520  -35.9180   24.1630 C   0  0  0  0  0  3  0  0  0  0  0  0
  -27.6430  -36.8070   25.0960 C   0  0  0  0  0  1  0  0  0  0  0  0
  -26.5310  -37.0260   24.1740 N   0  0  0  0  0  0  0  0  0  0  0  0
  -26.0800  -37.9030   24.4240 H   0  0  0  0  0  0  0  0  0  0  0  0
  1  3  1  0
  3 17  1  0
  3  2  2  0
  4 47  1  0
  4  6  2  0
  5  1  2  0
  5  4  1  0
  6  2  1  0
  6  8  1  0
  7  5  1  0
  9 17  1  0
 10 15  1  0
 11 12  1  0
 11 10  1  0
 13 12  1  0
 13 22  1  0
 13 14  1  0
 15  9  1  0
 15 14  1  0
 16  9  2  0
 17 18  1  0
 19 20  2  0
 20 21  1  0
 20 39  1  0
 21 24  1  0
 22 19  1  0
 22 23  1  0
 23 21  2  0
 24 25  1  0
 25 26  2  0
 27 30  1  0
 27 26  1  0
 28 27  2  0
 29 28  1  0
 29 24  2  0
 30 31  1  0
 31 32  1  0
 32 33  2  0
 34 33  1  0
 34 38  1  0
 35 34  2  0
 36 31  2  0
 36 35  1  0
 37 36  1  0
 39 40  1  0
 40 43  1  0
 40 42  1  0
 41 39  2  0
 44 45  1  0
 44 19  1  0
 46 44  1  0
 48 49  1  0
 48 47  1  0
 50 51  1  0
 50 49  2  0
 51 53  1  0
 52 63  2  0
 53 58  1  0
 54 62  1  0
 54 64  1  0
 55 61  1  0
 55 57  1  0
 56 62  1  0
 57 56  1  0
 58 57  2  0
 59 60  1  0
 59 53  2  0
 60 55  2  0
 61 54  1  0
 62 52  1  0
 64 66  2  0
 65 64  1  0
 67 65  1  0
 68 77  2  0
 68 73  1  0
 69 65  1  0
 69 73  1  0
 70 69  1  0
 71 72  1  0
 71 70  1  0
 72 68  1  0
 73 74  2  0
 74 75  1  0
 76 75  2  0
 77 76  1  0
 78 52  1  0
 78 83  1  0
 78 79  1  0
 79 82  1  1
 79 80  1  0
 81 79  1  0
 83 86  1  0
 84 88  1  0
 84 83  1  0
 85 84  2  0
 88 87  1  0
 88 90  1  0
 90 91  1  0
 90 89  1  0
M  ISO  4   9 100  17 100  50 101  51 101
M  END
>  <TORSDO>  (96) 
F 20

>  <SCORE>  (96) 
-10.016

>  <name>  (96) 
97

>  <ligand_id>  (96) 
97

>  <original_smiles>  (96) 
[H]c1c([H])c([H])c2c(c1[H])C([H])([H])C([H])([H])C([H])([H])C2([H])N([H])C(=O)C1([H])N(C(=O)C([H])(N([H])C(=O)C([H])(N([H])C([H])([H])[H])C([H])([H])[H])C(C([H])([H])[H])(C([H])([H])[H])C([H])([H])[H])C([H])([H])c2c([H])c(OC([H])([H])C([H])([H])C([H])([H])Oc3c(F)c([H])c(N([H])C(=O)N4C([H])([H])C([H])([H])C([H])([H])C([H])(n5nc(-c6c([H])c([H])c(Oc7c([H])c([H])c(F)c([H])c7F)c([H])c6[H])c(C(=O)N([H])[H])c5N([H])[H])C4([H])[H])c([H])c3F)c([H])c([H])c2C1([H])[H]

>  <smiles>  (96) 
[H]c1c([H])c([H])c2c(c1[H])C([H])([H])C([H])([H])C([H])([H])C2([H])N([H])C(=O)C1([H])N(C(=O)C([H])(N([H])C(=O)C([H])(N([H])C([H])([H])[H])C([H])([H])[H])C(C([H])([H])[H])(C([H])([H])[H])C([H])([H])[H])C([H])([H])c2c([H])c(OC([H])([H])C([H])([H])C([H])([H])Oc3c(F)c([H])c(N([H])C(=O)N4C([H])([H])C([H])([H])C([H])([H])C([H])(n5nc(-c6c([H])c([H])c(Oc7c([H])c([H])c(F)c([H])c7F)c([H])c6[H])c(C(=O)N([H])[H])c5N([H])[H])C4([H])[H])c([H])c3F)c([H])c([H])c2C1([H])[H]

$$$$
98:0:0
     RDKit          3D

 92100  0  0  1  0  0  0  0  0999 V2000
  -28.3210  -21.4280   20.4730 C   0  0  0  0  0  2  0  0  0  0  0  0
  -28.8380  -18.9460   21.2400 C   0  0  0  0  0  3  0  0  0  0  0  0
  -29.3060  -17.6080   21.0140 C   0  0  0  0  0  3  0  0  0  0  0  0
  -30.0110  -18.2840   18.8290 C   0  0  0  0  0  3  0  0  0  0  0  0
  -28.9420  -19.9870   20.2690 C   0  0  0  0  0  0  0  0  0  0  0  0
  -29.9130  -17.2180   19.7870 C   0  0  0  0  0  0  0  0  0  0  0  0
  -29.5490  -19.6110   19.0520 C   0  0  0  0  0  0  0  0  0  0  0  0
  -29.6720  -20.5370   18.0690 F   0  0  0  0  0  0  0  0  0  0  0  0
  -30.8600  -14.8350   20.2710 C   0  0  0  0  0  0  0  0  0  0  0  0
  -30.6380  -12.5440   19.3590 C   0  0  0  0  0  2  0  0  0  0  0  0
  -29.7040  -12.5500   18.1270 C   0  0  0  0  0  2  0  0  0  0  0  0
  -28.2450  -12.3710   18.5650 C   0  0  0  0  0  2  0  0  0  0  0  0
  -27.8430  -13.3210   19.7260 C   0  0  0  0  0  3  0  0  0  0  0  0
  -28.8960  -13.3260   20.8550 C   0  0  0  0  0  2  0  0  0  0  0  0
  -30.1870  -13.6390   20.2340 N   0  0  0  0  0  0  0  0  0  0  0  0
  -32.0890  -14.8310   20.3740 O   0  0  0  0  0  0  0  0  0  0  0  0
  -30.9380  -15.7320   18.0880 C   0  0  0  0  0  1  0  0  0  0  0  0
  -30.3480  -15.8320   19.4460 N   0  0  0  0  0  0  0  0  0  0  0  0
  -25.4410  -13.9010   20.4140 C   0  0  0  0  0  0  0  0  0  0  0  0
  -24.3740  -13.1190   20.7670 C   0  0  0  0  0  0  0  0  0  0  0  0
  -24.8530  -11.7740   20.7660 C   0  0  0  0  0  0  0  0  0  0  0  0
  -26.4990  -13.0300   20.2130 N   0  0  0  0  0  0  0  0  0  0  0  0
  -26.1510  -11.7470   20.4930 N   0  0  0  0  0  0  0  0  0  0  0  0
  -24.1360  -10.5040   20.9520 C   0  0  0  0  0  0  0  0  0  0  0  0
  -24.5250   -9.5760   21.9430 C   0  0  0  0  0  3  0  0  0  0  0  0
  -23.8050   -8.3730   22.1160 C   0  0  0  0  0  3  0  0  0  0  0  0
  -22.6860   -8.0900   21.2990 C   0  0  0  0  0  0  0  0  0  0  0  0
  -22.3190   -9.0080   20.2970 C   0  0  0  0  0  3  0  0  0  0  0  0
  -23.0390  -10.2020   20.1230 C   0  0  0  0  0  3  0  0  0  0  0  0
  -21.9460   -6.9350   21.3780 O   0  0  0  0  0  0  0  0  0  0  0  0
  -21.7850   -6.2640   22.5630 C   0  0  0  0  0  0  0  0  0  0  0  0
  -21.1810   -6.8680   23.6870 C   0  0  0  0  0  3  0  0  0  0  0  0
  -20.9710   -6.1200   24.8620 C   0  0  0  0  0  3  0  0  0  0  0  0
  -21.3590   -4.7670   24.9160 C   0  0  0  0  0  0  0  0  0  0  0  0
  -21.9580   -4.1620   23.7960 C   0  0  0  0  0  3  0  0  0  0  0  0
  -22.1680   -4.9080   22.6230 C   0  0  0  0  0  0  0  0  0  0  0  0
  -22.7250   -4.3140   21.5400 F   0  0  0  0  0  0  0  0  0  0  0  0
  -21.1510   -4.0460   26.0410 F   0  0  0  0  0  0  0  0  0  0  0  0
  -22.9650  -13.5850   20.9910 C   0  0  0  0  0  0  0  0  0  0  0  0
  -22.2210  -12.8990   21.8530 N   0  0  0  0  0  0  0  0  0  0  0  0
  -22.5260  -14.5910   20.4350 O   0  0  0  0  0  0  0  0  0  0  0  0
  -22.5850  -12.0870   22.3300 H   0  0  0  0  0  0  0  0  0  0  0  0
  -21.2730  -13.1950   22.0400 H   0  0  0  0  0  0  0  0  0  0  0  0
  -25.5970  -15.2690   20.2200 N   0  0  0  0  0  0  0  0  0  0  0  0
  -24.8240  -15.9170   20.3190 H   0  0  0  0  0  0  0  0  0  0  0  0
  -26.4530  -15.7160   19.9160 H   0  0  0  0  0  0  0  0  0  0  0  0
  -30.3920  -22.8080   20.7930 C   0  0  0  0  0  1  0  0  0  0  0  0
  -29.1270  -22.6480   20.0420 N   0  0  2  0  0  4  0  0  0  0  0  0
  -29.4360  -22.3380   19.1290 H   0  0  0  0  0  0  0  0  0  0  0  0
  -28.4160  -23.9700   19.6860 C   0  0  0  0  0  2  0  0  0  0  0  0
  -28.3540  -25.2020   20.7050 C   0  0  0  0  0  2  0  0  0  0  0  0
  -28.4410  -26.5900   20.1830 O   0  0  0  0  0  0  0  0  0  0  0  0
  -24.5870  -31.8870   23.2200 C   0  0  0  0  0  0  0  0  0  0  0  0
  -27.3030  -27.3990   20.1750 C   0  0  0  0  0  0  0  0  0  0  0  0
  -23.4300  -30.4970   21.5380 C   0  0  0  0  0  3  0  0  0  0  0  0
  -24.9230  -28.9730   20.1270 C   0  0  0  0  0  0  0  0  0  0  0  0
  -25.9650  -30.8500   21.4020 C   0  0  0  0  0  2  0  0  0  0  0  0
  -26.0730  -29.4760   20.7470 C   0  0  0  0  0  0  0  0  0  0  0  0
  -27.2700  -28.7040   20.7530 C   0  0  0  0  0  3  0  0  0  0  0  0
  -26.1340  -26.9360   19.5380 C   0  0  0  0  0  3  0  0  0  0  0  0
  -24.9550  -27.7090   19.5120 C   0  0  0  0  0  3  0  0  0  0  0  0
  -23.6780  -29.8380   20.1540 C   0  0  0  0  0  2  0  0  0  0  0  0
  -24.6790  -31.0940   22.1120 N   0  0  0  0  0  0  0  0  0  0  0  0
  -23.4890  -32.1450   23.7360 O   0  0  0  0  0  0  0  0  0  0  0  0
  -22.7590  -29.4630   22.4720 C   0  0  0  0  0  0  0  0  0  0  0  0
  -21.4330  -29.2890   22.3310 N   0  0  0  0  0  0  0  0  0  0  0  0
  -23.4310  -28.8190   23.2830 O   0  0  0  0  0  0  0  0  0  0  0  0
  -20.9510  -29.8650   21.6540 H   0  0  0  0  0  0  0  0  0  0  0  0
  -18.0490  -28.0950   22.7720 C   0  0  0  0  0  0  0  0  0  0  0  0
  -20.6050  -28.3370   23.0720 C   0  0  0  0  0  3  0  0  0  0  0  0
  -20.7080  -26.9190   22.4660 C   0  0  0  0  0  2  0  0  0  0  0  0
  -19.6130  -26.6220   21.4350 C   0  0  0  0  0  2  0  0  0  0  0  0
  -18.2260  -26.7590   22.0690 C   0  0  0  0  0  2  0  0  0  0  0  0
  -19.1650  -28.8440   23.2290 C   0  0  0  0  0  0  0  0  0  0  0  0
  -18.9460  -30.0940   23.8440 C   0  0  0  0  0  3  0  0  0  0  0  0
  -17.6410  -30.5970   24.0080 C   0  0  0  0  0  3  0  0  0  0  0  0
  -16.5380  -29.8450   23.5690 C   0  0  0  0  0  3  0  0  0  0  0  0
  -16.7430  -28.5960   22.9570 C   0  0  0  0  0  3  0  0  0  0  0  0
  -25.8500  -32.5230   23.8770 C   0  0  0  0  0  3  0  0  0  0  0  0
  -26.3370  -31.7500   25.1630 C   0  0  1  0  0  0  0  0  0  0  0  0
  -25.2180  -31.5030   26.2030 C   0  0  0  0  0  1  0  0  0  0  0  0
  -26.9390  -30.3810   24.7770 C   0  0  0  0  0  1  0  0  0  0  0  0
  -27.4650  -32.5480   25.8610 C   0  0  0  0  0  1  0  0  0  0  0  0
  -25.5270  -33.9190   24.2070 N   0  0  0  0  0  0  0  0  0  0  0  0
  -25.8660  -34.9760   23.4570 C   0  0  0  0  0  0  0  0  0  0  0  0
  -26.5510  -34.8780   22.4350 O   0  0  0  0  0  0  0  0  0  0  0  0
  -24.9250  -34.0690   25.0030 H   0  0  0  0  0  0  0  0  0  0  0  0
  -24.1360  -36.7610   23.0780 C   0  0  0  0  0  1  0  0  0  0  0  0
  -25.3650  -36.3610   23.9110 C   0  0  0  0  0  3  0  0  0  0  0  0
  -27.4750  -37.2550   24.7900 C   0  0  0  0  0  1  0  0  0  0  0  0
  -26.3950  -37.4180   23.8210 N   0  0  0  0  0  0  0  0  0  0  0  0
  -25.9820  -38.3370   23.9590 H   0  0  0  0  0  0  0  0  0  0  0  0
  3  2  1  0
  4  7  2  0
  4  6  1  0
  5  1  1  0
  5  2  2  0
  6  3  2  0
  7  5  1  0
  8  7  1  0
  9 16  2  0
 10 15  1  0
 11 12  1  0
 11 10  1  0
 13 12  1  0
 13 22  1  0
 13 14  1  0
 15  9  1  0
 15 14  1  0
 17 18  1  0
 18  6  1  0
 18  9  1  0
 19 20  2  0
 20 39  1  0
 21 20  1  0
 21 24  1  0
 22 19  1  0
 22 23  1  0
 23 21  2  0
 24 25  1  0
 25 26  2  0
 27 30  1  0
 27 26  1  0
 28 27  2  0
 29 28  1  0
 29 24  2  0
 30 31  1  0
 31 36  2  0
 31 32  1  0
 32 33  2  0
 33 34  1  0
 34 38  1  0
 35 34  2  0
 36 35  1  0
 37 36  1  0
 39 40  1  0
 40 43  1  0
 40 42  1  0
 41 39  2  0
 44 45  1  0
 44 19  1  0
 46 44  1  0
 48  1  1  0
 48 47  1  0
 48 49  1  6
 50 48  1  0
 50 51  1  0
 52 51  1  0
 53 64  2  0
 54 52  1  0
 54 59  1  0
 55 63  1  0
 55 65  1  0
 56 62  1  0
 56 58  1  0
 57 63  1  0
 58 59  2  0
 58 57  1  0
 60 54  2  0
 61 60  1  0
 61 56  2  0
 62 55  1  0
 63 53  1  0
 65 67  2  0
 66 65  1  0
 68 66  1  0
 69 78  2  0
 69 74  1  0
 70 66  1  0
 70 74  1  0
 71 70  1  0
 72 73  1  0
 72 71  1  0
 73 69  1  0
 74 75  2  0
 75 76  1  0
 77 76  2  0
 78 77  1  0
 79 53  1  0
 79 84  1  0
 79 80  1  0
 80 83  1  1
 80 81  1  0
 82 80  1  0
 84 87  1  0
 85 89  1  0
 85 84  1  0
 86 85  2  0
 89 88  1  0
 91 89  1  0
 91 92  1  0
 91 90  1  0
M  ISO  4   9 100  18 100  51 101  52 101
M  END
>  <TORSDO>  (97) 
F 20

>  <SCORE>  (97) 
-13.010

>  <name>  (97) 
98

>  <ligand_id>  (97) 
98

>  <original_smiles>  (97) 
[H]c1c([H])c([H])c2c(c1[H])C([H])([H])C([H])([H])C([H])([H])C2([H])N([H])C(=O)C1([H])N(C(=O)C([H])(N([H])C(=O)C([H])(N([H])C([H])([H])[H])C([H])([H])[H])C(C([H])([H])[H])(C([H])([H])[H])C([H])([H])[H])C([H])([H])c2c([H])c(OC([H])([H])C([H])([H])[N+]([H])(C([H])([H])[H])C([H])([H])c3c([H])c([H])c(N(C(=O)N4C([H])([H])C([H])([H])C([H])([H])C([H])(n5nc(-c6c([H])c([H])c(Oc7c([H])c([H])c(F)c([H])c7F)c([H])c6[H])c(C(=O)N([H])[H])c5N([H])[H])C4([H])[H])C([H])([H])[H])c([H])c3F)c([H])c([H])c2C1([H])[H]

>  <smiles>  (97) 
[H]c1c([H])c([H])c2c(c1[H])C([H])([H])C([H])([H])C([H])([H])C2([H])N([H])C(=O)C1([H])N(C(=O)C([H])(N([H])C(=O)C([H])(N([H])C([H])([H])[H])C([H])([H])[H])C(C([H])([H])[H])(C([H])([H])[H])C([H])([H])[H])C([H])([H])c2c([H])c(OC([H])([H])C([H])([H])[N+]([H])(C([H])([H])[H])C([H])([H])c3c([H])c([H])c(N(C(=O)N4C([H])([H])C([H])([H])C([H])([H])C([H])(n5nc(-c6c([H])c([H])c(Oc7c([H])c([H])c(F)c([H])c7F)c([H])c6[H])c(C(=O)N([H])[H])c5N([H])[H])C4([H])[H])C([H])([H])[H])c([H])c3F)c([H])c([H])c2C1([H])[H]

$$$$
