0:0:0
     RDKit          3D

 91100  0  0  1  0  0  0  0  0999 V2000
  -29.7410  -24.5000   21.2490 C   0  0  0  0  0  2  0  0  0  0  0  0
  -30.2450  -23.0290   21.0220 C   0  0  0  0  0  2  0  0  0  0  0  0
  -28.3400  -23.3360   19.7070 C   0  0  0  0  0  2  0  0  0  0  0  0
  -28.3940  -24.7710   20.5250 C   0  0  0  0  0  3  0  0  0  0  0  0
  -29.2000  -22.2470   20.3670 N   0  0  0  0  0  0  0  0  0  0  0  0
  -30.6160  -20.0510   20.1370 C   0  0  0  0  0  3  0  0  0  0  0  0
  -30.7840  -18.5950   20.1290 C   0  0  0  0  0  3  0  0  0  0  0  0
  -28.2950  -19.8140   20.3480 C   0  0  0  0  0  3  0  0  0  0  0  0
  -29.3590  -20.7630   20.2330 C   0  0  0  0  0  0  0  0  0  0  0  0
  -29.7050  -17.6540   20.2630 C   0  0  0  0  0  0  0  0  0  0  0  0
  -28.4590  -18.3700   20.3940 C   0  0  0  0  0  0  0  0  0  0  0  0
  -27.0360  -17.4500   20.6990 Cl  0  0  0  0  0  0  0  0  0  0  0  0
  -30.5330  -15.0000   19.9200 C   0  0  0  0  0  0  0  0  0  0  0  0
  -30.3600  -12.6860   18.8800 C   0  0  0  0  0  2  0  0  0  0  0  0
  -29.3320  -12.6990   17.7220 C   0  0  0  0  0  2  0  0  0  0  0  0
  -27.9020  -12.4750   18.2520 C   0  0  0  0  0  2  0  0  0  0  0  0
  -27.5920  -13.3450   19.4970 C   0  0  0  0  0  3  0  0  0  0  0  0
  -28.7280  -13.2860   20.5410 C   0  0  0  0  0  2  0  0  0  0  0  0
  -29.9590  -13.7290   19.8690 N   0  0  0  0  0  0  0  0  0  0  0  0
  -31.6920  -15.1200   19.5090 O   0  0  0  0  0  0  0  0  0  0  0  0
  -29.7190  -16.1080   20.2860 N   0  0  0  0  0  0  0  0  0  0  0  0
  -28.8350  -15.7590   20.6260 H   0  0  0  0  0  0  0  0  0  0  0  0
  -25.2820  -13.9030   20.4550 C   0  0  0  0  0  0  0  0  0  0  0  0
  -24.2370  -13.1250   20.8600 C   0  0  0  0  0  0  0  0  0  0  0  0
  -24.6670  -11.7740   20.6900 C   0  0  0  0  0  0  0  0  0  0  0  0
  -26.2900  -13.0320   20.0760 N   0  0  0  0  0  0  0  0  0  0  0  0
  -25.9290  -11.7380   20.2760 N   0  0  0  0  0  0  0  0  0  0  0  0
  -23.9230  -10.5170   20.8380 C   0  0  0  0  0  0  0  0  0  0  0  0
  -24.3770   -9.4880   21.6920 C   0  0  0  0  0  3  0  0  0  0  0  0
  -23.6330   -8.2970   21.8330 C   0  0  0  0  0  3  0  0  0  0  0  0
  -22.4210   -8.1280   21.1210 C   0  0  0  0  0  0  0  0  0  0  0  0
  -21.9860   -9.1470   20.2550 C   0  0  0  0  0  3  0  0  0  0  0  0
  -22.7310  -10.3290   20.1110 C   0  0  0  0  0  3  0  0  0  0  0  0
  -21.6460   -6.9960   21.1770 O   0  0  0  0  0  0  0  0  0  0  0  0
  -21.6070   -6.2050   22.2970 C   0  0  0  0  0  0  0  0  0  0  0  0
  -21.2190   -6.7160   23.5560 C   0  0  0  0  0  3  0  0  0  0  0  0
  -21.1270   -5.8530   24.6670 C   0  0  0  0  0  3  0  0  0  0  0  0
  -21.4100   -4.4820   24.5200 C   0  0  0  0  0  0  0  0  0  0  0  0
  -21.7920   -3.9710   23.2670 C   0  0  0  0  0  3  0  0  0  0  0  0
  -21.8870   -4.8310   22.1580 C   0  0  0  0  0  0  0  0  0  0  0  0
  -22.2340   -4.3310   20.9480 F   0  0  0  0  0  0  0  0  0  0  0  0
  -21.3140   -3.6510   25.5840 F   0  0  0  0  0  0  0  0  0  0  0  0
  -22.8800  -13.6090   21.2830 C   0  0  0  0  0  0  0  0  0  0  0  0
  -22.2120  -12.8690   22.1600 N   0  0  0  0  0  0  0  0  0  0  0  0
  -22.4270  -14.6780   20.8760 O   0  0  0  0  0  0  0  0  0  0  0  0
  -22.5920  -12.0020   22.5110 H   0  0  0  0  0  0  0  0  0  0  0  0
  -21.3050  -13.1740   22.4860 H   0  0  0  0  0  0  0  0  0  0  0  0
  -25.4440  -15.2760   20.3520 N   0  0  0  0  0  0  0  0  0  0  0  0
  -24.7110  -15.9210   20.6240 H   0  0  0  0  0  0  0  0  0  0  0  0
  -26.2950  -15.7480   20.0770 H   0  0  0  0  0  0  0  0  0  0  0  0
  -28.3880  -26.2580   20.0540 O   0  0  0  0  0  0  0  0  0  0  0  0
  -24.6270  -31.8430   23.1060 C   0  0  0  0  0  0  0  0  0  0  0  0
  -27.2750  -27.1690   20.0900 C   0  0  0  0  0  0  0  0  0  0  0  0
  -23.4550  -30.4550   21.4370 C   0  0  0  0  0  3  0  0  0  0  0  0
  -24.9290  -28.8840   20.0330 C   0  0  0  0  0  0  0  0  0  0  0  0
  -26.0060  -30.7360   21.3050 C   0  0  0  0  0  2  0  0  0  0  0  0
  -26.0970  -29.3450   20.6540 C   0  0  0  0  0  0  0  0  0  0  0  0
  -27.2730  -28.5070   20.6560 C   0  0  0  0  0  3  0  0  0  0  0  0
  -26.0770  -26.7930   19.4510 C   0  0  0  0  0  3  0  0  0  0  0  0
  -24.9300  -27.6210   19.4170 C   0  0  0  0  0  3  0  0  0  0  0  0
  -23.6980  -29.7790   20.0600 C   0  0  0  0  0  2  0  0  0  0  0  0
  -24.7160  -31.0330   22.0050 N   0  0  0  0  0  0  0  0  0  0  0  0
  -23.5330  -32.1180   23.6220 O   0  0  0  0  0  0  0  0  0  0  0  0
  -22.7650  -29.4420   22.3830 C   0  0  0  0  0  0  0  0  0  0  0  0
  -21.4350  -29.2850   22.2500 N   0  0  0  0  0  0  0  0  0  0  0  0
  -23.4270  -28.7960   23.1990 O   0  0  0  0  0  0  0  0  0  0  0  0
  -20.9560  -29.8560   21.5690 H   0  0  0  0  0  0  0  0  0  0  0  0
  -18.0340  -28.1510   22.7690 C   0  0  0  0  0  0  0  0  0  0  0  0
  -20.6030  -28.3420   23.0040 C   0  0  0  0  0  3  0  0  0  0  0  0
  -20.6600  -26.9280   22.3800 C   0  0  0  0  0  2  0  0  0  0  0  0
  -19.5350  -26.6650   21.3740 C   0  0  0  0  0  2  0  0  0  0  0  0
  -18.1680  -26.8220   22.0450 C   0  0  0  0  0  2  0  0  0  0  0  0
  -19.1780  -28.8720   23.2050 C   0  0  0  0  0  0  0  0  0  0  0  0
  -18.9980  -30.1180   23.8440 C   0  0  0  0  0  3  0  0  0  0  0  0
  -17.7080  -30.6420   24.0500 C   0  0  0  0  0  3  0  0  0  0  0  0
  -16.5790  -29.9180   23.6290 C   0  0  0  0  0  3  0  0  0  0  0  0
  -16.7430  -28.6740   22.9940 C   0  0  0  0  0  3  0  0  0  0  0  0
  -25.8940  -32.4760   23.7580 C   0  0  0  0  0  3  0  0  0  0  0  0
  -25.5710  -33.8700   24.1050 N   0  0  0  0  0  0  0  0  0  0  0  0
  -25.8930  -34.9370   23.3610 C   0  0  0  0  0  0  0  0  0  0  0  0
  -26.5590  -34.8510   22.3250 O   0  0  0  0  0  0  0  0  0  0  0  0
  -24.9800  -34.0090   24.9110 H   0  0  0  0  0  0  0  0  0  0  0  0
  -24.1440  -36.7200   23.0480 C   0  0  0  0  0  1  0  0  0  0  0  0
  -25.4000  -36.3170   23.8400 C   0  0  0  0  0  3  0  0  0  0  0  0
  -27.5340  -37.2160   24.6560 C   0  0  0  0  0  1  0  0  0  0  0  0
  -26.4220  -37.3810   23.7250 N   0  0  0  0  0  0  0  0  0  0  0  0
  -26.0080  -38.2960   23.8850 H   0  0  0  0  0  0  0  0  0  0  0  0
  -26.3900  -31.6940   25.0360 C   0  0  1  0  0  0  0  0  0  0  0  0
  -25.2810  -31.4450   26.0850 C   0  0  0  0  0  1  0  0  0  0  0  0
  -26.9820  -30.3210   24.6430 C   0  0  0  0  0  1  0  0  0  0  0  0
  -27.5280  -32.4840   25.7250 C   0  0  0  0  0  1  0  0  0  0  0  0
  2  1  1  0
  3  5  1  0
  3  4  1  0
  4 51  1  0
  4  1  1  0
  5  2  1  0
  6  9  1  0
  7  6  2  0
  7 10  1  0
  8 11  1  0
  9  8  2  0
  9  5  1  0
 10 21  1  0
 10 11  2  0
 11 12  1  0
 13 21  1  0
 14 19  1  0
 15 16  1  0
 15 14  1  0
 17 16  1  0
 17 26  1  0
 17 18  1  0
 19 13  1  0
 19 18  1  0
 20 13  2  0
 21 22  1  0
 23 24  2  0
 24 43  1  0
 25 28  1  0
 25 24  1  0
 26 27  1  0
 26 23  1  0
 27 25  2  0
 28 29  1  0
 29 30  2  0
 31 34  1  0
 31 30  1  0
 32 31  2  0
 33 32  1  0
 33 28  2  0
 34 35  1  0
 35 36  1  0
 36 37  2  0
 38 37  1  0
 38 42  1  0
 39 38  2  0
 40 35  2  0
 40 39  1  0
 41 40  1  0
 43 44  1  0
 44 47  1  0
 44 46  1  0
 45 43  2  0
 48 23  1  0
 48 49  1  0
 50 48  1  0
 51 53  1  0
 52 63  2  0
 53 58  1  0
 54 62  1  0
 54 64  1  0
 55 61  1  0
 55 57  1  0
 56 62  1  0
 57 58  2  0
 57 56  1  0
 59 53  2  0
 60 59  1  0
 60 55  2  0
 61 54  1  0
 62 52  1  0
 64 66  2  0
 65 64  1  0
 67 65  1  0
 68 77  2  0
 68 73  1  0
 69 65  1  0
 69 73  1  0
 70 69  1  0
 71 72  1  0
 71 70  1  0
 72 68  1  0
 73 74  2  0
 74 75  1  0
 76 75  2  0
 77 76  1  0
 78 52  1  0
 78 79  1  0
 78 88  1  0
 79 82  1  0
 80 84  1  0
 80 79  1  0
 81 80  2  0
 84 83  1  0
 86 84  1  0
 86 87  1  0
 86 85  1  0
 88 91  1  1
 88 89  1  0
 90 88  1  0
M  ISO  4   4 101  13 100  21 100  51 101
M  END
>  <TORSDO>  (1) 
F 17

>  <SCORE>  (1) 
-14.528

>  <name>  (1) 
0

>  <ligand_id>  (1) 
0

>  <original_smiles>  (1) 
[H]c1c([H])c([H])c2c(c1[H])C([H])([H])C([H])([H])C([H])([H])C2([H])N([H])C(=O)C1([H])N(C(=O)C([H])(N([H])C(=O)C([H])(N([H])C([H])([H])[H])C([H])([H])[H])C(C([H])([H])[H])(C([H])([H])[H])C([H])([H])[H])C([H])([H])c2c([H])c(OC3([H])C([H])([H])N(c4c([H])c([H])c(N([H])C(=O)N5C([H])([H])C([H])([H])C([H])([H])C([H])(n6nc(-c7c([H])c([H])c(Oc8c([H])c([H])c(F)c([H])c8F)c([H])c7[H])c(C(=O)N([H])[H])c6N([H])[H])C5([H])[H])c(Cl)c4[H])C([H])([H])C3([H])[H])c([H])c([H])c2C1([H])[H]

>  <smiles>  (1) 
[H]c1c([H])c([H])c2c(c1[H])C([H])([H])C([H])([H])C([H])([H])C2([H])N([H])C(=O)C1([H])N(C(=O)C([H])(N([H])C(=O)C([H])(N([H])C([H])([H])[H])C([H])([H])[H])C(C([H])([H])[H])(C([H])([H])[H])C([H])([H])[H])C([H])([H])c2c([H])c(OC3([H])C([H])([H])N(c4c([H])c([H])c(N([H])C(=O)N5C([H])([H])C([H])([H])C([H])([H])C([H])(n6nc(-c7c([H])c([H])c(Oc8c([H])c([H])c(F)c([H])c8F)c([H])c7[H])c(C(=O)N([H])[H])c6N([H])[H])C5([H])[H])c(Cl)c4[H])C([H])([H])C3([H])[H])c([H])c([H])c2C1([H])[H]

$$$$
1:0:0
     RDKit          3D

 89 97  0  0  1  0  0  0  0  0999 V2000
  -27.6070  -19.5970   20.9640 C   0  0  0  0  0  3  0  0  0  0  0  0
  -28.4380  -18.5030   20.6390 C   0  0  0  0  0  3  0  0  0  0  0  0
  -27.9480  -20.9270   20.6260 C   0  0  0  0  0  3  0  0  0  0  0  0
  -29.9720  -20.0750   19.6040 C   0  0  0  0  0  3  0  0  0  0  0  0
  -29.6550  -18.6960   19.9560 C   0  0  0  0  0  0  0  0  0  0  0  0
  -29.1390  -21.2280   19.9260 C   0  0  0  0  0  0  0  0  0  0  0  0
  -30.6040  -17.4460   19.6550 C   0  0  0  0  0  2  0  0  0  0  0  0
  -31.0050  -14.8590   19.8330 C   0  0  0  0  0  0  0  0  0  0  0  0
  -30.7670  -12.5390   18.9450 C   0  0  0  0  0  2  0  0  0  0  0  0
  -29.7640  -12.5590   17.7700 C   0  0  0  0  0  2  0  0  0  0  0  0
  -28.3220  -12.3990   18.2870 C   0  0  0  0  0  2  0  0  0  0  0  0
  -28.0080  -13.3330   19.4870 C   0  0  0  0  0  3  0  0  0  0  0  0
  -29.1270  -13.3040   20.5500 C   0  0  0  0  0  2  0  0  0  0  0  0
  -30.3850  -13.6310   19.8680 N   0  0  0  0  0  0  0  0  0  0  0  0
  -32.1710  -14.9460   19.4390 O   0  0  0  0  0  0  0  0  0  0  0  0
  -30.2360  -16.0010   20.0100 N   0  0  0  0  0  0  0  0  0  0  0  0
  -29.2820  -15.8450   20.2940 H   0  0  0  0  0  0  0  0  0  0  0  0
  -25.6970  -13.9450   20.4130 C   0  0  0  0  0  0  0  0  0  0  0  0
  -24.6420  -13.1810   20.8260 C   0  0  0  0  0  0  0  0  0  0  0  0
  -25.0650  -11.8220   20.7060 C   0  0  0  0  0  0  0  0  0  0  0  0
  -26.6970  -13.0530   20.0630 N   0  0  0  0  0  0  0  0  0  0  0  0
  -26.3290  -11.7680   20.3040 N   0  0  0  0  0  0  0  0  0  0  0  0
  -24.3210  -10.5700   20.8940 C   0  0  0  0  0  0  0  0  0  0  0  0
  -24.7300   -9.6010   21.8370 C   0  0  0  0  0  3  0  0  0  0  0  0
  -23.9850   -8.4150   22.0130 C   0  0  0  0  0  3  0  0  0  0  0  0
  -22.8170   -8.1890   21.2470 C   0  0  0  0  0  0  0  0  0  0  0  0
  -22.4270   -9.1460   20.2930 C   0  0  0  0  0  3  0  0  0  0  0  0
  -23.1730  -10.3230   20.1150 C   0  0  0  0  0  3  0  0  0  0  0  0
  -22.0450   -7.0550   21.3320 O   0  0  0  0  0  0  0  0  0  0  0  0
  -21.8910   -6.3780   22.5140 C   0  0  0  0  0  0  0  0  0  0  0  0
  -21.3280   -6.9890   23.6560 C   0  0  0  0  0  3  0  0  0  0  0  0
  -21.1230   -6.2370   24.8290 C   0  0  0  0  0  3  0  0  0  0  0  0
  -21.4710   -4.8740   24.8620 C   0  0  0  0  0  0  0  0  0  0  0  0
  -22.0290   -4.2620   23.7250 C   0  0  0  0  0  3  0  0  0  0  0  0
  -22.2340   -5.0120   22.5540 C   0  0  0  0  0  0  0  0  0  0  0  0
  -22.7510   -4.4120   21.4550 F   0  0  0  0  0  0  0  0  0  0  0  0
  -21.2680   -4.1490   25.9870 F   0  0  0  0  0  0  0  0  0  0  0  0
  -23.2810  -13.6780   21.2150 C   0  0  0  0  0  0  0  0  0  0  0  0
  -22.6010  -12.9670   22.1070 N   0  0  0  0  0  0  0  0  0  0  0  0
  -22.8330  -14.7310   20.7640 O   0  0  0  0  0  0  0  0  0  0  0  0
  -22.9800  -12.1130   22.4880 H   0  0  0  0  0  0  0  0  0  0  0  0
  -21.6920  -13.2820   22.4130 H   0  0  0  0  0  0  0  0  0  0  0  0
  -25.8830  -15.3190   20.2800 N   0  0  0  0  0  0  0  0  0  0  0  0
  -25.1320  -15.9760   20.4590 H   0  0  0  0  0  0  0  0  0  0  0  0
  -26.6920  -15.7510   19.8540 H   0  0  0  0  0  0  0  0  0  0  0  0
  -29.4720  -22.5690   19.5560 O   0  0  0  0  0  0  0  0  0  0  0  0
  -28.7210  -23.7860   20.0140 C   0  0  0  0  0  2  0  0  0  0  0  0
  -29.0170  -25.2120   19.2950 C   0  0  0  0  0  2  0  0  0  0  0  0
  -28.8560  -26.5630   19.9370 O   0  0  0  0  0  0  0  0  0  0  0  0
  -24.8210  -31.6340   23.1600 C   0  0  0  0  0  0  0  0  0  0  0  0
  -27.6910  -27.3580   19.8850 C   0  0  0  0  0  0  0  0  0  0  0  0
  -23.7120  -30.2870   21.4150 C   0  0  0  0  0  3  0  0  0  0  0  0
  -25.2560  -28.8840   19.9250 C   0  0  0  0  0  0  0  0  0  0  0  0
  -26.2380  -30.7180   21.3030 C   0  0  0  0  0  2  0  0  0  0  0  0
  -26.3910  -29.3820   20.5760 C   0  0  0  0  0  0  0  0  0  0  0  0
  -27.6060  -28.6300   20.5460 C   0  0  0  0  0  3  0  0  0  0  0  0
  -26.5280  -26.9170   19.2170 C   0  0  0  0  0  3  0  0  0  0  0  0
  -25.3300  -27.6610   19.2370 C   0  0  0  0  0  3  0  0  0  0  0  0
  -23.9820  -29.7020   20.0020 C   0  0  0  0  0  2  0  0  0  0  0  0
  -24.9420  -30.8960   22.0180 N   0  0  0  0  0  0  0  0  0  0  0  0
  -23.7160  -31.8320   23.6880 O   0  0  0  0  0  0  0  0  0  0  0  0
  -23.0780  -29.1890   22.3010 C   0  0  0  0  0  0  0  0  0  0  0  0
  -21.7610  -28.9670   22.1430 N   0  0  0  0  0  0  0  0  0  0  0  0
  -23.7690  -28.5400   23.0920 O   0  0  0  0  0  0  0  0  0  0  0  0
  -21.2610  -29.5470   21.4830 H   0  0  0  0  0  0  0  0  0  0  0  0
  -18.4250  -27.6190   22.5260 C   0  0  0  0  0  0  0  0  0  0  0  0
  -20.9700  -27.9510   22.8380 C   0  0  0  0  0  3  0  0  0  0  0  0
  -21.1280  -26.5670   22.1670 C   0  0  0  0  0  2  0  0  0  0  0  0
  -20.0450  -26.2740   21.1230 C   0  0  0  0  0  2  0  0  0  0  0  0
  -18.6550  -26.3250   21.7640 C   0  0  0  0  0  2  0  0  0  0  0  0
  -19.5110  -28.3900   23.0180 C   0  0  0  0  0  0  0  0  0  0  0  0
  -19.2440  -29.5990   23.6950 C   0  0  0  0  0  3  0  0  0  0  0  0
  -17.9210  -30.0400   23.8830 C   0  0  0  0  0  3  0  0  0  0  0  0
  -16.8480  -29.2670   23.4070 C   0  0  0  0  0  3  0  0  0  0  0  0
  -17.1000  -28.0580   22.7340 C   0  0  0  0  0  3  0  0  0  0  0  0
  -26.0610  -32.2850   23.8480 C   0  0  0  0  0  3  0  0  0  0  0  0
  -26.5500  -31.4930   25.1230 C   0  0  1  0  0  0  0  0  0  0  0  0
  -25.4260  -31.2010   26.1440 C   0  0  0  0  0  1  0  0  0  0  0  0
  -27.1820  -30.1410   24.7180 C   0  0  0  0  0  1  0  0  0  0  0  0
  -27.6560  -32.2970   25.8460 C   0  0  0  0  0  1  0  0  0  0  0  0
  -25.6990  -33.6640   24.2070 N   0  0  0  0  0  0  0  0  0  0  0  0
  -26.0170  -34.7480   23.4870 C   0  0  0  0  0  0  0  0  0  0  0  0
  -26.7150  -34.6940   22.4710 O   0  0  0  0  0  0  0  0  0  0  0  0
  -25.0790  -33.7780   24.9960 H   0  0  0  0  0  0  0  0  0  0  0  0
  -24.2350  -36.4920   23.1510 C   0  0  0  0  0  1  0  0  0  0  0  0
  -25.4770  -36.1080   23.9710 C   0  0  0  0  0  3  0  0  0  0  0  0
  -27.5630  -37.0510   24.8610 C   0  0  0  0  0  1  0  0  0  0  0  0
  -26.4750  -37.1980   23.8970 N   0  0  0  0  0  0  0  0  0  0  0  0
  -26.0350  -38.1020   24.0510 H   0  0  0  0  0  0  0  0  0  0  0  0
  2  1  1  0
  3  1  2  0
  4  6  2  0
  4  5  1  0
  5  2  2  0
  6  3  1  0
  7  5  1  0
  7 16  1  0
  8 14  1  0
  8 16  1  0
  9 14  1  0
 10 11  1  0
 10  9  1  0
 12 11  1  0
 12 21  1  0
 12 13  1  0
 14 13  1  0
 15  8  2  0
 16 17  1  0
 18 19  2  0
 19 38  1  0
 20 19  1  0
 20 23  1  0
 21 22  1  0
 21 18  1  0
 22 20  2  0
 23 24  1  0
 24 25  2  0
 26 29  1  0
 26 25  1  0
 27 26  2  0
 28 27  1  0
 28 23  2  0
 29 30  1  0
 30 35  2  0
 30 31  1  0
 31 32  2  0
 32 33  1  0
 33 37  1  0
 34 33  2  0
 35 34  1  0
 36 35  1  0
 38 39  1  0
 39 42  1  0
 39 41  1  0
 40 38  2  0
 43 18  1  0
 43 44  1  0
 45 43  1  0
 46  6  1  0
 46 47  1  0
 48 49  1  0
 48 47  1  0
 50 61  2  0
 51 49  1  0
 51 56  1  0
 52 60  1  0
 52 62  1  0
 53 59  1  0
 53 55  1  0
 54 60  1  0
 55 54  1  0
 56 55  2  0
 57 58  1  0
 57 51  2  0
 58 53  2  0
 59 52  1  0
 60 50  1  0
 62 64  2  0
 63 62  1  0
 65 63  1  0
 66 75  2  0
 66 71  1  0
 67 63  1  0
 67 71  1  0
 68 67  1  0
 69 70  1  0
 69 68  1  0
 70 66  1  0
 71 72  2  0
 72 73  1  0
 74 73  2  0
 75 74  1  0
 76 50  1  0
 76 81  1  0
 76 77  1  0
 77 80  1  1
 77 78  1  0
 79 77  1  0
 81 84  1  0
 82 86  1  0
 82 81  1  0
 83 82  2  0
 86 85  1  0
 88 86  1  0
 88 89  1  0
 88 87  1  0
M  ISO  4   8 100  16 100  48 101  49 101
M  END
>  <TORSDO>  (2) 
F 20

>  <SCORE>  (2) 
-11.645

>  <name>  (2) 
1

>  <ligand_id>  (2) 
1

>  <original_smiles>  (2) 
[H]c1c([H])c(OC([H])([H])C([H])([H])Oc2c([H])c([H])c3c(c2[H])C([H])([H])N(C(=O)C([H])(N([H])C(=O)C([H])(N([H])C([H])([H])[H])C([H])([H])[H])C(C([H])([H])[H])(C([H])([H])[H])C([H])([H])[H])C([H])(C(=O)N([H])C2([H])c4c([H])c([H])c([H])c([H])c4C([H])([H])C([H])([H])C2([H])[H])C3([H])[H])c([H])c(C([H])([H])N([H])C(=O)N2C([H])([H])C([H])([H])C([H])([H])C([H])(n3nc(-c4c([H])c([H])c(Oc5c([H])c([H])c(F)c([H])c5F)c([H])c4[H])c(C(=O)N([H])[H])c3N([H])[H])C2([H])[H])c1[H]

>  <smiles>  (2) 
[H]c1c([H])c(OC([H])([H])C([H])([H])Oc2c([H])c([H])c3c(c2[H])C([H])([H])N(C(=O)C([H])(N([H])C(=O)C([H])(N([H])C([H])([H])[H])C([H])([H])[H])C(C([H])([H])[H])(C([H])([H])[H])C([H])([H])[H])C([H])(C(=O)N([H])C2([H])c4c([H])c([H])c([H])c([H])c4C([H])([H])C([H])([H])C2([H])[H])C3([H])[H])c([H])c(C([H])([H])N([H])C(=O)N2C([H])([H])C([H])([H])C([H])([H])C([H])(n3nc(-c4c([H])c([H])c(Oc5c([H])c([H])c(F)c([H])c5F)c([H])c4[H])c(C(=O)N([H])[H])c3N([H])[H])C2([H])[H])c1[H]

$$$$
2:0:0
     RDKit          3D

 88 96  0  0  1  0  0  0  0  0999 V2000
  -28.7180  -21.5160   19.1690 C   0  0  0  0  0  3  0  0  0  0  0  0
  -28.3700  -23.0100   19.1420 C   0  0  0  0  0  3  0  0  0  0  0  0
  -29.1160  -20.6020   20.2790 C   0  0  0  0  0  0  0  0  0  0  0  0
  -28.3040  -24.0420   20.2170 C   0  0  0  0  0  0  0  0  0  0  0  0
  -29.0570  -21.6310   21.3630 C   0  0  0  0  0  0  0  0  0  0  0  0
  -28.7050  -23.1300   21.3350 C   0  0  0  0  0  0  0  0  0  0  0  0
  -29.4360  -21.1700   22.5790 F   0  0  0  0  0  0  0  0  0  0  0  0
  -28.8280  -23.7520   22.5320 F   0  0  0  0  0  0  0  0  0  0  0  0
  -28.2230  -25.6640   20.1670 O   0  0  0  0  0  0  0  0  0  0  0  0
  -24.6860  -31.8900   23.1890 C   0  0  0  0  0  0  0  0  0  0  0  0
  -27.1980  -26.8280   20.1700 C   0  0  0  0  0  0  0  0  0  0  0  0
  -23.4810  -30.4860   21.5700 C   0  0  0  0  0  3  0  0  0  0  0  0
  -24.9150  -28.8430   20.1400 C   0  0  0  0  0  0  0  0  0  0  0  0
  -26.0550  -30.6420   21.4130 C   0  0  0  0  0  2  0  0  0  0  0  0
  -26.1150  -29.2070   20.7610 C   0  0  0  0  0  0  0  0  0  0  0  0
  -27.2370  -28.2270   20.7450 C   0  0  0  0  0  3  0  0  0  0  0  0
  -25.9640  -26.6710   19.4890 C   0  0  0  0  0  3  0  0  0  0  0  0
  -24.8760  -27.5990   19.4820 C   0  0  0  0  0  3  0  0  0  0  0  0
  -23.7050  -29.7890   20.1960 C   0  0  0  0  0  2  0  0  0  0  0  0
  -24.7650  -31.0400   22.1090 N   0  0  0  0  0  0  0  0  0  0  0  0
  -23.5990  -32.1850   23.7160 O   0  0  0  0  0  0  0  0  0  0  0  0
  -22.7840  -29.5060   22.5520 C   0  0  0  0  0  0  0  0  0  0  0  0
  -21.4530  -29.3350   22.4360 N   0  0  0  0  0  0  0  0  0  0  0  0
  -23.4530  -28.8960   23.3880 O   0  0  0  0  0  0  0  0  0  0  0  0
  -20.9620  -29.8790   21.7390 H   0  0  0  0  0  0  0  0  0  0  0  0
  -18.0850  -28.0830   22.9750 C   0  0  0  0  0  0  0  0  0  0  0  0
  -20.6430  -28.3940   23.2200 C   0  0  0  0  0  3  0  0  0  0  0  0
  -20.7620  -26.9580   22.6570 C   0  0  0  0  0  2  0  0  0  0  0  0
  -19.6600  -26.6110   21.6510 C   0  0  0  0  0  2  0  0  0  0  0  0
  -18.2800  -26.7350   22.3020 C   0  0  0  0  0  2  0  0  0  0  0  0
  -19.1930  -28.8680   23.3910 C   0  0  0  0  0  0  0  0  0  0  0  0
  -18.9530  -30.1260   23.9870 C   0  0  0  0  0  3  0  0  0  0  0  0
  -17.6400  -30.5990   24.1660 C   0  0  0  0  0  3  0  0  0  0  0  0
  -16.5470  -29.8130   23.7620 C   0  0  0  0  0  3  0  0  0  0  0  0
  -16.7710  -28.5560   23.1730 C   0  0  0  0  0  3  0  0  0  0  0  0
  -25.9550  -32.5460   23.8130 C   0  0  0  0  0  3  0  0  0  0  0  0
  -25.6160  -33.9320   24.1970 N   0  0  0  0  0  0  0  0  0  0  0  0
  -25.8920  -35.0240   23.4700 C   0  0  0  0  0  0  0  0  0  0  0  0
  -26.5140  -34.9730   22.4070 O   0  0  0  0  0  0  0  0  0  0  0  0
  -25.0540  -34.0420   25.0280 H   0  0  0  0  0  0  0  0  0  0  0  0
  -24.1090  -36.7960   23.2820 C   0  0  0  0  0  1  0  0  0  0  0  0
  -25.4030  -36.3880   24.0050 C   0  0  0  0  0  3  0  0  0  0  0  0
  -27.5580  -37.3050   24.7480 C   0  0  0  0  0  1  0  0  0  0  0  0
  -26.4040  -37.4690   23.8690 N   0  0  0  0  0  0  0  0  0  0  0  0
  -25.9850  -38.3750   24.0620 H   0  0  0  0  0  0  0  0  0  0  0  0
  -26.5010  -31.7630   25.0710 C   0  0  1  0  0  0  0  0  0  0  0  0
  -25.4280  -31.4930   26.1530 C   0  0  0  0  0  1  0  0  0  0  0  0
  -27.0990  -30.4000   24.6600 C   0  0  0  0  0  1  0  0  0  0  0  0
  -27.6510  -32.5630   25.7290 C   0  0  0  0  0  1  0  0  0  0  0  0
  -29.8910  -18.8900   20.2560 C   0  0  0  0  0  2  0  0  0  0  0  0
  -30.3900  -15.7720   20.2630 C   0  0  0  0  0  0  0  0  0  0  0  0
  -30.5140  -13.2320   19.4490 C   0  0  0  0  0  2  0  0  0  0  0  0
  -29.6330  -12.8190   18.2350 C   0  0  0  0  0  2  0  0  0  0  0  0
  -28.2120  -12.4530   18.6870 C   0  0  0  0  0  2  0  0  0  0  0  0
  -27.6880  -13.4470   19.7490 C   0  0  0  0  0  3  0  0  0  0  0  0
  -28.7110  -13.7730   20.8620 C   0  0  0  0  0  2  0  0  0  0  0  0
  -29.8770  -14.4040   20.2010 N   0  0  0  0  0  0  0  0  0  0  0  0
  -31.6230  -15.7190   20.0910 O   0  0  0  0  0  0  0  0  0  0  0  0
  -29.6310  -17.1340   20.3250 N   0  0  0  0  0  0  0  0  0  0  0  0
  -28.6450  -16.9440   20.4220 H   0  0  0  0  0  0  0  0  0  0  0  0
  -25.3220  -13.9410   20.5260 C   0  0  0  0  0  0  0  0  0  0  0  0
  -24.2740  -13.1440   20.8850 C   0  0  0  0  0  0  0  0  0  0  0  0
  -24.7620  -11.8010   20.8380 C   0  0  0  0  0  0  0  0  0  0  0  0
  -26.3760  -13.0870   20.2680 N   0  0  0  0  0  0  0  0  0  0  0  0
  -26.0540  -11.7910   20.5240 N   0  0  0  0  0  0  0  0  0  0  0  0
  -24.0500  -10.5270   21.0110 C   0  0  0  0  0  0  0  0  0  0  0  0
  -24.4650   -9.5710   21.9630 C   0  0  0  0  0  3  0  0  0  0  0  0
  -23.7480   -8.3660   22.1270 C   0  0  0  0  0  3  0  0  0  0  0  0
  -22.6020   -8.1070   21.3380 C   0  0  0  0  0  0  0  0  0  0  0  0
  -22.2060   -9.0530   20.3760 C   0  0  0  0  0  3  0  0  0  0  0  0
  -22.9230  -10.2490   20.2110 C   0  0  0  0  0  3  0  0  0  0  0  0
  -21.8590   -6.9540   21.4110 O   0  0  0  0  0  0  0  0  0  0  0  0
  -21.7450   -6.2430   22.5790 C   0  0  0  0  0  0  0  0  0  0  0  0
  -21.2020   -6.8150   23.7490 C   0  0  0  0  0  3  0  0  0  0  0  0
  -21.0390   -6.0280   24.9070 C   0  0  0  0  0  3  0  0  0  0  0  0
  -21.4080   -4.6710   24.8950 C   0  0  0  0  0  0  0  0  0  0  0  0
  -21.9450   -4.0970   23.7280 C   0  0  0  0  0  3  0  0  0  0  0  0
  -22.1090   -4.8810   22.5730 C   0  0  0  0  0  0  0  0  0  0  0  0
  -22.6060   -4.3180   21.4450 F   0  0  0  0  0  0  0  0  0  0  0  0
  -21.2460   -3.9130   26.0040 F   0  0  0  0  0  0  0  0  0  0  0  0
  -22.8700  -13.5990   21.1540 C   0  0  0  0  0  0  0  0  0  0  0  0
  -22.1520  -12.8920   22.0180 N   0  0  0  0  0  0  0  0  0  0  0  0
  -22.4210  -14.6200   20.6340 O   0  0  0  0  0  0  0  0  0  0  0  0
  -22.5300  -12.0680   22.4600 H   0  0  0  0  0  0  0  0  0  0  0  0
  -21.2090  -13.1800   22.2420 H   0  0  0  0  0  0  0  0  0  0  0  0
  -25.4620  -15.3160   20.3630 N   0  0  0  0  0  0  0  0  0  0  0  0
  -24.6820  -15.9540   20.4780 H   0  0  0  0  0  0  0  0  0  0  0  0
  -26.2930  -15.7690   20.0050 H   0  0  0  0  0  0  0  0  0  0  0  0
  1  3  1  0
  2  1  2  0
  2  4  1  0
  3  5  2  0
  4  6  2  0
  5  7  1  0
  6  5  1  0
  6  8  1  0
  9 11  1  0
  9  4  1  0
 10 21  2  0
 11 16  1  0
 12 20  1  0
 12 22  1  0
 13 19  1  0
 13 15  1  0
 14 20  1  0
 15 14  1  0
 16 15  2  0
 17 11  2  0
 18 17  1  0
 18 13  2  0
 19 12  1  0
 20 10  1  0
 22 24  2  0
 23 22  1  0
 25 23  1  0
 26 35  2  0
 26 31  1  0
 27 23  1  0
 27 31  1  0
 28 27  1  0
 29 30  1  0
 29 28  1  0
 30 26  1  0
 31 32  2  0
 32 33  1  0
 34 33  2  0
 35 34  1  0
 36 10  1  0
 36 37  1  0
 36 46  1  0
 37 40  1  0
 38 42  1  0
 38 37  1  0
 39 38  2  0
 42 41  1  0
 44 42  1  0
 44 45  1  0
 44 43  1  0
 46 49  1  1
 46 47  1  0
 48 46  1  0
 50  3  1  0
 50 59  1  0
 51 59  1  0
 52 57  1  0
 53 54  1  0
 53 52  1  0
 55 54  1  0
 55 64  1  0
 55 56  1  0
 57 51  1  0
 57 56  1  0
 58 51  2  0
 59 60  1  0
 61 62  2  0
 62 81  1  0
 63 62  1  0
 63 66  1  0
 64 65  1  0
 64 61  1  0
 65 63  2  0
 66 67  1  0
 67 68  2  0
 69 72  1  0
 69 68  1  0
 70 69  2  0
 71 70  1  0
 71 66  2  0
 72 73  1  0
 73 74  1  0
 74 75  2  0
 76 75  1  0
 76 80  1  0
 77 76  2  0
 78 73  2  0
 78 77  1  0
 79 78  1  0
 81 82  1  0
 82 85  1  0
 82 84  1  0
 83 81  2  0
 86 87  1  0
 86 61  1  0
 88 86  1  0
M  ISO  4   4 101   9 101  51 100  59 100
M  END
>  <TORSDO>  (3) 
F 17

>  <SCORE>  (3) 
-15.886

>  <name>  (3) 
2

>  <ligand_id>  (3) 
2

>  <original_smiles>  (3) 
[H]c1c([H])c([H])c2c(c1[H])C([H])([H])C([H])([H])C([H])([H])C2([H])N([H])C(=O)C1([H])N(C(=O)C([H])(N([H])C(=O)C([H])(N([H])C([H])([H])[H])C([H])([H])[H])C(C([H])([H])[H])(C([H])([H])[H])C([H])([H])[H])C([H])([H])c2c([H])c(Oc3c([H])c([H])c(C([H])([H])N([H])C(=O)N4C([H])([H])C([H])([H])C([H])([H])C([H])(n5nc(-c6c([H])c([H])c(Oc7c([H])c([H])c(F)c([H])c7F)c([H])c6[H])c(C(=O)N([H])[H])c5N([H])[H])C4([H])[H])c(F)c3F)c([H])c([H])c2C1([H])[H]

>  <smiles>  (3) 
[H]c1c([H])c([H])c2c(c1[H])C([H])([H])C([H])([H])C([H])([H])C2([H])N([H])C(=O)C1([H])N(C(=O)C([H])(N([H])C(=O)C([H])(N([H])C([H])([H])[H])C([H])([H])[H])C(C([H])([H])[H])(C([H])([H])[H])C([H])([H])[H])C([H])([H])c2c([H])c(Oc3c([H])c([H])c(C([H])([H])N([H])C(=O)N4C([H])([H])C([H])([H])C([H])([H])C([H])(n5nc(-c6c([H])c([H])c(Oc7c([H])c([H])c(F)c([H])c7F)c([H])c6[H])c(C(=O)N([H])[H])c5N([H])[H])C4([H])[H])c(F)c3F)c([H])c([H])c2C1([H])[H]

$$$$
3:0:0
     RDKit          3D

 94103  0  0  1  0  0  0  0  0999 V2000
  -31.3760  -23.8290   20.7860 C   0  0  0  0  0  2  0  0  0  0  0  0
  -30.8350  -24.4760   19.5160 C   0  0  0  0  0  2  0  0  0  0  0  0
  -30.8050  -22.4150   20.7180 C   0  0  0  0  0  2  0  0  0  0  0  0
  -29.4020  -23.9220   19.4110 C   0  0  0  0  0  3  0  0  0  0  0  0
  -29.5070  -22.5000   19.9970 N   0  0  1  0  0  4  0  0  0  0  0  0
  -28.7800  -22.3980   20.6910 H   0  0  0  0  0  0  0  0  0  0  0  0
  -29.3300  -21.3290   19.0370 C   0  0  0  0  0  2  0  0  0  0  0  0
  -30.3850  -18.9630   18.5580 C   0  0  0  0  0  3  0  0  0  0  0  0
  -30.6210  -17.5840   18.8620 C   0  0  0  0  0  3  0  0  0  0  0  0
  -29.3260  -19.2670   20.6790 C   0  0  0  0  0  3  0  0  0  0  0  0
  -29.7230  -19.8510   19.4530 C   0  0  0  0  0  0  0  0  0  0  0  0
  -30.2340  -16.9880   20.0990 C   0  0  0  0  0  0  0  0  0  0  0  0
  -29.5700  -17.8970   20.9950 C   0  0  0  0  0  0  0  0  0  0  0  0
  -29.1090  -17.4750   22.1950 F   0  0  0  0  0  0  0  0  0  0  0  0
  -30.9390  -14.5510   19.6320 C   0  0  0  0  0  0  0  0  0  0  0  0
  -30.4750  -12.3640   18.5110 C   0  0  0  0  0  2  0  0  0  0  0  0
  -29.3990  -12.5340   17.4160 C   0  0  0  0  0  2  0  0  0  0  0  0
  -27.9830  -12.4170   18.0120 C   0  0  0  0  0  2  0  0  0  0  0  0
  -27.8080  -13.2690   19.2950 C   0  0  0  0  0  3  0  0  0  0  0  0
  -28.9760  -13.0430   20.2720 C   0  0  0  0  0  2  0  0  0  0  0  0
  -30.2260  -13.3720   19.5650 N   0  0  0  0  0  0  0  0  0  0  0  0
  -31.9660  -14.6950   18.9610 O   0  0  0  0  0  0  0  0  0  0  0  0
  -30.6740  -15.2530   21.8890 C   0  0  0  0  0  1  0  0  0  0  0  0
  -30.4900  -15.5610   20.4590 N   0  0  0  0  0  0  0  0  0  0  0  0
  -25.5870  -13.9470   20.3910 C   0  0  0  0  0  0  0  0  0  0  0  0
  -24.5230  -13.2100   20.8390 C   0  0  0  0  0  0  0  0  0  0  0  0
  -24.8750  -11.8420   20.6310 C   0  0  0  0  0  0  0  0  0  0  0  0
  -26.5180  -13.0280   19.9360 N   0  0  0  0  0  0  0  0  0  0  0  0
  -26.1040  -11.7510   20.1410 N   0  0  0  0  0  0  0  0  0  0  0  0
  -24.0880  -10.6150   20.8130 C   0  0  0  0  0  0  0  0  0  0  0  0
  -24.5240   -9.5750   21.6660 C   0  0  0  0  0  3  0  0  0  0  0  0
  -23.7380   -8.4150   21.8380 C   0  0  0  0  0  3  0  0  0  0  0  0
  -22.5040   -8.2860   21.1570 C   0  0  0  0  0  0  0  0  0  0  0  0
  -22.0860   -9.3140   20.2930 C   0  0  0  0  0  3  0  0  0  0  0  0
  -22.8710  -10.4650   20.1180 C   0  0  0  0  0  3  0  0  0  0  0  0
  -21.6860   -7.1840   21.2440 O   0  0  0  0  0  0  0  0  0  0  0  0
  -21.6170   -6.4280   22.3880 C   0  0  0  0  0  0  0  0  0  0  0  0
  -21.2600   -6.9910   23.6320 C   0  0  0  0  0  3  0  0  0  0  0  0
  -21.1320   -6.1660   24.7680 C   0  0  0  0  0  3  0  0  0  0  0  0
  -21.3500   -4.7800   24.6600 C   0  0  0  0  0  0  0  0  0  0  0  0
  -21.6990   -4.2170   23.4200 C   0  0  0  0  0  3  0  0  0  0  0  0
  -21.8290   -5.0390   22.2870 C   0  0  0  0  0  0  0  0  0  0  0  0
  -22.1460   -4.4870   21.0900 F   0  0  0  0  0  0  0  0  0  0  0  0
  -21.2180   -3.9860   25.7480 F   0  0  0  0  0  0  0  0  0  0  0  0
  -23.2130  -13.7460   21.3410 C   0  0  0  0  0  0  0  0  0  0  0  0
  -22.5700  -13.0310   22.2590 N   0  0  0  0  0  0  0  0  0  0  0  0
  -22.7750  -14.8280   20.9540 O   0  0  0  0  0  0  0  0  0  0  0  0
  -22.9400  -12.1520   22.5890 H   0  0  0  0  0  0  0  0  0  0  0  0
  -21.6950  -13.3680   22.6330 H   0  0  0  0  0  0  0  0  0  0  0  0
  -25.8310  -15.3140   20.3110 N   0  0  0  0  0  0  0  0  0  0  0  0
  -25.1480  -16.0080   20.5950 H   0  0  0  0  0  0  0  0  0  0  0  0
  -26.6730  -15.7230   19.9230 H   0  0  0  0  0  0  0  0  0  0  0  0
  -28.3630  -24.9370   20.0980 C   0  0  0  0  0  2  0  0  0  0  0  0
  -28.4650  -26.3900   19.7850 O   0  0  0  0  0  0  0  0  0  0  0  0
  -24.6050  -31.5960   23.0100 C   0  0  0  0  0  0  0  0  0  0  0  0
  -27.3110  -27.1890   19.8190 C   0  0  0  0  0  0  0  0  0  0  0  0
  -23.4270  -30.2220   21.3290 C   0  0  0  0  0  3  0  0  0  0  0  0
  -24.9070  -28.7390   19.8620 C   0  0  0  0  0  0  0  0  0  0  0  0
  -25.9560  -30.6040   21.1470 C   0  0  0  0  0  2  0  0  0  0  0  0
  -26.0670  -29.2430   20.4650 C   0  0  0  0  0  0  0  0  0  0  0  0
  -27.2730  -28.4820   20.4300 C   0  0  0  0  0  3  0  0  0  0  0  0
  -26.1280  -26.7340   19.1980 C   0  0  0  0  0  3  0  0  0  0  0  0
  -24.9390  -27.4910   19.2210 C   0  0  0  0  0  3  0  0  0  0  0  0
  -23.6530  -29.5860   19.9320 C   0  0  0  0  0  2  0  0  0  0  0  0
  -24.6820  -30.8230   21.8870 N   0  0  0  0  0  0  0  0  0  0  0  0
  -23.5170  -31.8340   23.5540 O   0  0  0  0  0  0  0  0  0  0  0  0
  -22.7850  -29.1660   22.2600 C   0  0  0  0  0  0  0  0  0  0  0  0
  -21.4570  -28.9920   22.1510 N   0  0  0  0  0  0  0  0  0  0  0  0
  -23.4800  -28.5090   23.0390 O   0  0  0  0  0  0  0  0  0  0  0  0
  -20.9530  -29.5740   21.4950 H   0  0  0  0  0  0  0  0  0  0  0  0
  -18.0880  -27.7900   22.6940 C   0  0  0  0  0  0  0  0  0  0  0  0
  -20.6550  -28.0220   22.8980 C   0  0  0  0  0  3  0  0  0  0  0  0
  -20.7300  -26.6210   22.2490 C   0  0  0  0  0  2  0  0  0  0  0  0
  -19.5960  -26.3570   21.2530 C   0  0  0  0  0  2  0  0  0  0  0  0
  -18.2340  -26.4760   21.9440 C   0  0  0  0  0  2  0  0  0  0  0  0
  -19.2250  -28.5240   23.1270 C   0  0  0  0  0  0  0  0  0  0  0  0
  -19.0330  -29.7540   23.7920 C   0  0  0  0  0  3  0  0  0  0  0  0
  -17.7380  -30.2530   24.0230 C   0  0  0  0  0  3  0  0  0  0  0  0
  -16.6160  -29.5180   23.6040 C   0  0  0  0  0  3  0  0  0  0  0  0
  -16.7930  -28.2870   22.9460 C   0  0  0  0  0  3  0  0  0  0  0  0
  -25.8750  -32.2340   23.6520 C   0  0  0  0  0  3  0  0  0  0  0  0
  -26.4140  -31.4320   24.8990 C   0  0  1  0  0  0  0  0  0  0  0  0
  -25.3310  -31.1330   25.9600 C   0  0  0  0  0  1  0  0  0  0  0  0
  -27.0250  -30.0810   24.4590 C   0  0  0  0  0  1  0  0  0  0  0  0
  -27.5480  -32.2290   25.5870 C   0  0  0  0  0  1  0  0  0  0  0  0
  -25.5350  -33.6130   24.0300 N   0  0  0  0  0  0  0  0  0  0  0  0
  -25.8510  -34.7010   23.3150 C   0  0  0  0  0  0  0  0  0  0  0  0
  -26.5290  -34.6510   22.2840 O   0  0  0  0  0  0  0  0  0  0  0  0
  -24.9310  -33.7250   24.8310 H   0  0  0  0  0  0  0  0  0  0  0  0
  -24.0880  -36.4730   23.0190 C   0  0  0  0  0  1  0  0  0  0  0  0
  -25.3320  -36.0610   23.8220 C   0  0  0  0  0  3  0  0  0  0  0  0
  -27.4470  -36.9510   24.7000 C   0  0  0  0  0  1  0  0  0  0  0  0
  -26.3430  -37.1400   23.7620 N   0  0  0  0  0  0  0  0  0  0  0  0
  -25.9160  -38.0410   23.9580 H   0  0  0  0  0  0  0  0  0  0  0  0
  2  1  1  0
  3  1  1  0
  4  2  1  0
  4  5  1  0
  4 53  1  0
  5  6  1  1
  5  3  1  0
  7 11  1  0
  7  5  1  0
  8  9  2  0
  8 11  1  0
  9 12  1  0
 10 13  1  0
 11 10  2  0
 12 24  1  0
 12 13  2  0
 13 14  1  0
 15 24  1  0
 16 21  1  0
 17 18  1  0
 17 16  1  0
 19 18  1  0
 19 28  1  0
 19 20  1  0
 21 15  1  0
 21 20  1  0
 22 15  2  0
 24 23  1  0
 25 26  2  0
 26 45  1  0
 27 30  1  0
 27 26  1  0
 28 29  1  0
 28 25  1  0
 29 27  2  0
 30 31  1  0
 31 32  2  0
 33 36  1  0
 33 32  1  0
 34 33  2  0
 35 34  1  0
 35 30  2  0
 36 37  1  0
 37 38  1  0
 38 39  2  0
 40 39  1  0
 40 44  1  0
 41 40  2  0
 42 37  2  0
 42 41  1  0
 43 42  1  0
 45 46  1  0
 46 48  1  0
 46 49  1  0
 47 45  2  0
 50 25  1  0
 50 51  1  0
 52 50  1  0
 54 56  1  0
 54 53  1  0
 55 66  2  0
 56 61  1  0
 57 65  1  0
 57 67  1  0
 58 64  1  0
 58 60  1  0
 59 65  1  0
 60 59  1  0
 61 60  2  0
 62 63  1  0
 62 56  2  0
 63 58  2  0
 64 57  1  0
 65 55  1  0
 67 69  2  0
 68 67  1  0
 70 68  1  0
 71 80  2  0
 71 76  1  0
 72 68  1  0
 72 76  1  0
 73 72  1  0
 74 75  1  0
 74 73  1  0
 75 71  1  0
 76 77  2  0
 77 78  1  0
 79 78  2  0
 80 79  1  0
 81 55  1  0
 81 86  1  0
 81 82  1  0
 82 85  1  1
 82 83  1  0
 84 82  1  0
 86 89  1  0
 87 91  1  0
 87 86  1  0
 88 87  2  0
 91 90  1  0
 93 91  1  0
 93 94  1  0
 93 92  1  0
M  ISO  4  15 100  24 100  53 101  54 101
M  END
>  <TORSDO>  (4) 
F 19

>  <SCORE>  (4) 
-12.310

>  <name>  (4) 
3

>  <ligand_id>  (4) 
3

>  <original_smiles>  (4) 
[H]c1c([H])c([H])c2c(c1[H])C([H])([H])C([H])([H])C([H])([H])C2([H])N([H])C(=O)C1([H])N(C(=O)C([H])(N([H])C(=O)C([H])(N([H])C([H])([H])[H])C([H])([H])[H])C(C([H])([H])[H])(C([H])([H])[H])C([H])([H])[H])C([H])([H])c2c([H])c(OC([H])([H])C3([H])C([H])([H])C([H])([H])C([H])([H])[N+]3([H])C([H])([H])c3c([H])c([H])c(N(C(=O)N4C([H])([H])C([H])([H])C([H])([H])C([H])(n5nc(-c6c([H])c([H])c(Oc7c([H])c([H])c(F)c([H])c7F)c([H])c6[H])c(C(=O)N([H])[H])c5N([H])[H])C4([H])[H])C([H])([H])[H])c(F)c3[H])c([H])c([H])c2C1([H])[H]

>  <smiles>  (4) 
[H]c1c([H])c([H])c2c(c1[H])C([H])([H])C([H])([H])C([H])([H])C2([H])N([H])C(=O)C1([H])N(C(=O)C([H])(N([H])C(=O)C([H])(N([H])C([H])([H])[H])C([H])([H])[H])C(C([H])([H])[H])(C([H])([H])[H])C([H])([H])[H])C([H])([H])c2c([H])c(OC([H])([H])C3([H])C([H])([H])C([H])([H])C([H])([H])[N+]3([H])C([H])([H])c3c([H])c([H])c(N(C(=O)N4C([H])([H])C([H])([H])C([H])([H])C([H])(n5nc(-c6c([H])c([H])c(Oc7c([H])c([H])c(F)c([H])c7F)c([H])c6[H])c(C(=O)N([H])[H])c5N([H])[H])C4([H])[H])C([H])([H])[H])c(F)c3[H])c([H])c([H])c2C1([H])[H]

$$$$
4:0:0
     RDKit          3D

 89 97  0  0  1  0  0  0  0  0999 V2000
  -30.6180  -18.5840   20.2340 C   0  0  0  0  0  3  0  0  0  0  0  0
  -30.3220  -20.0210   20.1180 C   0  0  0  0  0  3  0  0  0  0  0  0
  -28.3230  -18.1100   19.9970 C   0  0  0  0  0  3  0  0  0  0  0  0
  -29.6220  -17.5390   20.1790 C   0  0  0  0  0  0  0  0  0  0  0  0
  -28.9990  -20.5680   19.9200 C   0  0  0  0  0  0  0  0  0  0  0  0
  -28.0300  -19.5160   19.8660 C   0  0  0  0  0  0  0  0  0  0  0  0
  -26.7350  -19.8670   19.6790 F   0  0  0  0  0  0  0  0  0  0  0  0
  -30.5800  -14.9230   20.0660 C   0  0  0  0  0  0  0  0  0  0  0  0
  -30.4510  -12.5660   19.1460 C   0  0  0  0  0  2  0  0  0  0  0  0
  -29.4680  -12.5400   17.9490 C   0  0  0  0  0  2  0  0  0  0  0  0
  -28.0140  -12.3550   18.4280 C   0  0  0  0  0  2  0  0  0  0  0  0
  -27.6620  -13.2860   19.6170 C   0  0  0  0  0  3  0  0  0  0  0  0
  -28.7540  -13.2570   20.7090 C   0  0  0  0  0  2  0  0  0  0  0  0
  -30.0190  -13.6500   20.0680 N   0  0  0  0  0  0  0  0  0  0  0  0
  -31.7560  -15.0460   19.7010 O   0  0  0  0  0  0  0  0  0  0  0  0
  -29.7160  -16.0150   20.3160 N   0  0  0  0  0  0  0  0  0  0  0  0
  -28.8300  -15.6250   20.5980 H   0  0  0  0  0  0  0  0  0  0  0  0
  -25.3230  -13.9140   20.4530 C   0  0  0  0  0  0  0  0  0  0  0  0
  -24.2550  -13.1600   20.8530 C   0  0  0  0  0  0  0  0  0  0  0  0
  -24.6820  -11.7990   20.7750 C   0  0  0  0  0  0  0  0  0  0  0  0
  -26.3340  -13.0150   20.1560 N   0  0  0  0  0  0  0  0  0  0  0  0
  -25.9580  -11.7360   20.4130 N   0  0  0  0  0  0  0  0  0  0  0  0
  -23.9310  -10.5510   20.9660 C   0  0  0  0  0  0  0  0  0  0  0  0
  -24.3600   -9.5610   21.8760 C   0  0  0  0  0  3  0  0  0  0  0  0
  -23.6090   -8.3800   22.0560 C   0  0  0  0  0  3  0  0  0  0  0  0
  -22.4150   -8.1800   21.3260 C   0  0  0  0  0  0  0  0  0  0  0  0
  -22.0020   -9.1580   20.4040 C   0  0  0  0  0  3  0  0  0  0  0  0
  -22.7540  -10.3310   20.2210 C   0  0  0  0  0  3  0  0  0  0  0  0
  -21.6350   -7.0520   21.4170 O   0  0  0  0  0  0  0  0  0  0  0  0
  -21.5790   -6.3060   22.5670 C   0  0  0  0  0  0  0  0  0  0  0  0
  -21.1440   -6.8560   23.7920 C   0  0  0  0  0  3  0  0  0  0  0  0
  -21.0370   -6.0370   24.9340 C   0  0  0  0  0  3  0  0  0  0  0  0
  -21.3540   -4.6680   24.8510 C   0  0  0  0  0  0  0  0  0  0  0  0
  -21.7830   -4.1170   23.6300 C   0  0  0  0  0  3  0  0  0  0  0  0
  -21.8920   -4.9330   22.4910 C   0  0  0  0  0  0  0  0  0  0  0  0
  -22.2850   -4.3930   21.3120 F   0  0  0  0  0  0  0  0  0  0  0  0
  -21.2440   -3.8790   25.9450 F   0  0  0  0  0  0  0  0  0  0  0  0
  -22.8820  -13.6670   21.1860 C   0  0  0  0  0  0  0  0  0  0  0  0
  -22.1720  -12.9770   22.0720 N   0  0  0  0  0  0  0  0  0  0  0  0
  -22.4480  -14.7080   20.6950 O   0  0  0  0  0  0  0  0  0  0  0  0
  -22.5360  -12.1340   22.4910 H   0  0  0  0  0  0  0  0  0  0  0  0
  -21.2520  -13.2980   22.3390 H   0  0  0  0  0  0  0  0  0  0  0  0
  -25.5110  -15.2840   20.2900 N   0  0  0  0  0  0  0  0  0  0  0  0
  -24.7430  -15.9360   20.4050 H   0  0  0  0  0  0  0  0  0  0  0  0
  -26.3000  -15.6870   19.8030 H   0  0  0  0  0  0  0  0  0  0  0  0
  -28.5040  -21.9350   19.7320 O   0  0  0  0  0  0  0  0  0  0  0  0
  -29.0950  -23.3350   19.9090 C   0  0  0  0  0  3  0  0  0  0  0  0
  -28.1160  -24.6810   19.6400 C   0  0  0  0  0  3  0  0  0  0  0  0
  -28.3620  -26.1910   19.9150 O   0  0  0  0  0  0  0  0  0  0  0  0
  -24.5360  -31.6270   23.0850 C   0  0  0  0  0  0  0  0  0  0  0  0
  -27.2770  -27.1420   19.8750 C   0  0  0  0  0  0  0  0  0  0  0  0
  -23.3960  -30.2890   21.3560 C   0  0  0  0  0  3  0  0  0  0  0  0
  -24.9060  -28.8230   19.8830 C   0  0  0  0  0  0  0  0  0  0  0  0
  -25.9460  -30.6220   21.2520 C   0  0  0  0  0  2  0  0  0  0  0  0
  -26.0640  -29.2680   20.5340 C   0  0  0  0  0  0  0  0  0  0  0  0
  -27.2500  -28.4450   20.5130 C   0  0  0  0  0  3  0  0  0  0  0  0
  -26.0890  -26.7970   19.1910 C   0  0  0  0  0  3  0  0  0  0  0  0
  -24.9310  -27.6010   19.1980 C   0  0  0  0  0  3  0  0  0  0  0  0
  -23.6570  -29.6880   19.9500 C   0  0  0  0  0  2  0  0  0  0  0  0
  -24.6450  -30.8640   21.9540 N   0  0  0  0  0  0  0  0  0  0  0  0
  -23.4340  -31.8620   23.6050 O   0  0  0  0  0  0  0  0  0  0  0  0
  -22.7240  -29.2200   22.2530 C   0  0  0  0  0  0  0  0  0  0  0  0
  -21.3950  -29.0550   22.1190 N   0  0  0  0  0  0  0  0  0  0  0  0
  -23.3990  -28.5440   23.0340 O   0  0  0  0  0  0  0  0  0  0  0  0
  -20.9070  -29.6540   21.4680 H   0  0  0  0  0  0  0  0  0  0  0  0
  -18.0080  -27.8640   22.6020 C   0  0  0  0  0  0  0  0  0  0  0  0
  -20.5770  -28.0710   22.8320 C   0  0  0  0  0  3  0  0  0  0  0  0
  -20.6440  -26.6870   22.1430 C   0  0  0  0  0  2  0  0  0  0  0  0
  -19.5160  -26.4610   21.1320 C   0  0  0  0  0  2  0  0  0  0  0  0
  -18.1500  -26.5720   21.8170 C   0  0  0  0  0  2  0  0  0  0  0  0
  -19.1480  -28.5760   23.0650 C   0  0  0  0  0  0  0  0  0  0  0  0
  -18.9590  -29.7890   23.7640 C   0  0  0  0  0  3  0  0  0  0  0  0
  -17.6650  -30.2900   24.0000 C   0  0  0  0  0  3  0  0  0  0  0  0
  -16.5420  -29.5740   23.5510 C   0  0  0  0  0  3  0  0  0  0  0  0
  -16.7140  -28.3630   22.8590 C   0  0  0  0  0  3  0  0  0  0  0  0
  -25.7880  -32.2560   23.7670 C   0  0  0  0  0  3  0  0  0  0  0  0
  -26.2640  -31.4600   25.0450 C   0  0  1  0  0  0  0  0  0  0  0  0
  -25.1360  -31.1940   26.0690 C   0  0  0  0  0  1  0  0  0  0  0  0
  -26.8680  -30.0930   24.6470 C   0  0  0  0  0  1  0  0  0  0  0  0
  -27.3860  -32.2460   25.7630 C   0  0  0  0  0  1  0  0  0  0  0  0
  -25.4530  -33.6440   24.1230 N   0  0  0  0  0  0  0  0  0  0  0  0
  -25.7720  -34.7190   23.3900 C   0  0  0  0  0  0  0  0  0  0  0  0
  -26.4450  -34.6480   22.3590 O   0  0  0  0  0  0  0  0  0  0  0  0
  -24.8550  -33.7720   24.9260 H   0  0  0  0  0  0  0  0  0  0  0  0
  -24.0050  -36.4870   23.0910 C   0  0  0  0  0  1  0  0  0  0  0  0
  -25.2650  -36.0920   23.8780 C   0  0  0  0  0  3  0  0  0  0  0  0
  -27.3890  -37.0120   24.7010 C   0  0  0  0  0  1  0  0  0  0  0  0
  -26.2770  -37.1660   23.7680 N   0  0  0  0  0  0  0  0  0  0  0  0
  -25.8530  -38.0770   23.9260 H   0  0  0  0  0  0  0  0  0  0  0  0
  2  1  2  0
  3  4  2  0
  4  1  1  0
  4 16  1  0
  5  2  1  0
  6  5  2  0
  6  3  1  0
  7  6  1  0
  8 14  1  0
  8 16  1  0
  9 14  1  0
 10 11  1  0
 10  9  1  0
 12 11  1  0
 12 21  1  0
 12 13  1  0
 14 13  1  0
 15  8  2  0
 16 17  1  0
 18 19  2  0
 19 38  1  0
 20 19  1  0
 20 23  1  0
 21 22  1  0
 21 18  1  0
 22 20  2  0
 23 24  1  0
 24 25  2  0
 26 29  1  0
 26 25  1  0
 27 26  2  0
 28 27  1  0
 28 23  2  0
 29 30  1  0
 30 31  1  0
 31 32  2  0
 33 32  1  0
 33 37  1  0
 34 33  2  0
 35 30  2  0
 35 34  1  0
 36 35  1  0
 38 39  1  0
 39 42  1  0
 39 41  1  0
 40 38  2  0
 43 44  1  0
 43 18  1  0
 45 43  1  0
 46 47  1  0
 46  5  1  0
 48 47  2  0
 48 49  1  0
 50 61  2  0
 51 49  1  0
 51 56  1  0
 52 60  1  0
 52 62  1  0
 53 59  1  0
 53 55  1  0
 54 60  1  0
 55 54  1  0
 56 55  2  0
 57 58  1  0
 57 51  2  0
 58 53  2  0
 59 52  1  0
 60 50  1  0
 62 64  2  0
 63 62  1  0
 65 63  1  0
 66 75  2  0
 66 71  1  0
 67 63  1  0
 67 71  1  0
 68 67  1  0
 69 70  1  0
 69 68  1  0
 70 66  1  0
 71 72  2  0
 72 73  1  0
 74 73  2  0
 75 74  1  0
 76 50  1  0
 76 81  1  0
 76 77  1  0
 77 80  1  1
 77 78  1  0
 79 77  1  0
 81 84  1  0
 82 86  1  0
 82 81  1  0
 83 82  2  0
 86 85  1  0
 88 86  1  0
 88 89  1  0
 88 87  1  0
M  ISO  4   8 100  16 100  48 101  49 101
M  END
>  <TORSDO>  (5) 
F 19

>  <SCORE>  (5) 
-13.742

>  <name>  (5) 
4

>  <ligand_id>  (5) 
4

>  <original_smiles>  (5) 
[H]c1c([H])c([H])c2c(c1[H])C([H])([H])C([H])([H])C([H])([H])C2([H])N([H])C(=O)C1([H])N(C(=O)C([H])(N([H])C(=O)C([H])(N([H])C([H])([H])[H])C([H])([H])[H])C(C([H])([H])[H])(C([H])([H])[H])C([H])([H])[H])C([H])([H])c2c([H])c(OC([H])([H])C([H])([H])Oc3c([H])c([H])c(N([H])C(=O)N4C([H])([H])C([H])([H])C([H])([H])C([H])(n5nc(-c6c([H])c([H])c(Oc7c([H])c([H])c(F)c([H])c7F)c([H])c6[H])c(C(=O)N([H])[H])c5N([H])[H])C4([H])[H])c([H])c3F)c([H])c([H])c2C1([H])[H]

>  <smiles>  (5) 
[H]c1c([H])c([H])c2c(c1[H])C([H])([H])C([H])([H])C([H])([H])C2([H])N([H])C(=O)C1([H])N(C(=O)C([H])(N([H])C(=O)C([H])(N([H])C([H])([H])[H])C([H])([H])[H])C(C([H])([H])[H])(C([H])([H])[H])C([H])([H])[H])C([H])([H])c2c([H])c(OC([H])([H])C([H])([H])Oc3c([H])c([H])c(N([H])C(=O)N4C([H])([H])C([H])([H])C([H])([H])C([H])(n5nc(-c6c([H])c([H])c(Oc7c([H])c([H])c(F)c([H])c7F)c([H])c6[H])c(C(=O)N([H])[H])c5N([H])[H])C4([H])[H])c([H])c3F)c([H])c([H])c2C1([H])[H]

$$$$
5:0:0
     RDKit          3D

 97106  0  0  1  0  0  0  0  0999 V2000
  -31.6960  -18.9310   21.7820 C   0  0  0  0  0  3  0  0  0  0  0  0
  -31.2920  -17.6080   21.5410 C   0  0  0  0  0  3  0  0  0  0  0  0
  -29.3470  -18.4790   20.3800 C   0  0  0  0  0  3  0  0  0  0  0  0
  -30.9800  -20.0480   21.2840 C   0  0  0  0  0  0  0  0  0  0  0  0
  -30.1200  -17.3220   20.8130 C   0  0  0  0  0  0  0  0  0  0  0  0
  -29.7490  -19.8720   20.5880 C   0  0  0  0  0  0  0  0  0  0  0  0
  -30.5390  -14.7760   20.3840 C   0  0  0  0  0  0  0  0  0  0  0  0
  -30.3410  -12.5100   19.3400 C   0  0  0  0  0  2  0  0  0  0  0  0
  -29.3760  -12.5760   18.1350 C   0  0  0  0  0  2  0  0  0  0  0  0
  -27.9170  -12.3850   18.5970 C   0  0  0  0  0  2  0  0  0  0  0  0
  -27.5590  -13.2720   19.8190 C   0  0  0  0  0  3  0  0  0  0  0  0
  -28.6380  -13.1830   20.9210 C   0  0  0  0  0  2  0  0  0  0  0  0
  -29.9180  -13.5510   20.3040 N   0  0  0  0  0  0  0  0  0  0  0  0
  -31.7210  -14.8850   20.0360 O   0  0  0  0  0  0  0  0  0  0  0  0
  -29.7490  -15.8970   20.6100 N   0  0  0  0  0  0  0  0  0  0  0  0
  -28.7620  -15.7000   20.6670 H   0  0  0  0  0  0  0  0  0  0  0  0
  -25.1890  -13.8530   20.6080 C   0  0  0  0  0  0  0  0  0  0  0  0
  -24.1320  -13.0740   20.9940 C   0  0  0  0  0  0  0  0  0  0  0  0
  -24.5970  -11.7240   20.9380 C   0  0  0  0  0  0  0  0  0  0  0  0
  -26.2270  -12.9770   20.3380 N   0  0  0  0  0  0  0  0  0  0  0  0
  -25.8800  -11.6910   20.5970 N   0  0  0  0  0  0  0  0  0  0  0  0
  -23.8770  -10.4580   21.1310 C   0  0  0  0  0  0  0  0  0  0  0  0
  -24.3260   -9.4860   22.0520 C   0  0  0  0  0  3  0  0  0  0  0  0
  -23.6080   -8.2830   22.2340 C   0  0  0  0  0  3  0  0  0  0  0  0
  -22.4260   -8.0460   21.4930 C   0  0  0  0  0  0  0  0  0  0  0  0
  -21.9940   -9.0070   20.5620 C   0  0  0  0  0  3  0  0  0  0  0  0
  -22.7130  -10.2000   20.3790 C   0  0  0  0  0  3  0  0  0  0  0  0
  -21.6790   -6.8960   21.5850 O   0  0  0  0  0  0  0  0  0  0  0  0
  -21.6440   -6.1500   22.7330 C   0  0  0  0  0  0  0  0  0  0  0  0
  -21.2170   -6.6930   23.9650 C   0  0  0  0  0  3  0  0  0  0  0  0
  -21.1310   -5.8720   25.1050 C   0  0  0  0  0  3  0  0  0  0  0  0
  -21.4600   -4.5060   25.0170 C   0  0  0  0  0  0  0  0  0  0  0  0
  -21.8830   -3.9610   23.7920 C   0  0  0  0  0  3  0  0  0  0  0  0
  -21.9710   -4.7810   22.6530 C   0  0  0  0  0  0  0  0  0  0  0  0
  -22.3560   -4.2460   21.4690 F   0  0  0  0  0  0  0  0  0  0  0  0
  -21.3720   -3.7150   26.1120 F   0  0  0  0  0  0  0  0  0  0  0  0
  -22.7400  -13.5450   21.3000 C   0  0  0  0  0  0  0  0  0  0  0  0
  -22.0280  -12.8340   22.1670 N   0  0  0  0  0  0  0  0  0  0  0  0
  -22.2920  -14.5800   20.8070 O   0  0  0  0  0  0  0  0  0  0  0  0
  -22.4030  -11.9970   22.5890 H   0  0  0  0  0  0  0  0  0  0  0  0
  -21.0930  -13.1310   22.4130 H   0  0  0  0  0  0  0  0  0  0  0  0
  -25.3470  -15.2240   20.4390 N   0  0  0  0  0  0  0  0  0  0  0  0
  -24.5770  -15.8730   20.5690 H   0  0  0  0  0  0  0  0  0  0  0  0
  -26.1660  -15.6610   20.0400 H   0  0  0  0  0  0  0  0  0  0  0  0
  -28.5010  -20.7660   18.6900 C   0  0  0  0  0  1  0  0  0  0  0  0
  -29.0840  -21.0340   20.0020 N   0  0  0  0  0  0  0  0  0  0  0  0
  -28.5490  -22.2650   20.7240 C   0  0  0  0  0  2  0  0  0  0  0  0
  -28.7880  -23.7420   20.0830 C   0  0  0  0  0  3  0  0  0  0  0  0
  -28.0620  -25.0310   20.7340 C   0  0  0  0  0  3  0  0  0  0  0  0
  -28.2870  -26.4310   20.2360 O   0  0  0  0  0  0  0  0  0  0  0  0
  -24.5780  -31.9270   23.1890 C   0  0  0  0  0  0  0  0  0  0  0  0
  -27.1900  -27.3160   20.1950 C   0  0  0  0  0  0  0  0  0  0  0  0
  -23.3830  -30.5220   21.5480 C   0  0  0  0  0  3  0  0  0  0  0  0
  -24.8380  -28.9570   20.1380 C   0  0  0  0  0  0  0  0  0  0  0  0
  -25.9250  -30.8280   21.3790 C   0  0  0  0  0  2  0  0  0  0  0  0
  -26.0050  -29.4420   20.7410 C   0  0  0  0  0  0  0  0  0  0  0  0
  -27.1870  -28.6360   20.7530 C   0  0  0  0  0  3  0  0  0  0  0  0
  -26.0030  -26.8940   19.5580 C   0  0  0  0  0  3  0  0  0  0  0  0
  -24.8420  -27.6910   19.5310 C   0  0  0  0  0  3  0  0  0  0  0  0
  -23.6040  -29.8380   20.1730 C   0  0  0  0  0  2  0  0  0  0  0  0
  -24.6480  -31.1100   22.0950 N   0  0  0  0  0  0  0  0  0  0  0  0
  -23.4930  -32.2110   23.7140 O   0  0  0  0  0  0  0  0  0  0  0  0
  -22.7100  -29.5130   22.5110 C   0  0  0  0  0  0  0  0  0  0  0  0
  -21.3840  -29.3410   22.3780 N   0  0  0  0  0  0  0  0  0  0  0  0
  -23.3820  -28.8910   23.3390 O   0  0  0  0  0  0  0  0  0  0  0  0
  -20.9030  -29.8940   21.6820 H   0  0  0  0  0  0  0  0  0  0  0  0
  -17.9980  -28.1610   22.8660 C   0  0  0  0  0  0  0  0  0  0  0  0
  -20.5570  -28.4100   23.1490 C   0  0  0  0  0  3  0  0  0  0  0  0
  -20.6550  -26.9760   22.5800 C   0  0  0  0  0  2  0  0  0  0  0  0
  -19.5570  -26.6540   21.5620 C   0  0  0  0  0  2  0  0  0  0  0  0
  -18.1730  -26.8080   22.1980 C   0  0  0  0  0  2  0  0  0  0  0  0
  -19.1190  -28.9210   23.2990 C   0  0  0  0  0  0  0  0  0  0  0  0
  -18.9010  -30.1860   23.8850 C   0  0  0  0  0  3  0  0  0  0  0  0
  -17.5970  -30.6920   24.0440 C   0  0  0  0  0  3  0  0  0  0  0  0
  -16.4920  -29.9310   23.6260 C   0  0  0  0  0  3  0  0  0  0  0  0
  -16.6940  -28.6670   23.0430 C   0  0  0  0  0  3  0  0  0  0  0  0
  -25.8590  -32.5590   23.8160 C   0  0  0  0  0  3  0  0  0  0  0  0
  -25.5480  -33.9590   24.1400 N   0  0  0  0  0  0  0  0  0  0  0  0
  -25.8900  -35.0100   23.3840 C   0  0  0  0  0  0  0  0  0  0  0  0
  -26.5690  -34.9040   22.3580 O   0  0  0  0  0  0  0  0  0  0  0  0
  -24.9450  -34.1150   24.9340 H   0  0  0  0  0  0  0  0  0  0  0  0
  -24.1770  -36.8150   23.0070 C   0  0  0  0  0  1  0  0  0  0  0  0
  -25.4030  -36.4010   23.8360 C   0  0  0  0  0  3  0  0  0  0  0  0
  -27.5290  -37.2750   24.7030 C   0  0  0  0  0  1  0  0  0  0  0  0
  -26.4440  -37.4480   23.7410 N   0  0  0  0  0  0  0  0  0  0  0  0
  -26.0400  -38.3710   23.8810 H   0  0  0  0  0  0  0  0  0  0  0  0
  -26.3660  -31.7920   25.0980 C   0  0  1  0  0  0  0  0  0  0  0  0
  -25.2660  -31.5590   26.1600 C   0  0  0  0  0  1  0  0  0  0  0  0
  -26.9490  -30.4110   24.7160 C   0  0  0  0  0  1  0  0  0  0  0  0
  -27.5130  -32.5890   25.7640 C   0  0  0  0  0  1  0  0  0  0  0  0
  -31.6740  -21.4040   21.4040 C   0  0  0  0  0  2  0  0  0  0  0  0
  -34.3460  -21.7070   18.8380 C   0  0  0  0  0  2  0  0  0  0  0  0
  -34.3090  -23.0480   19.5640 C   0  0  0  0  0  2  0  0  0  0  0  0
  -33.3790  -20.8590   19.6600 C   0  0  0  0  0  2  0  0  0  0  0  0
  -32.8680  -23.1580   20.0820 C   0  0  0  0  0  2  0  0  0  0  0  0
  -32.3170  -21.7820   20.1230 N   0  0  2  0  0  4  0  0  0  0  0  0
  -31.5810  -21.7550   19.4330 H   0  0  0  0  0  0  0  0  0  0  0  0
  2  1  1  0
  3  6  2  0
  3  5  1  0
  4 91  1  0
  4  1  2  0
  5  2  2  0
  6  4  1  0
  7 15  1  0
  8 13  1  0
  9 10  1  0
  9  8  1  0
 11 10  1  0
 11 20  1  0
 11 12  1  0
 13  7  1  0
 13 12  1  0
 14  7  2  0
 15 16  1  0
 15  5  1  0
 17 18  2  0
 18 37  1  0
 19 18  1  0
 19 22  1  0
 20 21  1  0
 20 17  1  0
 21 19  2  0
 22 23  1  0
 23 24  2  0
 25 28  1  0
 25 24  1  0
 26 25  2  0
 27 26  1  0
 27 22  2  0
 28 29  1  0
 29 30  1  0
 30 31  2  0
 32 31  1  0
 32 36  1  0
 33 32  2  0
 34 29  2  0
 34 33  1  0
 35 34  1  0
 37 38  1  0
 38 41  1  0
 38 40  1  0
 39 37  2  0
 42 43  1  0
 42 17  1  0
 44 42  1  0
 45 46  1  0
 46  6  1  0
 46 47  1  0
 48 47  1  0
 48 49  2  0
 50 49  1  0
 51 62  2  0
 52 50  1  0
 52 57  1  0
 53 61  1  0
 53 63  1  0
 54 60  1  0
 54 56  1  0
 55 61  1  0
 56 57  2  0
 56 55  1  0
 58 52  2  0
 59 58  1  0
 59 54  2  0
 60 53  1  0
 61 51  1  0
 63 65  2  0
 64 63  1  0
 66 64  1  0
 67 76  2  0
 67 72  1  0
 68 64  1  0
 68 72  1  0
 69 68  1  0
 70 71  1  0
 70 69  1  0
 71 67  1  0
 72 73  2  0
 73 74  1  0
 75 74  2  0
 76 75  1  0
 77 51  1  0
 77 78  1  0
 77 87  1  0
 78 81  1  0
 79 83  1  0
 79 78  1  0
 80 79  2  0
 83 82  1  0
 85 83  1  0
 85 86  1  0
 85 84  1  0
 87 90  1  1
 87 88  1  0
 89 87  1  0
 92 93  1  0
 92 94  1  0
 93 95  1  0
 94 96  1  0
 95 96  1  0
 96 91  1  0
 96 97  1  6
M  ISO  4   7 100  15 100  49 101  50 101
M  END
>  <TORSDO>  (6) 
F 22

>  <SCORE>  (6) 
-13.495

>  <name>  (6) 
5

>  <ligand_id>  (6) 
5

>  <original_smiles>  (6) 
[H]c1c([H])c([H])c2c(c1[H])C([H])([H])C([H])([H])C([H])([H])C2([H])N([H])C(=O)C1([H])N(C(=O)C([H])(N([H])C(=O)C([H])(N([H])C([H])([H])[H])C([H])([H])[H])C(C([H])([H])[H])(C([H])([H])[H])C([H])([H])[H])C([H])([H])c2c([H])c(OC([H])([H])C([H])([H])C([H])([H])N(c3c([H])c(N([H])C(=O)N4C([H])([H])C([H])([H])C([H])([H])C([H])(n5nc(-c6c([H])c([H])c(Oc7c([H])c([H])c(F)c([H])c7F)c([H])c6[H])c(C(=O)N([H])[H])c5N([H])[H])C4([H])[H])c([H])c([H])c3C([H])([H])[N+]3([H])C([H])([H])C([H])([H])C([H])([H])C3([H])[H])C([H])([H])[H])c([H])c([H])c2C1([H])[H]

>  <smiles>  (6) 
[H]c1c([H])c([H])c2c(c1[H])C([H])([H])C([H])([H])C([H])([H])C2([H])N([H])C(=O)C1([H])N(C(=O)C([H])(N([H])C(=O)C([H])(N([H])C([H])([H])[H])C([H])([H])[H])C(C([H])([H])[H])(C([H])([H])[H])C([H])([H])[H])C([H])([H])c2c([H])c(OC([H])([H])C([H])([H])C([H])([H])N(c3c([H])c(N([H])C(=O)N4C([H])([H])C([H])([H])C([H])([H])C([H])(n5nc(-c6c([H])c([H])c(Oc7c([H])c([H])c(F)c([H])c7F)c([H])c6[H])c(C(=O)N([H])[H])c5N([H])[H])C4([H])[H])c([H])c([H])c3C([H])([H])[N+]3([H])C([H])([H])C([H])([H])C([H])([H])C3([H])[H])C([H])([H])[H])c([H])c([H])c2C1([H])[H]

$$$$
6:0:0
     RDKit          3D

104114  0  0  1  0  0  0  0  0999 V2000
  -26.3080  -19.5430   19.7850 C   0  0  0  0  0  3  0  0  0  0  0  0
  -27.4670  -20.1500   19.2690 C   0  0  0  0  0  3  0  0  0  0  0  0
  -26.2760  -18.1480   19.9130 C   0  0  0  0  0  0  0  0  0  0  0  0
  -28.6030  -19.3820   18.8870 C   0  0  0  0  0  0  0  0  0  0  0  0
  -28.5500  -17.9550   18.9980 C   0  0  0  0  0  0  0  0  0  0  0  0
  -27.3730  -17.3750   19.5300 C   0  0  0  0  0  0  0  0  0  0  0  0
  -25.0810  -17.3600   20.4060 C   0  0  0  0  0  2  0  0  0  0  0  0
  -25.5780  -15.9370   20.7300 C   0  0  0  0  0  1  0  0  0  0  0  0
  -27.0930  -15.6590   19.7620 S   0  0  0  0  0  0  0  0  0  0  0  0
  -29.6740  -17.0360   18.4980 C   0  0  0  0  0  2  0  0  0  0  0  0
  -33.0070  -16.4270   20.3810 C   0  0  0  0  0  3  0  0  0  0  0  0
  -33.5990  -17.7000   20.2990 C   0  0  0  0  0  3  0  0  0  0  0  0
  -31.0390  -17.2460   19.1610 C   0  0  0  0  0  0  0  0  0  0  0  0
  -31.7370  -16.1850   19.8100 C   0  0  0  0  0  0  0  0  0  0  0  0
  -32.9230  -18.7450   19.6480 C   0  0  0  0  0  0  0  0  0  0  0  0
  -31.6550  -18.5200   19.0800 C   0  0  0  0  0  3  0  0  0  0  0  0
  -33.4960  -19.9690   19.5630 F   0  0  0  0  0  0  0  0  0  0  0  0
  -31.0340  -19.5440   18.4470 F   0  0  0  0  0  0  0  0  0  0  0  0
  -31.8160  -13.7330   19.6920 C   0  0  0  0  0  0  0  0  0  0  0  0
  -31.5750  -11.2850   19.5030 C   0  0  0  0  0  2  0  0  0  0  0  0
  -30.6720  -10.9290   18.3060 C   0  0  0  0  0  2  0  0  0  0  0  0
  -29.1900  -10.9250   18.7280 C   0  0  0  0  0  2  0  0  0  0  0  0
  -28.7860  -12.2070   19.5050 C   0  0  0  0  0  3  0  0  0  0  0  0
  -29.8050  -12.5210   20.6230 C   0  0  0  0  0  2  0  0  0  0  0  0
  -31.1440  -12.5960   20.0130 N   0  0  0  0  0  0  0  0  0  0  0  0
  -32.9120  -13.7250   19.1220 O   0  0  0  0  0  0  0  0  0  0  0  0
  -31.1760  -14.8850   19.9470 N   0  0  0  0  0  0  0  0  0  0  0  0
  -30.2280  -14.8220   20.2900 H   0  0  0  0  0  0  0  0  0  0  0  0
  -26.4900  -13.1080   20.2440 C   0  0  0  0  0  0  0  0  0  0  0  0
  -25.3530  -12.4760   20.6700 C   0  0  0  0  0  0  0  0  0  0  0  0
  -25.6580  -11.0800   20.6780 C   0  0  0  0  0  0  0  0  0  0  0  0
  -27.4240  -12.1070   20.0260 N   0  0  0  0  0  0  0  0  0  0  0  0
  -26.9260  -10.8830   20.3410 N   0  0  0  0  0  0  0  0  0  0  0  0
  -24.7990   -9.9160   20.9320 C   0  0  0  0  0  0  0  0  0  0  0  0
  -25.0880   -8.9970   21.9650 C   0  0  0  0  0  3  0  0  0  0  0  0
  -24.2370   -7.8960   22.2030 C   0  0  0  0  0  3  0  0  0  0  0  0
  -23.0820   -7.7070   21.4060 C   0  0  0  0  0  0  0  0  0  0  0  0
  -22.8120   -8.6120   20.3650 C   0  0  0  0  0  3  0  0  0  0  0  0
  -23.6630   -9.7040   20.1270 C   0  0  0  0  0  3  0  0  0  0  0  0
  -22.2130   -6.6520   21.5460 O   0  0  0  0  0  0  0  0  0  0  0  0
  -21.9550   -6.0900   22.7710 C   0  0  0  0  0  0  0  0  0  0  0  0
  -21.4020   -6.8380   23.8330 C   0  0  0  0  0  3  0  0  0  0  0  0
  -21.0890   -6.2040   25.0520 C   0  0  0  0  0  3  0  0  0  0  0  0
  -21.3190   -4.8240   25.2080 C   0  0  0  0  0  0  0  0  0  0  0  0
  -21.8640   -4.0760   24.1510 C   0  0  0  0  0  3  0  0  0  0  0  0
  -22.1780   -4.7070   22.9340 C   0  0  0  0  0  0  0  0  0  0  0  0
  -22.6840   -3.9790   21.9100 F   0  0  0  0  0  0  0  0  0  0  0  0
  -21.0100   -4.2140   26.3770 F   0  0  0  0  0  0  0  0  0  0  0  0
  -24.0270  -13.1190   20.9600 C   0  0  0  0  0  0  0  0  0  0  0  0
  -23.2830  -12.5800   21.9200 N   0  0  0  0  0  0  0  0  0  0  0  0
  -23.6660  -14.1350   20.3690 O   0  0  0  0  0  0  0  0  0  0  0  0
  -23.5890  -11.7580   22.4180 H   0  0  0  0  0  0  0  0  0  0  0  0
  -22.3940  -12.9960   22.1590 H   0  0  0  0  0  0  0  0  0  0  0  0
  -26.7990  -14.4430   20.0060 N   0  0  0  0  0  4  0  0  0  0  0  0
  -26.1300  -15.1870   20.1590 H   0  0  0  0  0  0  0  0  0  0  0  0
  -27.7130  -14.7810   19.7390 H   0  0  0  0  0  0  0  0  0  0  0  0
  -29.8330  -20.1070   18.3130 C   0  0  0  0  0  3  0  0  0  0  0  0
  -30.5970  -22.2500   17.3950 C   0  0  0  0  0  1  0  0  0  0  0  0
  -29.8440  -21.5890   18.4900 N   0  0  2  0  0  4  0  0  0  0  0  0
  -28.8820  -21.8690   18.3820 H   0  0  0  0  0  0  0  0  0  0  0  0
  -30.2940  -22.0260   19.8450 C   0  0  0  0  0  2  0  0  0  0  0  0
  -29.7950  -23.4300   20.2750 C   0  0  0  0  0  2  0  0  0  0  0  0
  -30.4690  -24.6280   19.5730 C   0  0  0  0  0  2  0  0  0  0  0  0
  -30.2400  -25.8530   20.2720 O   0  0  0  0  0  0  0  0  0  0  0  0
  -26.0550  -30.7600   23.2410 C   0  0  0  0  0  0  0  0  0  0  0  0
  -29.0190  -26.4920   20.2020 C   0  0  0  0  0  0  0  0  0  0  0  0
  -25.0060  -29.4080   21.4520 C   0  0  0  0  0  3  0  0  0  0  0  0
  -26.5920  -27.9450   20.0950 C   0  0  0  0  0  0  0  0  0  0  0  0
  -27.5300  -29.8130   21.4700 C   0  0  0  0  0  2  0  0  0  0  0  0
  -27.6880  -28.4660   20.7930 C   0  0  0  0  0  0  0  0  0  0  0  0
  -28.9000  -27.7430   20.8480 C   0  0  0  0  0  3  0  0  0  0  0  0
  -27.8970  -25.9740   19.5130 C   0  0  0  0  0  3  0  0  0  0  0  0
  -26.6900  -26.6950   19.4600 C   0  0  0  0  0  3  0  0  0  0  0  0
  -25.3360  -28.7850   20.0700 C   0  0  0  0  0  2  0  0  0  0  0  0
  -26.2110  -30.0060   22.1160 N   0  0  0  0  0  0  0  0  0  0  0  0
  -24.9290  -30.9950   23.7020 O   0  0  0  0  0  0  0  0  0  0  0  0
  -24.2970  -28.3410   22.3170 C   0  0  0  0  0  0  0  0  0  0  0  0
  -23.0050  -28.1090   22.0390 N   0  0  0  0  0  0  0  0  0  0  0  0
  -24.9130  -27.7270   23.1930 O   0  0  0  0  0  0  0  0  0  0  0  0
  -22.5690  -28.6620   21.3140 H   0  0  0  0  0  0  0  0  0  0  0  0
  -19.6190  -26.8650   22.2300 C   0  0  0  0  0  0  0  0  0  0  0  0
  -22.1480  -27.1220   22.6960 C   0  0  0  0  0  3  0  0  0  0  0  0
  -22.3050  -25.7270   22.0480 C   0  0  0  0  0  2  0  0  0  0  0  0
  -21.2810  -25.4560   20.9410 C   0  0  0  0  0  2  0  0  0  0  0  0
  -19.8570  -25.5570   21.4930 C   0  0  0  0  0  2  0  0  0  0  0  0
  -20.6970  -27.6070   22.7810 C   0  0  0  0  0  0  0  0  0  0  0  0
  -20.4250  -28.8350   23.4230 C   0  0  0  0  0  3  0  0  0  0  0  0
  -19.1080  -29.3180   23.5230 C   0  0  0  0  0  3  0  0  0  0  0  0
  -18.0430  -28.5720   22.9900 C   0  0  0  0  0  3  0  0  0  0  0  0
  -18.3000  -27.3470   22.3500 C   0  0  0  0  0  3  0  0  0  0  0  0
  -27.2770  -31.3800   23.9870 C   0  0  0  0  0  3  0  0  0  0  0  0
  -26.8480  -32.6680   24.5460 N   0  0  0  0  0  0  0  0  0  0  0  0
  -27.0650  -33.8570   23.9680 C   0  0  0  0  0  0  0  0  0  0  0  0
  -27.7210  -33.9890   22.9300 O   0  0  0  0  0  0  0  0  0  0  0  0
  -26.2620  -32.6330   25.3670 H   0  0  0  0  0  0  0  0  0  0  0  0
  -25.1600  -35.4970   23.9310 C   0  0  0  0  0  1  0  0  0  0  0  0
  -26.4580  -35.0980   24.6500 C   0  0  0  0  0  3  0  0  0  0  0  0
  -28.5180  -36.0520   25.5870 C   0  0  0  0  0  1  0  0  0  0  0  0
  -27.3780  -36.2540   24.6960 N   0  0  0  0  0  0  0  0  0  0  0  0
  -26.8870  -37.0920   24.9940 H   0  0  0  0  0  0  0  0  0  0  0  0
  -27.8570  -30.4460   25.1200 C   0  0  1  0  0  0  0  0  0  0  0  0
  -26.7760  -29.8560   26.0540 C   0  0  0  0  0  1  0  0  0  0  0  0
  -28.6420  -29.2650   24.5000 C   0  0  0  0  0  1  0  0  0  0  0  0
  -28.8620  -31.2360   25.9910 C   0  0  0  0  0  1  0  0  0  0  0  0
  1  3  1  0
  2  1  2  0
  3  7  1  0
  4  5  2  0
  4  2  1  0
  5  6  1  0
  6  9  1  0
  6  3  2  0
  7  8  1  0
  9 54  1  0
 10  5  1  0
 10 13  1  0
 12 11  1  0
 13 14  1  0
 14 27  1  0
 14 11  2  0
 15 12  2  0
 16 13  2  0
 16 15  1  0
 17 15  1  0
 19 27  1  0
 19 25  1  0
 20 25  1  0
 21 22  1  0
 21 20  1  0
 23 22  1  0
 23 32  1  0
 23 24  1  0
 25 24  1  0
 26 19  2  0
 27 28  1  0
 29 30  2  0
 30 31  1  0
 30 49  1  0
 31 34  1  0
 32 29  1  0
 32 33  1  0
 33 31  2  0
 34 35  1  0
 35 36  2  0
 37 40  1  0
 37 36  1  0
 38 37  2  0
 39 38  1  0
 39 34  2  0
 40 41  1  0
 41 46  2  0
 41 42  1  0
 42 43  2  0
 43 44  1  0
 44 48  1  0
 45 44  2  0
 46 45  1  0
 47 46  1  0
 49 50  1  0
 50 53  1  0
 50 52  1  0
 51 49  2  0
 54 55  1  0
 54 29  1  0
 56 54  1  0
 57 18  1  0
 57 59  1  0
 57  4  1  0
 58 59  1  0
 59 61  1  0
 59 60  1  6
 61 62  1  0
 63 64  1  0
 63 62  1  0
 65 76  2  0
 66 64  1  0
 66 71  1  0
 67 75  1  0
 67 77  1  0
 68 70  1  0
 69 75  1  0
 70 71  2  0
 70 69  1  0
 72 66  2  0
 73 72  1  0
 73 68  2  0
 74 68  1  0
 74 67  1  0
 75 65  1  0
 77 79  2  0
 78 77  1  0
 80 78  1  0
 81 90  2  0
 81 86  1  0
 82 78  1  0
 82 86  1  0
 83 82  1  0
 84 85  1  0
 84 83  1  0
 85 81  1  0
 86 87  2  0
 87 88  1  0
 89 88  2  0
 90 89  1  0
 91 65  1  0
 91 92  1  0
 91101  1  0
 92 95  1  0
 93 92  1  0
 93 97  1  0
 94 93  2  0
 97 96  1  0
 97 99  1  0
 99100  1  0
 99 98  1  0
101104  1  1
101102  1  0
103101  1  0
M  ISO  4  19 100  27 100  63 101  64 101
M  END
>  <TORSDO>  (7) 
F 23

>  <SCORE>  (7) 
-6.372

>  <name>  (7) 
6

>  <ligand_id>  (7) 
6

>  <original_smiles>  (7) 
[H]c1c([H])c([H])c2c(c1[H])C([H])([H])C([H])([H])C([H])([H])C2([H])N([H])C(=O)C1([H])N(C(=O)C([H])(N([H])C(=O)C([H])(N([H])C([H])([H])[H])C([H])([H])[H])C(C([H])([H])[H])(C([H])([H])[H])C([H])([H])[H])C([H])([H])c2c([H])c(OC([H])([H])C([H])([H])C([H])([H])[N+]([H])(C([H])([H])[H])C([H])([H])c3c([H])c([H])c4c(c3C([H])([H])c3c(F)c(F)c([H])c([H])c3N([H])C(=O)N3C([H])([H])C([H])([H])C([H])([H])C([H])(n5nc(-c6c([H])c([H])c(Oc7c([H])c([H])c(F)c([H])c7F)c([H])c6[H])c(C(=O)N([H])[H])c5N([H])[H])C3([H])[H])SC([H])([H])C4([H])[H])c([H])c([H])c2C1([H])[H]

>  <smiles>  (7) 
[H]c1c([H])c([H])c2c(c1[H])C([H])([H])C([H])([H])C([H])([H])C2([H])N([H])C(=O)C1([H])N(C(=O)C([H])(N([H])C(=O)C([H])(N([H])C([H])([H])[H])C([H])([H])[H])C(C([H])([H])[H])(C([H])([H])[H])C([H])([H])[H])C([H])([H])c2c([H])c(OC([H])([H])C([H])([H])C([H])([H])[N+]([H])(C([H])([H])[H])C([H])([H])c3c([H])c([H])c4c(c3C([H])([H])c3c(F)c(F)c([H])c([H])c3N([H])C(=O)N3C([H])([H])C([H])([H])C([H])([H])C([H])(n5nc(-c6c([H])c([H])c(Oc7c([H])c([H])c(F)c([H])c7F)c([H])c6[H])c(C(=O)N([H])[H])c5N([H])[H])C3([H])[H])SC([H])([H])C4([H])[H])c([H])c([H])c2C1([H])[H]

$$$$
7:0:0
     RDKit          3D

 88 96  0  0  1  0  0  0  0  0999 V2000
  -29.6770  -19.8740   19.9200 C   0  0  0  0  0  0  0  0  0  0  0  0
  -28.9470  -21.1360   19.5950 N   0  0  0  0  0  0  0  0  0  0  0  0
  -30.6380  -20.0220   20.6750 O   0  0  0  0  0  0  0  0  0  0  0  0
  -28.1540  -20.9580   18.9920 H   0  0  0  0  0  0  0  0  0  0  0  0
  -30.5910  -15.4220   19.6680 C   0  0  0  0  0  0  0  0  0  0  0  0
  -30.5460  -12.9560   18.8010 C   0  0  0  0  0  2  0  0  0  0  0  0
  -29.5570  -12.7250   17.6270 C   0  0  0  0  0  2  0  0  0  0  0  0
  -28.1390  -12.4360   18.1480 C   0  0  0  0  0  2  0  0  0  0  0  0
  -27.7500  -13.3890   19.3030 C   0  0  0  0  0  3  0  0  0  0  0  0
  -28.8620  -13.5340   20.3610 C   0  0  0  0  0  2  0  0  0  0  0  0
  -30.0480  -14.0910   19.6780 N   0  0  0  0  0  0  0  0  0  0  0  0
  -31.7270  -15.4420   19.1670 O   0  0  0  0  0  0  0  0  0  0  0  0
  -27.9260  -17.9990   19.5350 C   0  0  0  0  0  2  0  0  0  0  0  0
  -29.3960  -16.7570   21.4000 C   0  0  0  0  0  2  0  0  0  0  0  0
  -29.4430  -18.1940   19.4150 C   0  0  0  0  0  3  0  0  0  0  0  0
  -29.8840  -16.6940   20.0310 N   0  0  0  0  0  0  0  0  0  0  0  0
  -27.6990  -17.3950   21.2430 S   0  0  0  0  0  0  0  0  0  0  0  0
  -25.4290  -13.9180   20.2170 C   0  0  0  0  0  0  0  0  0  0  0  0
  -24.3970  -13.1350   20.6420 C   0  0  0  0  0  0  0  0  0  0  0  0
  -24.8620  -11.7870   20.5510 C   0  0  0  0  0  0  0  0  0  0  0  0
  -26.4600  -13.0550   19.8920 N   0  0  0  0  0  0  0  0  0  0  0  0
  -26.1320  -11.7620   20.1580 N   0  0  0  0  0  0  0  0  0  0  0  0
  -24.1480  -10.5230   20.7630 C   0  0  0  0  0  0  0  0  0  0  0  0
  -24.5680   -9.5900   21.7360 C   0  0  0  0  0  3  0  0  0  0  0  0
  -23.8500   -8.3920   21.9360 C   0  0  0  0  0  3  0  0  0  0  0  0
  -22.6960   -8.1190   21.1620 C   0  0  0  0  0  0  0  0  0  0  0  0
  -22.2930   -9.0420   20.1810 C   0  0  0  0  0  3  0  0  0  0  0  0
  -23.0130  -10.2310   19.9800 C   0  0  0  0  0  3  0  0  0  0  0  0
  -21.9500   -6.9700   21.2680 O   0  0  0  0  0  0  0  0  0  0  0  0
  -21.7640   -6.3420   22.4740 C   0  0  0  0  0  0  0  0  0  0  0  0
  -21.1270   -6.9840   23.5590 C   0  0  0  0  0  3  0  0  0  0  0  0
  -20.8940   -6.2790   24.7560 C   0  0  0  0  0  3  0  0  0  0  0  0
  -21.2890   -4.9320   24.8680 C   0  0  0  0  0  0  0  0  0  0  0  0
  -21.9210   -4.2890   23.7890 C   0  0  0  0  0  3  0  0  0  0  0  0
  -22.1560   -4.9930   22.5940 C   0  0  0  0  0  0  0  0  0  0  0  0
  -22.7440   -4.3640   21.5490 F   0  0  0  0  0  0  0  0  0  0  0  0
  -21.0590   -4.2510   26.0160 F   0  0  0  0  0  0  0  0  0  0  0  0
  -23.0250  -13.6060   21.0230 C   0  0  0  0  0  0  0  0  0  0  0  0
  -22.3760  -12.9200   21.9540 N   0  0  0  0  0  0  0  0  0  0  0  0
  -22.5420  -14.6270   20.5300 O   0  0  0  0  0  0  0  0  0  0  0  0
  -22.7830  -12.0970   22.3740 H   0  0  0  0  0  0  0  0  0  0  0  0
  -21.4620  -13.2230   22.2550 H   0  0  0  0  0  0  0  0  0  0  0  0
  -25.5630  -15.2920   20.0560 N   0  0  0  0  0  0  0  0  0  0  0  0
  -24.8110  -15.9160   20.3270 H   0  0  0  0  0  0  0  0  0  0  0  0
  -26.4550  -15.7640   19.9830 H   0  0  0  0  0  0  0  0  0  0  0  0
  -29.1200  -22.7860   19.8950 C   0  0  0  0  0  3  0  0  0  0  0  0
  -28.0600  -24.2530   19.7000 C   0  0  0  0  0  3  0  0  0  0  0  0
  -28.2180  -25.8860   19.9780 O   0  0  0  0  0  0  0  0  0  0  0  0
  -24.5470  -31.6790   23.1640 C   0  0  0  0  0  0  0  0  0  0  0  0
  -27.1770  -26.9650   19.9490 C   0  0  0  0  0  0  0  0  0  0  0  0
  -23.3650  -30.3250   21.4830 C   0  0  0  0  0  3  0  0  0  0  0  0
  -24.8340  -28.8020   19.9850 C   0  0  0  0  0  0  0  0  0  0  0  0
  -25.9240  -30.5940   21.3200 C   0  0  0  0  0  2  0  0  0  0  0  0
  -26.0190  -29.2090   20.6110 C   0  0  0  0  0  0  0  0  0  0  0  0
  -27.1820  -28.3130   20.5670 C   0  0  0  0  0  3  0  0  0  0  0  0
  -25.9580  -26.7130   19.2780 C   0  0  0  0  0  3  0  0  0  0  0  0
  -24.8310  -27.5780   19.2970 C   0  0  0  0  0  3  0  0  0  0  0  0
  -23.5960  -29.6930   20.0800 C   0  0  0  0  0  2  0  0  0  0  0  0
  -24.6340  -30.8920   22.0440 N   0  0  0  0  0  0  0  0  0  0  0  0
  -23.4590  -31.9260   23.7100 O   0  0  0  0  0  0  0  0  0  0  0  0
  -22.7010  -29.2800   22.4180 C   0  0  0  0  0  0  0  0  0  0  0  0
  -21.3830  -29.0510   22.2630 N   0  0  0  0  0  0  0  0  0  0  0  0
  -23.3810  -28.6740   23.2510 O   0  0  0  0  0  0  0  0  0  0  0  0
  -20.8850  -29.5920   21.5700 H   0  0  0  0  0  0  0  0  0  0  0  0
  -18.0580  -27.6640   22.6840 C   0  0  0  0  0  0  0  0  0  0  0  0
  -20.5960  -28.0590   23.0020 C   0  0  0  0  0  3  0  0  0  0  0  0
  -20.7810  -26.6450   22.4070 C   0  0  0  0  0  2  0  0  0  0  0  0
  -19.7180  -26.2830   21.3660 C   0  0  0  0  0  2  0  0  0  0  0  0
  -18.3190  -26.3410   21.9850 C   0  0  0  0  0  2  0  0  0  0  0  0
  -19.1260  -28.4780   23.1480 C   0  0  0  0  0  0  0  0  0  0  0  0
  -18.8270  -29.7120   23.7670 C   0  0  0  0  0  3  0  0  0  0  0  0
  -17.4940  -30.1360   23.9230 C   0  0  0  0  0  3  0  0  0  0  0  0
  -16.4400  -29.3220   23.4720 C   0  0  0  0  0  3  0  0  0  0  0  0
  -16.7230  -28.0870   22.8600 C   0  0  0  0  0  3  0  0  0  0  0  0
  -25.8120  -32.3250   23.8080 C   0  0  0  0  0  3  0  0  0  0  0  0
  -25.4970  -33.7300   24.1220 N   0  0  0  0  0  0  0  0  0  0  0  0
  -25.7930  -34.7760   23.3390 C   0  0  0  0  0  0  0  0  0  0  0  0
  -26.4260  -34.6610   22.2860 O   0  0  0  0  0  0  0  0  0  0  0  0
  -24.9290  -33.8920   24.9410 H   0  0  0  0  0  0  0  0  0  0  0  0
  -24.0150  -36.5390   23.0670 C   0  0  0  0  0  1  0  0  0  0  0  0
  -25.3170  -36.1710   23.7950 C   0  0  0  0  0  3  0  0  0  0  0  0
  -27.4780  -37.1290   24.4650 C   0  0  0  0  0  1  0  0  0  0  0  0
  -26.3210  -37.2370   23.5810 N   0  0  0  0  0  0  0  0  0  0  0  0
  -25.9040  -38.1540   23.7130 H   0  0  0  0  0  0  0  0  0  0  0  0
  -26.2930  -31.5750   25.1130 C   0  0  1  0  0  0  0  0  0  0  0  0
  -25.1720  -31.3540   26.1550 C   0  0  0  0  0  1  0  0  0  0  0  0
  -26.8890  -30.1900   24.7680 C   0  0  0  0  0  1  0  0  0  0  0  0
  -27.4230  -32.3800   25.7950 C   0  0  0  0  0  1  0  0  0  0  0  0
  1  3  2  0
  2 46  1  0
  2  1  1  0
  4  2  1  0
  5 11  1  0
  5 16  1  0
  6 11  1  0
  7  8  1  0
  7  6  1  0
  9  8  1  0
  9 21  1  0
  9 10  1  0
 11 10  1  0
 12  5  2  0
 13 17  1  0
 15 13  1  0
 15  1  1  0
 15 16  1  0
 16 14  1  0
 17 14  1  0
 18 19  2  0
 19 38  1  0
 20 19  1  0
 20 23  1  0
 21 22  1  0
 21 18  1  0
 22 20  2  0
 23 24  1  0
 24 25  2  0
 26 29  1  0
 26 25  1  0
 27 26  2  0
 28 27  1  0
 28 23  2  0
 29 30  1  0
 30 35  2  0
 30 31  1  0
 31 32  2  0
 32 33  1  0
 33 37  1  0
 34 33  2  0
 35 34  1  0
 36 35  1  0
 38 39  1  0
 39 42  1  0
 39 41  1  0
 40 38  2  0
 43 18  1  0
 43 44  1  0
 45 43  1  0
 47 46  2  0
 47 48  1  0
 49 60  2  0
 50 48  1  0
 50 55  1  0
 51 59  1  0
 51 61  1  0
 52 58  1  0
 52 54  1  0
 53 59  1  0
 54 53  1  0
 55 54  2  0
 56 57  1  0
 56 50  2  0
 57 52  2  0
 58 51  1  0
 59 49  1  0
 61 63  2  0
 62 61  1  0
 64 62  1  0
 65 74  2  0
 65 70  1  0
 66 62  1  0
 66 70  1  0
 67 66  1  0
 68 69  1  0
 68 67  1  0
 69 65  1  0
 70 71  2  0
 71 72  1  0
 73 72  2  0
 74 73  1  0
 75 49  1  0
 75 76  1  0
 75 85  1  0
 76 79  1  0
 77 81  1  0
 77 76  1  0
 78 77  2  0
 81 80  1  0
 83 84  1  0
 83 81  1  0
 83 82  1  0
 85 88  1  1
 85 86  1  0
 87 85  1  0
M  ISO  4   5 100  16 100  47 101  48 101
M  END
>  <TORSDO>  (8) 
F 18

>  <SCORE>  (8) 
-13.743

>  <name>  (8) 
7

>  <ligand_id>  (8) 
7

>  <original_smiles>  (8) 
[H]c1c([H])c([H])c2c(c1[H])C([H])([H])C([H])([H])C([H])([H])C2([H])N([H])C(=O)C1([H])N(C(=O)C([H])(N([H])C(=O)C([H])(N([H])C([H])([H])[H])C([H])([H])[H])C(C([H])([H])[H])(C([H])([H])[H])C([H])([H])[H])C([H])([H])c2c([H])c(OC([H])([H])C([H])([H])N([H])C(=O)C3([H])N(C(=O)N4C([H])([H])C([H])([H])C([H])([H])C([H])(n5nc(-c6c([H])c([H])c(Oc7c([H])c([H])c(F)c([H])c7F)c([H])c6[H])c(C(=O)N([H])[H])c5N([H])[H])C4([H])[H])C([H])([H])SC3([H])[H])c([H])c([H])c2C1([H])[H]

>  <smiles>  (8) 
[H]c1c([H])c([H])c2c(c1[H])C([H])([H])C([H])([H])C([H])([H])C2([H])N([H])C(=O)C1([H])N(C(=O)C([H])(N([H])C(=O)C([H])(N([H])C([H])([H])[H])C([H])([H])[H])C(C([H])([H])[H])(C([H])([H])[H])C([H])([H])[H])C([H])([H])c2c([H])c(OC([H])([H])C([H])([H])N([H])C(=O)C3([H])N(C(=O)N4C([H])([H])C([H])([H])C([H])([H])C([H])(n5nc(-c6c([H])c([H])c(Oc7c([H])c([H])c(F)c([H])c7F)c([H])c6[H])c(C(=O)N([H])[H])c5N([H])[H])C4([H])[H])C([H])([H])SC3([H])[H])c([H])c([H])c2C1([H])[H]

$$$$
8:0:0
     RDKit          3D

 90 98  0  0  1  0  0  0  0  0999 V2000
  -31.0370  -17.9100   19.9770 C   0  0  0  0  0  3  0  0  0  0  0  0
  -31.0130  -19.3290   19.8310 C   0  0  0  0  0  3  0  0  0  0  0  0
  -28.7300  -17.9770   20.6360 C   0  0  0  0  0  3  0  0  0  0  0  0
  -29.8880  -17.1860   20.3860 C   0  0  0  0  0  0  0  0  0  0  0  0
  -29.8590  -20.1220   20.0780 C   0  0  0  0  0  0  0  0  0  0  0  0
  -28.7050  -19.3980   20.4900 C   0  0  0  0  0  0  0  0  0  0  0  0
  -27.5490  -20.0520   20.7580 F   0  0  0  0  0  0  0  0  0  0  0  0
  -30.5980  -14.6850   20.1250 C   0  0  0  0  0  0  0  0  0  0  0  0
  -30.3560  -12.4480   19.0640 C   0  0  0  0  0  2  0  0  0  0  0  0
  -29.3690  -12.5900   17.8830 C   0  0  0  0  0  2  0  0  0  0  0  0
  -27.9110  -12.4310   18.3610 C   0  0  0  0  0  2  0  0  0  0  0  0
  -27.6000  -13.2790   19.6230 C   0  0  0  0  0  3  0  0  0  0  0  0
  -28.6980  -13.1110   20.6970 C   0  0  0  0  0  2  0  0  0  0  0  0
  -29.9860  -13.4590   20.0760 N   0  0  0  0  0  0  0  0  0  0  0  0
  -31.7390  -14.8470   19.6810 O   0  0  0  0  0  0  0  0  0  0  0  0
  -29.8100  -15.7270   20.5450 N   0  0  0  0  0  0  0  0  0  0  0  0
  -28.9370  -15.4010   20.9340 H   0  0  0  0  0  0  0  0  0  0  0  0
  -25.2380  -13.8750   20.4420 C   0  0  0  0  0  0  0  0  0  0  0  0
  -24.1830  -13.1000   20.8410 C   0  0  0  0  0  0  0  0  0  0  0  0
  -24.6380  -11.7470   20.7700 C   0  0  0  0  0  0  0  0  0  0  0  0
  -26.2690  -12.9940   20.1530 N   0  0  0  0  0  0  0  0  0  0  0  0
  -25.9140  -11.7080   20.4090 N   0  0  0  0  0  0  0  0  0  0  0  0
  -23.9120  -10.4850   20.9680 C   0  0  0  0  0  0  0  0  0  0  0  0
  -24.3650   -9.5090   21.8830 C   0  0  0  0  0  3  0  0  0  0  0  0
  -23.6420   -8.3110   22.0690 C   0  0  0  0  0  3  0  0  0  0  0  0
  -22.4500   -8.0820   21.3400 C   0  0  0  0  0  0  0  0  0  0  0  0
  -22.0150   -9.0480   20.4150 C   0  0  0  0  0  3  0  0  0  0  0  0
  -22.7400  -10.2360   20.2260 C   0  0  0  0  0  3  0  0  0  0  0  0
  -21.6950   -6.9380   21.4370 O   0  0  0  0  0  0  0  0  0  0  0  0
  -21.6530   -6.1990   22.5920 C   0  0  0  0  0  0  0  0  0  0  0  0
  -21.2070   -6.7480   23.8130 C   0  0  0  0  0  3  0  0  0  0  0  0
  -21.1150   -5.9340   24.9610 C   0  0  0  0  0  3  0  0  0  0  0  0
  -21.4580   -4.5710   24.8850 C   0  0  0  0  0  0  0  0  0  0  0  0
  -21.8970   -4.0200   23.6680 C   0  0  0  0  0  3  0  0  0  0  0  0
  -21.9910   -4.8310   22.5240 C   0  0  0  0  0  0  0  0  0  0  0  0
  -22.3940   -4.2910   21.3490 F   0  0  0  0  0  0  0  0  0  0  0  0
  -21.3620   -3.7860   25.9840 F   0  0  0  0  0  0  0  0  0  0  0  0
  -22.7990  -13.5780   21.1750 C   0  0  0  0  0  0  0  0  0  0  0  0
  -22.1060  -12.8780   22.0650 N   0  0  0  0  0  0  0  0  0  0  0  0
  -22.3450  -14.6100   20.6840 O   0  0  0  0  0  0  0  0  0  0  0  0
  -22.4870  -12.0440   22.4880 H   0  0  0  0  0  0  0  0  0  0  0  0
  -21.1790  -13.1820   22.3300 H   0  0  0  0  0  0  0  0  0  0  0  0
  -25.4000  -15.2470   20.2780 N   0  0  0  0  0  0  0  0  0  0  0  0
  -24.6340  -15.8960   20.4170 H   0  0  0  0  0  0  0  0  0  0  0  0
  -26.2220  -15.6840   19.8800 H   0  0  0  0  0  0  0  0  0  0  0  0
  -29.9680  -21.5220   19.9050 O   0  0  0  0  0  0  0  0  0  0  0  0
  -28.8750  -22.4670   20.1420 C   0  0  0  0  0  3  0  0  0  0  0  0
  -29.2270  -24.0020   19.8750 C   0  0  0  0  0  3  0  0  0  0  0  0
  -28.0550  -25.0580   20.0540 C   0  0  0  0  0  2  0  0  0  0  0  0
  -28.3030  -26.5080   19.8500 O   0  0  0  0  0  0  0  0  0  0  0  0
  -24.6700  -31.8010   23.1690 C   0  0  0  0  0  0  0  0  0  0  0  0
  -27.1900  -27.3650   19.8710 C   0  0  0  0  0  0  0  0  0  0  0  0
  -23.4280  -30.4940   21.4830 C   0  0  0  0  0  3  0  0  0  0  0  0
  -24.8410  -28.9990   19.9700 C   0  0  0  0  0  0  0  0  0  0  0  0
  -25.9690  -30.7950   21.2790 C   0  0  0  0  0  2  0  0  0  0  0  0
  -26.0250  -29.4470   20.5710 C   0  0  0  0  0  0  0  0  0  0  0  0
  -27.2020  -28.6430   20.5130 C   0  0  0  0  0  3  0  0  0  0  0  0
  -25.9840  -26.9800   19.2380 C   0  0  0  0  0  3  0  0  0  0  0  0
  -24.8230  -27.7710   19.2960 C   0  0  0  0  0  3  0  0  0  0  0  0
  -23.6170  -29.8840   20.0710 C   0  0  0  0  0  2  0  0  0  0  0  0
  -24.7090  -31.0450   22.0350 N   0  0  0  0  0  0  0  0  0  0  0  0
  -23.5980  -32.0660   23.7310 O   0  0  0  0  0  0  0  0  0  0  0  0
  -22.7670  -29.4390   22.4030 C   0  0  0  0  0  0  0  0  0  0  0  0
  -21.4370  -29.2880   22.2910 N   0  0  0  0  0  0  0  0  0  0  0  0
  -23.4500  -28.7630   23.1770 O   0  0  0  0  0  0  0  0  0  0  0  0
  -20.9460  -29.8860   21.6410 H   0  0  0  0  0  0  0  0  0  0  0  0
  -18.0450  -28.1480   22.8170 C   0  0  0  0  0  0  0  0  0  0  0  0
  -20.6160  -28.3280   23.0300 C   0  0  0  0  0  3  0  0  0  0  0  0
  -20.6640  -26.9300   22.3690 C   0  0  0  0  0  2  0  0  0  0  0  0
  -19.5260  -26.6940   21.3700 C   0  0  0  0  0  2  0  0  0  0  0  0
  -18.1670  -26.8370   22.0610 C   0  0  0  0  0  2  0  0  0  0  0  0
  -19.1950  -28.8560   23.2580 C   0  0  0  0  0  0  0  0  0  0  0  0
  -19.0250  -30.0880   23.9270 C   0  0  0  0  0  3  0  0  0  0  0  0
  -17.7390  -30.6110   24.1590 C   0  0  0  0  0  3  0  0  0  0  0  0
  -16.6040  -29.8990   23.7320 C   0  0  0  0  0  3  0  0  0  0  0  0
  -16.7580  -28.6700   23.0680 C   0  0  0  0  0  3  0  0  0  0  0  0
  -25.9690  -32.3900   23.8020 C   0  0  0  0  0  3  0  0  0  0  0  0
  -26.4820  -31.5600   25.0420 C   0  0  1  0  0  0  0  0  0  0  0  0
  -25.3960  -31.3020   26.1120 C   0  0  0  0  0  1  0  0  0  0  0  0
  -27.0380  -30.1900   24.5940 C   0  0  0  0  0  1  0  0  0  0  0  0
  -27.6520  -32.3110   25.7230 C   0  0  0  0  0  1  0  0  0  0  0  0
  -25.6830  -33.7790   24.1890 N   0  0  0  0  0  0  0  0  0  0  0  0
  -25.9950  -34.8530   23.4520 C   0  0  0  0  0  0  0  0  0  0  0  0
  -26.6230  -34.7770   22.3920 O   0  0  0  0  0  0  0  0  0  0  0  0
  -25.1190  -33.9120   25.0150 H   0  0  0  0  0  0  0  0  0  0  0  0
  -24.2570  -36.6600   23.2380 C   0  0  0  0  0  1  0  0  0  0  0  0
  -25.5380  -36.2290   23.9710 C   0  0  0  0  0  3  0  0  0  0  0  0
  -27.7130  -37.0900   24.7190 C   0  0  0  0  0  1  0  0  0  0  0  0
  -26.5670  -37.2830   23.8340 N   0  0  0  0  0  0  0  0  0  0  0  0
  -26.1720  -38.2000   24.0220 H   0  0  0  0  0  0  0  0  0  0  0  0
  1  4  1  0
  2  1  2  0
  2  5  1  0
  4 16  1  0
  4  3  2  0
  5  6  2  0
  6  3  1  0
  6  7  1  0
  8 16  1  0
  9 14  1  0
 10 11  1  0
 10  9  1  0
 12 11  1  0
 12 21  1  0
 12 13  1  0
 14  8  1  0
 14 13  1  0
 15  8  2  0
 16 17  1  0
 18 19  2  0
 19 38  1  0
 20 19  1  0
 20 23  1  0
 21 22  1  0
 21 18  1  0
 22 20  2  0
 23 24  1  0
 24 25  2  0
 26 29  1  0
 26 25  1  0
 27 26  2  0
 28 27  1  0
 28 23  2  0
 29 30  1  0
 30 31  1  0
 31 32  2  0
 33 32  1  0
 33 37  1  0
 34 33  2  0
 35 30  2  0
 35 34  1  0
 36 35  1  0
 38 39  1  0
 39 42  1  0
 39 41  1  0
 40 38  2  0
 43 44  1  0
 43 18  1  0
 45 43  1  0
 46  5  1  0
 46 47  1  0
 48 49  1  0
 48 47  2  0
 50 52  1  0
 50 49  1  0
 51 62  2  0
 52 57  1  0
 53 61  1  0
 53 63  1  0
 54 60  1  0
 54 56  1  0
 55 61  1  0
 56 55  1  0
 57 56  2  0
 58 59  1  0
 58 52  2  0
 59 54  2  0
 60 53  1  0
 61 51  1  0
 63 65  2  0
 64 63  1  0
 66 64  1  0
 67 76  2  0
 67 72  1  0
 68 64  1  0
 68 72  1  0
 69 68  1  0
 70 71  1  0
 70 69  1  0
 71 67  1  0
 72 73  2  0
 73 74  1  0
 75 74  2  0
 76 75  1  0
 77 51  1  0
 77 82  1  0
 77 78  1  0
 78 81  1  1
 78 79  1  0
 80 78  1  0
 82 85  1  0
 83 87  1  0
 83 82  1  0
 84 83  2  0
 87 86  1  0
 89 87  1  0
 89 90  1  0
 89 88  1  0
M  ISO  4   8 100  16 100  49 101  50 101
M  END
>  <TORSDO>  (9) 
F 20

>  <SCORE>  (9) 
-13.622

>  <name>  (9) 
8

>  <ligand_id>  (9) 
8

>  <original_smiles>  (9) 
[H]c1c([H])c([H])c2c(c1[H])C([H])([H])C([H])([H])C([H])([H])C2([H])N([H])C(=O)C1([H])N(C(=O)C([H])(N([H])C(=O)C([H])(N([H])C([H])([H])[H])C([H])([H])[H])C(C([H])([H])[H])(C([H])([H])[H])C([H])([H])[H])C([H])([H])c2c([H])c(OC([H])([H])C([H])([H])C([H])([H])Oc3c([H])c([H])c(N([H])C(=O)N4C([H])([H])C([H])([H])C([H])([H])C([H])(n5nc(-c6c([H])c([H])c(Oc7c([H])c([H])c(F)c([H])c7F)c([H])c6[H])c(C(=O)N([H])[H])c5N([H])[H])C4([H])[H])c([H])c3F)c([H])c([H])c2C1([H])[H]

>  <smiles>  (9) 
[H]c1c([H])c([H])c2c(c1[H])C([H])([H])C([H])([H])C([H])([H])C2([H])N([H])C(=O)C1([H])N(C(=O)C([H])(N([H])C(=O)C([H])(N([H])C([H])([H])[H])C([H])([H])[H])C(C([H])([H])[H])(C([H])([H])[H])C([H])([H])[H])C([H])([H])c2c([H])c(OC([H])([H])C([H])([H])C([H])([H])Oc3c([H])c([H])c(N([H])C(=O)N4C([H])([H])C([H])([H])C([H])([H])C([H])(n5nc(-c6c([H])c([H])c(Oc7c([H])c([H])c(F)c([H])c7F)c([H])c6[H])c(C(=O)N([H])[H])c5N([H])[H])C4([H])[H])c([H])c3F)c([H])c([H])c2C1([H])[H]

$$$$
9:0:0
     RDKit          3D

 90 98  0  0  1  0  0  0  0  0999 V2000
  -31.0930  -17.9190   20.5650 C   0  0  0  0  0  3  0  0  0  0  0  0
  -31.0950  -19.3450   20.5020 C   0  0  0  0  0  3  0  0  0  0  0  0
  -28.7000  -19.3790   20.3330 C   0  0  0  0  0  3  0  0  0  0  0  0
  -29.8810  -17.1820   20.5250 C   0  0  0  0  0  0  0  0  0  0  0  0
  -29.9090  -20.1220   20.3880 C   0  0  0  0  0  0  0  0  0  0  0  0
  -28.6910  -17.9520   20.4070 C   0  0  0  0  0  0  0  0  0  0  0  0
  -27.5060  -17.2970   20.3610 F   0  0  0  0  0  0  0  0  0  0  0  0
  -30.5680  -14.6790   20.3110 C   0  0  0  0  0  0  0  0  0  0  0  0
  -30.3460  -12.4480   19.2340 C   0  0  0  0  0  2  0  0  0  0  0  0
  -29.3930  -12.5890   18.0260 C   0  0  0  0  0  2  0  0  0  0  0  0
  -27.9220  -12.4340   18.4630 C   0  0  0  0  0  2  0  0  0  0  0  0
  -27.5740  -13.2900   19.7100 C   0  0  0  0  0  3  0  0  0  0  0  0
  -28.6390  -13.1200   20.8180 C   0  0  0  0  0  2  0  0  0  0  0  0
  -29.9480  -13.4590   20.2340 N   0  0  0  0  0  0  0  0  0  0  0  0
  -31.7320  -14.8330   19.9340 O   0  0  0  0  0  0  0  0  0  0  0  0
  -29.7540  -15.7290   20.6430 N   0  0  0  0  0  0  0  0  0  0  0  0
  -28.8180  -15.4350   20.8750 H   0  0  0  0  0  0  0  0  0  0  0  0
  -25.1820  -13.8950   20.4320 C   0  0  0  0  0  0  0  0  0  0  0  0
  -24.1150  -13.1250   20.8040 C   0  0  0  0  0  0  0  0  0  0  0  0
  -24.5760  -11.7720   20.7780 C   0  0  0  0  0  0  0  0  0  0  0  0
  -26.2260  -13.0130   20.2010 N   0  0  0  0  0  0  0  0  0  0  0  0
  -25.8660  -11.7310   20.4680 N   0  0  0  0  0  0  0  0  0  0  0  0
  -23.8480  -10.5130   20.9740 C   0  0  0  0  0  0  0  0  0  0  0  0
  -24.2760   -9.5510   21.9150 C   0  0  0  0  0  3  0  0  0  0  0  0
  -23.5480   -8.3540   22.0980 C   0  0  0  0  0  3  0  0  0  0  0  0
  -22.3770   -8.1130   21.3420 C   0  0  0  0  0  0  0  0  0  0  0  0
  -21.9680   -9.0640   20.3910 C   0  0  0  0  0  3  0  0  0  0  0  0
  -22.6970  -10.2510   20.2050 C   0  0  0  0  0  3  0  0  0  0  0  0
  -21.6220   -6.9700   21.4330 O   0  0  0  0  0  0  0  0  0  0  0  0
  -21.5600   -6.2390   22.5930 C   0  0  0  0  0  0  0  0  0  0  0  0
  -21.1070   -6.8040   23.8060 C   0  0  0  0  0  3  0  0  0  0  0  0
  -20.9940   -6.0000   24.9580 C   0  0  0  0  0  3  0  0  0  0  0  0
  -21.3220   -4.6320   24.8980 C   0  0  0  0  0  0  0  0  0  0  0  0
  -21.7670   -4.0660   23.6900 C   0  0  0  0  0  3  0  0  0  0  0  0
  -21.8820   -4.8680   22.5400 C   0  0  0  0  0  0  0  0  0  0  0  0
  -22.2920   -4.3140   21.3730 F   0  0  0  0  0  0  0  0  0  0  0  0
  -21.2050   -3.8570   26.0010 F   0  0  0  0  0  0  0  0  0  0  0  0
  -22.7190  -13.6050   21.0780 C   0  0  0  0  0  0  0  0  0  0  0  0
  -21.9920  -12.9140   21.9490 N   0  0  0  0  0  0  0  0  0  0  0  0
  -22.2810  -14.6300   20.5560 O   0  0  0  0  0  0  0  0  0  0  0  0
  -22.3580  -12.0850   22.3930 H   0  0  0  0  0  0  0  0  0  0  0  0
  -21.0560  -13.2180   22.1750 H   0  0  0  0  0  0  0  0  0  0  0  0
  -25.3430  -15.2660   20.2560 N   0  0  0  0  0  0  0  0  0  0  0  0
  -24.5770  -15.9130   20.3970 H   0  0  0  0  0  0  0  0  0  0  0  0
  -26.2090  -15.7380   20.0180 H   0  0  0  0  0  0  0  0  0  0  0  0
  -30.0250  -21.5300   20.3580 O   0  0  0  0  0  0  0  0  0  0  0  0
  -28.8960  -22.4420   20.1650 C   0  0  0  0  0  2  0  0  0  0  0  0
  -29.2560  -23.9960   20.2800 C   0  0  0  0  0  3  0  0  0  0  0  0
  -28.1150  -25.0540   19.9510 C   0  0  0  0  0  3  0  0  0  0  0  0
  -28.3390  -26.5060   20.1590 O   0  0  0  0  0  0  0  0  0  0  0  0
  -24.6140  -31.8650   23.2520 C   0  0  0  0  0  0  0  0  0  0  0  0
  -27.2190  -27.3560   20.1210 C   0  0  0  0  0  0  0  0  0  0  0  0
  -23.4060  -30.4950   21.5920 C   0  0  0  0  0  3  0  0  0  0  0  0
  -24.8530  -28.9680   20.1410 C   0  0  0  0  0  0  0  0  0  0  0  0
  -25.9460  -30.8150   21.4110 C   0  0  0  0  0  2  0  0  0  0  0  0
  -26.0230  -29.4470   20.7430 C   0  0  0  0  0  0  0  0  0  0  0  0
  -27.2090  -28.6530   20.7210 C   0  0  0  0  0  3  0  0  0  0  0  0
  -26.0200  -26.9330   19.4980 C   0  0  0  0  0  3  0  0  0  0  0  0
  -24.8540  -27.7170   19.5100 C   0  0  0  0  0  3  0  0  0  0  0  0
  -23.6170  -29.8420   20.2020 C   0  0  0  0  0  2  0  0  0  0  0  0
  -24.6750  -31.0740   22.1420 N   0  0  0  0  0  0  0  0  0  0  0  0
  -23.5310  -32.1370   23.7920 O   0  0  0  0  0  0  0  0  0  0  0  0
  -22.7430  -29.4640   22.5360 C   0  0  0  0  0  0  0  0  0  0  0  0
  -21.4170  -29.2900   22.4050 N   0  0  0  0  0  0  0  0  0  0  0  0
  -23.4200  -28.8240   23.3450 O   0  0  0  0  0  0  0  0  0  0  0  0
  -20.9300  -29.8560   21.7250 H   0  0  0  0  0  0  0  0  0  0  0  0
  -18.0360  -28.0990   22.8910 C   0  0  0  0  0  0  0  0  0  0  0  0
  -20.5950  -28.3430   23.1610 C   0  0  0  0  0  3  0  0  0  0  0  0
  -20.6890  -26.9200   22.5620 C   0  0  0  0  0  2  0  0  0  0  0  0
  -19.5850  -26.6200   21.5440 C   0  0  0  0  0  2  0  0  0  0  0  0
  -18.2040  -26.7600   22.1930 C   0  0  0  0  0  2  0  0  0  0  0  0
  -19.1580  -28.8490   23.3310 C   0  0  0  0  0  0  0  0  0  0  0  0
  -18.9450  -30.1030   23.9450 C   0  0  0  0  0  3  0  0  0  0  0  0
  -17.6430  -30.6080   24.1200 C   0  0  0  0  0  3  0  0  0  0  0  0
  -16.5350  -29.8550   23.6960 C   0  0  0  0  0  3  0  0  0  0  0  0
  -16.7310  -28.6020   23.0870 C   0  0  0  0  0  3  0  0  0  0  0  0
  -25.8970  -32.4860   23.8840 C   0  0  0  0  0  3  0  0  0  0  0  0
  -26.4020  -31.7040   25.1580 C   0  0  1  0  0  0  0  0  0  0  0  0
  -25.3030  -31.4670   26.2190 C   0  0  0  0  0  1  0  0  0  0  0  0
  -26.9780  -30.3240   24.7620 C   0  0  0  0  0  1  0  0  0  0  0  0
  -27.5540  -32.4870   25.8300 C   0  0  0  0  0  1  0  0  0  0  0  0
  -25.5960  -33.8840   24.2200 N   0  0  0  0  0  0  0  0  0  0  0  0
  -25.9130  -34.9370   23.4560 C   0  0  0  0  0  0  0  0  0  0  0  0
  -26.5620  -34.8340   22.4100 O   0  0  0  0  0  0  0  0  0  0  0  0
  -25.0160  -34.0380   25.0330 H   0  0  0  0  0  0  0  0  0  0  0  0
  -24.1680  -36.7240   23.1540 C   0  0  0  0  0  1  0  0  0  0  0  0
  -25.4370  -36.3260   23.9240 C   0  0  0  0  0  3  0  0  0  0  0  0
  -27.5930  -37.2240   24.6820 C   0  0  0  0  0  1  0  0  0  0  0  0
  -26.4620  -37.3820   23.7720 N   0  0  0  0  0  0  0  0  0  0  0  0
  -26.0580  -38.3010   23.9250 H   0  0  0  0  0  0  0  0  0  0  0  0
  2  1  2  0
  3  5  2  0
  3  6  1  0
  4  1  1  0
  4 16  1  0
  5  2  1  0
  6  4  2  0
  7  6  1  0
  8 16  1  0
  9 14  1  0
 10 11  1  0
 10  9  1  0
 12 11  1  0
 12 21  1  0
 12 13  1  0
 14  8  1  0
 14 13  1  0
 15  8  2  0
 16 17  1  0
 18 19  2  0
 19 38  1  0
 20 19  1  0
 20 23  1  0
 21 18  1  0
 21 22  1  0
 22 20  2  0
 23 24  1  0
 24 25  2  0
 26 29  1  0
 26 25  1  0
 27 26  2  0
 28 27  1  0
 28 23  2  0
 29 30  1  0
 30 31  1  0
 31 32  2  0
 33 32  1  0
 33 37  1  0
 34 33  2  0
 35 30  2  0
 35 34  1  0
 36 35  1  0
 38 39  1  0
 39 42  1  0
 39 41  1  0
 40 38  2  0
 43 44  1  0
 43 18  1  0
 45 43  1  0
 46  5  1  0
 47 48  1  0
 47 46  1  0
 49 50  1  0
 49 48  2  0
 51 62  2  0
 52 50  1  0
 52 57  1  0
 53 61  1  0
 53 63  1  0
 54 60  1  0
 54 56  1  0
 55 61  1  0
 56 55  1  0
 57 56  2  0
 58 59  1  0
 58 52  2  0
 59 54  2  0
 60 53  1  0
 61 51  1  0
 63 65  2  0
 64 63  1  0
 66 64  1  0
 67 76  2  0
 67 72  1  0
 68 64  1  0
 68 72  1  0
 69 68  1  0
 70 71  1  0
 70 69  1  0
 71 67  1  0
 72 73  2  0
 73 74  1  0
 75 74  2  0
 76 75  1  0
 77 51  1  0
 77 82  1  0
 77 78  1  0
 78 81  1  1
 78 79  1  0
 80 78  1  0
 82 85  1  0
 83 87  1  0
 83 82  1  0
 84 83  2  0
 87 86  1  0
 89 87  1  0
 89 90  1  0
 89 88  1  0
M  ISO  4   8 100  16 100  49 101  50 101
M  END
>  <TORSDO>  (10) 
F 20

>  <SCORE>  (10) 
-14.070

>  <name>  (10) 
9

>  <ligand_id>  (10) 
9

>  <original_smiles>  (10) 
[H]c1c([H])c([H])c2c(c1[H])C([H])([H])C([H])([H])C([H])([H])C2([H])N([H])C(=O)C1([H])N(C(=O)C([H])(N([H])C(=O)C([H])(N([H])C([H])([H])[H])C([H])([H])[H])C(C([H])([H])[H])(C([H])([H])[H])C([H])([H])[H])C([H])([H])c2c([H])c(OC([H])([H])C([H])([H])C([H])([H])Oc3c([H])c([H])c(N([H])C(=O)N4C([H])([H])C([H])([H])C([H])([H])C([H])(n5nc(-c6c([H])c([H])c(Oc7c([H])c([H])c(F)c([H])c7F)c([H])c6[H])c(C(=O)N([H])[H])c5N([H])[H])C4([H])[H])c(F)c3[H])c([H])c([H])c2C1([H])[H]

>  <smiles>  (10) 
[H]c1c([H])c([H])c2c(c1[H])C([H])([H])C([H])([H])C([H])([H])C2([H])N([H])C(=O)C1([H])N(C(=O)C([H])(N([H])C(=O)C([H])(N([H])C([H])([H])[H])C([H])([H])[H])C(C([H])([H])[H])(C([H])([H])[H])C([H])([H])[H])C([H])([H])c2c([H])c(OC([H])([H])C([H])([H])C([H])([H])Oc3c([H])c([H])c(N([H])C(=O)N4C([H])([H])C([H])([H])C([H])([H])C([H])(n5nc(-c6c([H])c([H])c(Oc7c([H])c([H])c(F)c([H])c7F)c([H])c6[H])c(C(=O)N([H])[H])c5N([H])[H])C4([H])[H])c(F)c3[H])c([H])c([H])c2C1([H])[H]

$$$$
10:0:0
     RDKit          3D

 90 98  0  0  1  0  0  0  0  0999 V2000
  -28.6110  -17.9390   20.7180 C   0  0  0  0  0  3  0  0  0  0  0  0
  -28.5950  -19.3640   20.7270 C   0  0  0  0  0  3  0  0  0  0  0  0
  -31.0190  -17.9310   20.7120 C   0  0  0  0  0  3  0  0  0  0  0  0
  -29.8160  -17.1790   20.6950 C   0  0  0  0  0  0  0  0  0  0  0  0
  -29.7990  -20.1170   20.7340 C   0  0  0  0  0  0  0  0  0  0  0  0
  -31.0090  -19.3590   20.7350 C   0  0  0  0  0  0  0  0  0  0  0  0
  -32.5230  -20.1940   20.7680 Cl  0  0  0  0  0  0  0  0  0  0  0  0
  -30.5740  -14.6890   20.3840 C   0  0  0  0  0  0  0  0  0  0  0  0
  -30.3940  -12.4450   19.3070 C   0  0  0  0  0  2  0  0  0  0  0  0
  -29.4500  -12.5500   18.0840 C   0  0  0  0  0  2  0  0  0  0  0  0
  -27.9760  -12.3870   18.5130 C   0  0  0  0  0  2  0  0  0  0  0  0
  -27.6050  -13.2700   19.7360 C   0  0  0  0  0  3  0  0  0  0  0  0
  -28.6540  -13.1180   20.8590 C   0  0  0  0  0  2  0  0  0  0  0  0
  -29.9690  -13.4600   20.2910 N   0  0  0  0  0  0  0  0  0  0  0  0
  -31.7460  -14.8620   20.0300 O   0  0  0  0  0  0  0  0  0  0  0  0
  -29.7190  -15.7180   20.6880 N   0  0  0  0  0  0  0  0  0  0  0  0
  -28.7840  -15.3710   20.8290 H   0  0  0  0  0  0  0  0  0  0  0  0
  -25.2220  -13.8910   20.4620 C   0  0  0  0  0  0  0  0  0  0  0  0
  -24.1490  -13.1270   20.8410 C   0  0  0  0  0  0  0  0  0  0  0  0
  -24.6000  -11.7720   20.8040 C   0  0  0  0  0  0  0  0  0  0  0  0
  -26.2560  -13.0000   20.2210 N   0  0  0  0  0  0  0  0  0  0  0  0
  -25.8890  -11.7210   20.4910 N   0  0  0  0  0  0  0  0  0  0  0  0
  -23.8660  -10.5140   20.9960 C   0  0  0  0  0  0  0  0  0  0  0  0
  -24.2910   -9.5480   21.9350 C   0  0  0  0  0  3  0  0  0  0  0  0
  -23.5600   -8.3520   22.1120 C   0  0  0  0  0  3  0  0  0  0  0  0
  -22.3930   -8.1180   21.3490 C   0  0  0  0  0  0  0  0  0  0  0  0
  -21.9850   -9.0740   20.4040 C   0  0  0  0  0  3  0  0  0  0  0  0
  -22.7120  -10.2620   20.2260 C   0  0  0  0  0  3  0  0  0  0  0  0
  -21.6320   -6.9760   21.4380 O   0  0  0  0  0  0  0  0  0  0  0  0
  -21.5660   -6.2430   22.5940 C   0  0  0  0  0  0  0  0  0  0  0  0
  -21.1140   -6.8060   23.8100 C   0  0  0  0  0  3  0  0  0  0  0  0
  -20.9950   -6.0000   24.9580 C   0  0  0  0  0  3  0  0  0  0  0  0
  -21.3140   -4.6310   24.8950 C   0  0  0  0  0  0  0  0  0  0  0  0
  -21.7580   -4.0670   23.6850 C   0  0  0  0  0  3  0  0  0  0  0  0
  -21.8790   -4.8690   22.5380 C   0  0  0  0  0  0  0  0  0  0  0  0
  -22.2870   -4.3160   21.3710 F   0  0  0  0  0  0  0  0  0  0  0  0
  -21.1920   -3.8550   25.9970 F   0  0  0  0  0  0  0  0  0  0  0  0
  -22.7550  -13.6140   21.1110 C   0  0  0  0  0  0  0  0  0  0  0  0
  -22.0200  -12.9310   21.9830 N   0  0  0  0  0  0  0  0  0  0  0  0
  -22.3210  -14.6360   20.5810 O   0  0  0  0  0  0  0  0  0  0  0  0
  -22.3800  -12.1040   22.4330 H   0  0  0  0  0  0  0  0  0  0  0  0
  -21.0830  -13.2390   22.1990 H   0  0  0  0  0  0  0  0  0  0  0  0
  -25.3940  -15.2600   20.2780 N   0  0  0  0  0  0  0  0  0  0  0  0
  -24.6200  -15.9100   20.3620 H   0  0  0  0  0  0  0  0  0  0  0  0
  -26.2110  -15.6700   19.8400 H   0  0  0  0  0  0  0  0  0  0  0  0
  -29.8820  -21.5240   20.7670 O   0  0  0  0  0  0  0  0  0  0  0  0
  -28.7430  -22.4150   20.5370 C   0  0  0  0  0  2  0  0  0  0  0  0
  -29.1180  -23.9640   20.6120 C   0  0  0  0  0  3  0  0  0  0  0  0
  -28.0940  -25.0420   20.0470 C   0  0  0  0  0  3  0  0  0  0  0  0
  -28.3400  -26.4910   20.2650 O   0  0  0  0  0  0  0  0  0  0  0  0
  -24.6280  -31.8950   23.2630 C   0  0  0  0  0  0  0  0  0  0  0  0
  -27.2380  -27.3590   20.1850 C   0  0  0  0  0  0  0  0  0  0  0  0
  -23.4310  -30.5200   21.6020 C   0  0  0  0  0  3  0  0  0  0  0  0
  -24.8850  -28.9890   20.1630 C   0  0  0  0  0  0  0  0  0  0  0  0
  -25.9710  -30.8400   21.4320 C   0  0  0  0  0  2  0  0  0  0  0  0
  -26.0510  -29.4640   20.7780 C   0  0  0  0  0  0  0  0  0  0  0  0
  -27.2290  -28.6570   20.7840 C   0  0  0  0  0  3  0  0  0  0  0  0
  -26.0530  -26.9530   19.5250 C   0  0  0  0  0  3  0  0  0  0  0  0
  -24.8890  -27.7400   19.5270 C   0  0  0  0  0  3  0  0  0  0  0  0
  -23.6520  -29.8640   20.2140 C   0  0  0  0  0  2  0  0  0  0  0  0
  -24.6960  -31.1000   22.1560 N   0  0  0  0  0  0  0  0  0  0  0  0
  -23.5430  -32.1660   23.7960 O   0  0  0  0  0  0  0  0  0  0  0  0
  -22.7620  -29.4890   22.5420 C   0  0  0  0  0  0  0  0  0  0  0  0
  -21.4350  -29.3230   22.4100 N   0  0  0  0  0  0  0  0  0  0  0  0
  -23.4320  -28.8440   23.3500 O   0  0  0  0  0  0  0  0  0  0  0  0
  -20.9510  -29.8850   21.7230 H   0  0  0  0  0  0  0  0  0  0  0  0
  -18.0470  -28.1560   22.8980 C   0  0  0  0  0  0  0  0  0  0  0  0
  -20.6080  -28.3840   23.1700 C   0  0  0  0  0  3  0  0  0  0  0  0
  -20.6940  -26.9620   22.5700 C   0  0  0  0  0  2  0  0  0  0  0  0
  -19.5880  -26.6670   21.5520 C   0  0  0  0  0  2  0  0  0  0  0  0
  -18.2080  -26.8160   22.1980 C   0  0  0  0  0  2  0  0  0  0  0  0
  -19.1740  -28.8990   23.3390 C   0  0  0  0  0  0  0  0  0  0  0  0
  -18.9670  -30.1530   23.9520 C   0  0  0  0  0  3  0  0  0  0  0  0
  -17.6680  -30.6670   24.1250 C   0  0  0  0  0  3  0  0  0  0  0  0
  -16.5550  -29.9210   23.7000 C   0  0  0  0  0  3  0  0  0  0  0  0
  -16.7460  -28.6650   23.0940 C   0  0  0  0  0  3  0  0  0  0  0  0
  -25.9100  -32.5200   23.8950 C   0  0  0  0  0  3  0  0  0  0  0  0
  -26.4140  -31.7410   25.1720 C   0  0  1  0  0  0  0  0  0  0  0  0
  -25.3060  -31.5020   26.2240 C   0  0  0  0  0  1  0  0  0  0  0  0
  -26.9920  -30.3620   24.7810 C   0  0  0  0  0  1  0  0  0  0  0  0
  -27.5700  -32.5190   25.8420 C   0  0  0  0  0  1  0  0  0  0  0  0
  -25.6030  -33.9190   24.2260 N   0  0  0  0  0  0  0  0  0  0  0  0
  -25.9290  -34.9690   23.4620 C   0  0  0  0  0  0  0  0  0  0  0  0
  -26.5840  -34.8620   22.4220 O   0  0  0  0  0  0  0  0  0  0  0  0
  -25.0240  -34.0770   25.0360 H   0  0  0  0  0  0  0  0  0  0  0  0
  -24.1860  -36.7510   23.1360 C   0  0  0  0  0  1  0  0  0  0  0  0
  -25.4510  -36.3620   23.9180 C   0  0  0  0  0  3  0  0  0  0  0  0
  -27.6020  -37.2580   24.6960 C   0  0  0  0  0  1  0  0  0  0  0  0
  -26.4810  -37.4150   23.7720 N   0  0  0  0  0  0  0  0  0  0  0  0
  -26.0780  -38.3360   23.9190 H   0  0  0  0  0  0  0  0  0  0  0  0
  1  2  1  0
  2  5  2  0
  3  6  2  0
  4  3  1  0
  4  1  2  0
  5  6  1  0
  5 46  1  0
  6  7  1  0
  8 16  1  0
  9 14  1  0
 10 11  1  0
 10  9  1  0
 12 11  1  0
 12 21  1  0
 12 13  1  0
 14  8  1  0
 14 13  1  0
 15  8  2  0
 16  4  1  0
 16 17  1  0
 18 19  2  0
 19 38  1  0
 20 19  1  0
 20 23  1  0
 21 18  1  0
 21 22  1  0
 22 20  2  0
 23 24  1  0
 24 25  2  0
 26 29  1  0
 26 25  1  0
 27 26  2  0
 28 27  1  0
 28 23  2  0
 29 30  1  0
 30 31  1  0
 31 32  2  0
 33 32  1  0
 33 37  1  0
 34 33  2  0
 35 30  2  0
 35 34  1  0
 36 35  1  0
 38 39  1  0
 39 42  1  0
 39 41  1  0
 40 38  2  0
 43 44  1  0
 43 18  1  0
 45 43  1  0
 47 48  1  0
 47 46  1  0
 49 50  1  0
 49 48  2  0
 51 62  2  0
 52 50  1  0
 52 57  1  0
 53 61  1  0
 53 63  1  0
 54 60  1  0
 54 56  1  0
 55 61  1  0
 56 57  2  0
 56 55  1  0
 58 59  1  0
 58 52  2  0
 59 54  2  0
 60 53  1  0
 61 51  1  0
 63 65  2  0
 64 63  1  0
 66 64  1  0
 67 76  2  0
 67 72  1  0
 68 64  1  0
 68 72  1  0
 69 68  1  0
 70 71  1  0
 70 69  1  0
 71 67  1  0
 72 73  2  0
 73 74  1  0
 75 74  2  0
 76 75  1  0
 77 51  1  0
 77 82  1  0
 77 78  1  0
 78 81  1  1
 78 79  1  0
 80 78  1  0
 82 85  1  0
 83 87  1  0
 83 82  1  0
 84 83  2  0
 87 86  1  0
 89 87  1  0
 89 90  1  0
 89 88  1  0
M  ISO  4   8 100  16 100  49 101  50 101
M  END
>  <TORSDO>  (11) 
F 20

>  <SCORE>  (11) 
-13.848

>  <name>  (11) 
10

>  <ligand_id>  (11) 
10

>  <original_smiles>  (11) 
[H]c1c([H])c([H])c2c(c1[H])C([H])([H])C([H])([H])C([H])([H])C2([H])N([H])C(=O)C1([H])N(C(=O)C([H])(N([H])C(=O)C([H])(N([H])C([H])([H])[H])C([H])([H])[H])C(C([H])([H])[H])(C([H])([H])[H])C([H])([H])[H])C([H])([H])c2c([H])c(OC([H])([H])C([H])([H])C([H])([H])Oc3c([H])c([H])c(N([H])C(=O)N4C([H])([H])C([H])([H])C([H])([H])C([H])(n5nc(-c6c([H])c([H])c(Oc7c([H])c([H])c(F)c([H])c7F)c([H])c6[H])c(C(=O)N([H])[H])c5N([H])[H])C4([H])[H])c([H])c3Cl)c([H])c([H])c2C1([H])[H]

>  <smiles>  (11) 
[H]c1c([H])c([H])c2c(c1[H])C([H])([H])C([H])([H])C([H])([H])C2([H])N([H])C(=O)C1([H])N(C(=O)C([H])(N([H])C(=O)C([H])(N([H])C([H])([H])[H])C([H])([H])[H])C(C([H])([H])[H])(C([H])([H])[H])C([H])([H])[H])C([H])([H])c2c([H])c(OC([H])([H])C([H])([H])C([H])([H])Oc3c([H])c([H])c(N([H])C(=O)N4C([H])([H])C([H])([H])C([H])([H])C([H])(n5nc(-c6c([H])c([H])c(Oc7c([H])c([H])c(F)c([H])c7F)c([H])c6[H])c(C(=O)N([H])[H])c5N([H])[H])C4([H])[H])c([H])c3Cl)c([H])c([H])c2C1([H])[H]

$$$$
11:0:0
     RDKit          3D

 91 99  0  0  1  0  0  0  0  0999 V2000
  -27.2750  -21.0580   18.5080 C   0  0  0  0  0  1  0  0  0  0  0  0
  -28.3980  -21.0830   19.4550 N   0  0  0  0  0  0  0  0  0  0  0  0
  -29.5430  -19.4250   21.0030 C   0  0  0  0  0  3  0  0  0  0  0  0
  -29.9690  -18.0960   21.3130 C   0  0  0  0  0  3  0  0  0  0  0  0
  -28.7370  -18.6330   18.9000 C   0  0  0  0  0  3  0  0  0  0  0  0
  -28.8920  -19.7530   19.7850 C   0  0  0  0  0  0  0  0  0  0  0  0
  -29.7940  -16.9760   20.4370 C   0  0  0  0  0  0  0  0  0  0  0  0
  -29.1650  -17.2980   19.2070 C   0  0  0  0  0  0  0  0  0  0  0  0
  -28.9200  -16.3170   18.3060 F   0  0  0  0  0  0  0  0  0  0  0  0
  -30.6760  -14.6000   20.0180 C   0  0  0  0  0  0  0  0  0  0  0  0
  -30.3140  -12.3990   18.8910 C   0  0  0  0  0  2  0  0  0  0  0  0
  -29.2840  -12.5490   17.7510 C   0  0  0  0  0  2  0  0  0  0  0  0
  -27.8470  -12.4000   18.2860 C   0  0  0  0  0  2  0  0  0  0  0  0
  -27.5970  -13.2480   19.5590 C   0  0  0  0  0  3  0  0  0  0  0  0
  -28.7310  -13.0650   20.5900 C   0  0  0  0  0  2  0  0  0  0  0  0
  -29.9980  -13.4070   19.9260 N   0  0  0  0  0  0  0  0  0  0  0  0
  -31.7370  -14.7660   19.4060 O   0  0  0  0  0  0  0  0  0  0  0  0
  -30.4900  -15.3860   22.2600 C   0  0  0  0  0  1  0  0  0  0  0  0
  -30.1740  -15.5960   20.8370 N   0  0  0  0  0  0  0  0  0  0  0  0
  -25.2820  -13.8720   20.4820 C   0  0  0  0  0  0  0  0  0  0  0  0
  -24.2300  -13.1080   20.9100 C   0  0  0  0  0  0  0  0  0  0  0  0
  -24.6560  -11.7490   20.7980 C   0  0  0  0  0  0  0  0  0  0  0  0
  -26.2850  -12.9790   20.1370 N   0  0  0  0  0  0  0  0  0  0  0  0
  -25.9160  -11.6950   20.3880 N   0  0  0  0  0  0  0  0  0  0  0  0
  -23.9170  -10.4980   21.0060 C   0  0  0  0  0  0  0  0  0  0  0  0
  -24.3810   -9.5030   21.8950 C   0  0  0  0  0  3  0  0  0  0  0  0
  -23.6420   -8.3170   22.0920 C   0  0  0  0  0  3  0  0  0  0  0  0
  -22.4230   -8.1140   21.4000 C   0  0  0  0  0  0  0  0  0  0  0  0
  -21.9790   -9.0980   20.4970 C   0  0  0  0  0  3  0  0  0  0  0  0
  -22.7190  -10.2750   20.2980 C   0  0  0  0  0  3  0  0  0  0  0  0
  -21.6530   -6.9800   21.5100 O   0  0  0  0  0  0  0  0  0  0  0  0
  -21.6220   -6.2400   22.6650 C   0  0  0  0  0  0  0  0  0  0  0  0
  -21.2530   -6.8080   23.9040 C   0  0  0  0  0  3  0  0  0  0  0  0
  -21.1650   -5.9970   25.0530 C   0  0  0  0  0  3  0  0  0  0  0  0
  -21.4340   -4.6190   24.9650 C   0  0  0  0  0  0  0  0  0  0  0  0
  -21.7940   -4.0490   23.7320 C   0  0  0  0  0  3  0  0  0  0  0  0
  -21.8870   -4.8570   22.5850 C   0  0  0  0  0  0  0  0  0  0  0  0
  -22.2180   -4.3010   21.3950 F   0  0  0  0  0  0  0  0  0  0  0  0
  -21.3390   -3.8370   26.0660 F   0  0  0  0  0  0  0  0  0  0  0  0
  -22.8690  -13.6040   21.3030 C   0  0  0  0  0  0  0  0  0  0  0  0
  -22.2030  -12.9110   22.2210 N   0  0  0  0  0  0  0  0  0  0  0  0
  -22.4030  -14.6380   20.8250 O   0  0  0  0  0  0  0  0  0  0  0  0
  -22.5880  -12.0770   22.6390 H   0  0  0  0  0  0  0  0  0  0  0  0
  -21.2890  -13.2240   22.5180 H   0  0  0  0  0  0  0  0  0  0  0  0
  -25.4650  -15.2450   20.3350 N   0  0  0  0  0  0  0  0  0  0  0  0
  -24.7250  -15.9100   20.5250 H   0  0  0  0  0  0  0  0  0  0  0  0
  -26.2970  -15.6720   19.9500 H   0  0  0  0  0  0  0  0  0  0  0  0
  -28.4560  -22.3010   20.3480 C   0  0  0  0  0  2  0  0  0  0  0  0
  -28.3900  -23.7640   19.6670 C   0  0  0  0  0  3  0  0  0  0  0  0
  -28.2980  -25.0450   20.6230 C   0  0  0  0  0  3  0  0  0  0  0  0
  -28.4330  -26.4360   20.1100 O   0  0  0  0  0  0  0  0  0  0  0  0
  -24.5170  -31.7120   23.1250 C   0  0  0  0  0  0  0  0  0  0  0  0
  -27.2960  -27.2500   20.0950 C   0  0  0  0  0  0  0  0  0  0  0  0
  -23.3750  -30.2780   21.4680 C   0  0  0  0  0  3  0  0  0  0  0  0
  -24.8890  -28.7800   20.0550 C   0  0  0  0  0  0  0  0  0  0  0  0
  -25.9030  -30.6870   21.3090 C   0  0  0  0  0  2  0  0  0  0  0  0
  -26.0350  -29.3120   20.6610 C   0  0  0  0  0  0  0  0  0  0  0  0
  -27.2470  -28.5620   20.6650 C   0  0  0  0  0  3  0  0  0  0  0  0
  -26.1320  -26.7640   19.4720 C   0  0  0  0  0  3  0  0  0  0  0  0
  -24.9400  -27.5140   19.4480 C   0  0  0  0  0  3  0  0  0  0  0  0
  -23.6240  -29.6130   20.0890 C   0  0  0  0  0  2  0  0  0  0  0  0
  -24.6170  -30.9130   22.0240 N   0  0  0  0  0  0  0  0  0  0  0  0
  -23.4200  -31.9460   23.6540 O   0  0  0  0  0  0  0  0  0  0  0  0
  -22.7410  -29.2380   22.4220 C   0  0  0  0  0  0  0  0  0  0  0  0
  -21.4200  -29.0230   22.2930 N   0  0  0  0  0  0  0  0  0  0  0  0
  -23.4360  -28.6260   23.2380 O   0  0  0  0  0  0  0  0  0  0  0  0
  -20.9170  -29.5700   21.6090 H   0  0  0  0  0  0  0  0  0  0  0  0
  -18.0760  -27.7280   22.7750 C   0  0  0  0  0  0  0  0  0  0  0  0
  -20.6270  -28.0550   23.0530 C   0  0  0  0  0  3  0  0  0  0  0  0
  -20.7690  -26.6310   22.4660 C   0  0  0  0  0  2  0  0  0  0  0  0
  -19.6780  -26.2880   21.4480 C   0  0  0  0  0  2  0  0  0  0  0  0
  -18.2910  -26.3890   22.0900 C   0  0  0  0  0  2  0  0  0  0  0  0
  -19.1730  -28.5170   23.2130 C   0  0  0  0  0  0  0  0  0  0  0  0
  -18.9170  -29.7700   23.8150 C   0  0  0  0  0  3  0  0  0  0  0  0
  -17.5980  -30.2320   23.9830 C   0  0  0  0  0  3  0  0  0  0  0  0
  -16.5160  -29.4410   23.5600 C   0  0  0  0  0  3  0  0  0  0  0  0
  -16.7570  -28.1910   22.9610 C   0  0  0  0  0  3  0  0  0  0  0  0
  -25.7710  -32.3840   23.7670 C   0  0  0  0  0  3  0  0  0  0  0  0
  -26.3060  -31.6220   25.0400 C   0  0  1  0  0  0  0  0  0  0  0  0
  -25.2170  -31.3400   26.1010 C   0  0  0  0  0  1  0  0  0  0  0  0
  -26.9350  -30.2670   24.6430 C   0  0  0  0  0  1  0  0  0  0  0  0
  -27.4260  -32.4490   25.7130 C   0  0  0  0  0  1  0  0  0  0  0  0
  -25.4080  -33.7680   24.1060 N   0  0  0  0  0  0  0  0  0  0  0  0
  -25.6960  -34.8400   23.3560 C   0  0  0  0  0  0  0  0  0  0  0  0
  -26.3690  -34.7740   22.3230 O   0  0  0  0  0  0  0  0  0  0  0  0
  -24.8220  -33.8930   24.9180 H   0  0  0  0  0  0  0  0  0  0  0  0
  -23.9000  -36.5650   23.0180 C   0  0  0  0  0  1  0  0  0  0  0  0
  -25.1560  -36.2050   23.8260 C   0  0  0  0  0  3  0  0  0  0  0  0
  -27.2560  -37.1650   24.6580 C   0  0  0  0  0  1  0  0  0  0  0  0
  -26.1460  -37.3000   23.7190 N   0  0  0  0  0  0  0  0  0  0  0  0
  -25.7050  -38.2040   23.8750 H   0  0  0  0  0  0  0  0  0  0  0  0
  1  2  1  0
  2  6  1  0
  2 48  1  0
  3  4  1  0
  5  8  2  0
  5  6  1  0
  6  3  2  0
  7 19  1  0
  7  4  2  0
  8  7  1  0
  9  8  1  0
 10 19  1  0
 11 16  1  0
 12 13  1  0
 12 11  1  0
 14 13  1  0
 14 23  1  0
 14 15  1  0
 16 10  1  0
 16 15  1  0
 17 10  2  0
 19 18  1  0
 20 21  2  0
 21 40  1  0
 22 21  1  0
 22 25  1  0
 23 24  1  0
 23 20  1  0
 24 22  2  0
 25 26  1  0
 26 27  2  0
 28 31  1  0
 28 27  1  0
 29 28  2  0
 30 29  1  0
 30 25  2  0
 31 32  1  0
 32 33  1  0
 33 34  2  0
 35 34  1  0
 35 39  1  0
 36 35  2  0
 37 32  2  0
 37 36  1  0
 38 37  1  0
 40 41  1  0
 41 44  1  0
 41 43  1  0
 42 40  2  0
 45 20  1  0
 45 46  1  0
 47 45  1  0
 49 48  1  0
 49 50  2  0
 51 50  1  0
 52 63  2  0
 53 51  1  0
 53 58  1  0
 54 62  1  0
 54 64  1  0
 55 61  1  0
 55 57  1  0
 56 62  1  0
 57 58  2  0
 57 56  1  0
 59 53  2  0
 60 59  1  0
 60 55  2  0
 61 54  1  0
 62 52  1  0
 64 66  2  0
 65 64  1  0
 67 65  1  0
 68 77  2  0
 68 73  1  0
 69 65  1  0
 69 73  1  0
 70 69  1  0
 71 72  1  0
 71 70  1  0
 72 68  1  0
 73 74  2  0
 74 75  1  0
 76 75  2  0
 77 76  1  0
 78 52  1  0
 78 83  1  0
 78 79  1  0
 79 82  1  1
 79 80  1  0
 81 79  1  0
 83 86  1  0
 84 88  1  0
 84 83  1  0
 85 84  2  0
 88 87  1  0
 90 88  1  0
 90 91  1  0
 90 89  1  0
M  ISO  4  10 100  19 100  50 101  51 101
M  END
>  <TORSDO>  (12) 
F 20

>  <SCORE>  (12) 
-12.737

>  <name>  (12) 
11

>  <ligand_id>  (12) 
11

>  <original_smiles>  (12) 
[H]c1c([H])c([H])c2c(c1[H])C([H])([H])C([H])([H])C([H])([H])C2([H])N([H])C(=O)C1([H])N(C(=O)C([H])(N([H])C(=O)C([H])(N([H])C([H])([H])[H])C([H])([H])[H])C(C([H])([H])[H])(C([H])([H])[H])C([H])([H])[H])C([H])([H])c2c([H])c(OC([H])([H])C([H])([H])C([H])([H])N(c3c([H])c([H])c(N(C(=O)N4C([H])([H])C([H])([H])C([H])([H])C([H])(n5nc(-c6c([H])c([H])c(Oc7c([H])c([H])c(F)c([H])c7F)c([H])c6[H])c(C(=O)N([H])[H])c5N([H])[H])C4([H])[H])C([H])([H])[H])c(F)c3[H])C([H])([H])[H])c([H])c([H])c2C1([H])[H]

>  <smiles>  (12) 
[H]c1c([H])c([H])c2c(c1[H])C([H])([H])C([H])([H])C([H])([H])C2([H])N([H])C(=O)C1([H])N(C(=O)C([H])(N([H])C(=O)C([H])(N([H])C([H])([H])[H])C([H])([H])[H])C(C([H])([H])[H])(C([H])([H])[H])C([H])([H])[H])C([H])([H])c2c([H])c(OC([H])([H])C([H])([H])C([H])([H])N(c3c([H])c([H])c(N(C(=O)N4C([H])([H])C([H])([H])C([H])([H])C([H])(n5nc(-c6c([H])c([H])c(Oc7c([H])c([H])c(F)c([H])c7F)c([H])c6[H])c(C(=O)N([H])[H])c5N([H])[H])C4([H])[H])C([H])([H])[H])c(F)c3[H])C([H])([H])[H])c([H])c([H])c2C1([H])[H]

$$$$
12:0:0
     RDKit          3D

101111  0  0  1  0  0  0  0  0999 V2000
  -31.9090  -21.0900   21.5700 C   0  0  0  0  0  3  0  0  0  0  0  0
  -31.7270  -22.4430   21.2170 C   0  0  0  0  0  3  0  0  0  0  0  0
  -32.5640  -20.5860   19.2800 C   0  0  0  0  0  3  0  0  0  0  0  0
  -32.3260  -20.1520   20.6020 C   0  0  0  0  0  0  0  0  0  0  0  0
  -32.3510  -21.9280   18.9130 C   0  0  0  0  0  0  0  0  0  0  0  0
  -31.9370  -22.8690   19.8850 C   0  0  0  0  0  0  0  0  0  0  0  0
  -32.5210  -18.6910   20.9760 C   0  0  0  0  0  2  0  0  0  0  0  0
  -31.0240  -16.7500   21.4270 C   0  0  0  0  0  0  0  0  0  0  0  0
  -29.5190  -16.8580   19.5750 C   0  0  0  0  0  2  0  0  0  0  0  0
  -30.5650  -17.9700   19.4970 C   0  0  0  0  0  2  0  0  0  0  0  0
  -29.9850  -15.9000   20.6890 C   0  0  0  0  0  3  0  0  0  0  0  0
  -31.3630  -17.8310   20.7090 N   0  0  0  0  0  0  0  0  0  0  0  0
  -31.4840  -16.4430   22.5350 O   0  0  0  0  0  0  0  0  0  0  0  0
  -30.7040  -14.6600   20.0830 C   0  0  0  0  0  0  0  0  0  0  0  0
  -30.3840  -12.4500   19.0470 C   0  0  0  0  0  2  0  0  0  0  0  0
  -29.4180  -12.6240   17.8600 C   0  0  0  0  0  2  0  0  0  0  0  0
  -27.9520  -12.4960   18.3320 C   0  0  0  0  0  2  0  0  0  0  0  0
  -27.6430  -13.3640   19.5830 C   0  0  0  0  0  3  0  0  0  0  0  0
  -28.7380  -13.1810   20.6570 C   0  0  0  0  0  2  0  0  0  0  0  0
  -30.0460  -13.4700   20.0480 N   0  0  0  0  0  0  0  0  0  0  0  0
  -31.7840  -14.8110   19.4990 O   0  0  0  0  0  0  0  0  0  0  0  0
  -25.2940  -13.9770   20.4420 C   0  0  0  0  0  0  0  0  0  0  0  0
  -24.2390  -13.2040   20.8470 C   0  0  0  0  0  0  0  0  0  0  0  0
  -24.6840  -11.8510   20.7460 C   0  0  0  0  0  0  0  0  0  0  0  0
  -26.3140  -13.0930   20.1230 N   0  0  0  0  0  0  0  0  0  0  0  0
  -25.9520  -11.8070   20.3640 N   0  0  0  0  0  0  0  0  0  0  0  0
  -23.9600  -10.5880   20.9370 C   0  0  0  0  0  0  0  0  0  0  0  0
  -24.4160   -9.6010   21.8380 C   0  0  0  0  0  3  0  0  0  0  0  0
  -23.6890   -8.4050   22.0160 C   0  0  0  0  0  3  0  0  0  0  0  0
  -22.4930   -8.1870   21.2910 C   0  0  0  0  0  0  0  0  0  0  0  0
  -22.0540   -9.1650   20.3810 C   0  0  0  0  0  3  0  0  0  0  0  0
  -22.7830  -10.3540   20.2010 C   0  0  0  0  0  3  0  0  0  0  0  0
  -21.7380   -7.0420   21.3750 O   0  0  0  0  0  0  0  0  0  0  0  0
  -21.7140   -6.2800   22.5160 C   0  0  0  0  0  0  0  0  0  0  0  0
  -21.3160   -6.8150   23.7600 C   0  0  0  0  0  3  0  0  0  0  0  0
  -21.2410   -5.9810   24.8950 C   0  0  0  0  0  3  0  0  0  0  0  0
  -21.5510   -4.6130   24.7860 C   0  0  0  0  0  0  0  0  0  0  0  0
  -21.9400   -4.0770   23.5460 C   0  0  0  0  0  3  0  0  0  0  0  0
  -22.0180   -4.9080   22.4130 C   0  0  0  0  0  0  0  0  0  0  0  0
  -22.3730   -4.3810   21.2180 F   0  0  0  0  0  0  0  0  0  0  0  0
  -21.4730   -3.8080   25.8720 F   0  0  0  0  0  0  0  0  0  0  0  0
  -22.8650  -13.6840   21.2140 C   0  0  0  0  0  0  0  0  0  0  0  0
  -22.1800  -12.9680   22.1000 N   0  0  0  0  0  0  0  0  0  0  0  0
  -22.4080  -14.7290   20.7510 O   0  0  0  0  0  0  0  0  0  0  0  0
  -22.5560  -12.1160   22.4890 H   0  0  0  0  0  0  0  0  0  0  0  0
  -21.2650  -13.2780   22.3910 H   0  0  0  0  0  0  0  0  0  0  0  0
  -25.4690  -15.3510   20.2960 N   0  0  0  0  0  0  0  0  0  0  0  0
  -24.7300  -16.0190   20.4810 H   0  0  0  0  0  0  0  0  0  0  0  0
  -26.3060  -15.7750   19.9200 H   0  0  0  0  0  0  0  0  0  0  0  0
  -32.5850  -22.3710   17.4740 C   0  0  0  0  0  2  0  0  0  0  0  0
  -29.4890  -21.8830   15.4420 C   0  0  0  0  0  2  0  0  0  0  0  0
  -30.4010  -22.6930   14.5190 C   0  0  0  0  0  2  0  0  0  0  0  0
  -30.3840  -21.5290   16.6300 C   0  0  0  0  0  2  0  0  0  0  0  0
  -31.4840  -23.2850   15.4350 C   0  0  0  0  0  2  0  0  0  0  0  0
  -31.3140  -22.6690   16.7710 N   0  0  2  0  0  4  0  0  0  0  0  0
  -30.8420  -23.3600   17.3340 H   0  0  0  0  0  0  0  0  0  0  0  0
  -31.7320  -24.1600   19.4520 O   0  0  0  0  0  0  0  0  0  0  0  0
  -31.8470  -25.2160   20.3990 C   0  0  0  0  0  2  0  0  0  0  0  0
  -31.5350  -26.5260   19.6640 C   0  0  0  0  0  2  0  0  0  0  0  0
  -30.0450  -26.6940   19.3370 C   0  0  0  0  0  2  0  0  0  0  0  0
  -29.3690  -26.9410   20.5600 O   0  0  0  0  0  0  0  0  0  0  0  0
  -24.9390  -31.7390   23.3090 C   0  0  0  0  0  0  0  0  0  0  0  0
  -28.1410  -27.5390   20.4580 C   0  0  0  0  0  0  0  0  0  0  0  0
  -23.9660  -30.2490   21.5830 C   0  0  0  0  0  3  0  0  0  0  0  0
  -25.6370  -28.8170   20.2880 C   0  0  0  0  0  0  0  0  0  0  0  0
  -26.4610  -30.7970   21.5840 C   0  0  0  0  0  2  0  0  0  0  0  0
  -26.6950  -29.4360   20.9670 C   0  0  0  0  0  0  0  0  0  0  0  0
  -27.9460  -28.7950   21.0650 C   0  0  0  0  0  3  0  0  0  0  0  0
  -27.0740  -26.9190   19.7740 C   0  0  0  0  0  3  0  0  0  0  0  0
  -25.8180  -27.5530   19.6940 C   0  0  0  0  0  3  0  0  0  0  0  0
  -24.3320  -29.5770   20.2310 C   0  0  0  0  0  2  0  0  0  0  0  0
  -25.1330  -30.9450   22.2170 N   0  0  0  0  0  0  0  0  0  0  0  0
  -23.8040  -31.9330   23.7620 O   0  0  0  0  0  0  0  0  0  0  0  0
  -23.3180  -29.1870   22.5010 C   0  0  0  0  0  0  0  0  0  0  0  0
  -22.0120  -28.9450   22.3020 N   0  0  0  0  0  0  0  0  0  0  0  0
  -23.9870  -28.5850   23.3450 O   0  0  0  0  0  0  0  0  0  0  0  0
  -21.5310  -29.4870   21.5970 H   0  0  0  0  0  0  0  0  0  0  0  0
  -18.6630  -27.6360   22.6570 C   0  0  0  0  0  0  0  0  0  0  0  0
  -21.2010  -27.9630   23.0190 C   0  0  0  0  0  3  0  0  0  0  0  0
  -21.3670  -26.5530   22.4060 C   0  0  0  0  0  2  0  0  0  0  0  0
  -20.3080  -26.2260   21.3480 C   0  0  0  0  0  2  0  0  0  0  0  0
  -18.9010  -26.3140   21.9460 C   0  0  0  0  0  2  0  0  0  0  0  0
  -19.7430  -28.4190   23.1440 C   0  0  0  0  0  0  0  0  0  0  0  0
  -19.4680  -29.6570   23.7630 C   0  0  0  0  0  3  0  0  0  0  0  0
  -18.1450  -30.1150   23.8970 C   0  0  0  0  0  3  0  0  0  0  0  0
  -17.0780  -29.3300   23.4270 C   0  0  0  0  0  3  0  0  0  0  0  0
  -17.3380  -28.0910   22.8140 C   0  0  0  0  0  3  0  0  0  0  0  0
  -26.1280  -32.4580   24.0200 C   0  0  0  0  0  3  0  0  0  0  0  0
  -25.7160  -33.8430   24.2850 N   0  0  0  0  0  0  0  0  0  0  0  0
  -26.0480  -34.8920   23.5200 C   0  0  0  0  0  0  0  0  0  0  0  0
  -26.8010  -34.8000   22.5460 O   0  0  0  0  0  0  0  0  0  0  0  0
  -25.0630  -33.9850   25.0420 H   0  0  0  0  0  0  0  0  0  0  0  0
  -24.2410  -36.5510   22.9780 C   0  0  0  0  0  1  0  0  0  0  0  0
  -25.4440  -36.2600   23.8910 C   0  0  0  0  0  3  0  0  0  0  0  0
  -27.4530  -37.3030   24.8380 C   0  0  0  0  0  1  0  0  0  0  0  0
  -26.4160  -37.3720   23.8120 N   0  0  0  0  0  0  0  0  0  0  0  0
  -25.9460  -38.2690   23.8980 H   0  0  0  0  0  0  0  0  0  0  0  0
  -26.5780  -31.7480   25.3560 C   0  0  1  0  0  0  0  0  0  0  0  0
  -25.4110  -31.4640   26.3290 C   0  0  0  0  0  1  0  0  0  0  0  0
  -27.2770  -30.4040   25.0520 C   0  0  0  0  0  1  0  0  0  0  0  0
  -27.6150  -32.6290   26.0940 C   0  0  0  0  0  1  0  0  0  0  0  0
  2  1  1  0
  3  4  1  0
  4  7  1  0
  4  1  2  0
  5  3  2  0
  5  6  1  0
  6  2  2  0
  8 13  2  0
  9 11  1  0
 10  9  1  0
 10 12  1  0
 11 14  1  0
 11  8  1  0
 12  7  1  0
 12  8  1  0
 15 20  1  0
 16 17  1  0
 16 15  1  0
 18 17  1  0
 18 25  1  0
 18 19  1  0
 20 14  1  0
 20 19  1  0
 21 14  2  0
 22 23  2  0
 23 42  1  0
 24 23  1  0
 24 27  1  0
 25 26  1  0
 25 22  1  0
 26 24  2  0
 27 28  1  0
 28 29  2  0
 30 33  1  0
 30 29  1  0
 31 30  2  0
 32 31  1  0
 32 27  2  0
 33 34  1  0
 34 35  1  0
 35 36  2  0
 37 36  1  0
 37 41  1  0
 38 37  2  0
 39 34  2  0
 39 38  1  0
 40 39  1  0
 42 43  1  0
 43 46  1  0
 43 45  1  0
 44 42  2  0
 47 22  1  0
 47 48  1  0
 49 47  1  0
 50  5  1  0
 51 53  1  0
 52 54  1  0
 52 51  1  0
 53 55  1  0
 54 55  1  0
 55 56  1  1
 55 50  1  0
 57  6  1  0
 57 58  1  0
 59 58  1  0
 60 59  1  0
 60 61  1  0
 62 73  2  0
 63 61  1  0
 63 68  1  0
 64 72  1  0
 64 74  1  0
 65 67  1  0
 66 72  1  0
 67 68  2  0
 67 66  1  0
 69 63  2  0
 70 69  1  0
 70 65  2  0
 71 65  1  0
 71 64  1  0
 72 62  1  0
 74 76  2  0
 75 74  1  0
 77 75  1  0
 78 87  2  0
 78 83  1  0
 79 75  1  0
 79 83  1  0
 80 79  1  0
 81 82  1  0
 81 80  1  0
 82 78  1  0
 83 84  2  0
 84 85  1  0
 86 85  2  0
 87 86  1  0
 88 62  1  0
 88 89  1  0
 88 98  1  0
 89 92  1  0
 90 94  1  0
 90 89  1  0
 91 90  2  0
 94 93  1  0
 96 94  1  0
 96 97  1  0
 96 95  1  0
 98101  1  1
 98 99  1  0
100 98  1  0
M  ISO  4  11 100  14 100  60 101  61 101
M  END
>  <TORSDO>  (13) 
F 24

>  <SCORE>  (13) 
-11.501

>  <name>  (13) 
12

>  <ligand_id>  (13) 
12

>  <original_smiles>  (13) 
[H]c1c([H])c([H])c2c(c1[H])C([H])([H])C([H])([H])C([H])([H])C2([H])N([H])C(=O)C1([H])N(C(=O)C([H])(N([H])C(=O)C([H])(N([H])C([H])([H])[H])C([H])([H])[H])C(C([H])([H])[H])(C([H])([H])[H])C([H])([H])[H])C([H])([H])c2c([H])c(OC([H])([H])C([H])([H])C([H])([H])Oc3c([H])c([H])c(C([H])([H])N4C(=O)C([H])(C(=O)N5C([H])([H])C([H])([H])C([H])([H])C([H])(n6nc(-c7c([H])c([H])c(Oc8c([H])c([H])c(F)c([H])c8F)c([H])c7[H])c(C(=O)N([H])[H])c6N([H])[H])C5([H])[H])C([H])([H])C4([H])[H])c([H])c3C([H])([H])[N+]3([H])C([H])([H])C([H])([H])C([H])([H])C3([H])[H])c([H])c([H])c2C1([H])[H]

>  <smiles>  (13) 
[H]c1c([H])c([H])c2c(c1[H])C([H])([H])C([H])([H])C([H])([H])C2([H])N([H])C(=O)C1([H])N(C(=O)C([H])(N([H])C(=O)C([H])(N([H])C([H])([H])[H])C([H])([H])[H])C(C([H])([H])[H])(C([H])([H])[H])C([H])([H])[H])C([H])([H])c2c([H])c(OC([H])([H])C([H])([H])C([H])([H])Oc3c([H])c([H])c(C([H])([H])N4C(=O)C([H])(C(=O)N5C([H])([H])C([H])([H])C([H])([H])C([H])(n6nc(-c7c([H])c([H])c(Oc8c([H])c([H])c(F)c([H])c8F)c([H])c7[H])c(C(=O)N([H])[H])c6N([H])[H])C5([H])[H])C([H])([H])C4([H])[H])c([H])c3C([H])([H])[N+]3([H])C([H])([H])C([H])([H])C([H])([H])C3([H])[H])c([H])c([H])c2C1([H])[H]

$$$$
13:0:0
     RDKit          3D

 90 98  0  0  1  0  0  0  0  0999 V2000
  -31.0370  -17.9100   19.9770 C   0  0  0  0  0  3  0  0  0  0  0  0
  -31.0130  -19.3290   19.8310 C   0  0  0  0  0  3  0  0  0  0  0  0
  -28.7300  -17.9770   20.6360 C   0  0  0  0  0  3  0  0  0  0  0  0
  -29.8880  -17.1860   20.3860 C   0  0  0  0  0  0  0  0  0  0  0  0
  -29.8590  -20.1220   20.0780 C   0  0  0  0  0  0  0  0  0  0  0  0
  -28.7050  -19.3980   20.4900 C   0  0  0  0  0  0  0  0  0  0  0  0
  -27.5490  -20.0520   20.7580 F   0  0  0  0  0  0  0  0  0  0  0  0
  -30.5980  -14.6850   20.1250 C   0  0  0  0  0  0  0  0  0  0  0  0
  -30.3560  -12.4480   19.0640 C   0  0  0  0  0  2  0  0  0  0  0  0
  -29.3690  -12.5900   17.8830 C   0  0  0  0  0  2  0  0  0  0  0  0
  -27.9110  -12.4310   18.3610 C   0  0  0  0  0  2  0  0  0  0  0  0
  -27.6000  -13.2790   19.6230 C   0  0  0  0  0  3  0  0  0  0  0  0
  -28.6980  -13.1110   20.6970 C   0  0  0  0  0  2  0  0  0  0  0  0
  -29.9860  -13.4590   20.0760 N   0  0  0  0  0  0  0  0  0  0  0  0
  -31.7390  -14.8470   19.6810 O   0  0  0  0  0  0  0  0  0  0  0  0
  -29.8100  -15.7270   20.5450 N   0  0  0  0  0  0  0  0  0  0  0  0
  -28.9370  -15.4010   20.9340 H   0  0  0  0  0  0  0  0  0  0  0  0
  -25.2380  -13.8750   20.4420 C   0  0  0  0  0  0  0  0  0  0  0  0
  -24.1830  -13.1000   20.8410 C   0  0  0  0  0  0  0  0  0  0  0  0
  -24.6380  -11.7470   20.7700 C   0  0  0  0  0  0  0  0  0  0  0  0
  -26.2690  -12.9940   20.1530 N   0  0  0  0  0  0  0  0  0  0  0  0
  -25.9140  -11.7080   20.4090 N   0  0  0  0  0  0  0  0  0  0  0  0
  -23.9120  -10.4850   20.9680 C   0  0  0  0  0  0  0  0  0  0  0  0
  -24.3650   -9.5090   21.8830 C   0  0  0  0  0  3  0  0  0  0  0  0
  -23.6420   -8.3110   22.0690 C   0  0  0  0  0  3  0  0  0  0  0  0
  -22.4500   -8.0820   21.3400 C   0  0  0  0  0  0  0  0  0  0  0  0
  -22.0150   -9.0480   20.4150 C   0  0  0  0  0  3  0  0  0  0  0  0
  -22.7400  -10.2360   20.2260 C   0  0  0  0  0  3  0  0  0  0  0  0
  -21.6950   -6.9380   21.4370 O   0  0  0  0  0  0  0  0  0  0  0  0
  -21.6530   -6.1990   22.5920 C   0  0  0  0  0  0  0  0  0  0  0  0
  -21.2070   -6.7480   23.8130 C   0  0  0  0  0  3  0  0  0  0  0  0
  -21.1150   -5.9340   24.9610 C   0  0  0  0  0  3  0  0  0  0  0  0
  -21.4580   -4.5710   24.8850 C   0  0  0  0  0  0  0  0  0  0  0  0
  -21.8970   -4.0200   23.6680 C   0  0  0  0  0  3  0  0  0  0  0  0
  -21.9910   -4.8310   22.5240 C   0  0  0  0  0  0  0  0  0  0  0  0
  -22.3940   -4.2910   21.3490 F   0  0  0  0  0  0  0  0  0  0  0  0
  -21.3620   -3.7860   25.9840 F   0  0  0  0  0  0  0  0  0  0  0  0
  -22.7990  -13.5780   21.1750 C   0  0  0  0  0  0  0  0  0  0  0  0
  -22.1060  -12.8780   22.0650 N   0  0  0  0  0  0  0  0  0  0  0  0
  -22.3450  -14.6100   20.6840 O   0  0  0  0  0  0  0  0  0  0  0  0
  -22.4870  -12.0440   22.4880 H   0  0  0  0  0  0  0  0  0  0  0  0
  -21.1790  -13.1820   22.3300 H   0  0  0  0  0  0  0  0  0  0  0  0
  -25.4000  -15.2470   20.2780 N   0  0  0  0  0  0  0  0  0  0  0  0
  -24.6340  -15.8960   20.4170 H   0  0  0  0  0  0  0  0  0  0  0  0
  -26.2220  -15.6840   19.8800 H   0  0  0  0  0  0  0  0  0  0  0  0
  -29.9680  -21.5220   19.9050 O   0  0  0  0  0  0  0  0  0  0  0  0
  -28.8750  -22.4670   20.1420 C   0  0  0  0  0  3  0  0  0  0  0  0
  -29.2270  -24.0020   19.8750 C   0  0  0  0  0  3  0  0  0  0  0  0
  -28.0550  -25.0580   20.0540 C   0  0  0  0  0  2  0  0  0  0  0  0
  -28.3030  -26.5080   19.8500 O   0  0  0  0  0  0  0  0  0  0  0  0
  -24.6700  -31.8010   23.1690 C   0  0  0  0  0  0  0  0  0  0  0  0
  -27.1900  -27.3650   19.8710 C   0  0  0  0  0  0  0  0  0  0  0  0
  -23.4280  -30.4940   21.4830 C   0  0  0  0  0  3  0  0  0  0  0  0
  -24.8410  -28.9990   19.9700 C   0  0  0  0  0  0  0  0  0  0  0  0
  -25.9690  -30.7950   21.2790 C   0  0  0  0  0  2  0  0  0  0  0  0
  -26.0250  -29.4470   20.5710 C   0  0  0  0  0  0  0  0  0  0  0  0
  -27.2020  -28.6430   20.5130 C   0  0  0  0  0  3  0  0  0  0  0  0
  -25.9840  -26.9800   19.2380 C   0  0  0  0  0  3  0  0  0  0  0  0
  -24.8230  -27.7710   19.2960 C   0  0  0  0  0  3  0  0  0  0  0  0
  -23.6170  -29.8840   20.0710 C   0  0  0  0  0  2  0  0  0  0  0  0
  -24.7090  -31.0450   22.0350 N   0  0  0  0  0  0  0  0  0  0  0  0
  -23.5980  -32.0660   23.7310 O   0  0  0  0  0  0  0  0  0  0  0  0
  -22.7670  -29.4390   22.4030 C   0  0  0  0  0  0  0  0  0  0  0  0
  -21.4370  -29.2880   22.2910 N   0  0  0  0  0  0  0  0  0  0  0  0
  -23.4500  -28.7630   23.1770 O   0  0  0  0  0  0  0  0  0  0  0  0
  -20.9460  -29.8860   21.6410 H   0  0  0  0  0  0  0  0  0  0  0  0
  -18.0450  -28.1480   22.8170 C   0  0  0  0  0  0  0  0  0  0  0  0
  -20.6160  -28.3280   23.0300 C   0  0  0  0  0  3  0  0  0  0  0  0
  -20.6640  -26.9300   22.3690 C   0  0  0  0  0  2  0  0  0  0  0  0
  -19.5260  -26.6940   21.3700 C   0  0  0  0  0  2  0  0  0  0  0  0
  -18.1670  -26.8370   22.0610 C   0  0  0  0  0  2  0  0  0  0  0  0
  -19.1950  -28.8560   23.2580 C   0  0  0  0  0  0  0  0  0  0  0  0
  -19.0250  -30.0880   23.9270 C   0  0  0  0  0  3  0  0  0  0  0  0
  -17.7390  -30.6110   24.1590 C   0  0  0  0  0  3  0  0  0  0  0  0
  -16.6040  -29.8990   23.7320 C   0  0  0  0  0  3  0  0  0  0  0  0
  -16.7580  -28.6700   23.0680 C   0  0  0  0  0  3  0  0  0  0  0  0
  -25.9690  -32.3900   23.8020 C   0  0  0  0  0  3  0  0  0  0  0  0
  -26.4820  -31.5600   25.0420 C   0  0  1  0  0  0  0  0  0  0  0  0
  -25.3960  -31.3020   26.1120 C   0  0  0  0  0  1  0  0  0  0  0  0
  -27.0380  -30.1900   24.5940 C   0  0  0  0  0  1  0  0  0  0  0  0
  -27.6520  -32.3110   25.7230 C   0  0  0  0  0  1  0  0  0  0  0  0
  -25.6830  -33.7790   24.1890 N   0  0  0  0  0  0  0  0  0  0  0  0
  -25.9950  -34.8530   23.4520 C   0  0  0  0  0  0  0  0  0  0  0  0
  -26.6230  -34.7770   22.3920 O   0  0  0  0  0  0  0  0  0  0  0  0
  -25.1190  -33.9120   25.0150 H   0  0  0  0  0  0  0  0  0  0  0  0
  -24.2570  -36.6600   23.2380 C   0  0  0  0  0  1  0  0  0  0  0  0
  -25.5380  -36.2290   23.9710 C   0  0  0  0  0  3  0  0  0  0  0  0
  -27.7130  -37.0900   24.7190 C   0  0  0  0  0  1  0  0  0  0  0  0
  -26.5670  -37.2830   23.8340 N   0  0  0  0  0  0  0  0  0  0  0  0
  -26.1720  -38.2000   24.0220 H   0  0  0  0  0  0  0  0  0  0  0  0
  1  4  1  0
  2  1  2  0
  2  5  1  0
  4 16  1  0
  4  3  2  0
  5  6  2  0
  6  3  1  0
  6  7  1  0
  8 16  1  0
  9 14  1  0
 10 11  1  0
 10  9  1  0
 12 11  1  0
 12 21  1  0
 12 13  1  0
 14  8  1  0
 14 13  1  0
 15  8  2  0
 16 17  1  0
 18 19  2  0
 19 38  1  0
 20 19  1  0
 20 23  1  0
 21 22  1  0
 21 18  1  0
 22 20  2  0
 23 24  1  0
 24 25  2  0
 26 29  1  0
 26 25  1  0
 27 26  2  0
 28 27  1  0
 28 23  2  0
 29 30  1  0
 30 31  1  0
 31 32  2  0
 33 32  1  0
 33 37  1  0
 34 33  2  0
 35 30  2  0
 35 34  1  0
 36 35  1  0
 38 39  1  0
 39 42  1  0
 39 41  1  0
 40 38  2  0
 43 44  1  0
 43 18  1  0
 45 43  1  0
 46  5  1  0
 46 47  1  0
 48 49  1  0
 48 47  2  0
 50 52  1  0
 50 49  1  0
 51 62  2  0
 52 57  1  0
 53 61  1  0
 53 63  1  0
 54 60  1  0
 54 56  1  0
 55 61  1  0
 56 55  1  0
 57 56  2  0
 58 59  1  0
 58 52  2  0
 59 54  2  0
 60 53  1  0
 61 51  1  0
 63 65  2  0
 64 63  1  0
 66 64  1  0
 67 76  2  0
 67 72  1  0
 68 64  1  0
 68 72  1  0
 69 68  1  0
 70 71  1  0
 70 69  1  0
 71 67  1  0
 72 73  2  0
 73 74  1  0
 75 74  2  0
 76 75  1  0
 77 51  1  0
 77 82  1  0
 77 78  1  0
 78 81  1  1
 78 79  1  0
 80 78  1  0
 82 85  1  0
 83 87  1  0
 83 82  1  0
 84 83  2  0
 87 86  1  0
 89 87  1  0
 89 90  1  0
 89 88  1  0
M  ISO  4   8 100  16 100  49 101  50 101
M  END
>  <TORSDO>  (14) 
F 20

>  <SCORE>  (14) 
-13.622

>  <name>  (14) 
13

>  <ligand_id>  (14) 
13

>  <original_smiles>  (14) 
[H]c1c([H])c([H])c2c(c1[H])C([H])([H])C([H])([H])C([H])([H])C2([H])N([H])C(=O)C1([H])N(C(=O)C([H])(N([H])C(=O)C([H])(N([H])C([H])([H])[H])C([H])([H])[H])C(C([H])([H])[H])(C([H])([H])[H])C([H])([H])[H])C([H])([H])c2c([H])c(OC([H])([H])C([H])([H])C([H])([H])Oc3c([H])c([H])c(N([H])C(=O)N4C([H])([H])C([H])([H])C([H])([H])C([H])(n5nc(-c6c([H])c([H])c(Oc7c([H])c([H])c(F)c([H])c7F)c([H])c6[H])c(C(=O)N([H])[H])c5N([H])[H])C4([H])[H])c([H])c3F)c([H])c([H])c2C1([H])[H]

>  <smiles>  (14) 
[H]c1c([H])c([H])c2c(c1[H])C([H])([H])C([H])([H])C([H])([H])C2([H])N([H])C(=O)C1([H])N(C(=O)C([H])(N([H])C(=O)C([H])(N([H])C([H])([H])[H])C([H])([H])[H])C(C([H])([H])[H])(C([H])([H])[H])C([H])([H])[H])C([H])([H])c2c([H])c(OC([H])([H])C([H])([H])C([H])([H])Oc3c([H])c([H])c(N([H])C(=O)N4C([H])([H])C([H])([H])C([H])([H])C([H])(n5nc(-c6c([H])c([H])c(Oc7c([H])c([H])c(F)c([H])c7F)c([H])c6[H])c(C(=O)N([H])[H])c5N([H])[H])C4([H])[H])c([H])c3F)c([H])c([H])c2C1([H])[H]

$$$$
14:0:0
     RDKit          3D

 89 97  0  0  1  0  0  0  0  0999 V2000
  -30.0090  -18.7360   21.4030 C   0  0  0  0  0  3  0  0  0  0  0  0
  -29.6900  -20.1420   21.1870 C   0  0  0  0  0  3  0  0  0  0  0  0
  -29.0030  -19.5870   19.0090 C   0  0  0  0  0  3  0  0  0  0  0  0
  -29.8580  -17.6600   20.4440 C   0  0  0  0  0  0  0  0  0  0  0  0
  -29.1450  -20.6590   19.9670 C   0  0  0  0  0  0  0  0  0  0  0  0
  -29.3390  -18.1810   19.2140 C   0  0  0  0  0  0  0  0  0  0  0  0
  -29.1000  -17.3060   18.2050 F   0  0  0  0  0  0  0  0  0  0  0  0
  -30.6390  -15.0730   20.0730 C   0  0  0  0  0  0  0  0  0  0  0  0
  -30.4150  -12.7690   19.0230 C   0  0  0  0  0  2  0  0  0  0  0  0
  -29.4300  -12.7720   17.8330 C   0  0  0  0  0  2  0  0  0  0  0  0
  -27.9900  -12.5490   18.3240 C   0  0  0  0  0  2  0  0  0  0  0  0
  -27.6430  -13.4560   19.5310 C   0  0  0  0  0  3  0  0  0  0  0  0
  -28.7350  -13.4180   20.6180 C   0  0  0  0  0  2  0  0  0  0  0  0
  -30.0030  -13.8300   19.9900 N   0  0  0  0  0  0  0  0  0  0  0  0
  -31.7520  -15.1680   19.5400 O   0  0  0  0  0  0  0  0  0  0  0  0
  -30.2670  -15.9440   22.2370 C   0  0  0  0  0  1  0  0  0  0  0  0
  -30.0850  -16.1690   20.7930 N   0  0  0  0  0  0  0  0  0  0  0  0
  -25.3020  -14.0400   20.3880 C   0  0  0  0  0  0  0  0  0  0  0  0
  -24.2530  -13.2630   20.7950 C   0  0  0  0  0  0  0  0  0  0  0  0
  -24.7080  -11.9100   20.7210 C   0  0  0  0  0  0  0  0  0  0  0  0
  -26.3260  -13.1590   20.0810 N   0  0  0  0  0  0  0  0  0  0  0  0
  -25.9820  -11.8730   20.3500 N   0  0  0  0  0  0  0  0  0  0  0  0
  -23.9860  -10.6470   20.9230 C   0  0  0  0  0  0  0  0  0  0  0  0
  -24.4170   -9.6900   21.8660 C   0  0  0  0  0  3  0  0  0  0  0  0
  -23.6920   -8.4930   22.0560 C   0  0  0  0  0  3  0  0  0  0  0  0
  -22.5210   -8.2460   21.3010 C   0  0  0  0  0  0  0  0  0  0  0  0
  -22.1080   -9.1920   20.3460 C   0  0  0  0  0  3  0  0  0  0  0  0
  -22.8340  -10.3810   20.1560 C   0  0  0  0  0  3  0  0  0  0  0  0
  -21.7660   -7.1010   21.3990 O   0  0  0  0  0  0  0  0  0  0  0  0
  -21.6640   -6.4060   22.5760 C   0  0  0  0  0  0  0  0  0  0  0  0
  -21.1640   -7.0010   23.7540 C   0  0  0  0  0  3  0  0  0  0  0  0
  -21.0110   -6.2300   24.9240 C   0  0  0  0  0  3  0  0  0  0  0  0
  -21.3480   -4.8630   24.9150 C   0  0  0  0  0  0  0  0  0  0  0  0
  -21.8420   -4.2670   23.7410 C   0  0  0  0  0  3  0  0  0  0  0  0
  -21.9970   -5.0360   22.5750 C   0  0  0  0  0  0  0  0  0  0  0  0
  -22.4520   -4.4500   21.4410 F   0  0  0  0  0  0  0  0  0  0  0  0
  -21.1950   -4.1190   26.0350 F   0  0  0  0  0  0  0  0  0  0  0  0
  -22.8720  -13.7430   21.1360 C   0  0  0  0  0  0  0  0  0  0  0  0
  -22.1790  -13.0360   22.0210 N   0  0  0  0  0  0  0  0  0  0  0  0
  -22.4180  -14.7770   20.6510 O   0  0  0  0  0  0  0  0  0  0  0  0
  -22.5610  -12.1990   22.4360 H   0  0  0  0  0  0  0  0  0  0  0  0
  -21.2520  -13.3350   22.2880 H   0  0  0  0  0  0  0  0  0  0  0  0
  -25.4610  -15.4120   20.2310 N   0  0  0  0  0  0  0  0  0  0  0  0
  -24.7040  -16.0620   20.4170 H   0  0  0  0  0  0  0  0  0  0  0  0
  -26.2940  -15.8640   19.8740 H   0  0  0  0  0  0  0  0  0  0  0  0
  -28.6940  -22.0230   19.6510 O   0  0  0  0  0  0  0  0  0  0  0  0
  -28.9120  -23.3910   20.3360 C   0  0  0  0  0  3  0  0  0  0  0  0
  -28.0140  -24.7710   19.9470 C   0  0  0  0  0  3  0  0  0  0  0  0
  -28.2590  -26.2700   20.3170 O   0  0  0  0  0  0  0  0  0  0  0  0
  -24.6200  -31.9600   23.3200 C   0  0  0  0  0  0  0  0  0  0  0  0
  -27.2100  -27.2610   20.2520 C   0  0  0  0  0  0  0  0  0  0  0  0
  -23.4280  -30.5630   21.6810 C   0  0  0  0  0  3  0  0  0  0  0  0
  -24.8790  -29.0080   20.2400 C   0  0  0  0  0  0  0  0  0  0  0  0
  -25.9810  -30.8330   21.5180 C   0  0  0  0  0  2  0  0  0  0  0  0
  -26.0560  -29.4440   20.8600 C   0  0  0  0  0  0  0  0  0  0  0  0
  -27.2200  -28.5840   20.8550 C   0  0  0  0  0  3  0  0  0  0  0  0
  -26.0100  -26.9370   19.5830 C   0  0  0  0  0  3  0  0  0  0  0  0
  -24.8690  -27.7690   19.5870 C   0  0  0  0  0  3  0  0  0  0  0  0
  -23.6480  -29.9010   20.2970 C   0  0  0  0  0  2  0  0  0  0  0  0
  -24.6960  -31.1400   22.2280 N   0  0  0  0  0  0  0  0  0  0  0  0
  -23.5330  -32.2400   23.8480 O   0  0  0  0  0  0  0  0  0  0  0  0
  -22.7560  -29.5460   22.6360 C   0  0  0  0  0  0  0  0  0  0  0  0
  -21.4330  -29.3530   22.4960 N   0  0  0  0  0  0  0  0  0  0  0  0
  -23.4290  -28.9340   23.4690 O   0  0  0  0  0  0  0  0  0  0  0  0
  -20.9450  -29.9030   21.8020 H   0  0  0  0  0  0  0  0  0  0  0  0
  -18.0670  -28.0970   22.9630 C   0  0  0  0  0  0  0  0  0  0  0  0
  -20.6180  -28.4080   23.2640 C   0  0  0  0  0  3  0  0  0  0  0  0
  -20.7530  -26.9720   22.7060 C   0  0  0  0  0  2  0  0  0  0  0  0
  -19.6700  -26.6200   21.6810 C   0  0  0  0  0  2  0  0  0  0  0  0
  -18.2770  -26.7460   22.3010 C   0  0  0  0  0  2  0  0  0  0  0  0
  -19.1660  -28.8830   23.4020 C   0  0  0  0  0  0  0  0  0  0  0  0
  -18.9130  -30.1470   23.9770 C   0  0  0  0  0  3  0  0  0  0  0  0
  -17.5960  -30.6220   24.1250 C   0  0  0  0  0  3  0  0  0  0  0  0
  -16.5130  -29.8330   23.7020 C   0  0  0  0  0  3  0  0  0  0  0  0
  -16.7500  -28.5730   23.1250 C   0  0  0  0  0  3  0  0  0  0  0  0
  -25.8940  -32.6020   23.9480 C   0  0  0  0  0  3  0  0  0  0  0  0
  -26.3970  -31.8440   25.2400 C   0  0  1  0  0  0  0  0  0  0  0  0
  -25.2900  -31.6120   26.2960 C   0  0  0  0  0  1  0  0  0  0  0  0
  -26.9920  -30.4650   24.8740 C   0  0  0  0  0  1  0  0  0  0  0  0
  -27.5360  -32.6520   25.9040 C   0  0  0  0  0  1  0  0  0  0  0  0
  -25.5810  -34.0030   24.2640 N   0  0  0  0  0  0  0  0  0  0  0  0
  -25.8950  -35.0500   23.4890 C   0  0  0  0  0  0  0  0  0  0  0  0
  -26.5460  -34.9390   22.4480 O   0  0  0  0  0  0  0  0  0  0  0  0
  -24.9970  -34.1650   25.0720 H   0  0  0  0  0  0  0  0  0  0  0  0
  -24.1390  -36.8250   23.1650 C   0  0  0  0  0  1  0  0  0  0  0  0
  -25.4100  -36.4430   23.9390 C   0  0  0  0  0  3  0  0  0  0  0  0
  -27.5640  -37.3600   24.6850 C   0  0  0  0  0  1  0  0  0  0  0  0
  -26.4290  -37.5030   23.7750 N   0  0  0  0  0  0  0  0  0  0  0  0
  -26.0190  -38.4210   23.9250 H   0  0  0  0  0  0  0  0  0  0  0  0
  2  1  1  0
  3  6  2  0
  3  5  1  0
  4 17  1  0
  4  1  2  0
  5  2  2  0
  6  4  1  0
  7  6  1  0
  8 17  1  0
  9 14  1  0
 10 11  1  0
 10  9  1  0
 12 11  1  0
 12 21  1  0
 12 13  1  0
 14  8  1  0
 14 13  1  0
 15  8  2  0
 17 16  1  0
 18 19  2  0
 19 38  1  0
 20 19  1  0
 20 23  1  0
 21 22  1  0
 21 18  1  0
 22 20  2  0
 23 24  1  0
 24 25  2  0
 26 29  1  0
 26 25  1  0
 27 26  2  0
 28 27  1  0
 28 23  2  0
 29 30  1  0
 30 31  1  0
 31 32  2  0
 33 32  1  0
 33 37  1  0
 34 33  2  0
 35 30  2  0
 35 34  1  0
 36 35  1  0
 38 39  1  0
 39 42  1  0
 39 41  1  0
 40 38  2  0
 43 18  1  0
 43 44  1  0
 45 43  1  0
 46  5  1  0
 46 47  1  0
 48 49  1  0
 48 47  2  0
 50 61  2  0
 51 49  1  0
 51 56  1  0
 52 60  1  0
 52 62  1  0
 53 59  1  0
 53 55  1  0
 54 60  1  0
 55 54  1  0
 56 55  2  0
 57 58  1  0
 57 51  2  0
 58 53  2  0
 59 52  1  0
 60 50  1  0
 62 64  2  0
 63 62  1  0
 65 63  1  0
 66 75  2  0
 66 71  1  0
 67 63  1  0
 67 71  1  0
 68 67  1  0
 69 70  1  0
 69 68  1  0
 70 66  1  0
 71 72  2  0
 72 73  1  0
 74 73  2  0
 75 74  1  0
 76 50  1  0
 76 81  1  0
 76 77  1  0
 77 80  1  1
 77 78  1  0
 79 77  1  0
 81 84  1  0
 82 86  1  0
 82 81  1  0
 83 82  2  0
 86 85  1  0
 88 89  1  0
 88 86  1  0
 88 87  1  0
M  ISO  4   8 100  17 100  48 101  49 101
M  END
>  <TORSDO>  (15) 
F 19

>  <SCORE>  (15) 
-13.571

>  <name>  (15) 
14

>  <ligand_id>  (15) 
14

>  <original_smiles>  (15) 
[H]c1c([H])c([H])c2c(c1[H])C([H])([H])C([H])([H])C([H])([H])C2([H])N([H])C(=O)C1([H])N(C(=O)C([H])(N([H])C(=O)C([H])(N([H])C([H])([H])[H])C([H])([H])[H])C(C([H])([H])[H])(C([H])([H])[H])C([H])([H])[H])C([H])([H])c2c([H])c(OC([H])([H])C([H])([H])Oc3c([H])c([H])c(N(C(=O)N4C([H])([H])C([H])([H])C([H])([H])C([H])(n5nc(-c6c([H])c([H])c(Oc7c([H])c([H])c(F)c([H])c7F)c([H])c6[H])c(C(=O)N([H])[H])c5N([H])[H])C4([H])[H])C([H])([H])[H])c(F)c3[H])c([H])c([H])c2C1([H])[H]

>  <smiles>  (15) 
[H]c1c([H])c([H])c2c(c1[H])C([H])([H])C([H])([H])C([H])([H])C2([H])N([H])C(=O)C1([H])N(C(=O)C([H])(N([H])C(=O)C([H])(N([H])C([H])([H])[H])C([H])([H])[H])C(C([H])([H])[H])(C([H])([H])[H])C([H])([H])[H])C([H])([H])c2c([H])c(OC([H])([H])C([H])([H])Oc3c([H])c([H])c(N(C(=O)N4C([H])([H])C([H])([H])C([H])([H])C([H])(n5nc(-c6c([H])c([H])c(Oc7c([H])c([H])c(F)c([H])c7F)c([H])c6[H])c(C(=O)N([H])[H])c5N([H])[H])C4([H])[H])C([H])([H])[H])c(F)c3[H])c([H])c([H])c2C1([H])[H]

$$$$
15:0:0
     RDKit          3D

 95104  0  0  1  0  0  0  0  0999 V2000
  -29.0560  -19.6960   21.1970 C   0  0  0  0  0  3  0  0  0  0  0  0
  -28.8630  -21.0860   21.0170 C   0  0  0  0  0  3  0  0  0  0  0  0
  -31.0530  -21.5180   21.9530 C   0  0  0  0  0  3  0  0  0  0  0  0
  -30.2710  -19.1960   21.7220 C   0  0  0  0  0  0  0  0  0  0  0  0
  -29.8560  -22.0220   21.3780 C   0  0  0  0  0  0  0  0  0  0  0  0
  -31.2600  -20.1280   22.1100 C   0  0  0  0  0  0  0  0  0  0  0  0
  -32.4290  -19.6860   22.6320 F   0  0  0  0  0  0  0  0  0  0  0  0
  -30.5060  -17.6790   21.8990 C   0  0  0  0  0  2  0  0  0  0  0  0
  -30.7350  -14.6440   20.1840 C   0  0  0  0  0  0  0  0  0  0  0  0
  -30.3880  -12.4660   19.0960 C   0  0  0  0  0  2  0  0  0  0  0  0
  -29.4190  -12.6290   17.9070 C   0  0  0  0  0  2  0  0  0  0  0  0
  -27.9550  -12.4960   18.3790 C   0  0  0  0  0  2  0  0  0  0  0  0
  -27.6350  -13.3410   19.6390 C   0  0  0  0  0  3  0  0  0  0  0  0
  -28.7300  -13.1980   20.7210 C   0  0  0  0  0  2  0  0  0  0  0  0
  -30.0300  -13.4810   20.0960 N   0  0  0  0  0  0  0  0  0  0  0  0
  -31.9400  -14.7000   19.9270 O   0  0  0  0  0  0  0  0  0  0  0  0
  -29.9910  -17.5800   18.6270 C   0  0  0  0  0  2  0  0  0  0  0  0
  -29.2680  -16.3110   19.1080 C   0  0  0  0  0  2  0  0  0  0  0  0
  -31.2570  -17.6690   19.4740 C   0  0  0  0  0  2  0  0  0  0  0  0
  -29.9980  -15.7940   20.2780 N   0  0  0  0  0  0  0  0  0  0  0  0
  -30.9600  -16.8920   20.7000 N   0  0  2  0  0  4  0  0  0  0  0  0
  -31.8180  -16.4040   20.9350 H   0  0  0  0  0  0  0  0  0  0  0  0
  -25.2670  -13.9550   20.4200 C   0  0  0  0  0  0  0  0  0  0  0  0
  -24.2060  -13.1850   20.8130 C   0  0  0  0  0  0  0  0  0  0  0  0
  -24.6670  -11.8340   20.7750 C   0  0  0  0  0  0  0  0  0  0  0  0
  -26.3010  -13.0690   20.1630 N   0  0  0  0  0  0  0  0  0  0  0  0
  -25.9500  -11.7900   20.4410 N   0  0  0  0  0  0  0  0  0  0  0  0
  -23.9450  -10.5740   20.9790 C   0  0  0  0  0  0  0  0  0  0  0  0
  -24.3990   -9.6080   21.9050 C   0  0  0  0  0  3  0  0  0  0  0  0
  -23.6800   -8.4090   22.0980 C   0  0  0  0  0  3  0  0  0  0  0  0
  -22.4930   -8.1690   21.3640 C   0  0  0  0  0  0  0  0  0  0  0  0
  -22.0600   -9.1230   20.4280 C   0  0  0  0  0  3  0  0  0  0  0  0
  -22.7790  -10.3140   20.2330 C   0  0  0  0  0  3  0  0  0  0  0  0
  -21.7430   -7.0230   21.4690 O   0  0  0  0  0  0  0  0  0  0  0  0
  -21.7170   -6.2820   22.6230 C   0  0  0  0  0  0  0  0  0  0  0  0
  -21.3130   -6.8380   23.8550 C   0  0  0  0  0  3  0  0  0  0  0  0
  -21.2330   -6.0240   25.0030 C   0  0  0  0  0  3  0  0  0  0  0  0
  -21.5470   -4.6540   24.9170 C   0  0  0  0  0  0  0  0  0  0  0  0
  -21.9430   -4.0970   23.6880 C   0  0  0  0  0  3  0  0  0  0  0  0
  -22.0250   -4.9090   22.5430 C   0  0  0  0  0  0  0  0  0  0  0  0
  -22.3870   -4.3630   21.3570 F   0  0  0  0  0  0  0  0  0  0  0  0
  -21.4610   -3.8700   26.0170 F   0  0  0  0  0  0  0  0  0  0  0  0
  -22.8150  -13.6650   21.1100 C   0  0  0  0  0  0  0  0  0  0  0  0
  -22.0990  -12.9740   21.9890 N   0  0  0  0  0  0  0  0  0  0  0  0
  -22.3700  -14.6900   20.5940 O   0  0  0  0  0  0  0  0  0  0  0  0
  -22.4690  -12.1460   22.4310 H   0  0  0  0  0  0  0  0  0  0  0  0
  -21.1640  -13.2790   22.2200 H   0  0  0  0  0  0  0  0  0  0  0  0
  -25.4250  -15.3260   20.2370 N   0  0  0  0  0  0  0  0  0  0  0  0
  -24.6580  -15.9770   20.3690 H   0  0  0  0  0  0  0  0  0  0  0  0
  -26.2660  -15.7700   19.8970 H   0  0  0  0  0  0  0  0  0  0  0  0
  -29.5890  -23.3660   21.1320 O   0  0  0  0  0  0  0  0  0  0  0  0
  -30.5450  -24.3610   21.5210 C   0  0  0  0  0  2  0  0  0  0  0  0
  -30.4520  -25.6830   20.7150 C   0  0  0  0  0  2  0  0  0  0  0  0
  -29.3370  -26.7010   21.0720 C   0  0  0  0  0  2  0  0  0  0  0  0
  -28.3380  -26.6670   20.0570 O   0  0  0  0  0  0  0  0  0  0  0  0
  -24.5710  -31.9060   23.2380 C   0  0  0  0  0  0  0  0  0  0  0  0
  -27.2220  -27.4700   20.1540 C   0  0  0  0  0  0  0  0  0  0  0  0
  -23.3640  -30.5080   21.5930 C   0  0  0  0  0  3  0  0  0  0  0  0
  -24.8200  -28.9700   20.1700 C   0  0  0  0  0  0  0  0  0  0  0  0
  -25.8880  -30.8640   21.3970 C   0  0  0  0  0  2  0  0  0  0  0  0
  -25.9760  -29.4900   20.7670 C   0  0  0  0  0  0  0  0  0  0  0  0
  -27.1800  -28.7440   20.7710 C   0  0  0  0  0  3  0  0  0  0  0  0
  -26.0520  -26.9720   19.5470 C   0  0  0  0  0  3  0  0  0  0  0  0
  -24.8510  -27.7050   19.5600 C   0  0  0  0  0  3  0  0  0  0  0  0
  -23.5750  -29.8290   20.2130 C   0  0  0  0  0  2  0  0  0  0  0  0
  -24.6250  -31.1080   22.1340 N   0  0  0  0  0  0  0  0  0  0  0  0
  -23.4920  -32.1790   23.7790 O   0  0  0  0  0  0  0  0  0  0  0  0
  -22.7120  -29.4860   22.5520 C   0  0  0  0  0  0  0  0  0  0  0  0
  -21.3900  -29.2950   22.4150 N   0  0  0  0  0  0  0  0  0  0  0  0
  -23.3940  -28.8660   23.3730 O   0  0  0  0  0  0  0  0  0  0  0  0
  -20.9010  -29.8440   21.7240 H   0  0  0  0  0  0  0  0  0  0  0  0
  -18.0230  -28.0710   22.8850 C   0  0  0  0  0  0  0  0  0  0  0  0
  -20.5750  -28.3540   23.1850 C   0  0  0  0  0  3  0  0  0  0  0  0
  -20.6970  -26.9210   22.6200 C   0  0  0  0  0  2  0  0  0  0  0  0
  -19.6110  -26.5800   21.5950 C   0  0  0  0  0  2  0  0  0  0  0  0
  -18.2200  -26.7170   22.2220 C   0  0  0  0  0  2  0  0  0  0  0  0
  -19.1290  -28.8460   23.3230 C   0  0  0  0  0  0  0  0  0  0  0  0
  -18.8930  -30.1110   23.9010 C   0  0  0  0  0  3  0  0  0  0  0  0
  -17.5820  -30.6030   24.0480 C   0  0  0  0  0  3  0  0  0  0  0  0
  -16.4890  -29.8250   23.6270 C   0  0  0  0  0  3  0  0  0  0  0  0
  -16.7110  -28.5610   23.0500 C   0  0  0  0  0  3  0  0  0  0  0  0
  -25.8610  -32.5330   23.8560 C   0  0  0  0  0  3  0  0  0  0  0  0
  -25.5580  -33.9330   24.1800 N   0  0  0  0  0  0  0  0  0  0  0  0
  -25.8990  -34.9800   23.4190 C   0  0  0  0  0  0  0  0  0  0  0  0
  -26.5750  -34.8700   22.3910 O   0  0  0  0  0  0  0  0  0  0  0  0
  -24.9610  -34.0930   24.9790 H   0  0  0  0  0  0  0  0  0  0  0  0
  -24.1860  -36.7810   23.0410 C   0  0  0  0  0  1  0  0  0  0  0  0
  -25.4150  -36.3730   23.8670 C   0  0  0  0  0  3  0  0  0  0  0  0
  -27.5460  -37.2440   24.7210 C   0  0  0  0  0  1  0  0  0  0  0  0
  -26.4560  -37.4180   23.7650 N   0  0  0  0  0  0  0  0  0  0  0  0
  -26.0550  -38.3410   23.9050 H   0  0  0  0  0  0  0  0  0  0  0  0
  -26.3770  -31.7620   25.1320 C   0  0  1  0  0  0  0  0  0  0  0  0
  -25.2860  -31.5310   26.2010 C   0  0  0  0  0  1  0  0  0  0  0  0
  -26.9570  -30.3820   24.7390 C   0  0  0  0  0  1  0  0  0  0  0  0
  -27.5320  -32.5540   25.7890 C   0  0  0  0  0  1  0  0  0  0  0  0
  1  4  1  0
  2  1  2  0
  2  5  1  0
  3  6  1  0
  4  8  1  0
  4  6  2  0
  5  3  2  0
  6  7  1  0
  9 20  1  0
 10 15  1  0
 11 12  1  0
 11 10  1  0
 13 12  1  0
 13 26  1  0
 13 14  1  0
 15  9  1  0
 15 14  1  0
 16  9  2  0
 17 18  1  0
 17 19  1  0
 18 20  1  0
 19 21  1  0
 20 21  1  0
 21 22  1  1
 21  8  1  0
 23 24  2  0
 24 43  1  0
 25 24  1  0
 25 28  1  0
 26 23  1  0
 26 27  1  0
 27 25  2  0
 28 29  1  0
 29 30  2  0
 31 34  1  0
 31 30  1  0
 32 31  2  0
 33 32  1  0
 33 28  2  0
 34 35  1  0
 35 36  1  0
 36 37  2  0
 38 37  1  0
 38 42  1  0
 39 38  2  0
 40 35  2  0
 40 39  1  0
 41 40  1  0
 43 44  1  0
 44 47  1  0
 44 46  1  0
 45 43  2  0
 48 49  1  0
 48 23  1  0
 50 48  1  0
 51  5  1  0
 51 52  1  0
 53 54  1  0
 53 52  1  0
 55 57  1  0
 55 54  1  0
 56 67  2  0
 57 62  1  0
 58 66  1  0
 58 68  1  0
 59 65  1  0
 59 61  1  0
 60 66  1  0
 61 62  2  0
 61 60  1  0
 63 64  1  0
 63 57  2  0
 64 59  2  0
 65 58  1  0
 66 56  1  0
 68 70  2  0
 69 68  1  0
 71 69  1  0
 72 81  2  0
 72 77  1  0
 73 69  1  0
 73 77  1  0
 74 73  1  0
 75 76  1  0
 75 74  1  0
 76 72  1  0
 77 78  2  0
 78 79  1  0
 80 79  2  0
 81 80  1  0
 82 56  1  0
 82 83  1  0
 82 92  1  0
 83 86  1  0
 84 88  1  0
 84 83  1  0
 85 84  2  0
 88 87  1  0
 90 88  1  0
 90 91  1  0
 90 89  1  0
 92 95  1  1
 92 93  1  0
 94 92  1  0
M  ISO  4   9 100  20 100  54 101  55 101
M  END
>  <TORSDO>  (16) 
F 21

>  <SCORE>  (16) 
-13.464

>  <name>  (16) 
15

>  <ligand_id>  (16) 
15

>  <original_smiles>  (16) 
[H]c1c([H])c([H])c2c(c1[H])C([H])([H])C([H])([H])C([H])([H])C2([H])N([H])C(=O)C1([H])N(C(=O)C([H])(N([H])C(=O)C([H])(N([H])C([H])([H])[H])C([H])([H])[H])C(C([H])([H])[H])(C([H])([H])[H])C([H])([H])[H])C([H])([H])c2c([H])c(OC([H])([H])C([H])([H])C([H])([H])Oc3c([H])c([H])c(C([H])([H])[N+]4([H])N(C(=O)N5C([H])([H])C([H])([H])C([H])([H])C([H])(n6nc(-c7c([H])c([H])c(Oc8c([H])c([H])c(F)c([H])c8F)c([H])c7[H])c(C(=O)N([H])[H])c6N([H])[H])C5([H])[H])C([H])([H])C([H])([H])C4([H])[H])c(F)c3[H])c([H])c([H])c2C1([H])[H]

>  <smiles>  (16) 
[H]c1c([H])c([H])c2c(c1[H])C([H])([H])C([H])([H])C([H])([H])C2([H])N([H])C(=O)C1([H])N(C(=O)C([H])(N([H])C(=O)C([H])(N([H])C([H])([H])[H])C([H])([H])[H])C(C([H])([H])[H])(C([H])([H])[H])C([H])([H])[H])C([H])([H])c2c([H])c(OC([H])([H])C([H])([H])C([H])([H])Oc3c([H])c([H])c(C([H])([H])[N+]4([H])N(C(=O)N5C([H])([H])C([H])([H])C([H])([H])C([H])(n6nc(-c7c([H])c([H])c(Oc8c([H])c([H])c(F)c([H])c8F)c([H])c7[H])c(C(=O)N([H])[H])c6N([H])[H])C5([H])[H])C([H])([H])C([H])([H])C4([H])[H])c(F)c3[H])c([H])c([H])c2C1([H])[H]

$$$$
16:0:0
     RDKit          3D

 90 98  0  0  1  0  0  0  0  0999 V2000
  -29.9060  -17.4240   18.6390 C   0  0  0  0  0  3  0  0  0  0  0  0
  -28.7820  -17.6670   17.8250 C   0  0  0  0  0  3  0  0  0  0  0  0
  -27.7740  -18.9900   19.5900 C   0  0  0  0  0  3  0  0  0  0  0  0
  -29.8440  -17.7310   20.0200 C   0  0  0  0  0  0  0  0  0  0  0  0
  -29.0050  -18.9750   20.2840 C   0  0  0  0  0  0  0  0  0  0  0  0
  -27.6700  -18.3450   18.3480 C   0  0  0  0  0  0  0  0  0  0  0  0
  -26.5430  -18.4790   17.6080 F   0  0  0  0  0  0  0  0  0  0  0  0
  -30.6050  -15.1470   20.4860 C   0  0  0  0  0  0  0  0  0  0  0  0
  -30.5420  -12.7950   19.5370 C   0  0  0  0  0  2  0  0  0  0  0  0
  -29.6280  -12.7460   18.2870 C   0  0  0  0  0  2  0  0  0  0  0  0
  -28.1600  -12.5160   18.6910 C   0  0  0  0  0  2  0  0  0  0  0  0
  -27.7250  -13.4140   19.8800 C   0  0  0  0  0  3  0  0  0  0  0  0
  -28.7630  -13.4170   21.0220 C   0  0  0  0  0  2  0  0  0  0  0  0
  -30.0340  -13.8700   20.4450 N   0  0  0  0  0  0  0  0  0  0  0  0
  -31.8010  -15.2130   20.1800 O   0  0  0  0  0  0  0  0  0  0  0  0
  -29.8370  -16.3430   20.7120 N   0  0  0  0  0  0  0  0  0  0  0  0
  -28.9860  -16.1620   21.2240 H   0  0  0  0  0  0  0  0  0  0  0  0
  -25.3220  -13.9480   20.5720 C   0  0  0  0  0  0  0  0  0  0  0  0
  -24.2640  -13.1550   20.9200 C   0  0  0  0  0  0  0  0  0  0  0  0
  -24.7520  -11.8130   20.8990 C   0  0  0  0  0  0  0  0  0  0  0  0
  -26.3840  -13.0890   20.3510 N   0  0  0  0  0  0  0  0  0  0  0  0
  -26.0490  -11.7980   20.6140 N   0  0  0  0  0  0  0  0  0  0  0  0
  -24.0430  -10.5380   21.0760 C   0  0  0  0  0  0  0  0  0  0  0  0
  -24.4670   -9.5810   22.0250 C   0  0  0  0  0  3  0  0  0  0  0  0
  -23.7550   -8.3730   22.1910 C   0  0  0  0  0  3  0  0  0  0  0  0
  -22.6050   -8.1130   21.4080 C   0  0  0  0  0  0  0  0  0  0  0  0
  -22.2010   -9.0590   20.4510 C   0  0  0  0  0  3  0  0  0  0  0  0
  -22.9130  -10.2570   20.2820 C   0  0  0  0  0  3  0  0  0  0  0  0
  -21.8670   -6.9560   21.4830 O   0  0  0  0  0  0  0  0  0  0  0  0
  -21.7990   -6.2170   22.6370 C   0  0  0  0  0  0  0  0  0  0  0  0
  -21.3080   -6.7630   23.8420 C   0  0  0  0  0  3  0  0  0  0  0  0
  -21.1900   -5.9490   24.9870 C   0  0  0  0  0  3  0  0  0  0  0  0
  -21.5540   -4.5900   24.9270 C   0  0  0  0  0  0  0  0  0  0  0  0
  -22.0370   -4.0440   23.7250 C   0  0  0  0  0  3  0  0  0  0  0  0
  -22.1570   -4.8550   22.5830 C   0  0  0  0  0  0  0  0  0  0  0  0
  -22.6050   -4.3180   21.4210 F   0  0  0  0  0  0  0  0  0  0  0  0
  -21.4330   -3.8070   26.0230 F   0  0  0  0  0  0  0  0  0  0  0  0
  -22.8540  -13.6100   21.1570 C   0  0  0  0  0  0  0  0  0  0  0  0
  -22.1180  -12.9060   22.0100 N   0  0  0  0  0  0  0  0  0  0  0  0
  -22.4110  -14.6250   20.6230 O   0  0  0  0  0  0  0  0  0  0  0  0
  -22.4890  -12.0860   22.4660 H   0  0  0  0  0  0  0  0  0  0  0  0
  -21.1700  -13.1950   22.2100 H   0  0  0  0  0  0  0  0  0  0  0  0
  -25.4640  -15.3210   20.3990 N   0  0  0  0  0  0  0  0  0  0  0  0
  -24.6810  -15.9560   20.5060 H   0  0  0  0  0  0  0  0  0  0  0  0
  -26.3020  -15.7770   20.0610 H   0  0  0  0  0  0  0  0  0  0  0  0
  -29.4070  -20.3390   20.7000 O   0  0  0  0  0  0  0  0  0  0  0  0
  -28.5660  -21.6590   20.4640 C   0  0  0  0  0  2  0  0  0  0  0  0
  -28.9600  -23.3060   20.7340 C   0  0  0  0  0  3  0  0  0  0  0  0
  -27.9700  -24.6730   20.4350 C   0  0  0  0  0  3  0  0  0  0  0  0
  -28.2530  -26.2150   20.6230 O   0  0  0  0  0  0  0  0  0  0  0  0
  -24.6100  -32.0460   23.3840 C   0  0  0  0  0  0  0  0  0  0  0  0
  -27.2210  -27.2310   20.5020 C   0  0  0  0  0  0  0  0  0  0  0  0
  -23.4400  -30.6300   21.7410 C   0  0  0  0  0  3  0  0  0  0  0  0
  -24.9120  -29.0160   20.3790 C   0  0  0  0  0  0  0  0  0  0  0  0
  -26.0030  -30.8650   21.6390 C   0  0  0  0  0  2  0  0  0  0  0  0
  -26.0810  -29.4600   21.0080 C   0  0  0  0  0  0  0  0  0  0  0  0
  -27.2370  -28.5840   21.0520 C   0  0  0  0  0  3  0  0  0  0  0  0
  -26.0270  -26.9030   19.8220 C   0  0  0  0  0  3  0  0  0  0  0  0
  -24.9000  -27.7520   19.7700 C   0  0  0  0  0  3  0  0  0  0  0  0
  -23.6910  -29.9260   20.3810 C   0  0  0  0  0  2  0  0  0  0  0  0
  -24.7040  -31.2050   22.3090 N   0  0  0  0  0  0  0  0  0  0  0  0
  -23.5130  -32.3490   23.8790 O   0  0  0  0  0  0  0  0  0  0  0  0
  -22.7320  -29.6460   22.7060 C   0  0  0  0  0  0  0  0  0  0  0  0
  -21.4050  -29.4850   22.5530 N   0  0  0  0  0  0  0  0  0  0  0  0
  -23.3780  -29.0310   23.5560 O   0  0  0  0  0  0  0  0  0  0  0  0
  -20.9380  -30.0400   21.8490 H   0  0  0  0  0  0  0  0  0  0  0  0
  -18.0060  -28.3020   22.9920 C   0  0  0  0  0  0  0  0  0  0  0  0
  -20.5610  -28.5580   23.3130 C   0  0  0  0  0  3  0  0  0  0  0  0
  -20.6710  -27.1200   22.7550 C   0  0  0  0  0  2  0  0  0  0  0  0
  -19.5900  -26.7910   21.7210 C   0  0  0  0  0  2  0  0  0  0  0  0
  -18.1950  -26.9460   22.3300 C   0  0  0  0  0  2  0  0  0  0  0  0
  -19.1190  -29.0660   23.4350 C   0  0  0  0  0  0  0  0  0  0  0  0
  -18.8910  -30.3380   24.0040 C   0  0  0  0  0  3  0  0  0  0  0  0
  -17.5840  -30.8460   24.1320 C   0  0  0  0  0  3  0  0  0  0  0  0
  -16.4870  -30.0790   23.7050 C   0  0  0  0  0  3  0  0  0  0  0  0
  -16.6990  -28.8090   23.1390 C   0  0  0  0  0  3  0  0  0  0  0  0
  -25.8750  -32.6860   24.0320 C   0  0  0  0  0  3  0  0  0  0  0  0
  -26.3360  -31.9520   25.3510 C   0  0  1  0  0  0  0  0  0  0  0  0
  -25.2000  -31.7540   26.3830 C   0  0  0  0  0  1  0  0  0  0  0  0
  -26.9250  -30.5590   25.0300 C   0  0  0  0  0  1  0  0  0  0  0  0
  -27.4650  -32.7610   26.0330 C   0  0  0  0  0  1  0  0  0  0  0  0
  -25.5700  -34.0980   24.3140 N   0  0  0  0  0  0  0  0  0  0  0  0
  -25.9110  -35.1270   23.5270 C   0  0  0  0  0  0  0  0  0  0  0  0
  -26.5820  -34.9880   22.5020 O   0  0  0  0  0  0  0  0  0  0  0  0
  -24.9720  -34.2820   25.1060 H   0  0  0  0  0  0  0  0  0  0  0  0
  -24.1790  -36.9130   23.1410 C   0  0  0  0  0  1  0  0  0  0  0  0
  -25.4340  -36.5330   23.9420 C   0  0  0  0  0  3  0  0  0  0  0  0
  -27.5800  -37.4510   24.7090 C   0  0  0  0  0  1  0  0  0  0  0  0
  -26.4670  -37.5800   23.7720 N   0  0  0  0  0  0  0  0  0  0  0  0
  -26.0630  -38.5050   23.8850 H   0  0  0  0  0  0  0  0  0  0  0  0
  1  4  1  0
  2  6  1  0
  2  1  2  0
  3  5  1  0
  4  5  2  3
  4 16  1  0
  5 46  1  0
  6  3  2  0
  7  6  1  0
  8 16  1  0
  9 14  1  0
 10 11  1  0
 10  9  1  0
 12 11  1  0
 12 21  1  0
 12 13  1  0
 14  8  1  0
 14 13  1  0
 15  8  2  0
 16 17  1  0
 18 19  2  0
 19 38  1  0
 20 19  1  0
 20 23  1  0
 21 18  1  0
 21 22  1  0
 22 20  2  0
 23 24  1  0
 24 25  2  0
 26 29  1  0
 26 25  1  0
 27 26  2  0
 28 27  1  0
 28 23  2  0
 29 30  1  0
 30 31  1  0
 31 32  2  0
 33 32  1  0
 33 37  1  0
 34 33  2  0
 35 30  2  0
 35 34  1  0
 36 35  1  0
 38 39  1  0
 39 42  1  0
 39 41  1  0
 40 38  2  0
 43 44  1  0
 43 18  1  0
 45 43  1  0
 47 46  1  0
 47 48  1  0
 49 50  1  0
 49 48  2  0
 51 62  2  0
 52 50  1  0
 52 57  1  0
 53 61  1  0
 53 63  1  0
 54 60  1  0
 54 56  1  0
 55 61  1  0
 56 57  2  0
 56 55  1  0
 58 52  2  0
 59 58  1  0
 59 54  2  0
 60 53  1  0
 61 51  1  0
 63 65  2  0
 64 63  1  0
 66 64  1  0
 67 76  2  0
 67 72  1  0
 68 64  1  0
 68 72  1  0
 69 68  1  0
 70 71  1  0
 70 69  1  0
 71 67  1  0
 72 73  2  0
 73 74  1  0
 75 74  2  0
 76 75  1  0
 77 51  1  0
 77 82  1  0
 77 78  1  0
 78 81  1  1
 78 79  1  0
 80 78  1  0
 82 85  1  0
 83 87  1  0
 83 82  1  0
 84 83  2  0
 87 86  1  0
 89 90  1  0
 89 87  1  0
 89 88  1  0
M  ISO  4   8 100  16 100  49 101  50 101
M  END
>  <TORSDO>  (17) 
F 20

>  <SCORE>  (17) 
-14.152

>  <name>  (17) 
16

>  <ligand_id>  (17) 
16

>  <original_smiles>  (17) 
[H]c1c([H])c([H])c2c(c1[H])C([H])([H])C([H])([H])C([H])([H])C2([H])N([H])C(=O)C1([H])N(C(=O)C([H])(N([H])C(=O)C([H])(N([H])C([H])([H])[H])C([H])([H])[H])C(C([H])([H])[H])(C([H])([H])[H])C([H])([H])[H])C([H])([H])c2c([H])c(OC([H])([H])C([H])([H])C([H])([H])Oc3c([H])c(F)c([H])c([H])c3N([H])C(=O)N3C([H])([H])C([H])([H])C([H])([H])C([H])(n4nc(-c5c([H])c([H])c(Oc6c([H])c([H])c(F)c([H])c6F)c([H])c5[H])c(C(=O)N([H])[H])c4N([H])[H])C3([H])[H])c([H])c([H])c2C1([H])[H]

>  <smiles>  (17) 
[H]c1c([H])c([H])c2c(c1[H])C([H])([H])C([H])([H])C([H])([H])C2([H])N([H])C(=O)C1([H])N(C(=O)C([H])(N([H])C(=O)C([H])(N([H])C([H])([H])[H])C([H])([H])[H])C(C([H])([H])[H])(C([H])([H])[H])C([H])([H])[H])C([H])([H])c2c([H])c(OC([H])([H])C([H])([H])C([H])([H])Oc3c([H])c(F)c([H])c([H])c3N([H])C(=O)N3C([H])([H])C([H])([H])C([H])([H])C([H])(n4nc(-c5c([H])c([H])c(Oc6c([H])c([H])c(F)c([H])c6F)c([H])c5[H])c(C(=O)N([H])[H])c4N([H])[H])C3([H])[H])c([H])c([H])c2C1([H])[H]

$$$$
17:0:0
     RDKit          3D

 90 98  0  0  1  0  0  0  0  0999 V2000
  -31.0370  -17.9100   19.9770 C   0  0  0  0  0  3  0  0  0  0  0  0
  -31.0130  -19.3290   19.8310 C   0  0  0  0  0  3  0  0  0  0  0  0
  -28.7300  -17.9770   20.6360 C   0  0  0  0  0  3  0  0  0  0  0  0
  -29.8880  -17.1860   20.3860 C   0  0  0  0  0  0  0  0  0  0  0  0
  -29.8590  -20.1220   20.0780 C   0  0  0  0  0  0  0  0  0  0  0  0
  -28.7050  -19.3980   20.4900 C   0  0  0  0  0  0  0  0  0  0  0  0
  -27.5490  -20.0520   20.7580 F   0  0  0  0  0  0  0  0  0  0  0  0
  -30.5980  -14.6850   20.1250 C   0  0  0  0  0  0  0  0  0  0  0  0
  -30.3560  -12.4480   19.0640 C   0  0  0  0  0  2  0  0  0  0  0  0
  -29.3690  -12.5900   17.8830 C   0  0  0  0  0  2  0  0  0  0  0  0
  -27.9110  -12.4310   18.3610 C   0  0  0  0  0  2  0  0  0  0  0  0
  -27.6000  -13.2790   19.6230 C   0  0  0  0  0  3  0  0  0  0  0  0
  -28.6980  -13.1110   20.6970 C   0  0  0  0  0  2  0  0  0  0  0  0
  -29.9860  -13.4590   20.0760 N   0  0  0  0  0  0  0  0  0  0  0  0
  -31.7390  -14.8470   19.6810 O   0  0  0  0  0  0  0  0  0  0  0  0
  -29.8100  -15.7270   20.5450 N   0  0  0  0  0  0  0  0  0  0  0  0
  -28.9370  -15.4010   20.9340 H   0  0  0  0  0  0  0  0  0  0  0  0
  -25.2380  -13.8750   20.4420 C   0  0  0  0  0  0  0  0  0  0  0  0
  -24.1830  -13.1000   20.8410 C   0  0  0  0  0  0  0  0  0  0  0  0
  -24.6380  -11.7470   20.7700 C   0  0  0  0  0  0  0  0  0  0  0  0
  -26.2690  -12.9940   20.1530 N   0  0  0  0  0  0  0  0  0  0  0  0
  -25.9140  -11.7080   20.4090 N   0  0  0  0  0  0  0  0  0  0  0  0
  -23.9120  -10.4850   20.9680 C   0  0  0  0  0  0  0  0  0  0  0  0
  -24.3650   -9.5090   21.8830 C   0  0  0  0  0  3  0  0  0  0  0  0
  -23.6420   -8.3110   22.0690 C   0  0  0  0  0  3  0  0  0  0  0  0
  -22.4500   -8.0820   21.3400 C   0  0  0  0  0  0  0  0  0  0  0  0
  -22.0150   -9.0480   20.4150 C   0  0  0  0  0  3  0  0  0  0  0  0
  -22.7400  -10.2360   20.2260 C   0  0  0  0  0  3  0  0  0  0  0  0
  -21.6950   -6.9380   21.4370 O   0  0  0  0  0  0  0  0  0  0  0  0
  -21.6530   -6.1990   22.5920 C   0  0  0  0  0  0  0  0  0  0  0  0
  -21.2070   -6.7480   23.8130 C   0  0  0  0  0  3  0  0  0  0  0  0
  -21.1150   -5.9340   24.9610 C   0  0  0  0  0  3  0  0  0  0  0  0
  -21.4580   -4.5710   24.8850 C   0  0  0  0  0  0  0  0  0  0  0  0
  -21.8970   -4.0200   23.6680 C   0  0  0  0  0  3  0  0  0  0  0  0
  -21.9910   -4.8310   22.5240 C   0  0  0  0  0  0  0  0  0  0  0  0
  -22.3940   -4.2910   21.3490 F   0  0  0  0  0  0  0  0  0  0  0  0
  -21.3620   -3.7860   25.9840 F   0  0  0  0  0  0  0  0  0  0  0  0
  -22.7990  -13.5780   21.1750 C   0  0  0  0  0  0  0  0  0  0  0  0
  -22.1060  -12.8780   22.0650 N   0  0  0  0  0  0  0  0  0  0  0  0
  -22.3450  -14.6100   20.6840 O   0  0  0  0  0  0  0  0  0  0  0  0
  -22.4870  -12.0440   22.4880 H   0  0  0  0  0  0  0  0  0  0  0  0
  -21.1790  -13.1820   22.3300 H   0  0  0  0  0  0  0  0  0  0  0  0
  -25.4000  -15.2470   20.2780 N   0  0  0  0  0  0  0  0  0  0  0  0
  -24.6340  -15.8960   20.4170 H   0  0  0  0  0  0  0  0  0  0  0  0
  -26.2220  -15.6840   19.8800 H   0  0  0  0  0  0  0  0  0  0  0  0
  -29.9680  -21.5220   19.9050 O   0  0  0  0  0  0  0  0  0  0  0  0
  -28.8750  -22.4670   20.1420 C   0  0  0  0  0  3  0  0  0  0  0  0
  -29.2270  -24.0020   19.8750 C   0  0  0  0  0  3  0  0  0  0  0  0
  -28.0550  -25.0580   20.0540 C   0  0  0  0  0  2  0  0  0  0  0  0
  -28.3030  -26.5080   19.8500 O   0  0  0  0  0  0  0  0  0  0  0  0
  -24.6700  -31.8010   23.1690 C   0  0  0  0  0  0  0  0  0  0  0  0
  -27.1900  -27.3650   19.8710 C   0  0  0  0  0  0  0  0  0  0  0  0
  -23.4280  -30.4940   21.4830 C   0  0  0  0  0  3  0  0  0  0  0  0
  -24.8410  -28.9990   19.9700 C   0  0  0  0  0  0  0  0  0  0  0  0
  -25.9690  -30.7950   21.2790 C   0  0  0  0  0  2  0  0  0  0  0  0
  -26.0250  -29.4470   20.5710 C   0  0  0  0  0  0  0  0  0  0  0  0
  -27.2020  -28.6430   20.5130 C   0  0  0  0  0  3  0  0  0  0  0  0
  -25.9840  -26.9800   19.2380 C   0  0  0  0  0  3  0  0  0  0  0  0
  -24.8230  -27.7710   19.2960 C   0  0  0  0  0  3  0  0  0  0  0  0
  -23.6170  -29.8840   20.0710 C   0  0  0  0  0  2  0  0  0  0  0  0
  -24.7090  -31.0450   22.0350 N   0  0  0  0  0  0  0  0  0  0  0  0
  -23.5980  -32.0660   23.7310 O   0  0  0  0  0  0  0  0  0  0  0  0
  -22.7670  -29.4390   22.4030 C   0  0  0  0  0  0  0  0  0  0  0  0
  -21.4370  -29.2880   22.2910 N   0  0  0  0  0  0  0  0  0  0  0  0
  -23.4500  -28.7630   23.1770 O   0  0  0  0  0  0  0  0  0  0  0  0
  -20.9460  -29.8860   21.6410 H   0  0  0  0  0  0  0  0  0  0  0  0
  -18.0450  -28.1480   22.8170 C   0  0  0  0  0  0  0  0  0  0  0  0
  -20.6160  -28.3280   23.0300 C   0  0  0  0  0  3  0  0  0  0  0  0
  -20.6640  -26.9300   22.3690 C   0  0  0  0  0  2  0  0  0  0  0  0
  -19.5260  -26.6940   21.3700 C   0  0  0  0  0  2  0  0  0  0  0  0
  -18.1670  -26.8370   22.0610 C   0  0  0  0  0  2  0  0  0  0  0  0
  -19.1950  -28.8560   23.2580 C   0  0  0  0  0  0  0  0  0  0  0  0
  -19.0250  -30.0880   23.9270 C   0  0  0  0  0  3  0  0  0  0  0  0
  -17.7390  -30.6110   24.1590 C   0  0  0  0  0  3  0  0  0  0  0  0
  -16.6040  -29.8990   23.7320 C   0  0  0  0  0  3  0  0  0  0  0  0
  -16.7580  -28.6700   23.0680 C   0  0  0  0  0  3  0  0  0  0  0  0
  -25.9690  -32.3900   23.8020 C   0  0  0  0  0  3  0  0  0  0  0  0
  -26.4820  -31.5600   25.0420 C   0  0  1  0  0  0  0  0  0  0  0  0
  -25.3960  -31.3020   26.1120 C   0  0  0  0  0  1  0  0  0  0  0  0
  -27.0380  -30.1900   24.5940 C   0  0  0  0  0  1  0  0  0  0  0  0
  -27.6520  -32.3110   25.7230 C   0  0  0  0  0  1  0  0  0  0  0  0
  -25.6830  -33.7790   24.1890 N   0  0  0  0  0  0  0  0  0  0  0  0
  -25.9950  -34.8530   23.4520 C   0  0  0  0  0  0  0  0  0  0  0  0
  -26.6230  -34.7770   22.3920 O   0  0  0  0  0  0  0  0  0  0  0  0
  -25.1190  -33.9120   25.0150 H   0  0  0  0  0  0  0  0  0  0  0  0
  -24.2570  -36.6600   23.2380 C   0  0  0  0  0  1  0  0  0  0  0  0
  -25.5380  -36.2290   23.9710 C   0  0  0  0  0  3  0  0  0  0  0  0
  -27.7130  -37.0900   24.7190 C   0  0  0  0  0  1  0  0  0  0  0  0
  -26.5670  -37.2830   23.8340 N   0  0  0  0  0  0  0  0  0  0  0  0
  -26.1720  -38.2000   24.0220 H   0  0  0  0  0  0  0  0  0  0  0  0
  1  4  1  0
  2  1  2  0
  2  5  1  0
  4 16  1  0
  4  3  2  0
  5  6  2  0
  6  3  1  0
  6  7  1  0
  8 16  1  0
  9 14  1  0
 10 11  1  0
 10  9  1  0
 12 11  1  0
 12 21  1  0
 12 13  1  0
 14  8  1  0
 14 13  1  0
 15  8  2  0
 16 17  1  0
 18 19  2  0
 19 38  1  0
 20 19  1  0
 20 23  1  0
 21 22  1  0
 21 18  1  0
 22 20  2  0
 23 24  1  0
 24 25  2  0
 26 29  1  0
 26 25  1  0
 27 26  2  0
 28 27  1  0
 28 23  2  0
 29 30  1  0
 30 31  1  0
 31 32  2  0
 33 32  1  0
 33 37  1  0
 34 33  2  0
 35 30  2  0
 35 34  1  0
 36 35  1  0
 38 39  1  0
 39 42  1  0
 39 41  1  0
 40 38  2  0
 43 44  1  0
 43 18  1  0
 45 43  1  0
 46  5  1  0
 46 47  1  0
 48 49  1  0
 48 47  2  0
 50 52  1  0
 50 49  1  0
 51 62  2  0
 52 57  1  0
 53 61  1  0
 53 63  1  0
 54 60  1  0
 54 56  1  0
 55 61  1  0
 56 55  1  0
 57 56  2  0
 58 59  1  0
 58 52  2  0
 59 54  2  0
 60 53  1  0
 61 51  1  0
 63 65  2  0
 64 63  1  0
 66 64  1  0
 67 76  2  0
 67 72  1  0
 68 64  1  0
 68 72  1  0
 69 68  1  0
 70 71  1  0
 70 69  1  0
 71 67  1  0
 72 73  2  0
 73 74  1  0
 75 74  2  0
 76 75  1  0
 77 51  1  0
 77 82  1  0
 77 78  1  0
 78 81  1  1
 78 79  1  0
 80 78  1  0
 82 85  1  0
 83 87  1  0
 83 82  1  0
 84 83  2  0
 87 86  1  0
 89 87  1  0
 89 90  1  0
 89 88  1  0
M  ISO  4   8 100  16 100  49 101  50 101
M  END
>  <TORSDO>  (18) 
F 20

>  <SCORE>  (18) 
-13.622

>  <name>  (18) 
17

>  <ligand_id>  (18) 
17

>  <original_smiles>  (18) 
[H]c1c([H])c([H])c2c(c1[H])C([H])([H])C([H])([H])C([H])([H])C2([H])N([H])C(=O)C1([H])N(C(=O)C([H])(N([H])C(=O)C([H])(N([H])C([H])([H])[H])C([H])([H])[H])C(C([H])([H])[H])(C([H])([H])[H])C([H])([H])[H])C([H])([H])c2c([H])c(OC([H])([H])C([H])([H])C([H])([H])Oc3c([H])c([H])c(N([H])C(=O)N4C([H])([H])C([H])([H])C([H])([H])C([H])(n5nc(-c6c([H])c([H])c(Oc7c([H])c([H])c(F)c([H])c7F)c([H])c6[H])c(C(=O)N([H])[H])c5N([H])[H])C4([H])[H])c([H])c3F)c([H])c([H])c2C1([H])[H]

>  <smiles>  (18) 
[H]c1c([H])c([H])c2c(c1[H])C([H])([H])C([H])([H])C([H])([H])C2([H])N([H])C(=O)C1([H])N(C(=O)C([H])(N([H])C(=O)C([H])(N([H])C([H])([H])[H])C([H])([H])[H])C(C([H])([H])[H])(C([H])([H])[H])C([H])([H])[H])C([H])([H])c2c([H])c(OC([H])([H])C([H])([H])C([H])([H])Oc3c([H])c([H])c(N([H])C(=O)N4C([H])([H])C([H])([H])C([H])([H])C([H])(n5nc(-c6c([H])c([H])c(Oc7c([H])c([H])c(F)c([H])c7F)c([H])c6[H])c(C(=O)N([H])[H])c5N([H])[H])C4([H])[H])c([H])c3F)c([H])c([H])c2C1([H])[H]

$$$$
18:0:0
     RDKit          3D

 95105  0  0  1  0  0  0  0  0999 V2000
  -29.9780  -23.0870   18.0550 C   0  0  0  0  0  2  0  0  0  0  0  0
  -29.2100  -24.3400   18.4550 C   0  0  0  0  0  2  0  0  0  0  0  0
  -30.5520  -22.6260   19.3900 C   0  0  0  0  0  2  0  0  0  0  0  0
  -28.6720  -24.0530   19.8750 C   0  0  0  0  0  3  0  0  0  0  0  0
  -29.4670  -22.8320   20.3790 N   0  0  1  0  0  4  0  0  0  0  0  0
  -29.9270  -23.0700   21.2470 H   0  0  0  0  0  0  0  0  0  0  0  0
  -28.6750  -21.5640   20.6880 C   0  0  0  0  0  2  0  0  0  0  0  0
  -30.9370  -14.8790   20.3000 C   0  0  0  0  0  0  0  0  0  0  0  0
  -30.7480  -12.5880   19.3570 C   0  0  0  0  0  2  0  0  0  0  0  0
  -29.8030  -12.5950   18.1340 C   0  0  0  0  0  2  0  0  0  0  0  0
  -28.3190  -12.5290   18.5610 C   0  0  0  0  0  2  0  0  0  0  0  0
  -27.9560  -13.4120   19.7890 C   0  0  0  0  0  3  0  0  0  0  0  0
  -29.0260  -13.3310   20.8950 C   0  0  0  0  0  2  0  0  0  0  0  0
  -30.3140  -13.6570   20.2730 N   0  0  0  0  0  0  0  0  0  0  0  0
  -32.1650  -14.9550   20.1930 O   0  0  0  0  0  0  0  0  0  0  0  0
  -29.4000  -19.5130   19.2730 C   0  0  0  0  0  3  0  0  0  0  0  0
  -29.6080  -19.2650   21.6680 C   0  0  0  0  0  3  0  0  0  0  0  0
  -29.7500  -18.1470   19.1450 C   0  0  0  0  0  0  0  0  0  0  0  0
  -29.2960  -20.1130   20.5530 C   0  0  0  0  0  0  0  0  0  0  0  0
  -30.0050  -17.2940   20.2270 C   0  0  0  0  0  0  0  0  0  0  0  0
  -29.9540  -17.8760   21.5190 C   0  0  0  0  0  0  0  0  0  0  0  0
  -29.8490  -17.4080   17.8520 C   0  0  0  0  0  3  0  0  0  0  0  0
  -30.0680  -15.9520   18.2990 C   0  0  0  0  0  3  0  0  0  0  0  0
  -30.1840  -15.9180   19.7770 N   0  0  0  0  0  0  0  0  0  0  0  0
  -30.1830  -17.1090   22.6110 F   0  0  0  0  0  0  0  0  0  0  0  0
  -25.5740  -14.0000   20.5390 C   0  0  0  0  0  0  0  0  0  0  0  0
  -24.5070  -13.2210   20.8950 C   0  0  0  0  0  0  0  0  0  0  0  0
  -24.9710  -11.8710   20.8430 C   0  0  0  0  0  0  0  0  0  0  0  0
  -26.6160  -13.1220   20.2890 N   0  0  0  0  0  0  0  0  0  0  0  0
  -26.2600  -11.8360   20.5370 N   0  0  0  0  0  0  0  0  0  0  0  0
  -24.2460  -10.6050   21.0110 C   0  0  0  0  0  0  0  0  0  0  0  0
  -24.6370   -9.6540   21.9790 C   0  0  0  0  0  3  0  0  0  0  0  0
  -23.9140   -8.4520   22.1340 C   0  0  0  0  0  3  0  0  0  0  0  0
  -22.7850   -8.1930   21.3200 C   0  0  0  0  0  0  0  0  0  0  0  0
  -22.4150   -9.1320   20.3420 C   0  0  0  0  0  3  0  0  0  0  0  0
  -23.1390  -10.3260   20.1850 C   0  0  0  0  0  3  0  0  0  0  0  0
  -22.0370   -7.0420   21.3830 O   0  0  0  0  0  0  0  0  0  0  0  0
  -21.8600   -6.3640   22.5620 C   0  0  0  0  0  0  0  0  0  0  0  0
  -21.2630   -6.9710   23.6880 C   0  0  0  0  0  3  0  0  0  0  0  0
  -21.0360   -6.2160   24.8560 C   0  0  0  0  0  3  0  0  0  0  0  0
  -21.3950   -4.8550   24.8980 C   0  0  0  0  0  0  0  0  0  0  0  0
  -21.9850   -4.2490   23.7750 C   0  0  0  0  0  3  0  0  0  0  0  0
  -22.2140   -5.0010   22.6090 C   0  0  0  0  0  0  0  0  0  0  0  0
  -22.7620   -4.4060   21.5230 F   0  0  0  0  0  0  0  0  0  0  0  0
  -21.1710   -4.1280   26.0170 F   0  0  0  0  0  0  0  0  0  0  0  0
  -23.1100  -13.6930   21.1730 C   0  0  0  0  0  0  0  0  0  0  0  0
  -22.3840  -12.9820   22.0280 N   0  0  0  0  0  0  0  0  0  0  0  0
  -22.6720  -14.7270   20.6690 O   0  0  0  0  0  0  0  0  0  0  0  0
  -22.7520  -12.1450   22.4540 H   0  0  0  0  0  0  0  0  0  0  0  0
  -21.4460  -13.2770   22.2600 H   0  0  0  0  0  0  0  0  0  0  0  0
  -25.7400  -15.3730   20.3850 N   0  0  0  0  0  0  0  0  0  0  0  0
  -24.9760  -16.0280   20.5070 H   0  0  0  0  0  0  0  0  0  0  0  0
  -26.5980  -15.8160   20.0840 H   0  0  0  0  0  0  0  0  0  0  0  0
  -28.7000  -25.3770   20.7670 C   0  0  0  0  0  2  0  0  0  0  0  0
  -28.6630  -26.7040   20.1170 O   0  0  0  0  0  0  0  0  0  0  0  0
  -24.7040  -31.8970   23.1720 C   0  0  0  0  0  0  0  0  0  0  0  0
  -27.4910  -27.4590   20.1320 C   0  0  0  0  0  0  0  0  0  0  0  0
  -23.5600  -30.4760   21.5020 C   0  0  0  0  0  3  0  0  0  0  0  0
  -25.0740  -28.9710   20.0920 C   0  0  0  0  0  0  0  0  0  0  0  0
  -26.0860  -30.8780   21.3490 C   0  0  0  0  0  2  0  0  0  0  0  0
  -26.2160  -29.5060   20.7020 C   0  0  0  0  0  0  0  0  0  0  0  0
  -27.4300  -28.7640   20.7050 C   0  0  0  0  0  3  0  0  0  0  0  0
  -26.3290  -26.9590   19.5110 C   0  0  0  0  0  3  0  0  0  0  0  0
  -25.1310  -27.7020   19.4870 C   0  0  0  0  0  3  0  0  0  0  0  0
  -23.8110  -29.8090   20.1230 C   0  0  0  0  0  2  0  0  0  0  0  0
  -24.8010  -31.1020   22.0650 N   0  0  0  0  0  0  0  0  0  0  0  0
  -23.6070  -32.1400   23.6940 O   0  0  0  0  0  0  0  0  0  0  0  0
  -22.9140  -29.4370   22.4470 C   0  0  0  0  0  0  0  0  0  0  0  0
  -21.5940  -29.2290   22.3050 N   0  0  0  0  0  0  0  0  0  0  0  0
  -23.5990  -28.8170   23.2650 O   0  0  0  0  0  0  0  0  0  0  0  0
  -21.0990  -29.7850   21.6200 H   0  0  0  0  0  0  0  0  0  0  0  0
  -18.2400  -27.9590   22.7610 C   0  0  0  0  0  0  0  0  0  0  0  0
  -20.7890  -28.2650   23.0550 C   0  0  0  0  0  3  0  0  0  0  0  0
  -20.9240  -26.8430   22.4610 C   0  0  0  0  0  2  0  0  0  0  0  0
  -19.8370  -26.5140   21.4330 C   0  0  0  0  0  2  0  0  0  0  0  0
  -18.4480  -26.6230   22.0680 C   0  0  0  0  0  2  0  0  0  0  0  0
  -19.3400  -28.7370   23.2100 C   0  0  0  0  0  0  0  0  0  0  0  0
  -19.0920  -29.9870   23.8160 C   0  0  0  0  0  3  0  0  0  0  0  0
  -17.7760  -30.4610   23.9780 C   0  0  0  0  0  3  0  0  0  0  0  0
  -16.6900  -29.6800   23.5450 C   0  0  0  0  0  3  0  0  0  0  0  0
  -16.9230  -28.4310   22.9430 C   0  0  0  0  0  3  0  0  0  0  0  0
  -25.9610  -32.5550   23.8180 C   0  0  0  0  0  3  0  0  0  0  0  0
  -25.6140  -33.9440   24.1510 N   0  0  0  0  0  0  0  0  0  0  0  0
  -25.9290  -35.0100   23.4030 C   0  0  0  0  0  0  0  0  0  0  0  0
  -26.6120  -34.9280   22.3790 O   0  0  0  0  0  0  0  0  0  0  0  0
  -25.0120  -34.0800   24.9500 H   0  0  0  0  0  0  0  0  0  0  0  0
  -24.1650  -36.7640   23.0340 C   0  0  0  0  0  1  0  0  0  0  0  0
  -25.4030  -36.3830   23.8620 C   0  0  0  0  0  3  0  0  0  0  0  0
  -27.4990  -37.3140   24.7350 C   0  0  0  0  0  1  0  0  0  0  0  0
  -26.4120  -37.4600   23.7720 N   0  0  0  0  0  0  0  0  0  0  0  0
  -25.9820  -38.3700   23.9170 H   0  0  0  0  0  0  0  0  0  0  0  0
  -26.4780  -31.7900   25.0980 C   0  0  1  0  0  0  0  0  0  0  0  0
  -25.3730  -31.5190   26.1480 C   0  0  0  0  0  1  0  0  0  0  0  0
  -27.1010  -30.4310   24.7050 C   0  0  0  0  0  1  0  0  0  0  0  0
  -27.5980  -32.6070   25.7820 C   0  0  0  0  0  1  0  0  0  0  0  0
  1  2  1  0
  1  3  1  0
  2  4  1  0
  3  5  1  0
  4  5  1  0
  4 54  1  0
  5  7  1  0
  5  6  1  1
  9 14  1  0
 10 11  1  0
 10  9  1  0
 12 11  1  0
 12 29  1  0
 12 13  1  0
 14  8  1  0
 14 13  1  0
 15  8  2  0
 16 19  1  0
 18 16  2  0
 18 20  1  0
 19  7  1  0
 19 17  2  0
 20 21  2  0
 21 17  1  0
 21 25  1  0
 22 23  2  0
 22 18  1  0
 23 24  1  0
 24 20  1  0
 24  8  1  0
 26 27  2  0
 27 46  1  0
 28 27  1  0
 28 31  1  0
 29 30  1  0
 29 26  1  0
 30 28  2  0
 31 32  1  0
 32 33  2  0
 34 37  1  0
 34 33  1  0
 35 34  2  0
 36 35  1  0
 36 31  2  0
 37 38  1  0
 38 43  2  0
 38 39  1  0
 39 40  2  0
 40 41  1  0
 41 45  1  0
 42 41  2  0
 43 42  1  0
 44 43  1  0
 46 47  1  0
 47 50  1  0
 47 49  1  0
 48 46  2  0
 51 52  1  0
 51 26  1  0
 53 51  1  0
 55 57  1  0
 55 54  1  0
 56 67  2  0
 57 62  1  0
 58 66  1  0
 58 68  1  0
 59 65  1  0
 59 61  1  0
 60 66  1  0
 61 62  2  0
 61 60  1  0
 63 57  2  0
 64 63  1  0
 64 59  2  0
 65 58  1  0
 66 56  1  0
 68 70  2  0
 69 68  1  0
 71 69  1  0
 72 81  2  0
 72 77  1  0
 73 69  1  0
 73 77  1  0
 74 73  1  0
 75 76  1  0
 75 74  1  0
 76 72  1  0
 77 78  2  0
 78 79  1  0
 80 79  2  0
 81 80  1  0
 82 56  1  0
 82 83  1  0
 82 92  1  0
 83 86  1  0
 84 88  1  0
 84 83  1  0
 85 84  2  0
 88 87  1  0
 90 88  1  0
 90 91  1  0
 90 89  1  0
 92 95  1  1
 92 93  1  0
 94 92  1  0
M  ISO  4   8 100  24 100  54 101  55 101
M  END
>  <TORSDO>  (19) 
F 18

>  <SCORE>  (19) 
-13.124

>  <name>  (19) 
18

>  <ligand_id>  (19) 
18

>  <original_smiles>  (19) 
[H]c1c([H])c([H])c2c(c1[H])C([H])([H])C([H])([H])C([H])([H])C2([H])N([H])C(=O)C1([H])N(C(=O)C([H])(N([H])C(=O)C([H])(N([H])C([H])([H])[H])C([H])([H])[H])C(C([H])([H])[H])(C([H])([H])[H])C([H])([H])[H])C([H])([H])c2c([H])c(OC([H])([H])C3([H])C([H])([H])C([H])([H])C([H])([H])[N+]3([H])C([H])([H])c3c([H])c(F)c4c(c3[H])C([H])([H])C([H])([H])N4C(=O)N3C([H])([H])C([H])([H])C([H])([H])C([H])(n4nc(-c5c([H])c([H])c(Oc6c([H])c([H])c(F)c([H])c6F)c([H])c5[H])c(C(=O)N([H])[H])c4N([H])[H])C3([H])[H])c([H])c([H])c2C1([H])[H]

>  <smiles>  (19) 
[H]c1c([H])c([H])c2c(c1[H])C([H])([H])C([H])([H])C([H])([H])C2([H])N([H])C(=O)C1([H])N(C(=O)C([H])(N([H])C(=O)C([H])(N([H])C([H])([H])[H])C([H])([H])[H])C(C([H])([H])[H])(C([H])([H])[H])C([H])([H])[H])C([H])([H])c2c([H])c(OC([H])([H])C3([H])C([H])([H])C([H])([H])C([H])([H])[N+]3([H])C([H])([H])c3c([H])c(F)c4c(c3[H])C([H])([H])C([H])([H])N4C(=O)N3C([H])([H])C([H])([H])C([H])([H])C([H])(n4nc(-c5c([H])c([H])c(Oc6c([H])c([H])c(F)c([H])c6F)c([H])c5[H])c(C(=O)N([H])[H])c4N([H])[H])C3([H])[H])c([H])c([H])c2C1([H])[H]

$$$$
19:0:0
     RDKit          3D

 90 98  0  0  1  0  0  0  0  0999 V2000
  -31.0370  -17.9100   19.9770 C   0  0  0  0  0  3  0  0  0  0  0  0
  -31.0130  -19.3290   19.8310 C   0  0  0  0  0  3  0  0  0  0  0  0
  -28.7300  -17.9770   20.6360 C   0  0  0  0  0  3  0  0  0  0  0  0
  -29.8880  -17.1860   20.3860 C   0  0  0  0  0  0  0  0  0  0  0  0
  -29.8590  -20.1220   20.0780 C   0  0  0  0  0  0  0  0  0  0  0  0
  -28.7050  -19.3980   20.4900 C   0  0  0  0  0  0  0  0  0  0  0  0
  -27.5490  -20.0520   20.7580 F   0  0  0  0  0  0  0  0  0  0  0  0
  -30.5980  -14.6850   20.1250 C   0  0  0  0  0  0  0  0  0  0  0  0
  -30.3560  -12.4480   19.0640 C   0  0  0  0  0  2  0  0  0  0  0  0
  -29.3690  -12.5900   17.8830 C   0  0  0  0  0  2  0  0  0  0  0  0
  -27.9110  -12.4310   18.3610 C   0  0  0  0  0  2  0  0  0  0  0  0
  -27.6000  -13.2790   19.6230 C   0  0  0  0  0  3  0  0  0  0  0  0
  -28.6980  -13.1110   20.6970 C   0  0  0  0  0  2  0  0  0  0  0  0
  -29.9860  -13.4590   20.0760 N   0  0  0  0  0  0  0  0  0  0  0  0
  -31.7390  -14.8470   19.6810 O   0  0  0  0  0  0  0  0  0  0  0  0
  -29.8100  -15.7270   20.5450 N   0  0  0  0  0  0  0  0  0  0  0  0
  -28.9370  -15.4010   20.9340 H   0  0  0  0  0  0  0  0  0  0  0  0
  -25.2380  -13.8750   20.4420 C   0  0  0  0  0  0  0  0  0  0  0  0
  -24.1830  -13.1000   20.8410 C   0  0  0  0  0  0  0  0  0  0  0  0
  -24.6380  -11.7470   20.7700 C   0  0  0  0  0  0  0  0  0  0  0  0
  -26.2690  -12.9940   20.1530 N   0  0  0  0  0  0  0  0  0  0  0  0
  -25.9140  -11.7080   20.4090 N   0  0  0  0  0  0  0  0  0  0  0  0
  -23.9120  -10.4850   20.9680 C   0  0  0  0  0  0  0  0  0  0  0  0
  -24.3650   -9.5090   21.8830 C   0  0  0  0  0  3  0  0  0  0  0  0
  -23.6420   -8.3110   22.0690 C   0  0  0  0  0  3  0  0  0  0  0  0
  -22.4500   -8.0820   21.3400 C   0  0  0  0  0  0  0  0  0  0  0  0
  -22.0150   -9.0480   20.4150 C   0  0  0  0  0  3  0  0  0  0  0  0
  -22.7400  -10.2360   20.2260 C   0  0  0  0  0  3  0  0  0  0  0  0
  -21.6950   -6.9380   21.4370 O   0  0  0  0  0  0  0  0  0  0  0  0
  -21.6530   -6.1990   22.5920 C   0  0  0  0  0  0  0  0  0  0  0  0
  -21.2070   -6.7480   23.8130 C   0  0  0  0  0  3  0  0  0  0  0  0
  -21.1150   -5.9340   24.9610 C   0  0  0  0  0  3  0  0  0  0  0  0
  -21.4580   -4.5710   24.8850 C   0  0  0  0  0  0  0  0  0  0  0  0
  -21.8970   -4.0200   23.6680 C   0  0  0  0  0  3  0  0  0  0  0  0
  -21.9910   -4.8310   22.5240 C   0  0  0  0  0  0  0  0  0  0  0  0
  -22.3940   -4.2910   21.3490 F   0  0  0  0  0  0  0  0  0  0  0  0
  -21.3620   -3.7860   25.9840 F   0  0  0  0  0  0  0  0  0  0  0  0
  -22.7990  -13.5780   21.1750 C   0  0  0  0  0  0  0  0  0  0  0  0
  -22.1060  -12.8780   22.0650 N   0  0  0  0  0  0  0  0  0  0  0  0
  -22.3450  -14.6100   20.6840 O   0  0  0  0  0  0  0  0  0  0  0  0
  -22.4870  -12.0440   22.4880 H   0  0  0  0  0  0  0  0  0  0  0  0
  -21.1790  -13.1820   22.3300 H   0  0  0  0  0  0  0  0  0  0  0  0
  -25.4000  -15.2470   20.2780 N   0  0  0  0  0  0  0  0  0  0  0  0
  -24.6340  -15.8960   20.4170 H   0  0  0  0  0  0  0  0  0  0  0  0
  -26.2220  -15.6840   19.8800 H   0  0  0  0  0  0  0  0  0  0  0  0
  -29.9680  -21.5220   19.9050 O   0  0  0  0  0  0  0  0  0  0  0  0
  -28.8750  -22.4670   20.1420 C   0  0  0  0  0  3  0  0  0  0  0  0
  -29.2270  -24.0020   19.8750 C   0  0  0  0  0  3  0  0  0  0  0  0
  -28.0550  -25.0580   20.0540 C   0  0  0  0  0  2  0  0  0  0  0  0
  -28.3030  -26.5080   19.8500 O   0  0  0  0  0  0  0  0  0  0  0  0
  -24.6700  -31.8010   23.1690 C   0  0  0  0  0  0  0  0  0  0  0  0
  -27.1900  -27.3650   19.8710 C   0  0  0  0  0  0  0  0  0  0  0  0
  -23.4280  -30.4940   21.4830 C   0  0  0  0  0  3  0  0  0  0  0  0
  -24.8410  -28.9990   19.9700 C   0  0  0  0  0  0  0  0  0  0  0  0
  -25.9690  -30.7950   21.2790 C   0  0  0  0  0  2  0  0  0  0  0  0
  -26.0250  -29.4470   20.5710 C   0  0  0  0  0  0  0  0  0  0  0  0
  -27.2020  -28.6430   20.5130 C   0  0  0  0  0  3  0  0  0  0  0  0
  -25.9840  -26.9800   19.2380 C   0  0  0  0  0  3  0  0  0  0  0  0
  -24.8230  -27.7710   19.2960 C   0  0  0  0  0  3  0  0  0  0  0  0
  -23.6170  -29.8840   20.0710 C   0  0  0  0  0  2  0  0  0  0  0  0
  -24.7090  -31.0450   22.0350 N   0  0  0  0  0  0  0  0  0  0  0  0
  -23.5980  -32.0660   23.7310 O   0  0  0  0  0  0  0  0  0  0  0  0
  -22.7670  -29.4390   22.4030 C   0  0  0  0  0  0  0  0  0  0  0  0
  -21.4370  -29.2880   22.2910 N   0  0  0  0  0  0  0  0  0  0  0  0
  -23.4500  -28.7630   23.1770 O   0  0  0  0  0  0  0  0  0  0  0  0
  -20.9460  -29.8860   21.6410 H   0  0  0  0  0  0  0  0  0  0  0  0
  -18.0450  -28.1480   22.8170 C   0  0  0  0  0  0  0  0  0  0  0  0
  -20.6160  -28.3280   23.0300 C   0  0  0  0  0  3  0  0  0  0  0  0
  -20.6640  -26.9300   22.3690 C   0  0  0  0  0  2  0  0  0  0  0  0
  -19.5260  -26.6940   21.3700 C   0  0  0  0  0  2  0  0  0  0  0  0
  -18.1670  -26.8370   22.0610 C   0  0  0  0  0  2  0  0  0  0  0  0
  -19.1950  -28.8560   23.2580 C   0  0  0  0  0  0  0  0  0  0  0  0
  -19.0250  -30.0880   23.9270 C   0  0  0  0  0  3  0  0  0  0  0  0
  -17.7390  -30.6110   24.1590 C   0  0  0  0  0  3  0  0  0  0  0  0
  -16.6040  -29.8990   23.7320 C   0  0  0  0  0  3  0  0  0  0  0  0
  -16.7580  -28.6700   23.0680 C   0  0  0  0  0  3  0  0  0  0  0  0
  -25.9690  -32.3900   23.8020 C   0  0  0  0  0  3  0  0  0  0  0  0
  -26.4820  -31.5600   25.0420 C   0  0  1  0  0  0  0  0  0  0  0  0
  -25.3960  -31.3020   26.1120 C   0  0  0  0  0  1  0  0  0  0  0  0
  -27.0380  -30.1900   24.5940 C   0  0  0  0  0  1  0  0  0  0  0  0
  -27.6520  -32.3110   25.7230 C   0  0  0  0  0  1  0  0  0  0  0  0
  -25.6830  -33.7790   24.1890 N   0  0  0  0  0  0  0  0  0  0  0  0
  -25.9950  -34.8530   23.4520 C   0  0  0  0  0  0  0  0  0  0  0  0
  -26.6230  -34.7770   22.3920 O   0  0  0  0  0  0  0  0  0  0  0  0
  -25.1190  -33.9120   25.0150 H   0  0  0  0  0  0  0  0  0  0  0  0
  -24.2570  -36.6600   23.2380 C   0  0  0  0  0  1  0  0  0  0  0  0
  -25.5380  -36.2290   23.9710 C   0  0  0  0  0  3  0  0  0  0  0  0
  -27.7130  -37.0900   24.7190 C   0  0  0  0  0  1  0  0  0  0  0  0
  -26.5670  -37.2830   23.8340 N   0  0  0  0  0  0  0  0  0  0  0  0
  -26.1720  -38.2000   24.0220 H   0  0  0  0  0  0  0  0  0  0  0  0
  1  4  1  0
  2  1  2  0
  2  5  1  0
  4 16  1  0
  4  3  2  0
  5  6  2  0
  6  3  1  0
  6  7  1  0
  8 16  1  0
  9 14  1  0
 10 11  1  0
 10  9  1  0
 12 11  1  0
 12 21  1  0
 12 13  1  0
 14  8  1  0
 14 13  1  0
 15  8  2  0
 16 17  1  0
 18 19  2  0
 19 38  1  0
 20 19  1  0
 20 23  1  0
 21 22  1  0
 21 18  1  0
 22 20  2  0
 23 24  1  0
 24 25  2  0
 26 29  1  0
 26 25  1  0
 27 26  2  0
 28 27  1  0
 28 23  2  0
 29 30  1  0
 30 31  1  0
 31 32  2  0
 33 32  1  0
 33 37  1  0
 34 33  2  0
 35 30  2  0
 35 34  1  0
 36 35  1  0
 38 39  1  0
 39 42  1  0
 39 41  1  0
 40 38  2  0
 43 44  1  0
 43 18  1  0
 45 43  1  0
 46  5  1  0
 46 47  1  0
 48 49  1  0
 48 47  2  0
 50 52  1  0
 50 49  1  0
 51 62  2  0
 52 57  1  0
 53 61  1  0
 53 63  1  0
 54 60  1  0
 54 56  1  0
 55 61  1  0
 56 55  1  0
 57 56  2  0
 58 59  1  0
 58 52  2  0
 59 54  2  0
 60 53  1  0
 61 51  1  0
 63 65  2  0
 64 63  1  0
 66 64  1  0
 67 76  2  0
 67 72  1  0
 68 64  1  0
 68 72  1  0
 69 68  1  0
 70 71  1  0
 70 69  1  0
 71 67  1  0
 72 73  2  0
 73 74  1  0
 75 74  2  0
 76 75  1  0
 77 51  1  0
 77 82  1  0
 77 78  1  0
 78 81  1  1
 78 79  1  0
 80 78  1  0
 82 85  1  0
 83 87  1  0
 83 82  1  0
 84 83  2  0
 87 86  1  0
 89 87  1  0
 89 90  1  0
 89 88  1  0
M  ISO  4   8 100  16 100  49 101  50 101
M  END
>  <TORSDO>  (20) 
F 20

>  <SCORE>  (20) 
-13.622

>  <name>  (20) 
19

>  <ligand_id>  (20) 
19

>  <original_smiles>  (20) 
[H]c1c([H])c([H])c2c(c1[H])C([H])([H])C([H])([H])C([H])([H])C2([H])N([H])C(=O)C1([H])N(C(=O)C([H])(N([H])C(=O)C([H])(N([H])C([H])([H])[H])C([H])([H])[H])C(C([H])([H])[H])(C([H])([H])[H])C([H])([H])[H])C([H])([H])c2c([H])c(OC([H])([H])C([H])([H])C([H])([H])Oc3c([H])c([H])c(N([H])C(=O)N4C([H])([H])C([H])([H])C([H])([H])C([H])(n5nc(-c6c([H])c([H])c(Oc7c([H])c([H])c(F)c([H])c7F)c([H])c6[H])c(C(=O)N([H])[H])c5N([H])[H])C4([H])[H])c([H])c3F)c([H])c([H])c2C1([H])[H]

>  <smiles>  (20) 
[H]c1c([H])c([H])c2c(c1[H])C([H])([H])C([H])([H])C([H])([H])C2([H])N([H])C(=O)C1([H])N(C(=O)C([H])(N([H])C(=O)C([H])(N([H])C([H])([H])[H])C([H])([H])[H])C(C([H])([H])[H])(C([H])([H])[H])C([H])([H])[H])C([H])([H])c2c([H])c(OC([H])([H])C([H])([H])C([H])([H])Oc3c([H])c([H])c(N([H])C(=O)N4C([H])([H])C([H])([H])C([H])([H])C([H])(n5nc(-c6c([H])c([H])c(Oc7c([H])c([H])c(F)c([H])c7F)c([H])c6[H])c(C(=O)N([H])[H])c5N([H])[H])C4([H])[H])c([H])c3F)c([H])c([H])c2C1([H])[H]

$$$$
20:0:0
     RDKit          3D

 93101  0  0  1  0  0  0  0  0999 V2000
  -27.6280  -22.0670   20.3780 C   0  0  0  0  0  1  0  0  0  0  0  0
  -29.0200  -22.5890   20.3950 N   0  0  2  0  0  4  0  0  0  0  0  0
  -29.2630  -22.6410   21.3750 H   0  0  0  0  0  0  0  0  0  0  0  0
  -30.6280  -24.4920   19.8150 C   0  0  0  0  0  1  0  0  0  0  0  0
  -29.1530  -24.0250   19.8380 C   0  0  0  0  0  3  0  0  0  0  0  0
  -28.2790  -25.1620   20.5490 C   0  0  0  0  0  2  0  0  0  0  0  0
  -28.4260  -26.5600   20.0920 O   0  0  0  0  0  0  0  0  0  0  0  0
  -24.6170  -31.8620   23.1670 C   0  0  0  0  0  0  0  0  0  0  0  0
  -27.2850  -27.3700   20.0900 C   0  0  0  0  0  0  0  0  0  0  0  0
  -23.4310  -30.4720   21.5070 C   0  0  0  0  0  3  0  0  0  0  0  0
  -24.9000  -28.9410   20.0840 C   0  0  0  0  0  0  0  0  0  0  0  0
  -25.9680  -30.8180   21.3400 C   0  0  0  0  0  2  0  0  0  0  0  0
  -26.0600  -29.4450   20.6840 C   0  0  0  0  0  0  0  0  0  0  0  0
  -27.2570  -28.6730   20.6730 C   0  0  0  0  0  3  0  0  0  0  0  0
  -26.1060  -26.9140   19.4640 C   0  0  0  0  0  3  0  0  0  0  0  0
  -24.9220  -27.6790   19.4670 C   0  0  0  0  0  3  0  0  0  0  0  0
  -23.6590  -29.8080   20.1230 C   0  0  0  0  0  2  0  0  0  0  0  0
  -24.6920  -31.0660   22.0620 N   0  0  0  0  0  0  0  0  0  0  0  0
  -23.5290  -32.1280   23.6990 O   0  0  0  0  0  0  0  0  0  0  0  0
  -22.7680  -29.4440   22.4540 C   0  0  0  0  0  0  0  0  0  0  0  0
  -21.4450  -29.2590   22.3140 N   0  0  0  0  0  0  0  0  0  0  0  0
  -23.4460  -28.8170   23.2730 O   0  0  0  0  0  0  0  0  0  0  0  0
  -20.9610  -29.8190   21.6260 H   0  0  0  0  0  0  0  0  0  0  0  0
  -18.0720  -28.0280   22.7500 C   0  0  0  0  0  0  0  0  0  0  0  0
  -20.6220  -28.3130   23.0690 C   0  0  0  0  0  3  0  0  0  0  0  0
  -20.7510  -26.8840   22.4940 C   0  0  0  0  0  2  0  0  0  0  0  0
  -19.6700  -26.5520   21.4600 C   0  0  0  0  0  2  0  0  0  0  0  0
  -18.2740  -26.6820   22.0790 C   0  0  0  0  0  2  0  0  0  0  0  0
  -19.1750  -28.8010   23.2010 C   0  0  0  0  0  0  0  0  0  0  0  0
  -18.9320  -30.0610   23.7890 C   0  0  0  0  0  3  0  0  0  0  0  0
  -17.6190  -30.5490   23.9320 C   0  0  0  0  0  3  0  0  0  0  0  0
  -16.5300  -29.7720   23.4960 C   0  0  0  0  0  3  0  0  0  0  0  0
  -16.7570  -28.5150   22.9100 C   0  0  0  0  0  3  0  0  0  0  0  0
  -25.8950  -32.4930   23.8040 C   0  0  0  0  0  3  0  0  0  0  0  0
  -26.4000  -31.7160   25.0820 C   0  0  1  0  0  0  0  0  0  0  0  0
  -25.2990  -31.4740   26.1390 C   0  0  0  0  0  1  0  0  0  0  0  0
  -26.9880  -30.3410   24.6870 C   0  0  0  0  0  1  0  0  0  0  0  0
  -27.5430  -32.5080   25.7590 C   0  0  0  0  0  1  0  0  0  0  0  0
  -25.5800  -33.8870   24.1420 N   0  0  0  0  0  0  0  0  0  0  0  0
  -25.9150  -34.9470   23.3940 C   0  0  0  0  0  0  0  0  0  0  0  0
  -26.5930  -34.8520   22.3670 O   0  0  0  0  0  0  0  0  0  0  0  0
  -24.9780  -34.0330   24.9390 H   0  0  0  0  0  0  0  0  0  0  0  0
  -24.1870  -36.7370   23.0370 C   0  0  0  0  0  1  0  0  0  0  0  0
  -25.4200  -36.3300   23.8580 C   0  0  0  0  0  3  0  0  0  0  0  0
  -27.5440  -37.2120   24.7180 C   0  0  0  0  0  1  0  0  0  0  0  0
  -26.4500  -37.3870   23.7650 N   0  0  0  0  0  0  0  0  0  0  0  0
  -26.0410  -38.3050   23.9190 H   0  0  0  0  0  0  0  0  0  0  0  0
  -29.9930  -21.5720   19.8090 C   0  0  0  0  0  2  0  0  0  0  0  0
  -29.6470  -19.4130   21.3150 C   0  0  0  0  0  3  0  0  0  0  0  0
  -29.6730  -17.9960   21.4780 C   0  0  0  0  0  3  0  0  0  0  0  0
  -30.1650  -19.1270   18.9840 C   0  0  0  0  0  3  0  0  0  0  0  0
  -29.8840  -20.0210   20.0540 C   0  0  0  0  0  0  0  0  0  0  0  0
  -29.9850  -17.1070   20.4110 C   0  0  0  0  0  0  0  0  0  0  0  0
  -30.2200  -17.7130   19.1470 C   0  0  0  0  0  0  0  0  0  0  0  0
  -30.4650  -16.9470   18.0580 F   0  0  0  0  0  0  0  0  0  0  0  0
  -30.6670  -14.6480   20.0820 C   0  0  0  0  0  0  0  0  0  0  0  0
  -30.4090  -12.4420   18.9720 C   0  0  0  0  0  2  0  0  0  0  0  0
  -29.4140  -12.6160   17.8020 C   0  0  0  0  0  2  0  0  0  0  0  0
  -27.9580  -12.4460   18.2860 C   0  0  0  0  0  2  0  0  0  0  0  0
  -27.6560  -13.2740   19.5650 C   0  0  0  0  0  3  0  0  0  0  0  0
  -28.7610  -13.0730   20.6300 C   0  0  0  0  0  2  0  0  0  0  0  0
  -30.0480  -13.4260   20.0110 N   0  0  0  0  0  0  0  0  0  0  0  0
  -31.7900  -14.8260   19.6040 O   0  0  0  0  0  0  0  0  0  0  0  0
  -29.9350  -15.6650   20.6290 N   0  0  0  0  0  0  0  0  0  0  0  0
  -29.1460  -15.3510   21.1690 H   0  0  0  0  0  0  0  0  0  0  0  0
  -25.2910  -13.8590   20.3860 C   0  0  0  0  0  0  0  0  0  0  0  0
  -24.2390  -13.0810   20.7890 C   0  0  0  0  0  0  0  0  0  0  0  0
  -24.7010  -11.7310   20.7230 C   0  0  0  0  0  0  0  0  0  0  0  0
  -26.3270  -12.9840   20.0990 N   0  0  0  0  0  0  0  0  0  0  0  0
  -25.9780  -11.6970   20.3590 N   0  0  0  0  0  0  0  0  0  0  0  0
  -23.9850  -10.4660   20.9280 C   0  0  0  0  0  0  0  0  0  0  0  0
  -24.4340   -9.5090   21.8650 C   0  0  0  0  0  3  0  0  0  0  0  0
  -23.7200   -8.3050   22.0600 C   0  0  0  0  0  3  0  0  0  0  0  0
  -22.5400   -8.0530   21.3190 C   0  0  0  0  0  0  0  0  0  0  0  0
  -22.1100   -9.0000   20.3730 C   0  0  0  0  0  3  0  0  0  0  0  0
  -22.8240  -10.1930   20.1770 C   0  0  0  0  0  3  0  0  0  0  0  0
  -21.7950   -6.9020   21.4200 O   0  0  0  0  0  0  0  0  0  0  0  0
  -21.7340   -6.1860   22.5890 C   0  0  0  0  0  0  0  0  0  0  0  0
  -21.2830   -6.7650   23.7950 C   0  0  0  0  0  3  0  0  0  0  0  0
  -21.1730   -5.9740   24.9570 C   0  0  0  0  0  3  0  0  0  0  0  0
  -21.5000   -4.6050   24.9120 C   0  0  0  0  0  0  0  0  0  0  0  0
  -21.9470   -4.0280   23.7100 C   0  0  0  0  0  3  0  0  0  0  0  0
  -22.0590   -4.8160   22.5520 C   0  0  0  0  0  0  0  0  0  0  0  0
  -22.4700   -4.2490   21.3910 F   0  0  0  0  0  0  0  0  0  0  0  0
  -21.3870   -3.8450   26.0250 F   0  0  0  0  0  0  0  0  0  0  0  0
  -22.8530  -13.5530   21.1210 C   0  0  0  0  0  0  0  0  0  0  0  0
  -22.1600  -12.8480   22.0100 N   0  0  0  0  0  0  0  0  0  0  0  0
  -22.3930  -14.5820   20.6280 O   0  0  0  0  0  0  0  0  0  0  0  0
  -22.5460  -12.0220   22.4430 H   0  0  0  0  0  0  0  0  0  0  0  0
  -21.2320  -13.1500   22.2690 H   0  0  0  0  0  0  0  0  0  0  0  0
  -25.4450  -15.2310   20.2180 N   0  0  0  0  0  0  0  0  0  0  0  0
  -24.6770  -15.8780   20.3560 H   0  0  0  0  0  0  0  0  0  0  0  0
  -26.2840  -15.6820   19.8750 H   0  0  0  0  0  0  0  0  0  0  0  0
  1  2  1  0
  2  3  1  1
  5  4  1  0
  5  2  1  0
  5  6  1  0
  7  6  1  0
  8 19  2  0
  9  7  1  0
  9 14  1  0
 10 18  1  0
 10 20  1  0
 11 17  1  0
 11 13  1  0
 12 18  1  0
 13 12  1  0
 14 13  2  0
 15 16  1  0
 15  9  2  0
 16 11  2  0
 17 10  1  0
 18  8  1  0
 20 22  2  0
 21 20  1  0
 23 21  1  0
 24 33  2  0
 24 29  1  0
 25 21  1  0
 25 29  1  0
 26 25  1  0
 27 28  1  0
 27 26  1  0
 28 24  1  0
 29 30  2  0
 30 31  1  0
 32 31  2  0
 33 32  1  0
 34  8  1  0
 34 39  1  0
 34 35  1  0
 35 38  1  1
 35 36  1  0
 37 35  1  0
 39 42  1  0
 40 44  1  0
 40 39  1  0
 41 40  2  0
 44 43  1  0
 46 44  1  0
 46 47  1  0
 46 45  1  0
 48 52  1  0
 48  2  1  0
 49 50  1  0
 51 54  2  0
 51 52  1  0
 52 49  2  0
 53 64  1  0
 53 50  2  0
 54 53  1  0
 55 54  1  0
 56 64  1  0
 57 62  1  0
 58 59  1  0
 58 57  1  0
 60 59  1  0
 60 69  1  0
 60 61  1  0
 62 56  1  0
 62 61  1  0
 63 56  2  0
 64 65  1  0
 66 67  2  0
 67 86  1  0
 68 67  1  0
 68 71  1  0
 69 70  1  0
 69 66  1  0
 70 68  2  0
 71 72  1  0
 72 73  2  0
 74 77  1  0
 74 73  1  0
 75 74  2  0
 76 75  1  0
 76 71  2  0
 77 78  1  0
 78 79  1  0
 79 80  2  0
 81 80  1  0
 81 85  1  0
 82 81  2  0
 83 78  2  0
 83 82  1  0
 84 83  1  0
 86 87  1  0
 87 90  1  0
 87 89  1  0
 88 86  2  0
 91 92  1  0
 91 66  1  0
 93 91  1  0
M  ISO  4   6 101   7 101  56 100  64 100
M  END
>  <TORSDO>  (21) 
F 20

>  <SCORE>  (21) 
-13.278

>  <name>  (21) 
20

>  <ligand_id>  (21) 
20

>  <original_smiles>  (21) 
[H]c1c([H])c([H])c2c(c1[H])C([H])([H])C([H])([H])C([H])([H])C2([H])N([H])C(=O)C1([H])N(C(=O)C([H])(N([H])C(=O)C([H])(N([H])C([H])([H])[H])C([H])([H])[H])C(C([H])([H])[H])(C([H])([H])[H])C([H])([H])[H])C([H])([H])c2c([H])c(OC([H])([H])C([H])(C([H])([H])[H])[N+]([H])(C([H])([H])[H])C([H])([H])c3c([H])c([H])c(N([H])C(=O)N4C([H])([H])C([H])([H])C([H])([H])C([H])(n5nc(-c6c([H])c([H])c(Oc7c([H])c([H])c(F)c([H])c7F)c([H])c6[H])c(C(=O)N([H])[H])c5N([H])[H])C4([H])[H])c(F)c3[H])c([H])c([H])c2C1([H])[H]

>  <smiles>  (21) 
[H]c1c([H])c([H])c2c(c1[H])C([H])([H])C([H])([H])C([H])([H])C2([H])N([H])C(=O)C1([H])N(C(=O)C([H])(N([H])C(=O)C([H])(N([H])C([H])([H])[H])C([H])([H])[H])C(C([H])([H])[H])(C([H])([H])[H])C([H])([H])[H])C([H])([H])c2c([H])c(OC([H])([H])C([H])(C([H])([H])[H])[N+]([H])(C([H])([H])[H])C([H])([H])c3c([H])c([H])c(N([H])C(=O)N4C([H])([H])C([H])([H])C([H])([H])C([H])(n5nc(-c6c([H])c([H])c(Oc7c([H])c([H])c(F)c([H])c7F)c([H])c6[H])c(C(=O)N([H])[H])c5N([H])[H])C4([H])[H])c(F)c3[H])c([H])c([H])c2C1([H])[H]

$$$$
21:0:0
     RDKit          3D

 95104  0  0  1  0  0  0  0  0999 V2000
  -29.9310  -23.1900   22.4110 C   0  0  0  0  0  2  0  0  0  0  0  0
  -28.6530  -23.9810   22.1130 C   0  0  0  0  0  2  0  0  0  0  0  0
  -30.3800  -22.6290   21.0610 C   0  0  0  0  0  2  0  0  0  0  0  0
  -28.3290  -23.8160   20.6060 C   0  0  2  0  0  0  0  0  0  0  0  0
  -26.7990  -23.6180   20.4480 C   0  0  0  0  0  1  0  0  0  0  0  0
  -29.1690  -22.5680   20.2070 N   0  0  2  0  0  4  0  0  0  0  0  0
  -29.4840  -22.7060   19.2520 H   0  0  0  0  0  0  0  0  0  0  0  0
  -28.5810  -21.1370   20.1940 C   0  0  0  0  0  2  0  0  0  0  0  0
  -30.9950  -17.6670   18.6800 C   0  0  0  0  0  3  0  0  0  0  0  0
  -31.0570  -18.9430   18.0840 C   0  0  0  0  0  3  0  0  0  0  0  0
  -29.3630  -18.5430   20.2340 C   0  0  0  0  0  3  0  0  0  0  0  0
  -29.4400  -19.8880   19.6700 C   0  0  0  0  0  0  0  0  0  0  0  0
  -30.1420  -17.3900   19.7760 C   0  0  0  0  0  0  0  0  0  0  0  0
  -30.2890  -20.0290   18.5430 C   0  0  0  0  0  0  0  0  0  0  0  0
  -30.4190  -21.5160   17.6670 Cl  0  0  0  0  0  0  0  0  0  0  0  0
  -30.7900  -14.8500   19.9670 C   0  0  0  0  0  0  0  0  0  0  0  0
  -30.5140  -12.6080   18.8600 C   0  0  0  0  0  2  0  0  0  0  0  0
  -29.4710  -12.6860   17.7190 C   0  0  0  0  0  2  0  0  0  0  0  0
  -28.0280  -12.5220   18.2360 C   0  0  0  0  0  2  0  0  0  0  0  0
  -27.7600  -13.3670   19.5120 C   0  0  0  0  0  3  0  0  0  0  0  0
  -28.8990  -13.1770   20.5300 C   0  0  0  0  0  2  0  0  0  0  0  0
  -30.1430  -13.6250   19.8770 N   0  0  0  0  0  0  0  0  0  0  0  0
  -31.9370  -14.9300   19.5100 O   0  0  0  0  0  0  0  0  0  0  0  0
  -29.5640  -15.9900   21.7560 C   0  0  0  0  0  1  0  0  0  0  0  0
  -30.1080  -16.0130   20.3900 N   0  0  0  0  0  0  0  0  0  0  0  0
  -25.4420  -13.9540   20.4390 C   0  0  0  0  0  0  0  0  0  0  0  0
  -24.3990  -13.1790   20.8650 C   0  0  0  0  0  0  0  0  0  0  0  0
  -24.8450  -11.8240   20.7600 C   0  0  0  0  0  0  0  0  0  0  0  0
  -26.4550  -13.0740   20.0950 N   0  0  0  0  0  0  0  0  0  0  0  0
  -26.1060  -11.7850   20.3500 N   0  0  0  0  0  0  0  0  0  0  0  0
  -24.1240  -10.5650   20.9640 C   0  0  0  0  0  0  0  0  0  0  0  0
  -24.5760   -9.5950   21.8860 C   0  0  0  0  0  3  0  0  0  0  0  0
  -23.8550   -8.3970   22.0770 C   0  0  0  0  0  3  0  0  0  0  0  0
  -22.6680   -8.1610   21.3440 C   0  0  0  0  0  0  0  0  0  0  0  0
  -22.2320   -9.1170   20.4100 C   0  0  0  0  0  3  0  0  0  0  0  0
  -22.9530  -10.3070   20.2180 C   0  0  0  0  0  3  0  0  0  0  0  0
  -21.9110   -7.0160   21.4460 O   0  0  0  0  0  0  0  0  0  0  0  0
  -21.8330   -6.3110   22.6170 C   0  0  0  0  0  0  0  0  0  0  0  0
  -21.3700   -6.9000   23.8140 C   0  0  0  0  0  3  0  0  0  0  0  0
  -21.2390   -6.1160   24.9800 C   0  0  0  0  0  3  0  0  0  0  0  0
  -21.5600   -4.7460   24.9460 C   0  0  0  0  0  0  0  0  0  0  0  0
  -22.0170   -4.1570   23.7510 C   0  0  0  0  0  3  0  0  0  0  0  0
  -22.1490   -4.9360   22.5920 C   0  0  0  0  0  0  0  0  0  0  0  0
  -22.5680   -4.3620   21.4380 F   0  0  0  0  0  0  0  0  0  0  0  0
  -21.4290   -3.9900   26.0610 F   0  0  0  0  0  0  0  0  0  0  0  0
  -23.0310  -13.6590   21.2560 C   0  0  0  0  0  0  0  0  0  0  0  0
  -22.3710  -12.9540   22.1660 N   0  0  0  0  0  0  0  0  0  0  0  0
  -22.5580  -14.6950   20.7910 O   0  0  0  0  0  0  0  0  0  0  0  0
  -22.7650  -12.1190   22.5720 H   0  0  0  0  0  0  0  0  0  0  0  0
  -21.4550  -13.2610   22.4630 H   0  0  0  0  0  0  0  0  0  0  0  0
  -25.6150  -15.3300   20.2970 N   0  0  0  0  0  0  0  0  0  0  0  0
  -24.8760  -16.0020   20.4800 H   0  0  0  0  0  0  0  0  0  0  0  0
  -26.4540  -15.7660   19.9360 H   0  0  0  0  0  0  0  0  0  0  0  0
  -28.7030  -25.1750   19.7870 C   0  0  0  0  0  2  0  0  0  0  0  0
  -28.5060  -26.5650   20.3000 O   0  0  0  0  0  0  0  0  0  0  0  0
  -24.6570  -31.8620   23.2230 C   0  0  0  0  0  0  0  0  0  0  0  0
  -27.3450  -27.3520   20.1750 C   0  0  0  0  0  0  0  0  0  0  0  0
  -23.4780  -30.4620   21.5550 C   0  0  0  0  0  3  0  0  0  0  0  0
  -24.9590  -28.9460   20.1080 C   0  0  0  0  0  0  0  0  0  0  0  0
  -26.0060  -30.8230   21.3810 C   0  0  0  0  0  2  0  0  0  0  0  0
  -26.1050  -29.4450   20.7350 C   0  0  0  0  0  0  0  0  0  0  0  0
  -27.2930  -28.6590   20.7570 C   0  0  0  0  0  3  0  0  0  0  0  0
  -26.1830  -26.9090   19.5070 C   0  0  0  0  0  3  0  0  0  0  0  0
  -25.0040  -27.6880   19.4750 C   0  0  0  0  0  3  0  0  0  0  0  0
  -23.7070  -29.8060   20.1640 C   0  0  0  0  0  2  0  0  0  0  0  0
  -24.7320  -31.0640   22.1140 N   0  0  0  0  0  0  0  0  0  0  0  0
  -23.5670  -32.1180   23.7550 O   0  0  0  0  0  0  0  0  0  0  0  0
  -22.8270  -29.4290   22.5050 C   0  0  0  0  0  0  0  0  0  0  0  0
  -21.5010  -29.2460   22.3840 N   0  0  0  0  0  0  0  0  0  0  0  0
  -23.5160  -28.7930   23.3070 O   0  0  0  0  0  0  0  0  0  0  0  0
  -21.0040  -29.8070   21.7060 H   0  0  0  0  0  0  0  0  0  0  0  0
  -18.1340  -28.0390   22.9120 C   0  0  0  0  0  0  0  0  0  0  0  0
  -20.6960  -28.2910   23.1470 C   0  0  0  0  0  3  0  0  0  0  0  0
  -20.7880  -26.8710   22.5380 C   0  0  0  0  0  2  0  0  0  0  0  0
  -19.6710  -26.5730   21.5340 C   0  0  0  0  0  2  0  0  0  0  0  0
  -18.2970  -26.7090   22.1960 C   0  0  0  0  0  2  0  0  0  0  0  0
  -19.2590  -28.7880   23.3440 C   0  0  0  0  0  0  0  0  0  0  0  0
  -19.0520  -30.0360   23.9730 C   0  0  0  0  0  3  0  0  0  0  0  0
  -17.7510  -30.5370   24.1680 C   0  0  0  0  0  3  0  0  0  0  0  0
  -16.6400  -29.7850   23.7480 C   0  0  0  0  0  3  0  0  0  0  0  0
  -16.8310  -28.5370   23.1280 C   0  0  0  0  0  3  0  0  0  0  0  0
  -25.9270  -32.5010   23.8610 C   0  0  0  0  0  3  0  0  0  0  0  0
  -26.4300  -31.7440   25.1540 C   0  0  1  0  0  0  0  0  0  0  0  0
  -25.3270  -31.5110   26.2100 C   0  0  0  0  0  1  0  0  0  0  0  0
  -27.0290  -30.3710   24.7740 C   0  0  0  0  0  1  0  0  0  0  0  0
  -27.5650  -32.5500   25.8320 C   0  0  0  0  0  1  0  0  0  0  0  0
  -25.6160  -33.9000   24.1820 N   0  0  0  0  0  0  0  0  0  0  0  0
  -25.9440  -34.9480   23.4180 C   0  0  0  0  0  0  0  0  0  0  0  0
  -26.6200  -34.8440   22.3910 O   0  0  0  0  0  0  0  0  0  0  0  0
  -25.0430  -34.0600   24.9980 H   0  0  0  0  0  0  0  0  0  0  0  0
  -24.2160  -36.7300   23.0300 C   0  0  0  0  0  1  0  0  0  0  0  0
  -25.4410  -36.3320   23.8660 C   0  0  0  0  0  3  0  0  0  0  0  0
  -27.5530  -37.2240   24.7410 C   0  0  0  0  0  1  0  0  0  0  0  0
  -26.4710  -37.3880   23.7740 N   0  0  0  0  0  0  0  0  0  0  0  0
  -26.0590  -38.3060   23.9170 H   0  0  0  0  0  0  0  0  0  0  0  0
  2  1  1  0
  3  1  1  0
  4  5  1  1
  4  2  1  0
  6  4  1  0
  6  3  1  0
  6  7  1  6
  8  6  1  0
  9 13  1  0
 10 14  1  0
 10  9  2  0
 12  8  1  0
 12 11  1  0
 13 11  2  0
 13 25  1  0
 14 12  2  0
 15 14  1  0
 16 25  1  0
 17 22  1  0
 18 19  1  0
 18 17  1  0
 20 19  1  0
 20 29  1  0
 20 21  1  0
 22 16  1  0
 22 21  1  0
 23 16  2  0
 25 24  1  0
 26 27  2  0
 27 46  1  0
 28 27  1  0
 28 31  1  0
 29 30  1  0
 29 26  1  0
 30 28  2  0
 31 32  1  0
 32 33  2  0
 34 37  1  0
 34 33  1  0
 35 34  2  0
 36 35  1  0
 36 31  2  0
 37 38  1  0
 38 39  1  0
 39 40  2  0
 41 40  1  0
 41 45  1  0
 42 41  2  0
 43 38  2  0
 43 42  1  0
 44 43  1  0
 46 47  1  0
 47 50  1  0
 47 49  1  0
 48 46  2  0
 51 26  1  0
 51 52  1  0
 53 51  1  0
 54 55  1  0
 54  4  1  0
 56 67  2  0
 57 55  1  0
 57 62  1  0
 58 66  1  0
 58 68  1  0
 59 65  1  0
 59 61  1  0
 60 66  1  0
 61 62  2  0
 61 60  1  0
 63 57  2  0
 64 63  1  0
 64 59  2  0
 65 58  1  0
 66 56  1  0
 68 70  2  0
 69 68  1  0
 71 69  1  0
 72 81  2  0
 72 77  1  0
 73 69  1  0
 73 77  1  0
 74 73  1  0
 75 76  1  0
 75 74  1  0
 76 72  1  0
 77 78  2  0
 78 79  1  0
 80 79  2  0
 81 80  1  0
 82 56  1  0
 82 87  1  0
 82 83  1  0
 83 86  1  1
 83 84  1  0
 85 83  1  0
 87 90  1  0
 88 92  1  0
 88 87  1  0
 89 88  2  0
 92 91  1  0
 94 92  1  0
 94 95  1  0
 94 93  1  0
M  ISO  4  16 100  25 100  54 101  55 101
M  END
>  <TORSDO>  (22) 
F 19

>  <SCORE>  (22) 
-13.943

>  <name>  (22) 
21

>  <ligand_id>  (22) 
21

>  <original_smiles>  (22) 
[H]c1c([H])c([H])c2c(c1[H])C([H])([H])C([H])([H])C([H])([H])C2([H])N([H])C(=O)C1([H])N(C(=O)C([H])(N([H])C(=O)C([H])(N([H])C([H])([H])[H])C([H])([H])[H])C(C([H])([H])[H])(C([H])([H])[H])C([H])([H])[H])C([H])([H])c2c([H])c(OC([H])([H])C3(C([H])([H])[H])C([H])([H])C([H])([H])C([H])([H])[N+]3([H])C([H])([H])c3c([H])c(N(C(=O)N4C([H])([H])C([H])([H])C([H])([H])C([H])(n5nc(-c6c([H])c([H])c(Oc7c([H])c([H])c(F)c([H])c7F)c([H])c6[H])c(C(=O)N([H])[H])c5N([H])[H])C4([H])[H])C([H])([H])[H])c([H])c([H])c3Cl)c([H])c([H])c2C1([H])[H]

>  <smiles>  (22) 
[H]c1c([H])c([H])c2c(c1[H])C([H])([H])C([H])([H])C([H])([H])C2([H])N([H])C(=O)C1([H])N(C(=O)C([H])(N([H])C(=O)C([H])(N([H])C([H])([H])[H])C([H])([H])[H])C(C([H])([H])[H])(C([H])([H])[H])C([H])([H])[H])C([H])([H])c2c([H])c(OC([H])([H])C3(C([H])([H])[H])C([H])([H])C([H])([H])C([H])([H])[N+]3([H])C([H])([H])c3c([H])c(N(C(=O)N4C([H])([H])C([H])([H])C([H])([H])C([H])(n5nc(-c6c([H])c([H])c(Oc7c([H])c([H])c(F)c([H])c7F)c([H])c6[H])c(C(=O)N([H])[H])c5N([H])[H])C4([H])[H])C([H])([H])[H])c([H])c([H])c3Cl)c([H])c([H])c2C1([H])[H]

$$$$
22:0:0
     RDKit          3D

 90 99  0  0  1  0  0  0  0  0999 V2000
  -29.1270  -24.4210   21.7300 C   0  0  0  0  0  2  0  0  0  0  0  0
  -29.2060  -22.8660   21.8870 C   0  0  0  0  0  2  0  0  0  0  0  0
  -28.4420  -23.3910   19.7210 C   0  0  0  0  0  2  0  0  0  0  0  0
  -28.1410  -24.7640   20.5960 C   0  0  0  0  0  3  0  0  0  0  0  0
  -28.9880  -22.2370   20.5810 N   0  0  0  0  0  0  0  0  0  0  0  0
  -30.1550  -19.9910   21.1770 C   0  0  0  0  0  3  0  0  0  0  0  0
  -28.4820  -19.8780   19.5370 C   0  0  0  0  0  3  0  0  0  0  0  0
  -30.3590  -18.5470   21.1040 C   0  0  0  0  0  3  0  0  0  0  0  0
  -28.6590  -18.4290   19.4880 C   0  0  0  0  0  3  0  0  0  0  0  0
  -29.2000  -20.7620   20.4120 C   0  0  0  0  0  0  0  0  0  0  0  0
  -29.6080  -17.6650   20.2610 C   0  0  0  0  0  0  0  0  0  0  0  0
  -30.4700  -15.0200   20.1680 C   0  0  0  0  0  0  0  0  0  0  0  0
  -30.3850  -12.6760   19.1950 C   0  0  0  0  0  2  0  0  0  0  0  0
  -29.4100  -12.6390   17.9940 C   0  0  0  0  0  2  0  0  0  0  0  0
  -27.9600  -12.4140   18.4650 C   0  0  0  0  0  2  0  0  0  0  0  0
  -27.5810  -13.3190   19.6670 C   0  0  0  0  0  3  0  0  0  0  0  0
  -28.6700  -13.3050   20.7620 C   0  0  0  0  0  2  0  0  0  0  0  0
  -29.9200  -13.7410   20.1260 N   0  0  0  0  0  0  0  0  0  0  0  0
  -31.6660  -15.1410   19.8770 O   0  0  0  0  0  0  0  0  0  0  0  0
  -29.5890  -16.1270   20.3100 N   0  0  0  0  0  0  0  0  0  0  0  0
  -28.6480  -15.7720   20.3860 H   0  0  0  0  0  0  0  0  0  0  0  0
  -25.2170  -13.8810   20.4730 C   0  0  0  0  0  0  0  0  0  0  0  0
  -24.1680  -13.0970   20.8660 C   0  0  0  0  0  0  0  0  0  0  0  0
  -24.6390  -11.7490   20.8100 C   0  0  0  0  0  0  0  0  0  0  0  0
  -26.2580  -13.0100   20.1960 N   0  0  0  0  0  0  0  0  0  0  0  0
  -25.9210  -11.7220   20.4650 N   0  0  0  0  0  0  0  0  0  0  0  0
  -23.9240  -10.4820   21.0040 C   0  0  0  0  0  0  0  0  0  0  0  0
  -24.3720   -9.5140   21.9310 C   0  0  0  0  0  3  0  0  0  0  0  0
  -23.6560   -8.3120   22.1140 C   0  0  0  0  0  3  0  0  0  0  0  0
  -22.4760   -8.0680   21.3700 C   0  0  0  0  0  0  0  0  0  0  0  0
  -22.0470   -9.0230   20.4320 C   0  0  0  0  0  3  0  0  0  0  0  0
  -22.7640  -10.2170   20.2470 C   0  0  0  0  0  3  0  0  0  0  0  0
  -21.7300   -6.9180   21.4630 O   0  0  0  0  0  0  0  0  0  0  0  0
  -21.6810   -6.1840   22.6210 C   0  0  0  0  0  0  0  0  0  0  0  0
  -21.2370   -6.7430   23.8400 C   0  0  0  0  0  3  0  0  0  0  0  0
  -21.1380   -5.9330   24.9880 C   0  0  0  0  0  3  0  0  0  0  0  0
  -21.4710   -4.5670   24.9200 C   0  0  0  0  0  0  0  0  0  0  0  0
  -21.9090   -4.0090   23.7060 C   0  0  0  0  0  3  0  0  0  0  0  0
  -22.0100   -4.8150   22.5590 C   0  0  0  0  0  0  0  0  0  0  0  0
  -22.4120   -4.2670   21.3870 F   0  0  0  0  0  0  0  0  0  0  0  0
  -21.3680   -3.7880   26.0220 F   0  0  0  0  0  0  0  0  0  0  0  0
  -22.7750  -13.5640   21.1770 C   0  0  0  0  0  0  0  0  0  0  0  0
  -22.0720  -12.8550   22.0520 N   0  0  0  0  0  0  0  0  0  0  0  0
  -22.3210  -14.5930   20.6780 O   0  0  0  0  0  0  0  0  0  0  0  0
  -22.4530  -12.0220   22.4760 H   0  0  0  0  0  0  0  0  0  0  0  0
  -21.1380  -13.1510   22.3020 H   0  0  0  0  0  0  0  0  0  0  0  0
  -25.3620  -15.2540   20.2990 N   0  0  0  0  0  0  0  0  0  0  0  0
  -24.5780  -15.8870   20.4140 H   0  0  0  0  0  0  0  0  0  0  0  0
  -26.1610  -15.6970   19.8650 H   0  0  0  0  0  0  0  0  0  0  0  0
  -28.2900  -26.2670   20.2130 O   0  0  0  0  0  0  0  0  0  0  0  0
  -24.6360  -31.9120   23.2610 C   0  0  0  0  0  0  0  0  0  0  0  0
  -27.2050  -27.2100   20.2250 C   0  0  0  0  0  0  0  0  0  0  0  0
  -23.4290  -30.5170   21.6260 C   0  0  0  0  0  3  0  0  0  0  0  0
  -24.8690  -28.9350   20.2010 C   0  0  0  0  0  0  0  0  0  0  0  0
  -25.9790  -30.7890   21.4440 C   0  0  0  0  0  2  0  0  0  0  0  0
  -26.0520  -29.3950   20.7960 C   0  0  0  0  0  0  0  0  0  0  0  0
  -27.2230  -28.5500   20.7830 C   0  0  0  0  0  3  0  0  0  0  0  0
  -25.9950  -26.8400   19.6050 C   0  0  0  0  0  3  0  0  0  0  0  0
  -24.8530  -27.6710   19.5900 C   0  0  0  0  0  3  0  0  0  0  0  0
  -23.6420  -29.8330   20.2480 C   0  0  0  0  0  2  0  0  0  0  0  0
  -24.7020  -31.0940   22.1650 N   0  0  0  0  0  0  0  0  0  0  0  0
  -23.5530  -32.1960   23.7940 O   0  0  0  0  0  0  0  0  0  0  0  0
  -22.7540  -29.5120   22.5910 C   0  0  0  0  0  0  0  0  0  0  0  0
  -21.4260  -29.3370   22.4660 N   0  0  0  0  0  0  0  0  0  0  0  0
  -23.4270  -28.8890   23.4170 O   0  0  0  0  0  0  0  0  0  0  0  0
  -20.9370  -29.8900   21.7760 H   0  0  0  0  0  0  0  0  0  0  0  0
  -18.0500  -28.1200   22.9650 C   0  0  0  0  0  0  0  0  0  0  0  0
  -20.6080  -28.3990   23.2390 C   0  0  0  0  0  3  0  0  0  0  0  0
  -20.7190  -26.9640   22.6740 C   0  0  0  0  0  2  0  0  0  0  0  0
  -19.6220  -26.6300   21.6580 C   0  0  0  0  0  2  0  0  0  0  0  0
  -18.2380  -26.7690   22.2960 C   0  0  0  0  0  2  0  0  0  0  0  0
  -19.1630  -28.8920   23.3940 C   0  0  0  0  0  0  0  0  0  0  0  0
  -18.9340  -30.1560   23.9810 C   0  0  0  0  0  3  0  0  0  0  0  0
  -17.6240  -30.6480   24.1420 C   0  0  0  0  0  3  0  0  0  0  0  0
  -16.5260  -29.8740   23.7280 C   0  0  0  0  0  3  0  0  0  0  0  0
  -16.7400  -28.6120   23.1460 C   0  0  0  0  0  3  0  0  0  0  0  0
  -25.9170  -32.5480   23.8830 C   0  0  0  0  0  3  0  0  0  0  0  0
  -25.6090  -33.9480   24.2140 N   0  0  0  0  0  0  0  0  0  0  0  0
  -25.9370  -35.0030   23.4560 C   0  0  0  0  0  0  0  0  0  0  0  0
  -26.5960  -34.8990   22.4190 O   0  0  0  0  0  0  0  0  0  0  0  0
  -25.0230  -34.1010   25.0220 H   0  0  0  0  0  0  0  0  0  0  0  0
  -24.2060  -36.8000   23.1270 C   0  0  0  0  0  1  0  0  0  0  0  0
  -25.4580  -36.3920   23.9210 C   0  0  0  0  0  3  0  0  0  0  0  0
  -27.6040  -37.2780   24.7220 C   0  0  0  0  0  1  0  0  0  0  0  0
  -26.4900  -37.4450   23.7930 N   0  0  0  0  0  0  0  0  0  0  0  0
  -26.0870  -38.3650   23.9450 H   0  0  0  0  0  0  0  0  0  0  0  0
  -26.4280  -31.7800   25.1650 C   0  0  1  0  0  0  0  0  0  0  0  0
  -25.3330  -31.5590   26.2360 C   0  0  0  0  0  1  0  0  0  0  0  0
  -26.9980  -30.3950   24.7840 C   0  0  0  0  0  1  0  0  0  0  0  0
  -27.5850  -32.5690   25.8220 C   0  0  0  0  0  1  0  0  0  0  0  0
  1  2  1  0
  3  5  1  0
  3  4  1  0
  4 50  1  0
  4  1  1  0
  5  2  1  0
  7 10  1  0
  8  6  1  0
  9  7  2  0
  9 11  1  0
 10  5  1  0
 10  6  2  0
 11 20  1  0
 11  8  2  0
 12 20  1  0
 13 18  1  0
 14 15  1  0
 14 13  1  0
 16 15  1  0
 16 25  1  0
 16 17  1  0
 18 12  1  0
 18 17  1  0
 19 12  2  0
 20 21  1  0
 22 23  2  0
 23 42  1  0
 24 23  1  0
 24 27  1  0
 25 26  1  0
 25 22  1  0
 26 24  2  0
 27 28  1  0
 28 29  2  0
 30 33  1  0
 30 29  1  0
 31 30  2  0
 32 31  1  0
 32 27  2  0
 33 34  1  0
 34 35  1  0
 35 36  2  0
 37 36  1  0
 37 41  1  0
 38 37  2  0
 39 34  2  0
 39 38  1  0
 40 39  1  0
 42 43  1  0
 43 46  1  0
 43 45  1  0
 44 42  2  0
 47 48  1  0
 47 22  1  0
 49 47  1  0
 50 52  1  0
 51 62  2  0
 52 57  1  0
 53 61  1  0
 53 63  1  0
 54 60  1  0
 54 56  1  0
 55 61  1  0
 56 55  1  0
 57 56  2  0
 58 52  2  0
 59 58  1  0
 59 54  2  0
 60 53  1  0
 61 51  1  0
 63 65  2  0
 64 63  1  0
 66 64  1  0
 67 76  2  0
 67 72  1  0
 68 64  1  0
 68 72  1  0
 69 68  1  0
 70 71  1  0
 70 69  1  0
 71 67  1  0
 72 73  2  0
 73 74  1  0
 75 74  2  0
 76 75  1  0
 77 51  1  0
 77 78  1  0
 77 87  1  0
 78 81  1  0
 79 83  1  0
 79 78  1  0
 80 79  2  0
 83 82  1  0
 85 83  1  0
 85 86  1  0
 85 84  1  0
 87 90  1  1
 87 88  1  0
 89 87  1  0
M  ISO  4   4 101  12 100  20 100  50 101
M  END
>  <TORSDO>  (23) 
F 17

>  <SCORE>  (23) 
-15.242

>  <name>  (23) 
22

>  <ligand_id>  (23) 
22

>  <original_smiles>  (23) 
[H]c1c([H])c([H])c2c(c1[H])C([H])([H])C([H])([H])C([H])([H])C2([H])N([H])C(=O)C1([H])N(C(=O)C([H])(N([H])C(=O)C([H])(N([H])C([H])([H])[H])C([H])([H])[H])C(C([H])([H])[H])(C([H])([H])[H])C([H])([H])[H])C([H])([H])c2c([H])c(OC3([H])C([H])([H])N(c4c([H])c([H])c(N([H])C(=O)N5C([H])([H])C([H])([H])C([H])([H])C([H])(n6nc(-c7c([H])c([H])c(Oc8c([H])c([H])c(F)c([H])c8F)c([H])c7[H])c(C(=O)N([H])[H])c6N([H])[H])C5([H])[H])c([H])c4[H])C([H])([H])C3([H])[H])c([H])c([H])c2C1([H])[H]

>  <smiles>  (23) 
[H]c1c([H])c([H])c2c(c1[H])C([H])([H])C([H])([H])C([H])([H])C2([H])N([H])C(=O)C1([H])N(C(=O)C([H])(N([H])C(=O)C([H])(N([H])C([H])([H])[H])C([H])([H])[H])C(C([H])([H])[H])(C([H])([H])[H])C([H])([H])[H])C([H])([H])c2c([H])c(OC3([H])C([H])([H])N(c4c([H])c([H])c(N([H])C(=O)N5C([H])([H])C([H])([H])C([H])([H])C([H])(n6nc(-c7c([H])c([H])c(Oc8c([H])c([H])c(F)c([H])c8F)c([H])c7[H])c(C(=O)N([H])[H])c6N([H])[H])C5([H])[H])c([H])c4[H])C([H])([H])C3([H])[H])c([H])c([H])c2C1([H])[H]

$$$$
23:0:0
     RDKit          3D

 90 98  0  0  1  0  0  0  0  0999 V2000
  -30.2750  -20.0150   20.2240 C   0  0  0  0  0  3  0  0  0  0  0  0
  -30.5710  -18.5780   20.2840 C   0  0  0  0  0  3  0  0  0  0  0  0
  -27.9700  -19.5290   20.2620 C   0  0  0  0  0  3  0  0  0  0  0  0
  -28.9440  -20.5740   20.2040 C   0  0  0  0  0  0  0  0  0  0  0  0
  -29.5610  -17.5490   20.3430 C   0  0  0  0  0  0  0  0  0  0  0  0
  -28.2540  -18.1190   20.3340 C   0  0  0  0  0  0  0  0  0  0  0  0
  -27.2090  -17.2630   20.3940 F   0  0  0  0  0  0  0  0  0  0  0  0
  -30.4920  -14.9410   20.1740 C   0  0  0  0  0  0  0  0  0  0  0  0
  -30.3640  -12.6120   19.1930 C   0  0  0  0  0  2  0  0  0  0  0  0
  -29.3880  -12.6180   17.9920 C   0  0  0  0  0  2  0  0  0  0  0  0
  -27.9320  -12.4180   18.4580 C   0  0  0  0  0  2  0  0  0  0  0  0
  -27.5700  -13.3150   19.6720 C   0  0  0  0  0  3  0  0  0  0  0  0
  -28.6590  -13.2600   20.7660 C   0  0  0  0  0  2  0  0  0  0  0  0
  -29.9270  -13.6720   20.1410 N   0  0  0  0  0  0  0  0  0  0  0  0
  -31.6690  -15.0730   19.8200 O   0  0  0  0  0  0  0  0  0  0  0  0
  -29.6370  -16.0270   20.4440 N   0  0  0  0  0  0  0  0  0  0  0  0
  -28.7310  -15.6640   20.7020 H   0  0  0  0  0  0  0  0  0  0  0  0
  -25.2030  -13.8930   20.4700 C   0  0  0  0  0  0  0  0  0  0  0  0
  -24.1460  -13.1190   20.8560 C   0  0  0  0  0  0  0  0  0  0  0  0
  -24.6050  -11.7680   20.7950 C   0  0  0  0  0  0  0  0  0  0  0  0
  -26.2410  -13.0170   20.1970 N   0  0  0  0  0  0  0  0  0  0  0  0
  -25.8880  -11.7310   20.4550 N   0  0  0  0  0  0  0  0  0  0  0  0
  -23.8760  -10.5080   20.9870 C   0  0  0  0  0  0  0  0  0  0  0  0
  -24.3120   -9.5360   21.9130 C   0  0  0  0  0  3  0  0  0  0  0  0
  -23.5810   -8.3410   22.0940 C   0  0  0  0  0  3  0  0  0  0  0  0
  -22.4020   -8.1100   21.3460 C   0  0  0  0  0  0  0  0  0  0  0  0
  -21.9860   -9.0720   20.4080 C   0  0  0  0  0  3  0  0  0  0  0  0
  -22.7160  -10.2580   20.2270 C   0  0  0  0  0  3  0  0  0  0  0  0
  -21.6440   -6.9690   21.4340 O   0  0  0  0  0  0  0  0  0  0  0  0
  -21.5770   -6.2370   22.5940 C   0  0  0  0  0  0  0  0  0  0  0  0
  -21.1160   -6.8010   23.8040 C   0  0  0  0  0  3  0  0  0  0  0  0
  -20.9980   -5.9960   24.9550 C   0  0  0  0  0  3  0  0  0  0  0  0
  -21.3280   -4.6290   24.8960 C   0  0  0  0  0  0  0  0  0  0  0  0
  -21.7820   -4.0650   23.6910 C   0  0  0  0  0  3  0  0  0  0  0  0
  -21.9030   -4.8670   22.5420 C   0  0  0  0  0  0  0  0  0  0  0  0
  -22.3200   -4.3150   21.3770 F   0  0  0  0  0  0  0  0  0  0  0  0
  -21.2070   -3.8540   25.9990 F   0  0  0  0  0  0  0  0  0  0  0  0
  -22.7590  -13.6000   21.1710 C   0  0  0  0  0  0  0  0  0  0  0  0
  -22.0500  -12.8970   22.0470 N   0  0  0  0  0  0  0  0  0  0  0  0
  -22.3140  -14.6360   20.6780 O   0  0  0  0  0  0  0  0  0  0  0  0
  -22.4230  -12.0590   22.4690 H   0  0  0  0  0  0  0  0  0  0  0  0
  -21.1220  -13.2020   22.3020 H   0  0  0  0  0  0  0  0  0  0  0  0
  -25.3530  -15.2660   20.3130 N   0  0  0  0  0  0  0  0  0  0  0  0
  -24.5870  -15.9030   20.4960 H   0  0  0  0  0  0  0  0  0  0  0  0
  -26.2140  -15.7570   20.1010 H   0  0  0  0  0  0  0  0  0  0  0  0
  -28.4640  -21.9780   20.1040 N   0  0  0  0  0  0  0  0  0  0  0  0
  -27.4500  -22.0160   20.0170 H   0  0  0  0  0  0  0  0  0  0  0  0
  -29.0270  -23.4180   20.2280 C   0  0  0  0  0  3  0  0  0  0  0  0
  -28.0040  -24.7310   19.9850 C   0  0  0  0  0  3  0  0  0  0  0  0
  -28.2780  -26.2440   20.1780 O   0  0  0  0  0  0  0  0  0  0  0  0
  -24.6370  -31.8590   23.2350 C   0  0  0  0  0  0  0  0  0  0  0  0
  -27.2080  -27.2060   20.1310 C   0  0  0  0  0  0  0  0  0  0  0  0
  -23.4270  -30.4820   21.5860 C   0  0  0  0  0  3  0  0  0  0  0  0
  -24.8690  -28.9290   20.1360 C   0  0  0  0  0  0  0  0  0  0  0  0
  -25.9790  -30.7590   21.4070 C   0  0  0  0  0  2  0  0  0  0  0  0
  -26.0510  -29.3770   20.7400 C   0  0  0  0  0  0  0  0  0  0  0  0
  -27.2220  -28.5310   20.7200 C   0  0  0  0  0  3  0  0  0  0  0  0
  -25.9950  -26.8540   19.4940 C   0  0  0  0  0  3  0  0  0  0  0  0
  -24.8530  -27.6810   19.4990 C   0  0  0  0  0  3  0  0  0  0  0  0
  -23.6400  -29.8220   20.1980 C   0  0  0  0  0  2  0  0  0  0  0  0
  -24.7020  -31.0540   22.1310 N   0  0  0  0  0  0  0  0  0  0  0  0
  -23.5540  -32.1370   23.7720 O   0  0  0  0  0  0  0  0  0  0  0  0
  -22.7560  -29.4630   22.5400 C   0  0  0  0  0  0  0  0  0  0  0  0
  -21.4270  -29.2920   22.4160 N   0  0  0  0  0  0  0  0  0  0  0  0
  -23.4320  -28.8280   23.3540 O   0  0  0  0  0  0  0  0  0  0  0  0
  -20.9390  -29.8560   21.7350 H   0  0  0  0  0  0  0  0  0  0  0  0
  -18.0480  -28.0910   22.9240 C   0  0  0  0  0  0  0  0  0  0  0  0
  -20.6080  -28.3480   23.1810 C   0  0  0  0  0  3  0  0  0  0  0  0
  -20.7060  -26.9210   22.5900 C   0  0  0  0  0  2  0  0  0  0  0  0
  -19.5980  -26.6110   21.5780 C   0  0  0  0  0  2  0  0  0  0  0  0
  -18.2190  -26.7490   22.2320 C   0  0  0  0  0  2  0  0  0  0  0  0
  -19.1690  -28.8480   23.3560 C   0  0  0  0  0  0  0  0  0  0  0  0
  -18.9540  -30.1030   23.9660 C   0  0  0  0  0  3  0  0  0  0  0  0
  -17.6490  -30.6010   24.1460 C   0  0  0  0  0  3  0  0  0  0  0  0
  -16.5430  -29.8410   23.7290 C   0  0  0  0  0  3  0  0  0  0  0  0
  -16.7430  -28.5880   23.1250 C   0  0  0  0  0  3  0  0  0  0  0  0
  -25.9190  -32.4870   23.8610 C   0  0  0  0  0  3  0  0  0  0  0  0
  -26.4350  -31.7040   25.1320 C   0  0  1  0  0  0  0  0  0  0  0  0
  -25.3420  -31.4590   26.1980 C   0  0  0  0  0  1  0  0  0  0  0  0
  -27.0160  -30.3280   24.7310 C   0  0  0  0  0  1  0  0  0  0  0  0
  -27.5870  -32.4910   25.7990 C   0  0  0  0  0  1  0  0  0  0  0  0
  -25.6090  -33.8820   24.2110 N   0  0  0  0  0  0  0  0  0  0  0  0
  -25.9100  -34.9440   23.4520 C   0  0  0  0  0  0  0  0  0  0  0  0
  -26.5440  -34.8530   22.3970 O   0  0  0  0  0  0  0  0  0  0  0  0
  -25.0410  -34.0260   25.0330 H   0  0  0  0  0  0  0  0  0  0  0  0
  -24.1480  -36.7230   23.1920 C   0  0  0  0  0  1  0  0  0  0  0  0
  -25.4330  -36.3280   23.9380 C   0  0  0  0  0  3  0  0  0  0  0  0
  -27.5950  -37.2370   24.6680 C   0  0  0  0  0  1  0  0  0  0  0  0
  -26.4480  -37.3920   23.7760 N   0  0  0  0  0  0  0  0  0  0  0  0
  -26.0400  -38.3080   23.9400 H   0  0  0  0  0  0  0  0  0  0  0  0
  1  2  1  0
  2  5  2  0
  3  6  2  0
  4  1  2  0
  4  3  1  0
  5 16  1  0
  6  5  1  0
  6  7  1  0
  8 16  1  0
  9 14  1  0
 10 11  1  0
 10  9  1  0
 12 11  1  0
 12 21  1  0
 12 13  1  0
 14  8  1  0
 14 13  1  0
 15  8  2  0
 16 17  1  0
 18 19  2  0
 19 38  1  0
 20 19  1  0
 20 23  1  0
 21 22  1  0
 21 18  1  0
 22 20  2  0
 23 24  1  0
 24 25  2  0
 26 29  1  0
 26 25  1  0
 27 26  2  0
 28 27  1  0
 28 23  2  0
 29 30  1  0
 30 31  1  0
 31 32  2  0
 33 32  1  0
 33 37  1  0
 34 33  2  0
 35 30  2  0
 35 34  1  0
 36 35  1  0
 38 39  1  0
 39 42  1  0
 39 41  1  0
 40 38  2  0
 43 18  1  0
 43 44  1  0
 45 43  1  0
 46  4  1  0
 46 48  1  0
 47 46  1  0
 49 50  1  0
 49 48  2  0
 51 62  2  0
 52 50  1  0
 52 57  1  0
 53 61  1  0
 53 63  1  0
 54 60  1  0
 54 56  1  0
 55 61  1  0
 56 55  1  0
 57 56  2  0
 58 59  1  0
 58 52  2  0
 59 54  2  0
 60 53  1  0
 61 51  1  0
 63 65  2  0
 64 63  1  0
 66 64  1  0
 67 76  2  0
 67 72  1  0
 68 64  1  0
 68 72  1  0
 69 68  1  0
 70 71  1  0
 70 69  1  0
 71 67  1  0
 72 73  2  0
 73 74  1  0
 75 74  2  0
 76 75  1  0
 77 51  1  0
 77 82  1  0
 77 78  1  0
 78 81  1  1
 78 79  1  0
 80 78  1  0
 82 85  1  0
 83 87  1  0
 83 82  1  0
 84 83  2  0
 87 86  1  0
 89 87  1  0
 89 90  1  0
 89 88  1  0
M  ISO  4   8 100  16 100  49 101  50 101
M  END
>  <TORSDO>  (24) 
F 19

>  <SCORE>  (24) 
-14.363

>  <name>  (24) 
23

>  <ligand_id>  (24) 
23

>  <original_smiles>  (24) 
[H]c1c([H])c([H])c2c(c1[H])C([H])([H])C([H])([H])C([H])([H])C2([H])N([H])C(=O)C1([H])N(C(=O)C([H])(N([H])C(=O)C([H])(N([H])C([H])([H])[H])C([H])([H])[H])C(C([H])([H])[H])(C([H])([H])[H])C([H])([H])[H])C([H])([H])c2c([H])c(OC([H])([H])C([H])([H])N([H])c3c([H])c([H])c(N([H])C(=O)N4C([H])([H])C([H])([H])C([H])([H])C([H])(n5nc(-c6c([H])c([H])c(Oc7c([H])c([H])c(F)c([H])c7F)c([H])c6[H])c(C(=O)N([H])[H])c5N([H])[H])C4([H])[H])c(F)c3[H])c([H])c([H])c2C1([H])[H]

>  <smiles>  (24) 
[H]c1c([H])c([H])c2c(c1[H])C([H])([H])C([H])([H])C([H])([H])C2([H])N([H])C(=O)C1([H])N(C(=O)C([H])(N([H])C(=O)C([H])(N([H])C([H])([H])[H])C([H])([H])[H])C(C([H])([H])[H])(C([H])([H])[H])C([H])([H])[H])C([H])([H])c2c([H])c(OC([H])([H])C([H])([H])N([H])c3c([H])c([H])c(N([H])C(=O)N4C([H])([H])C([H])([H])C([H])([H])C([H])(n5nc(-c6c([H])c([H])c(Oc7c([H])c([H])c(F)c([H])c7F)c([H])c6[H])c(C(=O)N([H])[H])c5N([H])[H])C4([H])[H])c(F)c3[H])c([H])c([H])c2C1([H])[H]

$$$$
24:0:0
     RDKit          3D

 94103  0  0  1  0  0  0  0  0999 V2000
  -29.2100  -23.8960   22.4130 C   0  0  0  0  0  3  0  0  0  0  0  0
  -30.1080  -24.3440   20.2010 C   0  0  0  0  0  3  0  0  0  0  0  0
  -29.8360  -22.6290   22.4170 C   0  0  0  0  0  3  0  0  0  0  0  0
  -30.7340  -23.0740   20.2040 C   0  0  0  0  0  3  0  0  0  0  0  0
  -29.3630  -24.7790   21.3200 C   0  0  0  0  0  0  0  0  0  0  0  0
  -30.6240  -22.2180   21.3230 C   0  0  0  0  0  0  0  0  0  0  0  0
  -28.8010  -26.2020   21.4180 C   0  0  0  0  0  2  0  0  0  0  0  0
  -28.5300  -26.8330   20.1610 O   0  0  0  0  0  0  0  0  0  0  0  0
  -24.6860  -31.9700   23.2930 C   0  0  0  0  0  0  0  0  0  0  0  0
  -27.3910  -27.6020   20.1700 C   0  0  0  0  0  0  0  0  0  0  0  0
  -23.4960  -30.5600   21.6440 C   0  0  0  0  0  3  0  0  0  0  0  0
  -24.9720  -29.0600   20.1990 C   0  0  0  0  0  0  0  0  0  0  0  0
  -26.0130  -30.9650   21.4390 C   0  0  0  0  0  2  0  0  0  0  0  0
  -26.1220  -29.5990   20.7940 C   0  0  0  0  0  0  0  0  0  0  0  0
  -27.3350  -28.8740   20.7860 C   0  0  0  0  0  3  0  0  0  0  0  0
  -26.2330  -27.0790   19.5620 C   0  0  0  0  0  3  0  0  0  0  0  0
  -25.0220  -27.7970   19.5810 C   0  0  0  0  0  3  0  0  0  0  0  0
  -23.7120  -29.8940   20.2570 C   0  0  0  0  0  2  0  0  0  0  0  0
  -24.7500  -31.1790   22.1840 N   0  0  0  0  0  0  0  0  0  0  0  0
  -23.6020  -32.2200   23.8400 O   0  0  0  0  0  0  0  0  0  0  0  0
  -22.8660  -29.5200   22.5990 C   0  0  0  0  0  0  0  0  0  0  0  0
  -21.5460  -29.3140   22.4720 N   0  0  0  0  0  0  0  0  0  0  0  0
  -23.5620  -28.9030   23.4090 O   0  0  0  0  0  0  0  0  0  0  0  0
  -21.0440  -29.8660   21.7910 H   0  0  0  0  0  0  0  0  0  0  0  0
  -18.1980  -28.0430   22.9540 C   0  0  0  0  0  0  0  0  0  0  0  0
  -20.7480  -28.3570   23.2380 C   0  0  0  0  0  3  0  0  0  0  0  0
  -20.8850  -26.9290   22.6580 C   0  0  0  0  0  2  0  0  0  0  0  0
  -19.7940  -26.5860   21.6390 C   0  0  0  0  0  2  0  0  0  0  0  0
  -18.4060  -26.6990   22.2770 C   0  0  0  0  0  2  0  0  0  0  0  0
  -19.2980  -28.8290   23.3910 C   0  0  0  0  0  0  0  0  0  0  0  0
  -19.0480  -30.0860   23.9820 C   0  0  0  0  0  3  0  0  0  0  0  0
  -17.7330  -30.5590   24.1420 C   0  0  0  0  0  3  0  0  0  0  0  0
  -16.6470  -29.7710   23.7230 C   0  0  0  0  0  3  0  0  0  0  0  0
  -16.8800  -28.5150   23.1350 C   0  0  0  0  0  3  0  0  0  0  0  0
  -25.9640  -32.6160   23.9130 C   0  0  0  0  0  3  0  0  0  0  0  0
  -26.4870  -31.8560   25.1940 C   0  0  1  0  0  0  0  0  0  0  0  0
  -25.3930  -31.6100   26.2590 C   0  0  0  0  0  1  0  0  0  0  0  0
  -27.0890  -30.4850   24.8080 C   0  0  0  0  0  1  0  0  0  0  0  0
  -27.6250  -32.6690   25.8560 C   0  0  0  0  0  1  0  0  0  0  0  0
  -25.6440  -34.0130   24.2300 N   0  0  0  0  0  0  0  0  0  0  0  0
  -25.9620  -35.0610   23.4560 C   0  0  0  0  0  0  0  0  0  0  0  0
  -26.6250  -34.9520   22.4210 O   0  0  0  0  0  0  0  0  0  0  0  0
  -25.0530  -34.1720   25.0330 H   0  0  0  0  0  0  0  0  0  0  0  0
  -24.2080  -36.8260   23.0960 C   0  0  0  0  0  1  0  0  0  0  0  0
  -25.4620  -36.4480   23.9010 C   0  0  0  0  0  3  0  0  0  0  0  0
  -27.5910  -37.3700   24.7040 C   0  0  0  0  0  1  0  0  0  0  0  0
  -26.4810  -37.5110   23.7640 N   0  0  0  0  0  0  0  0  0  0  0  0
  -26.0650  -38.4280   23.9020 H   0  0  0  0  0  0  0  0  0  0  0  0
  -31.4560  -21.1260   21.4370 O   0  0  0  0  0  0  0  0  0  0  0  0
  -29.5030  -17.9290   21.2790 C   0  0  0  0  0  3  0  0  0  0  0  0
  -29.7680  -19.3150   21.4220 C   0  0  0  0  0  3  0  0  0  0  0  0
  -31.8210  -17.5410   20.6870 C   0  0  0  0  0  3  0  0  0  0  0  0
  -30.5220  -17.0140   20.9110 C   0  0  0  0  0  0  0  0  0  0  0  0
  -31.0700  -19.8210   21.2010 C   0  0  0  0  0  0  0  0  0  0  0  0
  -32.0850  -18.9170   20.8260 C   0  0  0  0  0  0  0  0  0  0  0  0
  -33.3450  -19.3730   20.6260 F   0  0  0  0  0  0  0  0  0  0  0  0
  -30.8060  -14.6240   20.1220 C   0  0  0  0  0  0  0  0  0  0  0  0
  -30.4130  -12.5040   18.9160 C   0  0  0  0  0  2  0  0  0  0  0  0
  -29.4060  -12.7450   17.7750 C   0  0  0  0  0  2  0  0  0  0  0  0
  -27.9610  -12.5930   18.2870 C   0  0  0  0  0  2  0  0  0  0  0  0
  -27.7000  -13.3920   19.5930 C   0  0  0  0  0  3  0  0  0  0  0  0
  -28.8180  -13.1430   20.6310 C   0  0  0  0  0  2  0  0  0  0  0  0
  -30.1090  -13.4590   19.9960 N   0  0  0  0  0  0  0  0  0  0  0  0
  -31.8860  -14.7920   19.5500 O   0  0  0  0  0  0  0  0  0  0  0  0
  -30.1900  -15.6150   20.8070 N   0  0  0  0  0  0  0  0  0  0  0  0
  -29.3050  -15.3420   21.2100 H   0  0  0  0  0  0  0  0  0  0  0  0
  -25.3480  -13.9730   20.4610 C   0  0  0  0  0  0  0  0  0  0  0  0
  -24.3040  -13.1880   20.8680 C   0  0  0  0  0  0  0  0  0  0  0  0
  -24.7590  -11.8380   20.7660 C   0  0  0  0  0  0  0  0  0  0  0  0
  -26.3770  -13.1010   20.1410 N   0  0  0  0  0  0  0  0  0  0  0  0
  -26.0290  -11.8100   20.3800 N   0  0  0  0  0  0  0  0  0  0  0  0
  -24.0440  -10.5700   20.9570 C   0  0  0  0  0  0  0  0  0  0  0  0
  -24.5030   -9.5920   21.8660 C   0  0  0  0  0  3  0  0  0  0  0  0
  -23.7870   -8.3880   22.0450 C   0  0  0  0  0  3  0  0  0  0  0  0
  -22.5980   -8.1550   21.3140 C   0  0  0  0  0  0  0  0  0  0  0  0
  -22.1580   -9.1210   20.3930 C   0  0  0  0  0  3  0  0  0  0  0  0
  -22.8740  -10.3170   20.2130 C   0  0  0  0  0  3  0  0  0  0  0  0
  -21.8520   -7.0050   21.4040 O   0  0  0  0  0  0  0  0  0  0  0  0
  -21.7890   -6.2770   22.5660 C   0  0  0  0  0  0  0  0  0  0  0  0
  -21.3170   -6.8390   23.7720 C   0  0  0  0  0  3  0  0  0  0  0  0
  -21.2030   -6.0360   24.9260 C   0  0  0  0  0  3  0  0  0  0  0  0
  -21.5490   -4.6720   24.8720 C   0  0  0  0  0  0  0  0  0  0  0  0
  -22.0120   -4.1100   23.6700 C   0  0  0  0  0  3  0  0  0  0  0  0
  -22.1280   -4.9100   22.5190 C   0  0  0  0  0  0  0  0  0  0  0  0
  -22.5550   -4.3580   21.3570 F   0  0  0  0  0  0  0  0  0  0  0  0
  -21.4320   -3.8990   25.9760 F   0  0  0  0  0  0  0  0  0  0  0  0
  -22.9260  -13.6560   21.2410 C   0  0  0  0  0  0  0  0  0  0  0  0
  -22.2520  -12.9340   22.1290 N   0  0  0  0  0  0  0  0  0  0  0  0
  -22.4570  -14.6950   20.7780 O   0  0  0  0  0  0  0  0  0  0  0  0
  -22.6450  -12.0920   22.5240 H   0  0  0  0  0  0  0  0  0  0  0  0
  -21.3300  -13.2280   22.4200 H   0  0  0  0  0  0  0  0  0  0  0  0
  -25.5040  -15.3490   20.3170 N   0  0  0  0  0  0  0  0  0  0  0  0
  -24.7400  -15.9960   20.4750 H   0  0  0  0  0  0  0  0  0  0  0  0
  -26.3290  -15.7940   19.9340 H   0  0  0  0  0  0  0  0  0  0  0  0
  1  3  1  0
  2  4  2  0
  2  5  1  0
  4  6  1  0
  5  7  1  0
  5  1  2  0
  6 49  1  0
  6  3  2  0
  8 10  1  0
  8  7  1  0
  9 20  2  0
 10 15  1  0
 11 19  1  0
 11 21  1  0
 12 18  1  0
 12 14  1  0
 13 19  1  0
 14 13  1  0
 15 14  2  0
 16 17  1  0
 16 10  2  0
 17 12  2  0
 18 11  1  0
 19  9  1  0
 21 23  2  0
 22 21  1  0
 24 22  1  0
 25 34  2  0
 25 30  1  0
 26 22  1  0
 26 30  1  0
 27 26  1  0
 28 29  1  0
 28 27  1  0
 29 25  1  0
 30 31  2  0
 31 32  1  0
 33 32  2  0
 34 33  1  0
 35  9  1  0
 35 40  1  0
 35 36  1  0
 36 39  1  1
 36 37  1  0
 38 36  1  0
 40 43  1  0
 41 45  1  0
 41 40  1  0
 42 41  2  0
 45 44  1  0
 47 45  1  0
 47 48  1  0
 47 46  1  0
 50 51  1  0
 52 55  2  0
 52 53  1  0
 53 50  2  0
 54 51  2  0
 54 49  1  0
 55 54  1  0
 56 55  1  0
 57 65  1  0
 58 63  1  0
 59 60  1  0
 59 58  1  0
 61 60  1  0
 61 70  1  0
 61 62  1  0
 63 57  1  0
 63 62  1  0
 64 57  2  0
 65 53  1  0
 65 66  1  0
 67 68  2  0
 68 87  1  0
 69 68  1  0
 69 72  1  0
 70 71  1  0
 70 67  1  0
 71 69  2  0
 72 73  1  0
 73 74  2  0
 75 78  1  0
 75 74  1  0
 76 75  2  0
 77 76  1  0
 77 72  2  0
 78 79  1  0
 79 80  1  0
 80 81  2  0
 82 81  1  0
 82 86  1  0
 83 82  2  0
 84 79  2  0
 84 83  1  0
 85 84  1  0
 87 88  1  0
 88 91  1  0
 88 90  1  0
 89 87  2  0
 92 67  1  0
 92 93  1  0
 94 92  1  0
M  ISO  4   7 101   8 101  57 100  65 100
M  END
>  <TORSDO>  (25) 
F 19

>  <SCORE>  (25) 
-14.060

>  <name>  (25) 
24

>  <ligand_id>  (25) 
24

>  <original_smiles>  (25) 
[H]c1c([H])c([H])c2c(c1[H])C([H])([H])C([H])([H])C([H])([H])C2([H])N([H])C(=O)C1([H])N(C(=O)C([H])(N([H])C(=O)C([H])(N([H])C([H])([H])[H])C([H])([H])[H])C(C([H])([H])[H])(C([H])([H])[H])C([H])([H])[H])C([H])([H])c2c([H])c(OC([H])([H])c3c([H])c([H])c(Oc4c([H])c([H])c(N([H])C(=O)N5C([H])([H])C([H])([H])C([H])([H])C([H])(n6nc(-c7c([H])c([H])c(Oc8c([H])c([H])c(F)c([H])c8F)c([H])c7[H])c(C(=O)N([H])[H])c6N([H])[H])C5([H])[H])c([H])c4F)c([H])c3[H])c([H])c([H])c2C1([H])[H]

>  <smiles>  (25) 
[H]c1c([H])c([H])c2c(c1[H])C([H])([H])C([H])([H])C([H])([H])C2([H])N([H])C(=O)C1([H])N(C(=O)C([H])(N([H])C(=O)C([H])(N([H])C([H])([H])[H])C([H])([H])[H])C(C([H])([H])[H])(C([H])([H])[H])C([H])([H])[H])C([H])([H])c2c([H])c(OC([H])([H])c3c([H])c([H])c(Oc4c([H])c([H])c(N([H])C(=O)N5C([H])([H])C([H])([H])C([H])([H])C([H])(n6nc(-c7c([H])c([H])c(Oc8c([H])c([H])c(F)c([H])c8F)c([H])c7[H])c(C(=O)N([H])[H])c6N([H])[H])C5([H])[H])c([H])c4F)c([H])c3[H])c([H])c([H])c2C1([H])[H]

$$$$
25:0:0
     RDKit          3D

 91 99  0  0  1  0  0  0  0  0999 V2000
  -28.3510  -18.9560   20.1850 C   0  0  0  0  0  3  0  0  0  0  0  0
  -30.3630  -19.7000   21.2680 C   0  0  0  0  0  3  0  0  0  0  0  0
  -28.0020  -20.3140   19.9430 C   0  0  0  0  0  3  0  0  0  0  0  0
  -30.0050  -21.0660   21.0370 C   0  0  0  0  0  3  0  0  0  0  0  0
  -29.5450  -18.6070   20.8660 C   0  0  0  0  0  0  0  0  0  0  0  0
  -28.7970  -21.4090   20.3750 C   0  0  0  0  0  0  0  0  0  0  0  0
  -29.8750  -17.1230   21.2940 C   0  0  0  0  0  2  0  0  0  0  0  0
  -30.8590  -14.8930   20.7050 C   0  0  0  0  0  0  0  0  0  0  0  0
  -30.6940  -12.6190   19.7580 C   0  0  0  0  0  2  0  0  0  0  0  0
  -29.8250  -12.6780   18.4840 C   0  0  0  0  0  2  0  0  0  0  0  0
  -28.3330  -12.5340   18.8380 C   0  0  0  0  0  2  0  0  0  0  0  0
  -27.8920  -13.4280   20.0290 C   0  0  0  0  0  3  0  0  0  0  0  0
  -28.8930  -13.3790   21.2000 C   0  0  0  0  0  2  0  0  0  0  0  0
  -30.2160  -13.6890   20.6480 N   0  0  0  0  0  0  0  0  0  0  0  0
  -32.0890  -14.9530   20.6290 O   0  0  0  0  0  0  0  0  0  0  0  0
  -30.1290  -16.0030   20.3170 N   0  0  0  0  0  0  0  0  0  0  0  0
  -25.4610  -14.0220   20.5910 C   0  0  0  0  0  0  0  0  0  0  0  0
  -24.3790  -13.2450   20.9010 C   0  0  0  0  0  0  0  0  0  0  0  0
  -24.8550  -11.8980   20.9240 C   0  0  0  0  0  0  0  0  0  0  0  0
  -26.5240  -13.1450   20.4430 N   0  0  0  0  0  0  0  0  0  0  0  0
  -26.1630  -11.8660   20.7080 N   0  0  0  0  0  0  0  0  0  0  0  0
  -24.1320  -10.6320   21.0890 C   0  0  0  0  0  0  0  0  0  0  0  0
  -24.5270   -9.6770   22.0510 C   0  0  0  0  0  3  0  0  0  0  0  0
  -23.8070   -8.4740   22.2030 C   0  0  0  0  0  3  0  0  0  0  0  0
  -22.6760   -8.2180   21.3910 C   0  0  0  0  0  0  0  0  0  0  0  0
  -22.3000   -9.1600   20.4180 C   0  0  0  0  0  3  0  0  0  0  0  0
  -23.0210  -10.3560   20.2660 C   0  0  0  0  0  3  0  0  0  0  0  0
  -21.9280   -7.0670   21.4520 O   0  0  0  0  0  0  0  0  0  0  0  0
  -21.8350   -6.3290   22.6050 C   0  0  0  0  0  0  0  0  0  0  0  0
  -21.3530   -6.8870   23.8090 C   0  0  0  0  0  3  0  0  0  0  0  0
  -21.2100   -6.0770   24.9530 C   0  0  0  0  0  3  0  0  0  0  0  0
  -21.5360   -4.7080   24.8910 C   0  0  0  0  0  0  0  0  0  0  0  0
  -22.0110   -4.1500   23.6910 C   0  0  0  0  0  3  0  0  0  0  0  0
  -22.1570   -4.9580   22.5510 C   0  0  0  0  0  0  0  0  0  0  0  0
  -22.5970   -4.4120   21.3920 F   0  0  0  0  0  0  0  0  0  0  0  0
  -21.3880   -3.9260   25.9860 F   0  0  0  0  0  0  0  0  0  0  0  0
  -22.9630  -13.7120   21.0690 C   0  0  0  0  0  0  0  0  0  0  0  0
  -22.1960  -13.0430   21.9210 N   0  0  0  0  0  0  0  0  0  0  0  0
  -22.5440  -14.7080   20.4790 O   0  0  0  0  0  0  0  0  0  0  0  0
  -22.5480  -12.2400   22.4210 H   0  0  0  0  0  0  0  0  0  0  0  0
  -21.2430  -13.3410   22.0820 H   0  0  0  0  0  0  0  0  0  0  0  0
  -25.6270  -15.3900   20.3970 N   0  0  0  0  0  0  0  0  0  0  0  0
  -24.8490  -16.0380   20.4420 H   0  0  0  0  0  0  0  0  0  0  0  0
  -26.4980  -15.8290   20.1290 H   0  0  0  0  0  0  0  0  0  0  0  0
  -30.3790  -16.4600   18.9280 C   0  0  0  0  0  2  0  0  0  0  0  0
  -29.1100  -18.0200   17.3860 C   0  0  0  0  0  2  0  0  0  0  0  0
  -29.1370  -16.9620   18.2080 C   0  0  0  0  0  3  0  0  0  0  0  0
  -28.3130  -22.7030   20.1070 O   0  0  0  0  0  0  0  0  0  0  0  0
  -28.9440  -23.9650   20.5020 C   0  0  0  0  0  2  0  0  0  0  0  0
  -28.0050  -25.1710   20.0600 C   0  0  0  0  0  2  0  0  0  0  0  0
  -28.3040  -26.6180   20.2320 O   0  0  0  0  0  0  0  0  0  0  0  0
  -24.6150  -32.0300   23.2920 C   0  0  0  0  0  0  0  0  0  0  0  0
  -27.2020  -27.4940   20.1780 C   0  0  0  0  0  0  0  0  0  0  0  0
  -23.3940  -30.6290   21.6700 C   0  0  0  0  0  3  0  0  0  0  0  0
  -24.8300  -29.1010   20.2120 C   0  0  0  0  0  0  0  0  0  0  0  0
  -25.9300  -30.9630   21.4490 C   0  0  0  0  0  2  0  0  0  0  0  0
  -26.0080  -29.5890   20.7950 C   0  0  0  0  0  0  0  0  0  0  0  0
  -27.1960  -28.7950   20.7730 C   0  0  0  0  0  3  0  0  0  0  0  0
  -26.0010  -27.0800   19.5500 C   0  0  0  0  0  3  0  0  0  0  0  0
  -24.8300  -27.8520   19.5820 C   0  0  0  0  0  3  0  0  0  0  0  0
  -23.5900  -29.9660   20.2830 C   0  0  0  0  0  2  0  0  0  0  0  0
  -24.6660  -31.2240   22.1930 N   0  0  0  0  0  0  0  0  0  0  0  0
  -23.5390  -32.2990   23.8440 O   0  0  0  0  0  0  0  0  0  0  0  0
  -22.7580  -29.6010   22.6360 C   0  0  0  0  0  0  0  0  0  0  0  0
  -21.4380  -29.3840   22.5000 N   0  0  0  0  0  0  0  0  0  0  0  0
  -23.4480  -29.0050   23.4670 O   0  0  0  0  0  0  0  0  0  0  0  0
  -20.9380  -29.9200   21.8020 H   0  0  0  0  0  0  0  0  0  0  0  0
  -18.0950  -28.0830   22.9740 C   0  0  0  0  0  0  0  0  0  0  0  0
  -20.6390  -28.4340   23.2760 C   0  0  0  0  0  3  0  0  0  0  0  0
  -20.7980  -26.9960   22.7330 C   0  0  0  0  0  2  0  0  0  0  0  0
  -19.7240  -26.6150   21.7090 C   0  0  0  0  0  2  0  0  0  0  0  0
  -18.3270  -26.7270   22.3280 C   0  0  0  0  0  2  0  0  0  0  0  0
  -19.1810  -28.8910   23.4040 C   0  0  0  0  0  0  0  0  0  0  0  0
  -18.9110  -30.1570   23.9670 C   0  0  0  0  0  3  0  0  0  0  0  0
  -17.5870  -30.6170   24.1010 C   0  0  0  0  0  3  0  0  0  0  0  0
  -16.5160  -29.8070   23.6850 C   0  0  0  0  0  3  0  0  0  0  0  0
  -16.7700  -28.5420   23.1280 C   0  0  0  0  0  3  0  0  0  0  0  0
  -25.9040  -32.6680   23.8940 C   0  0  0  0  0  3  0  0  0  0  0  0
  -25.5940  -34.0670   24.2200 N   0  0  0  0  0  0  0  0  0  0  0  0
  -25.9190  -35.1160   23.4530 C   0  0  0  0  0  0  0  0  0  0  0  0
  -26.5800  -35.0070   22.4170 O   0  0  0  0  0  0  0  0  0  0  0  0
  -25.0060  -34.2270   25.0250 H   0  0  0  0  0  0  0  0  0  0  0  0
  -24.1800  -36.9000   23.1080 C   0  0  0  0  0  1  0  0  0  0  0  0
  -25.4320  -36.5070   23.9060 C   0  0  0  0  0  3  0  0  0  0  0  0
  -27.5730  -37.4060   24.7070 C   0  0  0  0  0  1  0  0  0  0  0  0
  -26.4610  -37.5610   23.7720 N   0  0  0  0  0  0  0  0  0  0  0  0
  -26.0560  -38.4830   23.9120 H   0  0  0  0  0  0  0  0  0  0  0  0
  -26.4360  -31.9060   25.1690 C   0  0  1  0  0  0  0  0  0  0  0  0
  -25.3520  -31.6530   26.2410 C   0  0  0  0  0  1  0  0  0  0  0  0
  -27.0360  -30.5360   24.7750 C   0  0  0  0  0  1  0  0  0  0  0  0
  -27.5790  -32.7160   25.8250 C   0  0  0  0  0  1  0  0  0  0  0  0
  1  5  1  0
  3  1  2  0
  3  6  1  0
  4  2  1  0
  5  2  2  0
  5  7  1  0
  6  4  2  0
  9 14  1  0
 10 11  1  0
 10  9  1  0
 12 11  1  0
 12 20  1  0
 12 13  1  0
 14  8  1  0
 14 13  1  0
 15  8  2  0
 16  8  1  0
 16  7  1  0
 17 18  2  0
 18 19  1  0
 18 37  1  0
 19 22  1  0
 20 17  1  0
 20 21  1  0
 21 19  2  0
 22 23  1  0
 23 24  2  0
 25 28  1  0
 25 24  1  0
 26 25  2  0
 27 26  1  0
 27 22  2  0
 28 29  1  0
 29 30  1  0
 30 31  2  0
 32 31  1  0
 32 36  1  0
 33 32  2  0
 34 29  2  0
 34 33  1  0
 35 34  1  0
 37 38  1  0
 38 41  1  0
 38 40  1  0
 39 37  2  0
 42 43  1  0
 42 17  1  0
 44 42  1  0
 45 16  1  0
 46 47  2  0
 47 45  1  0
 48  6  1  0
 48 49  1  0
 50 51  1  0
 50 49  1  0
 52 63  2  0
 53 51  1  0
 53 58  1  0
 54 62  1  0
 54 64  1  0
 55 61  1  0
 55 57  1  0
 56 62  1  0
 57 56  1  0
 58 57  2  0
 59 60  1  0
 59 53  2  0
 60 55  2  0
 61 54  1  0
 62 52  1  0
 64 66  2  0
 65 64  1  0
 67 65  1  0
 68 77  2  0
 68 73  1  0
 69 65  1  0
 69 73  1  0
 70 69  1  0
 71 72  1  0
 71 70  1  0
 72 68  1  0
 73 74  2  0
 74 75  1  0
 76 75  2  0
 77 76  1  0
 78 52  1  0
 78 79  1  0
 78 88  1  0
 79 82  1  0
 80 84  1  0
 80 79  1  0
 81 80  2  0
 84 83  1  0
 86 84  1  0
 86 87  1  0
 86 85  1  0
 88 91  1  1
 88 89  1  0
 90 88  1  0
M  ISO  4   8 100  16 100  50 101  51 101
M  END
>  <TORSDO>  (26) 
F 22

>  <SCORE>  (26) 
-12.604

>  <name>  (26) 
25

>  <ligand_id>  (26) 
25

>  <original_smiles>  (26) 
[H]C([H])=C([H])C([H])([H])N(C(=O)N1C([H])([H])C([H])([H])C([H])([H])C([H])(n2nc(-c3c([H])c([H])c(Oc4c([H])c([H])c(F)c([H])c4F)c([H])c3[H])c(C(=O)N([H])[H])c2N([H])[H])C1([H])[H])C([H])([H])c1c([H])c([H])c(OC([H])([H])C([H])([H])Oc2c([H])c([H])c3c(c2[H])C([H])([H])N(C(=O)C([H])(N([H])C(=O)C([H])(N([H])C([H])([H])[H])C([H])([H])[H])C(C([H])([H])[H])(C([H])([H])[H])C([H])([H])[H])C([H])(C(=O)N([H])C2([H])c4c([H])c([H])c([H])c([H])c4C([H])([H])C([H])([H])C2([H])[H])C3([H])[H])c([H])c1[H]

>  <smiles>  (26) 
[H]C([H])=C([H])C([H])([H])N(C(=O)N1C([H])([H])C([H])([H])C([H])([H])C([H])(n2nc(-c3c([H])c([H])c(Oc4c([H])c([H])c(F)c([H])c4F)c([H])c3[H])c(C(=O)N([H])[H])c2N([H])[H])C1([H])[H])C([H])([H])c1c([H])c([H])c(OC([H])([H])C([H])([H])Oc2c([H])c([H])c3c(c2[H])C([H])([H])N(C(=O)C([H])(N([H])C(=O)C([H])(N([H])C([H])([H])[H])C([H])([H])[H])C(C([H])([H])[H])(C([H])([H])[H])C([H])([H])[H])C([H])(C(=O)N([H])C2([H])c4c([H])c([H])c([H])c([H])c4C([H])([H])C([H])([H])C2([H])[H])C3([H])[H])c([H])c1[H]

$$$$
26:0:0
     RDKit          3D

 92100  0  0  1  0  0  0  0  0999 V2000
  -31.6450  -22.2200   20.2240 O   0  0  0  0  0  0  0  0  0  0  0  0
  -30.1530  -21.9400   18.2040 O   0  0  0  0  0  0  0  0  0  0  0  0
  -30.3670  -21.7680   19.6500 S   0  0  1  0  0  0  0  0  0  0  0  0
  -29.0260  -17.9540   20.8620 C   0  0  0  0  0  3  0  0  0  0  0  0
  -31.2100  -17.7140   19.8610 C   0  0  0  0  0  3  0  0  0  0  0  0
  -29.0740  -19.3670   20.6670 C   0  0  0  0  0  3  0  0  0  0  0  0
  -31.2600  -19.1190   19.6660 C   0  0  0  0  0  3  0  0  0  0  0  0
  -30.0810  -17.0880   20.4520 C   0  0  0  0  0  0  0  0  0  0  0  0
  -30.1930  -19.9680   20.0460 C   0  0  0  0  0  0  0  0  0  0  0  0
  -30.6590  -14.5970   20.1450 C   0  0  0  0  0  0  0  0  0  0  0  0
  -30.3420  -12.4180   19.0110 C   0  0  0  0  0  2  0  0  0  0  0  0
  -29.3620  -12.6360   17.8400 C   0  0  0  0  0  2  0  0  0  0  0  0
  -27.9030  -12.4810   18.3160 C   0  0  0  0  0  2  0  0  0  0  0  0
  -27.6070  -13.2890   19.6090 C   0  0  0  0  0  3  0  0  0  0  0  0
  -28.7070  -13.0730   20.6740 C   0  0  0  0  0  2  0  0  0  0  0  0
  -30.0020  -13.4010   20.0590 N   0  0  0  0  0  0  0  0  0  0  0  0
  -31.7940  -14.7360   19.6810 O   0  0  0  0  0  0  0  0  0  0  0  0
  -29.9350  -15.6480   20.6320 N   0  0  0  0  0  0  0  0  0  0  0  0
  -29.0670  -15.3600   21.0580 H   0  0  0  0  0  0  0  0  0  0  0  0
  -25.2360  -13.8740   20.4080 C   0  0  0  0  0  0  0  0  0  0  0  0
  -24.1830  -13.0950   20.8100 C   0  0  0  0  0  0  0  0  0  0  0  0
  -24.6490  -11.7450   20.7540 C   0  0  0  0  0  0  0  0  0  0  0  0
  -26.2740  -12.9990   20.1350 N   0  0  0  0  0  0  0  0  0  0  0  0
  -25.9290  -11.7120   20.4010 N   0  0  0  0  0  0  0  0  0  0  0  0
  -23.9310  -10.4790   20.9610 C   0  0  0  0  0  0  0  0  0  0  0  0
  -24.3850   -9.5180   21.8920 C   0  0  0  0  0  3  0  0  0  0  0  0
  -23.6690   -8.3170   22.0860 C   0  0  0  0  0  3  0  0  0  0  0  0
  -22.4840   -8.0700   21.3520 C   0  0  0  0  0  0  0  0  0  0  0  0
  -22.0500   -9.0210   20.4120 C   0  0  0  0  0  3  0  0  0  0  0  0
  -22.7670  -10.2120   20.2140 C   0  0  0  0  0  3  0  0  0  0  0  0
  -21.7370   -6.9210   21.4580 O   0  0  0  0  0  0  0  0  0  0  0  0
  -21.6970   -6.1920   22.6180 C   0  0  0  0  0  0  0  0  0  0  0  0
  -21.2640   -6.7560   23.8380 C   0  0  0  0  0  3  0  0  0  0  0  0
  -21.1700   -5.9500   24.9920 C   0  0  0  0  0  3  0  0  0  0  0  0
  -21.5030   -4.5850   24.9260 C   0  0  0  0  0  0  0  0  0  0  0  0
  -21.9290   -4.0200   23.7110 C   0  0  0  0  0  3  0  0  0  0  0  0
  -22.0230   -4.8220   22.5600 C   0  0  0  0  0  0  0  0  0  0  0  0
  -22.4150   -4.2690   21.3860 F   0  0  0  0  0  0  0  0  0  0  0  0
  -21.4070   -3.8090   26.0320 F   0  0  0  0  0  0  0  0  0  0  0  0
  -22.7960  -13.5660   21.1330 C   0  0  0  0  0  0  0  0  0  0  0  0
  -22.0980  -12.8630   22.0170 N   0  0  0  0  0  0  0  0  0  0  0  0
  -22.3380  -14.5940   20.6350 O   0  0  0  0  0  0  0  0  0  0  0  0
  -22.4800  -12.0320   22.4450 H   0  0  0  0  0  0  0  0  0  0  0  0
  -21.1670  -13.1610   22.2710 H   0  0  0  0  0  0  0  0  0  0  0  0
  -25.3870  -15.2460   20.2310 N   0  0  0  0  0  0  0  0  0  0  0  0
  -24.6140  -15.8920   20.3520 H   0  0  0  0  0  0  0  0  0  0  0  0
  -26.2150  -15.6890   19.8510 H   0  0  0  0  0  0  0  0  0  0  0  0
  -29.1400  -22.7430   20.4220 N   0  0  0  0  0  0  0  0  0  0  0  0
  -28.2190  -22.5070   20.0470 H   0  0  0  0  0  0  0  0  0  0  0  0
  -29.3510  -24.2330   20.5450 C   0  0  0  0  0  3  0  0  0  0  0  0
  -28.2210  -25.1320   19.9310 C   0  0  0  0  0  3  0  0  0  0  0  0
  -28.3670  -26.5720   20.1540 O   0  0  0  0  0  0  0  0  0  0  0  0
  -24.5940  -31.8500   23.2090 C   0  0  0  0  0  0  0  0  0  0  0  0
  -27.2210  -27.3680   20.1060 C   0  0  0  0  0  0  0  0  0  0  0  0
  -23.3890  -30.4660   21.5570 C   0  0  0  0  0  3  0  0  0  0  0  0
  -24.8400  -28.9350   20.1170 C   0  0  0  0  0  0  0  0  0  0  0  0
  -25.9210  -30.8050   21.3660 C   0  0  0  0  0  2  0  0  0  0  0  0
  -26.0040  -29.4330   20.7150 C   0  0  0  0  0  0  0  0  0  0  0  0
  -27.1960  -28.6600   20.7020 C   0  0  0  0  0  3  0  0  0  0  0  0
  -26.0360  -26.9140   19.4790 C   0  0  0  0  0  3  0  0  0  0  0  0
  -24.8560  -27.6790   19.4900 C   0  0  0  0  0  3  0  0  0  0  0  0
  -23.5990  -29.7980   20.1730 C   0  0  0  0  0  2  0  0  0  0  0  0
  -24.6550  -31.0560   22.1030 N   0  0  0  0  0  0  0  0  0  0  0  0
  -23.5120  -32.1200   23.7500 O   0  0  0  0  0  0  0  0  0  0  0  0
  -22.7320  -29.4380   22.5100 C   0  0  0  0  0  0  0  0  0  0  0  0
  -21.4050  -29.2670   22.3870 N   0  0  0  0  0  0  0  0  0  0  0  0
  -23.4150  -28.7980   23.3150 O   0  0  0  0  0  0  0  0  0  0  0  0
  -20.9160  -29.8340   21.7100 H   0  0  0  0  0  0  0  0  0  0  0  0
  -18.0230  -28.0960   22.9010 C   0  0  0  0  0  0  0  0  0  0  0  0
  -20.5860  -28.3260   23.1520 C   0  0  0  0  0  3  0  0  0  0  0  0
  -20.6680  -26.9030   22.5520 C   0  0  0  0  0  2  0  0  0  0  0  0
  -19.5530  -26.6060   21.5430 C   0  0  0  0  0  2  0  0  0  0  0  0
  -18.1790  -26.7560   22.2030 C   0  0  0  0  0  2  0  0  0  0  0  0
  -19.1530  -28.8410   23.3320 C   0  0  0  0  0  0  0  0  0  0  0  0
  -18.9540  -30.0970   23.9440 C   0  0  0  0  0  3  0  0  0  0  0  0
  -17.6560  -30.6100   24.1270 C   0  0  0  0  0  3  0  0  0  0  0  0
  -16.5400  -29.8630   23.7100 C   0  0  0  0  0  3  0  0  0  0  0  0
  -16.7250  -28.6080   23.1040 C   0  0  0  0  0  3  0  0  0  0  0  0
  -25.8780  -32.4770   23.8370 C   0  0  0  0  0  3  0  0  0  0  0  0
  -26.3920  -31.6970   25.1080 C   0  0  1  0  0  0  0  0  0  0  0  0
  -25.2970  -31.4560   26.1730 C   0  0  0  0  0  1  0  0  0  0  0  0
  -26.9710  -30.3200   24.7060 C   0  0  0  0  0  1  0  0  0  0  0  0
  -27.5420  -32.4860   25.7780 C   0  0  0  0  0  1  0  0  0  0  0  0
  -25.5700  -33.8730   24.1730 N   0  0  0  0  0  0  0  0  0  0  0  0
  -25.9030  -34.9300   23.4180 C   0  0  0  0  0  0  0  0  0  0  0  0
  -26.5710  -34.8290   22.3850 O   0  0  0  0  0  0  0  0  0  0  0  0
  -24.9760  -34.0240   24.9740 H   0  0  0  0  0  0  0  0  0  0  0  0
  -24.1770  -36.7260   23.0720 C   0  0  0  0  0  1  0  0  0  0  0  0
  -25.4170  -36.3170   23.8820 C   0  0  0  0  0  3  0  0  0  0  0  0
  -27.5540  -37.1960   24.7150 C   0  0  0  0  0  1  0  0  0  0  0  0
  -26.4520  -37.3690   23.7720 N   0  0  0  0  0  0  0  0  0  0  0  0
  -26.0480  -38.2890   23.9200 H   0  0  0  0  0  0  0  0  0  0  0  0
  2  3  2  0
  3  9  1  0
  3  1  2  0
  3 48  1  1
  5  8  1  0
  6  4  1  0
  7  5  2  0
  7  9  1  0
  8 18  1  0
  8  4  2  0
  9  6  2  0
 10 18  1  0
 11 16  1  0
 12 13  1  0
 12 11  1  0
 14 13  1  0
 14 23  1  0
 14 15  1  0
 16 10  1  0
 16 15  1  0
 17 10  2  0
 18 19  1  0
 20 21  2  0
 21 40  1  0
 22 21  1  0
 22 25  1  0
 23 24  1  0
 23 20  1  0
 24 22  2  0
 25 26  1  0
 26 27  2  0
 28 31  1  0
 28 27  1  0
 29 28  2  0
 30 29  1  0
 30 25  2  0
 31 32  1  0
 32 33  1  0
 33 34  2  0
 35 34  1  0
 35 39  1  0
 36 35  2  0
 37 32  2  0
 37 36  1  0
 38 37  1  0
 40 41  1  0
 41 44  1  0
 41 43  1  0
 42 40  2  0
 45 46  1  0
 45 20  1  0
 47 45  1  0
 48 50  1  0
 49 48  1  0
 51 52  1  0
 51 50  2  0
 53 64  2  0
 54 52  1  0
 54 59  1  0
 55 63  1  0
 55 65  1  0
 56 62  1  0
 56 58  1  0
 57 63  1  0
 58 57  1  0
 59 58  2  0
 60 61  1  0
 60 54  2  0
 61 56  2  0
 62 55  1  0
 63 53  1  0
 65 67  2  0
 66 65  1  0
 68 66  1  0
 69 78  2  0
 69 74  1  0
 70 66  1  0
 70 74  1  0
 71 70  1  0
 72 73  1  0
 72 71  1  0
 73 69  1  0
 74 75  2  0
 75 76  1  0
 77 76  2  0
 78 77  1  0
 79 53  1  0
 79 84  1  0
 79 80  1  0
 80 83  1  1
 80 81  1  0
 82 80  1  0
 84 87  1  0
 85 89  1  0
 85 84  1  0
 86 85  2  0
 89 88  1  0
 91 89  1  0
 91 92  1  0
 91 90  1  0
M  ISO  4  10 100  18 100  51 101  52 101
M  END
>  <TORSDO>  (27) 
F 20

>  <SCORE>  (27) 
-13.711

>  <name>  (27) 
26

>  <ligand_id>  (27) 
26

>  <original_smiles>  (27) 
[H]c1c([H])c([H])c2c(c1[H])C([H])([H])C([H])([H])C([H])([H])C2([H])N([H])C(=O)C1([H])N(C(=O)C([H])(N([H])C(=O)C([H])(N([H])C([H])([H])[H])C([H])([H])[H])C(C([H])([H])[H])(C([H])([H])[H])C([H])([H])[H])C([H])([H])c2c([H])c(OC([H])([H])C([H])([H])N([H])S(=O)(=O)c3c([H])c([H])c(N([H])C(=O)N4C([H])([H])C([H])([H])C([H])([H])C([H])(n5nc(-c6c([H])c([H])c(Oc7c([H])c([H])c(F)c([H])c7F)c([H])c6[H])c(C(=O)N([H])[H])c5N([H])[H])C4([H])[H])c([H])c3[H])c([H])c([H])c2C1([H])[H]

>  <smiles>  (27) 
[H]c1c([H])c([H])c2c(c1[H])C([H])([H])C([H])([H])C([H])([H])C2([H])N([H])C(=O)C1([H])N(C(=O)C([H])(N([H])C(=O)C([H])(N([H])C([H])([H])[H])C([H])([H])[H])C(C([H])([H])[H])(C([H])([H])[H])C([H])([H])[H])C([H])([H])c2c([H])c(OC([H])([H])C([H])([H])N([H])S(=O)(=O)c3c([H])c([H])c(N([H])C(=O)N4C([H])([H])C([H])([H])C([H])([H])C([H])(n5nc(-c6c([H])c([H])c(Oc7c([H])c([H])c(F)c([H])c7F)c([H])c6[H])c(C(=O)N([H])[H])c5N([H])[H])C4([H])[H])c([H])c3[H])c([H])c([H])c2C1([H])[H]

$$$$
27:0:0
     RDKit          3D

 91 99  0  0  1  0  0  0  0  0999 V2000
  -26.2010  -22.0490   20.1200 C   0  0  0  0  0  1  0  0  0  0  0  0
  -27.6360  -21.9020   19.8510 N   0  0  0  0  0  0  0  0  0  0  0  0
  -29.8750  -18.9040   19.3360 C   0  0  0  0  0  3  0  0  0  0  0  0
  -27.7990  -18.1620   20.3340 C   0  0  0  0  0  3  0  0  0  0  0  0
  -29.4260  -20.2490   19.4050 C   0  0  0  0  0  3  0  0  0  0  0  0
  -27.3590  -19.5000   20.4120 C   0  0  0  0  0  3  0  0  0  0  0  0
  -29.0500  -17.8330   19.7720 C   0  0  0  0  0  0  0  0  0  0  0  0
  -28.1420  -20.5710   19.9120 C   0  0  0  0  0  0  0  0  0  0  0  0
  -29.4210  -16.3380   19.6470 C   0  0  0  0  0  2  0  0  0  0  0  0
  -31.2860  -14.6340   19.2100 C   0  0  0  0  0  0  0  0  0  0  0  0
  -30.9520  -12.2750   18.5800 C   0  0  0  0  0  2  0  0  0  0  0  0
  -29.9210  -12.1630   17.4380 C   0  0  0  0  0  2  0  0  0  0  0  0
  -28.4940  -12.0790   18.0090 C   0  0  0  0  0  2  0  0  0  0  0  0
  -28.2080  -13.1800   19.0660 C   0  0  0  0  0  3  0  0  0  0  0  0
  -29.3460  -13.2580   20.1090 C   0  0  0  0  0  2  0  0  0  0  0  0
  -30.6060  -13.4650   19.3790 N   0  0  0  0  0  0  0  0  0  0  0  0
  -32.3700  -14.6830   18.6300 O   0  0  0  0  0  0  0  0  0  0  0  0
  -30.7850  -15.7920   19.6900 N   0  0  0  0  0  0  0  0  0  0  0  0
  -31.4860  -16.5180   19.7080 H   0  0  0  0  0  0  0  0  0  0  0  0
  -25.9590  -13.9380   20.0560 C   0  0  0  0  0  0  0  0  0  0  0  0
  -24.8850  -13.2350   20.5320 C   0  0  0  0  0  0  0  0  0  0  0  0
  -25.2390  -11.8560   20.4280 C   0  0  0  0  0  0  0  0  0  0  0  0
  -26.9040  -12.9900   19.6950 N   0  0  0  0  0  0  0  0  0  0  0  0
  -26.4810  -11.7320   19.9740 N   0  0  0  0  0  0  0  0  0  0  0  0
  -24.4510  -10.6440   20.6790 C   0  0  0  0  0  0  0  0  0  0  0  0
  -24.8290   -9.7070   21.6670 C   0  0  0  0  0  3  0  0  0  0  0  0
  -24.0430   -8.5590   21.9030 C   0  0  0  0  0  3  0  0  0  0  0  0
  -22.8640   -8.3390   21.1510 C   0  0  0  0  0  0  0  0  0  0  0  0
  -22.5050   -9.2630   20.1530 C   0  0  0  0  0  3  0  0  0  0  0  0
  -23.2910  -10.4020   19.9160 C   0  0  0  0  0  3  0  0  0  0  0  0
  -22.0540   -7.2390   21.2940 O   0  0  0  0  0  0  0  0  0  0  0  0
  -21.8530   -6.6450   22.5140 C   0  0  0  0  0  0  0  0  0  0  0  0
  -21.3170   -7.3580   23.6090 C   0  0  0  0  0  3  0  0  0  0  0  0
  -21.0600   -6.6920   24.8260 C   0  0  0  0  0  3  0  0  0  0  0  0
  -21.3310   -5.3160   24.9450 C   0  0  0  0  0  0  0  0  0  0  0  0
  -21.8620   -4.6040   23.8550 C   0  0  0  0  0  3  0  0  0  0  0  0
  -22.1190   -5.2670   22.6420 C   0  0  0  0  0  0  0  0  0  0  0  0
  -22.6090   -4.5730   21.5870 F   0  0  0  0  0  0  0  0  0  0  0  0
  -21.0780   -4.6750   26.1100 F   0  0  0  0  0  0  0  0  0  0  0  0
  -23.5660  -13.8050   20.9670 C   0  0  0  0  0  0  0  0  0  0  0  0
  -22.8980  -13.1520   21.9110 N   0  0  0  0  0  0  0  0  0  0  0  0
  -23.1420  -14.8630   20.5030 O   0  0  0  0  0  0  0  0  0  0  0  0
  -23.2550  -12.2980   22.3130 H   0  0  0  0  0  0  0  0  0  0  0  0
  -22.0130  -13.5170   22.2380 H   0  0  0  0  0  0  0  0  0  0  0  0
  -26.1960  -15.2980   19.8800 N   0  0  0  0  0  0  0  0  0  0  0  0
  -25.4790  -15.9900   20.0720 H   0  0  0  0  0  0  0  0  0  0  0  0
  -27.0200  -15.6950   19.4510 H   0  0  0  0  0  0  0  0  0  0  0  0
  -28.5090  -23.0240   20.2590 C   0  0  0  0  0  2  0  0  0  0  0  0
  -28.1170  -24.4050   19.6380 C   0  0  0  0  0  2  0  0  0  0  0  0
  -28.7030  -25.6460   20.3730 C   0  0  0  0  0  2  0  0  0  0  0  0
  -28.6030  -26.9120   19.6810 O   0  0  0  0  0  0  0  0  0  0  0  0
  -24.6520  -31.7590   23.1460 C   0  0  0  0  0  0  0  0  0  0  0  0
  -27.4120  -27.6010   19.7750 C   0  0  0  0  0  0  0  0  0  0  0  0
  -23.4800  -30.4280   21.4250 C   0  0  0  0  0  3  0  0  0  0  0  0
  -24.9720  -29.0350   19.8920 C   0  0  0  0  0  0  0  0  0  0  0  0
  -25.9940  -30.8790   21.2350 C   0  0  0  0  0  2  0  0  0  0  0  0
  -26.1180  -29.5550   20.5100 C   0  0  0  0  0  0  0  0  0  0  0  0
  -27.3410  -28.8440   20.4500 C   0  0  0  0  0  3  0  0  0  0  0  0
  -26.2560  -27.1120   19.1350 C   0  0  0  0  0  3  0  0  0  0  0  0
  -25.0360  -27.8110   19.2030 C   0  0  0  0  0  3  0  0  0  0  0  0
  -23.7000  -29.8480   20.0030 C   0  0  0  0  0  2  0  0  0  0  0  0
  -24.7280  -31.0330   21.9950 N   0  0  0  0  0  0  0  0  0  0  0  0
  -23.5660  -31.9600   23.7090 O   0  0  0  0  0  0  0  0  0  0  0  0
  -22.8700  -29.3240   22.3190 C   0  0  0  0  0  0  0  0  0  0  0  0
  -21.5520  -29.1040   22.1870 N   0  0  0  0  0  0  0  0  0  0  0  0
  -23.5800  -28.6700   23.0890 O   0  0  0  0  0  0  0  0  0  0  0  0
  -21.0370  -29.6910   21.5460 H   0  0  0  0  0  0  0  0  0  0  0  0
  -18.2290  -27.7500   22.6030 C   0  0  0  0  0  0  0  0  0  0  0  0
  -20.7760  -28.0850   22.8920 C   0  0  0  0  0  3  0  0  0  0  0  0
  -20.9310  -26.7030   22.2130 C   0  0  0  0  0  2  0  0  0  0  0  0
  -19.8380  -26.4100   21.1810 C   0  0  0  0  0  2  0  0  0  0  0  0
  -18.4540  -26.4600   21.8330 C   0  0  0  0  0  2  0  0  0  0  0  0
  -19.3200  -28.5220   23.0860 C   0  0  0  0  0  0  0  0  0  0  0  0
  -19.0550  -29.7370   23.7580 C   0  0  0  0  0  3  0  0  0  0  0  0
  -17.7350  -30.1800   23.9530 C   0  0  0  0  0  3  0  0  0  0  0  0
  -16.6590  -29.4010   23.4910 C   0  0  0  0  0  3  0  0  0  0  0  0
  -16.9070  -28.1910   22.8200 C   0  0  0  0  0  3  0  0  0  0  0  0
  -25.9210  -32.3910   23.7990 C   0  0  0  0  0  3  0  0  0  0  0  0
  -25.5910  -33.7760   24.1610 N   0  0  0  0  0  0  0  0  0  0  0  0
  -25.9360  -34.8530   23.4440 C   0  0  0  0  0  0  0  0  0  0  0  0
  -26.6400  -34.7880   22.4310 O   0  0  0  0  0  0  0  0  0  0  0  0
  -24.9720  -33.9010   24.9500 H   0  0  0  0  0  0  0  0  0  0  0  0
  -24.2030  -36.6400   23.0870 C   0  0  0  0  0  1  0  0  0  0  0  0
  -25.4210  -36.2230   23.9270 C   0  0  0  0  0  3  0  0  0  0  0  0
  -27.5150  -37.1030   24.8580 C   0  0  0  0  0  1  0  0  0  0  0  0
  -26.4460  -37.2870   23.8790 N   0  0  0  0  0  0  0  0  0  0  0  0
  -26.0280  -38.2000   24.0350 H   0  0  0  0  0  0  0  0  0  0  0  0
  -26.4340  -31.5930   25.0600 C   0  0  1  0  0  0  0  0  0  0  0  0
  -25.3350  -31.3160   26.1110 C   0  0  0  0  0  1  0  0  0  0  0  0
  -27.0350  -30.2330   24.6370 C   0  0  0  0  0  1  0  0  0  0  0  0
  -27.5700  -32.3830   25.7520 C   0  0  0  0  0  1  0  0  0  0  0  0
  2  8  1  0
  2  1  1  0
  2 48  1  0
  3  5  2  0
  3  7  1  0
  4  6  1  0
  5  8  1  0
  7  4  2  0
  8  6  2  0
  9 18  1  0
  9  7  1  0
 10 16  1  0
 10 18  1  0
 11 16  1  0
 12 13  1  0
 12 11  1  0
 14 13  1  0
 14 23  1  0
 14 15  1  0
 16 15  1  0
 17 10  2  0
 18 19  1  0
 20 21  2  0
 21 40  1  0
 22 21  1  0
 22 25  1  0
 23 24  1  0
 23 20  1  0
 24 22  2  0
 25 26  1  0
 26 27  2  0
 28 31  1  0
 28 27  1  0
 29 28  2  0
 30 29  1  0
 30 25  2  0
 31 32  1  0
 32 37  2  0
 32 33  1  0
 33 34  2  0
 34 35  1  0
 35 39  1  0
 36 35  2  0
 37 36  1  0
 38 37  1  0
 40 41  1  0
 41 44  1  0
 41 43  1  0
 42 40  2  0
 45 20  1  0
 45 46  1  0
 47 45  1  0
 49 48  1  0
 49 50  1  0
 51 53  1  0
 51 50  1  0
 52 63  2  0
 53 58  1  0
 54 62  1  0
 54 64  1  0
 55 61  1  0
 55 57  1  0
 56 62  1  0
 57 56  1  0
 58 57  2  0
 59 60  1  0
 59 53  2  0
 60 55  2  0
 61 54  1  0
 62 52  1  0
 64 66  2  0
 65 64  1  0
 67 65  1  0
 68 77  2  0
 68 73  1  0
 69 65  1  0
 69 73  1  0
 70 69  1  0
 71 72  1  0
 71 70  1  0
 72 68  1  0
 73 74  2  0
 74 75  1  0
 76 75  2  0
 77 76  1  0
 78 52  1  0
 78 79  1  0
 78 88  1  0
 79 82  1  0
 80 84  1  0
 80 79  1  0
 81 80  2  0
 84 83  1  0
 86 84  1  0
 86 87  1  0
 86 85  1  0
 88 91  1  1
 88 89  1  0
 90 88  1  0
M  ISO  4  10 100  18 100  50 101  51 101
M  END
>  <TORSDO>  (28) 
F 21

>  <SCORE>  (28) 
-11.167

>  <name>  (28) 
27

>  <ligand_id>  (28) 
27

>  <original_smiles>  (28) 
[H]c1c([H])c([H])c2c(c1[H])C([H])([H])C([H])([H])C([H])([H])C2([H])N([H])C(=O)C1([H])N(C(=O)C([H])(N([H])C(=O)C([H])(N([H])C([H])([H])[H])C([H])([H])[H])C(C([H])([H])[H])(C([H])([H])[H])C([H])([H])[H])C([H])([H])c2c([H])c(OC([H])([H])C([H])([H])C([H])([H])N(c3c([H])c([H])c(C([H])([H])N([H])C(=O)N4C([H])([H])C([H])([H])C([H])([H])C([H])(n5nc(-c6c([H])c([H])c(Oc7c([H])c([H])c(F)c([H])c7F)c([H])c6[H])c(C(=O)N([H])[H])c5N([H])[H])C4([H])[H])c([H])c3[H])C([H])([H])[H])c([H])c([H])c2C1([H])[H]

>  <smiles>  (28) 
[H]c1c([H])c([H])c2c(c1[H])C([H])([H])C([H])([H])C([H])([H])C2([H])N([H])C(=O)C1([H])N(C(=O)C([H])(N([H])C(=O)C([H])(N([H])C([H])([H])[H])C([H])([H])[H])C(C([H])([H])[H])(C([H])([H])[H])C([H])([H])[H])C([H])([H])c2c([H])c(OC([H])([H])C([H])([H])C([H])([H])N(c3c([H])c([H])c(C([H])([H])N([H])C(=O)N4C([H])([H])C([H])([H])C([H])([H])C([H])(n5nc(-c6c([H])c([H])c(Oc7c([H])c([H])c(F)c([H])c7F)c([H])c6[H])c(C(=O)N([H])[H])c5N([H])[H])C4([H])[H])c([H])c3[H])C([H])([H])[H])c([H])c([H])c2C1([H])[H]

$$$$
28:0:0
     RDKit          3D

 89 97  0  0  1  0  0  0  0  0999 V2000
  -28.7430  -21.3740   21.0060 O   0  0  0  0  0  0  0  0  0  0  0  0
  -30.6060  -18.2980   19.7180 C   0  0  0  0  0  3  0  0  0  0  0  0
  -28.6320  -17.6000   20.8990 C   0  0  0  0  0  3  0  0  0  0  0  0
  -30.2860  -19.6690   19.9710 C   0  0  0  0  0  3  0  0  0  0  0  0
  -28.3290  -18.9690   21.1680 C   0  0  0  0  0  3  0  0  0  0  0  0
  -29.7750  -17.2220   20.1520 C   0  0  0  0  0  0  0  0  0  0  0  0
  -29.1220  -20.0490   20.6900 C   0  0  0  0  0  0  0  0  0  0  0  0
  -30.6750  -14.8170   19.9440 C   0  0  0  0  0  0  0  0  0  0  0  0
  -30.4590  -12.5200   19.0130 C   0  0  0  0  0  2  0  0  0  0  0  0
  -29.4710  -12.5230   17.8260 C   0  0  0  0  0  2  0  0  0  0  0  0
  -28.0060  -12.4430   18.3130 C   0  0  0  0  0  2  0  0  0  0  0  0
  -27.6840  -13.3340   19.5470 C   0  0  0  0  0  3  0  0  0  0  0  0
  -28.7950  -13.2650   20.6140 C   0  0  0  0  0  2  0  0  0  0  0  0
  -30.0540  -13.5930   19.9400 N   0  0  0  0  0  0  0  0  0  0  0  0
  -31.8950  -14.8950   19.7630 O   0  0  0  0  0  0  0  0  0  0  0  0
  -29.6910  -15.9800   18.0910 C   0  0  0  0  0  1  0  0  0  0  0  0
  -29.8800  -15.8870   19.5530 N   0  0  0  0  0  0  0  0  0  0  0  0
  -25.3240  -13.9170   20.3730 C   0  0  0  0  0  0  0  0  0  0  0  0
  -24.2770  -13.1340   20.7760 C   0  0  0  0  0  0  0  0  0  0  0  0
  -24.7460  -11.7850   20.7190 C   0  0  0  0  0  0  0  0  0  0  0  0
  -26.3640  -13.0430   20.0950 N   0  0  0  0  0  0  0  0  0  0  0  0
  -26.0250  -11.7560   20.3680 N   0  0  0  0  0  0  0  0  0  0  0  0
  -24.0350  -10.5170   20.9220 C   0  0  0  0  0  0  0  0  0  0  0  0
  -24.4870   -9.5600   21.8570 C   0  0  0  0  0  3  0  0  0  0  0  0
  -23.7760   -8.3550   22.0460 C   0  0  0  0  0  3  0  0  0  0  0  0
  -22.6010   -8.1010   21.3020 C   0  0  0  0  0  0  0  0  0  0  0  0
  -22.1670   -9.0470   20.3560 C   0  0  0  0  0  3  0  0  0  0  0  0
  -22.8780  -10.2440   20.1650 C   0  0  0  0  0  3  0  0  0  0  0  0
  -21.8600   -6.9460   21.4010 O   0  0  0  0  0  0  0  0  0  0  0  0
  -21.7910   -6.2360   22.5720 C   0  0  0  0  0  0  0  0  0  0  0  0
  -21.3120   -6.8150   23.7690 C   0  0  0  0  0  3  0  0  0  0  0  0
  -21.1920   -6.0300   24.9330 C   0  0  0  0  0  3  0  0  0  0  0  0
  -21.5400   -4.6650   24.9010 C   0  0  0  0  0  0  0  0  0  0  0  0
  -22.0130   -4.0870   23.7100 C   0  0  0  0  0  3  0  0  0  0  0  0
  -22.1340   -4.8690   22.5480 C   0  0  0  0  0  0  0  0  0  0  0  0
  -22.5700   -4.3010   21.3980 F   0  0  0  0  0  0  0  0  0  0  0  0
  -21.4180   -3.9070   26.0160 F   0  0  0  0  0  0  0  0  0  0  0  0
  -22.8870  -13.6020   21.1000 C   0  0  0  0  0  0  0  0  0  0  0  0
  -22.1970  -12.9040   21.9950 N   0  0  0  0  0  0  0  0  0  0  0  0
  -22.4230  -14.6230   20.5940 O   0  0  0  0  0  0  0  0  0  0  0  0
  -22.5790  -12.0740   22.4240 H   0  0  0  0  0  0  0  0  0  0  0  0
  -21.2710  -13.2110   22.2610 H   0  0  0  0  0  0  0  0  0  0  0  0
  -25.4730  -15.2880   20.1930 N   0  0  0  0  0  0  0  0  0  0  0  0
  -24.6970  -15.9340   20.3020 H   0  0  0  0  0  0  0  0  0  0  0  0
  -26.2950  -15.7230   19.7930 H   0  0  0  0  0  0  0  0  0  0  0  0
  -28.9530  -22.5120   20.1040 C   0  0  0  0  0  3  0  0  0  0  0  0
  -28.5500  -23.9560   20.6780 C   0  0  0  0  0  3  0  0  0  0  0  0
  -28.5640  -25.2010   19.6740 C   0  0  0  0  0  2  0  0  0  0  0  0
  -28.4610  -26.6000   20.1730 O   0  0  0  0  0  0  0  0  0  0  0  0
  -24.5710  -31.8730   23.1470 C   0  0  0  0  0  0  0  0  0  0  0  0
  -27.3000  -27.3900   20.0880 C   0  0  0  0  0  0  0  0  0  0  0  0
  -23.4150  -30.4790   21.4700 C   0  0  0  0  0  3  0  0  0  0  0  0
  -24.9100  -28.9700   20.0460 C   0  0  0  0  0  0  0  0  0  0  0  0
  -25.9500  -30.8440   21.3230 C   0  0  0  0  0  2  0  0  0  0  0  0
  -26.0610  -29.4750   20.6620 C   0  0  0  0  0  0  0  0  0  0  0  0
  -27.2570  -28.6970   20.6670 C   0  0  0  0  0  3  0  0  0  0  0  0
  -26.1180  -26.9310   19.4650 C   0  0  0  0  0  3  0  0  0  0  0  0
  -24.9400  -27.7030   19.4430 C   0  0  0  0  0  3  0  0  0  0  0  0
  -23.6640  -29.8330   20.0810 C   0  0  0  0  0  2  0  0  0  0  0  0
  -24.6640  -31.0830   22.0370 N   0  0  0  0  0  0  0  0  0  0  0  0
  -23.4760  -32.1220   23.6710 O   0  0  0  0  0  0  0  0  0  0  0  0
  -22.7560  -29.4350   22.4030 C   0  0  0  0  0  0  0  0  0  0  0  0
  -21.4310  -29.2500   22.2650 N   0  0  0  0  0  0  0  0  0  0  0  0
  -23.4340  -28.7990   23.2140 O   0  0  0  0  0  0  0  0  0  0  0  0
  -20.9400  -29.8240   21.5920 H   0  0  0  0  0  0  0  0  0  0  0  0
  -18.0580  -28.0280   22.7360 C   0  0  0  0  0  0  0  0  0  0  0  0
  -20.6160  -28.2910   23.0120 C   0  0  0  0  0  3  0  0  0  0  0  0
  -20.7220  -26.8730   22.4050 C   0  0  0  0  0  2  0  0  0  0  0  0
  -19.6220  -26.5710   21.3820 C   0  0  0  0  0  2  0  0  0  0  0  0
  -18.2400  -26.6950   22.0290 C   0  0  0  0  0  2  0  0  0  0  0  0
  -19.1740  -28.7830   23.1850 C   0  0  0  0  0  0  0  0  0  0  0  0
  -18.9510  -30.0300   23.8100 C   0  0  0  0  0  3  0  0  0  0  0  0
  -17.6440  -30.5220   23.9870 C   0  0  0  0  0  3  0  0  0  0  0  0
  -16.5420  -29.7640   23.5530 C   0  0  0  0  0  3  0  0  0  0  0  0
  -16.7500  -28.5190   22.9350 C   0  0  0  0  0  3  0  0  0  0  0  0
  -25.8340  -32.5180   23.7970 C   0  0  0  0  0  3  0  0  0  0  0  0
  -26.3420  -31.7420   25.0750 C   0  0  1  0  0  0  0  0  0  0  0  0
  -25.2390  -31.4730   26.1260 C   0  0  0  0  0  1  0  0  0  0  0  0
  -26.9550  -30.3800   24.6780 C   0  0  0  0  0  1  0  0  0  0  0  0
  -27.4670  -32.5480   25.7630 C   0  0  0  0  0  1  0  0  0  0  0  0
  -25.4980  -33.9080   24.1390 N   0  0  0  0  0  0  0  0  0  0  0  0
  -25.8180  -34.9740   23.3930 C   0  0  0  0  0  0  0  0  0  0  0  0
  -26.4990  -34.8930   22.3680 O   0  0  0  0  0  0  0  0  0  0  0  0
  -24.9030  -34.0440   24.9420 H   0  0  0  0  0  0  0  0  0  0  0  0
  -24.0690  -36.7450   23.0290 C   0  0  0  0  0  1  0  0  0  0  0  0
  -25.3010  -36.3500   23.8580 C   0  0  0  0  0  3  0  0  0  0  0  0
  -27.4060  -37.2620   24.7370 C   0  0  0  0  0  1  0  0  0  0  0  0
  -26.3200  -37.4210   23.7740 N   0  0  0  0  0  0  0  0  0  0  0  0
  -25.8960  -38.3340   23.9230 H   0  0  0  0  0  0  0  0  0  0  0  0
  2  4  2  0
  2  6  1  0
  3  5  1  0
  4  7  1  0
  6  3  2  0
  7  1  1  0
  7  5  2  0
  9 14  1  0
 10 11  1  0
 10  9  1  0
 12 11  1  0
 12 21  1  0
 12 13  1  0
 14  8  1  0
 14 13  1  0
 15  8  2  0
 16 17  1  0
 17  8  1  0
 17  6  1  0
 18 19  2  0
 19 38  1  0
 20 19  1  0
 20 23  1  0
 21 22  1  0
 21 18  1  0
 22 20  2  0
 23 24  1  0
 24 25  2  0
 26 29  1  0
 26 25  1  0
 27 26  2  0
 28 27  1  0
 28 23  2  0
 29 30  1  0
 30 31  1  0
 31 32  2  0
 33 32  1  0
 33 37  1  0
 34 33  2  0
 35 30  2  0
 35 34  1  0
 36 35  1  0
 38 39  1  0
 39 42  1  0
 39 41  1  0
 40 38  2  0
 43 44  1  0
 43 18  1  0
 45 43  1  0
 46 47  2  0
 46  1  1  0
 48 49  1  0
 48 47  1  0
 50 61  2  0
 51 49  1  0
 51 56  1  0
 52 60  1  0
 52 62  1  0
 53 59  1  0
 53 55  1  0
 54 60  1  0
 55 56  2  0
 55 54  1  0
 57 51  2  0
 58 57  1  0
 58 53  2  0
 59 52  1  0
 60 50  1  0
 62 64  2  0
 63 62  1  0
 65 63  1  0
 66 75  2  0
 66 71  1  0
 67 63  1  0
 67 71  1  0
 68 67  1  0
 69 70  1  0
 69 68  1  0
 70 66  1  0
 71 72  2  0
 72 73  1  0
 74 73  2  0
 75 74  1  0
 76 50  1  0
 76 81  1  0
 76 77  1  0
 77 80  1  1
 77 78  1  0
 79 77  1  0
 81 84  1  0
 82 86  1  0
 82 81  1  0
 83 82  2  0
 86 85  1  0
 88 86  1  0
 88 89  1  0
 88 87  1  0
M  ISO  4   8 100  17 100  48 101  49 101
M  END
>  <TORSDO>  (29) 
F 20

>  <SCORE>  (29) 
-12.025

>  <name>  (29) 
28

>  <ligand_id>  (29) 
28

>  <original_smiles>  (29) 
[H]c1c([H])c([H])c2c(c1[H])C([H])([H])C([H])([H])C([H])([H])C2([H])N([H])C(=O)C1([H])N(C(=O)C([H])(N([H])C(=O)C([H])(N([H])C([H])([H])[H])C([H])([H])[H])C(C([H])([H])[H])(C([H])([H])[H])C([H])([H])[H])C([H])([H])c2c([H])c(OC([H])([H])C([H])([H])C([H])([H])Oc3c([H])c([H])c(N(C(=O)N4C([H])([H])C([H])([H])C([H])([H])C([H])(n5nc(-c6c([H])c([H])c(Oc7c([H])c([H])c(F)c([H])c7F)c([H])c6[H])c(C(=O)N([H])[H])c5N([H])[H])C4([H])[H])C([H])([H])[H])c([H])c3[H])c([H])c([H])c2C1([H])[H]

>  <smiles>  (29) 
[H]c1c([H])c([H])c2c(c1[H])C([H])([H])C([H])([H])C([H])([H])C2([H])N([H])C(=O)C1([H])N(C(=O)C([H])(N([H])C(=O)C([H])(N([H])C([H])([H])[H])C([H])([H])[H])C(C([H])([H])[H])(C([H])([H])[H])C([H])([H])[H])C([H])([H])c2c([H])c(OC([H])([H])C([H])([H])C([H])([H])Oc3c([H])c([H])c(N(C(=O)N4C([H])([H])C([H])([H])C([H])([H])C([H])(n5nc(-c6c([H])c([H])c(Oc7c([H])c([H])c(F)c([H])c7F)c([H])c6[H])c(C(=O)N([H])[H])c5N([H])[H])C4([H])[H])C([H])([H])[H])c([H])c3[H])c([H])c([H])c2C1([H])[H]

$$$$
29:0:0
     RDKit          3D

 90 98  0  0  1  0  0  0  0  0999 V2000
  -30.4780  -19.3910   20.9180 C   0  0  0  0  0  3  0  0  0  0  0  0
  -30.3790  -20.8110   20.9930 C   0  0  0  0  0  3  0  0  0  0  0  0
  -28.4530  -20.7790   19.5610 C   0  0  0  0  0  3  0  0  0  0  0  0
  -29.5940  -18.6130   20.1250 C   0  0  0  0  0  0  0  0  0  0  0  0
  -29.3710  -21.5540   20.3190 C   0  0  0  0  0  0  0  0  0  0  0  0
  -28.5730  -19.3580   19.4550 C   0  0  0  0  0  0  0  0  0  0  0  0
  -27.7060  -18.7010   18.6510 F   0  0  0  0  0  0  0  0  0  0  0  0
  -29.8200  -17.0730   19.8090 C   0  0  0  0  0  2  0  0  0  0  0  0
  -30.5890  -14.6650   20.3610 C   0  0  0  0  0  0  0  0  0  0  0  0
  -30.3600  -12.4160   19.3500 C   0  0  0  0  0  2  0  0  0  0  0  0
  -29.4230  -12.5630   18.1300 C   0  0  0  0  0  2  0  0  0  0  0  0
  -27.9500  -12.4140   18.5610 C   0  0  0  0  0  2  0  0  0  0  0  0
  -27.5970  -13.2720   19.8060 C   0  0  0  0  0  3  0  0  0  0  0  0
  -28.6590  -13.1250   20.9230 C   0  0  0  0  0  2  0  0  0  0  0  0
  -29.9660  -13.4440   20.3350 N   0  0  0  0  0  0  0  0  0  0  0  0
  -31.7480  -14.7940   19.9650 O   0  0  0  0  0  0  0  0  0  0  0  0
  -29.7890  -15.7650   20.5760 N   0  0  0  0  0  0  0  0  0  0  0  0
  -28.8940  -15.5450   20.9810 H   0  0  0  0  0  0  0  0  0  0  0  0
  -25.2050  -13.8700   20.5260 C   0  0  0  0  0  0  0  0  0  0  0  0
  -24.1390  -13.0950   20.8980 C   0  0  0  0  0  0  0  0  0  0  0  0
  -24.6020  -11.7450   20.8690 C   0  0  0  0  0  0  0  0  0  0  0  0
  -26.2490  -12.9900   20.2920 N   0  0  0  0  0  0  0  0  0  0  0  0
  -25.8920  -11.7070   20.5590 N   0  0  0  0  0  0  0  0  0  0  0  0
  -23.8770  -10.4800   21.0580 C   0  0  0  0  0  0  0  0  0  0  0  0
  -24.3190   -9.5090   21.9830 C   0  0  0  0  0  3  0  0  0  0  0  0
  -23.5910   -8.3120   22.1620 C   0  0  0  0  0  3  0  0  0  0  0  0
  -22.4110   -8.0790   21.4180 C   0  0  0  0  0  0  0  0  0  0  0  0
  -21.9880   -9.0420   20.4850 C   0  0  0  0  0  3  0  0  0  0  0  0
  -22.7150  -10.2290   20.3030 C   0  0  0  0  0  3  0  0  0  0  0  0
  -21.6540   -6.9360   21.5090 O   0  0  0  0  0  0  0  0  0  0  0  0
  -21.6240   -6.1810   22.6550 C   0  0  0  0  0  0  0  0  0  0  0  0
  -21.2300   -6.7260   23.8970 C   0  0  0  0  0  3  0  0  0  0  0  0
  -21.1470   -5.8980   25.0340 C   0  0  0  0  0  3  0  0  0  0  0  0
  -21.4480   -4.5260   24.9310 C   0  0  0  0  0  0  0  0  0  0  0  0
  -21.8380   -3.9820   23.6950 C   0  0  0  0  0  3  0  0  0  0  0  0
  -21.9220   -4.8070   22.5600 C   0  0  0  0  0  0  0  0  0  0  0  0
  -22.2750   -4.2720   21.3670 F   0  0  0  0  0  0  0  0  0  0  0  0
  -21.3620   -3.7300   26.0220 F   0  0  0  0  0  0  0  0  0  0  0  0
  -22.7410  -13.5730   21.1700 C   0  0  0  0  0  0  0  0  0  0  0  0
  -22.0170  -12.8770   22.0380 N   0  0  0  0  0  0  0  0  0  0  0  0
  -22.3020  -14.5990   20.6500 O   0  0  0  0  0  0  0  0  0  0  0  0
  -22.3830  -12.0480   22.4810 H   0  0  0  0  0  0  0  0  0  0  0  0
  -21.0780  -13.1750   22.2640 H   0  0  0  0  0  0  0  0  0  0  0  0
  -25.3700  -15.2410   20.3500 N   0  0  0  0  0  0  0  0  0  0  0  0
  -24.6010  -15.8940   20.4620 H   0  0  0  0  0  0  0  0  0  0  0  0
  -26.2160  -15.6850   20.0100 H   0  0  0  0  0  0  0  0  0  0  0  0
  -29.4340  -22.9650   20.3790 O   0  0  0  0  0  0  0  0  0  0  0  0
  -28.2820  -23.8690   20.2570 C   0  0  0  0  0  2  0  0  0  0  0  0
  -28.5790  -25.2840   19.5760 C   0  0  0  0  0  2  0  0  0  0  0  0
  -28.4080  -26.5710   20.2780 O   0  0  0  0  0  0  0  0  0  0  0  0
  -24.6020  -31.9050   23.2420 C   0  0  0  0  0  0  0  0  0  0  0  0
  -27.2480  -27.3550   20.2020 C   0  0  0  0  0  0  0  0  0  0  0  0
  -23.4060  -30.4980   21.6000 C   0  0  0  0  0  3  0  0  0  0  0  0
  -24.8640  -28.9380   20.1860 C   0  0  0  0  0  0  0  0  0  0  0  0
  -25.9410  -30.8230   21.4230 C   0  0  0  0  0  2  0  0  0  0  0  0
  -26.0250  -29.4400   20.7850 C   0  0  0  0  0  0  0  0  0  0  0  0
  -27.2130  -28.6570   20.7880 C   0  0  0  0  0  3  0  0  0  0  0  0
  -26.0620  -26.8890   19.5930 C   0  0  0  0  0  3  0  0  0  0  0  0
  -24.8840  -27.6660   19.5850 C   0  0  0  0  0  3  0  0  0  0  0  0
  -23.6230  -29.8080   20.2250 C   0  0  0  0  0  2  0  0  0  0  0  0
  -24.6690  -31.0930   22.1460 N   0  0  0  0  0  0  0  0  0  0  0  0
  -23.5170  -32.1820   23.7720 O   0  0  0  0  0  0  0  0  0  0  0  0
  -22.7410  -29.4860   22.5620 C   0  0  0  0  0  0  0  0  0  0  0  0
  -21.4160  -29.3100   22.4320 N   0  0  0  0  0  0  0  0  0  0  0  0
  -23.4170  -28.8630   23.3850 O   0  0  0  0  0  0  0  0  0  0  0  0
  -20.9280  -29.8650   21.7420 H   0  0  0  0  0  0  0  0  0  0  0  0
  -18.0370  -28.1220   22.9300 C   0  0  0  0  0  0  0  0  0  0  0  0
  -20.5960  -28.3750   23.2050 C   0  0  0  0  0  3  0  0  0  0  0  0
  -20.6960  -26.9420   22.6300 C   0  0  0  0  0  2  0  0  0  0  0  0
  -19.5950  -26.6210   21.6150 C   0  0  0  0  0  2  0  0  0  0  0  0
  -18.2110  -26.7720   22.2560 C   0  0  0  0  0  2  0  0  0  0  0  0
  -19.1580  -28.8810   23.3610 C   0  0  0  0  0  0  0  0  0  0  0  0
  -18.9410  -30.1450   23.9500 C   0  0  0  0  0  3  0  0  0  0  0  0
  -17.6370  -30.6500   24.1100 C   0  0  0  0  0  3  0  0  0  0  0  0
  -16.5310  -29.8880   23.6960 C   0  0  0  0  0  3  0  0  0  0  0  0
  -16.7320  -28.6250   23.1100 C   0  0  0  0  0  3  0  0  0  0  0  0
  -25.8850  -32.5410   23.8650 C   0  0  0  0  0  3  0  0  0  0  0  0
  -26.3970  -31.7730   25.1470 C   0  0  1  0  0  0  0  0  0  0  0  0
  -25.3000  -31.5390   26.2120 C   0  0  0  0  0  1  0  0  0  0  0  0
  -26.9810  -30.3930   24.7610 C   0  0  0  0  0  1  0  0  0  0  0  0
  -27.5450  -32.5710   25.8100 C   0  0  0  0  0  1  0  0  0  0  0  0
  -25.5730  -33.9400   24.1900 N   0  0  0  0  0  0  0  0  0  0  0  0
  -25.9100  -34.9900   23.4310 C   0  0  0  0  0  0  0  0  0  0  0  0
  -26.5850  -34.8840   22.4040 O   0  0  0  0  0  0  0  0  0  0  0  0
  -24.9720  -34.0950   24.9870 H   0  0  0  0  0  0  0  0  0  0  0  0
  -24.1850  -36.7840   23.0640 C   0  0  0  0  0  1  0  0  0  0  0  0
  -25.4210  -36.3800   23.8820 C   0  0  0  0  0  3  0  0  0  0  0  0
  -27.5530  -37.2650   24.7220 C   0  0  0  0  0  1  0  0  0  0  0  0
  -26.4550  -37.4320   23.7730 N   0  0  0  0  0  0  0  0  0  0  0  0
  -26.0490  -38.3530   23.9140 H   0  0  0  0  0  0  0  0  0  0  0  0
  1  2  1  0
  3  5  1  0
  4  1  2  0
  5 47  1  0
  5  2  2  0
  6  3  2  0
  6  4  1  0
  7  6  1  0
  8  4  1  0
  8 17  1  0
  9 17  1  0
 10 15  1  0
 11 12  1  0
 11 10  1  0
 13 12  1  0
 13 22  1  0
 13 14  1  0
 15  9  1  0
 15 14  1  0
 16  9  2  0
 17 18  1  0
 19 20  2  0
 20 39  1  0
 21 20  1  0
 21 24  1  0
 22 19  1  0
 22 23  1  0
 23 21  2  0
 24 25  1  0
 25 26  2  0
 27 30  1  0
 27 26  1  0
 28 27  2  0
 29 28  1  0
 29 24  2  0
 30 31  1  0
 31 32  1  0
 32 33  2  0
 34 33  1  0
 34 38  1  0
 35 34  2  0
 36 31  2  0
 36 35  1  0
 37 36  1  0
 39 40  1  0
 40 43  1  0
 40 42  1  0
 41 39  2  0
 44 45  1  0
 44 19  1  0
 46 44  1  0
 48 47  1  0
 49 48  1  0
 49 50  1  0
 51 62  2  0
 52 50  1  0
 52 57  1  0
 53 61  1  0
 53 63  1  0
 54 60  1  0
 54 56  1  0
 55 61  1  0
 56 57  2  0
 56 55  1  0
 58 52  2  0
 59 58  1  0
 59 54  2  0
 60 53  1  0
 61 51  1  0
 63 65  2  0
 64 63  1  0
 66 64  1  0
 67 76  2  0
 67 72  1  0
 68 64  1  0
 68 72  1  0
 69 68  1  0
 70 71  1  0
 70 69  1  0
 71 67  1  0
 72 73  2  0
 73 74  1  0
 75 74  2  0
 76 75  1  0
 77 51  1  0
 77 82  1  0
 77 78  1  0
 78 81  1  1
 78 79  1  0
 80 78  1  0
 82 85  1  0
 83 87  1  0
 83 82  1  0
 84 83  2  0
 87 86  1  0
 89 87  1  0
 89 90  1  0
 89 88  1  0
M  ISO  4   9 100  17 100  49 101  50 101
M  END
>  <TORSDO>  (30) 
F 20

>  <SCORE>  (30) 
-14.010

>  <name>  (30) 
29

>  <ligand_id>  (30) 
29

>  <original_smiles>  (30) 
[H]c1c([H])c([H])c2c(c1[H])C([H])([H])C([H])([H])C([H])([H])C2([H])N([H])C(=O)C1([H])N(C(=O)C([H])(N([H])C(=O)C([H])(N([H])C([H])([H])[H])C([H])([H])[H])C(C([H])([H])[H])(C([H])([H])[H])C([H])([H])[H])C([H])([H])c2c([H])c(OC([H])([H])C([H])([H])Oc3c([H])c([H])c(C([H])([H])N([H])C(=O)N4C([H])([H])C([H])([H])C([H])([H])C([H])(n5nc(-c6c([H])c([H])c(Oc7c([H])c([H])c(F)c([H])c7F)c([H])c6[H])c(C(=O)N([H])[H])c5N([H])[H])C4([H])[H])c(F)c3[H])c([H])c([H])c2C1([H])[H]

>  <smiles>  (30) 
[H]c1c([H])c([H])c2c(c1[H])C([H])([H])C([H])([H])C([H])([H])C2([H])N([H])C(=O)C1([H])N(C(=O)C([H])(N([H])C(=O)C([H])(N([H])C([H])([H])[H])C([H])([H])[H])C(C([H])([H])[H])(C([H])([H])[H])C([H])([H])[H])C([H])([H])c2c([H])c(OC([H])([H])C([H])([H])Oc3c([H])c([H])c(C([H])([H])N([H])C(=O)N4C([H])([H])C([H])([H])C([H])([H])C([H])(n5nc(-c6c([H])c([H])c(Oc7c([H])c([H])c(F)c([H])c7F)c([H])c6[H])c(C(=O)N([H])[H])c5N([H])[H])C4([H])[H])c(F)c3[H])c([H])c([H])c2C1([H])[H]

$$$$
30:0:0
     RDKit          3D

 97106  0  0  1  0  0  0  0  0999 V2000
  -31.3110  -21.2160   19.7990 C   0  0  0  0  0  3  0  0  0  0  0  0
  -31.1100  -22.1420   18.7570 C   0  0  0  0  0  3  0  0  0  0  0  0
  -28.7310  -22.1680   19.2390 C   0  0  0  0  0  3  0  0  0  0  0  0
  -30.2320  -20.7600   20.5910 C   0  0  0  0  0  0  0  0  0  0  0  0
  -29.8230  -22.6530   18.4980 C   0  0  0  0  0  0  0  0  0  0  0  0
  -28.9260  -21.2220   20.2660 C   0  0  0  0  0  0  0  0  0  0  0  0
  -27.8330  -20.7650   20.9220 F   0  0  0  0  0  0  0  0  0  0  0  0
  -30.5100  -19.8680   21.6570 N   0  0  0  0  0  0  0  0  0  0  0  0
  -31.3120  -14.5530   19.9560 C   0  0  0  0  0  0  0  0  0  0  0  0
  -30.7760  -12.4790   18.7060 C   0  0  0  0  0  2  0  0  0  0  0  0
  -29.7780  -12.7740   17.5660 C   0  0  0  0  0  2  0  0  0  0  0  0
  -28.3270  -12.6880   18.0750 C   0  0  0  0  0  2  0  0  0  0  0  0
  -28.1160  -13.4980   19.3760 C   0  0  0  0  0  3  0  0  0  0  0  0
  -29.2230  -13.1740   20.4180 C   0  0  0  0  0  2  0  0  0  0  0  0
  -30.5230  -13.4490   19.7860 N   0  0  0  0  0  0  0  0  0  0  0  0
  -32.4140  -14.6380   19.3940 O   0  0  0  0  0  0  0  0  0  0  0  0
  -29.4600  -17.7410   20.9050 C   0  0  0  0  0  2  0  0  0  0  0  0
  -31.5010  -17.6170   22.2290 C   0  0  0  0  0  2  0  0  0  0  0  0
  -29.6660  -16.3130   20.3680 C   0  0  0  0  0  2  0  0  0  0  0  0
  -31.8860  -16.2380   21.6360 C   0  0  0  0  0  2  0  0  0  0  0  0
  -30.7550  -18.4830   21.2110 C   0  0  0  0  0  3  0  0  0  0  0  0
  -30.8770  -15.5560   20.7770 N   0  0  0  0  0  0  0  0  0  0  0  0
  -25.8160  -14.2640   20.2360 C   0  0  0  0  0  0  0  0  0  0  0  0
  -24.7210  -13.5590   20.6560 C   0  0  0  0  0  0  0  0  0  0  0  0
  -25.0880  -12.1810   20.5770 C   0  0  0  0  0  0  0  0  0  0  0  0
  -26.7790  -13.3150   19.9280 N   0  0  0  0  0  0  0  0  0  0  0  0
  -26.3490  -12.0580   20.1890 N   0  0  0  0  0  0  0  0  0  0  0  0
  -24.2890  -10.9680   20.7810 C   0  0  0  0  0  0  0  0  0  0  0  0
  -24.6770   -9.9790   21.7130 C   0  0  0  0  0  3  0  0  0  0  0  0
  -23.8850   -8.8250   21.8990 C   0  0  0  0  0  3  0  0  0  0  0  0
  -22.6920   -8.6560   21.1540 C   0  0  0  0  0  0  0  0  0  0  0  0
  -22.3240   -9.6330   20.2130 C   0  0  0  0  0  3  0  0  0  0  0  0
  -23.1170  -10.7780   20.0230 C   0  0  0  0  0  3  0  0  0  0  0  0
  -21.8690   -7.5610   21.2540 O   0  0  0  0  0  0  0  0  0  0  0  0
  -21.7410   -6.8620   22.4280 C   0  0  0  0  0  0  0  0  0  0  0  0
  -21.3060   -7.4810   23.6210 C   0  0  0  0  0  3  0  0  0  0  0  0
  -21.1310   -6.7120   24.7900 C   0  0  0  0  0  3  0  0  0  0  0  0
  -21.3760   -5.3250   24.7630 C   0  0  0  0  0  0  0  0  0  0  0  0
  -21.7970   -4.7050   23.5730 C   0  0  0  0  0  3  0  0  0  0  0  0
  -21.9800   -5.4730   22.4110 C   0  0  0  0  0  0  0  0  0  0  0  0
  -22.3680   -4.8690   21.2620 F   0  0  0  0  0  0  0  0  0  0  0  0
  -21.1990   -4.5850   25.8820 F   0  0  0  0  0  0  0  0  0  0  0  0
  -23.3790  -14.1240   21.0190 C   0  0  0  0  0  0  0  0  0  0  0  0
  -22.6580  -13.4640   21.9170 N   0  0  0  0  0  0  0  0  0  0  0  0
  -22.9840  -15.1860   20.5410 O   0  0  0  0  0  0  0  0  0  0  0  0
  -22.9940  -12.6030   22.3200 H   0  0  0  0  0  0  0  0  0  0  0  0
  -21.7570  -13.8210   22.2030 H   0  0  0  0  0  0  0  0  0  0  0  0
  -26.0600  -15.6250   20.0750 N   0  0  0  0  0  0  0  0  0  0  0  0
  -25.3340  -16.3160   20.2350 H   0  0  0  0  0  0  0  0  0  0  0  0
  -26.9060  -16.0190   19.6900 H   0  0  0  0  0  0  0  0  0  0  0  0
  -30.0420  -21.5010   23.5590 C   0  0  0  0  0  1  0  0  0  0  0  0
  -29.8490  -20.0980   22.9520 C   0  0  0  0  0  2  0  0  0  0  0  0
  -29.6240  -23.6280   17.5520 O   0  0  0  0  0  0  0  0  0  0  0  0
  -30.1700  -24.8950   17.9200 C   0  0  0  0  0  2  0  0  0  0  0  0
  -29.1480  -26.0170   17.6580 C   0  0  0  0  0  2  0  0  0  0  0  0
  -29.1700  -27.1300   18.7210 C   0  0  0  0  0  2  0  0  0  0  0  0
  -28.3230  -26.7800   19.8110 O   0  0  0  0  0  0  0  0  0  0  0  0
  -24.5300  -31.7600   23.1720 C   0  0  0  0  0  0  0  0  0  0  0  0
  -27.1520  -27.4930   19.8750 C   0  0  0  0  0  0  0  0  0  0  0  0
  -23.2960  -30.4130   21.4990 C   0  0  0  0  0  3  0  0  0  0  0  0
  -24.7340  -28.9320   19.9960 C   0  0  0  0  0  0  0  0  0  0  0  0
  -25.8090  -30.8060   21.2620 C   0  0  0  0  0  2  0  0  0  0  0  0
  -25.8940  -29.4600   20.5780 C   0  0  0  0  0  0  0  0  0  0  0  0
  -27.1080  -28.7450   20.5230 C   0  0  0  0  0  3  0  0  0  0  0  0
  -25.9810  -26.9620   19.3020 C   0  0  0  0  0  3  0  0  0  0  0  0
  -24.7700  -27.6810   19.3580 C   0  0  0  0  0  3  0  0  0  0  0  0
  -23.4800  -29.7710   20.0970 C   0  0  0  0  0  2  0  0  0  0  0  0
  -24.5640  -31.0050   22.0380 N   0  0  0  0  0  0  0  0  0  0  0  0
  -23.4600  -32.0030   23.7480 O   0  0  0  0  0  0  0  0  0  0  0  0
  -22.6690  -29.3580   22.4390 C   0  0  0  0  0  0  0  0  0  0  0  0
  -21.3500  -29.1360   22.3010 N   0  0  0  0  0  0  0  0  0  0  0  0
  -23.3660  -28.7390   23.2450 O   0  0  0  0  0  0  0  0  0  0  0  0
  -20.8430  -29.6800   21.6180 H   0  0  0  0  0  0  0  0  0  0  0  0
  -18.0260  -27.7930   22.7290 C   0  0  0  0  0  0  0  0  0  0  0  0
  -20.5640  -28.1590   23.0520 C   0  0  0  0  0  3  0  0  0  0  0  0
  -20.7450  -26.7380   22.4740 C   0  0  0  0  0  2  0  0  0  0  0  0
  -19.6820  -26.3730   21.4330 C   0  0  0  0  0  2  0  0  0  0  0  0
  -18.2790  -26.4570   22.0460 C   0  0  0  0  0  2  0  0  0  0  0  0
  -19.1030  -28.5970   23.1860 C   0  0  0  0  0  0  0  0  0  0  0  0
  -18.8200  -29.8480   23.7810 C   0  0  0  0  0  3  0  0  0  0  0  0
  -17.4940  -30.2970   23.9150 C   0  0  0  0  0  3  0  0  0  0  0  0
  -16.4310  -29.4930   23.4720 C   0  0  0  0  0  3  0  0  0  0  0  0
  -16.6970  -28.2390   22.8890 C   0  0  0  0  0  3  0  0  0  0  0  0
  -25.8290  -32.3770   23.7830 C   0  0  0  0  0  3  0  0  0  0  0  0
  -25.5270  -33.7700   24.1410 N   0  0  0  0  0  0  0  0  0  0  0  0
  -25.8590  -34.8340   23.3990 C   0  0  0  0  0  0  0  0  0  0  0  0
  -26.5240  -34.7430   22.3620 O   0  0  0  0  0  0  0  0  0  0  0  0
  -24.9360  -33.9140   24.9480 H   0  0  0  0  0  0  0  0  0  0  0  0
  -24.1350  -36.6390   23.0840 C   0  0  0  0  0  1  0  0  0  0  0  0
  -25.3810  -36.2180   23.8790 C   0  0  0  0  0  3  0  0  0  0  0  0
  -27.5270  -37.0830   24.7030 C   0  0  0  0  0  1  0  0  0  0  0  0
  -26.4160  -37.2690   23.7730 N   0  0  0  0  0  0  0  0  0  0  0  0
  -26.0130  -38.1870   23.9410 H   0  0  0  0  0  0  0  0  0  0  0  0
  -26.3630  -31.5790   25.0360 C   0  0  1  0  0  0  0  0  0  0  0  0
  -25.2850  -31.3190   26.1120 C   0  0  0  0  0  1  0  0  0  0  0  0
  -26.9450  -30.2100   24.6100 C   0  0  0  0  0  1  0  0  0  0  0  0
  -27.5240  -32.3580   25.6970 C   0  0  0  0  0  1  0  0  0  0  0  0
  1  4  1  0
  2  1  2  0
  3  6  1  0
  4  8  1  0
  5  2  1  0
  5  3  2  0
  6  4  2  0
  6  7  1  0
  8 52  1  0
  9 22  1  0
 10 15  1  0
 11 12  1  0
 11 10  1  0
 13 12  1  0
 13 26  1  0
 13 14  1  0
 15  9  1  0
 15 14  1  0
 16  9  2  0
 17 21  1  0
 19 22  1  0
 19 17  1  0
 20 18  1  0
 21  8  1  0
 21 18  1  0
 22 20  1  0
 23 24  2  0
 24 43  1  0
 25 24  1  0
 25 28  1  0
 26 27  1  0
 26 23  1  0
 27 25  2  0
 28 29  1  0
 29 30  2  0
 31 34  1  0
 31 30  1  0
 32 31  2  0
 33 32  1  0
 33 28  2  0
 34 35  1  0
 35 36  1  0
 36 37  2  0
 38 37  1  0
 38 42  1  0
 39 38  2  0
 40 35  2  0
 40 39  1  0
 41 40  1  0
 43 44  1  0
 44 47  1  0
 44 46  1  0
 45 43  2  0
 48 49  1  0
 48 23  1  0
 50 48  1  0
 52 51  1  0
 53 54  1  0
 53  5  1  0
 55 54  1  0
 55 56  1  0
 56 57  1  0
 57 59  1  0
 58 69  2  0
 59 64  1  0
 60 68  1  0
 60 70  1  0
 61 67  1  0
 61 63  1  0
 62 68  1  0
 63 62  1  0
 64 63  2  0
 65 66  1  0
 65 59  2  0
 66 61  2  0
 67 60  1  0
 68 58  1  0
 70 72  2  0
 71 70  1  0
 73 71  1  0
 74 83  2  0
 74 79  1  0
 75 71  1  0
 75 79  1  0
 76 75  1  0
 77 78  1  0
 77 76  1  0
 78 74  1  0
 79 80  2  0
 80 81  1  0
 82 81  2  0
 83 82  1  0
 84 58  1  0
 84 85  1  0
 84 94  1  0
 85 88  1  0
 86 90  1  0
 86 85  1  0
 87 86  2  0
 90 89  1  0
 92 90  1  0
 92 93  1  0
 92 91  1  0
 94 97  1  1
 94 95  1  0
 96 94  1  0
M  ISO  4   9 100  22 100  56 101  57 101
M  END
>  <TORSDO>  (31) 
F 22

>  <SCORE>  (31) 
-10.899

>  <name>  (31) 
30

>  <ligand_id>  (31) 
30

>  <original_smiles>  (31) 
[H]c1c([H])c([H])c2c(c1[H])C([H])([H])C([H])([H])C([H])([H])C2([H])N([H])C(=O)C1([H])N(C(=O)C([H])(N([H])C(=O)C([H])(N([H])C([H])([H])[H])C([H])([H])[H])C(C([H])([H])[H])(C([H])([H])[H])C([H])([H])[H])C([H])([H])c2c([H])c(OC([H])([H])C([H])([H])C([H])([H])Oc3c([H])c([H])c(N(C([H])([H])C([H])([H])[H])C4([H])C([H])([H])C([H])([H])N(C(=O)N5C([H])([H])C([H])([H])C([H])([H])C([H])(n6nc(-c7c([H])c([H])c(Oc8c([H])c([H])c(F)c([H])c8F)c([H])c7[H])c(C(=O)N([H])[H])c6N([H])[H])C5([H])[H])C([H])([H])C4([H])[H])c(F)c3[H])c([H])c([H])c2C1([H])[H]

>  <smiles>  (31) 
[H]c1c([H])c([H])c2c(c1[H])C([H])([H])C([H])([H])C([H])([H])C2([H])N([H])C(=O)C1([H])N(C(=O)C([H])(N([H])C(=O)C([H])(N([H])C([H])([H])[H])C([H])([H])[H])C(C([H])([H])[H])(C([H])([H])[H])C([H])([H])[H])C([H])([H])c2c([H])c(OC([H])([H])C([H])([H])C([H])([H])Oc3c([H])c([H])c(N(C([H])([H])C([H])([H])[H])C4([H])C([H])([H])C([H])([H])N(C(=O)N5C([H])([H])C([H])([H])C([H])([H])C([H])(n6nc(-c7c([H])c([H])c(Oc8c([H])c([H])c(F)c([H])c8F)c([H])c7[H])c(C(=O)N([H])[H])c6N([H])[H])C5([H])[H])C([H])([H])C4([H])[H])c(F)c3[H])c([H])c([H])c2C1([H])[H]

$$$$
31:0:0
     RDKit          3D

 94103  0  0  1  0  0  0  0  0999 V2000
  -30.0060  -19.3170   21.8370 C   0  0  0  0  0  3  0  0  0  0  0  0
  -30.0140  -17.8890   21.8270 C   0  0  0  0  0  3  0  0  0  0  0  0
  -30.4070  -17.8720   19.4410 C   0  0  0  0  0  3  0  0  0  0  0  0
  -30.1350  -20.0490   20.6300 C   0  0  0  0  0  0  0  0  0  0  0  0
  -30.3490  -19.2970   19.4650 C   0  0  0  0  0  0  0  0  0  0  0  0
  -30.2220  -17.1280   20.6430 C   0  0  0  0  0  0  0  0  0  0  0  0
  -30.5420  -20.2100   18.2820 C   0  0  0  0  0  2  0  0  0  0  0  0
  -30.1620  -21.6230   18.8040 C   0  0  0  0  0  2  0  0  0  0  0  0
  -30.2220  -21.5980   20.3600 C   0  0  0  0  0  3  0  0  0  0  0  0
  -30.7890  -14.6760   20.0610 C   0  0  0  0  0  0  0  0  0  0  0  0
  -30.4910  -12.4800   18.9270 C   0  0  0  0  0  2  0  0  0  0  0  0
  -29.4830  -12.6640   17.7710 C   0  0  0  0  0  2  0  0  0  0  0  0
  -28.0360  -12.5020   18.2770 C   0  0  0  0  0  2  0  0  0  0  0  0
  -27.7580  -13.3270   19.5640 C   0  0  0  0  0  3  0  0  0  0  0  0
  -28.8740  -13.1100   20.6100 C   0  0  0  0  0  2  0  0  0  0  0  0
  -30.1580  -13.4610   19.9800 N   0  0  0  0  0  0  0  0  0  0  0  0
  -31.8820  -14.8710   19.5190 O   0  0  0  0  0  0  0  0  0  0  0  0
  -30.1080  -15.6740   20.7000 N   0  0  0  0  0  0  0  0  0  0  0  0
  -29.3340  -15.3370   21.2520 H   0  0  0  0  0  0  0  0  0  0  0  0
  -25.4090  -13.9230   20.4280 C   0  0  0  0  0  0  0  0  0  0  0  0
  -24.3590  -13.1450   20.8410 C   0  0  0  0  0  0  0  0  0  0  0  0
  -24.8130  -11.7940   20.7530 C   0  0  0  0  0  0  0  0  0  0  0  0
  -26.4330  -13.0440   20.1130 N   0  0  0  0  0  0  0  0  0  0  0  0
  -26.0830  -11.7560   20.3670 N   0  0  0  0  0  0  0  0  0  0  0  0
  -24.0930  -10.5300   20.9590 C   0  0  0  0  0  0  0  0  0  0  0  0
  -24.5420   -9.5670   21.8890 C   0  0  0  0  0  3  0  0  0  0  0  0
  -23.8210   -8.3690   22.0830 C   0  0  0  0  0  3  0  0  0  0  0  0
  -22.6400   -8.1250   21.3440 C   0  0  0  0  0  0  0  0  0  0  0  0
  -22.2110   -9.0760   20.4030 C   0  0  0  0  0  3  0  0  0  0  0  0
  -22.9310  -10.2660   20.2080 C   0  0  0  0  0  3  0  0  0  0  0  0
  -21.8900   -6.9770   21.4460 O   0  0  0  0  0  0  0  0  0  0  0  0
  -21.8250   -6.2620   22.6150 C   0  0  0  0  0  0  0  0  0  0  0  0
  -21.3280   -6.8280   23.8090 C   0  0  0  0  0  3  0  0  0  0  0  0
  -21.2120   -6.0370   24.9690 C   0  0  0  0  0  3  0  0  0  0  0  0
  -21.5850   -4.6790   24.9360 C   0  0  0  0  0  0  0  0  0  0  0  0
  -22.0750   -4.1130   23.7460 C   0  0  0  0  0  3  0  0  0  0  0  0
  -22.1920   -4.9010   22.5890 C   0  0  0  0  0  0  0  0  0  0  0  0
  -22.6460   -4.3450   21.4390 F   0  0  0  0  0  0  0  0  0  0  0  0
  -21.4670   -3.9160   26.0490 F   0  0  0  0  0  0  0  0  0  0  0  0
  -22.9830  -13.6220   21.2060 C   0  0  0  0  0  0  0  0  0  0  0  0
  -22.2990  -12.9040   22.0900 N   0  0  0  0  0  0  0  0  0  0  0  0
  -22.5250  -14.6660   20.7440 O   0  0  0  0  0  0  0  0  0  0  0  0
  -22.6820  -12.0570   22.4840 H   0  0  0  0  0  0  0  0  0  0  0  0
  -21.3790  -13.2040   22.3760 H   0  0  0  0  0  0  0  0  0  0  0  0
  -25.5680  -15.2970   20.2790 N   0  0  0  0  0  0  0  0  0  0  0  0
  -24.8140  -15.9480   20.4680 H   0  0  0  0  0  0  0  0  0  0  0  0
  -26.4110  -15.7500   19.9460 H   0  0  0  0  0  0  0  0  0  0  0  0
  -29.2560  -22.3790   22.4910 C   0  0  0  0  0  1  0  0  0  0  0  0
  -29.2720  -22.6060   21.0220 N   0  0  1  0  0  4  0  0  0  0  0  0
  -28.3480  -22.3710   20.6930 H   0  0  0  0  0  0  0  0  0  0  0  0
  -29.5020  -24.0940   20.6910 C   0  0  0  0  0  2  0  0  0  0  0  0
  -27.5030  -25.1520   22.0060 C   0  0  0  0  0  1  0  0  0  0  0  0
  -28.2410  -25.0910   20.6440 C   0  0  0  0  0  3  0  0  0  0  0  0
  -28.5140  -26.4990   20.2360 O   0  0  0  0  0  0  0  0  0  0  0  0
  -24.6280  -31.7760   23.1650 C   0  0  0  0  0  0  0  0  0  0  0  0
  -27.4070  -27.3520   20.0940 C   0  0  0  0  0  0  0  0  0  0  0  0
  -23.4870  -30.3760   21.4800 C   0  0  0  0  0  3  0  0  0  0  0  0
  -25.0050  -28.8960   20.0480 C   0  0  0  0  0  0  0  0  0  0  0  0
  -26.0210  -30.7640   21.3490 C   0  0  0  0  0  2  0  0  0  0  0  0
  -26.1470  -29.4050   20.6800 C   0  0  0  0  0  0  0  0  0  0  0  0
  -27.3530  -28.6460   20.6920 C   0  0  0  0  0  3  0  0  0  0  0  0
  -26.2510  -26.9040   19.4120 C   0  0  0  0  0  3  0  0  0  0  0  0
  -25.0610  -27.6530   19.3990 C   0  0  0  0  0  3  0  0  0  0  0  0
  -23.7410  -29.7290   20.0930 C   0  0  0  0  0  2  0  0  0  0  0  0
  -24.7280  -30.9890   22.0550 N   0  0  0  0  0  0  0  0  0  0  0  0
  -23.5290  -32.0220   23.6820 O   0  0  0  0  0  0  0  0  0  0  0  0
  -22.8320  -29.3300   22.4120 C   0  0  0  0  0  0  0  0  0  0  0  0
  -21.5080  -29.1410   22.2730 N   0  0  0  0  0  0  0  0  0  0  0  0
  -23.5130  -28.6910   23.2180 O   0  0  0  0  0  0  0  0  0  0  0  0
  -21.0190  -29.7110   21.5970 H   0  0  0  0  0  0  0  0  0  0  0  0
  -18.1310  -27.9380   22.7540 C   0  0  0  0  0  0  0  0  0  0  0  0
  -20.6920  -28.1780   23.0160 C   0  0  0  0  0  3  0  0  0  0  0  0
  -20.7860  -26.7690   22.3870 C   0  0  0  0  0  2  0  0  0  0  0  0
  -19.6750  -26.4870   21.3700 C   0  0  0  0  0  2  0  0  0  0  0  0
  -18.2970  -26.6150   22.0260 C   0  0  0  0  0  2  0  0  0  0  0  0
  -19.2560  -28.6800   23.2030 C   0  0  0  0  0  0  0  0  0  0  0  0
  -19.0470  -29.9220   23.8410 C   0  0  0  0  0  3  0  0  0  0  0  0
  -17.7450  -30.4210   24.0370 C   0  0  0  0  0  3  0  0  0  0  0  0
  -16.6350  -29.6750   23.6050 C   0  0  0  0  0  3  0  0  0  0  0  0
  -16.8280  -28.4360   22.9680 C   0  0  0  0  0  3  0  0  0  0  0  0
  -25.8850  -32.4270   23.8210 C   0  0  0  0  0  3  0  0  0  0  0  0
  -26.3750  -31.6640   25.1130 C   0  0  1  0  0  0  0  0  0  0  0  0
  -25.2530  -31.4090   26.1450 C   0  0  0  0  0  1  0  0  0  0  0  0
  -26.9970  -30.2980   24.7400 C   0  0  0  0  0  1  0  0  0  0  0  0
  -27.4910  -32.4820   25.8070 C   0  0  0  0  0  1  0  0  0  0  0  0
  -25.5490  -33.8210   24.1400 N   0  0  0  0  0  0  0  0  0  0  0  0
  -25.8860  -34.8770   23.3870 C   0  0  0  0  0  0  0  0  0  0  0  0
  -26.5800  -34.7800   22.3710 O   0  0  0  0  0  0  0  0  0  0  0  0
  -24.9360  -33.9730   24.9280 H   0  0  0  0  0  0  0  0  0  0  0  0
  -24.1470  -36.6490   22.9800 C   0  0  0  0  0  1  0  0  0  0  0  0
  -25.3680  -36.2590   23.8280 C   0  0  0  0  0  3  0  0  0  0  0  0
  -27.4610  -37.1730   24.7290 C   0  0  0  0  0  1  0  0  0  0  0  0
  -26.3910  -37.3240   23.7460 N   0  0  0  0  0  0  0  0  0  0  0  0
  -25.9700  -38.2400   23.8750 H   0  0  0  0  0  0  0  0  0  0  0  0
  2  1  1  0
  3  5  2  0
  3  6  1  0
  4  1  2  0
  5  4  1  0
  6 18  1  0
  6  2  2  0
  7  8  1  0
  7  5  1  0
  8  9  1  0
  9  4  1  0
  9 49  1  0
 10 18  1  0
 11 16  1  0
 12 13  1  0
 12 11  1  0
 14 13  1  0
 14 23  1  0
 14 15  1  0
 16 10  1  0
 16 15  1  0
 17 10  2  0
 18 19  1  0
 20 21  2  0
 21 40  1  0
 22 21  1  0
 22 25  1  0
 23 24  1  0
 23 20  1  0
 24 22  2  0
 25 26  1  0
 26 27  2  0
 28 31  1  0
 28 27  1  0
 29 28  2  0
 30 29  1  0
 30 25  2  0
 31 32  1  0
 32 33  1  0
 33 34  2  0
 35 34  1  0
 35 39  1  0
 36 35  2  0
 37 32  2  0
 37 36  1  0
 38 37  1  0
 40 41  1  0
 41 44  1  0
 41 43  1  0
 42 40  2  0
 45 20  1  0
 45 46  1  0
 47 45  1  0
 49 48  1  0
 49 50  1  6
 51 49  1  0
 53 51  1  0
 53 52  1  0
 54 53  1  0
 55 66  2  0
 56 54  1  0
 56 61  1  0
 57 65  1  0
 57 67  1  0
 58 64  1  0
 58 60  1  0
 59 65  1  0
 60 61  2  0
 60 59  1  0
 62 56  2  0
 63 62  1  0
 63 58  2  0
 64 57  1  0
 65 55  1  0
 67 69  2  0
 68 67  1  0
 70 68  1  0
 71 80  2  0
 71 76  1  0
 72 68  1  0
 72 76  1  0
 73 72  1  0
 74 75  1  0
 74 73  1  0
 75 71  1  0
 76 77  2  0
 77 78  1  0
 79 78  2  0
 80 79  1  0
 81 55  1  0
 81 86  1  0
 81 82  1  0
 82 85  1  1
 82 83  1  0
 84 82  1  0
 86 89  1  0
 87 91  1  0
 87 86  1  0
 88 87  2  0
 91 90  1  0
 93 91  1  0
 93 94  1  0
 93 92  1  0
M  ISO  4  10 100  18 100  53 101  54 101
M  END
>  <TORSDO>  (32) 
F 19

>  <SCORE>  (32) 
-13.672

>  <name>  (32) 
31

>  <ligand_id>  (32) 
31

>  <original_smiles>  (32) 
[H]c1c([H])c([H])c2c(c1[H])C([H])([H])C([H])([H])C([H])([H])C2([H])N([H])C(=O)C1([H])N(C(=O)C([H])(N([H])C(=O)C([H])(N([H])C([H])([H])[H])C([H])([H])[H])C(C([H])([H])[H])(C([H])([H])[H])C([H])([H])[H])C([H])([H])c2c([H])c(OC([H])(C([H])([H])[H])C([H])([H])[N+]([H])(C([H])([H])[H])C3([H])c4c([H])c([H])c(N([H])C(=O)N5C([H])([H])C([H])([H])C([H])([H])C([H])(n6nc(-c7c([H])c([H])c(Oc8c([H])c([H])c(F)c([H])c8F)c([H])c7[H])c(C(=O)N([H])[H])c6N([H])[H])C5([H])[H])c([H])c4C([H])([H])C3([H])[H])c([H])c([H])c2C1([H])[H]

>  <smiles>  (32) 
[H]c1c([H])c([H])c2c(c1[H])C([H])([H])C([H])([H])C([H])([H])C2([H])N([H])C(=O)C1([H])N(C(=O)C([H])(N([H])C(=O)C([H])(N([H])C([H])([H])[H])C([H])([H])[H])C(C([H])([H])[H])(C([H])([H])[H])C([H])([H])[H])C([H])([H])c2c([H])c(OC([H])(C([H])([H])[H])C([H])([H])[N+]([H])(C([H])([H])[H])C3([H])c4c([H])c([H])c(N([H])C(=O)N5C([H])([H])C([H])([H])C([H])([H])C([H])(n6nc(-c7c([H])c([H])c(Oc8c([H])c([H])c(F)c([H])c8F)c([H])c7[H])c(C(=O)N([H])[H])c6N([H])[H])C5([H])[H])c([H])c4C([H])([H])C3([H])[H])c([H])c([H])c2C1([H])[H]

$$$$
32:0:0
     RDKit          3D

 91 99  0  0  1  0  0  0  0  0999 V2000
  -30.2380  -18.0200   21.8180 C   0  0  0  0  0  3  0  0  0  0  0  0
  -30.0760  -19.2580   22.4840 C   0  0  0  0  0  3  0  0  0  0  0  0
  -30.1250  -17.8990   20.4180 C   0  0  0  0  0  0  0  0  0  0  0  0
  -29.7510  -20.5870   20.4120 C   0  0  0  0  0  0  0  0  0  0  0  0
  -29.8240  -20.4860   21.8230 C   0  0  0  0  0  0  0  0  0  0  0  0
  -29.8840  -19.2280   19.7420 C   0  0  0  0  0  0  0  0  0  0  0  0
  -29.7080  -21.6070   22.5790 F   0  0  0  0  0  0  0  0  0  0  0  0
  -29.7230  -19.1640   18.0220 Cl  0  0  0  0  0  0  0  0  0  0  0  0
  -30.8220  -15.2190   19.9380 C   0  0  0  0  0  0  0  0  0  0  0  0
  -30.6380  -12.8620   18.9480 C   0  0  0  0  0  2  0  0  0  0  0  0
  -29.6470  -12.7880   17.7630 C   0  0  0  0  0  2  0  0  0  0  0  0
  -28.2040  -12.5910   18.2680 C   0  0  0  0  0  2  0  0  0  0  0  0
  -27.8560  -13.5400   19.4450 C   0  0  0  0  0  3  0  0  0  0  0  0
  -28.9590  -13.5550   20.5210 C   0  0  0  0  0  2  0  0  0  0  0  0
  -30.1930  -13.9710   19.8440 N   0  0  0  0  0  0  0  0  0  0  0  0
  -32.0430  -15.2250   19.7440 O   0  0  0  0  0  0  0  0  0  0  0  0
  -30.0520  -16.4360   19.8770 N   0  0  0  0  0  0  0  0  0  0  0  0
  -29.1220  -16.2230   19.5490 H   0  0  0  0  0  0  0  0  0  0  0  0
  -25.5320  -14.1830   20.2910 C   0  0  0  0  0  0  0  0  0  0  0  0
  -24.4600  -13.4380   20.6940 C   0  0  0  0  0  0  0  0  0  0  0  0
  -24.8820  -12.0730   20.6380 C   0  0  0  0  0  0  0  0  0  0  0  0
  -26.5370  -13.2750   20.0030 N   0  0  0  0  0  0  0  0  0  0  0  0
  -26.1570  -12.0000   20.2780 N   0  0  0  0  0  0  0  0  0  0  0  0
  -24.1240  -10.8330   20.8440 C   0  0  0  0  0  0  0  0  0  0  0  0
  -24.5480   -9.8540   21.7680 C   0  0  0  0  0  3  0  0  0  0  0  0
  -23.7890   -8.6780   21.9630 C   0  0  0  0  0  3  0  0  0  0  0  0
  -22.5930   -8.4760   21.2340 C   0  0  0  0  0  0  0  0  0  0  0  0
  -22.1880   -9.4440   20.2980 C   0  0  0  0  0  3  0  0  0  0  0  0
  -22.9480  -10.6100   20.1010 C   0  0  0  0  0  3  0  0  0  0  0  0
  -21.8060   -7.3540   21.3390 O   0  0  0  0  0  0  0  0  0  0  0  0
  -21.7580   -6.6150   22.4940 C   0  0  0  0  0  0  0  0  0  0  0  0
  -21.3360   -7.1740   23.7190 C   0  0  0  0  0  3  0  0  0  0  0  0
  -21.2350   -6.3620   24.8660 C   0  0  0  0  0  3  0  0  0  0  0  0
  -21.5460   -4.9900   24.7870 C   0  0  0  0  0  0  0  0  0  0  0  0
  -21.9620   -4.4310   23.5670 C   0  0  0  0  0  3  0  0  0  0  0  0
  -22.0640   -5.2410   22.4220 C   0  0  0  0  0  0  0  0  0  0  0  0
  -22.4440   -4.6930   21.2430 F   0  0  0  0  0  0  0  0  0  0  0  0
  -21.4420   -4.2070   25.8870 F   0  0  0  0  0  0  0  0  0  0  0  0
  -23.0880  -13.9560   21.0180 C   0  0  0  0  0  0  0  0  0  0  0  0
  -22.3710  -13.2800   21.9070 N   0  0  0  0  0  0  0  0  0  0  0  0
  -22.6650  -14.9970   20.5140 O   0  0  0  0  0  0  0  0  0  0  0  0
  -22.7270  -12.4360   22.3330 H   0  0  0  0  0  0  0  0  0  0  0  0
  -21.4520  -13.6080   22.1640 H   0  0  0  0  0  0  0  0  0  0  0  0
  -25.7300  -15.5500   20.1200 N   0  0  0  0  0  0  0  0  0  0  0  0
  -24.9880  -16.2230   20.2720 H   0  0  0  0  0  0  0  0  0  0  0  0
  -26.5750  -15.9710   19.7590 H   0  0  0  0  0  0  0  0  0  0  0  0
  -30.8210  -22.2360   18.9310 C   0  0  0  0  0  1  0  0  0  0  0  0
  -29.7120  -21.9990   19.8470 N   0  0  0  0  0  0  0  0  0  0  0  0
  -28.7030  -23.2330   19.9320 C   0  0  0  0  0  2  0  0  0  0  0  0
  -28.9800  -24.8380   20.5080 C   0  0  0  0  0  2  0  0  0  0  0  0
  -28.7700  -26.3200   19.9760 O   0  0  0  0  0  0  0  0  0  0  0  0
  -24.7300  -31.7130   23.1710 C   0  0  0  0  0  0  0  0  0  0  0  0
  -27.6210  -27.2050   20.0680 C   0  0  0  0  0  0  0  0  0  0  0  0
  -23.6400  -30.3070   21.4660 C   0  0  0  0  0  3  0  0  0  0  0  0
  -25.1980  -28.8440   20.0300 C   0  0  0  0  0  0  0  0  0  0  0  0
  -26.1790  -30.7130   21.3520 C   0  0  0  0  0  2  0  0  0  0  0  0
  -26.3430  -29.3360   20.6700 C   0  0  0  0  0  0  0  0  0  0  0  0
  -27.5570  -28.5390   20.6590 C   0  0  0  0  0  3  0  0  0  0  0  0
  -26.4420  -26.8170   19.4000 C   0  0  0  0  0  3  0  0  0  0  0  0
  -25.2620  -27.6010   19.3790 C   0  0  0  0  0  3  0  0  0  0  0  0
  -23.9230  -29.6780   20.0740 C   0  0  0  0  0  2  0  0  0  0  0  0
  -24.8690  -30.9340   22.0530 N   0  0  0  0  0  0  0  0  0  0  0  0
  -23.6210  -31.9170   23.6880 O   0  0  0  0  0  0  0  0  0  0  0  0
  -23.0020  -29.2360   22.3860 C   0  0  0  0  0  0  0  0  0  0  0  0
  -21.6900  -28.9850   22.2200 N   0  0  0  0  0  0  0  0  0  0  0  0
  -23.6910  -28.6310   23.2110 O   0  0  0  0  0  0  0  0  0  0  0  0
  -21.1870  -29.5270   21.5320 H   0  0  0  0  0  0  0  0  0  0  0  0
  -18.3810  -27.5590   22.6100 C   0  0  0  0  0  0  0  0  0  0  0  0
  -20.9140  -27.9740   22.9430 C   0  0  0  0  0  3  0  0  0  0  0  0
  -21.1170  -26.5690   22.3300 C   0  0  0  0  0  2  0  0  0  0  0  0
  -20.0600  -26.2110   21.2810 C   0  0  0  0  0  2  0  0  0  0  0  0
  -18.6580  -26.2460   21.8970 C   0  0  0  0  0  2  0  0  0  0  0  0
  -19.4400  -28.3770   23.0880 C   0  0  0  0  0  0  0  0  0  0  0  0
  -19.1270  -29.6010   23.7170 C   0  0  0  0  0  3  0  0  0  0  0  0
  -17.7880  -30.0100   23.8720 C   0  0  0  0  0  3  0  0  0  0  0  0
  -16.7450  -29.1900   23.4090 C   0  0  0  0  0  3  0  0  0  0  0  0
  -17.0420  -27.9660   22.7830 C   0  0  0  0  0  3  0  0  0  0  0  0
  -25.9580  -32.4020   23.8420 C   0  0  0  0  0  3  0  0  0  0  0  0
  -26.4450  -31.6600   25.1490 C   0  0  1  0  0  0  0  0  0  0  0  0
  -25.3150  -31.3930   26.1710 C   0  0  0  0  0  1  0  0  0  0  0  0
  -27.0900  -30.3000   24.7970 C   0  0  0  0  0  1  0  0  0  0  0  0
  -27.5400  -32.4980   25.8510 C   0  0  0  0  0  1  0  0  0  0  0  0
  -25.5790  -33.7890   24.1560 N   0  0  0  0  0  0  0  0  0  0  0  0
  -25.9020  -34.8560   23.4140 C   0  0  0  0  0  0  0  0  0  0  0  0
  -26.6140  -34.7790   22.4090 O   0  0  0  0  0  0  0  0  0  0  0  0
  -24.9470  -33.9190   24.9320 H   0  0  0  0  0  0  0  0  0  0  0  0
  -24.1250  -36.5910   22.9990 C   0  0  0  0  0  1  0  0  0  0  0  0
  -25.3500  -36.2280   23.8540 C   0  0  0  0  0  3  0  0  0  0  0  0
  -27.4140  -37.1970   24.7660 C   0  0  0  0  0  1  0  0  0  0  0  0
  -26.3470  -37.3180   23.7760 N   0  0  0  0  0  0  0  0  0  0  0  0
  -25.9010  -38.2230   23.9000 H   0  0  0  0  0  0  0  0  0  0  0  0
  1  2  1  0
  3  1  2  0
  4  5  1  0
  5  2  2  0
  5  7  1  0
  6  4  2  0
  6  3  1  0
  8  6  1  0
 10 15  1  0
 11 12  1  0
 11 10  1  0
 13 12  1  0
 13 22  1  0
 13 14  1  0
 15  9  1  0
 15 14  1  0
 16  9  2  0
 17  9  1  0
 17  3  1  0
 18 17  1  0
 19 20  2  0
 20 39  1  0
 21 20  1  0
 21 24  1  0
 22 23  1  0
 22 19  1  0
 23 21  2  0
 24 25  1  0
 25 26  2  0
 27 30  1  0
 27 26  1  0
 28 27  2  0
 29 28  1  0
 29 24  2  0
 30 31  1  0
 31 32  1  0
 32 33  2  0
 34 33  1  0
 34 38  1  0
 35 34  2  0
 36 31  2  0
 36 35  1  0
 37 36  1  0
 39 40  1  0
 40 43  1  0
 40 42  1  0
 41 39  2  0
 44 45  1  0
 44 19  1  0
 46 44  1  0
 47 48  1  0
 48 49  1  0
 48  4  1  0
 49 50  1  0
 51 53  1  0
 51 50  1  0
 52 63  2  0
 53 58  1  0
 54 62  1  0
 54 64  1  0
 55 61  1  0
 55 57  1  0
 56 62  1  0
 57 56  1  0
 58 57  2  0
 59 53  2  0
 60 59  1  0
 60 55  2  0
 61 54  1  0
 62 52  1  0
 64 66  2  0
 65 64  1  0
 67 65  1  0
 68 77  2  0
 68 73  1  0
 69 65  1  0
 69 73  1  0
 70 69  1  0
 71 72  1  0
 71 70  1  0
 72 68  1  0
 73 74  2  0
 74 75  1  0
 76 75  2  0
 77 76  1  0
 78 52  1  0
 78 83  1  0
 78 79  1  0
 79 82  1  1
 79 80  1  0
 81 79  1  0
 83 86  1  0
 84 88  1  0
 84 83  1  0
 85 84  2  0
 88 87  1  0
 90 88  1  0
 90 91  1  0
 90 89  1  0
M  ISO  4   9 100  17 100  50 101  51 101
M  END
>  <TORSDO>  (33) 
F 19

>  <SCORE>  (33) 
-13.323

>  <name>  (33) 
32

>  <ligand_id>  (33) 
32

>  <original_smiles>  (33) 
[H]c1c([H])c([H])c2c(c1[H])C([H])([H])C([H])([H])C([H])([H])C2([H])N([H])C(=O)C1([H])N(C(=O)C([H])(N([H])C(=O)C([H])(N([H])C([H])([H])[H])C([H])([H])[H])C(C([H])([H])[H])(C([H])([H])[H])C([H])([H])[H])C([H])([H])c2c([H])c(OC([H])([H])C([H])([H])N(c3c(F)c([H])c([H])c(N([H])C(=O)N4C([H])([H])C([H])([H])C([H])([H])C([H])(n5nc(-c6c([H])c([H])c(Oc7c([H])c([H])c(F)c([H])c7F)c([H])c6[H])c(C(=O)N([H])[H])c5N([H])[H])C4([H])[H])c3Cl)C([H])([H])[H])c([H])c([H])c2C1([H])[H]

>  <smiles>  (33) 
[H]c1c([H])c([H])c2c(c1[H])C([H])([H])C([H])([H])C([H])([H])C2([H])N([H])C(=O)C1([H])N(C(=O)C([H])(N([H])C(=O)C([H])(N([H])C([H])([H])[H])C([H])([H])[H])C(C([H])([H])[H])(C([H])([H])[H])C([H])([H])[H])C([H])([H])c2c([H])c(OC([H])([H])C([H])([H])N(c3c(F)c([H])c([H])c(N([H])C(=O)N4C([H])([H])C([H])([H])C([H])([H])C([H])(n5nc(-c6c([H])c([H])c(Oc7c([H])c([H])c(F)c([H])c7F)c([H])c6[H])c(C(=O)N([H])[H])c5N([H])[H])C4([H])[H])c3Cl)C([H])([H])[H])c([H])c([H])c2C1([H])[H]

$$$$
33:0:0
     RDKit          3D

 92101  0  0  1  0  0  0  0  0999 V2000
  -28.6040  -22.6400   19.4810 C   0  0  0  0  0  3  0  0  0  0  0  0
  -29.7590  -23.6960   21.2770 C   0  0  0  0  0  3  0  0  0  0  0  0
  -29.0340  -21.3560   19.9260 C   0  0  0  0  0  3  0  0  0  0  0  0
  -30.2000  -22.4050   21.7220 C   0  0  0  0  0  3  0  0  0  0  0  0
  -28.9330  -23.8580   20.1380 C   0  0  0  0  0  0  0  0  0  0  0  0
  -29.8550  -21.1660   21.0750 C   0  0  0  0  0  0  0  0  0  0  0  0
  -32.5930  -19.7060   21.7850 C   0  0  0  0  0  2  0  0  0  0  0  0
  -32.1430  -19.0130   20.4660 C   0  0  0  0  0  2  0  0  0  0  0  0
  -31.2910  -19.8050   22.5820 C   0  0  0  0  0  2  0  0  0  0  0  0
  -30.6310  -18.6940   20.6520 C   0  0  0  0  0  3  0  0  0  0  0  0
  -30.2400  -19.8400   21.5540 N   0  0  0  0  0  0  0  0  0  0  0  0
  -30.4180  -17.2050   21.2800 C   0  0  0  0  0  2  0  0  0  0  0  0
  -30.9310  -14.7640   20.3090 C   0  0  0  0  0  0  0  0  0  0  0  0
  -30.6430  -12.4830   19.2670 C   0  0  0  0  0  2  0  0  0  0  0  0
  -29.7290  -12.5760   18.0260 C   0  0  0  0  0  2  0  0  0  0  0  0
  -28.2480  -12.4400   18.4400 C   0  0  0  0  0  2  0  0  0  0  0  0
  -27.8810  -13.3480   19.6460 C   0  0  0  0  0  3  0  0  0  0  0  0
  -28.9370  -13.2630   20.7720 C   0  0  0  0  0  2  0  0  0  0  0  0
  -30.2420  -13.5770   20.1770 N   0  0  0  0  0  0  0  0  0  0  0  0
  -32.1380  -14.8230   20.0660 O   0  0  0  0  0  0  0  0  0  0  0  0
  -30.1890  -15.9170   20.4850 N   0  0  0  0  0  0  0  0  0  0  0  0
  -29.2160  -15.7630   20.2620 H   0  0  0  0  0  0  0  0  0  0  0  0
  -25.5050  -13.9960   20.3780 C   0  0  0  0  0  0  0  0  0  0  0  0
  -24.4230  -13.2520   20.7490 C   0  0  0  0  0  0  0  0  0  0  0  0
  -24.8530  -11.8890   20.7340 C   0  0  0  0  0  0  0  0  0  0  0  0
  -26.5280  -13.0910   20.1410 N   0  0  0  0  0  0  0  0  0  0  0  0
  -26.1430  -11.8180   20.4220 N   0  0  0  0  0  0  0  0  0  0  0  0
  -24.0970  -10.6470   20.9340 C   0  0  0  0  0  0  0  0  0  0  0  0
  -24.4910   -9.6870   21.8920 C   0  0  0  0  0  3  0  0  0  0  0  0
  -23.7350   -8.5110   22.0790 C   0  0  0  0  0  3  0  0  0  0  0  0
  -22.5720   -8.2830   21.3080 C   0  0  0  0  0  0  0  0  0  0  0  0
  -22.1950   -9.2300   20.3400 C   0  0  0  0  0  3  0  0  0  0  0  0
  -22.9510  -10.3990   20.1510 C   0  0  0  0  0  3  0  0  0  0  0  0
  -21.7920   -7.1580   21.4040 O   0  0  0  0  0  0  0  0  0  0  0  0
  -21.6900   -6.4490   22.5750 C   0  0  0  0  0  0  0  0  0  0  0  0
  -21.2150   -7.0400   23.7650 C   0  0  0  0  0  3  0  0  0  0  0  0
  -21.0610   -6.2580   24.9280 C   0  0  0  0  0  3  0  0  0  0  0  0
  -21.3670   -4.8850   24.9000 C   0  0  0  0  0  0  0  0  0  0  0  0
  -21.8350   -4.2920   23.7140 C   0  0  0  0  0  3  0  0  0  0  0  0
  -21.9910   -5.0720   22.5540 C   0  0  0  0  0  0  0  0  0  0  0  0
  -22.4210   -4.4910   21.4080 F   0  0  0  0  0  0  0  0  0  0  0  0
  -21.2130   -4.1320   26.0140 F   0  0  0  0  0  0  0  0  0  0  0  0
  -23.0350  -13.7620   21.0110 C   0  0  0  0  0  0  0  0  0  0  0  0
  -22.2850  -13.0920   21.8780 N   0  0  0  0  0  0  0  0  0  0  0  0
  -22.6220  -14.7930   20.4800 O   0  0  0  0  0  0  0  0  0  0  0  0
  -22.6330  -12.2630   22.3340 H   0  0  0  0  0  0  0  0  0  0  0  0
  -21.3450  -13.4060   22.0830 H   0  0  0  0  0  0  0  0  0  0  0  0
  -25.6960  -15.3630   20.1880 N   0  0  0  0  0  0  0  0  0  0  0  0
  -24.9410  -16.0270   20.3210 H   0  0  0  0  0  0  0  0  0  0  0  0
  -26.5380  -15.7800   19.8150 H   0  0  0  0  0  0  0  0  0  0  0  0
  -28.4290  -25.2200   19.4950 C   0  0  0  0  0  2  0  0  0  0  0  0
  -28.3050  -26.4900   20.2610 O   0  0  0  0  0  0  0  0  0  0  0  0
  -24.5980  -31.9020   23.2200 C   0  0  0  0  0  0  0  0  0  0  0  0
  -27.1680  -27.3250   20.1740 C   0  0  0  0  0  0  0  0  0  0  0  0
  -23.3750  -30.5120   21.5910 C   0  0  0  0  0  3  0  0  0  0  0  0
  -24.8020  -28.9680   20.1600 C   0  0  0  0  0  0  0  0  0  0  0  0
  -25.9160  -30.8430   21.3530 C   0  0  0  0  0  2  0  0  0  0  0  0
  -25.9900  -29.4580   20.7160 C   0  0  0  0  0  0  0  0  0  0  0  0
  -27.1760  -28.6640   20.6850 C   0  0  0  0  0  3  0  0  0  0  0  0
  -25.9260  -26.8670   19.6600 C   0  0  0  0  0  3  0  0  0  0  0  0
  -24.7740  -27.6730   19.6280 C   0  0  0  0  0  3  0  0  0  0  0  0
  -23.5820  -29.8630   20.1990 C   0  0  0  0  0  2  0  0  0  0  0  0
  -24.6530  -31.1020   22.1130 N   0  0  0  0  0  0  0  0  0  0  0  0
  -23.5180  -32.1680   23.7670 O   0  0  0  0  0  0  0  0  0  0  0  0
  -22.7190  -29.4890   22.5530 C   0  0  0  0  0  0  0  0  0  0  0  0
  -21.3910  -29.3080   22.4390 N   0  0  0  0  0  0  0  0  0  0  0  0
  -23.4040  -28.8640   23.3670 O   0  0  0  0  0  0  0  0  0  0  0  0
  -20.8910  -29.8620   21.7590 H   0  0  0  0  0  0  0  0  0  0  0  0
  -18.0150  -28.0990   22.9400 C   0  0  0  0  0  0  0  0  0  0  0  0
  -20.5740  -28.3710   23.2150 C   0  0  0  0  0  3  0  0  0  0  0  0
  -20.6830  -26.9340   22.6520 C   0  0  0  0  0  2  0  0  0  0  0  0
  -19.5840  -26.5980   21.6410 C   0  0  0  0  0  2  0  0  0  0  0  0
  -18.1990  -26.7460   22.2770 C   0  0  0  0  0  2  0  0  0  0  0  0
  -19.1300  -28.8700   23.3670 C   0  0  0  0  0  0  0  0  0  0  0  0
  -18.9000  -30.1370   23.9460 C   0  0  0  0  0  3  0  0  0  0  0  0
  -17.5930  -30.6350   24.0970 C   0  0  0  0  0  3  0  0  0  0  0  0
  -16.4930  -29.8620   23.6830 C   0  0  0  0  0  3  0  0  0  0  0  0
  -16.7050  -28.5960   23.1110 C   0  0  0  0  0  3  0  0  0  0  0  0
  -25.8840  -32.5330   23.8350 C   0  0  0  0  0  3  0  0  0  0  0  0
  -26.4000  -31.7590   25.1110 C   0  0  1  0  0  0  0  0  0  0  0  0
  -25.3130  -31.5290   26.1870 C   0  0  0  0  0  1  0  0  0  0  0  0
  -26.9640  -30.3760   24.7100 C   0  0  0  0  0  1  0  0  0  0  0  0
  -27.5560  -32.5420   25.7810 C   0  0  0  0  0  1  0  0  0  0  0  0
  -25.5850  -33.9330   24.1660 N   0  0  0  0  0  0  0  0  0  0  0  0
  -25.9040  -34.9800   23.3950 C   0  0  0  0  0  0  0  0  0  0  0  0
  -26.5580  -34.8710   22.3530 O   0  0  0  0  0  0  0  0  0  0  0  0
  -25.0410  -34.1000   25.0000 H   0  0  0  0  0  0  0  0  0  0  0  0
  -24.1810  -36.7800   23.0430 C   0  0  0  0  0  1  0  0  0  0  0  0
  -25.4230  -36.3720   23.8530 C   0  0  0  0  0  3  0  0  0  0  0  0
  -27.5650  -37.2420   24.6800 C   0  0  0  0  0  1  0  0  0  0  0  0
  -26.4600  -37.4220   23.7420 N   0  0  0  0  0  0  0  0  0  0  0  0
  -26.0530  -38.3400   23.8990 H   0  0  0  0  0  0  0  0  0  0  0  0
  1  3  2  0
  1  5  1  0
  2  4  1  0
  3  6  1  0
  5  2  2  0
  6 11  1  0
  6  4  2  0
  7  9  1  0
  8 10  1  0
  8  7  1  0
 10 12  1  0
 10 11  1  0
 11  9  1  0
 13 21  1  0
 14 19  1  0
 15 16  1  0
 15 14  1  0
 17 16  1  0
 17 26  1  0
 17 18  1  0
 19 13  1  0
 19 18  1  0
 20 13  2  0
 21 12  1  0
 22 21  1  0
 23 24  2  0
 24 43  1  0
 25 24  1  0
 25 28  1  0
 26 23  1  0
 26 27  1  0
 27 25  2  0
 28 29  1  0
 29 30  2  0
 31 34  1  0
 31 30  1  0
 32 31  2  0
 33 32  1  0
 33 28  2  0
 34 35  1  0
 35 36  1  0
 36 37  2  0
 38 37  1  0
 38 42  1  0
 39 38  2  0
 40 35  2  0
 40 39  1  0
 41 40  1  0
 43 44  1  0
 44 47  1  0
 44 46  1  0
 45 43  2  0
 48 49  1  0
 48 23  1  0
 50 48  1  0
 51  5  1  0
 51 52  1  0
 53 64  2  0
 54 52  1  0
 54 59  1  0
 55 63  1  0
 55 65  1  0
 56 62  1  0
 56 58  1  0
 57 63  1  0
 58 57  1  0
 59 58  2  0
 60 54  2  0
 61 60  1  0
 61 56  2  0
 62 55  1  0
 63 53  1  0
 65 67  2  0
 66 65  1  0
 68 66  1  0
 69 78  2  0
 69 74  1  0
 70 66  1  0
 70 74  1  0
 71 70  1  0
 72 73  1  0
 72 71  1  0
 73 69  1  0
 74 75  2  0
 75 76  1  0
 77 76  2  0
 78 77  1  0
 79 53  1  0
 79 84  1  0
 79 80  1  0
 80 83  1  1
 80 81  1  0
 82 80  1  0
 84 87  1  0
 85 89  1  0
 85 84  1  0
 86 85  2  0
 89 88  1  0
 91 89  1  0
 91 92  1  0
 91 90  1  0
M  ISO  4  13 100  21 100  51 101  52 101
M  END
>  <TORSDO>  (34) 
F 19

>  <SCORE>  (34) 
-14.397

>  <name>  (34) 
33

>  <ligand_id>  (34) 
33

>  <original_smiles>  (34) 
[H]c1c([H])c([H])c2c(c1[H])C([H])([H])C([H])([H])C([H])([H])C2([H])N([H])C(=O)C1([H])N(C(=O)C([H])(N([H])C(=O)C([H])(N([H])C([H])([H])[H])C([H])([H])[H])C(C([H])([H])[H])(C([H])([H])[H])C([H])([H])[H])C([H])([H])c2c([H])c(OC([H])([H])c3c([H])c([H])c(N4C([H])([H])C([H])([H])C([H])([H])C4([H])C([H])([H])N([H])C(=O)N4C([H])([H])C([H])([H])C([H])([H])C([H])(n5nc(-c6c([H])c([H])c(Oc7c([H])c([H])c(F)c([H])c7F)c([H])c6[H])c(C(=O)N([H])[H])c5N([H])[H])C4([H])[H])c([H])c3[H])c([H])c([H])c2C1([H])[H]

>  <smiles>  (34) 
[H]c1c([H])c([H])c2c(c1[H])C([H])([H])C([H])([H])C([H])([H])C2([H])N([H])C(=O)C1([H])N(C(=O)C([H])(N([H])C(=O)C([H])(N([H])C([H])([H])[H])C([H])([H])[H])C(C([H])([H])[H])(C([H])([H])[H])C([H])([H])[H])C([H])([H])c2c([H])c(OC([H])([H])c3c([H])c([H])c(N4C([H])([H])C([H])([H])C([H])([H])C4([H])C([H])([H])N([H])C(=O)N4C([H])([H])C([H])([H])C([H])([H])C([H])(n5nc(-c6c([H])c([H])c(Oc7c([H])c([H])c(F)c([H])c7F)c([H])c6[H])c(C(=O)N([H])[H])c5N([H])[H])C4([H])[H])c([H])c3[H])c([H])c([H])c2C1([H])[H]

$$$$
34:0:0
     RDKit          3D

 90 98  0  0  1  0  0  0  0  0999 V2000
  -30.1960  -19.3130   18.8000 C   0  0  0  0  0  3  0  0  0  0  0  0
  -29.0050  -18.5860   20.7800 C   0  0  0  0  0  3  0  0  0  0  0  0
  -29.7580  -20.6370   19.0050 C   0  0  0  0  0  3  0  0  0  0  0  0
  -28.5710  -19.9270   20.9950 C   0  0  0  0  0  3  0  0  0  0  0  0
  -29.8150  -18.2590   19.6630 C   0  0  0  0  0  0  0  0  0  0  0  0
  -28.9260  -20.9680   20.0890 C   0  0  0  0  0  0  0  0  0  0  0  0
  -30.2980  -16.8400   19.2870 C   0  0  0  0  0  2  0  0  0  0  0  0
  -30.8140  -14.5440   20.0020 C   0  0  0  0  0  0  0  0  0  0  0  0
  -30.4420  -12.3680   18.9250 C   0  0  0  0  0  2  0  0  0  0  0  0
  -29.4500  -12.6040   17.7700 C   0  0  0  0  0  2  0  0  0  0  0  0
  -28.0010  -12.4660   18.2720 C   0  0  0  0  0  2  0  0  0  0  0  0
  -27.7310  -13.2840   19.5670 C   0  0  0  0  0  3  0  0  0  0  0  0
  -28.8490  -13.0750   20.6170 C   0  0  0  0  0  2  0  0  0  0  0  0
  -30.1370  -13.3620   19.9700 N   0  0  0  0  0  0  0  0  0  0  0  0
  -31.9760  -14.6420   19.6010 O   0  0  0  0  0  0  0  0  0  0  0  0
  -30.0600  -15.6610   20.1540 N   0  0  0  0  0  0  0  0  0  0  0  0
  -29.1250  -15.5310   20.5030 H   0  0  0  0  0  0  0  0  0  0  0  0
  -25.3770  -13.8780   20.4130 C   0  0  0  0  0  0  0  0  0  0  0  0
  -24.3310  -13.0980   20.8220 C   0  0  0  0  0  0  0  0  0  0  0  0
  -24.7860  -11.7470   20.7440 C   0  0  0  0  0  0  0  0  0  0  0  0
  -26.4090  -13.0010   20.1150 N   0  0  0  0  0  0  0  0  0  0  0  0
  -26.0590  -11.7140   20.3720 N   0  0  0  0  0  0  0  0  0  0  0  0
  -24.0720  -10.4820   20.9490 C   0  0  0  0  0  0  0  0  0  0  0  0
  -24.5170   -9.5260   21.8880 C   0  0  0  0  0  3  0  0  0  0  0  0
  -23.7980   -8.3280   22.0830 C   0  0  0  0  0  3  0  0  0  0  0  0
  -22.6190   -8.0790   21.3390 C   0  0  0  0  0  0  0  0  0  0  0  0
  -22.1940   -9.0240   20.3890 C   0  0  0  0  0  3  0  0  0  0  0  0
  -22.9140  -10.2150   20.1920 C   0  0  0  0  0  3  0  0  0  0  0  0
  -21.8680   -6.9330   21.4410 O   0  0  0  0  0  0  0  0  0  0  0  0
  -21.8040   -6.2180   22.6100 C   0  0  0  0  0  0  0  0  0  0  0  0
  -21.3100   -6.7820   23.8050 C   0  0  0  0  0  3  0  0  0  0  0  0
  -21.1960   -5.9910   24.9650 C   0  0  0  0  0  3  0  0  0  0  0  0
  -21.5680   -4.6330   24.9310 C   0  0  0  0  0  0  0  0  0  0  0  0
  -22.0570   -4.0680   23.7390 C   0  0  0  0  0  3  0  0  0  0  0  0
  -22.1720   -4.8570   22.5830 C   0  0  0  0  0  0  0  0  0  0  0  0
  -22.6210   -4.3000   21.4320 F   0  0  0  0  0  0  0  0  0  0  0  0
  -21.4540   -3.8690   26.0430 F   0  0  0  0  0  0  0  0  0  0  0  0
  -22.9500  -13.5720   21.1740 C   0  0  0  0  0  0  0  0  0  0  0  0
  -22.2690  -12.8540   22.0570 N   0  0  0  0  0  0  0  0  0  0  0  0
  -22.4870  -14.6080   20.7020 O   0  0  0  0  0  0  0  0  0  0  0  0
  -22.6640  -12.0170   22.4620 H   0  0  0  0  0  0  0  0  0  0  0  0
  -21.3390  -13.1430   22.3280 H   0  0  0  0  0  0  0  0  0  0  0  0
  -25.5260  -15.2540   20.2470 N   0  0  0  0  0  0  0  0  0  0  0  0
  -24.7520  -15.8900   20.4020 H   0  0  0  0  0  0  0  0  0  0  0  0
  -26.3370  -15.7130   19.8570 H   0  0  0  0  0  0  0  0  0  0  0  0
  -28.4610  -22.2740   20.1350 O   0  0  0  0  0  0  0  0  0  0  0  0
  -28.3720  -22.9400   21.3940 C   0  0  0  0  0  2  0  0  0  0  0  0
  -27.8880  -24.4250   21.2630 C   0  0  0  0  0  2  0  0  0  0  0  0
  -28.5590  -25.2930   20.1570 C   0  0  0  0  0  2  0  0  0  0  0  0
  -28.5020  -26.7250   20.3620 O   0  0  0  0  0  0  0  0  0  0  0  0
  -24.5440  -31.8420   23.2750 C   0  0  0  0  0  0  0  0  0  0  0  0
  -27.3130  -27.4230   20.2660 C   0  0  0  0  0  0  0  0  0  0  0  0
  -23.4000  -30.4500   21.5780 C   0  0  0  0  0  3  0  0  0  0  0  0
  -24.9100  -28.9300   20.1850 C   0  0  0  0  0  0  0  0  0  0  0  0
  -25.9280  -30.8240   21.4630 C   0  0  0  0  0  2  0  0  0  0  0  0
  -26.0440  -29.4570   20.8130 C   0  0  0  0  0  0  0  0  0  0  0  0
  -27.2460  -28.7150   20.8430 C   0  0  0  0  0  3  0  0  0  0  0  0
  -26.1630  -26.9110   19.6240 C   0  0  0  0  0  3  0  0  0  0  0  0
  -24.9670  -27.6590   19.5830 C   0  0  0  0  0  3  0  0  0  0  0  0
  -23.6580  -29.7800   20.2000 C   0  0  0  0  0  2  0  0  0  0  0  0
  -24.6410  -31.0530   22.1650 N   0  0  0  0  0  0  0  0  0  0  0  0
  -23.4430  -32.1050   23.7840 O   0  0  0  0  0  0  0  0  0  0  0  0
  -22.7210  -29.4190   22.5070 C   0  0  0  0  0  0  0  0  0  0  0  0
  -21.3970  -29.2610   22.3610 N   0  0  0  0  0  0  0  0  0  0  0  0
  -23.3860  -28.7630   23.3140 O   0  0  0  0  0  0  0  0  0  0  0  0
  -20.9220  -29.8430   21.6860 H   0  0  0  0  0  0  0  0  0  0  0  0
  -17.9920  -28.1530   22.8360 C   0  0  0  0  0  0  0  0  0  0  0  0
  -20.5570  -28.3150   23.0970 C   0  0  0  0  0  3  0  0  0  0  0  0
  -20.6090  -26.9090   22.4550 C   0  0  0  0  0  2  0  0  0  0  0  0
  -19.4910  -26.6660   21.4370 C   0  0  0  0  0  2  0  0  0  0  0  0
  -18.1200  -26.8310   22.1000 C   0  0  0  0  0  2  0  0  0  0  0  0
  -19.1380  -28.8580   23.2900 C   0  0  0  0  0  0  0  0  0  0  0  0
  -18.9660  -30.1030   23.9350 C   0  0  0  0  0  3  0  0  0  0  0  0
  -17.6800  -30.6390   24.1320 C   0  0  0  0  0  3  0  0  0  0  0  0
  -16.5480  -29.9280   23.6970 C   0  0  0  0  0  3  0  0  0  0  0  0
  -16.7050  -28.6860   23.0550 C   0  0  0  0  0  3  0  0  0  0  0  0
  -25.8060  -32.4710   23.9470 C   0  0  0  0  0  3  0  0  0  0  0  0
  -25.4960  -33.8750   24.2460 N   0  0  0  0  0  0  0  0  0  0  0  0
  -25.8660  -34.9130   23.4840 C   0  0  0  0  0  0  0  0  0  0  0  0
  -26.5720  -34.7910   22.4800 O   0  0  0  0  0  0  0  0  0  0  0  0
  -24.8800  -34.0490   25.0270 H   0  0  0  0  0  0  0  0  0  0  0  0
  -24.1770  -36.7160   23.0270 C   0  0  0  0  0  1  0  0  0  0  0  0
  -25.3720  -36.3100   23.9040 C   0  0  0  0  0  3  0  0  0  0  0  0
  -27.4640  -37.1890   24.8400 C   0  0  0  0  0  1  0  0  0  0  0  0
  -26.4200  -37.3500   23.8320 N   0  0  0  0  0  0  0  0  0  0  0  0
  -26.0170  -38.2760   23.9380 H   0  0  0  0  0  0  0  0  0  0  0  0
  -26.2650  -31.7100   25.2500 C   0  0  1  0  0  0  0  0  0  0  0  0
  -25.1310  -31.4820   26.2770 C   0  0  0  0  0  1  0  0  0  0  0  0
  -26.8580  -30.3290   24.8890 C   0  0  0  0  0  1  0  0  0  0  0  0
  -27.3880  -32.5100   25.9530 C   0  0  0  0  0  1  0  0  0  0  0  0
  1  3  2  0
  1  5  1  0
  2  4  1  0
  3  6  1  0
  5  2  2  0
  6 46  1  0
  6  4  2  0
  7  5  1  0
  7 16  1  0
  8 16  1  0
  9 14  1  0
 10 11  1  0
 10  9  1  0
 12 11  1  0
 12 21  1  0
 12 13  1  0
 14  8  1  0
 14 13  1  0
 15  8  2  0
 16 17  1  0
 18 19  2  0
 19 38  1  0
 20 19  1  0
 20 23  1  0
 21 22  1  0
 21 18  1  0
 22 20  2  0
 23 24  1  0
 24 25  2  0
 26 29  1  0
 26 25  1  0
 27 26  2  0
 28 27  1  0
 28 23  2  0
 29 30  1  0
 30 31  1  0
 31 32  2  0
 33 32  1  0
 33 37  1  0
 34 33  2  0
 35 30  2  0
 35 34  1  0
 36 35  1  0
 38 39  1  0
 39 42  1  0
 39 41  1  0
 40 38  2  0
 43 44  1  0
 43 18  1  0
 45 43  1  0
 46 47  1  0
 48 47  1  0
 49 50  1  0
 49 48  1  0
 51 62  2  0
 52 50  1  0
 52 57  1  0
 53 61  1  0
 53 63  1  0
 54 60  1  0
 54 56  1  0
 55 61  1  0
 56 57  2  0
 56 55  1  0
 58 52  2  0
 59 58  1  0
 59 54  2  0
 60 53  1  0
 61 51  1  0
 63 65  2  0
 64 63  1  0
 66 64  1  0
 67 76  2  0
 67 72  1  0
 68 64  1  0
 68 72  1  0
 69 68  1  0
 70 71  1  0
 70 69  1  0
 71 67  1  0
 72 73  2  0
 73 74  1  0
 75 74  2  0
 76 75  1  0
 77 51  1  0
 77 78  1  0
 77 87  1  0
 78 81  1  0
 79 83  1  0
 79 78  1  0
 80 79  2  0
 83 82  1  0
 85 83  1  0
 85 86  1  0
 85 84  1  0
 87 90  1  1
 87 88  1  0
 89 87  1  0
M  ISO  4   8 100  16 100  49 101  50 101
M  END
>  <TORSDO>  (35) 
F 21

>  <SCORE>  (35) 
-13.069

>  <name>  (35) 
34

>  <ligand_id>  (35) 
34

>  <original_smiles>  (35) 
[H]c1c([H])c([H])c2c(c1[H])C([H])([H])C([H])([H])C([H])([H])C2([H])N([H])C(=O)C1([H])N(C(=O)C([H])(N([H])C(=O)C([H])(N([H])C([H])([H])[H])C([H])([H])[H])C(C([H])([H])[H])(C([H])([H])[H])C([H])([H])[H])C([H])([H])c2c([H])c(OC([H])([H])C([H])([H])C([H])([H])Oc3c([H])c([H])c(C([H])([H])N([H])C(=O)N4C([H])([H])C([H])([H])C([H])([H])C([H])(n5nc(-c6c([H])c([H])c(Oc7c([H])c([H])c(F)c([H])c7F)c([H])c6[H])c(C(=O)N([H])[H])c5N([H])[H])C4([H])[H])c([H])c3[H])c([H])c([H])c2C1([H])[H]

>  <smiles>  (35) 
[H]c1c([H])c([H])c2c(c1[H])C([H])([H])C([H])([H])C([H])([H])C2([H])N([H])C(=O)C1([H])N(C(=O)C([H])(N([H])C(=O)C([H])(N([H])C([H])([H])[H])C([H])([H])[H])C(C([H])([H])[H])(C([H])([H])[H])C([H])([H])[H])C([H])([H])c2c([H])c(OC([H])([H])C([H])([H])C([H])([H])Oc3c([H])c([H])c(C([H])([H])N([H])C(=O)N4C([H])([H])C([H])([H])C([H])([H])C([H])(n5nc(-c6c([H])c([H])c(Oc7c([H])c([H])c(F)c([H])c7F)c([H])c6[H])c(C(=O)N([H])[H])c5N([H])[H])C4([H])[H])c([H])c3[H])c([H])c([H])c2C1([H])[H]

$$$$
35:0:0
     RDKit          3D

 92100  0  0  1  0  0  0  0  0999 V2000
  -27.4750  -21.8960   19.7850 C   0  0  0  0  0  2  0  0  0  0  0  0
  -30.1160  -19.2310   18.9880 C   0  0  0  0  0  3  0  0  0  0  0  0
  -28.4630  -18.2270   20.4710 C   0  0  0  0  0  3  0  0  0  0  0  0
  -29.3630  -20.4150   18.9350 C   0  0  0  0  0  3  0  0  0  0  0  0
  -27.7190  -19.4290   20.4370 C   0  0  0  0  0  3  0  0  0  0  0  0
  -29.6920  -18.1390   19.7750 C   0  0  0  0  0  0  0  0  0  0  0  0
  -28.1890  -20.5460   19.7060 C   0  0  0  0  0  0  0  0  0  0  0  0
  -30.6420  -16.9530   19.9240 C   0  0  0  0  0  2  0  0  0  0  0  0
  -30.7670  -14.5000   19.9320 C   0  0  0  0  0  0  0  0  0  0  0  0
  -30.3600  -12.3160   18.9120 C   0  0  0  0  0  2  0  0  0  0  0  0
  -29.3540  -12.5090   17.7610 C   0  0  0  0  0  2  0  0  0  0  0  0
  -27.9090  -12.3960   18.2850 C   0  0  0  0  0  2  0  0  0  0  0  0
  -27.6510  -13.2730   19.5420 C   0  0  0  0  0  3  0  0  0  0  0  0
  -28.7740  -13.1050   20.5880 C   0  0  0  0  0  2  0  0  0  0  0  0
  -30.0550  -13.3440   19.9140 N   0  0  0  0  0  0  0  0  0  0  0  0
  -31.9270  -14.5780   19.5240 O   0  0  0  0  0  0  0  0  0  0  0  0
  -30.0640  -15.6250   20.1680 N   0  0  0  0  0  0  0  0  0  0  0  0
  -29.0940  -15.5560   20.4210 H   0  0  0  0  0  0  0  0  0  0  0  0
  -25.3480  -13.9180   20.4860 C   0  0  0  0  0  0  0  0  0  0  0  0
  -24.2870  -13.1600   20.9020 C   0  0  0  0  0  0  0  0  0  0  0  0
  -24.7060  -11.7990   20.7890 C   0  0  0  0  0  0  0  0  0  0  0  0
  -26.3380  -13.0160   20.1280 N   0  0  0  0  0  0  0  0  0  0  0  0
  -25.9620  -11.7350   20.3730 N   0  0  0  0  0  0  0  0  0  0  0  0
  -23.9590  -10.5520   20.9970 C   0  0  0  0  0  0  0  0  0  0  0  0
  -24.4050   -9.5670   21.9040 C   0  0  0  0  0  3  0  0  0  0  0  0
  -23.6640   -8.3830   22.0990 C   0  0  0  0  0  3  0  0  0  0  0  0
  -22.4580   -8.1780   21.3880 C   0  0  0  0  0  0  0  0  0  0  0  0
  -22.0270   -9.1530   20.4710 C   0  0  0  0  0  3  0  0  0  0  0  0
  -22.7710  -10.3290   20.2760 C   0  0  0  0  0  3  0  0  0  0  0  0
  -21.6830   -7.0470   21.4940 O   0  0  0  0  0  0  0  0  0  0  0  0
  -21.6220   -6.3170   22.6520 C   0  0  0  0  0  0  0  0  0  0  0  0
  -21.1930   -6.8850   23.8720 C   0  0  0  0  0  3  0  0  0  0  0  0
  -21.0820   -6.0810   25.0220 C   0  0  0  0  0  3  0  0  0  0  0  0
  -21.3890   -4.7080   24.9550 C   0  0  0  0  0  0  0  0  0  0  0  0
  -21.8080   -4.1380   23.7410 C   0  0  0  0  0  3  0  0  0  0  0  0
  -21.9210   -4.9400   22.5900 C   0  0  0  0  0  0  0  0  0  0  0  0
  -22.3040   -4.3850   21.4170 F   0  0  0  0  0  0  0  0  0  0  0  0
  -21.2770   -3.9290   26.0570 F   0  0  0  0  0  0  0  0  0  0  0  0
  -22.9310  -13.6660   21.3010 C   0  0  0  0  0  0  0  0  0  0  0  0
  -22.2560  -12.9570   22.1970 N   0  0  0  0  0  0  0  0  0  0  0  0
  -22.4830  -14.7230   20.8570 O   0  0  0  0  0  0  0  0  0  0  0  0
  -22.6360  -12.0960   22.5620 H   0  0  0  0  0  0  0  0  0  0  0  0
  -21.3490  -13.2710   22.5100 H   0  0  0  0  0  0  0  0  0  0  0  0
  -25.5430  -15.2920   20.3740 N   0  0  0  0  0  0  0  0  0  0  0  0
  -24.8060  -15.9430   20.6250 H   0  0  0  0  0  0  0  0  0  0  0  0
  -26.4000  -15.7510   20.1020 H   0  0  0  0  0  0  0  0  0  0  0  0
  -28.6320  -22.7490   21.8080 C   0  0  0  0  0  1  0  0  0  0  0  0
  -28.3410  -22.9660   20.3660 N   0  0  2  0  0  4  0  0  0  0  0  0
  -29.2320  -22.8780   19.8990 H   0  0  0  0  0  0  0  0  0  0  0  0
  -27.8490  -24.3360   20.0230 C   0  0  0  0  0  2  0  0  0  0  0  0
  -28.5100  -25.4990   20.8120 C   0  0  0  0  0  2  0  0  0  0  0  0
  -28.5140  -26.7500   20.1260 O   0  0  0  0  0  0  0  0  0  0  0  0
  -24.6770  -31.8720   23.2530 C   0  0  0  0  0  0  0  0  0  0  0  0
  -27.3410  -27.4600   20.1640 C   0  0  0  0  0  0  0  0  0  0  0  0
  -23.4900  -30.4810   21.5890 C   0  0  0  0  0  3  0  0  0  0  0  0
  -24.9530  -28.9530   20.1740 C   0  0  0  0  0  0  0  0  0  0  0  0
  -26.0140  -30.8440   21.4150 C   0  0  0  0  0  2  0  0  0  0  0  0
  -26.1040  -29.4740   20.7780 C   0  0  0  0  0  0  0  0  0  0  0  0
  -27.3050  -28.7340   20.7700 C   0  0  0  0  0  3  0  0  0  0  0  0
  -26.1790  -26.9540   19.5460 C   0  0  0  0  0  3  0  0  0  0  0  0
  -24.9810  -27.6870   19.5640 C   0  0  0  0  0  3  0  0  0  0  0  0
  -23.7160  -29.8180   20.2060 C   0  0  0  0  0  2  0  0  0  0  0  0
  -24.7450  -31.0800   22.1450 N   0  0  0  0  0  0  0  0  0  0  0  0
  -23.5890  -32.1410   23.7810 O   0  0  0  0  0  0  0  0  0  0  0  0
  -22.8290  -29.4480   22.5330 C   0  0  0  0  0  0  0  0  0  0  0  0
  -21.5010  -29.2840   22.4060 N   0  0  0  0  0  0  0  0  0  0  0  0
  -23.5080  -28.8000   23.3330 O   0  0  0  0  0  0  0  0  0  0  0  0
  -21.0130  -29.8700   21.7430 H   0  0  0  0  0  0  0  0  0  0  0  0
  -18.1090  -28.1300   22.9000 C   0  0  0  0  0  0  0  0  0  0  0  0
  -20.6740  -28.3420   23.1620 C   0  0  0  0  0  3  0  0  0  0  0  0
  -20.7510  -26.9210   22.5580 C   0  0  0  0  0  2  0  0  0  0  0  0
  -19.6390  -26.6330   21.5450 C   0  0  0  0  0  2  0  0  0  0  0  0
  -18.2610  -26.7910   22.1960 C   0  0  0  0  0  2  0  0  0  0  0  0
  -19.2430  -28.8660   23.3380 C   0  0  0  0  0  0  0  0  0  0  0  0
  -19.0460  -30.1220   23.9500 C   0  0  0  0  0  3  0  0  0  0  0  0
  -17.7520  -30.6400   24.1330 C   0  0  0  0  0  3  0  0  0  0  0  0
  -16.6340  -29.9000   23.7140 C   0  0  0  0  0  3  0  0  0  0  0  0
  -16.8130  -28.6480   23.1000 C   0  0  0  0  0  3  0  0  0  0  0  0
  -25.9550  -32.5010   23.8920 C   0  0  0  0  0  3  0  0  0  0  0  0
  -25.6540  -33.9020   24.2160 N   0  0  0  0  0  0  0  0  0  0  0  0
  -25.9720  -34.9450   23.4420 C   0  0  0  0  0  0  0  0  0  0  0  0
  -26.6300  -34.8340   22.4050 O   0  0  0  0  0  0  0  0  0  0  0  0
  -25.1010  -34.0700   25.0460 H   0  0  0  0  0  0  0  0  0  0  0  0
  -24.2290  -36.7250   23.0910 C   0  0  0  0  0  1  0  0  0  0  0  0
  -25.4820  -36.3350   23.8920 C   0  0  0  0  0  3  0  0  0  0  0  0
  -27.6200  -37.2380   24.6980 C   0  0  0  0  0  1  0  0  0  0  0  0
  -26.5070  -37.3920   23.7600 N   0  0  0  0  0  0  0  0  0  0  0  0
  -26.0990  -38.3120   23.9060 H   0  0  0  0  0  0  0  0  0  0  0  0
  -26.4500  -31.7350   25.1780 C   0  0  1  0  0  0  0  0  0  0  0  0
  -25.3360  -31.5060   26.2250 C   0  0  0  0  0  1  0  0  0  0  0  0
  -27.0370  -30.3590   24.7930 C   0  0  0  0  0  1  0  0  0  0  0  0
  -27.5920  -32.5310   25.8610 C   0  0  0  0  0  1  0  0  0  0  0  0
  1 48  1  0
  2  6  1  0
  4  2  2  0
  4  7  1  0
  5  3  1  0
  6  8  1  0
  6  3  2  0
  7  1  1  0
  7  5  2  0
  8 17  1  0
  9 17  1  0
 10 15  1  0
 11 12  1  0
 11 10  1  0
 13 12  1  0
 13 22  1  0
 13 14  1  0
 15  9  1  0
 15 14  1  0
 16  9  2  0
 17 18  1  0
 19 20  2  0
 20 39  1  0
 21 20  1  0
 21 24  1  0
 22 23  1  0
 22 19  1  0
 23 21  2  0
 24 25  1  0
 25 26  2  0
 27 30  1  0
 27 26  1  0
 28 27  2  0
 29 28  1  0
 29 24  2  0
 30 31  1  0
 31 32  1  0
 32 33  2  0
 34 33  1  0
 34 38  1  0
 35 34  2  0
 36 31  2  0
 36 35  1  0
 37 36  1  0
 39 40  1  0
 40 43  1  0
 40 42  1  0
 41 39  2  0
 44 19  1  0
 44 45  1  0
 46 44  1  0
 48 47  1  0
 48 49  1  6
 50 48  1  0
 50 51  1  0
 52 54  1  0
 52 51  1  0
 53 64  2  0
 54 59  1  0
 55 63  1  0
 55 65  1  0
 56 62  1  0
 56 58  1  0
 57 63  1  0
 58 57  1  0
 59 58  2  0
 60 61  1  0
 60 54  2  0
 61 56  2  0
 62 55  1  0
 63 53  1  0
 65 67  2  0
 66 65  1  0
 68 66  1  0
 69 78  2  0
 69 74  1  0
 70 66  1  0
 70 74  1  0
 71 70  1  0
 72 73  1  0
 72 71  1  0
 73 69  1  0
 74 75  2  0
 75 76  1  0
 77 76  2  0
 78 77  1  0
 79 53  1  0
 79 80  1  0
 79 89  1  0
 80 83  1  0
 81 85  1  0
 81 80  1  0
 82 81  2  0
 85 84  1  0
 87 85  1  0
 87 88  1  0
 87 86  1  0
 89 92  1  1
 89 90  1  0
 91 89  1  0
M  ISO  4   9 100  17 100  51 101  52 101
M  END
>  <TORSDO>  (36) 
F 21

>  <SCORE>  (36) 
-13.156

>  <name>  (36) 
35

>  <ligand_id>  (36) 
35

>  <original_smiles>  (36) 
[H]c1c([H])c([H])c2c(c1[H])C([H])([H])C([H])([H])C([H])([H])C2([H])N([H])C(=O)C1([H])N(C(=O)C([H])(N([H])C(=O)C([H])(N([H])C([H])([H])[H])C([H])([H])[H])C(C([H])([H])[H])(C([H])([H])[H])C([H])([H])[H])C([H])([H])c2c([H])c(OC([H])([H])C([H])([H])[N+]([H])(C([H])([H])[H])C([H])([H])c3c([H])c([H])c(C([H])([H])N([H])C(=O)N4C([H])([H])C([H])([H])C([H])([H])C([H])(n5nc(-c6c([H])c([H])c(Oc7c([H])c([H])c(F)c([H])c7F)c([H])c6[H])c(C(=O)N([H])[H])c5N([H])[H])C4([H])[H])c([H])c3[H])c([H])c([H])c2C1([H])[H]

>  <smiles>  (36) 
[H]c1c([H])c([H])c2c(c1[H])C([H])([H])C([H])([H])C([H])([H])C2([H])N([H])C(=O)C1([H])N(C(=O)C([H])(N([H])C(=O)C([H])(N([H])C([H])([H])[H])C([H])([H])[H])C(C([H])([H])[H])(C([H])([H])[H])C([H])([H])[H])C([H])([H])c2c([H])c(OC([H])([H])C([H])([H])[N+]([H])(C([H])([H])[H])C([H])([H])c3c([H])c([H])c(C([H])([H])N([H])C(=O)N4C([H])([H])C([H])([H])C([H])([H])C([H])(n5nc(-c6c([H])c([H])c(Oc7c([H])c([H])c(F)c([H])c7F)c([H])c6[H])c(C(=O)N([H])[H])c5N([H])[H])C4([H])[H])c([H])c3[H])c([H])c([H])c2C1([H])[H]

$$$$
36:0:0
     RDKit          3D

 90 98  0  0  1  0  0  0  0  0999 V2000
  -29.5440  -18.1180   21.4500 C   0  0  0  0  0  3  0  0  0  0  0  0
  -29.3420  -19.5070   21.1780 C   0  0  0  0  0  3  0  0  0  0  0  0
  -30.3080  -17.7510   19.2130 C   0  0  0  0  0  3  0  0  0  0  0  0
  -30.0500  -17.1810   20.4910 C   0  0  0  0  0  0  0  0  0  0  0  0
  -29.6330  -20.0710   19.9110 C   0  0  0  0  0  0  0  0  0  0  0  0
  -30.1120  -19.1430   18.9400 C   0  0  0  0  0  0  0  0  0  0  0  0
  -30.4010  -19.6000   17.6960 F   0  0  0  0  0  0  0  0  0  0  0  0
  -30.8040  -14.7500   20.0400 C   0  0  0  0  0  0  0  0  0  0  0  0
  -30.4600  -12.5680   18.8610 C   0  0  0  0  0  2  0  0  0  0  0  0
  -29.4390  -12.7240   17.7140 C   0  0  0  0  0  2  0  0  0  0  0  0
  -28.0000  -12.5430   18.2340 C   0  0  0  0  0  2  0  0  0  0  0  0
  -27.7290  -13.3720   19.5160 C   0  0  0  0  0  3  0  0  0  0  0  0
  -28.8510  -13.1800   20.5520 C   0  0  0  0  0  2  0  0  0  0  0  0
  -30.1270  -13.5540   19.9160 N   0  0  0  0  0  0  0  0  0  0  0  0
  -31.8580  -14.9310   19.4230 O   0  0  0  0  0  0  0  0  0  0  0  0
  -30.3360  -15.4510   22.2860 C   0  0  0  0  0  1  0  0  0  0  0  0
  -30.2760  -15.7500   20.8440 N   0  0  0  0  0  0  0  0  0  0  0  0
  -25.3970  -13.9580   20.4210 C   0  0  0  0  0  0  0  0  0  0  0  0
  -24.3550  -13.1770   20.8420 C   0  0  0  0  0  0  0  0  0  0  0  0
  -24.8060  -11.8250   20.7400 C   0  0  0  0  0  0  0  0  0  0  0  0
  -26.4160  -13.0800   20.0850 N   0  0  0  0  0  0  0  0  0  0  0  0
  -26.0700  -11.7910   20.3380 N   0  0  0  0  0  0  0  0  0  0  0  0
  -24.0870  -10.5620   20.9460 C   0  0  0  0  0  0  0  0  0  0  0  0
  -24.5520   -9.5870   21.8570 C   0  0  0  0  0  3  0  0  0  0  0  0
  -23.8320   -8.3880   22.0500 C   0  0  0  0  0  3  0  0  0  0  0  0
  -22.6360   -8.1530   21.3320 C   0  0  0  0  0  0  0  0  0  0  0  0
  -22.1910   -9.1160   20.4090 C   0  0  0  0  0  3  0  0  0  0  0  0
  -22.9110  -10.3070   20.2140 C   0  0  0  0  0  3  0  0  0  0  0  0
  -21.8860   -7.0070   21.4350 O   0  0  0  0  0  0  0  0  0  0  0  0
  -21.8370   -6.2810   22.5980 C   0  0  0  0  0  0  0  0  0  0  0  0
  -21.3930   -6.8480   23.8120 C   0  0  0  0  0  3  0  0  0  0  0  0
  -21.2920   -6.0470   24.9680 C   0  0  0  0  0  3  0  0  0  0  0  0
  -21.6260   -4.6820   24.9100 C   0  0  0  0  0  0  0  0  0  0  0  0
  -22.0640   -4.1140   23.7000 C   0  0  0  0  0  3  0  0  0  0  0  0
  -22.1660   -4.9120   22.5470 C   0  0  0  0  0  0  0  0  0  0  0  0
  -22.5680   -4.3550   21.3790 F   0  0  0  0  0  0  0  0  0  0  0  0
  -21.5220   -3.9100   26.0170 F   0  0  0  0  0  0  0  0  0  0  0  0
  -22.9830  -13.6520   21.2260 C   0  0  0  0  0  0  0  0  0  0  0  0
  -22.3170  -12.9360   22.1250 N   0  0  0  0  0  0  0  0  0  0  0  0
  -22.5140  -14.6920   20.7660 O   0  0  0  0  0  0  0  0  0  0  0  0
  -22.7100  -12.0930   22.5170 H   0  0  0  0  0  0  0  0  0  0  0  0
  -21.3990  -13.2350   22.4250 H   0  0  0  0  0  0  0  0  0  0  0  0
  -25.5600  -15.3320   20.2770 N   0  0  0  0  0  0  0  0  0  0  0  0
  -24.8150  -15.9910   20.4750 H   0  0  0  0  0  0  0  0  0  0  0  0
  -26.4010  -15.7780   19.9310 H   0  0  0  0  0  0  0  0  0  0  0  0
  -29.4980  -21.4370   19.5570 O   0  0  0  0  0  0  0  0  0  0  0  0
  -28.9230  -22.4710   20.4280 C   0  0  0  0  0  3  0  0  0  0  0  0
  -29.0120  -23.9710   19.8610 C   0  0  0  0  0  3  0  0  0  0  0  0
  -28.2850  -25.1540   20.6530 C   0  0  0  0  0  2  0  0  0  0  0  0
  -28.4820  -26.5690   20.2380 O   0  0  0  0  0  0  0  0  0  0  0  0
  -24.6410  -31.9150   23.2270 C   0  0  0  0  0  0  0  0  0  0  0  0
  -27.3600  -27.4070   20.2040 C   0  0  0  0  0  0  0  0  0  0  0  0
  -23.4870  -30.5230   21.5440 C   0  0  0  0  0  3  0  0  0  0  0  0
  -24.9840  -28.9940   20.1420 C   0  0  0  0  0  0  0  0  0  0  0  0
  -26.0270  -30.8650   21.4240 C   0  0  0  0  0  2  0  0  0  0  0  0
  -26.1340  -29.4920   20.7700 C   0  0  0  0  0  0  0  0  0  0  0  0
  -27.3280  -28.7110   20.7870 C   0  0  0  0  0  3  0  0  0  0  0  0
  -26.1920  -26.9610   19.5500 C   0  0  0  0  0  3  0  0  0  0  0  0
  -25.0160  -27.7340   19.5220 C   0  0  0  0  0  3  0  0  0  0  0  0
  -23.7410  -29.8590   20.1640 C   0  0  0  0  0  2  0  0  0  0  0  0
  -24.7360  -31.1190   22.1230 N   0  0  0  0  0  0  0  0  0  0  0  0
  -23.5420  -32.1790   23.7380 O   0  0  0  0  0  0  0  0  0  0  0  0
  -22.8090  -29.4940   22.4790 C   0  0  0  0  0  0  0  0  0  0  0  0
  -21.4880  -29.3050   22.3130 N   0  0  0  0  0  0  0  0  0  0  0  0
  -23.4700  -28.8690   23.3120 O   0  0  0  0  0  0  0  0  0  0  0  0
  -21.0140  -29.8630   21.6170 H   0  0  0  0  0  0  0  0  0  0  0  0
  -18.1140  -28.0620   22.6940 C   0  0  0  0  0  0  0  0  0  0  0  0
  -20.6580  -28.3540   23.0520 C   0  0  0  0  0  3  0  0  0  0  0  0
  -20.7990  -26.9250   22.4760 C   0  0  0  0  0  2  0  0  0  0  0  0
  -19.7370  -26.5930   21.4230 C   0  0  0  0  0  2  0  0  0  0  0  0
  -18.3320  -26.7160   22.0200 C   0  0  0  0  0  2  0  0  0  0  0  0
  -19.2070  -28.8370   23.1630 C   0  0  0  0  0  0  0  0  0  0  0  0
  -18.9500  -30.0950   23.7520 C   0  0  0  0  0  3  0  0  0  0  0  0
  -17.6340  -30.5780   23.8740 C   0  0  0  0  0  3  0  0  0  0  0  0
  -16.5560  -29.8000   23.4200 C   0  0  0  0  0  3  0  0  0  0  0  0
  -16.7950  -28.5430   22.8360 C   0  0  0  0  0  3  0  0  0  0  0  0
  -25.9030  -32.5500   23.8880 C   0  0  0  0  0  3  0  0  0  0  0  0
  -26.3990  -31.7630   25.1630 C   0  0  1  0  0  0  0  0  0  0  0  0
  -25.2810  -31.4850   26.1950 C   0  0  0  0  0  1  0  0  0  0  0  0
  -27.0170  -30.4030   24.7610 C   0  0  0  0  0  1  0  0  0  0  0  0
  -27.5160  -32.5640   25.8710 C   0  0  0  0  0  1  0  0  0  0  0  0
  -25.5720  -33.9400   24.2340 N   0  0  0  0  0  0  0  0  0  0  0  0
  -25.9070  -35.0080   23.4970 C   0  0  0  0  0  0  0  0  0  0  0  0
  -26.5960  -34.9280   22.4770 O   0  0  0  0  0  0  0  0  0  0  0  0
  -24.9630  -34.0760   25.0270 H   0  0  0  0  0  0  0  0  0  0  0  0
  -24.1630  -36.7860   23.1450 C   0  0  0  0  0  1  0  0  0  0  0  0
  -25.3970  -36.3840   23.9680 C   0  0  0  0  0  3  0  0  0  0  0  0
  -27.5090  -37.2830   24.8420 C   0  0  0  0  0  1  0  0  0  0  0  0
  -26.4190  -37.4500   23.8840 N   0  0  0  0  0  0  0  0  0  0  0  0
  -26.0000  -38.3640   24.0360 H   0  0  0  0  0  0  0  0  0  0  0  0
  2  1  1  0
  3  4  1  0
  4 17  1  0
  4  1  2  0
  5  2  2  0
  6  3  2  0
  6  5  1  0
  7  6  1  0
  8 17  1  0
  9 14  1  0
 10 11  1  0
 10  9  1  0
 12 11  1  0
 12 21  1  0
 12 13  1  0
 14  8  1  0
 14 13  1  0
 15  8  2  0
 17 16  1  0
 18 19  2  0
 19 38  1  0
 20 19  1  0
 20 23  1  0
 21 22  1  0
 21 18  1  0
 22 20  2  0
 23 24  1  0
 24 25  2  0
 26 29  1  0
 26 25  1  0
 27 26  2  0
 28 27  1  0
 28 23  2  0
 29 30  1  0
 30 31  1  0
 31 32  2  0
 33 32  1  0
 33 37  1  0
 34 33  2  0
 35 30  2  0
 35 34  1  0
 36 35  1  0
 38 39  1  0
 39 42  1  0
 39 41  1  0
 40 38  2  0
 43 18  1  0
 43 44  1  0
 45 43  1  0
 46  5  1  0
 46 47  1  0
 48 47  2  0
 48 49  1  0
 50 49  1  0
 51 62  2  0
 52 50  1  0
 52 57  1  0
 53 61  1  0
 53 63  1  0
 54 60  1  0
 54 56  1  0
 55 61  1  0
 56 57  2  0
 56 55  1  0
 58 52  2  0
 59 58  1  0
 59 54  2  0
 60 53  1  0
 61 51  1  0
 63 65  2  0
 64 63  1  0
 66 64  1  0
 67 76  2  0
 67 72  1  0
 68 64  1  0
 68 72  1  0
 69 68  1  0
 70 71  1  0
 70 69  1  0
 71 67  1  0
 72 73  2  0
 73 74  1  0
 75 74  2  0
 76 75  1  0
 77 51  1  0
 77 82  1  0
 77 78  1  0
 78 81  1  1
 78 79  1  0
 80 78  1  0
 82 85  1  0
 83 87  1  0
 83 82  1  0
 84 83  2  0
 87 86  1  0
 89 87  1  0
 89 90  1  0
 89 88  1  0
M  ISO  4   8 100  17 100  49 101  50 101
M  END
>  <TORSDO>  (37) 
F 20

>  <SCORE>  (37) 
-12.362

>  <name>  (37) 
36

>  <ligand_id>  (37) 
36

>  <original_smiles>  (37) 
[H]c1c([H])c([H])c2c(c1[H])C([H])([H])C([H])([H])C([H])([H])C2([H])N([H])C(=O)C1([H])N(C(=O)C([H])(N([H])C(=O)C([H])(N([H])C([H])([H])[H])C([H])([H])[H])C(C([H])([H])[H])(C([H])([H])[H])C([H])([H])[H])C([H])([H])c2c([H])c(OC([H])([H])C([H])([H])C([H])([H])Oc3c([H])c([H])c(N(C(=O)N4C([H])([H])C([H])([H])C([H])([H])C([H])(n5nc(-c6c([H])c([H])c(Oc7c([H])c([H])c(F)c([H])c7F)c([H])c6[H])c(C(=O)N([H])[H])c5N([H])[H])C4([H])[H])C([H])([H])[H])c([H])c3F)c([H])c([H])c2C1([H])[H]

>  <smiles>  (37) 
[H]c1c([H])c([H])c2c(c1[H])C([H])([H])C([H])([H])C([H])([H])C2([H])N([H])C(=O)C1([H])N(C(=O)C([H])(N([H])C(=O)C([H])(N([H])C([H])([H])[H])C([H])([H])[H])C(C([H])([H])[H])(C([H])([H])[H])C([H])([H])[H])C([H])([H])c2c([H])c(OC([H])([H])C([H])([H])C([H])([H])Oc3c([H])c([H])c(N(C(=O)N4C([H])([H])C([H])([H])C([H])([H])C([H])(n5nc(-c6c([H])c([H])c(Oc7c([H])c([H])c(F)c([H])c7F)c([H])c6[H])c(C(=O)N([H])[H])c5N([H])[H])C4([H])[H])C([H])([H])[H])c([H])c3F)c([H])c([H])c2C1([H])[H]

$$$$
37:0:0
     RDKit          3D

 92101  0  0  1  0  0  0  0  0999 V2000
  -30.1590  -24.1560   19.2990 C   0  0  0  0  0  2  0  0  0  0  0  0
  -30.4650  -22.7150   18.8590 C   0  0  0  0  0  2  0  0  0  0  0  0
  -28.6310  -22.6940   20.3910 C   0  0  0  0  0  2  0  0  0  0  0  0
  -28.7070  -24.1100   19.7820 C   0  0  0  0  0  3  0  0  0  0  0  0
  -29.5190  -21.8610   19.5770 N   0  0  0  0  0  0  0  0  0  0  0  0
  -29.7650  -18.6040   21.4650 C   0  0  0  0  0  3  0  0  0  0  0  0
  -31.2060  -18.4930   19.5210 C   0  0  0  0  0  3  0  0  0  0  0  0
  -29.3430  -19.8990   21.0820 C   0  0  0  0  0  3  0  0  0  0  0  0
  -30.7880  -19.7900   19.1410 C   0  0  0  0  0  3  0  0  0  0  0  0
  -30.7240  -17.9010   20.7060 C   0  0  0  0  0  0  0  0  0  0  0  0
  -29.8750  -20.5330   19.9320 C   0  0  0  0  0  0  0  0  0  0  0  0
  -31.3200  -16.5840   21.2190 C   0  0  0  0  0  2  0  0  0  0  0  0
  -31.1900  -14.3740   20.0380 C   0  0  0  0  0  0  0  0  0  0  0  0
  -30.7560  -12.2080   18.9270 C   0  0  0  0  0  2  0  0  0  0  0  0
  -29.7510  -12.3940   17.7730 C   0  0  0  0  0  2  0  0  0  0  0  0
  -28.3030  -12.3050   18.2890 C   0  0  0  0  0  2  0  0  0  0  0  0
  -28.0580  -13.1940   19.5370 C   0  0  0  0  0  3  0  0  0  0  0  0
  -29.1620  -12.9740   20.5930 C   0  0  0  0  0  2  0  0  0  0  0  0
  -30.4630  -13.2280   19.9470 N   0  0  0  0  0  0  0  0  0  0  0  0
  -32.2570  -14.5380   19.4390 O   0  0  0  0  0  0  0  0  0  0  0  0
  -30.6520  -15.3480   20.7930 N   0  0  0  0  0  0  0  0  0  0  0  0
  -29.7620  -15.1440   21.2180 H   0  0  0  0  0  0  0  0  0  0  0  0
  -25.7490  -13.9050   20.4270 C   0  0  0  0  0  0  0  0  0  0  0  0
  -24.6650  -13.1780   20.8400 C   0  0  0  0  0  0  0  0  0  0  0  0
  -25.0450  -11.8070   20.7290 C   0  0  0  0  0  0  0  0  0  0  0  0
  -26.7240  -12.9770   20.0960 N   0  0  0  0  0  0  0  0  0  0  0  0
  -26.3080  -11.7070   20.3330 N   0  0  0  0  0  0  0  0  0  0  0  0
  -24.2620  -10.5790   20.9240 C   0  0  0  0  0  0  0  0  0  0  0  0
  -24.6690   -9.5820   21.8370 C   0  0  0  0  0  3  0  0  0  0  0  0
  -23.8900   -8.4180   22.0200 C   0  0  0  0  0  3  0  0  0  0  0  0
  -22.6900   -8.2450   21.2890 C   0  0  0  0  0  0  0  0  0  0  0  0
  -22.3040   -9.2310   20.3630 C   0  0  0  0  0  3  0  0  0  0  0  0
  -23.0820  -10.3850   20.1790 C   0  0  0  0  0  3  0  0  0  0  0  0
  -21.8840   -7.1360   21.3810 O   0  0  0  0  0  0  0  0  0  0  0  0
  -21.7880   -6.4110   22.5410 C   0  0  0  0  0  0  0  0  0  0  0  0
  -21.3390   -6.9900   23.7480 C   0  0  0  0  0  3  0  0  0  0  0  0
  -21.1910   -6.1910   24.8990 C   0  0  0  0  0  3  0  0  0  0  0  0
  -21.4800   -4.8150   24.8450 C   0  0  0  0  0  0  0  0  0  0  0  0
  -21.9230   -4.2350   23.6420 C   0  0  0  0  0  3  0  0  0  0  0  0
  -22.0730   -5.0310   22.4940 C   0  0  0  0  0  0  0  0  0  0  0  0
  -22.4790   -4.4640   21.3320 F   0  0  0  0  0  0  0  0  0  0  0  0
  -21.3300   -4.0450   25.9480 F   0  0  0  0  0  0  0  0  0  0  0  0
  -23.3190  -13.7200   21.2250 C   0  0  0  0  0  0  0  0  0  0  0  0
  -22.6120  -13.0300   22.1130 N   0  0  0  0  0  0  0  0  0  0  0  0
  -22.9060  -14.7880   20.7750 O   0  0  0  0  0  0  0  0  0  0  0  0
  -22.9590  -12.1630   22.4970 H   0  0  0  0  0  0  0  0  0  0  0  0
  -21.7100  -13.3720   22.4130 H   0  0  0  0  0  0  0  0  0  0  0  0
  -25.9810  -15.2710   20.2870 N   0  0  0  0  0  0  0  0  0  0  0  0
  -25.2640  -15.9650   20.4690 H   0  0  0  0  0  0  0  0  0  0  0  0
  -26.8370  -15.6730   19.9250 H   0  0  0  0  0  0  0  0  0  0  0  0
  -28.3060  -25.2550   20.7490 C   0  0  0  0  0  2  0  0  0  0  0  0
  -28.4410  -26.5720   20.1790 O   0  0  0  0  0  0  0  0  0  0  0  0
  -24.6100  -31.7660   23.1970 C   0  0  0  0  0  0  0  0  0  0  0  0
  -27.2840  -27.3210   20.1550 C   0  0  0  0  0  0  0  0  0  0  0  0
  -23.4240  -30.3690   21.5350 C   0  0  0  0  0  3  0  0  0  0  0  0
  -24.8940  -28.8310   20.1280 C   0  0  0  0  0  0  0  0  0  0  0  0
  -25.9510  -30.7260   21.3710 C   0  0  0  0  0  2  0  0  0  0  0  0
  -26.0450  -29.3560   20.7290 C   0  0  0  0  0  0  0  0  0  0  0  0
  -27.2470  -28.6110   20.7350 C   0  0  0  0  0  3  0  0  0  0  0  0
  -26.1190  -26.8090   19.5480 C   0  0  0  0  0  3  0  0  0  0  0  0
  -24.9260  -27.5570   19.5320 C   0  0  0  0  0  3  0  0  0  0  0  0
  -23.6500  -29.6910   20.1580 C   0  0  0  0  0  2  0  0  0  0  0  0
  -24.6800  -30.9680   22.0940 N   0  0  0  0  0  0  0  0  0  0  0  0
  -23.5220  -32.0410   23.7220 O   0  0  0  0  0  0  0  0  0  0  0  0
  -22.7550  -29.3500   22.4850 C   0  0  0  0  0  0  0  0  0  0  0  0
  -21.4290  -29.1890   22.3520 N   0  0  0  0  0  0  0  0  0  0  0  0
  -23.4280  -28.7060   23.2950 O   0  0  0  0  0  0  0  0  0  0  0  0
  -20.9490  -29.7570   21.6670 H   0  0  0  0  0  0  0  0  0  0  0  0
  -18.0330  -28.0530   22.8420 C   0  0  0  0  0  0  0  0  0  0  0  0
  -20.5950  -28.2570   23.1120 C   0  0  0  0  0  3  0  0  0  0  0  0
  -20.6700  -26.8330   22.5130 C   0  0  0  0  0  2  0  0  0  0  0  0
  -19.5600  -26.5460   21.4980 C   0  0  0  0  0  2  0  0  0  0  0  0
  -18.1820  -26.7110   22.1460 C   0  0  0  0  0  2  0  0  0  0  0  0
  -19.1680  -28.7860   23.2800 C   0  0  0  0  0  0  0  0  0  0  0  0
  -18.9750  -30.0460   23.8880 C   0  0  0  0  0  3  0  0  0  0  0  0
  -17.6810  -30.5710   24.0630 C   0  0  0  0  0  3  0  0  0  0  0  0
  -16.5610  -29.8330   23.6420 C   0  0  0  0  0  3  0  0  0  0  0  0
  -16.7380  -28.5760   23.0380 C   0  0  0  0  0  3  0  0  0  0  0  0
  -25.8890  -32.3920   23.8370 C   0  0  0  0  0  3  0  0  0  0  0  0
  -26.4000  -31.6060   25.1060 C   0  0  1  0  0  0  0  0  0  0  0  0
  -25.2990  -31.3440   26.1600 C   0  0  0  0  0  1  0  0  0  0  0  0
  -26.9950  -30.2370   24.6990 C   0  0  0  0  0  1  0  0  0  0  0  0
  -27.5420  -32.3950   25.7880 C   0  0  0  0  0  1  0  0  0  0  0  0
  -25.5770  -33.7860   24.1790 N   0  0  0  0  0  0  0  0  0  0  0  0
  -25.9060  -34.8440   23.4260 C   0  0  0  0  0  0  0  0  0  0  0  0
  -26.5770  -34.7510   22.3940 O   0  0  0  0  0  0  0  0  0  0  0  0
  -24.9880  -33.9340   24.9850 H   0  0  0  0  0  0  0  0  0  0  0  0
  -24.1720  -36.6320   23.0800 C   0  0  0  0  0  1  0  0  0  0  0  0
  -25.4130  -36.2280   23.8930 C   0  0  0  0  0  3  0  0  0  0  0  0
  -27.5380  -37.1180   24.7420 C   0  0  0  0  0  1  0  0  0  0  0  0
  -26.4420  -37.2860   23.7900 N   0  0  0  0  0  0  0  0  0  0  0  0
  -26.0310  -38.2030   23.9390 H   0  0  0  0  0  0  0  0  0  0  0  0
  1  4  1  0
  2  1  1  0
  2  5  1  0
  4  3  1  0
  4 51  1  0
  5 11  1  0
  5  3  1  0
  7 10  1  0
  8  6  1  0
  9  7  2  0
  9 11  1  0
 10 12  1  0
 10  6  2  0
 11  8  2  0
 13 21  1  0
 14 19  1  0
 15 16  1  0
 15 14  1  0
 17 16  1  0
 17 26  1  0
 17 18  1  0
 19 13  1  0
 19 18  1  0
 20 13  2  0
 21 22  1  0
 21 12  1  0
 23 24  2  0
 24 43  1  0
 25 24  1  0
 25 28  1  0
 26 27  1  0
 26 23  1  0
 27 25  2  0
 28 29  1  0
 29 30  2  0
 31 34  1  0
 31 30  1  0
 32 31  2  0
 33 32  1  0
 33 28  2  0
 34 35  1  0
 35 36  1  0
 36 37  2  0
 38 37  1  0
 38 42  1  0
 39 38  2  0
 40 35  2  0
 40 39  1  0
 41 40  1  0
 43 44  1  0
 44 47  1  0
 44 46  1  0
 45 43  2  0
 48 23  1  0
 48 49  1  0
 50 48  1  0
 52 51  1  0
 53 64  2  0
 54 52  1  0
 54 59  1  0
 55 63  1  0
 55 65  1  0
 56 62  1  0
 56 58  1  0
 57 63  1  0
 58 59  2  0
 58 57  1  0
 60 54  2  0
 61 60  1  0
 61 56  2  0
 62 55  1  0
 63 53  1  0
 65 67  2  0
 66 65  1  0
 68 66  1  0
 69 78  2  0
 69 74  1  0
 70 66  1  0
 70 74  1  0
 71 70  1  0
 72 73  1  0
 72 71  1  0
 73 69  1  0
 74 75  2  0
 75 76  1  0
 77 76  2  0
 78 77  1  0
 79 53  1  0
 79 84  1  0
 79 80  1  0
 80 83  1  1
 80 81  1  0
 82 80  1  0
 84 87  1  0
 85 89  1  0
 85 84  1  0
 86 85  2  0
 89 88  1  0
 91 89  1  0
 91 92  1  0
 91 90  1  0
M  ISO  4  13 100  21 100  51 101  52 101
M  END
>  <TORSDO>  (38) 
F 19

>  <SCORE>  (38) 
-13.601

>  <name>  (38) 
37

>  <ligand_id>  (38) 
37

>  <original_smiles>  (38) 
[H]c1c([H])c([H])c2c(c1[H])C([H])([H])C([H])([H])C([H])([H])C2([H])N([H])C(=O)C1([H])N(C(=O)C([H])(N([H])C(=O)C([H])(N([H])C([H])([H])[H])C([H])([H])[H])C(C([H])([H])[H])(C([H])([H])[H])C([H])([H])[H])C([H])([H])c2c([H])c(OC([H])([H])C3([H])C([H])([H])N(c4c([H])c([H])c(C([H])([H])N([H])C(=O)N5C([H])([H])C([H])([H])C([H])([H])C([H])(n6nc(-c7c([H])c([H])c(Oc8c([H])c([H])c(F)c([H])c8F)c([H])c7[H])c(C(=O)N([H])[H])c6N([H])[H])C5([H])[H])c([H])c4[H])C([H])([H])C3([H])[H])c([H])c([H])c2C1([H])[H]

>  <smiles>  (38) 
[H]c1c([H])c([H])c2c(c1[H])C([H])([H])C([H])([H])C([H])([H])C2([H])N([H])C(=O)C1([H])N(C(=O)C([H])(N([H])C(=O)C([H])(N([H])C([H])([H])[H])C([H])([H])[H])C(C([H])([H])[H])(C([H])([H])[H])C([H])([H])[H])C([H])([H])c2c([H])c(OC([H])([H])C3([H])C([H])([H])N(c4c([H])c([H])c(C([H])([H])N([H])C(=O)N5C([H])([H])C([H])([H])C([H])([H])C([H])(n6nc(-c7c([H])c([H])c(Oc8c([H])c([H])c(F)c([H])c8F)c([H])c7[H])c(C(=O)N([H])[H])c6N([H])[H])C5([H])[H])c([H])c4[H])C([H])([H])C3([H])[H])c([H])c([H])c2C1([H])[H]

$$$$
38:0:0
     RDKit          3D

 89 97  0  0  1  0  0  0  0  0999 V2000
  -30.6180  -18.5840   20.2340 C   0  0  0  0  0  3  0  0  0  0  0  0
  -30.3220  -20.0210   20.1180 C   0  0  0  0  0  3  0  0  0  0  0  0
  -28.3230  -18.1100   19.9970 C   0  0  0  0  0  3  0  0  0  0  0  0
  -29.6220  -17.5390   20.1790 C   0  0  0  0  0  0  0  0  0  0  0  0
  -28.9990  -20.5680   19.9200 C   0  0  0  0  0  0  0  0  0  0  0  0
  -28.0300  -19.5160   19.8660 C   0  0  0  0  0  0  0  0  0  0  0  0
  -26.7350  -19.8670   19.6790 F   0  0  0  0  0  0  0  0  0  0  0  0
  -30.5800  -14.9230   20.0660 C   0  0  0  0  0  0  0  0  0  0  0  0
  -30.4510  -12.5660   19.1460 C   0  0  0  0  0  2  0  0  0  0  0  0
  -29.4680  -12.5400   17.9490 C   0  0  0  0  0  2  0  0  0  0  0  0
  -28.0140  -12.3550   18.4280 C   0  0  0  0  0  2  0  0  0  0  0  0
  -27.6620  -13.2860   19.6170 C   0  0  0  0  0  3  0  0  0  0  0  0
  -28.7540  -13.2570   20.7090 C   0  0  0  0  0  2  0  0  0  0  0  0
  -30.0190  -13.6500   20.0680 N   0  0  0  0  0  0  0  0  0  0  0  0
  -31.7560  -15.0460   19.7010 O   0  0  0  0  0  0  0  0  0  0  0  0
  -29.7160  -16.0150   20.3160 N   0  0  0  0  0  0  0  0  0  0  0  0
  -28.8300  -15.6250   20.5980 H   0  0  0  0  0  0  0  0  0  0  0  0
  -25.3230  -13.9140   20.4530 C   0  0  0  0  0  0  0  0  0  0  0  0
  -24.2550  -13.1600   20.8530 C   0  0  0  0  0  0  0  0  0  0  0  0
  -24.6820  -11.7990   20.7750 C   0  0  0  0  0  0  0  0  0  0  0  0
  -26.3340  -13.0150   20.1560 N   0  0  0  0  0  0  0  0  0  0  0  0
  -25.9580  -11.7360   20.4130 N   0  0  0  0  0  0  0  0  0  0  0  0
  -23.9310  -10.5510   20.9660 C   0  0  0  0  0  0  0  0  0  0  0  0
  -24.3600   -9.5610   21.8760 C   0  0  0  0  0  3  0  0  0  0  0  0
  -23.6090   -8.3800   22.0560 C   0  0  0  0  0  3  0  0  0  0  0  0
  -22.4150   -8.1800   21.3260 C   0  0  0  0  0  0  0  0  0  0  0  0
  -22.0020   -9.1580   20.4040 C   0  0  0  0  0  3  0  0  0  0  0  0
  -22.7540  -10.3310   20.2210 C   0  0  0  0  0  3  0  0  0  0  0  0
  -21.6350   -7.0520   21.4170 O   0  0  0  0  0  0  0  0  0  0  0  0
  -21.5790   -6.3060   22.5670 C   0  0  0  0  0  0  0  0  0  0  0  0
  -21.1440   -6.8560   23.7920 C   0  0  0  0  0  3  0  0  0  0  0  0
  -21.0370   -6.0370   24.9340 C   0  0  0  0  0  3  0  0  0  0  0  0
  -21.3540   -4.6680   24.8510 C   0  0  0  0  0  0  0  0  0  0  0  0
  -21.7830   -4.1170   23.6300 C   0  0  0  0  0  3  0  0  0  0  0  0
  -21.8920   -4.9330   22.4910 C   0  0  0  0  0  0  0  0  0  0  0  0
  -22.2850   -4.3930   21.3120 F   0  0  0  0  0  0  0  0  0  0  0  0
  -21.2440   -3.8790   25.9450 F   0  0  0  0  0  0  0  0  0  0  0  0
  -22.8820  -13.6670   21.1860 C   0  0  0  0  0  0  0  0  0  0  0  0
  -22.1720  -12.9770   22.0720 N   0  0  0  0  0  0  0  0  0  0  0  0
  -22.4480  -14.7080   20.6950 O   0  0  0  0  0  0  0  0  0  0  0  0
  -22.5360  -12.1340   22.4910 H   0  0  0  0  0  0  0  0  0  0  0  0
  -21.2520  -13.2980   22.3390 H   0  0  0  0  0  0  0  0  0  0  0  0
  -25.5110  -15.2840   20.2900 N   0  0  0  0  0  0  0  0  0  0  0  0
  -24.7430  -15.9360   20.4050 H   0  0  0  0  0  0  0  0  0  0  0  0
  -26.3000  -15.6870   19.8030 H   0  0  0  0  0  0  0  0  0  0  0  0
  -28.5040  -21.9350   19.7320 O   0  0  0  0  0  0  0  0  0  0  0  0
  -29.0950  -23.3350   19.9090 C   0  0  0  0  0  3  0  0  0  0  0  0
  -28.1160  -24.6810   19.6400 C   0  0  0  0  0  3  0  0  0  0  0  0
  -28.3620  -26.1910   19.9150 O   0  0  0  0  0  0  0  0  0  0  0  0
  -24.5360  -31.6270   23.0850 C   0  0  0  0  0  0  0  0  0  0  0  0
  -27.2770  -27.1420   19.8750 C   0  0  0  0  0  0  0  0  0  0  0  0
  -23.3960  -30.2890   21.3560 C   0  0  0  0  0  3  0  0  0  0  0  0
  -24.9060  -28.8230   19.8830 C   0  0  0  0  0  0  0  0  0  0  0  0
  -25.9460  -30.6220   21.2520 C   0  0  0  0  0  2  0  0  0  0  0  0
  -26.0640  -29.2680   20.5340 C   0  0  0  0  0  0  0  0  0  0  0  0
  -27.2500  -28.4450   20.5130 C   0  0  0  0  0  3  0  0  0  0  0  0
  -26.0890  -26.7970   19.1910 C   0  0  0  0  0  3  0  0  0  0  0  0
  -24.9310  -27.6010   19.1980 C   0  0  0  0  0  3  0  0  0  0  0  0
  -23.6570  -29.6880   19.9500 C   0  0  0  0  0  2  0  0  0  0  0  0
  -24.6450  -30.8640   21.9540 N   0  0  0  0  0  0  0  0  0  0  0  0
  -23.4340  -31.8620   23.6050 O   0  0  0  0  0  0  0  0  0  0  0  0
  -22.7240  -29.2200   22.2530 C   0  0  0  0  0  0  0  0  0  0  0  0
  -21.3950  -29.0550   22.1190 N   0  0  0  0  0  0  0  0  0  0  0  0
  -23.3990  -28.5440   23.0340 O   0  0  0  0  0  0  0  0  0  0  0  0
  -20.9070  -29.6540   21.4680 H   0  0  0  0  0  0  0  0  0  0  0  0
  -18.0080  -27.8640   22.6020 C   0  0  0  0  0  0  0  0  0  0  0  0
  -20.5770  -28.0710   22.8320 C   0  0  0  0  0  3  0  0  0  0  0  0
  -20.6440  -26.6870   22.1430 C   0  0  0  0  0  2  0  0  0  0  0  0
  -19.5160  -26.4610   21.1320 C   0  0  0  0  0  2  0  0  0  0  0  0
  -18.1500  -26.5720   21.8170 C   0  0  0  0  0  2  0  0  0  0  0  0
  -19.1480  -28.5760   23.0650 C   0  0  0  0  0  0  0  0  0  0  0  0
  -18.9590  -29.7890   23.7640 C   0  0  0  0  0  3  0  0  0  0  0  0
  -17.6650  -30.2900   24.0000 C   0  0  0  0  0  3  0  0  0  0  0  0
  -16.5420  -29.5740   23.5510 C   0  0  0  0  0  3  0  0  0  0  0  0
  -16.7140  -28.3630   22.8590 C   0  0  0  0  0  3  0  0  0  0  0  0
  -25.7880  -32.2560   23.7670 C   0  0  0  0  0  3  0  0  0  0  0  0
  -26.2640  -31.4600   25.0450 C   0  0  1  0  0  0  0  0  0  0  0  0
  -25.1360  -31.1940   26.0690 C   0  0  0  0  0  1  0  0  0  0  0  0
  -26.8680  -30.0930   24.6470 C   0  0  0  0  0  1  0  0  0  0  0  0
  -27.3860  -32.2460   25.7630 C   0  0  0  0  0  1  0  0  0  0  0  0
  -25.4530  -33.6440   24.1230 N   0  0  0  0  0  0  0  0  0  0  0  0
  -25.7720  -34.7190   23.3900 C   0  0  0  0  0  0  0  0  0  0  0  0
  -26.4450  -34.6480   22.3590 O   0  0  0  0  0  0  0  0  0  0  0  0
  -24.8550  -33.7720   24.9260 H   0  0  0  0  0  0  0  0  0  0  0  0
  -24.0050  -36.4870   23.0910 C   0  0  0  0  0  1  0  0  0  0  0  0
  -25.2650  -36.0920   23.8780 C   0  0  0  0  0  3  0  0  0  0  0  0
  -27.3890  -37.0120   24.7010 C   0  0  0  0  0  1  0  0  0  0  0  0
  -26.2770  -37.1660   23.7680 N   0  0  0  0  0  0  0  0  0  0  0  0
  -25.8530  -38.0770   23.9260 H   0  0  0  0  0  0  0  0  0  0  0  0
  2  1  2  0
  3  4  2  0
  4  1  1  0
  4 16  1  0
  5  2  1  0
  6  5  2  0
  6  3  1  0
  7  6  1  0
  8 14  1  0
  8 16  1  0
  9 14  1  0
 10 11  1  0
 10  9  1  0
 12 11  1  0
 12 21  1  0
 12 13  1  0
 14 13  1  0
 15  8  2  0
 16 17  1  0
 18 19  2  0
 19 38  1  0
 20 19  1  0
 20 23  1  0
 21 22  1  0
 21 18  1  0
 22 20  2  0
 23 24  1  0
 24 25  2  0
 26 29  1  0
 26 25  1  0
 27 26  2  0
 28 27  1  0
 28 23  2  0
 29 30  1  0
 30 31  1  0
 31 32  2  0
 33 32  1  0
 33 37  1  0
 34 33  2  0
 35 30  2  0
 35 34  1  0
 36 35  1  0
 38 39  1  0
 39 42  1  0
 39 41  1  0
 40 38  2  0
 43 44  1  0
 43 18  1  0
 45 43  1  0
 46 47  1  0
 46  5  1  0
 48 47  2  0
 48 49  1  0
 50 61  2  0
 51 49  1  0
 51 56  1  0
 52 60  1  0
 52 62  1  0
 53 59  1  0
 53 55  1  0
 54 60  1  0
 55 54  1  0
 56 55  2  0
 57 58  1  0
 57 51  2  0
 58 53  2  0
 59 52  1  0
 60 50  1  0
 62 64  2  0
 63 62  1  0
 65 63  1  0
 66 75  2  0
 66 71  1  0
 67 63  1  0
 67 71  1  0
 68 67  1  0
 69 70  1  0
 69 68  1  0
 70 66  1  0
 71 72  2  0
 72 73  1  0
 74 73  2  0
 75 74  1  0
 76 50  1  0
 76 81  1  0
 76 77  1  0
 77 80  1  1
 77 78  1  0
 79 77  1  0
 81 84  1  0
 82 86  1  0
 82 81  1  0
 83 82  2  0
 86 85  1  0
 88 86  1  0
 88 89  1  0
 88 87  1  0
M  ISO  4   8 100  16 100  48 101  49 101
M  END
>  <TORSDO>  (39) 
F 19

>  <SCORE>  (39) 
-13.742

>  <name>  (39) 
38

>  <ligand_id>  (39) 
38

>  <original_smiles>  (39) 
[H]c1c([H])c([H])c2c(c1[H])C([H])([H])C([H])([H])C([H])([H])C2([H])N([H])C(=O)C1([H])N(C(=O)C([H])(N([H])C(=O)C([H])(N([H])C([H])([H])[H])C([H])([H])[H])C(C([H])([H])[H])(C([H])([H])[H])C([H])([H])[H])C([H])([H])c2c([H])c(OC([H])([H])C([H])([H])Oc3c([H])c([H])c(N([H])C(=O)N4C([H])([H])C([H])([H])C([H])([H])C([H])(n5nc(-c6c([H])c([H])c(Oc7c([H])c([H])c(F)c([H])c7F)c([H])c6[H])c(C(=O)N([H])[H])c5N([H])[H])C4([H])[H])c([H])c3F)c([H])c([H])c2C1([H])[H]

>  <smiles>  (39) 
[H]c1c([H])c([H])c2c(c1[H])C([H])([H])C([H])([H])C([H])([H])C2([H])N([H])C(=O)C1([H])N(C(=O)C([H])(N([H])C(=O)C([H])(N([H])C([H])([H])[H])C([H])([H])[H])C(C([H])([H])[H])(C([H])([H])[H])C([H])([H])[H])C([H])([H])c2c([H])c(OC([H])([H])C([H])([H])Oc3c([H])c([H])c(N([H])C(=O)N4C([H])([H])C([H])([H])C([H])([H])C([H])(n5nc(-c6c([H])c([H])c(Oc7c([H])c([H])c(F)c([H])c7F)c([H])c6[H])c(C(=O)N([H])[H])c5N([H])[H])C4([H])[H])c([H])c3F)c([H])c([H])c2C1([H])[H]

$$$$
39:0:0
     RDKit          3D

 91 99  0  0  1  0  0  0  0  0999 V2000
  -29.9050  -17.8210   18.8840 C   0  0  0  0  0  3  0  0  0  0  0  0
  -30.9420  -18.5290   20.9180 C   0  0  0  0  0  3  0  0  0  0  0  0
  -29.6190  -19.1920   18.5840 C   0  0  0  0  0  3  0  0  0  0  0  0
  -30.6450  -19.8980   20.6230 C   0  0  0  0  0  3  0  0  0  0  0  0
  -30.5810  -17.4270   20.0720 C   0  0  0  0  0  0  0  0  0  0  0  0
  -29.9720  -20.2790   19.4340 C   0  0  0  0  0  0  0  0  0  0  0  0
  -31.3090  -15.0040   19.5950 C   0  0  0  0  0  0  0  0  0  0  0  0
  -30.9510  -12.7830   18.4910 C   0  0  0  0  0  2  0  0  0  0  0  0
  -29.8790  -12.8860   17.3830 C   0  0  0  0  0  2  0  0  0  0  0  0
  -28.4670  -12.6940   17.9680 C   0  0  0  0  0  2  0  0  0  0  0  0
  -28.2330  -13.5700   19.2250 C   0  0  0  0  0  3  0  0  0  0  0  0
  -29.4000  -13.4280   20.2220 C   0  0  0  0  0  2  0  0  0  0  0  0
  -30.6440  -13.7960   19.5280 N   0  0  0  0  0  0  0  0  0  0  0  0
  -32.3220  -15.1840   18.9100 O   0  0  0  0  0  0  0  0  0  0  0  0
  -30.8420  -16.0020   20.4430 N   0  0  0  0  0  0  0  0  0  0  0  0
  -25.9670  -14.1670   20.2760 C   0  0  0  0  0  0  0  0  0  0  0  0
  -24.9340  -13.3930   20.7330 C   0  0  0  0  0  0  0  0  0  0  0  0
  -25.3550  -12.0370   20.5710 C   0  0  0  0  0  0  0  0  0  0  0  0
  -26.9480  -13.2830   19.8580 N   0  0  0  0  0  0  0  0  0  0  0  0
  -26.5940  -11.9930   20.0940 N   0  0  0  0  0  0  0  0  0  0  0  0
  -24.6240  -10.7810   20.7810 C   0  0  0  0  0  0  0  0  0  0  0  0
  -25.0580   -9.8220   21.7230 C   0  0  0  0  0  3  0  0  0  0  0  0
  -24.3280   -8.6300   21.9190 C   0  0  0  0  0  3  0  0  0  0  0  0
  -23.1490   -8.3880   21.1740 C   0  0  0  0  0  0  0  0  0  0  0  0
  -22.7350   -9.3350   20.2200 C   0  0  0  0  0  3  0  0  0  0  0  0
  -23.4650  -10.5180   20.0220 C   0  0  0  0  0  3  0  0  0  0  0  0
  -22.3900   -7.2470   21.2780 O   0  0  0  0  0  0  0  0  0  0  0  0
  -22.2030   -6.6150   22.4810 C   0  0  0  0  0  0  0  0  0  0  0  0
  -21.6310   -7.2790   23.5880 C   0  0  0  0  0  3  0  0  0  0  0  0
  -21.3950   -6.5740   24.7860 C   0  0  0  0  0  3  0  0  0  0  0  0
  -21.7180   -5.2060   24.8740 C   0  0  0  0  0  0  0  0  0  0  0  0
  -22.2820   -4.5430   23.7700 C   0  0  0  0  0  3  0  0  0  0  0  0
  -22.5220   -5.2460   22.5760 C   0  0  0  0  0  0  0  0  0  0  0  0
  -23.0460   -4.5990   21.5080 F   0  0  0  0  0  0  0  0  0  0  0  0
  -21.4830   -4.5250   26.0200 F   0  0  0  0  0  0  0  0  0  0  0  0
  -23.5960  -13.8800   21.2060 C   0  0  0  0  0  0  0  0  0  0  0  0
  -22.9820  -13.1700   22.1470 N   0  0  0  0  0  0  0  0  0  0  0  0
  -23.1100  -14.9250   20.7780 O   0  0  0  0  0  0  0  0  0  0  0  0
  -23.3870  -12.3240   22.5190 H   0  0  0  0  0  0  0  0  0  0  0  0
  -22.0900  -13.4800   22.5040 H   0  0  0  0  0  0  0  0  0  0  0  0
  -26.1480  -15.5410   20.1600 N   0  0  0  0  0  0  0  0  0  0  0  0
  -25.4340  -16.2080   20.4320 H   0  0  0  0  0  0  0  0  0  0  0  0
  -26.9800  -15.9800   19.7880 H   0  0  0  0  0  0  0  0  0  0  0  0
  -31.0830  -15.7070   21.8740 C   0  0  0  0  0  2  0  0  0  0  0  0
  -30.9280  -17.3050   23.8300 C   0  0  0  0  0  2  0  0  0  0  0  0
  -30.3420  -16.6400   22.8230 C   0  0  0  0  0  3  0  0  0  0  0  0
  -29.6620  -21.6020   19.0320 O   0  0  0  0  0  0  0  0  0  0  0  0
  -29.5830  -22.7620   19.9370 C   0  0  0  0  0  3  0  0  0  0  0  0
  -29.2600  -24.1710   19.2290 C   0  0  0  0  0  3  0  0  0  0  0  0
  -28.7830  -25.4120   20.1160 C   0  0  0  0  0  2  0  0  0  0  0  0
  -28.8010  -26.7910   19.5620 O   0  0  0  0  0  0  0  0  0  0  0  0
  -24.8070  -31.6560   23.1180 C   0  0  0  0  0  0  0  0  0  0  0  0
  -27.6330  -27.5610   19.6470 C   0  0  0  0  0  0  0  0  0  0  0  0
  -23.6620  -30.3520   21.3590 C   0  0  0  0  0  3  0  0  0  0  0  0
  -25.1800  -29.0210   19.7890 C   0  0  0  0  0  0  0  0  0  0  0  0
  -26.1760  -30.8320   21.1880 C   0  0  0  0  0  2  0  0  0  0  0  0
  -26.3250  -29.5270   20.4190 C   0  0  0  0  0  0  0  0  0  0  0  0
  -27.5590  -28.8150   20.3300 C   0  0  0  0  0  3  0  0  0  0  0  0
  -26.4670  -27.1020   19.0070 C   0  0  0  0  0  3  0  0  0  0  0  0
  -25.2530  -27.8150   19.0710 C   0  0  0  0  0  3  0  0  0  0  0  0
  -23.8970  -29.8160   19.9230 C   0  0  0  0  0  2  0  0  0  0  0  0
  -24.9000  -30.9590   21.9470 N   0  0  0  0  0  0  0  0  0  0  0  0
  -23.7150  -31.8240   23.6810 O   0  0  0  0  0  0  0  0  0  0  0  0
  -23.0640  -29.2160   22.2250 C   0  0  0  0  0  0  0  0  0  0  0  0
  -21.7450  -28.9860   22.0980 N   0  0  0  0  0  0  0  0  0  0  0  0
  -23.7860  -28.5490   22.9690 O   0  0  0  0  0  0  0  0  0  0  0  0
  -21.2180  -29.5750   21.4680 H   0  0  0  0  0  0  0  0  0  0  0  0
  -18.4370  -27.5960   22.5290 C   0  0  0  0  0  0  0  0  0  0  0  0
  -20.9840  -27.9490   22.7940 C   0  0  0  0  0  3  0  0  0  0  0  0
  -21.1390  -26.5770   22.1020 C   0  0  0  0  0  2  0  0  0  0  0  0
  -20.0470  -26.3020   21.0620 C   0  0  0  0  0  2  0  0  0  0  0  0
  -18.6660  -26.3270   21.7240 C   0  0  0  0  0  2  0  0  0  0  0  0
  -19.5270  -28.3670   23.0160 C   0  0  0  0  0  0  0  0  0  0  0  0
  -19.2600  -29.5580   23.7270 C   0  0  0  0  0  3  0  0  0  0  0  0
  -17.9360  -29.9740   23.9610 C   0  0  0  0  0  3  0  0  0  0  0  0
  -16.8620  -29.1980   23.4940 C   0  0  0  0  0  3  0  0  0  0  0  0
  -17.1120  -28.0120   22.7820 C   0  0  0  0  0  3  0  0  0  0  0  0
  -26.0610  -32.2980   23.7880 C   0  0  0  0  0  3  0  0  0  0  0  0
  -25.6840  -33.6480   24.2350 N   0  0  0  0  0  0  0  0  0  0  0  0
  -25.9770  -34.7790   23.5790 C   0  0  0  0  0  0  0  0  0  0  0  0
  -26.6600  -34.7970   22.5510 O   0  0  0  0  0  0  0  0  0  0  0  0
  -25.0760  -33.7050   25.0370 H   0  0  0  0  0  0  0  0  0  0  0  0
  -24.1730  -36.5200   23.3630 C   0  0  0  0  0  1  0  0  0  0  0  0
  -25.4250  -36.0980   24.1510 C   0  0  0  0  0  3  0  0  0  0  0  0
  -27.5100  -36.9980   25.0830 C   0  0  0  0  0  1  0  0  0  0  0  0
  -26.4100  -37.2020   24.1440 N   0  0  0  0  0  0  0  0  0  0  0  0
  -25.9620  -38.0860   24.3660 H   0  0  0  0  0  0  0  0  0  0  0  0
  -26.6230  -31.4490   24.9940 C   0  0  1  0  0  0  0  0  0  0  0  0
  -25.5520  -31.0750   26.0430 C   0  0  0  0  0  1  0  0  0  0  0  0
  -27.2650  -30.1370   24.4850 C   0  0  0  0  0  1  0  0  0  0  0  0
  -27.7410  -32.2380   25.7150 C   0  0  0  0  0  1  0  0  0  0  0  0
  1  5  1  0
  3  1  2  0
  3  6  1  0
  4  2  1  0
  5 15  1  0
  5  2  2  0
  6  4  2  0
  7 15  1  0
  8 13  1  0
  9 10  1  0
  9  8  1  0
 11 10  1  0
 11 19  1  0
 11 12  1  0
 13  7  1  0
 13 12  1  0
 14  7  2  0
 15 44  1  0
 16 17  2  0
 17 36  1  0
 18 17  1  0
 18 21  1  0
 19 20  1  0
 19 16  1  0
 20 18  2  0
 21 22  1  0
 22 23  2  0
 24 27  1  0
 24 23  1  0
 25 24  2  0
 26 25  1  0
 26 21  2  0
 27 28  1  0
 28 33  2  0
 28 29  1  0
 29 30  2  0
 30 31  1  0
 31 35  1  0
 32 31  2  0
 33 32  1  0
 34 33  1  0
 36 37  1  0
 37 40  1  0
 37 39  1  0
 38 36  2  0
 41 16  1  0
 41 42  1  0
 43 41  1  0
 44 46  1  0
 46 45  2  0
 47  6  1  0
 47 48  1  0
 49 48  2  0
 49 50  1  0
 51 53  1  0
 51 50  1  0
 52 63  2  0
 53 58  1  0
 54 62  1  0
 54 64  1  0
 55 61  1  0
 55 57  1  0
 56 62  1  0
 57 56  1  0
 58 57  2  0
 59 60  1  0
 59 53  2  0
 60 55  2  0
 61 54  1  0
 62 52  1  0
 64 66  2  0
 65 64  1  0
 67 65  1  0
 68 77  2  0
 68 73  1  0
 69 65  1  0
 69 73  1  0
 70 69  1  0
 71 72  1  0
 71 70  1  0
 72 68  1  0
 73 74  2  0
 74 75  1  0
 76 75  2  0
 77 76  1  0
 78 52  1  0
 78 79  1  0
 78 88  1  0
 79 82  1  0
 80 84  1  0
 80 79  1  0
 81 80  2  0
 84 83  1  0
 86 84  1  0
 86 87  1  0
 86 85  1  0
 88 91  1  1
 88 89  1  0
 90 88  1  0
M  ISO  4   7 100  15 100  50 101  51 101
M  END
>  <TORSDO>  (40) 
F 22

>  <SCORE>  (40) 
-9.317

>  <name>  (40) 
39

>  <ligand_id>  (40) 
39

>  <original_smiles>  (40) 
[H]C([H])=C([H])C([H])([H])N(C(=O)N1C([H])([H])C([H])([H])C([H])([H])C([H])(n2nc(-c3c([H])c([H])c(Oc4c([H])c([H])c(F)c([H])c4F)c([H])c3[H])c(C(=O)N([H])[H])c2N([H])[H])C1([H])[H])c1c([H])c([H])c(OC([H])([H])C([H])([H])C([H])([H])Oc2c([H])c([H])c3c(c2[H])C([H])([H])N(C(=O)C([H])(N([H])C(=O)C([H])(N([H])C([H])([H])[H])C([H])([H])[H])C(C([H])([H])[H])(C([H])([H])[H])C([H])([H])[H])C([H])(C(=O)N([H])C2([H])c4c([H])c([H])c([H])c([H])c4C([H])([H])C([H])([H])C2([H])[H])C3([H])[H])c([H])c1[H]

>  <smiles>  (40) 
[H]C([H])=C([H])C([H])([H])N(C(=O)N1C([H])([H])C([H])([H])C([H])([H])C([H])(n2nc(-c3c([H])c([H])c(Oc4c([H])c([H])c(F)c([H])c4F)c([H])c3[H])c(C(=O)N([H])[H])c2N([H])[H])C1([H])[H])c1c([H])c([H])c(OC([H])([H])C([H])([H])C([H])([H])Oc2c([H])c([H])c3c(c2[H])C([H])([H])N(C(=O)C([H])(N([H])C(=O)C([H])(N([H])C([H])([H])[H])C([H])([H])[H])C(C([H])([H])[H])(C([H])([H])[H])C([H])([H])[H])C([H])(C(=O)N([H])C2([H])c4c([H])c([H])c([H])c([H])c4C([H])([H])C([H])([H])C2([H])[H])C3([H])[H])c([H])c1[H]

$$$$
40:0:0
     RDKit          3D

 87 95  0  0  1  0  0  0  0  0999 V2000
  -28.8890  -21.6800   20.2780 C   0  0  0  0  0  3  0  0  0  0  0  0
  -29.2090  -23.3210   19.9670 C   0  0  0  0  0  3  0  0  0  0  0  0
  -28.2130  -24.6390   20.3580 C   0  0  0  0  0  2  0  0  0  0  0  0
  -28.4990  -26.1810   20.2800 O   0  0  0  0  0  0  0  0  0  0  0  0
  -24.8850  -31.9220   23.2550 C   0  0  0  0  0  0  0  0  0  0  0  0
  -27.4440  -27.1720   20.2470 C   0  0  0  0  0  0  0  0  0  0  0  0
  -23.6850  -30.5330   21.6120 C   0  0  0  0  0  3  0  0  0  0  0  0
  -25.1290  -28.9430   20.2020 C   0  0  0  0  0  0  0  0  0  0  0  0
  -26.2430  -30.7740   21.4630 C   0  0  0  0  0  2  0  0  0  0  0  0
  -26.3100  -29.3780   20.8160 C   0  0  0  0  0  0  0  0  0  0  0  0
  -27.4680  -28.5100   20.8200 C   0  0  0  0  0  3  0  0  0  0  0  0
  -26.2370  -26.8470   19.5880 C   0  0  0  0  0  3  0  0  0  0  0  0
  -25.1060  -27.6900   19.5720 C   0  0  0  0  0  3  0  0  0  0  0  0
  -23.9100  -29.8520   20.2360 C   0  0  0  0  0  2  0  0  0  0  0  0
  -24.9580  -31.0980   22.1640 N   0  0  0  0  0  0  0  0  0  0  0  0
  -23.7980  -32.2170   23.7750 O   0  0  0  0  0  0  0  0  0  0  0  0
  -22.9910  -29.5320   22.5720 C   0  0  0  0  0  0  0  0  0  0  0  0
  -21.6600  -29.3860   22.4490 N   0  0  0  0  0  0  0  0  0  0  0  0
  -23.6550  -28.8900   23.3890 O   0  0  0  0  0  0  0  0  0  0  0  0
  -21.1820  -29.9570   21.7670 H   0  0  0  0  0  0  0  0  0  0  0  0
  -18.2610  -28.2380   22.9560 C   0  0  0  0  0  0  0  0  0  0  0  0
  -20.8250  -28.4610   23.2200 C   0  0  0  0  0  3  0  0  0  0  0  0
  -20.9030  -27.0280   22.6440 C   0  0  0  0  0  2  0  0  0  0  0  0
  -19.7940  -26.7250   21.6310 C   0  0  0  0  0  2  0  0  0  0  0  0
  -18.4160  -26.8880   22.2760 C   0  0  0  0  0  2  0  0  0  0  0  0
  -19.3920  -28.9830   23.3850 C   0  0  0  0  0  0  0  0  0  0  0  0
  -19.1920  -30.2470   23.9840 C   0  0  0  0  0  3  0  0  0  0  0  0
  -17.8950  -30.7650   24.1560 C   0  0  0  0  0  3  0  0  0  0  0  0
  -16.7790  -30.0170   23.7410 C   0  0  0  0  0  3  0  0  0  0  0  0
  -16.9630  -28.7560   23.1480 C   0  0  0  0  0  3  0  0  0  0  0  0
  -26.1640  -32.5500   23.8890 C   0  0  0  0  0  3  0  0  0  0  0  0
  -26.6640  -31.7760   25.1700 C   0  0  1  0  0  0  0  0  0  0  0  0
  -25.5600  -31.5460   26.2290 C   0  0  0  0  0  1  0  0  0  0  0  0
  -27.2420  -30.3930   24.7870 C   0  0  0  0  0  1  0  0  0  0  0  0
  -27.8150  -32.5620   25.8410 C   0  0  0  0  0  1  0  0  0  0  0  0
  -25.8570  -33.9490   24.2240 N   0  0  0  0  0  0  0  0  0  0  0  0
  -26.2020  -35.0080   23.4790 C   0  0  0  0  0  0  0  0  0  0  0  0
  -26.8780  -34.9090   22.4520 O   0  0  0  0  0  0  0  0  0  0  0  0
  -25.2600  -34.1010   25.0250 H   0  0  0  0  0  0  0  0  0  0  0  0
  -24.4880  -36.8180   23.1340 C   0  0  0  0  0  1  0  0  0  0  0  0
  -25.7220  -36.3970   23.9470 C   0  0  0  0  0  3  0  0  0  0  0  0
  -27.8610  -37.2590   24.7920 C   0  0  0  0  0  1  0  0  0  0  0  0
  -26.7630  -37.4430   23.8470 N   0  0  0  0  0  0  0  0  0  0  0  0
  -26.3620  -38.3650   24.0020 H   0  0  0  0  0  0  0  0  0  0  0  0
  -29.6280  -20.4270   19.7120 O   0  0  0  0  0  0  0  0  0  0  0  0
  -28.4180  -17.4860   21.7630 C   0  0  0  0  0  3  0  0  0  0  0  0
  -29.0630  -16.3450   21.2370 C   0  0  0  0  0  3  0  0  0  0  0  0
  -28.5840  -18.7790   21.2260 C   0  0  0  0  0  3  0  0  0  0  0  0
  -30.0690  -17.7840   19.5830 C   0  0  0  0  0  3  0  0  0  0  0  0
  -29.8770  -16.3830   20.0810 C   0  0  0  0  0  0  0  0  0  0  0  0
  -29.4430  -19.0300   20.1370 C   0  0  0  0  0  0  0  0  0  0  0  0
  -30.5770  -15.0140   19.5610 C   0  0  0  0  0  0  0  0  0  0  0  0
  -30.3980  -12.6970   18.5190 C   0  0  0  0  0  2  0  0  0  0  0  0
  -29.3290  -12.6850   17.3970 C   0  0  0  0  0  2  0  0  0  0  0  0
  -27.9210  -12.4260   17.9690 C   0  0  0  0  0  2  0  0  0  0  0  0
  -27.6420  -13.2800   19.2310 C   0  0  0  0  0  3  0  0  0  0  0  0
  -28.8150  -13.2060   20.2220 C   0  0  0  0  0  2  0  0  0  0  0  0
  -30.0100  -13.7280   19.5340 N   0  0  0  0  0  0  0  0  0  0  0  0
  -31.6950  -15.1110   19.0380 O   0  0  0  0  0  0  0  0  0  0  0  0
  -25.3580  -13.7960   20.2640 C   0  0  0  0  0  0  0  0  0  0  0  0
  -24.3460  -12.9930   20.7120 C   0  0  0  0  0  0  0  0  0  0  0  0
  -24.8110  -11.6500   20.5590 C   0  0  0  0  0  0  0  0  0  0  0  0
  -26.3700  -12.9430   19.8590 N   0  0  0  0  0  0  0  0  0  0  0  0
  -26.0580  -11.6420   20.1010 N   0  0  0  0  0  0  0  0  0  0  0  0
  -24.1170  -10.3720   20.7680 C   0  0  0  0  0  0  0  0  0  0  0  0
  -24.6340   -9.3830   21.6330 C   0  0  0  0  0  3  0  0  0  0  0  0
  -23.9370   -8.1700   21.8320 C   0  0  0  0  0  3  0  0  0  0  0  0
  -22.7100   -7.9400   21.1680 C   0  0  0  0  0  0  0  0  0  0  0  0
  -22.2110   -8.9190   20.2890 C   0  0  0  0  0  3  0  0  0  0  0  0
  -22.9080  -10.1220   20.0890 C   0  0  0  0  0  3  0  0  0  0  0  0
  -21.9760   -6.7830   21.2800 O   0  0  0  0  0  0  0  0  0  0  0  0
  -22.0000   -6.0240   22.4220 C   0  0  0  0  0  0  0  0  0  0  0  0
  -21.6490   -6.5600   23.6810 C   0  0  0  0  0  3  0  0  0  0  0  0
  -21.6200   -5.7280   24.8170 C   0  0  0  0  0  3  0  0  0  0  0  0
  -21.9300   -4.3610   24.6970 C   0  0  0  0  0  0  0  0  0  0  0  0
  -22.2750   -3.8240   23.4440 C   0  0  0  0  0  3  0  0  0  0  0  0
  -22.3060   -4.6530   22.3100 C   0  0  0  0  0  0  0  0  0  0  0  0
  -22.6180   -4.1260   21.1010 F   0  0  0  0  0  0  0  0  0  0  0  0
  -21.8940   -3.5580   25.7870 F   0  0  0  0  0  0  0  0  0  0  0  0
  -22.9870  -13.4410   21.1650 C   0  0  0  0  0  0  0  0  0  0  0  0
  -22.3750  -12.7050   22.0870 N   0  0  0  0  0  0  0  0  0  0  0  0
  -22.4800  -14.4770   20.7370 O   0  0  0  0  0  0  0  0  0  0  0  0
  -22.8020  -11.8670   22.4520 H   0  0  0  0  0  0  0  0  0  0  0  0
  -21.4690  -12.9850   22.4340 H   0  0  0  0  0  0  0  0  0  0  0  0
  -25.4970  -15.1760   20.1450 N   0  0  0  0  0  0  0  0  0  0  0  0
  -24.7600  -15.8230   20.4040 H   0  0  0  0  0  0  0  0  0  0  0  0
  -26.3250  -15.6400   19.7930 H   0  0  0  0  0  0  0  0  0  0  0  0
  2  1  2  0
  2  3  1  0
  4  3  1  0
  5 16  2  0
  6  4  1  0
  6 11  1  0
  7 15  1  0
  7 17  1  0
  8 14  1  0
  8 10  1  0
  9 15  1  0
 10 11  2  0
 10  9  1  0
 12  6  2  0
 13 12  1  0
 13  8  2  0
 14  7  1  0
 15  5  1  0
 17 19  2  0
 18 17  1  0
 20 18  1  0
 21 30  2  0
 21 26  1  0
 22 18  1  0
 22 26  1  0
 23 22  1  0
 24 25  1  0
 24 23  1  0
 25 21  1  0
 26 27  2  0
 27 28  1  0
 29 28  2  0
 30 29  1  0
 31  5  1  0
 31 36  1  0
 31 32  1  0
 32 35  1  1
 32 33  1  0
 34 32  1  0
 36 39  1  0
 37 41  1  0
 37 36  1  0
 38 37  2  0
 41 40  1  0
 43 41  1  0
 43 44  1  0
 43 42  1  0
 45 51  1  0
 45  1  1  0
 47 46  1  0
 48 46  2  0
 49 50  1  0
 49 51  2  0
 50 47  2  0
 51 48  1  0
 52 50  1  0
 53 58  1  0
 54 55  1  0
 54 53  1  0
 56 55  1  0
 56 63  1  0
 56 57  1  0
 58 52  1  0
 58 57  1  0
 59 52  2  0
 60 61  2  0
 61 80  1  0
 62 61  1  0
 62 65  1  0
 63 64  1  0
 63 60  1  0
 64 62  2  0
 65 66  1  0
 66 67  2  0
 68 71  1  0
 68 67  1  0
 69 68  2  0
 70 69  1  0
 70 65  2  0
 71 72  1  0
 72 73  1  0
 73 74  2  0
 75 74  1  0
 75 79  1  0
 76 75  2  0
 77 72  2  0
 77 76  1  0
 78 77  1  0
 80 81  1  0
 81 84  1  0
 81 83  1  0
 82 80  2  0
 85 60  1  0
 85 86  1  0
 87 85  1  0
M  ISO  4   3 101   4 101  50 100  52 100
M  END
>  <TORSDO>  (41) 
F 20

>  <SCORE>  (41) 
-10.442

>  <name>  (41) 
40

>  <ligand_id>  (41) 
40

>  <original_smiles>  (41) 
[H]c1c([H])c(OC([H])([H])C([H])([H])C([H])([H])Oc2c([H])c([H])c3c(c2[H])C([H])([H])N(C(=O)C([H])(N([H])C(=O)C([H])(N([H])C([H])([H])[H])C([H])([H])[H])C(C([H])([H])[H])(C([H])([H])[H])C([H])([H])[H])C([H])(C(=O)N([H])C2([H])c4c([H])c([H])c([H])c([H])c4C([H])([H])C([H])([H])C2([H])[H])C3([H])[H])c([H])c(C(=O)N2C([H])([H])C([H])([H])C([H])([H])C([H])(n3nc(-c4c([H])c([H])c(Oc5c([H])c([H])c(F)c([H])c5F)c([H])c4[H])c(C(=O)N([H])[H])c3N([H])[H])C2([H])[H])c1[H]

>  <smiles>  (41) 
[H]c1c([H])c(OC([H])([H])C([H])([H])C([H])([H])Oc2c([H])c([H])c3c(c2[H])C([H])([H])N(C(=O)C([H])(N([H])C(=O)C([H])(N([H])C([H])([H])[H])C([H])([H])[H])C(C([H])([H])[H])(C([H])([H])[H])C([H])([H])[H])C([H])(C(=O)N([H])C2([H])c4c([H])c([H])c([H])c([H])c4C([H])([H])C([H])([H])C2([H])[H])C3([H])[H])c([H])c(C(=O)N2C([H])([H])C([H])([H])C([H])([H])C([H])(n3nc(-c4c([H])c([H])c(Oc5c([H])c([H])c(F)c([H])c5F)c([H])c4[H])c(C(=O)N([H])[H])c3N([H])[H])C2([H])[H])c1[H]

$$$$
41:0:0
     RDKit          3D

 94102  0  0  1  0  0  0  0  0999 V2000
  -31.6630  -21.6170   19.7870 C   0  0  0  0  0  1  0  0  0  0  0  0
  -30.6350  -21.1450   20.8330 C   0  0  0  0  0  3  0  0  0  0  0  0
  -30.3440  -18.8340   19.6840 C   0  0  0  0  0  3  0  0  0  0  0  0
  -30.3330  -17.4200   19.7480 C   0  0  0  0  0  3  0  0  0  0  0  0
  -30.4990  -18.9270   22.0900 C   0  0  0  0  0  3  0  0  0  0  0  0
  -30.4670  -19.6120   20.8580 C   0  0  0  0  0  0  0  0  0  0  0  0
  -30.4640  -16.7130   20.9800 C   0  0  0  0  0  0  0  0  0  0  0  0
  -30.4930  -17.5180   22.1590 C   0  0  0  0  0  0  0  0  0  0  0  0
  -30.5310  -16.9760   23.3990 F   0  0  0  0  0  0  0  0  0  0  0  0
  -30.8580  -14.4970   19.9310 C   0  0  0  0  0  0  0  0  0  0  0  0
  -30.3160  -12.5140   18.5500 C   0  0  0  0  0  2  0  0  0  0  0  0
  -29.2400  -12.8310   17.4940 C   0  0  0  0  0  2  0  0  0  0  0  0
  -27.8310  -12.6390   18.0800 C   0  0  0  0  0  2  0  0  0  0  0  0
  -27.6550  -13.3580   19.4420 C   0  0  0  0  0  3  0  0  0  0  0  0
  -28.8260  -13.0460   20.3940 C   0  0  0  0  0  2  0  0  0  0  0  0
  -30.0920  -13.3860   19.7170 N   0  0  0  0  0  0  0  0  0  0  0  0
  -31.7970  -14.7950   19.1840 O   0  0  0  0  0  0  0  0  0  0  0  0
  -30.8540  -14.5870   22.3160 C   0  0  0  0  0  1  0  0  0  0  0  0
  -30.5810  -15.2540   21.0290 N   0  0  0  0  0  0  0  0  0  0  0  0
  -25.3390  -13.8920   20.4260 C   0  0  0  0  0  0  0  0  0  0  0  0
  -24.3290  -13.0890   20.8800 C   0  0  0  0  0  0  0  0  0  0  0  0
  -24.8060  -11.7470   20.7540 C   0  0  0  0  0  0  0  0  0  0  0  0
  -26.3670  -13.0410   20.0530 N   0  0  0  0  0  0  0  0  0  0  0  0
  -26.0560  -11.7430   20.3070 N   0  0  0  0  0  0  0  0  0  0  0  0
  -24.1260  -10.4650   20.9790 C   0  0  0  0  0  0  0  0  0  0  0  0
  -24.6250   -9.5130   21.8950 C   0  0  0  0  0  3  0  0  0  0  0  0
  -23.9410   -8.2970   22.1060 C   0  0  0  0  0  3  0  0  0  0  0  0
  -22.7440   -8.0230   21.4020 C   0  0  0  0  0  0  0  0  0  0  0  0
  -22.2640   -8.9650   20.4740 C   0  0  0  0  0  3  0  0  0  0  0  0
  -22.9490  -10.1720   20.2610 C   0  0  0  0  0  3  0  0  0  0  0  0
  -22.0260   -6.8570   21.5240 O   0  0  0  0  0  0  0  0  0  0  0  0
  -22.0060   -6.1430   22.6950 C   0  0  0  0  0  0  0  0  0  0  0  0
  -21.5760   -6.7170   23.9100 C   0  0  0  0  0  3  0  0  0  0  0  0
  -21.5060   -5.9270   25.0760 C   0  0  0  0  0  3  0  0  0  0  0  0
  -21.8560   -4.5650   25.0250 C   0  0  0  0  0  0  0  0  0  0  0  0
  -22.2790   -3.9900   23.8140 C   0  0  0  0  0  3  0  0  0  0  0  0
  -22.3510   -4.7770   22.6510 C   0  0  0  0  0  0  0  0  0  0  0  0
  -22.7390   -4.2120   21.4820 F   0  0  0  0  0  0  0  0  0  0  0  0
  -21.7810   -3.8040   26.1420 F   0  0  0  0  0  0  0  0  0  0  0  0
  -22.9620  -13.5280   21.3190 C   0  0  0  0  0  0  0  0  0  0  0  0
  -22.3570  -12.8060   22.2560 N   0  0  0  0  0  0  0  0  0  0  0  0
  -22.4440  -14.5490   20.8680 O   0  0  0  0  0  0  0  0  0  0  0  0
  -22.7900  -11.9790   22.6370 H   0  0  0  0  0  0  0  0  0  0  0  0
  -21.4480  -13.0860   22.5970 H   0  0  0  0  0  0  0  0  0  0  0  0
  -25.4620  -15.2720   20.2780 N   0  0  0  0  0  0  0  0  0  0  0  0
  -24.7040  -15.9090   20.4960 H   0  0  0  0  0  0  0  0  0  0  0  0
  -26.2720  -15.7370   19.8900 H   0  0  0  0  0  0  0  0  0  0  0  0
  -29.3370  -21.8530   20.6800 N   0  0  0  0  0  4  0  0  0  0  0  0
  -29.1530  -22.0630   19.7130 H   0  0  0  0  0  0  0  0  0  0  0  0
  -28.6470  -21.1730   20.9560 H   0  0  0  0  0  0  0  0  0  0  0  0
  -29.1080  -23.0440   21.5520 C   0  0  0  0  0  2  0  0  0  0  0  0
  -29.4710  -24.4400   20.9500 C   0  0  0  0  0  2  0  0  0  0  0  0
  -28.2670  -25.2050   20.3510 C   0  0  0  0  0  2  0  0  0  0  0  0
  -28.4650  -26.6330   20.2420 O   0  0  0  0  0  0  0  0  0  0  0  0
  -24.5100  -31.8090   23.1290 C   0  0  0  0  0  0  0  0  0  0  0  0
  -27.3010  -27.3780   20.1560 C   0  0  0  0  0  0  0  0  0  0  0  0
  -23.3610  -30.3450   21.5050 C   0  0  0  0  0  3  0  0  0  0  0  0
  -24.8700  -28.8350   20.1120 C   0  0  0  0  0  0  0  0  0  0  0  0
  -25.8800  -30.7700   21.3240 C   0  0  0  0  0  2  0  0  0  0  0  0
  -26.0110  -29.3930   20.7040 C   0  0  0  0  0  0  0  0  0  0  0  0
  -27.2320  -28.6740   20.7210 C   0  0  0  0  0  3  0  0  0  0  0  0
  -26.1440  -26.8520   19.5330 C   0  0  0  0  0  3  0  0  0  0  0  0
  -24.9330  -27.5630   19.5220 C   0  0  0  0  0  3  0  0  0  0  0  0
  -23.6020  -29.6560   20.1360 C   0  0  0  0  0  2  0  0  0  0  0  0
  -24.6000  -30.9890   22.0440 N   0  0  0  0  0  0  0  0  0  0  0  0
  -23.4150  -32.0620   23.6520 O   0  0  0  0  0  0  0  0  0  0  0  0
  -22.7320  -29.3190   22.4750 C   0  0  0  0  0  0  0  0  0  0  0  0
  -21.4040  -29.1410   22.3760 N   0  0  0  0  0  0  0  0  0  0  0  0
  -23.4320  -28.6870   23.2700 O   0  0  0  0  0  0  0  0  0  0  0  0
  -20.9040  -29.7090   21.7060 H   0  0  0  0  0  0  0  0  0  0  0  0
  -18.0240  -28.0160   23.0090 C   0  0  0  0  0  0  0  0  0  0  0  0
  -20.5980  -28.2040   23.1600 C   0  0  0  0  0  3  0  0  0  0  0  0
  -20.6350  -26.7860   22.5450 C   0  0  0  0  0  2  0  0  0  0  0  0
  -19.4760  -26.5180   21.5790 C   0  0  0  0  0  2  0  0  0  0  0  0
  -18.1310  -26.6800   22.2920 C   0  0  0  0  0  2  0  0  0  0  0  0
  -19.1810  -28.7380   23.4010 C   0  0  0  0  0  0  0  0  0  0  0  0
  -19.0270  -29.9910   24.0340 C   0  0  0  0  0  3  0  0  0  0  0  0
  -17.7460  -30.5210   24.2760 C   0  0  0  0  0  3  0  0  0  0  0  0
  -16.6030  -29.7950   23.8980 C   0  0  0  0  0  3  0  0  0  0  0  0
  -16.7430  -28.5440   23.2710 C   0  0  0  0  0  3  0  0  0  0  0  0
  -25.7700  -32.4840   23.7490 C   0  0  0  0  0  3  0  0  0  0  0  0
  -25.4130  -33.8740   24.0680 N   0  0  0  0  0  0  0  0  0  0  0  0
  -25.7190  -34.9310   23.3050 C   0  0  0  0  0  0  0  0  0  0  0  0
  -26.4050  -34.8420   22.2830 O   0  0  0  0  0  0  0  0  0  0  0  0
  -24.8030  -34.0130   24.8610 H   0  0  0  0  0  0  0  0  0  0  0  0
  -23.9460  -36.6730   22.9070 C   0  0  0  0  0  1  0  0  0  0  0  0
  -25.1800  -36.3070   23.7460 C   0  0  0  0  0  3  0  0  0  0  0  0
  -27.2680  -37.2600   24.6180 C   0  0  0  0  0  1  0  0  0  0  0  0
  -26.1830  -37.3900   23.6500 N   0  0  0  0  0  0  0  0  0  0  0  0
  -25.7460  -38.2980   23.7830 H   0  0  0  0  0  0  0  0  0  0  0  0
  -26.3090  -31.7350   25.0300 C   0  0  1  0  0  0  0  0  0  0  0  0
  -25.2220  -31.4550   26.0950 C   0  0  0  0  0  1  0  0  0  0  0  0
  -26.9480  -30.3790   24.6430 C   0  0  0  0  0  1  0  0  0  0  0  0
  -27.4230  -32.5780   25.6930 C   0  0  0  0  0  1  0  0  0  0  0  0
  2  1  1  0
  2  6  1  0
  3  4  2  0
  3  6  1  0
  4  7  1  0
  5  8  1  0
  6  5  2  0
  7 19  1  0
  7  8  2  0
  8  9  1  0
 10 19  1  0
 11 16  1  0
 12 13  1  0
 12 11  1  0
 14 13  1  0
 14 23  1  0
 14 15  1  0
 16 10  1  0
 16 15  1  0
 17 10  2  0
 19 18  1  0
 20 21  2  0
 21 40  1  0
 22 21  1  0
 22 25  1  0
 23 24  1  0
 23 20  1  0
 24 22  2  0
 25 26  1  0
 26 27  2  0
 28 31  1  0
 28 27  1  0
 29 28  2  0
 30 29  1  0
 30 25  2  0
 31 32  1  0
 32 33  1  0
 33 34  2  0
 35 34  1  0
 35 39  1  0
 36 35  2  0
 37 32  2  0
 37 36  1  0
 38 37  1  0
 40 41  1  0
 41 44  1  0
 41 43  1  0
 42 40  2  0
 45 20  1  0
 45 46  1  0
 47 45  1  0
 48  2  1  0
 48 50  1  0
 48 51  1  0
 49 48  1  0
 52 51  1  0
 53 52  1  0
 54 53  1  0
 55 66  2  0
 56 54  1  0
 56 61  1  0
 57 65  1  0
 57 67  1  0
 58 64  1  0
 58 60  1  0
 59 65  1  0
 60 61  2  0
 60 59  1  0
 62 56  2  0
 63 62  1  0
 63 58  2  0
 64 57  1  0
 65 55  1  0
 67 69  2  0
 68 67  1  0
 70 68  1  0
 71 80  2  0
 71 76  1  0
 72 68  1  0
 72 76  1  0
 73 72  1  0
 74 75  1  0
 74 73  1  0
 75 71  1  0
 76 77  2  0
 77 78  1  0
 79 78  2  0
 80 79  1  0
 81 55  1  0
 81 82  1  0
 81 91  1  0
 82 85  1  0
 83 87  1  0
 83 82  1  0
 84 83  2  0
 87 86  1  0
 89 87  1  0
 89 90  1  0
 89 88  1  0
 91 94  1  1
 91 92  1  0
 93 91  1  0
M  ISO  4  10 100  19 100  53 101  54 101
M  END
>  <TORSDO>  (42) 
F 21

>  <SCORE>  (42) 
-11.471

>  <name>  (42) 
41

>  <ligand_id>  (42) 
41

>  <original_smiles>  (42) 
[H]c1c([H])c([H])c2c(c1[H])C([H])([H])C([H])([H])C([H])([H])C2([H])N([H])C(=O)C1([H])N(C(=O)C([H])(N([H])C(=O)C([H])(N([H])C([H])([H])[H])C([H])([H])[H])C(C([H])([H])[H])(C([H])([H])[H])C([H])([H])[H])C([H])([H])c2c([H])c(OC([H])([H])C([H])([H])C([H])([H])[N+]([H])([H])C([H])(c3c([H])c([H])c(N(C(=O)N4C([H])([H])C([H])([H])C([H])([H])C([H])(n5nc(-c6c([H])c([H])c(Oc7c([H])c([H])c(F)c([H])c7F)c([H])c6[H])c(C(=O)N([H])[H])c5N([H])[H])C4([H])[H])C([H])([H])[H])c(F)c3[H])C([H])([H])[H])c([H])c([H])c2C1([H])[H]

>  <smiles>  (42) 
[H]c1c([H])c([H])c2c(c1[H])C([H])([H])C([H])([H])C([H])([H])C2([H])N([H])C(=O)C1([H])N(C(=O)C([H])(N([H])C(=O)C([H])(N([H])C([H])([H])[H])C([H])([H])[H])C(C([H])([H])[H])(C([H])([H])[H])C([H])([H])[H])C([H])([H])c2c([H])c(OC([H])([H])C([H])([H])C([H])([H])[N+]([H])([H])C([H])(c3c([H])c([H])c(N(C(=O)N4C([H])([H])C([H])([H])C([H])([H])C([H])(n5nc(-c6c([H])c([H])c(Oc7c([H])c([H])c(F)c([H])c7F)c([H])c6[H])c(C(=O)N([H])[H])c5N([H])[H])C4([H])[H])C([H])([H])[H])c(F)c3[H])C([H])([H])[H])c([H])c([H])c2C1([H])[H]

$$$$
42:0:0
     RDKit          3D

 90 99  0  0  1  0  0  0  0  0999 V2000
  -29.1270  -24.4210   21.7300 C   0  0  0  0  0  2  0  0  0  0  0  0
  -29.2060  -22.8660   21.8870 C   0  0  0  0  0  2  0  0  0  0  0  0
  -28.4420  -23.3910   19.7210 C   0  0  0  0  0  2  0  0  0  0  0  0
  -28.1410  -24.7640   20.5960 C   0  0  0  0  0  3  0  0  0  0  0  0
  -28.9880  -22.2370   20.5810 N   0  0  0  0  0  0  0  0  0  0  0  0
  -30.1550  -19.9910   21.1770 C   0  0  0  0  0  3  0  0  0  0  0  0
  -28.4820  -19.8780   19.5370 C   0  0  0  0  0  3  0  0  0  0  0  0
  -30.3590  -18.5470   21.1040 C   0  0  0  0  0  3  0  0  0  0  0  0
  -28.6590  -18.4290   19.4880 C   0  0  0  0  0  3  0  0  0  0  0  0
  -29.2000  -20.7620   20.4120 C   0  0  0  0  0  0  0  0  0  0  0  0
  -29.6080  -17.6650   20.2610 C   0  0  0  0  0  0  0  0  0  0  0  0
  -30.4700  -15.0200   20.1680 C   0  0  0  0  0  0  0  0  0  0  0  0
  -30.3850  -12.6760   19.1950 C   0  0  0  0  0  2  0  0  0  0  0  0
  -29.4100  -12.6390   17.9940 C   0  0  0  0  0  2  0  0  0  0  0  0
  -27.9600  -12.4140   18.4650 C   0  0  0  0  0  2  0  0  0  0  0  0
  -27.5810  -13.3190   19.6670 C   0  0  0  0  0  3  0  0  0  0  0  0
  -28.6700  -13.3050   20.7620 C   0  0  0  0  0  2  0  0  0  0  0  0
  -29.9200  -13.7410   20.1260 N   0  0  0  0  0  0  0  0  0  0  0  0
  -31.6660  -15.1410   19.8770 O   0  0  0  0  0  0  0  0  0  0  0  0
  -29.5890  -16.1270   20.3100 N   0  0  0  0  0  0  0  0  0  0  0  0
  -28.6480  -15.7720   20.3860 H   0  0  0  0  0  0  0  0  0  0  0  0
  -25.2170  -13.8810   20.4730 C   0  0  0  0  0  0  0  0  0  0  0  0
  -24.1680  -13.0970   20.8660 C   0  0  0  0  0  0  0  0  0  0  0  0
  -24.6390  -11.7490   20.8100 C   0  0  0  0  0  0  0  0  0  0  0  0
  -26.2580  -13.0100   20.1960 N   0  0  0  0  0  0  0  0  0  0  0  0
  -25.9210  -11.7220   20.4650 N   0  0  0  0  0  0  0  0  0  0  0  0
  -23.9240  -10.4820   21.0040 C   0  0  0  0  0  0  0  0  0  0  0  0
  -24.3720   -9.5140   21.9310 C   0  0  0  0  0  3  0  0  0  0  0  0
  -23.6560   -8.3120   22.1140 C   0  0  0  0  0  3  0  0  0  0  0  0
  -22.4760   -8.0680   21.3700 C   0  0  0  0  0  0  0  0  0  0  0  0
  -22.0470   -9.0230   20.4320 C   0  0  0  0  0  3  0  0  0  0  0  0
  -22.7640  -10.2170   20.2470 C   0  0  0  0  0  3  0  0  0  0  0  0
  -21.7300   -6.9180   21.4630 O   0  0  0  0  0  0  0  0  0  0  0  0
  -21.6810   -6.1840   22.6210 C   0  0  0  0  0  0  0  0  0  0  0  0
  -21.2370   -6.7430   23.8400 C   0  0  0  0  0  3  0  0  0  0  0  0
  -21.1380   -5.9330   24.9880 C   0  0  0  0  0  3  0  0  0  0  0  0
  -21.4710   -4.5670   24.9200 C   0  0  0  0  0  0  0  0  0  0  0  0
  -21.9090   -4.0090   23.7060 C   0  0  0  0  0  3  0  0  0  0  0  0
  -22.0100   -4.8150   22.5590 C   0  0  0  0  0  0  0  0  0  0  0  0
  -22.4120   -4.2670   21.3870 F   0  0  0  0  0  0  0  0  0  0  0  0
  -21.3680   -3.7880   26.0220 F   0  0  0  0  0  0  0  0  0  0  0  0
  -22.7750  -13.5640   21.1770 C   0  0  0  0  0  0  0  0  0  0  0  0
  -22.0720  -12.8550   22.0520 N   0  0  0  0  0  0  0  0  0  0  0  0
  -22.3210  -14.5930   20.6780 O   0  0  0  0  0  0  0  0  0  0  0  0
  -22.4530  -12.0220   22.4760 H   0  0  0  0  0  0  0  0  0  0  0  0
  -21.1380  -13.1510   22.3020 H   0  0  0  0  0  0  0  0  0  0  0  0
  -25.3620  -15.2540   20.2990 N   0  0  0  0  0  0  0  0  0  0  0  0
  -24.5780  -15.8870   20.4140 H   0  0  0  0  0  0  0  0  0  0  0  0
  -26.1610  -15.6970   19.8650 H   0  0  0  0  0  0  0  0  0  0  0  0
  -28.2900  -26.2670   20.2130 O   0  0  0  0  0  0  0  0  0  0  0  0
  -24.6360  -31.9120   23.2610 C   0  0  0  0  0  0  0  0  0  0  0  0
  -27.2050  -27.2100   20.2250 C   0  0  0  0  0  0  0  0  0  0  0  0
  -23.4290  -30.5170   21.6260 C   0  0  0  0  0  3  0  0  0  0  0  0
  -24.8690  -28.9350   20.2010 C   0  0  0  0  0  0  0  0  0  0  0  0
  -25.9790  -30.7890   21.4440 C   0  0  0  0  0  2  0  0  0  0  0  0
  -26.0520  -29.3950   20.7960 C   0  0  0  0  0  0  0  0  0  0  0  0
  -27.2230  -28.5500   20.7830 C   0  0  0  0  0  3  0  0  0  0  0  0
  -25.9950  -26.8400   19.6050 C   0  0  0  0  0  3  0  0  0  0  0  0
  -24.8530  -27.6710   19.5900 C   0  0  0  0  0  3  0  0  0  0  0  0
  -23.6420  -29.8330   20.2480 C   0  0  0  0  0  2  0  0  0  0  0  0
  -24.7020  -31.0940   22.1650 N   0  0  0  0  0  0  0  0  0  0  0  0
  -23.5530  -32.1960   23.7940 O   0  0  0  0  0  0  0  0  0  0  0  0
  -22.7540  -29.5120   22.5910 C   0  0  0  0  0  0  0  0  0  0  0  0
  -21.4260  -29.3370   22.4660 N   0  0  0  0  0  0  0  0  0  0  0  0
  -23.4270  -28.8890   23.4170 O   0  0  0  0  0  0  0  0  0  0  0  0
  -20.9370  -29.8900   21.7760 H   0  0  0  0  0  0  0  0  0  0  0  0
  -18.0500  -28.1200   22.9650 C   0  0  0  0  0  0  0  0  0  0  0  0
  -20.6080  -28.3990   23.2390 C   0  0  0  0  0  3  0  0  0  0  0  0
  -20.7190  -26.9640   22.6740 C   0  0  0  0  0  2  0  0  0  0  0  0
  -19.6220  -26.6300   21.6580 C   0  0  0  0  0  2  0  0  0  0  0  0
  -18.2380  -26.7690   22.2960 C   0  0  0  0  0  2  0  0  0  0  0  0
  -19.1630  -28.8920   23.3940 C   0  0  0  0  0  0  0  0  0  0  0  0
  -18.9340  -30.1560   23.9810 C   0  0  0  0  0  3  0  0  0  0  0  0
  -17.6240  -30.6480   24.1420 C   0  0  0  0  0  3  0  0  0  0  0  0
  -16.5260  -29.8740   23.7280 C   0  0  0  0  0  3  0  0  0  0  0  0
  -16.7400  -28.6120   23.1460 C   0  0  0  0  0  3  0  0  0  0  0  0
  -25.9170  -32.5480   23.8830 C   0  0  0  0  0  3  0  0  0  0  0  0
  -25.6090  -33.9480   24.2140 N   0  0  0  0  0  0  0  0  0  0  0  0
  -25.9370  -35.0030   23.4560 C   0  0  0  0  0  0  0  0  0  0  0  0
  -26.5960  -34.8990   22.4190 O   0  0  0  0  0  0  0  0  0  0  0  0
  -25.0230  -34.1010   25.0220 H   0  0  0  0  0  0  0  0  0  0  0  0
  -24.2060  -36.8000   23.1270 C   0  0  0  0  0  1  0  0  0  0  0  0
  -25.4580  -36.3920   23.9210 C   0  0  0  0  0  3  0  0  0  0  0  0
  -27.6040  -37.2780   24.7220 C   0  0  0  0  0  1  0  0  0  0  0  0
  -26.4900  -37.4450   23.7930 N   0  0  0  0  0  0  0  0  0  0  0  0
  -26.0870  -38.3650   23.9450 H   0  0  0  0  0  0  0  0  0  0  0  0
  -26.4280  -31.7800   25.1650 C   0  0  1  0  0  0  0  0  0  0  0  0
  -25.3330  -31.5590   26.2360 C   0  0  0  0  0  1  0  0  0  0  0  0
  -26.9980  -30.3950   24.7840 C   0  0  0  0  0  1  0  0  0  0  0  0
  -27.5850  -32.5690   25.8220 C   0  0  0  0  0  1  0  0  0  0  0  0
  1  2  1  0
  3  5  1  0
  3  4  1  0
  4 50  1  0
  4  1  1  0
  5  2  1  0
  7 10  1  0
  8  6  1  0
  9  7  2  0
  9 11  1  0
 10  5  1  0
 10  6  2  0
 11 20  1  0
 11  8  2  0
 12 20  1  0
 13 18  1  0
 14 15  1  0
 14 13  1  0
 16 15  1  0
 16 25  1  0
 16 17  1  0
 18 12  1  0
 18 17  1  0
 19 12  2  0
 20 21  1  0
 22 23  2  0
 23 42  1  0
 24 23  1  0
 24 27  1  0
 25 26  1  0
 25 22  1  0
 26 24  2  0
 27 28  1  0
 28 29  2  0
 30 33  1  0
 30 29  1  0
 31 30  2  0
 32 31  1  0
 32 27  2  0
 33 34  1  0
 34 35  1  0
 35 36  2  0
 37 36  1  0
 37 41  1  0
 38 37  2  0
 39 34  2  0
 39 38  1  0
 40 39  1  0
 42 43  1  0
 43 46  1  0
 43 45  1  0
 44 42  2  0
 47 48  1  0
 47 22  1  0
 49 47  1  0
 50 52  1  0
 51 62  2  0
 52 57  1  0
 53 61  1  0
 53 63  1  0
 54 60  1  0
 54 56  1  0
 55 61  1  0
 56 55  1  0
 57 56  2  0
 58 52  2  0
 59 58  1  0
 59 54  2  0
 60 53  1  0
 61 51  1  0
 63 65  2  0
 64 63  1  0
 66 64  1  0
 67 76  2  0
 67 72  1  0
 68 64  1  0
 68 72  1  0
 69 68  1  0
 70 71  1  0
 70 69  1  0
 71 67  1  0
 72 73  2  0
 73 74  1  0
 75 74  2  0
 76 75  1  0
 77 51  1  0
 77 78  1  0
 77 87  1  0
 78 81  1  0
 79 83  1  0
 79 78  1  0
 80 79  2  0
 83 82  1  0
 85 83  1  0
 85 86  1  0
 85 84  1  0
 87 90  1  1
 87 88  1  0
 89 87  1  0
M  ISO  4   4 101  12 100  20 100  50 101
M  END
>  <TORSDO>  (43) 
F 17

>  <SCORE>  (43) 
-15.242

>  <name>  (43) 
42

>  <ligand_id>  (43) 
42

>  <original_smiles>  (43) 
[H]c1c([H])c([H])c2c(c1[H])C([H])([H])C([H])([H])C([H])([H])C2([H])N([H])C(=O)C1([H])N(C(=O)C([H])(N([H])C(=O)C([H])(N([H])C([H])([H])[H])C([H])([H])[H])C(C([H])([H])[H])(C([H])([H])[H])C([H])([H])[H])C([H])([H])c2c([H])c(OC3([H])C([H])([H])N(c4c([H])c([H])c(N([H])C(=O)N5C([H])([H])C([H])([H])C([H])([H])C([H])(n6nc(-c7c([H])c([H])c(Oc8c([H])c([H])c(F)c([H])c8F)c([H])c7[H])c(C(=O)N([H])[H])c6N([H])[H])C5([H])[H])c([H])c4[H])C([H])([H])C3([H])[H])c([H])c([H])c2C1([H])[H]

>  <smiles>  (43) 
[H]c1c([H])c([H])c2c(c1[H])C([H])([H])C([H])([H])C([H])([H])C2([H])N([H])C(=O)C1([H])N(C(=O)C([H])(N([H])C(=O)C([H])(N([H])C([H])([H])[H])C([H])([H])[H])C(C([H])([H])[H])(C([H])([H])[H])C([H])([H])[H])C([H])([H])c2c([H])c(OC3([H])C([H])([H])N(c4c([H])c([H])c(N([H])C(=O)N5C([H])([H])C([H])([H])C([H])([H])C([H])(n6nc(-c7c([H])c([H])c(Oc8c([H])c([H])c(F)c([H])c8F)c([H])c7[H])c(C(=O)N([H])[H])c6N([H])[H])C5([H])[H])c([H])c4[H])C([H])([H])C3([H])[H])c([H])c([H])c2C1([H])[H]

$$$$
43:0:0
     RDKit          3D

 84 91  0  0  1  0  0  0  0  0999 V2000
  -30.1410  -16.5320   20.1780 C   0  0  0  0  0  0  0  0  0  0  0  0
  -30.4200  -13.7830   19.4810 C   0  0  0  0  0  2  0  0  0  0  0  0
  -29.6630  -12.9880   18.3500 C   0  0  0  0  0  2  0  0  0  0  0  0
  -28.3020  -12.4770   18.8220 C   0  0  0  0  0  2  0  0  0  0  0  0
  -27.6560  -13.5400   19.7240 C   0  0  0  0  0  3  0  0  0  0  0  0
  -28.5980  -14.2040   20.7880 C   0  0  0  0  0  2  0  0  0  0  0  0
  -29.6510  -15.0460   20.0850 N   0  0  0  0  0  0  0  0  0  0  0  0
  -31.3790  -16.2670   20.1080 O   0  0  0  0  0  0  0  0  0  0  0  0
  -29.8520  -21.5880   19.8850 C   0  0  0  0  0  2  0  0  0  0  0  0
  -30.1910  -19.7160   19.6650 C   0  0  0  0  0  2  0  0  0  0  0  0
  -28.2870  -19.3000   20.3140 C   0  0  0  0  0  2  0  0  0  0  0  0
  -28.4890  -22.8330   19.8650 C   0  0  0  0  0  2  0  0  0  0  0  0
  -28.0010  -21.1890   20.5780 C   0  0  0  0  0  3  0  0  0  0  0  0
  -29.5740  -18.1920   20.1220 N   0  0  0  0  0  0  0  0  0  0  0  0
  -26.6700  -21.2580   20.5380 F   0  0  0  0  0  0  0  0  0  0  0  0
  -25.2830  -14.0080   20.4300 C   0  0  0  0  0  0  0  0  0  0  0  0
  -24.2240  -13.2210   20.7760 C   0  0  0  0  0  0  0  0  0  0  0  0
  -24.7090  -11.8750   20.7790 C   0  0  0  0  0  0  0  0  0  0  0  0
  -26.3470  -13.1530   20.2360 N   0  0  0  0  0  0  0  0  0  0  0  0
  -26.0140  -11.8570   20.5010 N   0  0  0  0  0  0  0  0  0  0  0  0
  -23.9760  -10.6110   20.9680 C   0  0  0  0  0  0  0  0  0  0  0  0
  -24.3750   -9.6590   21.9330 C   0  0  0  0  0  3  0  0  0  0  0  0
  -23.6340   -8.4700   22.1170 C   0  0  0  0  0  3  0  0  0  0  0  0
  -22.4800   -8.2230   21.3360 C   0  0  0  0  0  0  0  0  0  0  0  0
  -22.0990   -9.1630   20.3630 C   0  0  0  0  0  3  0  0  0  0  0  0
  -22.8400  -10.3430   20.1780 C   0  0  0  0  0  3  0  0  0  0  0  0
  -21.7160   -7.0840   21.4270 O   0  0  0  0  0  0  0  0  0  0  0  0
  -21.6320   -6.3620   22.5910 C   0  0  0  0  0  0  0  0  0  0  0  0
  -21.1520   -6.9330   23.7890 C   0  0  0  0  0  3  0  0  0  0  0  0
  -21.0170   -6.1370   24.9440 C   0  0  0  0  0  3  0  0  0  0  0  0
  -21.3530   -4.7700   24.9020 C   0  0  0  0  0  0  0  0  0  0  0  0
  -21.8270   -4.1980   23.7090 C   0  0  0  0  0  3  0  0  0  0  0  0
  -21.9620   -4.9910   22.5560 C   0  0  0  0  0  0  0  0  0  0  0  0
  -22.3980   -4.4300   21.4010 F   0  0  0  0  0  0  0  0  0  0  0  0
  -21.2170   -4.0040   26.0100 F   0  0  0  0  0  0  0  0  0  0  0  0
  -22.8160  -13.6940   20.9870 C   0  0  0  0  0  0  0  0  0  0  0  0
  -22.0690  -13.0240   21.8560 N   0  0  0  0  0  0  0  0  0  0  0  0
  -22.3910  -14.6990   20.4190 O   0  0  0  0  0  0  0  0  0  0  0  0
  -22.4280  -12.2140   22.3380 H   0  0  0  0  0  0  0  0  0  0  0  0
  -21.1230  -13.3260   22.0430 H   0  0  0  0  0  0  0  0  0  0  0  0
  -25.4300  -15.3760   20.2270 N   0  0  0  0  0  0  0  0  0  0  0  0
  -24.6490  -16.0200   20.3000 H   0  0  0  0  0  0  0  0  0  0  0  0
  -26.2840  -15.8210   19.9170 H   0  0  0  0  0  0  0  0  0  0  0  0
  -28.3280  -24.8630   20.0980 O   0  0  0  0  0  1  0  0  0  0  0  0
  -24.8600  -31.7440   23.1160 C   0  0  0  0  0  0  0  0  0  0  0  0
  -27.4010  -26.3010   20.0560 C   0  0  0  0  0  0  0  0  0  0  0  0
  -23.7030  -30.3600   21.4530 C   0  0  0  0  0  3  0  0  0  0  0  0
  -25.1660  -28.6470   20.0360 C   0  0  0  0  0  0  0  0  0  0  0  0
  -26.3000  -30.3690   21.3970 C   0  0  0  0  0  2  0  0  0  0  0  0
  -26.3670  -28.8960   20.7080 C   0  0  0  0  0  0  0  0  0  0  0  0
  -27.4360  -27.7700   20.6770 C   0  0  0  0  0  3  0  0  0  0  0  0
  -26.1620  -26.4010   19.3220 C   0  0  0  0  0  3  0  0  0  0  0  0
  -25.1350  -27.4320   19.3170 C   0  0  0  0  0  3  0  0  0  0  0  0
  -23.9750  -29.6510   20.0850 C   0  0  0  0  0  2  0  0  0  0  0  0
  -24.9840  -30.8690   22.0410 N   0  0  0  0  0  0  0  0  0  0  0  0
  -23.7540  -32.0490   23.6040 O   0  0  0  0  0  0  0  0  0  0  0  0
  -22.9420  -29.4050   22.4180 C   0  0  0  0  0  0  0  0  0  0  0  0
  -21.6020  -29.2880   22.3030 N   0  0  0  0  0  0  0  0  0  0  0  0
  -23.5790  -28.7590   23.2520 O   0  0  0  0  0  0  0  0  0  0  0  0
  -21.1300  -29.8590   21.6160 H   0  0  0  0  0  0  0  0  0  0  0  0
  -18.1930  -28.1240   22.8710 C   0  0  0  0  0  0  0  0  0  0  0  0
  -20.7680  -28.3410   23.0590 C   0  0  0  0  0  3  0  0  0  0  0  0
  -20.8200  -26.9310   22.4230 C   0  0  0  0  0  2  0  0  0  0  0  0
  -19.6830  -26.6770   21.4260 C   0  0  0  0  0  2  0  0  0  0  0  0
  -18.3250  -26.8120   22.1180 C   0  0  0  0  0  2  0  0  0  0  0  0
  -19.3390  -28.8500   23.2970 C   0  0  0  0  0  0  0  0  0  0  0  0
  -19.1550  -30.0760   23.9730 C   0  0  0  0  0  3  0  0  0  0  0  0
  -17.8620  -30.5790   24.2180 C   0  0  0  0  0  3  0  0  0  0  0  0
  -16.7340  -29.8520   23.8000 C   0  0  0  0  0  3  0  0  0  0  0  0
  -16.9010  -28.6250   23.1350 C   0  0  0  0  0  3  0  0  0  0  0  0
  -26.0940  -32.4150   23.7950 C   0  0  0  0  0  3  0  0  0  0  0  0
  -25.7210  -33.7850   24.2240 N   0  0  0  0  0  0  0  0  0  0  0  0
  -25.9940  -34.9180   23.5590 C   0  0  0  0  0  0  0  0  0  0  0  0
  -26.6300  -34.9220   22.5040 O   0  0  0  0  0  0  0  0  0  0  0  0
  -25.1440  -33.8490   25.0500 H   0  0  0  0  0  0  0  0  0  0  0  0
  -24.1900  -36.6820   23.4500 C   0  0  0  0  0  1  0  0  0  0  0  0
  -25.4900  -36.2540   24.1520 C   0  0  0  0  0  3  0  0  0  0  0  0
  -27.6320  -37.1750   24.9360 C   0  0  0  0  0  1  0  0  0  0  0  0
  -26.4770  -37.3550   24.0610 N   0  0  0  0  0  0  0  0  0  0  0  0
  -26.0440  -38.2460   24.2890 H   0  0  0  0  0  0  0  0  0  0  0  0
  -26.6200  -31.6090   25.0490 C   0  0  1  0  0  0  0  0  0  0  0  0
  -25.5280  -31.3070   26.1030 C   0  0  0  0  0  1  0  0  0  0  0  0
  -27.2380  -30.2600   24.6270 C   0  0  0  0  0  1  0  0  0  0  0  0
  -27.7500  -32.4030   25.7460 C   0  0  0  0  0  1  0  0  0  0  0  0
  2  7  1  0
  3  4  1  0
  3  2  1  0
  5  4  1  0
  5 19  1  0
  5  6  1  0
  7  1  1  0
  7  6  1  0
  8  1  2  0
 10  9  1  0
 10 14  1  0
 11 13  1  0
 12  9  1  0
 12 13  1  0
 13 15  1  0
 14  1  1  0
 14 11  1  0
 16 17  2  0
 17 18  1  0
 17 36  1  0
 18 21  1  0
 19 16  1  0
 19 20  1  0
 20 18  2  0
 21 22  1  0
 22 23  2  0
 24 27  1  0
 24 23  1  0
 25 24  2  0
 26 25  1  0
 26 21  2  0
 27 28  1  0
 28 29  1  0
 29 30  2  0
 31 30  1  0
 31 35  1  0
 32 31  2  0
 33 28  2  0
 33 32  1  0
 34 33  1  0
 36 37  1  0
 37 40  1  0
 37 39  1  0
 38 36  2  0
 41 42  1  0
 41 16  1  0
 43 41  1  0
 45 56  2  0
 46 44  1  0
 46 51  1  0
 47 55  1  0
 47 57  1  0
 48 54  1  0
 48 50  1  0
 49 55  1  0
 50 49  1  0
 51 50  2  0
 52 46  2  0
 53 52  1  0
 53 48  2  0
 54 47  1  0
 55 45  1  0
 57 59  2  0
 58 57  1  0
 60 58  1  0
 61 70  2  0
 61 66  1  0
 62 58  1  0
 62 66  1  0
 63 62  1  0
 64 65  1  0
 64 63  1  0
 65 61  1  0
 66 67  2  0
 67 68  1  0
 69 68  2  0
 70 69  1  0
 71 45  1  0
 71 72  1  0
 71 81  1  0
 72 75  1  0
 73 77  1  0
 73 72  1  0
 74 73  2  0
 77 76  1  0
 79 77  1  0
 79 80  1  0
 79 78  1  0
 81 84  1  1
 81 82  1  0
 83 81  1  0
M  ISO  4   1 100  12 101  14 100  44 101
M  END
>  <TORSDO>  (44) 
F 15

>  <SCORE>  (44) 
-15.574

>  <name>  (44) 
43

>  <ligand_id>  (44) 
43

>  <original_smiles>  (44) 
[H]c1c([H])c([H])c2c(c1[H])C([H])([H])C([H])([H])C([H])([H])C2([H])N([H])C(=O)C1([H])N(C(=O)C([H])(N([H])C(=O)C([H])(N([H])C([H])([H])[H])C([H])([H])[H])C(C([H])([H])[H])(C([H])([H])[H])C([H])([H])[H])C([H])([H])c2c([H])c(OC3([H])C([H])([H])C([H])([H])N(C(=O)N4C([H])([H])C([H])([H])C([H])([H])C([H])(n5nc(-c6c([H])c([H])c(Oc7c([H])c([H])c(F)c([H])c7F)c([H])c6[H])c(C(=O)N([H])[H])c5N([H])[H])C4([H])[H])C([H])([H])C3([H])F)c([H])c([H])c2C1([H])[H]

>  <smiles>  (44) 
[H]c1c([H])c([H])c2c(c1[H])C([H])([H])C([H])([H])C([H])([H])C2([H])N([H])C(=O)C1([H])N(C(=O)C([H])(N([H])C(=O)C([H])(N([H])C([H])([H])[H])C([H])([H])[H])C(C([H])([H])[H])(C([H])([H])[H])C([H])([H])[H])C([H])([H])c2c([H])c(OC3([H])C([H])([H])C([H])([H])N(C(=O)N4C([H])([H])C([H])([H])C([H])([H])C([H])(n5nc(-c6c([H])c([H])c(Oc7c([H])c([H])c(F)c([H])c7F)c([H])c6[H])c(C(=O)N([H])[H])c5N([H])[H])C4([H])[H])C([H])([H])C3([H])F)c([H])c([H])c2C1([H])[H]

$$$$
44:0:0
     RDKit          3D

 90 98  0  0  1  0  0  0  0  0999 V2000
  -28.6220  -19.5990   20.7880 C   0  0  0  0  0  3  0  0  0  0  0  0
  -30.4850  -20.0270   19.4220 C   0  0  0  0  0  3  0  0  0  0  0  0
  -28.9060  -18.1840   20.7800 C   0  0  0  0  0  0  0  0  0  0  0  0
  -29.9920  -17.5800   20.0590 C   0  0  0  0  0  0  0  0  0  0  0  0
  -29.3660  -20.6160   20.1160 C   0  0  0  0  0  0  0  0  0  0  0  0
  -30.7830  -18.5870   19.3870 C   0  0  0  0  0  0  0  0  0  0  0  0
  -27.9830  -17.2920   21.5950 C   0  0  0  0  0  1  0  0  0  0  0  0
  -31.8470  -18.1790   18.6560 F   0  0  0  0  0  0  0  0  0  0  0  0
  -30.8980  -14.9900   19.5720 C   0  0  0  0  0  0  0  0  0  0  0  0
  -30.7260  -12.6840   18.5290 C   0  0  0  0  0  2  0  0  0  0  0  0
  -29.6650  -12.7050   17.4010 C   0  0  0  0  0  2  0  0  0  0  0  0
  -28.2510  -12.4690   17.9650 C   0  0  0  0  0  2  0  0  0  0  0  0
  -27.9690  -13.3260   19.2260 C   0  0  0  0  0  3  0  0  0  0  0  0
  -29.1330  -13.2600   20.2380 C   0  0  0  0  0  2  0  0  0  0  0  0
  -30.3480  -13.7110   19.5380 N   0  0  0  0  0  0  0  0  0  0  0  0
  -32.0320  -15.1450   19.1050 O   0  0  0  0  0  0  0  0  0  0  0  0
  -30.0800  -16.0480   20.0280 N   0  0  0  0  0  0  0  0  0  0  0  0
  -29.2640  -15.6400   20.4540 H   0  0  0  0  0  0  0  0  0  0  0  0
  -25.6560  -13.8540   20.1920 C   0  0  0  0  0  0  0  0  0  0  0  0
  -24.6450  -13.0570   20.6510 C   0  0  0  0  0  0  0  0  0  0  0  0
  -25.1190  -11.7140   20.5400 C   0  0  0  0  0  0  0  0  0  0  0  0
  -26.6850  -12.9990   19.8360 N   0  0  0  0  0  0  0  0  0  0  0  0
  -26.3760  -11.7040   20.1060 N   0  0  0  0  0  0  0  0  0  0  0  0
  -24.4280  -10.4370   20.7630 C   0  0  0  0  0  0  0  0  0  0  0  0
  -24.8760   -9.5140   21.7330 C   0  0  0  0  0  3  0  0  0  0  0  0
  -24.1820   -8.3030   21.9420 C   0  0  0  0  0  3  0  0  0  0  0  0
  -23.0250   -8.0070   21.1820 C   0  0  0  0  0  0  0  0  0  0  0  0
  -22.5960   -8.9200   20.2030 C   0  0  0  0  0  3  0  0  0  0  0  0
  -23.2920  -10.1230   19.9920 C   0  0  0  0  0  3  0  0  0  0  0  0
  -22.3030   -6.8440   21.3000 O   0  0  0  0  0  0  0  0  0  0  0  0
  -22.1510   -6.2100   22.5070 C   0  0  0  0  0  0  0  0  0  0  0  0
  -21.5560   -6.8500   23.6150 C   0  0  0  0  0  3  0  0  0  0  0  0
  -21.3570   -6.1390   24.8150 C   0  0  0  0  0  3  0  0  0  0  0  0
  -21.7430   -4.7880   24.9070 C   0  0  0  0  0  0  0  0  0  0  0  0
  -22.3320   -4.1480   23.8030 C   0  0  0  0  0  3  0  0  0  0  0  0
  -22.5320   -4.8570   22.6040 C   0  0  0  0  0  0  0  0  0  0  0  0
  -23.0800   -4.2280   21.5370 F   0  0  0  0  0  0  0  0  0  0  0  0
  -21.5440   -4.1030   26.0570 F   0  0  0  0  0  0  0  0  0  0  0  0
  -23.2750  -13.5090   21.0690 C   0  0  0  0  0  0  0  0  0  0  0  0
  -22.6550  -12.7990   22.0050 N   0  0  0  0  0  0  0  0  0  0  0  0
  -22.7670  -14.5260   20.5990 O   0  0  0  0  0  0  0  0  0  0  0  0
  -23.0820  -11.9760   22.4030 H   0  0  0  0  0  0  0  0  0  0  0  0
  -21.7420  -13.0850   22.3280 H   0  0  0  0  0  0  0  0  0  0  0  0
  -25.7750  -15.2290   20.0170 N   0  0  0  0  0  0  0  0  0  0  0  0
  -24.9860  -15.8480   20.1710 H   0  0  0  0  0  0  0  0  0  0  0  0
  -26.5280  -15.6710   19.5070 H   0  0  0  0  0  0  0  0  0  0  0  0
  -28.8590  -21.9870   20.2280 O   0  0  0  0  0  0  0  0  0  0  0  0
  -29.3530  -23.3680   19.7830 C   0  0  0  0  0  3  0  0  0  0  0  0
  -28.3700  -24.7180   20.0220 C   0  0  0  0  0  3  0  0  0  0  0  0
  -28.6710  -26.2390   19.8750 O   0  0  0  0  0  0  0  0  0  0  0  0
  -25.0640  -31.7370   23.2150 C   0  0  0  0  0  0  0  0  0  0  0  0
  -27.6140  -27.2180   19.8950 C   0  0  0  0  0  0  0  0  0  0  0  0
  -23.8560  -30.4600   21.4880 C   0  0  0  0  0  3  0  0  0  0  0  0
  -25.2940  -28.9720   19.9670 C   0  0  0  0  0  0  0  0  0  0  0  0
  -26.4120  -30.7180   21.3440 C   0  0  0  0  0  2  0  0  0  0  0  0
  -26.4750  -29.3710   20.6060 C   0  0  0  0  0  0  0  0  0  0  0  0
  -27.6360  -28.5130   20.5540 C   0  0  0  0  0  3  0  0  0  0  0  0
  -26.4090  -26.9290   19.2140 C   0  0  0  0  0  3  0  0  0  0  0  0
  -25.2730  -27.7640   19.2560 C   0  0  0  0  0  3  0  0  0  0  0  0
  -24.0740  -29.8730   20.0680 C   0  0  0  0  0  2  0  0  0  0  0  0
  -25.1300  -30.9890   22.0720 N   0  0  0  0  0  0  0  0  0  0  0  0
  -23.9800  -31.9950   23.7590 O   0  0  0  0  0  0  0  0  0  0  0  0
  -23.1690  -29.3970   22.3810 C   0  0  0  0  0  0  0  0  0  0  0  0
  -21.8370  -29.2550   22.2520 N   0  0  0  0  0  0  0  0  0  0  0  0
  -23.8360  -28.7060   23.1560 O   0  0  0  0  0  0  0  0  0  0  0  0
  -21.3570  -29.8650   21.6050 H   0  0  0  0  0  0  0  0  0  0  0  0
  -18.4370  -28.0960   22.7170 C   0  0  0  0  0  0  0  0  0  0  0  0
  -21.0050  -28.2800   22.9620 C   0  0  0  0  0  3  0  0  0  0  0  0
  -21.0640  -26.8940   22.2770 C   0  0  0  0  0  2  0  0  0  0  0  0
  -19.9400  -26.6750   21.2610 C   0  0  0  0  0  2  0  0  0  0  0  0
  -18.5720  -26.8000   21.9360 C   0  0  0  0  0  2  0  0  0  0  0  0
  -19.5790  -28.7990   23.1860 C   0  0  0  0  0  0  0  0  0  0  0  0
  -19.3970  -30.0150   23.8790 C   0  0  0  0  0  3  0  0  0  0  0  0
  -18.1050  -30.5280   24.1050 C   0  0  0  0  0  3  0  0  0  0  0  0
  -16.9790  -29.8220   23.6510 C   0  0  0  0  0  3  0  0  0  0  0  0
  -17.1450  -28.6060   22.9630 C   0  0  0  0  0  3  0  0  0  0  0  0
  -26.3480  -32.3190   23.8830 C   0  0  0  0  0  3  0  0  0  0  0  0
  -26.8870  -31.4290   25.0710 C   0  0  1  0  0  0  0  0  0  0  0  0
  -25.8050  -31.0650   26.1150 C   0  0  0  0  0  1  0  0  0  0  0  0
  -27.4900  -30.1080   24.5400 C   0  0  0  0  0  1  0  0  0  0  0  0
  -28.0270  -32.1730   25.8050 C   0  0  0  0  0  1  0  0  0  0  0  0
  -26.0280  -33.6740   24.3610 N   0  0  0  0  0  0  0  0  0  0  0  0
  -26.3410  -34.8050   23.7150 C   0  0  0  0  0  0  0  0  0  0  0  0
  -26.9970  -34.8180   22.6700 O   0  0  0  0  0  0  0  0  0  0  0  0
  -25.4410  -33.7360   25.1800 H   0  0  0  0  0  0  0  0  0  0  0  0
  -24.6030  -36.6200   23.5710 C   0  0  0  0  0  1  0  0  0  0  0  0
  -25.8510  -36.1340   24.3250 C   0  0  0  0  0  3  0  0  0  0  0  0
  -27.9840  -36.9400   25.2390 C   0  0  0  0  0  1  0  0  0  0  0  0
  -26.8790  -37.1980   24.3190 N   0  0  0  0  0  0  0  0  0  0  0  0
  -26.4680  -38.0970   24.5600 H   0  0  0  0  0  0  0  0  0  0  0  0
  2  5  1  0
  3  1  1  0
  3  7  1  0
  4  3  2  0
  5 47  1  0
  5  1  2  0
  6  2  2  0
  6  4  1  0
  8  6  1  0
  9 17  1  0
 10 15  1  0
 11 12  1  0
 11 10  1  0
 13 12  1  0
 13 22  1  0
 13 14  1  0
 15  9  1  0
 15 14  1  0
 16  9  2  0
 17  4  1  0
 17 18  1  0
 19 20  2  0
 20 39  1  0
 21 20  1  0
 21 24  1  0
 22 23  1  0
 22 19  1  0
 23 21  2  0
 24 25  1  0
 25 26  2  0
 27 30  1  0
 27 26  1  0
 28 27  2  0
 29 28  1  0
 29 24  2  0
 30 31  1  0
 31 36  2  0
 31 32  1  0
 32 33  2  0
 33 34  1  0
 34 38  1  0
 35 34  2  0
 36 35  1  0
 37 36  1  0
 39 40  1  0
 40 43  1  0
 40 42  1  0
 41 39  2  0
 44 45  1  0
 44 19  1  0
 46 44  1  0
 48 49  2  0
 48 47  1  0
 50 52  1  0
 50 49  1  0
 51 62  2  0
 52 57  1  0
 53 61  1  0
 53 63  1  0
 54 60  1  0
 54 56  1  0
 55 61  1  0
 56 55  1  0
 57 56  2  0
 58 59  1  0
 58 52  2  0
 59 54  2  0
 60 53  1  0
 61 51  1  0
 63 65  2  0
 64 63  1  0
 66 64  1  0
 67 76  2  0
 67 72  1  0
 68 64  1  0
 68 72  1  0
 69 68  1  0
 70 71  1  0
 70 69  1  0
 71 67  1  0
 72 73  2  0
 73 74  1  0
 75 74  2  0
 76 75  1  0
 77 51  1  0
 77 82  1  0
 77 78  1  0
 78 81  1  1
 78 79  1  0
 80 78  1  0
 82 85  1  0
 83 87  1  0
 83 82  1  0
 84 83  2  0
 87 86  1  0
 89 87  1  0
 89 90  1  0
 89 88  1  0
M  ISO  4   9 100  17 100  49 101  50 101
M  END
>  <TORSDO>  (45) 
F 19

>  <SCORE>  (45) 
-9.823

>  <name>  (45) 
44

>  <ligand_id>  (45) 
44

>  <original_smiles>  (45) 
[H]c1c([H])c([H])c2c(c1[H])C([H])([H])C([H])([H])C([H])([H])C2([H])N([H])C(=O)C1([H])N(C(=O)C([H])(N([H])C(=O)C([H])(N([H])C([H])([H])[H])C([H])([H])[H])C(C([H])([H])[H])(C([H])([H])[H])C([H])([H])[H])C([H])([H])c2c([H])c(OC([H])([H])C([H])([H])Oc3c([H])c(F)c(N([H])C(=O)N4C([H])([H])C([H])([H])C([H])([H])C([H])(n5nc(-c6c([H])c([H])c(Oc7c([H])c([H])c(F)c([H])c7F)c([H])c6[H])c(C(=O)N([H])[H])c5N([H])[H])C4([H])[H])c(C([H])([H])[H])c3[H])c([H])c([H])c2C1([H])[H]

>  <smiles>  (45) 
[H]c1c([H])c([H])c2c(c1[H])C([H])([H])C([H])([H])C([H])([H])C2([H])N([H])C(=O)C1([H])N(C(=O)C([H])(N([H])C(=O)C([H])(N([H])C([H])([H])[H])C([H])([H])[H])C(C([H])([H])[H])(C([H])([H])[H])C([H])([H])[H])C([H])([H])c2c([H])c(OC([H])([H])C([H])([H])Oc3c([H])c(F)c(N([H])C(=O)N4C([H])([H])C([H])([H])C([H])([H])C([H])(n5nc(-c6c([H])c([H])c(Oc7c([H])c([H])c(F)c([H])c7F)c([H])c6[H])c(C(=O)N([H])[H])c5N([H])[H])C4([H])[H])c(C([H])([H])[H])c3[H])c([H])c([H])c2C1([H])[H]

$$$$
45:0:0
     RDKit          3D

 90 99  0  0  1  0  0  0  0  0999 V2000
  -29.1270  -24.4210   21.7300 C   0  0  0  0  0  2  0  0  0  0  0  0
  -29.2060  -22.8660   21.8870 C   0  0  0  0  0  2  0  0  0  0  0  0
  -28.4420  -23.3910   19.7210 C   0  0  0  0  0  2  0  0  0  0  0  0
  -28.1410  -24.7640   20.5960 C   0  0  0  0  0  3  0  0  0  0  0  0
  -28.9880  -22.2370   20.5810 N   0  0  0  0  0  0  0  0  0  0  0  0
  -30.1550  -19.9910   21.1770 C   0  0  0  0  0  3  0  0  0  0  0  0
  -28.4820  -19.8780   19.5370 C   0  0  0  0  0  3  0  0  0  0  0  0
  -30.3590  -18.5470   21.1040 C   0  0  0  0  0  3  0  0  0  0  0  0
  -28.6590  -18.4290   19.4880 C   0  0  0  0  0  3  0  0  0  0  0  0
  -29.2000  -20.7620   20.4120 C   0  0  0  0  0  0  0  0  0  0  0  0
  -29.6080  -17.6650   20.2610 C   0  0  0  0  0  0  0  0  0  0  0  0
  -30.4700  -15.0200   20.1680 C   0  0  0  0  0  0  0  0  0  0  0  0
  -30.3850  -12.6760   19.1950 C   0  0  0  0  0  2  0  0  0  0  0  0
  -29.4100  -12.6390   17.9940 C   0  0  0  0  0  2  0  0  0  0  0  0
  -27.9600  -12.4140   18.4650 C   0  0  0  0  0  2  0  0  0  0  0  0
  -27.5810  -13.3190   19.6670 C   0  0  0  0  0  3  0  0  0  0  0  0
  -28.6700  -13.3050   20.7620 C   0  0  0  0  0  2  0  0  0  0  0  0
  -29.9200  -13.7410   20.1260 N   0  0  0  0  0  0  0  0  0  0  0  0
  -31.6660  -15.1410   19.8770 O   0  0  0  0  0  0  0  0  0  0  0  0
  -29.5890  -16.1270   20.3100 N   0  0  0  0  0  0  0  0  0  0  0  0
  -28.6480  -15.7720   20.3860 H   0  0  0  0  0  0  0  0  0  0  0  0
  -25.2170  -13.8810   20.4730 C   0  0  0  0  0  0  0  0  0  0  0  0
  -24.1680  -13.0970   20.8660 C   0  0  0  0  0  0  0  0  0  0  0  0
  -24.6390  -11.7490   20.8100 C   0  0  0  0  0  0  0  0  0  0  0  0
  -26.2580  -13.0100   20.1960 N   0  0  0  0  0  0  0  0  0  0  0  0
  -25.9210  -11.7220   20.4650 N   0  0  0  0  0  0  0  0  0  0  0  0
  -23.9240  -10.4820   21.0040 C   0  0  0  0  0  0  0  0  0  0  0  0
  -24.3720   -9.5140   21.9310 C   0  0  0  0  0  3  0  0  0  0  0  0
  -23.6560   -8.3120   22.1140 C   0  0  0  0  0  3  0  0  0  0  0  0
  -22.4760   -8.0680   21.3700 C   0  0  0  0  0  0  0  0  0  0  0  0
  -22.0470   -9.0230   20.4320 C   0  0  0  0  0  3  0  0  0  0  0  0
  -22.7640  -10.2170   20.2470 C   0  0  0  0  0  3  0  0  0  0  0  0
  -21.7300   -6.9180   21.4630 O   0  0  0  0  0  0  0  0  0  0  0  0
  -21.6810   -6.1840   22.6210 C   0  0  0  0  0  0  0  0  0  0  0  0
  -21.2370   -6.7430   23.8400 C   0  0  0  0  0  3  0  0  0  0  0  0
  -21.1380   -5.9330   24.9880 C   0  0  0  0  0  3  0  0  0  0  0  0
  -21.4710   -4.5670   24.9200 C   0  0  0  0  0  0  0  0  0  0  0  0
  -21.9090   -4.0090   23.7060 C   0  0  0  0  0  3  0  0  0  0  0  0
  -22.0100   -4.8150   22.5590 C   0  0  0  0  0  0  0  0  0  0  0  0
  -22.4120   -4.2670   21.3870 F   0  0  0  0  0  0  0  0  0  0  0  0
  -21.3680   -3.7880   26.0220 F   0  0  0  0  0  0  0  0  0  0  0  0
  -22.7750  -13.5640   21.1770 C   0  0  0  0  0  0  0  0  0  0  0  0
  -22.0720  -12.8550   22.0520 N   0  0  0  0  0  0  0  0  0  0  0  0
  -22.3210  -14.5930   20.6780 O   0  0  0  0  0  0  0  0  0  0  0  0
  -22.4530  -12.0220   22.4760 H   0  0  0  0  0  0  0  0  0  0  0  0
  -21.1380  -13.1510   22.3020 H   0  0  0  0  0  0  0  0  0  0  0  0
  -25.3620  -15.2540   20.2990 N   0  0  0  0  0  0  0  0  0  0  0  0
  -24.5780  -15.8870   20.4140 H   0  0  0  0  0  0  0  0  0  0  0  0
  -26.1610  -15.6970   19.8650 H   0  0  0  0  0  0  0  0  0  0  0  0
  -28.2900  -26.2670   20.2130 O   0  0  0  0  0  0  0  0  0  0  0  0
  -24.6360  -31.9120   23.2610 C   0  0  0  0  0  0  0  0  0  0  0  0
  -27.2050  -27.2100   20.2250 C   0  0  0  0  0  0  0  0  0  0  0  0
  -23.4290  -30.5170   21.6260 C   0  0  0  0  0  3  0  0  0  0  0  0
  -24.8690  -28.9350   20.2010 C   0  0  0  0  0  0  0  0  0  0  0  0
  -25.9790  -30.7890   21.4440 C   0  0  0  0  0  2  0  0  0  0  0  0
  -26.0520  -29.3950   20.7960 C   0  0  0  0  0  0  0  0  0  0  0  0
  -27.2230  -28.5500   20.7830 C   0  0  0  0  0  3  0  0  0  0  0  0
  -25.9950  -26.8400   19.6050 C   0  0  0  0  0  3  0  0  0  0  0  0
  -24.8530  -27.6710   19.5900 C   0  0  0  0  0  3  0  0  0  0  0  0
  -23.6420  -29.8330   20.2480 C   0  0  0  0  0  2  0  0  0  0  0  0
  -24.7020  -31.0940   22.1650 N   0  0  0  0  0  0  0  0  0  0  0  0
  -23.5530  -32.1960   23.7940 O   0  0  0  0  0  0  0  0  0  0  0  0
  -22.7540  -29.5120   22.5910 C   0  0  0  0  0  0  0  0  0  0  0  0
  -21.4260  -29.3370   22.4660 N   0  0  0  0  0  0  0  0  0  0  0  0
  -23.4270  -28.8890   23.4170 O   0  0  0  0  0  0  0  0  0  0  0  0
  -20.9370  -29.8900   21.7760 H   0  0  0  0  0  0  0  0  0  0  0  0
  -18.0500  -28.1200   22.9650 C   0  0  0  0  0  0  0  0  0  0  0  0
  -20.6080  -28.3990   23.2390 C   0  0  0  0  0  3  0  0  0  0  0  0
  -20.7190  -26.9640   22.6740 C   0  0  0  0  0  2  0  0  0  0  0  0
  -19.6220  -26.6300   21.6580 C   0  0  0  0  0  2  0  0  0  0  0  0
  -18.2380  -26.7690   22.2960 C   0  0  0  0  0  2  0  0  0  0  0  0
  -19.1630  -28.8920   23.3940 C   0  0  0  0  0  0  0  0  0  0  0  0
  -18.9340  -30.1560   23.9810 C   0  0  0  0  0  3  0  0  0  0  0  0
  -17.6240  -30.6480   24.1420 C   0  0  0  0  0  3  0  0  0  0  0  0
  -16.5260  -29.8740   23.7280 C   0  0  0  0  0  3  0  0  0  0  0  0
  -16.7400  -28.6120   23.1460 C   0  0  0  0  0  3  0  0  0  0  0  0
  -25.9170  -32.5480   23.8830 C   0  0  0  0  0  3  0  0  0  0  0  0
  -25.6090  -33.9480   24.2140 N   0  0  0  0  0  0  0  0  0  0  0  0
  -25.9370  -35.0030   23.4560 C   0  0  0  0  0  0  0  0  0  0  0  0
  -26.5960  -34.8990   22.4190 O   0  0  0  0  0  0  0  0  0  0  0  0
  -25.0230  -34.1010   25.0220 H   0  0  0  0  0  0  0  0  0  0  0  0
  -24.2060  -36.8000   23.1270 C   0  0  0  0  0  1  0  0  0  0  0  0
  -25.4580  -36.3920   23.9210 C   0  0  0  0  0  3  0  0  0  0  0  0
  -27.6040  -37.2780   24.7220 C   0  0  0  0  0  1  0  0  0  0  0  0
  -26.4900  -37.4450   23.7930 N   0  0  0  0  0  0  0  0  0  0  0  0
  -26.0870  -38.3650   23.9450 H   0  0  0  0  0  0  0  0  0  0  0  0
  -26.4280  -31.7800   25.1650 C   0  0  1  0  0  0  0  0  0  0  0  0
  -25.3330  -31.5590   26.2360 C   0  0  0  0  0  1  0  0  0  0  0  0
  -26.9980  -30.3950   24.7840 C   0  0  0  0  0  1  0  0  0  0  0  0
  -27.5850  -32.5690   25.8220 C   0  0  0  0  0  1  0  0  0  0  0  0
  1  2  1  0
  3  5  1  0
  3  4  1  0
  4 50  1  0
  4  1  1  0
  5  2  1  0
  7 10  1  0
  8  6  1  0
  9  7  2  0
  9 11  1  0
 10  5  1  0
 10  6  2  0
 11 20  1  0
 11  8  2  0
 12 20  1  0
 13 18  1  0
 14 15  1  0
 14 13  1  0
 16 15  1  0
 16 25  1  0
 16 17  1  0
 18 12  1  0
 18 17  1  0
 19 12  2  0
 20 21  1  0
 22 23  2  0
 23 42  1  0
 24 23  1  0
 24 27  1  0
 25 26  1  0
 25 22  1  0
 26 24  2  0
 27 28  1  0
 28 29  2  0
 30 33  1  0
 30 29  1  0
 31 30  2  0
 32 31  1  0
 32 27  2  0
 33 34  1  0
 34 35  1  0
 35 36  2  0
 37 36  1  0
 37 41  1  0
 38 37  2  0
 39 34  2  0
 39 38  1  0
 40 39  1  0
 42 43  1  0
 43 46  1  0
 43 45  1  0
 44 42  2  0
 47 48  1  0
 47 22  1  0
 49 47  1  0
 50 52  1  0
 51 62  2  0
 52 57  1  0
 53 61  1  0
 53 63  1  0
 54 60  1  0
 54 56  1  0
 55 61  1  0
 56 55  1  0
 57 56  2  0
 58 52  2  0
 59 58  1  0
 59 54  2  0
 60 53  1  0
 61 51  1  0
 63 65  2  0
 64 63  1  0
 66 64  1  0
 67 76  2  0
 67 72  1  0
 68 64  1  0
 68 72  1  0
 69 68  1  0
 70 71  1  0
 70 69  1  0
 71 67  1  0
 72 73  2  0
 73 74  1  0
 75 74  2  0
 76 75  1  0
 77 51  1  0
 77 78  1  0
 77 87  1  0
 78 81  1  0
 79 83  1  0
 79 78  1  0
 80 79  2  0
 83 82  1  0
 85 83  1  0
 85 86  1  0
 85 84  1  0
 87 90  1  1
 87 88  1  0
 89 87  1  0
M  ISO  4   4 101  12 100  20 100  50 101
M  END
>  <TORSDO>  (46) 
F 17

>  <SCORE>  (46) 
-15.242

>  <name>  (46) 
45

>  <ligand_id>  (46) 
45

>  <original_smiles>  (46) 
[H]c1c([H])c([H])c2c(c1[H])C([H])([H])C([H])([H])C([H])([H])C2([H])N([H])C(=O)C1([H])N(C(=O)C([H])(N([H])C(=O)C([H])(N([H])C([H])([H])[H])C([H])([H])[H])C(C([H])([H])[H])(C([H])([H])[H])C([H])([H])[H])C([H])([H])c2c([H])c(OC3([H])C([H])([H])N(c4c([H])c([H])c(N([H])C(=O)N5C([H])([H])C([H])([H])C([H])([H])C([H])(n6nc(-c7c([H])c([H])c(Oc8c([H])c([H])c(F)c([H])c8F)c([H])c7[H])c(C(=O)N([H])[H])c6N([H])[H])C5([H])[H])c([H])c4[H])C([H])([H])C3([H])[H])c([H])c([H])c2C1([H])[H]

>  <smiles>  (46) 
[H]c1c([H])c([H])c2c(c1[H])C([H])([H])C([H])([H])C([H])([H])C2([H])N([H])C(=O)C1([H])N(C(=O)C([H])(N([H])C(=O)C([H])(N([H])C([H])([H])[H])C([H])([H])[H])C(C([H])([H])[H])(C([H])([H])[H])C([H])([H])[H])C([H])([H])c2c([H])c(OC3([H])C([H])([H])N(c4c([H])c([H])c(N([H])C(=O)N5C([H])([H])C([H])([H])C([H])([H])C([H])(n6nc(-c7c([H])c([H])c(Oc8c([H])c([H])c(F)c([H])c8F)c([H])c7[H])c(C(=O)N([H])[H])c6N([H])[H])C5([H])[H])c([H])c4[H])C([H])([H])C3([H])[H])c([H])c([H])c2C1([H])[H]

$$$$
46:0:0
     RDKit          3D

 94102  0  0  1  0  0  0  0  0999 V2000
  -27.5650  -20.1990   20.0430 C   0  0  0  0  0  3  0  0  0  0  0  0
  -27.2200  -21.5020   19.6320 C   0  0  0  0  0  3  0  0  0  0  0  0
  -29.8580  -20.9280   20.3850 C   0  0  0  0  0  3  0  0  0  0  0  0
  -28.8970  -19.8960   20.4000 C   0  0  0  0  0  0  0  0  0  0  0  0
  -28.1790  -22.5340   19.5850 C   0  0  0  0  0  0  0  0  0  0  0  0
  -29.5090  -22.2390   19.9980 C   0  0  0  0  0  0  0  0  0  0  0  0
  -30.4690  -23.1920   20.0520 F   0  0  0  0  0  0  0  0  0  0  0  0
  -29.2780  -18.4820   20.8320 C   0  0  0  0  0  2  0  0  0  0  0  0
  -28.9700  -16.3800   19.6000 C   0  0  0  0  0  1  0  0  0  0  0  0
  -29.7480  -17.6390   19.7010 N   0  0  2  0  0  4  0  0  0  0  0  0
  -29.5340  -18.1680   18.8690 H   0  0  0  0  0  0  0  0  0  0  0  0
  -31.2190  -17.3990   19.6990 C   0  0  0  0  0  2  0  0  0  0  0  0
  -31.6080  -16.0120   19.1300 C   0  0  0  0  0  2  0  0  0  0  0  0
  -32.2890  -15.0900   20.1650 C   0  0  0  0  0  2  0  0  0  0  0  0
  -32.5800  -13.6880   19.5990 C   0  0  0  0  0  0  0  0  0  0  0  0
  -32.0570  -11.2770   19.4340 C   0  0  0  0  0  2  0  0  0  0  0  0
  -31.0460  -10.9790   18.3110 C   0  0  0  0  0  2  0  0  0  0  0  0
  -29.6010  -11.1460   18.8180 C   0  0  0  0  0  2  0  0  0  0  0  0
  -29.3860  -12.4880   19.5630 C   0  0  0  0  0  3  0  0  0  0  0  0
  -30.4920  -12.7140   20.6170 C   0  0  0  0  0  2  0  0  0  0  0  0
  -31.7990  -12.6310   19.9440 N   0  0  0  0  0  0  0  0  0  0  0  0
  -33.5560  -13.5700   18.8530 O   0  0  0  0  0  0  0  0  0  0  0  0
  -27.3520  -13.6680   20.6170 C   0  0  0  0  0  0  0  0  0  0  0  0
  -26.1290  -13.1980   21.0140 C   0  0  0  0  0  0  0  0  0  0  0  0
  -26.1420  -11.7950   20.7520 C   0  0  0  0  0  0  0  0  0  0  0  0
  -28.0520  -12.5640   20.1540 N   0  0  0  0  0  0  0  0  0  0  0  0
  -27.3280  -11.4240   20.2880 N   0  0  0  0  0  0  0  0  0  0  0  0
  -25.0760  -10.7900   20.8590 C   0  0  0  0  0  0  0  0  0  0  0  0
  -25.2400   -9.6240   21.6370 C   0  0  0  0  0  3  0  0  0  0  0  0
  -24.1950   -8.6800   21.7440 C   0  0  0  0  0  3  0  0  0  0  0  0
  -22.9690   -8.9010   21.0710 C   0  0  0  0  0  0  0  0  0  0  0  0
  -22.8190  -10.0530   20.2800 C   0  0  0  0  0  3  0  0  0  0  0  0
  -23.8620  -10.9890   20.1710 C   0  0  0  0  0  3  0  0  0  0  0  0
  -21.9080   -8.0290   21.0960 O   0  0  0  0  0  0  0  0  0  0  0  0
  -21.6660   -7.2220   22.1780 C   0  0  0  0  0  0  0  0  0  0  0  0
  -21.4150   -7.7530   23.4620 C   0  0  0  0  0  3  0  0  0  0  0  0
  -21.0990   -6.8900   24.5300 C   0  0  0  0  0  3  0  0  0  0  0  0
  -21.0270   -5.5010   24.3170 C   0  0  0  0  0  0  0  0  0  0  0  0
  -21.2720   -4.9720   23.0380 C   0  0  0  0  0  3  0  0  0  0  0  0
  -21.5870   -5.8310   21.9710 C   0  0  0  0  0  0  0  0  0  0  0  0
  -21.7970   -5.3180   20.7340 F   0  0  0  0  0  0  0  0  0  0  0  0
  -20.7170   -4.6720   25.3410 F   0  0  0  0  0  0  0  0  0  0  0  0
  -24.9720  -14.0210   21.5000 C   0  0  0  0  0  0  0  0  0  0  0  0
  -24.1390  -13.4570   22.3670 N   0  0  0  0  0  0  0  0  0  0  0  0
  -24.8310  -15.1920   21.1470 O   0  0  0  0  0  0  0  0  0  0  0  0
  -24.2640  -12.5000   22.6630 H   0  0  0  0  0  0  0  0  0  0  0  0
  -23.3650  -13.9870   22.7390 H   0  0  0  0  0  0  0  0  0  0  0  0
  -27.9160  -14.9400   20.5840 N   0  0  0  0  0  0  0  0  0  0  0  0
  -27.2790  -15.7210   20.6980 H   0  0  0  0  0  0  0  0  0  0  0  0
  -28.6330  -15.1360   19.8980 H   0  0  0  0  0  0  0  0  0  0  0  0
  -27.7210  -23.7620   19.1390 O   0  0  0  0  0  0  0  0  0  0  0  0
  -28.6600  -24.7890   18.8220 C   0  0  0  0  0  2  0  0  0  0  0  0
  -28.6170  -25.9380   19.8440 C   0  0  0  0  0  2  0  0  0  0  0  0
  -28.4500  -27.1910   19.1810 O   0  0  0  0  0  0  0  0  0  0  0  0
  -24.7390  -31.4640   23.4650 C   0  0  0  0  0  0  0  0  0  0  0  0
  -27.2620  -27.8300   19.4180 C   0  0  0  0  0  0  0  0  0  0  0  0
  -23.4580  -30.4080   21.6310 C   0  0  0  0  0  3  0  0  0  0  0  0
  -24.8470  -29.2180   19.8520 C   0  0  0  0  0  0  0  0  0  0  0  0
  -25.9610  -30.8600   21.3830 C   0  0  0  0  0  2  0  0  0  0  0  0
  -26.0260  -29.6510   20.4750 C   0  0  0  0  0  0  0  0  0  0  0  0
  -27.2380  -28.9660   20.2530 C   0  0  0  0  0  3  0  0  0  0  0  0
  -26.0710  -27.3940   18.7990 C   0  0  0  0  0  3  0  0  0  0  0  0
  -24.8640  -28.0890   19.0120 C   0  0  0  0  0  3  0  0  0  0  0  0
  -23.5980  -30.0230   20.1320 C   0  0  0  0  0  2  0  0  0  0  0  0
  -24.7400  -30.9120   22.2190 N   0  0  0  0  0  0  0  0  0  0  0  0
  -23.6870  -31.5970   24.1040 O   0  0  0  0  0  0  0  0  0  0  0  0
  -22.8680  -29.2000   22.3920 C   0  0  0  0  0  0  0  0  0  0  0  0
  -21.5680  -28.9380   22.1820 N   0  0  0  0  0  0  0  0  0  0  0  0
  -23.5780  -28.5090   23.1270 O   0  0  0  0  0  0  0  0  0  0  0  0
  -21.0510  -29.5600   21.5760 H   0  0  0  0  0  0  0  0  0  0  0  0
  -18.3500  -27.3000   22.1720 C   0  0  0  0  0  0  0  0  0  0  0  0
  -20.8110  -27.8270   22.7580 C   0  0  0  0  0  3  0  0  0  0  0  0
  -21.1590  -26.4940   22.0570 C   0  0  0  0  0  2  0  0  0  0  0  0
  -20.2150  -26.1550   20.8980 C   0  0  0  0  0  2  0  0  0  0  0  0
  -18.7660  -26.0670   21.3880 C   0  0  0  0  0  2  0  0  0  0  0  0
  -19.3100  -28.1340   22.8020 C   0  0  0  0  0  0  0  0  0  0  0  0
  -18.8710  -29.2870   23.4890 C   0  0  0  0  0  3  0  0  0  0  0  0
  -17.5010  -29.6080   23.5550 C   0  0  0  0  0  3  0  0  0  0  0  0
  -16.5540  -28.7710   22.9410 C   0  0  0  0  0  3  0  0  0  0  0  0
  -16.9780  -27.6190   22.2570 C   0  0  0  0  0  3  0  0  0  0  0  0
  -26.0530  -31.9770   24.1370 C   0  0  0  0  0  3  0  0  0  0  0  0
  -25.7950  -33.3310   24.6430 N   0  0  0  0  0  0  0  0  0  0  0  0
  -26.1620  -34.4580   24.0200 C   0  0  0  0  0  0  0  0  0  0  0  0
  -26.8270  -34.4620   22.9800 O   0  0  0  0  0  0  0  0  0  0  0  0
  -25.2060  -33.4040   25.4600 H   0  0  0  0  0  0  0  0  0  0  0  0
  -24.4880  -36.3290   23.9050 C   0  0  0  0  0  1  0  0  0  0  0  0
  -25.7220  -35.7920   24.6500 C   0  0  0  0  0  3  0  0  0  0  0  0
  -27.8860  -36.5050   25.5650 C   0  0  0  0  0  1  0  0  0  0  0  0
  -26.7850  -36.8210   24.6560 N   0  0  0  0  0  0  0  0  0  0  0  0
  -26.4090  -37.7270   24.9170 H   0  0  0  0  0  0  0  0  0  0  0  0
  -26.5660  -31.0360   25.2970 C   0  0  1  0  0  0  0  0  0  0  0  0
  -25.4830  -30.7040   26.3490 C   0  0  0  0  0  1  0  0  0  0  0  0
  -27.0940  -29.7010   24.7210 C   0  0  0  0  0  1  0  0  0  0  0  0
  -27.7540  -31.7060   26.0270 C   0  0  0  0  0  1  0  0  0  0  0  0
  1  4  1  0
  2  1  2  0
  3  4  2  0
  4  8  1  0
  5  2  1  0
  5  6  2  0
  6  7  1  0
  6  3  1  0
  9 10  1  0
 10  8  1  0
 10 11  1  6
 12 10  1  0
 13 12  1  0
 13 14  1  0
 15 21  1  0
 15 14  1  0
 16 21  1  0
 17 18  1  0
 17 16  1  0
 19 18  1  0
 19 26  1  0
 19 20  1  0
 21 20  1  0
 22 15  2  0
 23 24  2  0
 24 43  1  0
 25 28  1  0
 25 24  1  0
 26 27  1  0
 26 23  1  0
 27 25  2  0
 28 29  1  0
 29 30  2  0
 31 34  1  0
 31 30  1  0
 32 31  2  0
 33 32  1  0
 33 28  2  0
 34 35  1  0
 35 36  1  0
 36 37  2  0
 38 37  1  0
 38 42  1  0
 39 38  2  0
 40 35  2  0
 40 39  1  0
 41 40  1  0
 43 44  1  0
 44 46  1  0
 44 47  1  0
 45 43  2  0
 48 23  1  0
 48 49  1  0
 50 48  1  0
 51  5  1  0
 52 51  1  0
 52 53  1  0
 54 56  1  0
 54 53  1  0
 55 66  2  0
 56 61  1  0
 57 65  1  0
 57 67  1  0
 58 64  1  0
 58 60  1  0
 59 65  1  0
 60 59  1  0
 61 60  2  0
 62 63  1  0
 62 56  2  0
 63 58  2  0
 64 57  1  0
 65 55  1  0
 67 69  2  0
 68 67  1  0
 70 68  1  0
 71 80  2  0
 71 76  1  0
 72 68  1  0
 72 76  1  0
 73 72  1  0
 74 75  1  0
 74 73  1  0
 75 71  1  0
 76 77  2  0
 77 78  1  0
 79 78  2  0
 80 79  1  0
 81 55  1  0
 81 82  1  0
 81 91  1  0
 82 85  1  0
 83 82  1  0
 83 87  1  0
 84 83  2  0
 87 86  1  0
 87 89  1  0
 89 90  1  0
 89 88  1  0
 91 94  1  1
 91 92  1  0
 93 91  1  0
M  ISO  4  14 100  15 100  53 101  54 101
M  END
>  <TORSDO>  (47) 
F 24

>  <SCORE>  (47) 
-9.145

>  <name>  (47) 
46

>  <ligand_id>  (47) 
46

>  <original_smiles>  (47) 
[H]c1c([H])c([H])c2c(c1[H])C([H])([H])C([H])([H])C([H])([H])C2([H])N([H])C(=O)C1([H])N(C(=O)C([H])(N([H])C(=O)C([H])(N([H])C([H])([H])[H])C([H])([H])[H])C(C([H])([H])[H])(C([H])([H])[H])C([H])([H])[H])C([H])([H])c2c([H])c(OC([H])([H])C([H])([H])Oc3c([H])c([H])c(C([H])([H])[N+]([H])(C([H])([H])[H])C([H])([H])C([H])([H])C([H])([H])C(=O)N4C([H])([H])C([H])([H])C([H])([H])C([H])(n5nc(-c6c([H])c([H])c(Oc7c([H])c([H])c(F)c([H])c7F)c([H])c6[H])c(C(=O)N([H])[H])c5N([H])[H])C4([H])[H])c([H])c3F)c([H])c([H])c2C1([H])[H]

>  <smiles>  (47) 
[H]c1c([H])c([H])c2c(c1[H])C([H])([H])C([H])([H])C([H])([H])C2([H])N([H])C(=O)C1([H])N(C(=O)C([H])(N([H])C(=O)C([H])(N([H])C([H])([H])[H])C([H])([H])[H])C(C([H])([H])[H])(C([H])([H])[H])C([H])([H])[H])C([H])([H])c2c([H])c(OC([H])([H])C([H])([H])Oc3c([H])c([H])c(C([H])([H])[N+]([H])(C([H])([H])[H])C([H])([H])C([H])([H])C([H])([H])C(=O)N4C([H])([H])C([H])([H])C([H])([H])C([H])(n5nc(-c6c([H])c([H])c(Oc7c([H])c([H])c(F)c([H])c7F)c([H])c6[H])c(C(=O)N([H])[H])c5N([H])[H])C4([H])[H])c([H])c3F)c([H])c([H])c2C1([H])[H]

$$$$
47:0:0
     RDKit          3D

 91 99  0  0  1  0  0  0  0  0999 V2000
  -30.6380  -18.3060   19.1460 C   0  0  0  0  0  3  0  0  0  0  0  0
  -30.7180  -19.7080   18.9830 C   0  0  0  0  0  3  0  0  0  0  0  0
  -28.6500  -19.9790   20.2160 C   0  0  0  0  0  3  0  0  0  0  0  0
  -29.5510  -17.7230   19.8340 C   0  0  0  0  0  0  0  0  0  0  0  0
  -29.7180  -20.5670   19.4920 C   0  0  0  0  0  0  0  0  0  0  0  0
  -28.5660  -18.5790   20.3800 C   0  0  0  0  0  0  0  0  0  0  0  0
  -27.5110  -18.0580   21.0540 F   0  0  0  0  0  0  0  0  0  0  0  0
  -29.3920  -16.1910   19.9090 C   0  0  0  0  0  2  0  0  0  0  0  0
  -30.9700  -14.3180   19.4530 C   0  0  0  0  0  0  0  0  0  0  0  0
  -30.5380  -11.9990   18.6980 C   0  0  0  0  0  2  0  0  0  0  0  0
  -29.4910  -11.9630   17.5680 C   0  0  0  0  0  2  0  0  0  0  0  0
  -28.0710  -11.8830   18.1550 C   0  0  0  0  0  2  0  0  0  0  0  0
  -27.8260  -12.9490   19.2510 C   0  0  0  0  0  3  0  0  0  0  0  0
  -28.9810  -12.9720   20.2830 C   0  0  0  0  0  2  0  0  0  0  0  0
  -30.2470  -13.1630   19.5570 N   0  0  0  0  0  0  0  0  0  0  0  0
  -32.0030  -14.3790   18.7780 O   0  0  0  0  0  0  0  0  0  0  0  0
  -31.6280  -16.1270   20.9390 C   0  0  0  0  0  1  0  0  0  0  0  0
  -30.5950  -15.3840   20.2100 N   0  0  0  0  0  0  0  0  0  0  0  0
  -25.6100  -13.7410   20.2900 C   0  0  0  0  0  0  0  0  0  0  0  0
  -24.5290  -13.0520   20.7660 C   0  0  0  0  0  0  0  0  0  0  0  0
  -24.8520  -11.6670   20.6280 C   0  0  0  0  0  0  0  0  0  0  0  0
  -26.5280  -12.7800   19.8930 N   0  0  0  0  0  0  0  0  0  0  0  0
  -26.0830  -11.5250   20.1560 N   0  0  0  0  0  0  0  0  0  0  0  0
  -24.0390  -10.4680   20.8620 C   0  0  0  0  0  0  0  0  0  0  0  0
  -24.4510   -9.4610   21.7630 C   0  0  0  0  0  3  0  0  0  0  0  0
  -23.6430   -8.3240   21.9820 C   0  0  0  0  0  3  0  0  0  0  0  0
  -22.4110   -8.1890   21.3010 C   0  0  0  0  0  0  0  0  0  0  0  0
  -22.0180   -9.1830   20.3870 C   0  0  0  0  0  3  0  0  0  0  0  0
  -22.8250  -10.3110   20.1650 C   0  0  0  0  0  3  0  0  0  0  0  0
  -21.5710   -7.1090   21.4340 O   0  0  0  0  0  0  0  0  0  0  0  0
  -21.4990   -6.3950   22.6020 C   0  0  0  0  0  0  0  0  0  0  0  0
  -21.1010   -6.9920   23.8180 C   0  0  0  0  0  3  0  0  0  0  0  0
  -20.9730   -6.2050   24.9800 C   0  0  0  0  0  3  0  0  0  0  0  0
  -21.2320   -4.8210   24.9270 C   0  0  0  0  0  0  0  0  0  0  0  0
  -21.6230   -4.2250   23.7140 C   0  0  0  0  0  3  0  0  0  0  0  0
  -21.7530   -5.0100   22.5550 C   0  0  0  0  0  0  0  0  0  0  0  0
  -22.1090   -4.4250   21.3870 F   0  0  0  0  0  0  0  0  0  0  0  0
  -21.1020   -4.0630   26.0400 F   0  0  0  0  0  0  0  0  0  0  0  0
  -23.2280  -13.6390   21.2320 C   0  0  0  0  0  0  0  0  0  0  0  0
  -22.5500  -12.9700   22.1580 N   0  0  0  0  0  0  0  0  0  0  0  0
  -22.8270  -14.7230   20.8080 O   0  0  0  0  0  0  0  0  0  0  0  0
  -22.8880  -12.0900   22.5190 H   0  0  0  0  0  0  0  0  0  0  0  0
  -21.6800  -13.3430   22.5100 H   0  0  0  0  0  0  0  0  0  0  0  0
  -25.8820  -15.0980   20.1430 N   0  0  0  0  0  0  0  0  0  0  0  0
  -25.1990  -15.8100   20.3800 H   0  0  0  0  0  0  0  0  0  0  0  0
  -26.7130  -15.4800   19.7100 H   0  0  0  0  0  0  0  0  0  0  0  0
  -29.8460  -21.9260   19.2420 O   0  0  0  0  0  0  0  0  0  0  0  0
  -28.8750  -22.8270   19.7900 C   0  0  0  0  0  2  0  0  0  0  0  0
  -29.1050  -24.2810   19.3010 C   0  0  0  0  0  2  0  0  0  0  0  0
  -28.1710  -25.3010   19.9980 C   0  0  0  0  0  2  0  0  0  0  0  0
  -28.2710  -26.6380   19.4650 O   0  0  0  0  0  0  0  0  0  0  0  0
  -24.5360  -31.5580   23.0370 C   0  0  0  0  0  0  0  0  0  0  0  0
  -27.1140  -27.3860   19.5500 C   0  0  0  0  0  0  0  0  0  0  0  0
  -23.2960  -30.2960   21.3100 C   0  0  0  0  0  3  0  0  0  0  0  0
  -24.7200  -28.8840   19.7340 C   0  0  0  0  0  0  0  0  0  0  0  0
  -25.8170  -30.6730   21.0890 C   0  0  0  0  0  2  0  0  0  0  0  0
  -25.8930  -29.3610   20.3350 C   0  0  0  0  0  0  0  0  0  0  0  0
  -27.0960  -28.6210   20.2370 C   0  0  0  0  0  3  0  0  0  0  0  0
  -25.9260  -26.9270   18.9380 C   0  0  0  0  0  3  0  0  0  0  0  0
  -24.7320  -27.6650   19.0350 C   0  0  0  0  0  3  0  0  0  0  0  0
  -23.4760  -29.7320   19.8760 C   0  0  0  0  0  2  0  0  0  0  0  0
  -24.5700  -30.8510   21.8720 N   0  0  0  0  0  0  0  0  0  0  0  0
  -23.4650  -31.7820   23.6200 O   0  0  0  0  0  0  0  0  0  0  0  0
  -22.6640  -29.1980   22.1950 C   0  0  0  0  0  0  0  0  0  0  0  0
  -21.3340  -29.0380   22.0920 N   0  0  0  0  0  0  0  0  0  0  0  0
  -23.3640  -28.4960   22.9290 O   0  0  0  0  0  0  0  0  0  0  0  0
  -20.8300  -29.6550   21.4720 H   0  0  0  0  0  0  0  0  0  0  0  0
  -17.9600  -27.8540   22.6160 C   0  0  0  0  0  0  0  0  0  0  0  0
  -20.5310  -28.0430   22.8000 C   0  0  0  0  0  3  0  0  0  0  0  0
  -20.5810  -26.6740   22.0810 C   0  0  0  0  0  2  0  0  0  0  0  0
  -19.4320  -26.4720   21.0890 C   0  0  0  0  0  2  0  0  0  0  0  0
  -18.0800  -26.5760   21.8030 C   0  0  0  0  0  2  0  0  0  0  0  0
  -19.1110  -28.5510   23.0690 C   0  0  0  0  0  0  0  0  0  0  0  0
  -18.9440  -29.7530   23.7900 C   0  0  0  0  0  3  0  0  0  0  0  0
  -17.6570  -30.2580   24.0600 C   0  0  0  0  0  3  0  0  0  0  0  0
  -16.5220  -29.5550   23.6220 C   0  0  0  0  0  3  0  0  0  0  0  0
  -16.6730  -28.3540   22.9070 C   0  0  0  0  0  3  0  0  0  0  0  0
  -25.8350  -32.1380   23.6820 C   0  0  0  0  0  3  0  0  0  0  0  0
  -25.5440  -33.5170   24.0910 N   0  0  0  0  0  0  0  0  0  0  0  0
  -25.8740  -34.6070   23.3840 C   0  0  0  0  0  0  0  0  0  0  0  0
  -26.5280  -34.5550   22.3390 O   0  0  0  0  0  0  0  0  0  0  0  0
  -24.9630  -33.6320   24.9080 H   0  0  0  0  0  0  0  0  0  0  0  0
  -24.1460  -36.4230   23.1700 C   0  0  0  0  0  1  0  0  0  0  0  0
  -25.4070  -35.9710   23.9240 C   0  0  0  0  0  3  0  0  0  0  0  0
  -27.5590  -36.8150   24.7520 C   0  0  0  0  0  1  0  0  0  0  0  0
  -26.4410  -37.0260   23.8370 N   0  0  0  0  0  0  0  0  0  0  0  0
  -26.0390  -37.9390   24.0340 H   0  0  0  0  0  0  0  0  0  0  0  0
  -26.3560  -31.2890   24.9060 C   0  0  1  0  0  0  0  0  0  0  0  0
  -25.2720  -31.0040   25.9720 C   0  0  0  0  0  1  0  0  0  0  0  0
  -26.9200  -29.9300   24.4300 C   0  0  0  0  0  1  0  0  0  0  0  0
  -27.5230  -32.0330   25.5980 C   0  0  0  0  0  1  0  0  0  0  0  0
  1  4  1  0
  2  1  2  0
  2  5  1  0
  3  6  1  0
  4  8  1  0
  4  6  2  0
  5  3  2  0
  6  7  1  0
  8 18  1  0
  9 15  1  0
  9 18  1  0
 10 15  1  0
 11 12  1  0
 11 10  1  0
 13 12  1  0
 13 22  1  0
 13 14  1  0
 15 14  1  0
 16  9  2  0
 18 17  1  0
 19 20  2  0
 20 39  1  0
 21 20  1  0
 21 24  1  0
 22 23  1  0
 22 19  1  0
 23 21  2  0
 24 25  1  0
 25 26  2  0
 27 30  1  0
 27 26  1  0
 28 27  2  0
 29 28  1  0
 29 24  2  0
 30 31  1  0
 31 32  1  0
 32 33  2  0
 34 33  1  0
 34 38  1  0
 35 34  2  0
 36 31  2  0
 36 35  1  0
 37 36  1  0
 39 40  1  0
 40 43  1  0
 40 42  1  0
 41 39  2  0
 44 19  1  0
 44 45  1  0
 46 44  1  0
 47  5  1  0
 47 48  1  0
 49 48  1  0
 49 50  1  0
 51 53  1  0
 51 50  1  0
 52 63  2  0
 53 58  1  0
 54 62  1  0
 54 64  1  0
 55 61  1  0
 55 57  1  0
 56 62  1  0
 57 56  1  0
 58 57  2  0
 59 60  1  0
 59 53  2  0
 60 55  2  0
 61 54  1  0
 62 52  1  0
 64 66  2  0
 65 64  1  0
 67 65  1  0
 68 77  2  0
 68 73  1  0
 69 65  1  0
 69 73  1  0
 70 69  1  0
 71 72  1  0
 71 70  1  0
 72 68  1  0
 73 74  2  0
 74 75  1  0
 76 75  2  0
 77 76  1  0
 78 52  1  0
 78 79  1  0
 78 88  1  0
 79 82  1  0
 80 84  1  0
 80 79  1  0
 81 80  2  0
 84 83  1  0
 86 84  1  0
 86 87  1  0
 86 85  1  0
 88 91  1  1
 88 89  1  0
 90 88  1  0
M  ISO  4   9 100  18 100  50 101  51 101
M  END
>  <TORSDO>  (48) 
F 21

>  <SCORE>  (48) 
-12.290

>  <name>  (48) 
47

>  <ligand_id>  (48) 
47

>  <original_smiles>  (48) 
[H]c1c([H])c([H])c2c(c1[H])C([H])([H])C([H])([H])C([H])([H])C2([H])N([H])C(=O)C1([H])N(C(=O)C([H])(N([H])C(=O)C([H])(N([H])C([H])([H])[H])C([H])([H])[H])C(C([H])([H])[H])(C([H])([H])[H])C([H])([H])[H])C([H])([H])c2c([H])c(OC([H])([H])C([H])([H])C([H])([H])Oc3c([H])c([H])c(C([H])([H])N(C(=O)N4C([H])([H])C([H])([H])C([H])([H])C([H])(n5nc(-c6c([H])c([H])c(Oc7c([H])c([H])c(F)c([H])c7F)c([H])c6[H])c(C(=O)N([H])[H])c5N([H])[H])C4([H])[H])C([H])([H])[H])c(F)c3[H])c([H])c([H])c2C1([H])[H]

>  <smiles>  (48) 
[H]c1c([H])c([H])c2c(c1[H])C([H])([H])C([H])([H])C([H])([H])C2([H])N([H])C(=O)C1([H])N(C(=O)C([H])(N([H])C(=O)C([H])(N([H])C([H])([H])[H])C([H])([H])[H])C(C([H])([H])[H])(C([H])([H])[H])C([H])([H])[H])C([H])([H])c2c([H])c(OC([H])([H])C([H])([H])C([H])([H])Oc3c([H])c([H])c(C([H])([H])N(C(=O)N4C([H])([H])C([H])([H])C([H])([H])C([H])(n5nc(-c6c([H])c([H])c(Oc7c([H])c([H])c(F)c([H])c7F)c([H])c6[H])c(C(=O)N([H])[H])c5N([H])[H])C4([H])[H])C([H])([H])[H])c(F)c3[H])c([H])c([H])c2C1([H])[H]

$$$$
48:0:0
     RDKit          3D

 90 98  0  0  1  0  0  0  0  0999 V2000
  -30.8550  -19.7640   19.8250 C   0  0  0  0  0  3  0  0  0  0  0  0
  -30.3200  -21.0850   19.8360 C   0  0  0  0  0  3  0  0  0  0  0  0
  -28.6970  -18.8320   20.3210 C   0  0  0  0  0  3  0  0  0  0  0  0
  -30.0720  -18.6010   20.0720 C   0  0  0  0  0  0  0  0  0  0  0  0
  -28.9510  -21.3210   20.1080 C   0  0  0  0  0  0  0  0  0  0  0  0
  -28.1570  -20.1560   20.3400 C   0  0  0  0  0  0  0  0  0  0  0  0
  -26.8380  -20.3100   20.6030 F   0  0  0  0  0  0  0  0  0  0  0  0
  -30.7990  -17.2060   20.1360 C   0  0  0  0  0  2  0  0  0  0  0  0
  -30.7840  -14.6930   20.0130 C   0  0  0  0  0  0  0  0  0  0  0  0
  -30.4230  -12.4670   18.9840 C   0  0  0  0  0  2  0  0  0  0  0  0
  -29.4240  -12.5980   17.8160 C   0  0  0  0  0  2  0  0  0  0  0  0
  -27.9800  -12.4480   18.3300 C   0  0  0  0  0  2  0  0  0  0  0  0
  -27.6940  -13.3260   19.5790 C   0  0  0  0  0  3  0  0  0  0  0  0
  -28.8140  -13.2110   20.6370 C   0  0  0  0  0  2  0  0  0  0  0  0
  -30.0840  -13.5170   19.9680 N   0  0  0  0  0  0  0  0  0  0  0  0
  -31.9460  -14.7410   19.6030 O   0  0  0  0  0  0  0  0  0  0  0  0
  -30.1300  -15.8660   20.3030 N   0  0  0  0  0  0  0  0  0  0  0  0
  -29.1620  -15.8320   20.5800 H   0  0  0  0  0  0  0  0  0  0  0  0
  -25.3610  -13.9260   20.4670 C   0  0  0  0  0  0  0  0  0  0  0  0
  -24.3100  -13.1560   20.8810 C   0  0  0  0  0  0  0  0  0  0  0  0
  -24.7530  -11.8010   20.7880 C   0  0  0  0  0  0  0  0  0  0  0  0
  -26.3770  -13.0420   20.1450 N   0  0  0  0  0  0  0  0  0  0  0  0
  -26.0210  -11.7560   20.3990 N   0  0  0  0  0  0  0  0  0  0  0  0
  -24.0220  -10.5420   20.9880 C   0  0  0  0  0  0  0  0  0  0  0  0
  -24.4740   -9.5620   21.9010 C   0  0  0  0  0  3  0  0  0  0  0  0
  -23.7430   -8.3700   22.0900 C   0  0  0  0  0  3  0  0  0  0  0  0
  -22.5470   -8.1470   21.3680 C   0  0  0  0  0  0  0  0  0  0  0  0
  -22.1130   -9.1160   20.4440 C   0  0  0  0  0  3  0  0  0  0  0  0
  -22.8450  -10.3000   20.2530 C   0  0  0  0  0  3  0  0  0  0  0  0
  -21.7850   -7.0080   21.4680 O   0  0  0  0  0  0  0  0  0  0  0  0
  -21.7380   -6.2740   22.6260 C   0  0  0  0  0  0  0  0  0  0  0  0
  -21.2930   -6.8310   23.8440 C   0  0  0  0  0  3  0  0  0  0  0  0
  -21.1950   -6.0220   24.9940 C   0  0  0  0  0  3  0  0  0  0  0  0
  -21.5300   -4.6560   24.9270 C   0  0  0  0  0  0  0  0  0  0  0  0
  -21.9680   -4.0990   23.7130 C   0  0  0  0  0  3  0  0  0  0  0  0
  -22.0680   -4.9050   22.5650 C   0  0  0  0  0  0  0  0  0  0  0  0
  -22.4700   -4.3570   21.3930 F   0  0  0  0  0  0  0  0  0  0  0  0
  -21.4280   -3.8780   26.0290 F   0  0  0  0  0  0  0  0  0  0  0  0
  -22.9380  -13.6420   21.2480 C   0  0  0  0  0  0  0  0  0  0  0  0
  -22.2550  -12.9330   22.1400 N   0  0  0  0  0  0  0  0  0  0  0  0
  -22.4830  -14.6850   20.7800 O   0  0  0  0  0  0  0  0  0  0  0  0
  -22.6380  -12.0890   22.5410 H   0  0  0  0  0  0  0  0  0  0  0  0
  -21.3360  -13.2410   22.4280 H   0  0  0  0  0  0  0  0  0  0  0  0
  -25.5330  -15.3000   20.3130 N   0  0  0  0  0  0  0  0  0  0  0  0
  -24.7780  -15.9570   20.4800 H   0  0  0  0  0  0  0  0  0  0  0  0
  -26.3550  -15.7350   19.9180 H   0  0  0  0  0  0  0  0  0  0  0  0
  -28.3390  -22.5910   20.1810 O   0  0  0  0  0  0  0  0  0  0  0  0
  -29.0060  -23.8620   19.8730 C   0  0  0  0  0  2  0  0  0  0  0  0
  -28.1420  -25.1160   20.3420 C   0  0  0  0  0  2  0  0  0  0  0  0
  -28.3800  -26.4890   19.8250 O   0  0  0  0  0  0  0  0  0  0  0  0
  -24.6020  -31.7140   23.0720 C   0  0  0  0  0  0  0  0  0  0  0  0
  -27.2680  -27.3410   19.8200 C   0  0  0  0  0  0  0  0  0  0  0  0
  -23.4130  -30.3650   21.3800 C   0  0  0  0  0  3  0  0  0  0  0  0
  -24.8810  -28.9070   19.8800 C   0  0  0  0  0  0  0  0  0  0  0  0
  -25.9440  -30.7380   21.1980 C   0  0  0  0  0  2  0  0  0  0  0  0
  -26.0440  -29.3900   20.4950 C   0  0  0  0  0  0  0  0  0  0  0  0
  -27.2430  -28.6190   20.4560 C   0  0  0  0  0  3  0  0  0  0  0  0
  -26.0910  -26.9210   19.1650 C   0  0  0  0  0  3  0  0  0  0  0  0
  -24.9070  -27.6770   19.2050 C   0  0  0  0  0  3  0  0  0  0  0  0
  -23.6300  -29.7540   19.9710 C   0  0  0  0  0  2  0  0  0  0  0  0
  -24.6720  -30.9530   21.9410 N   0  0  0  0  0  0  0  0  0  0  0  0
  -23.5190  -31.9500   23.6240 O   0  0  0  0  0  0  0  0  0  0  0  0
  -22.7750  -29.2960   22.2990 C   0  0  0  0  0  0  0  0  0  0  0  0
  -21.4460  -29.1270   22.1970 N   0  0  0  0  0  0  0  0  0  0  0  0
  -23.4730  -28.6260   23.0650 O   0  0  0  0  0  0  0  0  0  0  0  0
  -20.9410  -29.7210   21.5540 H   0  0  0  0  0  0  0  0  0  0  0  0
  -18.0720  -27.9520   22.7660 C   0  0  0  0  0  0  0  0  0  0  0  0
  -20.6440  -28.1500   22.9360 C   0  0  0  0  0  3  0  0  0  0  0  0
  -20.6930  -26.7610   22.2570 C   0  0  0  0  0  2  0  0  0  0  0  0
  -19.5400  -26.5290   21.2740 C   0  0  0  0  0  2  0  0  0  0  0  0
  -18.1910  -26.6520   21.9900 C   0  0  0  0  0  2  0  0  0  0  0  0
  -19.2230  -28.6630   23.1960 C   0  0  0  0  0  0  0  0  0  0  0  0
  -19.0560  -29.8840   23.8850 C   0  0  0  0  0  3  0  0  0  0  0  0
  -17.7700  -30.3950   24.1450 C   0  0  0  0  0  3  0  0  0  0  0  0
  -16.6330  -29.6790   23.7290 C   0  0  0  0  0  3  0  0  0  0  0  0
  -16.7860  -28.4590   23.0450 C   0  0  0  0  0  3  0  0  0  0  0  0
  -25.8790  -32.3400   23.7140 C   0  0  0  0  0  3  0  0  0  0  0  0
  -26.4160  -31.5240   24.9530 C   0  0  1  0  0  0  0  0  0  0  0  0
  -25.3340  -31.2250   26.0170 C   0  0  0  0  0  1  0  0  0  0  0  0
  -27.0180  -30.1750   24.5000 C   0  0  0  0  0  1  0  0  0  0  0  0
  -27.5580  -32.3090   25.6410 C   0  0  0  0  0  1  0  0  0  0  0  0
  -25.5480  -33.7170   24.1050 N   0  0  0  0  0  0  0  0  0  0  0  0
  -25.8340  -34.8060   23.3770 C   0  0  0  0  0  0  0  0  0  0  0  0
  -26.4760  -34.7560   22.3240 O   0  0  0  0  0  0  0  0  0  0  0  0
  -24.9730  -33.8280   24.9270 H   0  0  0  0  0  0  0  0  0  0  0  0
  -24.0470  -36.5620   23.1540 C   0  0  0  0  0  1  0  0  0  0  0  0
  -25.3300  -36.1650   23.9010 C   0  0  0  0  0  3  0  0  0  0  0  0
  -27.4690  -37.0840   24.6810 C   0  0  0  0  0  1  0  0  0  0  0  0
  -26.3290  -37.2480   23.7830 N   0  0  0  0  0  0  0  0  0  0  0  0
  -25.9040  -38.1520   23.9710 H   0  0  0  0  0  0  0  0  0  0  0  0
  1  2  2  0
  1  4  1  0
  2  5  1  0
  3  6  1  0
  4  8  1  0
  4  3  2  0
  5 47  1  0
  5  6  2  0
  6  7  1  0
  8 17  1  0
  9 17  1  0
 10 15  1  0
 11 12  1  0
 11 10  1  0
 13 12  1  0
 13 22  1  0
 13 14  1  0
 15  9  1  0
 15 14  1  0
 16  9  2  0
 17 18  1  0
 19 20  2  0
 20 39  1  0
 21 20  1  0
 21 24  1  0
 22 23  1  0
 22 19  1  0
 23 21  2  0
 24 25  1  0
 25 26  2  0
 27 30  1  0
 27 26  1  0
 28 27  2  0
 29 28  1  0
 29 24  2  0
 30 31  1  0
 31 32  1  0
 32 33  2  0
 34 33  1  0
 34 38  1  0
 35 34  2  0
 36 31  2  0
 36 35  1  0
 37 36  1  0
 39 40  1  0
 40 43  1  0
 40 42  1  0
 41 39  2  0
 44 19  1  0
 44 45  1  0
 46 44  1  0
 48 47  1  0
 48 49  1  0
 50 49  1  0
 51 62  2  0
 52 50  1  0
 52 57  1  0
 53 61  1  0
 53 63  1  0
 54 60  1  0
 54 56  1  0
 55 61  1  0
 56 55  1  0
 57 56  2  0
 58 59  1  0
 58 52  2  0
 59 54  2  0
 60 53  1  0
 61 51  1  0
 63 65  2  0
 64 63  1  0
 66 64  1  0
 67 76  2  0
 67 72  1  0
 68 64  1  0
 68 72  1  0
 69 68  1  0
 70 71  1  0
 70 69  1  0
 71 67  1  0
 72 73  2  0
 73 74  1  0
 75 74  2  0
 76 75  1  0
 77 51  1  0
 77 82  1  0
 77 78  1  0
 78 81  1  1
 78 79  1  0
 80 78  1  0
 82 85  1  0
 83 87  1  0
 83 82  1  0
 84 83  2  0
 87 86  1  0
 89 87  1  0
 89 90  1  0
 89 88  1  0
M  ISO  4   9 100  17 100  49 101  50 101
M  END
>  <TORSDO>  (49) 
F 20

>  <SCORE>  (49) 
-12.872

>  <name>  (49) 
48

>  <ligand_id>  (49) 
48

>  <original_smiles>  (49) 
[H]c1c([H])c([H])c2c(c1[H])C([H])([H])C([H])([H])C([H])([H])C2([H])N([H])C(=O)C1([H])N(C(=O)C([H])(N([H])C(=O)C([H])(N([H])C([H])([H])[H])C([H])([H])[H])C(C([H])([H])[H])(C([H])([H])[H])C([H])([H])[H])C([H])([H])c2c([H])c(OC([H])([H])C([H])([H])Oc3c([H])c([H])c(C([H])([H])N([H])C(=O)N4C([H])([H])C([H])([H])C([H])([H])C([H])(n5nc(-c6c([H])c([H])c(Oc7c([H])c([H])c(F)c([H])c7F)c([H])c6[H])c(C(=O)N([H])[H])c5N([H])[H])C4([H])[H])c([H])c3F)c([H])c([H])c2C1([H])[H]

>  <smiles>  (49) 
[H]c1c([H])c([H])c2c(c1[H])C([H])([H])C([H])([H])C([H])([H])C2([H])N([H])C(=O)C1([H])N(C(=O)C([H])(N([H])C(=O)C([H])(N([H])C([H])([H])[H])C([H])([H])[H])C(C([H])([H])[H])(C([H])([H])[H])C([H])([H])[H])C([H])([H])c2c([H])c(OC([H])([H])C([H])([H])Oc3c([H])c([H])c(C([H])([H])N([H])C(=O)N4C([H])([H])C([H])([H])C([H])([H])C([H])(n5nc(-c6c([H])c([H])c(Oc7c([H])c([H])c(F)c([H])c7F)c([H])c6[H])c(C(=O)N([H])[H])c5N([H])[H])C4([H])[H])c([H])c3F)c([H])c([H])c2C1([H])[H]

$$$$
49:0:0
     RDKit          3D

 91100  0  0  1  0  0  0  0  0999 V2000
  -29.2050  -24.4170   21.7210 C   0  0  0  0  0  2  0  0  0  0  0  0
  -29.2820  -22.8660   21.9110 C   0  0  0  0  0  2  0  0  0  0  0  0
  -28.3910  -23.3450   19.7840 C   0  0  0  0  0  2  0  0  0  0  0  0
  -28.1520  -24.7430   20.6430 C   0  0  0  0  0  3  0  0  0  0  0  0
  -29.0020  -22.2120   20.6290 N   0  0  0  0  0  0  0  0  0  0  0  0
  -30.2590  -19.9940   21.1420 C   0  0  0  0  0  3  0  0  0  0  0  0
  -30.4600  -18.5490   21.0980 C   0  0  0  0  0  3  0  0  0  0  0  0
  -28.3690  -19.8120   19.7630 C   0  0  0  0  0  3  0  0  0  0  0  0
  -29.2010  -20.7310   20.4880 C   0  0  0  0  0  0  0  0  0  0  0  0
  -29.5960  -17.6370   20.4060 C   0  0  0  0  0  0  0  0  0  0  0  0
  -28.5380  -18.3620   19.7470 C   0  0  0  0  0  0  0  0  0  0  0  0
  -27.6120  -17.6270   19.0850 F   0  0  0  0  0  0  0  0  0  0  0  0
  -30.4690  -14.9960   20.3510 C   0  0  0  0  0  0  0  0  0  0  0  0
  -30.4100  -12.6450   19.3920 C   0  0  0  0  0  2  0  0  0  0  0  0
  -29.4690  -12.5940   18.1640 C   0  0  0  0  0  2  0  0  0  0  0  0
  -28.0060  -12.3710   18.5980 C   0  0  0  0  0  2  0  0  0  0  0  0
  -27.5930  -13.2920   19.7760 C   0  0  0  0  0  3  0  0  0  0  0  0
  -28.6470  -13.2890   20.9030 C   0  0  0  0  0  2  0  0  0  0  0  0
  -29.9180  -13.7170   20.3000 N   0  0  0  0  0  0  0  0  0  0  0  0
  -31.6730  -15.1150   20.0920 O   0  0  0  0  0  0  0  0  0  0  0  0
  -29.5860  -16.1010   20.4670 N   0  0  0  0  0  0  0  0  0  0  0  0
  -28.6400  -15.7530   20.4890 H   0  0  0  0  0  0  0  0  0  0  0  0
  -25.2090  -13.8650   20.5130 C   0  0  0  0  0  0  0  0  0  0  0  0
  -24.1460  -13.0850   20.8780 C   0  0  0  0  0  0  0  0  0  0  0  0
  -24.6150  -11.7350   20.8430 C   0  0  0  0  0  0  0  0  0  0  0  0
  -26.2540  -12.9900   20.2690 N   0  0  0  0  0  0  0  0  0  0  0  0
  -25.9060  -11.7050   20.5350 N   0  0  0  0  0  0  0  0  0  0  0  0
  -23.8920  -10.4700   21.0270 C   0  0  0  0  0  0  0  0  0  0  0  0
  -24.3130   -9.5080   21.9710 C   0  0  0  0  0  3  0  0  0  0  0  0
  -23.5890   -8.3090   22.1420 C   0  0  0  0  0  3  0  0  0  0  0  0
  -22.4300   -8.0620   21.3690 C   0  0  0  0  0  0  0  0  0  0  0  0
  -22.0290   -9.0130   20.4130 C   0  0  0  0  0  3  0  0  0  0  0  0
  -22.7530  -10.2030   20.2400 C   0  0  0  0  0  3  0  0  0  0  0  0
  -21.6790   -6.9150   21.4480 O   0  0  0  0  0  0  0  0  0  0  0  0
  -21.6000   -6.1860   22.6080 C   0  0  0  0  0  0  0  0  0  0  0  0
  -21.1170   -6.7480   23.8110 C   0  0  0  0  0  3  0  0  0  0  0  0
  -20.9880   -5.9440   24.9600 C   0  0  0  0  0  3  0  0  0  0  0  0
  -21.3290   -4.5800   24.9090 C   0  0  0  0  0  0  0  0  0  0  0  0
  -21.8050   -4.0170   23.7110 C   0  0  0  0  0  3  0  0  0  0  0  0
  -21.9360   -4.8180   22.5630 C   0  0  0  0  0  0  0  0  0  0  0  0
  -22.3740   -4.2660   21.4060 F   0  0  0  0  0  0  0  0  0  0  0  0
  -21.1980   -3.8060   26.0110 F   0  0  0  0  0  0  0  0  0  0  0  0
  -22.7460  -13.5560   21.1450 C   0  0  0  0  0  0  0  0  0  0  0  0
  -22.0150  -12.8540   22.0020 N   0  0  0  0  0  0  0  0  0  0  0  0
  -22.3080  -14.5840   20.6290 O   0  0  0  0  0  0  0  0  0  0  0  0
  -22.3810  -12.0210   22.4410 H   0  0  0  0  0  0  0  0  0  0  0  0
  -21.0750  -13.1510   22.2240 H   0  0  0  0  0  0  0  0  0  0  0  0
  -25.3640  -15.2380   20.3410 N   0  0  0  0  0  0  0  0  0  0  0  0
  -24.5860  -15.8770   20.4650 H   0  0  0  0  0  0  0  0  0  0  0  0
  -26.1810  -15.6920   19.9530 H   0  0  0  0  0  0  0  0  0  0  0  0
  -28.2810  -26.2390   20.2200 O   0  0  0  0  0  0  0  0  0  0  0  0
  -24.6120  -31.8920   23.2410 C   0  0  0  0  0  0  0  0  0  0  0  0
  -27.1940  -27.1820   20.2270 C   0  0  0  0  0  0  0  0  0  0  0  0
  -23.4100  -30.4920   21.6040 C   0  0  0  0  0  3  0  0  0  0  0  0
  -24.8560  -28.9070   20.1890 C   0  0  0  0  0  0  0  0  0  0  0  0
  -25.9600  -30.7650   21.4290 C   0  0  0  0  0  2  0  0  0  0  0  0
  -26.0360  -29.3680   20.7870 C   0  0  0  0  0  0  0  0  0  0  0  0
  -27.2090  -28.5240   20.7820 C   0  0  0  0  0  3  0  0  0  0  0  0
  -25.9860  -26.8080   19.6040 C   0  0  0  0  0  3  0  0  0  0  0  0
  -24.8430  -27.6410   19.5820 C   0  0  0  0  0  3  0  0  0  0  0  0
  -23.6290  -29.8040   20.2290 C   0  0  0  0  0  2  0  0  0  0  0  0
  -24.6820  -31.0710   22.1480 N   0  0  0  0  0  0  0  0  0  0  0  0
  -23.5260  -32.1740   23.7700 O   0  0  0  0  0  0  0  0  0  0  0  0
  -22.7320  -29.4890   22.5720 C   0  0  0  0  0  0  0  0  0  0  0  0
  -21.4050  -29.3160   22.4440 N   0  0  0  0  0  0  0  0  0  0  0  0
  -23.4040  -28.8670   23.3990 O   0  0  0  0  0  0  0  0  0  0  0  0
  -20.9180  -29.8710   21.7540 H   0  0  0  0  0  0  0  0  0  0  0  0
  -18.0250  -28.1110   22.9460 C   0  0  0  0  0  0  0  0  0  0  0  0
  -20.5820  -28.3800   23.2170 C   0  0  0  0  0  3  0  0  0  0  0  0
  -20.6880  -26.9450   22.6490 C   0  0  0  0  0  2  0  0  0  0  0  0
  -19.5880  -26.6170   21.6340 C   0  0  0  0  0  2  0  0  0  0  0  0
  -18.2060  -26.7620   22.2740 C   0  0  0  0  0  2  0  0  0  0  0  0
  -19.1410  -28.8780   23.3750 C   0  0  0  0  0  0  0  0  0  0  0  0
  -18.9170  -30.1420   23.9650 C   0  0  0  0  0  3  0  0  0  0  0  0
  -17.6100  -30.6380   24.1290 C   0  0  0  0  0  3  0  0  0  0  0  0
  -16.5090  -29.8690   23.7150 C   0  0  0  0  0  3  0  0  0  0  0  0
  -16.7170  -28.6080   23.1300 C   0  0  0  0  0  3  0  0  0  0  0  0
  -25.8910  -32.5290   23.8660 C   0  0  0  0  0  3  0  0  0  0  0  0
  -25.5810  -33.9290   24.1950 N   0  0  0  0  0  0  0  0  0  0  0  0
  -25.9110  -34.9840   23.4370 C   0  0  0  0  0  0  0  0  0  0  0  0
  -26.5750  -34.8790   22.4020 O   0  0  0  0  0  0  0  0  0  0  0  0
  -24.9910  -34.0840   25.0000 H   0  0  0  0  0  0  0  0  0  0  0  0
  -24.1820  -36.7800   23.0960 C   0  0  0  0  0  1  0  0  0  0  0  0
  -25.4290  -36.3740   23.8980 C   0  0  0  0  0  3  0  0  0  0  0  0
  -27.5700  -37.2570   24.7130 C   0  0  0  0  0  1  0  0  0  0  0  0
  -26.4620  -37.4260   23.7780 N   0  0  0  0  0  0  0  0  0  0  0  0
  -26.0570  -38.3460   23.9310 H   0  0  0  0  0  0  0  0  0  0  0  0
  -26.3990  -31.7640   25.1500 C   0  0  1  0  0  0  0  0  0  0  0  0
  -25.3020  -31.5380   26.2170 C   0  0  0  0  0  1  0  0  0  0  0  0
  -26.9790  -30.3820   24.7710 C   0  0  0  0  0  1  0  0  0  0  0  0
  -27.5500  -32.5580   25.8120 C   0  0  0  0  0  1  0  0  0  0  0  0
  1  2  1  0
  3  5  1  0
  3  4  1  0
  4 51  1  0
  4  1  1  0
  5  2  1  0
  7  6  1  0
  8  9  1  0
  9  5  1  0
  9  6  2  0
 10 21  1  0
 10  7  2  0
 11  8  2  0
 11 10  1  0
 12 11  1  0
 13 21  1  0
 14 19  1  0
 15 16  1  0
 15 14  1  0
 17 16  1  0
 17 26  1  0
 17 18  1  0
 19 13  1  0
 19 18  1  0
 20 13  2  0
 21 22  1  0
 23 24  2  0
 24 43  1  0
 25 24  1  0
 25 28  1  0
 26 23  1  0
 26 27  1  0
 27 25  2  0
 28 29  1  0
 29 30  2  0
 31 34  1  0
 31 30  1  0
 32 31  2  0
 33 32  1  0
 33 28  2  0
 34 35  1  0
 35 36  1  0
 36 37  2  0
 38 37  1  0
 38 42  1  0
 39 38  2  0
 40 35  2  0
 40 39  1  0
 41 40  1  0
 43 44  1  0
 44 47  1  0
 44 46  1  0
 45 43  2  0
 48 49  1  0
 48 23  1  0
 50 48  1  0
 51 53  1  0
 52 63  2  0
 53 58  1  0
 54 62  1  0
 54 64  1  0
 55 61  1  0
 55 57  1  0
 56 62  1  0
 57 56  1  0
 58 57  2  0
 59 53  2  0
 60 59  1  0
 60 55  2  0
 61 54  1  0
 62 52  1  0
 64 66  2  0
 65 64  1  0
 67 65  1  0
 68 77  2  0
 68 73  1  0
 69 65  1  0
 69 73  1  0
 70 69  1  0
 71 72  1  0
 71 70  1  0
 72 68  1  0
 73 74  2  0
 74 75  1  0
 76 75  2  0
 77 76  1  0
 78 52  1  0
 78 79  1  0
 78 88  1  0
 79 82  1  0
 80 84  1  0
 80 79  1  0
 81 80  2  0
 84 83  1  0
 86 84  1  0
 86 87  1  0
 86 85  1  0
 88 91  1  1
 88 89  1  0
 90 88  1  0
M  ISO  4   4 101  13 100  21 100  51 101
M  END
>  <TORSDO>  (50) 
F 17

>  <SCORE>  (50) 
-15.443

>  <name>  (50) 
49

>  <ligand_id>  (50) 
49

>  <original_smiles>  (50) 
[H]c1c([H])c([H])c2c(c1[H])C([H])([H])C([H])([H])C([H])([H])C2([H])N([H])C(=O)C1([H])N(C(=O)C([H])(N([H])C(=O)C([H])(N([H])C([H])([H])[H])C([H])([H])[H])C(C([H])([H])[H])(C([H])([H])[H])C([H])([H])[H])C([H])([H])c2c([H])c(OC3([H])C([H])([H])N(c4c([H])c([H])c(N([H])C(=O)N5C([H])([H])C([H])([H])C([H])([H])C([H])(n6nc(-c7c([H])c([H])c(Oc8c([H])c([H])c(F)c([H])c8F)c([H])c7[H])c(C(=O)N([H])[H])c6N([H])[H])C5([H])[H])c(F)c4[H])C([H])([H])C3([H])[H])c([H])c([H])c2C1([H])[H]

>  <smiles>  (50) 
[H]c1c([H])c([H])c2c(c1[H])C([H])([H])C([H])([H])C([H])([H])C2([H])N([H])C(=O)C1([H])N(C(=O)C([H])(N([H])C(=O)C([H])(N([H])C([H])([H])[H])C([H])([H])[H])C(C([H])([H])[H])(C([H])([H])[H])C([H])([H])[H])C([H])([H])c2c([H])c(OC3([H])C([H])([H])N(c4c([H])c([H])c(N([H])C(=O)N5C([H])([H])C([H])([H])C([H])([H])C([H])(n6nc(-c7c([H])c([H])c(Oc8c([H])c([H])c(F)c([H])c8F)c([H])c7[H])c(C(=O)N([H])[H])c6N([H])[H])C5([H])[H])c(F)c4[H])C([H])([H])C3([H])[H])c([H])c([H])c2C1([H])[H]

$$$$
50:0:0
     RDKit          3D

 92101  0  0  1  0  0  0  0  0999 V2000
  -27.8090  -23.7040   22.5520 C   0  0  0  0  0  3  0  0  0  0  0  0
  -28.2900  -22.5400   21.9120 C   0  0  0  0  0  3  0  0  0  0  0  0
  -27.8150  -24.9650   21.9090 C   0  0  0  0  0  3  0  0  0  0  0  0
  -28.8100  -23.9060   19.9670 C   0  0  0  0  0  3  0  0  0  0  0  0
  -28.8010  -22.5840   20.5950 C   0  0  0  0  0  0  0  0  0  0  0  0
  -28.3190  -25.1280   20.6000 C   0  0  0  0  0  0  0  0  0  0  0  0
  -28.3700  -26.4510   20.0480 O   0  0  0  0  0  0  0  0  0  0  0  0
  -24.6430  -31.8970   23.1430 C   0  0  0  0  0  0  0  0  0  0  0  0
  -27.2640  -27.3310   20.0720 C   0  0  0  0  0  0  0  0  0  0  0  0
  -23.4450  -30.5100   21.4850 C   0  0  0  0  0  3  0  0  0  0  0  0
  -24.9030  -28.9650   20.0520 C   0  0  0  0  0  0  0  0  0  0  0  0
  -25.9850  -30.8270   21.3110 C   0  0  0  0  0  2  0  0  0  0  0  0
  -26.0700  -29.4430   20.6630 C   0  0  0  0  0  0  0  0  0  0  0  0
  -27.2540  -28.6370   20.6650 C   0  0  0  0  0  3  0  0  0  0  0  0
  -26.0780  -26.9110   19.4380 C   0  0  0  0  0  3  0  0  0  0  0  0
  -24.9100  -27.7040   19.4310 C   0  0  0  0  0  3  0  0  0  0  0  0
  -23.6690  -29.8460   20.0990 C   0  0  0  0  0  2  0  0  0  0  0  0
  -24.7090  -31.0980   22.0380 N   0  0  0  0  0  0  0  0  0  0  0  0
  -23.5580  -32.1670   23.6800 O   0  0  0  0  0  0  0  0  0  0  0  0
  -22.7840  -29.4840   22.4400 C   0  0  0  0  0  0  0  0  0  0  0  0
  -21.4550  -29.3120   22.3220 N   0  0  0  0  0  0  0  0  0  0  0  0
  -23.4640  -28.8450   23.2470 O   0  0  0  0  0  0  0  0  0  0  0  0
  -20.9600  -29.8910   21.6590 H   0  0  0  0  0  0  0  0  0  0  0  0
  -18.0780  -28.1170   22.8380 C   0  0  0  0  0  0  0  0  0  0  0  0
  -20.6400  -28.3650   23.0860 C   0  0  0  0  0  3  0  0  0  0  0  0
  -20.7300  -26.9390   22.4890 C   0  0  0  0  0  2  0  0  0  0  0  0
  -19.6180  -26.6390   21.4770 C   0  0  0  0  0  2  0  0  0  0  0  0
  -18.2410  -26.7840   22.1290 C   0  0  0  0  0  2  0  0  0  0  0  0
  -19.2020  -28.8670   23.2720 C   0  0  0  0  0  0  0  0  0  0  0  0
  -18.9920  -30.1180   23.8940 C   0  0  0  0  0  3  0  0  0  0  0  0
  -17.6900  -30.6200   24.0760 C   0  0  0  0  0  3  0  0  0  0  0  0
  -16.5800  -29.8670   23.6560 C   0  0  0  0  0  3  0  0  0  0  0  0
  -16.7760  -28.6140   23.0460 C   0  0  0  0  0  3  0  0  0  0  0  0
  -25.9230  -32.5290   23.7740 C   0  0  0  0  0  3  0  0  0  0  0  0
  -25.6090  -33.9240   24.1150 N   0  0  0  0  0  0  0  0  0  0  0  0
  -25.9390  -34.9860   23.3690 C   0  0  0  0  0  0  0  0  0  0  0  0
  -26.6120  -34.8930   22.3380 O   0  0  0  0  0  0  0  0  0  0  0  0
  -25.0100  -34.0670   24.9150 H   0  0  0  0  0  0  0  0  0  0  0  0
  -24.2200  -36.7910   23.0140 C   0  0  0  0  0  1  0  0  0  0  0  0
  -25.4490  -36.3710   23.8360 C   0  0  0  0  0  3  0  0  0  0  0  0
  -27.5740  -37.2450   24.7050 C   0  0  0  0  0  1  0  0  0  0  0  0
  -26.4860  -37.4220   23.7480 N   0  0  0  0  0  0  0  0  0  0  0  0
  -26.0790  -38.3430   23.8940 H   0  0  0  0  0  0  0  0  0  0  0  0
  -26.4390  -31.7510   25.0480 C   0  0  1  0  0  0  0  0  0  0  0  0
  -25.3450  -31.5060   26.1130 C   0  0  0  0  0  1  0  0  0  0  0  0
  -27.0250  -30.3760   24.6510 C   0  0  0  0  0  1  0  0  0  0  0  0
  -27.5850  -32.5430   25.7190 C   0  0  0  0  0  1  0  0  0  0  0  0
  -29.1890  -21.2020   19.8710 C   0  0  0  0  0  2  0  0  0  0  0  0
  -31.4750  -18.1730   20.3700 C   0  0  0  0  0  2  0  0  0  0  0  0
  -31.2160  -19.7170   20.5360 C   0  0  0  0  0  2  0  0  0  0  0  0
  -29.1540  -18.5850   20.3720 C   0  0  0  0  0  2  0  0  0  0  0  0
  -30.1920  -17.4770   20.8660 C   0  0  0  0  0  3  0  0  0  0  0  0
  -29.7420  -19.9670   20.6330 N   0  0  2  0  0  4  0  0  0  0  0  0
  -29.5560  -20.1410   21.6100 H   0  0  0  0  0  0  0  0  0  0  0  0
  -30.7340  -14.8670   20.3290 C   0  0  0  0  0  0  0  0  0  0  0  0
  -30.5550  -12.5810   19.3030 C   0  0  0  0  0  2  0  0  0  0  0  0
  -29.6100  -12.6200   18.0760 C   0  0  0  0  0  2  0  0  0  0  0  0
  -28.1420  -12.4310   18.5100 C   0  0  0  0  0  2  0  0  0  0  0  0
  -27.7580  -13.3370   19.7090 C   0  0  0  0  0  3  0  0  0  0  0  0
  -28.8150  -13.2750   20.8350 C   0  0  0  0  0  2  0  0  0  0  0  0
  -30.1120  -13.6390   20.2420 N   0  0  0  0  0  0  0  0  0  0  0  0
  -31.9240  -14.9800   20.0190 O   0  0  0  0  0  0  0  0  0  0  0  0
  -29.9410  -15.9780   20.5840 N   0  0  0  0  0  0  0  0  0  0  0  0
  -28.9780  -15.7090   20.7280 H   0  0  0  0  0  0  0  0  0  0  0  0
  -25.3700  -13.9340   20.4360 C   0  0  0  0  0  0  0  0  0  0  0  0
  -24.3030  -13.1610   20.8070 C   0  0  0  0  0  0  0  0  0  0  0  0
  -24.7630  -11.8090   20.7780 C   0  0  0  0  0  0  0  0  0  0  0  0
  -26.4120  -13.0520   20.2010 N   0  0  0  0  0  0  0  0  0  0  0  0
  -26.0540  -11.7690   20.4720 N   0  0  0  0  0  0  0  0  0  0  0  0
  -24.0340  -10.5480   20.9680 C   0  0  0  0  0  0  0  0  0  0  0  0
  -24.4400   -9.5970   21.9310 C   0  0  0  0  0  3  0  0  0  0  0  0
  -23.7120   -8.4010   22.1090 C   0  0  0  0  0  3  0  0  0  0  0  0
  -22.5640   -8.1450   21.3190 C   0  0  0  0  0  0  0  0  0  0  0  0
  -22.1780   -9.0830   20.3460 C   0  0  0  0  0  3  0  0  0  0  0  0
  -22.9070  -10.2710   20.1680 C   0  0  0  0  0  3  0  0  0  0  0  0
  -21.8130   -6.9960   21.4010 O   0  0  0  0  0  0  0  0  0  0  0  0
  -21.7050   -6.2880   22.5710 C   0  0  0  0  0  0  0  0  0  0  0  0
  -21.1790   -6.8690   23.7450 C   0  0  0  0  0  3  0  0  0  0  0  0
  -21.0240   -6.0890   24.9090 C   0  0  0  0  0  3  0  0  0  0  0  0
  -21.3800   -4.7260   24.8960 C   0  0  0  0  0  0  0  0  0  0  0  0
  -21.9010   -4.1450   23.7250 C   0  0  0  0  0  3  0  0  0  0  0  0
  -22.0600   -4.9240   22.5660 C   0  0  0  0  0  0  0  0  0  0  0  0
  -22.5430   -4.3560   21.4340 F   0  0  0  0  0  0  0  0  0  0  0  0
  -21.2230   -3.9720   26.0090 F   0  0  0  0  0  0  0  0  0  0  0  0
  -22.9060  -13.6420   21.0740 C   0  0  0  0  0  0  0  0  0  0  0  0
  -22.1680  -12.9440   21.9290 N   0  0  0  0  0  0  0  0  0  0  0  0
  -22.4740  -14.6700   20.5560 O   0  0  0  0  0  0  0  0  0  0  0  0
  -22.5280  -12.1100   22.3680 H   0  0  0  0  0  0  0  0  0  0  0  0
  -21.2330  -13.2530   22.1510 H   0  0  0  0  0  0  0  0  0  0  0  0
  -25.5310  -15.3040   20.2520 N   0  0  0  0  0  0  0  0  0  0  0  0
  -24.7420  -15.9380   20.3060 H   0  0  0  0  0  0  0  0  0  0  0  0
  -26.3390  -15.7190   19.8050 H   0  0  0  0  0  0  0  0  0  0  0  0
  2  1  1  0
  3  1  2  0
  4  5  1  0
  4  6  2  0
  5  2  2  0
  6  3  1  0
  7  9  1  0
  7  6  1  0
  8 19  2  0
  9 14  1  0
 10 18  1  0
 10 20  1  0
 11 17  1  0
 11 13  1  0
 12 18  1  0
 13 14  2  0
 13 12  1  0
 15  9  2  0
 16 15  1  0
 16 11  2  0
 17 10  1  0
 18  8  1  0
 20 22  2  0
 21 20  1  0
 23 21  1  0
 24 33  2  0
 24 29  1  0
 25 21  1  0
 25 29  1  0
 26 25  1  0
 27 28  1  0
 27 26  1  0
 28 24  1  0
 29 30  2  0
 30 31  1  0
 32 31  2  0
 33 32  1  0
 34  8  1  0
 34 35  1  0
 34 44  1  0
 35 38  1  0
 36 40  1  0
 36 35  1  0
 37 36  2  0
 40 39  1  0
 42 40  1  0
 42 43  1  0
 42 41  1  0
 44 47  1  1
 44 45  1  0
 46 44  1  0
 48  5  1  0
 48 53  1  0
 49 50  1  0
 49 52  1  0
 50 53  1  0
 51 53  1  0
 51 52  1  0
 52 63  1  0
 53 54  1  1
 55 63  1  0
 56 61  1  0
 57 58  1  0
 57 56  1  0
 59 58  1  0
 59 68  1  0
 59 60  1  0
 61 55  1  0
 61 60  1  0
 62 55  2  0
 63 64  1  0
 65 66  2  0
 66 85  1  0
 67 66  1  0
 67 70  1  0
 68 65  1  0
 68 69  1  0
 69 67  2  0
 70 71  1  0
 71 72  2  0
 73 76  1  0
 73 72  1  0
 74 73  2  0
 75 74  1  0
 75 70  2  0
 76 77  1  0
 77 78  1  0
 78 79  2  0
 80 79  1  0
 80 84  1  0
 81 80  2  0
 82 77  2  0
 82 81  1  0
 83 82  1  0
 85 86  1  0
 86 89  1  0
 86 88  1  0
 87 85  2  0
 90 91  1  0
 90 65  1  0
 92 90  1  0
M  ISO  4   6 101   7 101  55 100  63 100
M  END
>  <TORSDO>  (51) 
F 18

>  <SCORE>  (51) 
-14.239

>  <name>  (51) 
50

>  <ligand_id>  (51) 
50

>  <original_smiles>  (51) 
[H]c1c([H])c([H])c2c(c1[H])C([H])([H])C([H])([H])C([H])([H])C2([H])N([H])C(=O)C1([H])N(C(=O)C([H])(N([H])C(=O)C([H])(N([H])C([H])([H])[H])C([H])([H])[H])C(C([H])([H])[H])(C([H])([H])[H])C([H])([H])[H])C([H])([H])c2c([H])c(Oc3c([H])c([H])c([H])c(C([H])([H])[N+]4([H])C([H])([H])C([H])([H])C([H])(N([H])C(=O)N5C([H])([H])C([H])([H])C([H])([H])C([H])(n6nc(-c7c([H])c([H])c(Oc8c([H])c([H])c(F)c([H])c8F)c([H])c7[H])c(C(=O)N([H])[H])c6N([H])[H])C5([H])[H])C4([H])[H])c3[H])c([H])c([H])c2C1([H])[H]

>  <smiles>  (51) 
[H]c1c([H])c([H])c2c(c1[H])C([H])([H])C([H])([H])C([H])([H])C2([H])N([H])C(=O)C1([H])N(C(=O)C([H])(N([H])C(=O)C([H])(N([H])C([H])([H])[H])C([H])([H])[H])C(C([H])([H])[H])(C([H])([H])[H])C([H])([H])[H])C([H])([H])c2c([H])c(Oc3c([H])c([H])c([H])c(C([H])([H])[N+]4([H])C([H])([H])C([H])([H])C([H])(N([H])C(=O)N5C([H])([H])C([H])([H])C([H])([H])C([H])(n6nc(-c7c([H])c([H])c(Oc8c([H])c([H])c(F)c([H])c8F)c([H])c7[H])c(C(=O)N([H])[H])c6N([H])[H])C5([H])[H])C4([H])[H])c3[H])c([H])c([H])c2C1([H])[H]

$$$$
51:0:0
     RDKit          3D

 95104  0  0  1  0  0  0  0  0999 V2000
  -28.5220  -21.2700   21.7330 C   0  0  0  0  0  1  0  0  0  0  0  0
  -29.7890  -21.9790   21.4410 N   0  0  1  0  0  4  0  0  0  0  0  0
  -29.9540  -22.5500   22.2570 H   0  0  0  0  0  0  0  0  0  0  0  0
  -31.0160  -21.0940   21.4300 C   0  0  0  0  0  2  0  0  0  0  0  0
  -30.8040  -14.8580   20.9050 C   0  0  0  0  0  0  0  0  0  0  0  0
  -30.7000  -12.5270   20.0170 C   0  0  0  0  0  2  0  0  0  0  0  0
  -29.8500  -12.4620   18.7310 C   0  0  0  0  0  2  0  0  0  0  0  0
  -28.3680  -12.2210   19.0810 C   0  0  0  0  0  2  0  0  0  0  0  0
  -27.8730  -13.1740   20.1870 C   0  0  0  0  0  3  0  0  0  0  0  0
  -28.8580  -13.2320   21.3880 C   0  0  0  0  0  2  0  0  0  0  0  0
  -30.1630  -13.6340   20.8420 N   0  0  0  0  0  0  0  0  0  0  0  0
  -32.0360  -14.8820   20.8180 O   0  0  0  0  0  0  0  0  0  0  0  0
  -30.8510  -18.8190   18.3680 C   0  0  0  0  0  3  0  0  0  0  0  0
  -31.0720  -19.9240   19.1970 C   0  0  0  0  0  3  0  0  0  0  0  0
  -30.8840  -18.4720   21.1640 C   0  0  0  0  0  3  0  0  0  0  0  0
  -30.5480  -17.5730   18.9430 C   0  0  0  0  0  0  0  0  0  0  0  0
  -30.9830  -19.7900   20.5960 C   0  0  0  0  0  0  0  0  0  0  0  0
  -30.6980  -17.3210   20.3310 C   0  0  0  0  0  0  0  0  0  0  0  0
  -29.6590  -16.6350   18.1670 C   0  0  0  0  0  2  0  0  0  0  0  0
  -28.3750  -16.4710   19.0110 C   0  0  0  0  0  2  0  0  0  0  0  0
  -28.6660  -16.2540   20.5460 C   0  0  0  0  0  2  0  0  0  0  0  0
  -30.1030  -16.0740   20.8030 N   0  0  0  0  0  0  0  0  0  0  0  0
  -25.4320  -13.8640   20.6620 C   0  0  0  0  0  0  0  0  0  0  0  0
  -24.3290  -13.1150   20.9620 C   0  0  0  0  0  0  0  0  0  0  0  0
  -24.7860  -11.7640   21.0130 C   0  0  0  0  0  0  0  0  0  0  0  0
  -26.4880  -12.9620   20.5650 N   0  0  0  0  0  0  0  0  0  0  0  0
  -26.0960  -11.7000   20.8380 N   0  0  0  0  0  0  0  0  0  0  0  0
  -24.0480  -10.5110   21.1600 C   0  0  0  0  0  0  0  0  0  0  0  0
  -24.4190   -9.5610   22.1340 C   0  0  0  0  0  3  0  0  0  0  0  0
  -23.6880   -8.3650   22.2760 C   0  0  0  0  0  3  0  0  0  0  0  0
  -22.5740   -8.1130   21.4420 C   0  0  0  0  0  0  0  0  0  0  0  0
  -22.2250   -9.0530   20.4560 C   0  0  0  0  0  3  0  0  0  0  0  0
  -22.9570  -10.2420   20.3120 C   0  0  0  0  0  3  0  0  0  0  0  0
  -21.8200   -6.9700   21.4920 O   0  0  0  0  0  0  0  0  0  0  0  0
  -21.7040   -6.2380   22.6460 C   0  0  0  0  0  0  0  0  0  0  0  0
  -21.2150   -6.8040   23.8440 C   0  0  0  0  0  3  0  0  0  0  0  0
  -21.0420   -5.9920   24.9840 C   0  0  0  0  0  3  0  0  0  0  0  0
  -21.3510   -4.6210   24.9260 C   0  0  0  0  0  0  0  0  0  0  0  0
  -21.8400   -4.0590   23.7350 C   0  0  0  0  0  3  0  0  0  0  0  0
  -22.0120   -4.8650   22.5960 C   0  0  0  0  0  0  0  0  0  0  0  0
  -22.4590   -4.3130   21.4430 F   0  0  0  0  0  0  0  0  0  0  0  0
  -21.1800   -3.8420   26.0190 F   0  0  0  0  0  0  0  0  0  0  0  0
  -22.9150  -13.6050   21.0830 C   0  0  0  0  0  0  0  0  0  0  0  0
  -22.1060  -12.9410   21.8990 N   0  0  0  0  0  0  0  0  0  0  0  0
  -22.5310  -14.6120   20.4880 O   0  0  0  0  0  0  0  0  0  0  0  0
  -22.4310  -12.1340   22.4100 H   0  0  0  0  0  0  0  0  0  0  0  0
  -21.1490  -13.2410   22.0180 H   0  0  0  0  0  0  0  0  0  0  0  0
  -25.5980  -15.2260   20.4340 N   0  0  0  0  0  0  0  0  0  0  0  0
  -24.8140  -15.8690   20.4360 H   0  0  0  0  0  0  0  0  0  0  0  0
  -26.4660  -15.6550   20.1430 H   0  0  0  0  0  0  0  0  0  0  0  0
  -29.6380  -23.0120   20.3570 C   0  0  0  0  0  2  0  0  0  0  0  0
  -30.1350  -24.9800   21.8850 C   0  0  0  0  0  1  0  0  0  0  0  0
  -29.1120  -24.4070   20.8840 C   0  0  0  0  0  3  0  0  0  0  0  0
  -28.8080  -25.4700   19.7680 C   0  0  0  0  0  2  0  0  0  0  0  0
  -28.5640  -26.8140   20.2730 O   0  0  0  0  0  0  0  0  0  0  0  0
  -24.6120  -31.9610   23.2450 C   0  0  0  0  0  0  0  0  0  0  0  0
  -27.3430  -27.4840   20.2230 C   0  0  0  0  0  0  0  0  0  0  0  0
  -23.4330  -30.5300   21.6090 C   0  0  0  0  0  3  0  0  0  0  0  0
  -24.9160  -28.9850   20.2090 C   0  0  0  0  0  0  0  0  0  0  0  0
  -25.9580  -30.9030   21.4280 C   0  0  0  0  0  2  0  0  0  0  0  0
  -26.0640  -29.5210   20.8020 C   0  0  0  0  0  0  0  0  0  0  0  0
  -27.2680  -28.7760   20.8060 C   0  0  0  0  0  3  0  0  0  0  0  0
  -26.1670  -26.9650   19.6250 C   0  0  0  0  0  3  0  0  0  0  0  0
  -24.9660  -27.7080   19.6190 C   0  0  0  0  0  3  0  0  0  0  0  0
  -23.6590  -29.8300   20.2390 C   0  0  0  0  0  2  0  0  0  0  0  0
  -24.6860  -31.1470   22.1530 N   0  0  0  0  0  0  0  0  0  0  0  0
  -23.5220  -32.2310   23.7740 O   0  0  0  0  0  0  0  0  0  0  0  0
  -22.7810  -29.5180   22.5770 C   0  0  0  0  0  0  0  0  0  0  0  0
  -21.4560  -29.3350   22.4510 N   0  0  0  0  0  0  0  0  0  0  0  0
  -23.4660  -28.8970   23.3940 O   0  0  0  0  0  0  0  0  0  0  0  0
  -20.9660  -29.8890   21.7620 H   0  0  0  0  0  0  0  0  0  0  0  0
  -18.0830  -28.1410   22.9610 C   0  0  0  0  0  0  0  0  0  0  0  0
  -20.6410  -28.3980   23.2250 C   0  0  0  0  0  3  0  0  0  0  0  0
  -20.7420  -26.9680   22.6490 C   0  0  0  0  0  2  0  0  0  0  0  0
  -19.6370  -26.6450   21.6370 C   0  0  0  0  0  2  0  0  0  0  0  0
  -18.2580  -26.7900   22.2840 C   0  0  0  0  0  2  0  0  0  0  0  0
  -19.2030  -28.9020   23.3870 C   0  0  0  0  0  0  0  0  0  0  0  0
  -18.9870  -30.1680   23.9770 C   0  0  0  0  0  3  0  0  0  0  0  0
  -17.6840  -30.6690   24.1460 C   0  0  0  0  0  3  0  0  0  0  0  0
  -16.5780  -29.9050   23.7370 C   0  0  0  0  0  3  0  0  0  0  0  0
  -16.7790  -28.6420   23.1490 C   0  0  0  0  0  3  0  0  0  0  0  0
  -25.8850  -32.6120   23.8710 C   0  0  0  0  0  3  0  0  0  0  0  0
  -26.4050  -31.8540   25.1540 C   0  0  1  0  0  0  0  0  0  0  0  0
  -25.3090  -31.6100   26.2180 C   0  0  0  0  0  1  0  0  0  0  0  0
  -27.0080  -30.4820   24.7720 C   0  0  0  0  0  1  0  0  0  0  0  0
  -27.5440  -32.6650   25.8160 C   0  0  0  0  0  1  0  0  0  0  0  0
  -25.5600  -34.0090   24.1920 N   0  0  0  0  0  0  0  0  0  0  0  0
  -25.8960  -35.0610   23.4330 C   0  0  0  0  0  0  0  0  0  0  0  0
  -26.5820  -34.9590   22.4130 O   0  0  0  0  0  0  0  0  0  0  0  0
  -24.9510  -34.1620   24.9820 H   0  0  0  0  0  0  0  0  0  0  0  0
  -24.1620  -36.8390   23.0430 C   0  0  0  0  0  1  0  0  0  0  0  0
  -25.3920  -36.4480   23.8770 C   0  0  0  0  0  3  0  0  0  0  0  0
  -27.5090  -37.3490   24.7340 C   0  0  0  0  0  1  0  0  0  0  0  0
  -26.4190  -37.5080   23.7750 N   0  0  0  0  0  0  0  0  0  0  0  0
  -26.0060  -38.4260   23.9140 H   0  0  0  0  0  0  0  0  0  0  0  0
  2  1  1  0
  2  3  1  1
  4  2  1  0
  6 11  1  0
  7  8  1  0
  7  6  1  0
  9  8  1  0
  9 26  1  0
  9 10  1  0
 11  5  1  0
 11 10  1  0
 12  5  2  0
 13 16  2  0
 13 14  1  0
 14 17  2  0
 16 18  1  0
 17 15  1  0
 17  4  1  0
 18 22  1  0
 18 15  2  0
 19 16  1  0
 19 20  1  0
 20 21  1  0
 21 22  1  0
 22  5  1  0
 23 24  2  0
 24 25  1  0
 24 43  1  0
 25 28  1  0
 26 23  1  0
 26 27  1  0
 27 25  2  0
 28 29  1  0
 29 30  2  0
 31 34  1  0
 31 30  1  0
 32 31  2  0
 33 32  1  0
 33 28  2  0
 34 35  1  0
 35 36  1  0
 36 37  2  0
 38 37  1  0
 38 42  1  0
 39 38  2  0
 40 35  2  0
 40 39  1  0
 41 40  1  0
 43 44  1  0
 44 47  1  0
 44 46  1  0
 45 43  2  0
 48 49  1  0
 48 23  1  0
 50 48  1  0
 51 53  1  0
 51  2  1  0
 53 52  1  0
 54 55  1  0
 54 53  1  0
 56 67  2  0
 57 55  1  0
 57 62  1  0
 58 66  1  0
 58 68  1  0
 59 65  1  0
 59 61  1  0
 60 66  1  0
 61 62  2  0
 61 60  1  0
 63 57  2  0
 64 63  1  0
 64 59  2  0
 65 58  1  0
 66 56  1  0
 68 70  2  0
 69 68  1  0
 71 69  1  0
 72 81  2  0
 72 77  1  0
 73 69  1  0
 73 77  1  0
 74 73  1  0
 75 76  1  0
 75 74  1  0
 76 72  1  0
 77 78  2  0
 78 79  1  0
 80 79  2  0
 81 80  1  0
 82 56  1  0
 82 87  1  0
 82 83  1  0
 83 86  1  1
 83 84  1  0
 85 83  1  0
 87 90  1  0
 88 92  1  0
 88 87  1  0
 89 88  2  0
 92 91  1  0
 94 92  1  0
 94 95  1  0
 94 93  1  0
M  ISO  4   5 100  22 100  54 101  55 101
M  END
>  <TORSDO>  (52) 
F 20

>  <SCORE>  (52) 
-13.342

>  <name>  (52) 
51

>  <ligand_id>  (52) 
51

>  <original_smiles>  (52) 
[H]c1c([H])c([H])c2c(c1[H])C([H])([H])C([H])([H])C([H])([H])C2([H])N([H])C(=O)C1([H])N(C(=O)C([H])(N([H])C(=O)C([H])(N([H])C([H])([H])[H])C([H])([H])[H])C(C([H])([H])[H])(C([H])([H])[H])C([H])([H])[H])C([H])([H])c2c([H])c(OC([H])([H])C([H])(C([H])([H])[H])C([H])([H])[N+]([H])(C([H])([H])[H])C([H])([H])c3c([H])c([H])c4c(c3[H])N(C(=O)N3C([H])([H])C([H])([H])C([H])([H])C([H])(n5nc(-c6c([H])c([H])c(Oc7c([H])c([H])c(F)c([H])c7F)c([H])c6[H])c(C(=O)N([H])[H])c5N([H])[H])C3([H])[H])C([H])([H])C([H])([H])C4([H])[H])c([H])c([H])c2C1([H])[H]

>  <smiles>  (52) 
[H]c1c([H])c([H])c2c(c1[H])C([H])([H])C([H])([H])C([H])([H])C2([H])N([H])C(=O)C1([H])N(C(=O)C([H])(N([H])C(=O)C([H])(N([H])C([H])([H])[H])C([H])([H])[H])C(C([H])([H])[H])(C([H])([H])[H])C([H])([H])[H])C([H])([H])c2c([H])c(OC([H])([H])C([H])(C([H])([H])[H])C([H])([H])[N+]([H])(C([H])([H])[H])C([H])([H])c3c([H])c([H])c4c(c3[H])N(C(=O)N3C([H])([H])C([H])([H])C([H])([H])C([H])(n5nc(-c6c([H])c([H])c(Oc7c([H])c([H])c(F)c([H])c7F)c([H])c6[H])c(C(=O)N([H])[H])c5N([H])[H])C3([H])[H])C([H])([H])C([H])([H])C4([H])[H])c([H])c([H])c2C1([H])[H]

$$$$
52:0:0
     RDKit          3D

 92100  0  0  1  0  0  0  0  0999 V2000
  -30.8070  -21.9950   19.5030 C   0  0  0  0  0  1  0  0  0  0  0  0
  -30.1750  -22.1690   20.8340 N   0  0  1  0  0  4  0  0  0  0  0  0
  -29.1860  -22.0150   20.7030 H   0  0  0  0  0  0  0  0  0  0  0  0
  -30.6310  -21.1460   21.8250 C   0  0  0  0  0  2  0  0  0  0  0  0
  -29.3120  -19.0150   21.2910 C   0  0  0  0  0  3  0  0  0  0  0  0
  -31.7390  -18.8970   21.2870 C   0  0  0  0  0  3  0  0  0  0  0  0
  -29.2520  -17.6200   21.0820 C   0  0  0  0  0  3  0  0  0  0  0  0
  -31.6790  -17.5000   21.0720 C   0  0  0  0  0  3  0  0  0  0  0  0
  -30.5580  -19.6670   21.4180 C   0  0  0  0  0  0  0  0  0  0  0  0
  -30.4290  -16.8430   20.9810 C   0  0  0  0  0  0  0  0  0  0  0  0
  -30.9880  -14.5010   20.1870 C   0  0  0  0  0  0  0  0  0  0  0  0
  -30.6590  -12.3930   18.9330 C   0  0  0  0  0  2  0  0  0  0  0  0
  -29.6760  -12.6540   17.7700 C   0  0  0  0  0  2  0  0  0  0  0  0
  -28.2100  -12.5330   18.2380 C   0  0  0  0  0  2  0  0  0  0  0  0
  -27.9320  -13.3180   19.5470 C   0  0  0  0  0  3  0  0  0  0  0  0
  -29.0100  -12.9970   20.6050 C   0  0  0  0  0  2  0  0  0  0  0  0
  -30.3250  -13.3230   20.0220 N   0  0  0  0  0  0  0  0  0  0  0  0
  -32.0890  -14.7250   19.6720 O   0  0  0  0  0  0  0  0  0  0  0  0
  -30.2740  -15.4280   20.8600 N   0  0  0  0  0  0  0  0  0  0  0  0
  -29.3920  -15.0690   21.1930 H   0  0  0  0  0  0  0  0  0  0  0  0
  -25.5580  -13.9600   20.3110 C   0  0  0  0  0  0  0  0  0  0  0  0
  -24.4890  -13.2010   20.7060 C   0  0  0  0  0  0  0  0  0  0  0  0
  -24.9300  -11.8430   20.6590 C   0  0  0  0  0  0  0  0  0  0  0  0
  -26.5840  -13.0650   20.0530 N   0  0  0  0  0  0  0  0  0  0  0  0
  -26.2110  -11.7860   20.3170 N   0  0  0  0  0  0  0  0  0  0  0  0
  -24.1930  -10.5900   20.8620 C   0  0  0  0  0  0  0  0  0  0  0  0
  -24.5930   -9.6500   21.8390 C   0  0  0  0  0  3  0  0  0  0  0  0
  -23.8580   -8.4590   22.0270 C   0  0  0  0  0  3  0  0  0  0  0  0
  -22.7120   -8.2010   21.2390 C   0  0  0  0  0  0  0  0  0  0  0  0
  -22.3320   -9.1300   20.2550 C   0  0  0  0  0  3  0  0  0  0  0  0
  -23.0660  -10.3110   20.0640 C   0  0  0  0  0  3  0  0  0  0  0  0
  -21.9520   -7.0600   21.3360 O   0  0  0  0  0  0  0  0  0  0  0  0
  -21.7950   -6.3980   22.5270 C   0  0  0  0  0  0  0  0  0  0  0  0
  -21.2320   -7.0260   23.6590 C   0  0  0  0  0  3  0  0  0  0  0  0
  -21.0250   -6.2890   24.8420 C   0  0  0  0  0  3  0  0  0  0  0  0
  -21.3680   -4.9240   24.8930 C   0  0  0  0  0  0  0  0  0  0  0  0
  -21.9230   -4.2970   23.7640 C   0  0  0  0  0  3  0  0  0  0  0  0
  -22.1330   -5.0310   22.5830 C   0  0  0  0  0  0  0  0  0  0  0  0
  -22.6480   -4.4150   21.4920 F   0  0  0  0  0  0  0  0  0  0  0  0
  -21.1620   -4.2140   26.0260 F   0  0  0  0  0  0  0  0  0  0  0  0
  -23.1050  -13.6940   21.0150 C   0  0  0  0  0  0  0  0  0  0  0  0
  -22.3910  -13.0050   21.8990 N   0  0  0  0  0  0  0  0  0  0  0  0
  -22.6660  -14.7270   20.5090 O   0  0  0  0  0  0  0  0  0  0  0  0
  -22.7600  -12.1710   22.3300 H   0  0  0  0  0  0  0  0  0  0  0  0
  -21.4630  -13.3180   22.1470 H   0  0  0  0  0  0  0  0  0  0  0  0
  -25.7380  -15.3280   20.1310 N   0  0  0  0  0  0  0  0  0  0  0  0
  -24.9790  -15.9920   20.2420 H   0  0  0  0  0  0  0  0  0  0  0  0
  -26.5710  -15.7450   19.7340 H   0  0  0  0  0  0  0  0  0  0  0  0
  -30.3470  -23.5430   21.4160 C   0  0  0  0  0  2  0  0  0  0  0  0
  -30.1170  -24.7950   20.5120 C   0  0  0  0  0  2  0  0  0  0  0  0
  -28.6670  -25.3050   20.3550 C   0  0  0  0  0  2  0  0  0  0  0  0
  -28.6980  -26.7210   20.1100 O   0  0  0  0  0  0  0  0  0  0  0  0
  -24.6970  -31.7540   23.1720 C   0  0  0  0  0  0  0  0  0  0  0  0
  -27.4940  -27.3950   20.1090 C   0  0  0  0  0  0  0  0  0  0  0  0
  -23.5470  -30.3310   21.5080 C   0  0  0  0  0  3  0  0  0  0  0  0
  -25.0570  -28.8340   20.0990 C   0  0  0  0  0  0  0  0  0  0  0  0
  -26.0640  -30.7570   21.3400 C   0  0  0  0  0  2  0  0  0  0  0  0
  -26.1940  -29.3920   20.6960 C   0  0  0  0  0  0  0  0  0  0  0  0
  -27.4170  -28.6810   20.6920 C   0  0  0  0  0  3  0  0  0  0  0  0
  -26.3350  -26.8460   19.5120 C   0  0  0  0  0  3  0  0  0  0  0  0
  -25.1220  -27.5600   19.5060 C   0  0  0  0  0  3  0  0  0  0  0  0
  -23.7920  -29.6620   20.1300 C   0  0  0  0  0  2  0  0  0  0  0  0
  -24.7870  -30.9610   22.0660 N   0  0  0  0  0  0  0  0  0  0  0  0
  -23.6040  -31.9970   23.7010 O   0  0  0  0  0  0  0  0  0  0  0  0
  -22.9090  -29.2890   22.4560 C   0  0  0  0  0  0  0  0  0  0  0  0
  -21.5940  -29.0690   22.3040 N   0  0  0  0  0  0  0  0  0  0  0  0
  -23.5960  -28.6830   23.2820 O   0  0  0  0  0  0  0  0  0  0  0  0
  -21.1010  -29.6120   21.6090 H   0  0  0  0  0  0  0  0  0  0  0  0
  -18.2490  -27.7720   22.7270 C   0  0  0  0  0  0  0  0  0  0  0  0
  -20.7910  -28.1060   23.0560 C   0  0  0  0  0  3  0  0  0  0  0  0
  -20.9490  -26.6790   22.4820 C   0  0  0  0  0  2  0  0  0  0  0  0
  -19.8800  -26.3250   21.4440 C   0  0  0  0  0  2  0  0  0  0  0  0
  -18.4810  -26.4280   22.0570 C   0  0  0  0  0  2  0  0  0  0  0  0
  -19.3340  -28.5660   23.1830 C   0  0  0  0  0  0  0  0  0  0  0  0
  -19.0650  -29.8220   23.7670 C   0  0  0  0  0  3  0  0  0  0  0  0
  -17.7440  -30.2870   23.9020 C   0  0  0  0  0  3  0  0  0  0  0  0
  -16.6720  -29.4890   23.4650 C   0  0  0  0  0  3  0  0  0  0  0  0
  -16.9250  -28.2330   22.8840 C   0  0  0  0  0  3  0  0  0  0  0  0
  -25.9600  -32.4130   23.8100 C   0  0  0  0  0  3  0  0  0  0  0  0
  -25.6100  -33.7970   24.1540 N   0  0  0  0  0  0  0  0  0  0  0  0
  -25.9140  -34.8670   23.4060 C   0  0  0  0  0  0  0  0  0  0  0  0
  -26.5890  -34.7940   22.3770 O   0  0  0  0  0  0  0  0  0  0  0  0
  -25.0050  -33.9250   24.9530 H   0  0  0  0  0  0  0  0  0  0  0  0
  -24.1280  -36.6050   23.0730 C   0  0  0  0  0  1  0  0  0  0  0  0
  -25.3840  -36.2360   23.8760 C   0  0  0  0  0  3  0  0  0  0  0  0
  -27.4910  -37.1840   24.7100 C   0  0  0  0  0  1  0  0  0  0  0  0
  -26.3840  -37.3210   23.7680 N   0  0  0  0  0  0  0  0  0  0  0  0
  -25.9490  -38.2260   23.9230 H   0  0  0  0  0  0  0  0  0  0  0  0
  -26.4900  -31.6390   25.0800 C   0  0  1  0  0  0  0  0  0  0  0  0
  -25.3960  -31.3520   26.1330 C   0  0  0  0  0  1  0  0  0  0  0  0
  -27.1160  -30.2860   24.6670 C   0  0  0  0  0  1  0  0  0  0  0  0
  -27.6090  -32.4580   25.7650 C   0  0  0  0  0  1  0  0  0  0  0  0
  1  2  1  0
  2 49  1  0
  2  4  1  0
  2  3  1  6
  5  9  1  0
  6  9  2  0
  7  5  2  0
  8  6  1  0
  9  4  1  0
 10  8  2  0
 10  7  1  0
 11 19  1  0
 12 17  1  0
 13 14  1  0
 13 12  1  0
 15 14  1  0
 15 24  1  0
 15 16  1  0
 17 11  1  0
 17 16  1  0
 18 11  2  0
 19 10  1  0
 19 20  1  0
 21 22  2  0
 22 41  1  0
 23 22  1  0
 23 26  1  0
 24 21  1  0
 24 25  1  0
 25 23  2  0
 26 27  1  0
 27 28  2  0
 29 32  1  0
 29 28  1  0
 30 29  2  0
 31 30  1  0
 31 26  2  0
 32 33  1  0
 33 38  2  0
 33 34  1  0
 34 35  2  0
 35 36  1  0
 36 40  1  0
 37 36  2  0
 38 37  1  0
 39 38  1  0
 41 42  1  0
 42 45  1  0
 42 44  1  0
 43 41  2  0
 46 47  1  0
 46 21  1  0
 48 46  1  0
 50 49  1  0
 51 50  1  0
 52 51  1  0
 53 64  2  0
 54 52  1  0
 54 59  1  0
 55 63  1  0
 55 65  1  0
 56 62  1  0
 56 58  1  0
 57 63  1  0
 58 57  1  0
 59 58  2  0
 60 54  2  0
 61 60  1  0
 61 56  2  0
 62 55  1  0
 63 53  1  0
 65 67  2  0
 66 65  1  0
 68 66  1  0
 69 78  2  0
 69 74  1  0
 70 66  1  0
 70 74  1  0
 71 70  1  0
 72 73  1  0
 72 71  1  0
 73 69  1  0
 74 75  2  0
 75 76  1  0
 77 76  2  0
 78 77  1  0
 79 53  1  0
 79 80  1  0
 79 89  1  0
 80 83  1  0
 81 85  1  0
 81 80  1  0
 82 81  2  0
 85 84  1  0
 87 85  1  0
 87 88  1  0
 87 86  1  0
 89 92  1  1
 89 90  1  0
 91 89  1  0
M  ISO  4  11 100  19 100  51 101  52 101
M  END
>  <TORSDO>  (53) 
F 21

>  <SCORE>  (53) 
-12.816

>  <name>  (53) 
52

>  <ligand_id>  (53) 
52

>  <original_smiles>  (53) 
[H]c1c([H])c([H])c2c(c1[H])C([H])([H])C([H])([H])C([H])([H])C2([H])N([H])C(=O)C1([H])N(C(=O)C([H])(N([H])C(=O)C([H])(N([H])C([H])([H])[H])C([H])([H])[H])C(C([H])([H])[H])(C([H])([H])[H])C([H])([H])[H])C([H])([H])c2c([H])c(OC([H])([H])C([H])([H])C([H])([H])[N+]([H])(C([H])([H])[H])C([H])([H])c3c([H])c([H])c(N([H])C(=O)N4C([H])([H])C([H])([H])C([H])([H])C([H])(n5nc(-c6c([H])c([H])c(Oc7c([H])c([H])c(F)c([H])c7F)c([H])c6[H])c(C(=O)N([H])[H])c5N([H])[H])C4([H])[H])c([H])c3[H])c([H])c([H])c2C1([H])[H]

>  <smiles>  (53) 
[H]c1c([H])c([H])c2c(c1[H])C([H])([H])C([H])([H])C([H])([H])C2([H])N([H])C(=O)C1([H])N(C(=O)C([H])(N([H])C(=O)C([H])(N([H])C([H])([H])[H])C([H])([H])[H])C(C([H])([H])[H])(C([H])([H])[H])C([H])([H])[H])C([H])([H])c2c([H])c(OC([H])([H])C([H])([H])C([H])([H])[N+]([H])(C([H])([H])[H])C([H])([H])c3c([H])c([H])c(N([H])C(=O)N4C([H])([H])C([H])([H])C([H])([H])C([H])(n5nc(-c6c([H])c([H])c(Oc7c([H])c([H])c(F)c([H])c7F)c([H])c6[H])c(C(=O)N([H])[H])c5N([H])[H])C4([H])[H])c([H])c3[H])c([H])c([H])c2C1([H])[H]

$$$$
53:0:0
     RDKit          3D

 91 99  0  0  1  0  0  0  0  0999 V2000
  -30.3470  -19.1690   19.1260 C   0  0  0  0  0  3  0  0  0  0  0  0
  -30.2700  -20.5900   19.0540 C   0  0  0  0  0  3  0  0  0  0  0  0
  -29.3630  -18.3940   19.7870 C   0  0  0  0  0  0  0  0  0  0  0  0
  -29.2210  -21.3500   19.6350 C   0  0  0  0  0  0  0  0  0  0  0  0
  -28.3240  -19.1470   20.4180 C   0  0  0  0  0  0  0  0  0  0  0  0
  -28.2530  -20.5850   20.3530 C   0  0  0  0  0  0  0  0  0  0  0  0
  -27.3390  -18.4780   21.0640 F   0  0  0  0  0  0  0  0  0  0  0  0
  -27.2200  -21.2160   20.9600 F   0  0  0  0  0  0  0  0  0  0  0  0
  -29.3280  -16.8140   19.6110 C   0  0  0  0  0  2  0  0  0  0  0  0
  -30.7190  -14.7010   19.9690 C   0  0  0  0  0  0  0  0  0  0  0  0
  -30.3880  -12.4480   18.9530 C   0  0  0  0  0  2  0  0  0  0  0  0
  -29.3990  -12.5510   17.7730 C   0  0  0  0  0  2  0  0  0  0  0  0
  -27.9480  -12.4170   18.2760 C   0  0  0  0  0  2  0  0  0  0  0  0
  -27.6550  -13.3140   19.5090 C   0  0  0  0  0  3  0  0  0  0  0  0
  -28.7610  -13.1990   20.5780 C   0  0  0  0  0  2  0  0  0  0  0  0
  -30.0370  -13.5080   19.9220 N   0  0  0  0  0  0  0  0  0  0  0  0
  -31.8590  -14.7840   19.5020 O   0  0  0  0  0  0  0  0  0  0  0  0
  -30.7100  -16.4620   21.6370 C   0  0  0  0  0  1  0  0  0  0  0  0
  -30.0920  -15.8300   20.4720 N   0  0  0  0  0  0  0  0  0  0  0  0
  -25.3200  -13.9550   20.3600 C   0  0  0  0  0  0  0  0  0  0  0  0
  -24.2560  -13.2020   20.7750 C   0  0  0  0  0  0  0  0  0  0  0  0
  -24.6850  -11.8400   20.7060 C   0  0  0  0  0  0  0  0  0  0  0  0
  -26.3300  -13.0530   20.0630 N   0  0  0  0  0  0  0  0  0  0  0  0
  -25.9570  -11.7760   20.3330 N   0  0  0  0  0  0  0  0  0  0  0  0
  -23.9400  -10.5930   20.9190 C   0  0  0  0  0  0  0  0  0  0  0  0
  -24.3900   -9.6090   21.8250 C   0  0  0  0  0  3  0  0  0  0  0  0
  -23.6440   -8.4280   22.0280 C   0  0  0  0  0  3  0  0  0  0  0  0
  -22.4350   -8.2230   21.3230 C   0  0  0  0  0  0  0  0  0  0  0  0
  -22.0030   -9.1950   20.4040 C   0  0  0  0  0  3  0  0  0  0  0  0
  -22.7480  -10.3680   20.2010 C   0  0  0  0  0  3  0  0  0  0  0  0
  -21.6580   -7.0940   21.4360 O   0  0  0  0  0  0  0  0  0  0  0  0
  -21.6410   -6.3440   22.5850 C   0  0  0  0  0  0  0  0  0  0  0  0
  -21.2770   -6.8980   23.8320 C   0  0  0  0  0  3  0  0  0  0  0  0
  -21.2060   -6.0760   24.9730 C   0  0  0  0  0  3  0  0  0  0  0  0
  -21.4890   -4.7010   24.8700 C   0  0  0  0  0  0  0  0  0  0  0  0
  -21.8460   -4.1470   23.6280 C   0  0  0  0  0  3  0  0  0  0  0  0
  -21.9190   -4.9670   22.4890 C   0  0  0  0  0  0  0  0  0  0  0  0
  -22.2440   -4.4230   21.2900 F   0  0  0  0  0  0  0  0  0  0  0  0
  -21.4140   -3.9090   25.9650 F   0  0  0  0  0  0  0  0  0  0  0  0
  -22.8870  -13.7090   21.1220 C   0  0  0  0  0  0  0  0  0  0  0  0
  -22.1910  -13.0270   22.0240 N   0  0  0  0  0  0  0  0  0  0  0  0
  -22.4450  -14.7460   20.6260 O   0  0  0  0  0  0  0  0  0  0  0  0
  -22.5600  -12.1880   22.4460 H   0  0  0  0  0  0  0  0  0  0  0  0
  -21.2740  -13.3520   22.2970 H   0  0  0  0  0  0  0  0  0  0  0  0
  -25.5060  -15.3220   20.1880 N   0  0  0  0  0  0  0  0  0  0  0  0
  -24.7640  -15.9920   20.3630 H   0  0  0  0  0  0  0  0  0  0  0  0
  -26.3520  -15.7510   19.8390 H   0  0  0  0  0  0  0  0  0  0  0  0
  -29.2600  -22.7500   19.4050 O   0  0  0  0  0  0  0  0  0  0  0  0
  -28.3760  -23.7870   19.9650 C   0  0  0  0  0  2  0  0  0  0  0  0
  -28.5530  -25.2040   19.2220 C   0  0  0  0  0  2  0  0  0  0  0  0
  -28.4440  -26.5280   19.8910 O   0  0  0  0  0  0  0  0  0  0  0  0
  -24.6690  -31.7720   23.0830 C   0  0  0  0  0  0  0  0  0  0  0  0
  -27.2930  -27.3310   19.8550 C   0  0  0  0  0  0  0  0  0  0  0  0
  -23.4580  -30.4040   21.4230 C   0  0  0  0  0  3  0  0  0  0  0  0
  -24.9030  -28.9110   19.9290 C   0  0  0  0  0  0  0  0  0  0  0  0
  -25.9880  -30.7600   21.2070 C   0  0  0  0  0  2  0  0  0  0  0  0
  -26.0730  -29.4000   20.5220 C   0  0  0  0  0  0  0  0  0  0  0  0
  -27.2660  -28.6200   20.4780 C   0  0  0  0  0  3  0  0  0  0  0  0
  -26.0960  -26.8890   19.2490 C   0  0  0  0  0  3  0  0  0  0  0  0
  -24.9170  -27.6610   19.2860 C   0  0  0  0  0  3  0  0  0  0  0  0
  -23.6560  -29.7650   20.0210 C   0  0  0  0  0  2  0  0  0  0  0  0
  -24.7250  -30.9960   21.9610 N   0  0  0  0  0  0  0  0  0  0  0  0
  -23.5920  -32.0200   23.6430 O   0  0  0  0  0  0  0  0  0  0  0  0
  -22.8240  -29.3530   22.3660 C   0  0  0  0  0  0  0  0  0  0  0  0
  -21.4950  -29.1800   22.2730 N   0  0  0  0  0  0  0  0  0  0  0  0
  -23.5270  -28.6970   23.1390 O   0  0  0  0  0  0  0  0  0  0  0  0
  -20.9870  -29.7630   21.6230 H   0  0  0  0  0  0  0  0  0  0  0  0
  -18.1310  -27.9810   22.8500 C   0  0  0  0  0  0  0  0  0  0  0  0
  -20.7000  -28.2130   23.0310 C   0  0  0  0  0  3  0  0  0  0  0  0
  -20.7690  -26.8080   22.3890 C   0  0  0  0  0  2  0  0  0  0  0  0
  -19.6260  -26.5380   21.4050 C   0  0  0  0  0  2  0  0  0  0  0  0
  -18.2710  -26.6620   22.1080 C   0  0  0  0  0  2  0  0  0  0  0  0
  -19.2710  -28.7170   23.2690 C   0  0  0  0  0  0  0  0  0  0  0  0
  -19.0850  -29.9530   23.9250 C   0  0  0  0  0  3  0  0  0  0  0  0
  -17.7910  -30.4550   24.1620 C   0  0  0  0  0  3  0  0  0  0  0  0
  -16.6660  -29.7160   23.7570 C   0  0  0  0  0  3  0  0  0  0  0  0
  -16.8370  -28.4790   23.1080 C   0  0  0  0  0  3  0  0  0  0  0  0
  -25.9530  -32.4050   23.7050 C   0  0  0  0  0  3  0  0  0  0  0  0
  -26.4950  -31.6080   24.9540 C   0  0  1  0  0  0  0  0  0  0  0  0
  -25.4200  -31.3320   26.0330 C   0  0  0  0  0  1  0  0  0  0  0  0
  -27.0840  -30.2470   24.5210 C   0  0  0  0  0  1  0  0  0  0  0  0
  -27.6510  -32.3960   25.6160 C   0  0  0  0  0  1  0  0  0  0  0  0
  -25.6300  -33.7900   24.0770 N   0  0  0  0  0  0  0  0  0  0  0  0
  -25.9360  -34.8670   23.3400 C   0  0  0  0  0  0  0  0  0  0  0  0
  -26.5880  -34.7990   22.2960 O   0  0  0  0  0  0  0  0  0  0  0  0
  -25.0450  -33.9150   24.8900 H   0  0  0  0  0  0  0  0  0  0  0  0
  -24.1750  -36.6440   23.0710 C   0  0  0  0  0  1  0  0  0  0  0  0
  -25.4410  -36.2380   23.8430 C   0  0  0  0  0  3  0  0  0  0  0  0
  -27.5820  -37.1330   24.6470 C   0  0  0  0  0  1  0  0  0  0  0  0
  -26.4570  -37.3080   23.7310 N   0  0  0  0  0  0  0  0  0  0  0  0
  -26.0420  -38.2190   23.9080 H   0  0  0  0  0  0  0  0  0  0  0  0
  1  3  1  0
  2  1  2  0
  2  4  1  0
  3  5  2  0
  4  6  2  0
  5  7  1  0
  6  5  1  0
  6  8  1  0
  9  3  1  0
  9 19  1  0
 10 19  1  0
 11 16  1  0
 12 13  1  0
 12 11  1  0
 14 13  1  0
 14 23  1  0
 14 15  1  0
 16 10  1  0
 16 15  1  0
 17 10  2  0
 19 18  1  0
 20 21  2  0
 21 40  1  0
 22 21  1  0
 22 25  1  0
 23 24  1  0
 23 20  1  0
 24 22  2  0
 25 26  1  0
 26 27  2  0
 28 31  1  0
 28 27  1  0
 29 28  2  0
 30 29  1  0
 30 25  2  0
 31 32  1  0
 32 33  1  0
 33 34  2  0
 35 34  1  0
 35 39  1  0
 36 35  2  0
 37 32  2  0
 37 36  1  0
 38 37  1  0
 40 41  1  0
 41 44  1  0
 41 43  1  0
 42 40  2  0
 45 20  1  0
 45 46  1  0
 47 45  1  0
 48  4  1  0
 48 49  1  0
 50 51  1  0
 50 49  1  0
 52 63  2  0
 53 51  1  0
 53 58  1  0
 54 62  1  0
 54 64  1  0
 55 61  1  0
 55 57  1  0
 56 62  1  0
 57 56  1  0
 58 57  2  0
 59 60  1  0
 59 53  2  0
 60 55  2  0
 61 54  1  0
 62 52  1  0
 64 66  2  0
 65 64  1  0
 67 65  1  0
 68 77  2  0
 68 73  1  0
 69 65  1  0
 69 73  1  0
 70 69  1  0
 71 72  1  0
 71 70  1  0
 72 68  1  0
 73 74  2  0
 74 75  1  0
 76 75  2  0
 77 76  1  0
 78 52  1  0
 78 83  1  0
 78 79  1  0
 79 82  1  1
 79 80  1  0
 81 79  1  0
 83 86  1  0
 84 88  1  0
 84 83  1  0
 85 84  2  0
 88 87  1  0
 90 88  1  0
 90 91  1  0
 90 89  1  0
M  ISO  4  10 100  19 100  50 101  51 101
M  END
>  <TORSDO>  (54) 
F 20

>  <SCORE>  (54) 
-13.277

>  <name>  (54) 
53

>  <ligand_id>  (54) 
53

>  <original_smiles>  (54) 
[H]c1c([H])c([H])c2c(c1[H])C([H])([H])C([H])([H])C([H])([H])C2([H])N([H])C(=O)C1([H])N(C(=O)C([H])(N([H])C(=O)C([H])(N([H])C([H])([H])[H])C([H])([H])[H])C(C([H])([H])[H])(C([H])([H])[H])C([H])([H])[H])C([H])([H])c2c([H])c(OC([H])([H])C([H])([H])Oc3c([H])c([H])c(C([H])([H])N(C(=O)N4C([H])([H])C([H])([H])C([H])([H])C([H])(n5nc(-c6c([H])c([H])c(Oc7c([H])c([H])c(F)c([H])c7F)c([H])c6[H])c(C(=O)N([H])[H])c5N([H])[H])C4([H])[H])C([H])([H])[H])c(F)c3F)c([H])c([H])c2C1([H])[H]

>  <smiles>  (54) 
[H]c1c([H])c([H])c2c(c1[H])C([H])([H])C([H])([H])C([H])([H])C2([H])N([H])C(=O)C1([H])N(C(=O)C([H])(N([H])C(=O)C([H])(N([H])C([H])([H])[H])C([H])([H])[H])C(C([H])([H])[H])(C([H])([H])[H])C([H])([H])[H])C([H])([H])c2c([H])c(OC([H])([H])C([H])([H])Oc3c([H])c([H])c(C([H])([H])N(C(=O)N4C([H])([H])C([H])([H])C([H])([H])C([H])(n5nc(-c6c([H])c([H])c(Oc7c([H])c([H])c(F)c([H])c7F)c([H])c6[H])c(C(=O)N([H])[H])c5N([H])[H])C4([H])[H])C([H])([H])[H])c(F)c3F)c([H])c([H])c2C1([H])[H]

$$$$
54:0:0
     RDKit          3D

 93101  0  0  1  0  0  0  0  0999 V2000
  -29.2540  -21.1640   20.9130 C   0  0  0  0  0  2  0  0  0  0  0  0
  -31.2930  -17.6280   19.1290 C   0  0  0  0  0  3  0  0  0  0  0  0
  -31.6270  -18.9530   18.7910 C   0  0  0  0  0  3  0  0  0  0  0  0
  -29.8970  -19.8580   20.2730 C   0  0  0  0  0  0  0  0  0  0  0  0
  -30.2790  -17.3260   20.0730 C   0  0  0  0  0  0  0  0  0  0  0  0
  -30.9530  -20.0460   19.3590 C   0  0  0  0  0  0  0  0  0  0  0  0
  -29.5750  -18.4770   20.6220 C   0  0  0  0  0  0  0  0  0  0  0  0
  -31.3320  -21.3040   19.0210 F   0  0  0  0  0  0  0  0  0  0  0  0
  -28.5840  -18.2480   21.5180 F   0  0  0  0  0  0  0  0  0  0  0  0
  -30.6580  -14.7450   20.0850 C   0  0  0  0  0  0  0  0  0  0  0  0
  -30.3410  -12.5170   19.0150 C   0  0  0  0  0  2  0  0  0  0  0  0
  -29.3630  -12.6630   17.8300 C   0  0  0  0  0  2  0  0  0  0  0  0
  -27.9080  -12.5020   18.3100 C   0  0  0  0  0  2  0  0  0  0  0  0
  -27.6000  -13.3420   19.5770 C   0  0  0  0  0  3  0  0  0  0  0  0
  -28.7020  -13.2090   20.6510 C   0  0  0  0  0  2  0  0  0  0  0  0
  -29.9820  -13.5480   20.0170 N   0  0  0  0  0  0  0  0  0  0  0  0
  -31.8340  -14.7870   19.7140 O   0  0  0  0  0  0  0  0  0  0  0  0
  -29.9640  -15.9070   20.3970 N   0  0  0  0  0  0  0  0  0  0  0  0
  -29.0600  -15.7600   20.8210 H   0  0  0  0  0  0  0  0  0  0  0  0
  -25.2410  -13.9230   20.3980 C   0  0  0  0  0  0  0  0  0  0  0  0
  -24.1920  -13.1440   20.8030 C   0  0  0  0  0  0  0  0  0  0  0  0
  -24.6570  -11.7940   20.7470 C   0  0  0  0  0  0  0  0  0  0  0  0
  -26.2770  -13.0480   20.1170 N   0  0  0  0  0  0  0  0  0  0  0  0
  -25.9360  -11.7620   20.3910 N   0  0  0  0  0  0  0  0  0  0  0  0
  -23.9390  -10.5290   20.9560 C   0  0  0  0  0  0  0  0  0  0  0  0
  -24.3960   -9.5650   21.8810 C   0  0  0  0  0  3  0  0  0  0  0  0
  -23.6790   -8.3640   22.0770 C   0  0  0  0  0  3  0  0  0  0  0  0
  -22.4910   -8.1200   21.3490 C   0  0  0  0  0  0  0  0  0  0  0  0
  -22.0540   -9.0730   20.4120 C   0  0  0  0  0  3  0  0  0  0  0  0
  -22.7700  -10.2650   20.2140 C   0  0  0  0  0  3  0  0  0  0  0  0
  -21.7420   -6.9730   21.4560 O   0  0  0  0  0  0  0  0  0  0  0  0
  -21.7080   -6.2410   22.6160 C   0  0  0  0  0  0  0  0  0  0  0  0
  -21.2890   -6.8040   23.8420 C   0  0  0  0  0  3  0  0  0  0  0  0
  -21.2040   -5.9970   24.9940 C   0  0  0  0  0  3  0  0  0  0  0  0
  -21.5250   -4.6280   24.9220 C   0  0  0  0  0  0  0  0  0  0  0  0
  -21.9350   -4.0650   23.7010 C   0  0  0  0  0  3  0  0  0  0  0  0
  -22.0250   -4.8690   22.5510 C   0  0  0  0  0  0  0  0  0  0  0  0
  -22.4010   -4.3170   21.3730 F   0  0  0  0  0  0  0  0  0  0  0  0
  -21.4350   -3.8510   26.0260 F   0  0  0  0  0  0  0  0  0  0  0  0
  -22.8060  -13.6160   21.1290 C   0  0  0  0  0  0  0  0  0  0  0  0
  -22.1090  -12.9130   22.0150 N   0  0  0  0  0  0  0  0  0  0  0  0
  -22.3480  -14.6440   20.6300 O   0  0  0  0  0  0  0  0  0  0  0  0
  -22.4940  -12.0830   22.4440 H   0  0  0  0  0  0  0  0  0  0  0  0
  -21.1770  -13.2100   22.2690 H   0  0  0  0  0  0  0  0  0  0  0  0
  -25.3980  -15.2960   20.2220 N   0  0  0  0  0  0  0  0  0  0  0  0
  -24.6360  -15.9500   20.3610 H   0  0  0  0  0  0  0  0  0  0  0  0
  -26.2340  -15.7410   19.8660 H   0  0  0  0  0  0  0  0  0  0  0  0
  -29.0190  -22.4090   20.0430 N   0  0  0  0  0  4  0  0  0  0  0  0
  -28.2300  -22.2000   19.4530 H   0  0  0  0  0  0  0  0  0  0  0  0
  -29.8280  -22.4780   19.4400 H   0  0  0  0  0  0  0  0  0  0  0  0
  -28.7990  -23.7910   20.6970 C   0  0  0  0  0  3  0  0  0  0  0  0
  -28.4010  -25.0290   19.7400 C   0  0  0  0  0  3  0  0  0  0  0  0
  -28.3410  -26.4420   20.2580 O   0  0  0  0  0  0  0  0  0  0  0  0
  -24.5870  -31.8790   23.2160 C   0  0  0  0  0  0  0  0  0  0  0  0
  -27.2080  -27.2860   20.1690 C   0  0  0  0  0  0  0  0  0  0  0  0
  -23.3920  -30.4850   21.5660 C   0  0  0  0  0  3  0  0  0  0  0  0
  -24.8490  -28.9330   20.1430 C   0  0  0  0  0  0  0  0  0  0  0  0
  -25.9350  -30.7870   21.4040 C   0  0  0  0  0  2  0  0  0  0  0  0
  -26.0130  -29.4050   20.7580 C   0  0  0  0  0  0  0  0  0  0  0  0
  -27.1890  -28.5900   20.7660 C   0  0  0  0  0  3  0  0  0  0  0  0
  -26.0170  -26.8840   19.5170 C   0  0  0  0  0  3  0  0  0  0  0  0
  -24.8550  -27.6820   19.5130 C   0  0  0  0  0  3  0  0  0  0  0  0
  -23.6150  -29.8150   20.1850 C   0  0  0  0  0  2  0  0  0  0  0  0
  -24.6570  -31.0690   22.1190 N   0  0  0  0  0  0  0  0  0  0  0  0
  -23.5000  -32.1580   23.7430 O   0  0  0  0  0  0  0  0  0  0  0  0
  -22.7230  -29.4670   22.5210 C   0  0  0  0  0  0  0  0  0  0  0  0
  -21.3970  -29.2940   22.3870 N   0  0  0  0  0  0  0  0  0  0  0  0
  -23.3960  -28.8410   23.3450 O   0  0  0  0  0  0  0  0  0  0  0  0
  -20.9170  -29.8530   21.6970 H   0  0  0  0  0  0  0  0  0  0  0  0
  -18.0130  -28.1030   22.8650 C   0  0  0  0  0  0  0  0  0  0  0  0
  -20.5700  -28.3580   23.1520 C   0  0  0  0  0  3  0  0  0  0  0  0
  -20.6730  -26.9260   22.5770 C   0  0  0  0  0  2  0  0  0  0  0  0
  -19.5770  -26.6070   21.5560 C   0  0  0  0  0  2  0  0  0  0  0  0
  -18.1910  -26.7530   22.1910 C   0  0  0  0  0  2  0  0  0  0  0  0
  -19.1310  -28.8630   23.3020 C   0  0  0  0  0  0  0  0  0  0  0  0
  -18.9090  -30.1250   23.8960 C   0  0  0  0  0  3  0  0  0  0  0  0
  -17.6040  -30.6270   24.0550 C   0  0  0  0  0  3  0  0  0  0  0  0
  -16.5010  -29.8660   23.6320 C   0  0  0  0  0  3  0  0  0  0  0  0
  -16.7070  -28.6050   23.0430 C   0  0  0  0  0  3  0  0  0  0  0  0
  -25.8670  -32.5100   23.8480 C   0  0  0  0  0  3  0  0  0  0  0  0
  -26.3730  -31.7340   25.1260 C   0  0  1  0  0  0  0  0  0  0  0  0
  -25.2720  -31.4950   26.1860 C   0  0  0  0  0  1  0  0  0  0  0  0
  -26.9560  -30.3560   24.7350 C   0  0  0  0  0  1  0  0  0  0  0  0
  -27.5210  -32.5260   25.7970 C   0  0  0  0  0  1  0  0  0  0  0  0
  -25.5540  -33.9080   24.1780 N   0  0  0  0  0  0  0  0  0  0  0  0
  -25.8870  -34.9630   23.4230 C   0  0  0  0  0  0  0  0  0  0  0  0
  -26.5580  -34.8620   22.3930 O   0  0  0  0  0  0  0  0  0  0  0  0
  -24.9530  -34.0580   24.9740 H   0  0  0  0  0  0  0  0  0  0  0  0
  -24.1580  -36.7580   23.0710 C   0  0  0  0  0  1  0  0  0  0  0  0
  -25.4000  -36.3510   23.8820 C   0  0  0  0  0  3  0  0  0  0  0  0
  -27.5350  -37.2360   24.7140 C   0  0  0  0  0  1  0  0  0  0  0  0
  -26.4330  -37.4050   23.7700 N   0  0  0  0  0  0  0  0  0  0  0  0
  -26.0280  -38.3250   23.9160 H   0  0  0  0  0  0  0  0  0  0  0  0
  2  5  1  0
  3  2  2  0
  3  6  1  0
  4  7  1  0
  4  1  1  0
  5 18  1  0
  5  7  2  0
  6  4  2  0
  7  9  1  0
  8  6  1  0
 10 18  1  0
 11 16  1  0
 12 13  1  0
 12 11  1  0
 14 13  1  0
 14 23  1  0
 14 15  1  0
 16 10  1  0
 16 15  1  0
 17 10  2  0
 18 19  1  0
 20 21  2  0
 21 40  1  0
 22 21  1  0
 22 25  1  0
 23 24  1  0
 23 20  1  0
 24 22  2  0
 25 26  1  0
 26 27  2  0
 28 31  1  0
 28 27  1  0
 29 28  2  0
 30 29  1  0
 30 25  2  0
 31 32  1  0
 32 33  1  0
 33 34  2  0
 35 34  1  0
 35 39  1  0
 36 35  2  0
 37 32  2  0
 37 36  1  0
 38 37  1  0
 40 41  1  0
 41 44  1  0
 41 43  1  0
 42 40  2  0
 45 46  1  0
 45 20  1  0
 47 45  1  0
 48 51  1  0
 48  1  1  0
 49 48  1  0
 50 48  1  0
 52 53  1  0
 52 51  2  0
 54 65  2  0
 55 53  1  0
 55 60  1  0
 56 64  1  0
 56 66  1  0
 57 63  1  0
 57 59  1  0
 58 64  1  0
 59 60  2  0
 59 58  1  0
 61 55  2  0
 62 61  1  0
 62 57  2  0
 63 56  1  0
 64 54  1  0
 66 68  2  0
 67 66  1  0
 69 67  1  0
 70 79  2  0
 70 75  1  0
 71 67  1  0
 71 75  1  0
 72 71  1  0
 73 74  1  0
 73 72  1  0
 74 70  1  0
 75 76  2  0
 76 77  1  0
 78 77  2  0
 79 78  1  0
 80 54  1  0
 80 85  1  0
 80 81  1  0
 81 84  1  1
 81 82  1  0
 83 81  1  0
 85 88  1  0
 86 90  1  0
 86 85  1  0
 87 86  2  0
 90 89  1  0
 92 90  1  0
 92 93  1  0
 92 91  1  0
M  ISO  4  10 100  18 100  52 101  53 101
M  END
>  <TORSDO>  (55) 
F 20

>  <SCORE>  (55) 
-13.490

>  <name>  (55) 
54

>  <ligand_id>  (55) 
54

>  <original_smiles>  (55) 
[H]c1c([H])c([H])c2c(c1[H])C([H])([H])C([H])([H])C([H])([H])C2([H])N([H])C(=O)C1([H])N(C(=O)C([H])(N([H])C(=O)C([H])(N([H])C([H])([H])[H])C([H])([H])[H])C(C([H])([H])[H])(C([H])([H])[H])C([H])([H])[H])C([H])([H])c2c([H])c(OC([H])([H])C([H])([H])[N+]([H])([H])C([H])([H])c3c(F)c([H])c([H])c(N([H])C(=O)N4C([H])([H])C([H])([H])C([H])([H])C([H])(n5nc(-c6c([H])c([H])c(Oc7c([H])c([H])c(F)c([H])c7F)c([H])c6[H])c(C(=O)N([H])[H])c5N([H])[H])C4([H])[H])c3F)c([H])c([H])c2C1([H])[H]

>  <smiles>  (55) 
[H]c1c([H])c([H])c2c(c1[H])C([H])([H])C([H])([H])C([H])([H])C2([H])N([H])C(=O)C1([H])N(C(=O)C([H])(N([H])C(=O)C([H])(N([H])C([H])([H])[H])C([H])([H])[H])C(C([H])([H])[H])(C([H])([H])[H])C([H])([H])[H])C([H])([H])c2c([H])c(OC([H])([H])C([H])([H])[N+]([H])([H])C([H])([H])c3c(F)c([H])c([H])c(N([H])C(=O)N4C([H])([H])C([H])([H])C([H])([H])C([H])(n5nc(-c6c([H])c([H])c(Oc7c([H])c([H])c(F)c([H])c7F)c([H])c6[H])c(C(=O)N([H])[H])c5N([H])[H])C4([H])[H])c3F)c([H])c([H])c2C1([H])[H]

$$$$
55:0:0
     RDKit          3D

 91 99  0  0  1  0  0  0  0  0999 V2000
  -30.6380  -18.3060   19.1460 C   0  0  0  0  0  3  0  0  0  0  0  0
  -30.7180  -19.7080   18.9830 C   0  0  0  0  0  3  0  0  0  0  0  0
  -28.6500  -19.9790   20.2160 C   0  0  0  0  0  3  0  0  0  0  0  0
  -29.5510  -17.7230   19.8340 C   0  0  0  0  0  0  0  0  0  0  0  0
  -29.7180  -20.5670   19.4920 C   0  0  0  0  0  0  0  0  0  0  0  0
  -28.5660  -18.5790   20.3800 C   0  0  0  0  0  0  0  0  0  0  0  0
  -27.5110  -18.0580   21.0540 F   0  0  0  0  0  0  0  0  0  0  0  0
  -29.3920  -16.1910   19.9090 C   0  0  0  0  0  2  0  0  0  0  0  0
  -30.9700  -14.3180   19.4530 C   0  0  0  0  0  0  0  0  0  0  0  0
  -30.5380  -11.9990   18.6980 C   0  0  0  0  0  2  0  0  0  0  0  0
  -29.4910  -11.9630   17.5680 C   0  0  0  0  0  2  0  0  0  0  0  0
  -28.0710  -11.8830   18.1550 C   0  0  0  0  0  2  0  0  0  0  0  0
  -27.8260  -12.9490   19.2510 C   0  0  0  0  0  3  0  0  0  0  0  0
  -28.9810  -12.9720   20.2830 C   0  0  0  0  0  2  0  0  0  0  0  0
  -30.2470  -13.1630   19.5570 N   0  0  0  0  0  0  0  0  0  0  0  0
  -32.0030  -14.3790   18.7780 O   0  0  0  0  0  0  0  0  0  0  0  0
  -31.6280  -16.1270   20.9390 C   0  0  0  0  0  1  0  0  0  0  0  0
  -30.5950  -15.3840   20.2100 N   0  0  0  0  0  0  0  0  0  0  0  0
  -25.6100  -13.7410   20.2900 C   0  0  0  0  0  0  0  0  0  0  0  0
  -24.5290  -13.0520   20.7660 C   0  0  0  0  0  0  0  0  0  0  0  0
  -24.8520  -11.6670   20.6280 C   0  0  0  0  0  0  0  0  0  0  0  0
  -26.5280  -12.7800   19.8930 N   0  0  0  0  0  0  0  0  0  0  0  0
  -26.0830  -11.5250   20.1560 N   0  0  0  0  0  0  0  0  0  0  0  0
  -24.0390  -10.4680   20.8620 C   0  0  0  0  0  0  0  0  0  0  0  0
  -24.4510   -9.4610   21.7630 C   0  0  0  0  0  3  0  0  0  0  0  0
  -23.6430   -8.3240   21.9820 C   0  0  0  0  0  3  0  0  0  0  0  0
  -22.4110   -8.1890   21.3010 C   0  0  0  0  0  0  0  0  0  0  0  0
  -22.0180   -9.1830   20.3870 C   0  0  0  0  0  3  0  0  0  0  0  0
  -22.8250  -10.3110   20.1650 C   0  0  0  0  0  3  0  0  0  0  0  0
  -21.5710   -7.1090   21.4340 O   0  0  0  0  0  0  0  0  0  0  0  0
  -21.4990   -6.3950   22.6020 C   0  0  0  0  0  0  0  0  0  0  0  0
  -21.1010   -6.9920   23.8180 C   0  0  0  0  0  3  0  0  0  0  0  0
  -20.9730   -6.2050   24.9800 C   0  0  0  0  0  3  0  0  0  0  0  0
  -21.2320   -4.8210   24.9270 C   0  0  0  0  0  0  0  0  0  0  0  0
  -21.6230   -4.2250   23.7140 C   0  0  0  0  0  3  0  0  0  0  0  0
  -21.7530   -5.0100   22.5550 C   0  0  0  0  0  0  0  0  0  0  0  0
  -22.1090   -4.4250   21.3870 F   0  0  0  0  0  0  0  0  0  0  0  0
  -21.1020   -4.0630   26.0400 F   0  0  0  0  0  0  0  0  0  0  0  0
  -23.2280  -13.6390   21.2320 C   0  0  0  0  0  0  0  0  0  0  0  0
  -22.5500  -12.9700   22.1580 N   0  0  0  0  0  0  0  0  0  0  0  0
  -22.8270  -14.7230   20.8080 O   0  0  0  0  0  0  0  0  0  0  0  0
  -22.8880  -12.0900   22.5190 H   0  0  0  0  0  0  0  0  0  0  0  0
  -21.6800  -13.3430   22.5100 H   0  0  0  0  0  0  0  0  0  0  0  0
  -25.8820  -15.0980   20.1430 N   0  0  0  0  0  0  0  0  0  0  0  0
  -25.1990  -15.8100   20.3800 H   0  0  0  0  0  0  0  0  0  0  0  0
  -26.7130  -15.4800   19.7100 H   0  0  0  0  0  0  0  0  0  0  0  0
  -29.8460  -21.9260   19.2420 O   0  0  0  0  0  0  0  0  0  0  0  0
  -28.8750  -22.8270   19.7900 C   0  0  0  0  0  2  0  0  0  0  0  0
  -29.1050  -24.2810   19.3010 C   0  0  0  0  0  2  0  0  0  0  0  0
  -28.1710  -25.3010   19.9980 C   0  0  0  0  0  2  0  0  0  0  0  0
  -28.2710  -26.6380   19.4650 O   0  0  0  0  0  0  0  0  0  0  0  0
  -24.5360  -31.5580   23.0370 C   0  0  0  0  0  0  0  0  0  0  0  0
  -27.1140  -27.3860   19.5500 C   0  0  0  0  0  0  0  0  0  0  0  0
  -23.2960  -30.2960   21.3100 C   0  0  0  0  0  3  0  0  0  0  0  0
  -24.7200  -28.8840   19.7340 C   0  0  0  0  0  0  0  0  0  0  0  0
  -25.8170  -30.6730   21.0890 C   0  0  0  0  0  2  0  0  0  0  0  0
  -25.8930  -29.3610   20.3350 C   0  0  0  0  0  0  0  0  0  0  0  0
  -27.0960  -28.6210   20.2370 C   0  0  0  0  0  3  0  0  0  0  0  0
  -25.9260  -26.9270   18.9380 C   0  0  0  0  0  3  0  0  0  0  0  0
  -24.7320  -27.6650   19.0350 C   0  0  0  0  0  3  0  0  0  0  0  0
  -23.4760  -29.7320   19.8760 C   0  0  0  0  0  2  0  0  0  0  0  0
  -24.5700  -30.8510   21.8720 N   0  0  0  0  0  0  0  0  0  0  0  0
  -23.4650  -31.7820   23.6200 O   0  0  0  0  0  0  0  0  0  0  0  0
  -22.6640  -29.1980   22.1950 C   0  0  0  0  0  0  0  0  0  0  0  0
  -21.3340  -29.0380   22.0920 N   0  0  0  0  0  0  0  0  0  0  0  0
  -23.3640  -28.4960   22.9290 O   0  0  0  0  0  0  0  0  0  0  0  0
  -20.8300  -29.6550   21.4720 H   0  0  0  0  0  0  0  0  0  0  0  0
  -17.9600  -27.8540   22.6160 C   0  0  0  0  0  0  0  0  0  0  0  0
  -20.5310  -28.0430   22.8000 C   0  0  0  0  0  3  0  0  0  0  0  0
  -20.5810  -26.6740   22.0810 C   0  0  0  0  0  2  0  0  0  0  0  0
  -19.4320  -26.4720   21.0890 C   0  0  0  0  0  2  0  0  0  0  0  0
  -18.0800  -26.5760   21.8030 C   0  0  0  0  0  2  0  0  0  0  0  0
  -19.1110  -28.5510   23.0690 C   0  0  0  0  0  0  0  0  0  0  0  0
  -18.9440  -29.7530   23.7900 C   0  0  0  0  0  3  0  0  0  0  0  0
  -17.6570  -30.2580   24.0600 C   0  0  0  0  0  3  0  0  0  0  0  0
  -16.5220  -29.5550   23.6220 C   0  0  0  0  0  3  0  0  0  0  0  0
  -16.6730  -28.3540   22.9070 C   0  0  0  0  0  3  0  0  0  0  0  0
  -25.8350  -32.1380   23.6820 C   0  0  0  0  0  3  0  0  0  0  0  0
  -25.5440  -33.5170   24.0910 N   0  0  0  0  0  0  0  0  0  0  0  0
  -25.8740  -34.6070   23.3840 C   0  0  0  0  0  0  0  0  0  0  0  0
  -26.5280  -34.5550   22.3390 O   0  0  0  0  0  0  0  0  0  0  0  0
  -24.9630  -33.6320   24.9080 H   0  0  0  0  0  0  0  0  0  0  0  0
  -24.1460  -36.4230   23.1700 C   0  0  0  0  0  1  0  0  0  0  0  0
  -25.4070  -35.9710   23.9240 C   0  0  0  0  0  3  0  0  0  0  0  0
  -27.5590  -36.8150   24.7520 C   0  0  0  0  0  1  0  0  0  0  0  0
  -26.4410  -37.0260   23.8370 N   0  0  0  0  0  0  0  0  0  0  0  0
  -26.0390  -37.9390   24.0340 H   0  0  0  0  0  0  0  0  0  0  0  0
  -26.3560  -31.2890   24.9060 C   0  0  1  0  0  0  0  0  0  0  0  0
  -25.2720  -31.0040   25.9720 C   0  0  0  0  0  1  0  0  0  0  0  0
  -26.9200  -29.9300   24.4300 C   0  0  0  0  0  1  0  0  0  0  0  0
  -27.5230  -32.0330   25.5980 C   0  0  0  0  0  1  0  0  0  0  0  0
  1  4  1  0
  2  1  2  0
  2  5  1  0
  3  6  1  0
  4  8  1  0
  4  6  2  0
  5  3  2  0
  6  7  1  0
  8 18  1  0
  9 15  1  0
  9 18  1  0
 10 15  1  0
 11 12  1  0
 11 10  1  0
 13 12  1  0
 13 22  1  0
 13 14  1  0
 15 14  1  0
 16  9  2  0
 18 17  1  0
 19 20  2  0
 20 39  1  0
 21 20  1  0
 21 24  1  0
 22 23  1  0
 22 19  1  0
 23 21  2  0
 24 25  1  0
 25 26  2  0
 27 30  1  0
 27 26  1  0
 28 27  2  0
 29 28  1  0
 29 24  2  0
 30 31  1  0
 31 32  1  0
 32 33  2  0
 34 33  1  0
 34 38  1  0
 35 34  2  0
 36 31  2  0
 36 35  1  0
 37 36  1  0
 39 40  1  0
 40 43  1  0
 40 42  1  0
 41 39  2  0
 44 19  1  0
 44 45  1  0
 46 44  1  0
 47  5  1  0
 47 48  1  0
 49 48  1  0
 49 50  1  0
 51 53  1  0
 51 50  1  0
 52 63  2  0
 53 58  1  0
 54 62  1  0
 54 64  1  0
 55 61  1  0
 55 57  1  0
 56 62  1  0
 57 56  1  0
 58 57  2  0
 59 60  1  0
 59 53  2  0
 60 55  2  0
 61 54  1  0
 62 52  1  0
 64 66  2  0
 65 64  1  0
 67 65  1  0
 68 77  2  0
 68 73  1  0
 69 65  1  0
 69 73  1  0
 70 69  1  0
 71 72  1  0
 71 70  1  0
 72 68  1  0
 73 74  2  0
 74 75  1  0
 76 75  2  0
 77 76  1  0
 78 52  1  0
 78 79  1  0
 78 88  1  0
 79 82  1  0
 80 84  1  0
 80 79  1  0
 81 80  2  0
 84 83  1  0
 86 84  1  0
 86 87  1  0
 86 85  1  0
 88 91  1  1
 88 89  1  0
 90 88  1  0
M  ISO  4   9 100  18 100  50 101  51 101
M  END
>  <TORSDO>  (56) 
F 21

>  <SCORE>  (56) 
-12.290

>  <name>  (56) 
55

>  <ligand_id>  (56) 
55

>  <original_smiles>  (56) 
[H]c1c([H])c([H])c2c(c1[H])C([H])([H])C([H])([H])C([H])([H])C2([H])N([H])C(=O)C1([H])N(C(=O)C([H])(N([H])C(=O)C([H])(N([H])C([H])([H])[H])C([H])([H])[H])C(C([H])([H])[H])(C([H])([H])[H])C([H])([H])[H])C([H])([H])c2c([H])c(OC([H])([H])C([H])([H])C([H])([H])Oc3c([H])c([H])c(C([H])([H])N(C(=O)N4C([H])([H])C([H])([H])C([H])([H])C([H])(n5nc(-c6c([H])c([H])c(Oc7c([H])c([H])c(F)c([H])c7F)c([H])c6[H])c(C(=O)N([H])[H])c5N([H])[H])C4([H])[H])C([H])([H])[H])c(F)c3[H])c([H])c([H])c2C1([H])[H]

>  <smiles>  (56) 
[H]c1c([H])c([H])c2c(c1[H])C([H])([H])C([H])([H])C([H])([H])C2([H])N([H])C(=O)C1([H])N(C(=O)C([H])(N([H])C(=O)C([H])(N([H])C([H])([H])[H])C([H])([H])[H])C(C([H])([H])[H])(C([H])([H])[H])C([H])([H])[H])C([H])([H])c2c([H])c(OC([H])([H])C([H])([H])C([H])([H])Oc3c([H])c([H])c(C([H])([H])N(C(=O)N4C([H])([H])C([H])([H])C([H])([H])C([H])(n5nc(-c6c([H])c([H])c(Oc7c([H])c([H])c(F)c([H])c7F)c([H])c6[H])c(C(=O)N([H])[H])c5N([H])[H])C4([H])[H])C([H])([H])[H])c(F)c3[H])c([H])c([H])c2C1([H])[H]

$$$$
56:0:0
     RDKit          3D

 95104  0  0  1  0  0  0  0  0999 V2000
  -29.2940  -23.1090   20.1270 C   0  0  0  0  0  3  0  0  0  0  0  0
  -28.3410  -20.3650   20.0640 C   0  0  0  0  0  3  0  0  0  0  0  0
  -30.7510  -19.1420   20.6020 C   0  0  0  0  0  3  0  0  0  0  0  0
  -29.3440  -21.3770   20.3460 C   0  0  0  0  0  0  0  0  0  0  0  0
  -29.7390  -18.1390   20.3190 C   0  0  0  0  0  0  0  0  0  0  0  0
  -28.5200  -18.8910   20.0600 C   0  0  0  0  0  0  0  0  0  0  0  0
  -30.5700  -20.6180   20.6110 C   0  0  0  0  0  0  0  0  0  0  0  0
  -27.4290  -18.1490   19.7520 F   0  0  0  0  0  0  0  0  0  0  0  0
  -31.6790  -21.3490   20.8650 F   0  0  0  0  0  0  0  0  0  0  0  0
  -30.6070  -15.3470   20.1120 C   0  0  0  0  0  0  0  0  0  0  0  0
  -30.5340  -12.9670   19.1060 C   0  0  0  0  0  2  0  0  0  0  0  0
  -29.5380  -12.8540   17.9230 C   0  0  0  0  0  2  0  0  0  0  0  0
  -28.1100  -12.5780   18.4280 C   0  0  0  0  0  2  0  0  0  0  0  0
  -27.7320  -13.4860   19.6250 C   0  0  0  0  0  3  0  0  0  0  0  0
  -28.8390  -13.5420   20.6980 C   0  0  0  0  0  2  0  0  0  0  0  0
  -30.0510  -14.0460   20.0340 N   0  0  0  0  0  0  0  0  0  0  0  0
  -31.8100  -15.4050   19.8330 O   0  0  0  0  0  0  0  0  0  0  0  0
  -29.7640  -16.5330   20.2920 N   0  0  0  0  0  0  0  0  0  0  0  0
  -28.8150  -16.2040   20.3850 H   0  0  0  0  0  0  0  0  0  0  0  0
  -25.3970  -14.0130   20.5100 C   0  0  0  0  0  0  0  0  0  0  0  0
  -24.3560  -13.2190   20.9010 C   0  0  0  0  0  0  0  0  0  0  0  0
  -24.8250  -11.8720   20.7980 C   0  0  0  0  0  0  0  0  0  0  0  0
  -26.4300  -13.1530   20.1860 N   0  0  0  0  0  0  0  0  0  0  0  0
  -26.1010  -11.8570   20.4280 N   0  0  0  0  0  0  0  0  0  0  0  0
  -24.1120  -10.6000   20.9700 C   0  0  0  0  0  0  0  0  0  0  0  0
  -24.5210   -9.6420   21.9230 C   0  0  0  0  0  3  0  0  0  0  0  0
  -23.8000   -8.4360   22.0780 C   0  0  0  0  0  3  0  0  0  0  0  0
  -22.6580   -8.1810   21.2820 C   0  0  0  0  0  0  0  0  0  0  0  0
  -22.2710   -9.1310   20.3190 C   0  0  0  0  0  3  0  0  0  0  0  0
  -22.9910  -10.3270   20.1610 C   0  0  0  0  0  3  0  0  0  0  0  0
  -21.9130   -7.0280   21.3480 O   0  0  0  0  0  0  0  0  0  0  0  0
  -21.7670   -6.3350   22.5220 C   0  0  0  0  0  0  0  0  0  0  0  0
  -21.1380   -6.9040   23.6520 C   0  0  0  0  0  3  0  0  0  0  0  0
  -20.9460   -6.1320   24.8150 C   0  0  0  0  0  3  0  0  0  0  0  0
  -21.3740   -4.7900   24.8480 C   0  0  0  0  0  0  0  0  0  0  0  0
  -21.9960   -4.2210   23.7230 C   0  0  0  0  0  3  0  0  0  0  0  0
  -22.1880   -4.9900   22.5640 C   0  0  0  0  0  0  0  0  0  0  0  0
  -22.7680   -4.4300   21.4760 F   0  0  0  0  0  0  0  0  0  0  0  0
  -21.1830   -4.0450   25.9610 F   0  0  0  0  0  0  0  0  0  0  0  0
  -22.9700  -13.6790   21.2480 C   0  0  0  0  0  0  0  0  0  0  0  0
  -22.2760  -12.9390   22.1060 N   0  0  0  0  0  0  0  0  0  0  0  0
  -22.5170  -14.7290   20.7950 O   0  0  0  0  0  0  0  0  0  0  0  0
  -22.6530  -12.0870   22.4910 H   0  0  0  0  0  0  0  0  0  0  0  0
  -21.3510  -13.2340   22.3840 H   0  0  0  0  0  0  0  0  0  0  0  0
  -25.5440  -15.3910   20.3660 N   0  0  0  0  0  0  0  0  0  0  0  0
  -24.7780  -16.0320   20.5400 H   0  0  0  0  0  0  0  0  0  0  0  0
  -26.3450  -15.8560   19.9610 H   0  0  0  0  0  0  0  0  0  0  0  0
  -30.7670  -24.1210   18.3560 C   0  0  0  0  0  0  0  0  0  0  0  0
  -30.8640  -24.1760   16.8400 C   0  0  0  0  0  2  0  0  0  0  0  0
  -29.5230  -23.5900   16.3820 C   0  0  0  0  0  2  0  0  0  0  0  0
  -28.9700  -22.8480   17.6080 C   0  0  0  0  0  2  0  0  0  0  0  0
  -29.7220  -23.3750   18.7460 N   0  0  0  0  0  0  0  0  0  0  0  0
  -31.5650  -24.7080   19.0930 O   0  0  0  0  0  0  0  0  0  0  0  0
  -28.1640  -24.4340   20.4580 C   0  0  0  0  0  2  0  0  0  0  0  0
  -28.3570  -26.0570   20.4120 O   0  0  0  0  0  0  0  0  0  0  0  0
  -24.6140  -31.9370   23.2630 C   0  0  0  0  0  0  0  0  0  0  0  0
  -27.3080  -27.0980   20.3660 C   0  0  0  0  0  0  0  0  0  0  0  0
  -23.4730  -30.4950   21.6250 C   0  0  0  0  0  3  0  0  0  0  0  0
  -24.9720  -28.9030   20.2520 C   0  0  0  0  0  0  0  0  0  0  0  0
  -26.0310  -30.7650   21.5110 C   0  0  0  0  0  2  0  0  0  0  0  0
  -26.1390  -29.3480   20.8860 C   0  0  0  0  0  0  0  0  0  0  0  0
  -27.3050  -28.4660   20.9170 C   0  0  0  0  0  3  0  0  0  0  0  0
  -26.1070  -26.7900   19.6870 C   0  0  0  0  0  3  0  0  0  0  0  0
  -24.9780  -27.6420   19.6340 C   0  0  0  0  0  3  0  0  0  0  0  0
  -23.7370  -29.7980   20.2620 C   0  0  0  0  0  2  0  0  0  0  0  0
  -24.7260  -31.0920   22.1890 N   0  0  0  0  0  0  0  0  0  0  0  0
  -23.5130  -32.2170   23.7620 O   0  0  0  0  0  0  0  0  0  0  0  0
  -22.7820  -29.4990   22.5920 C   0  0  0  0  0  0  0  0  0  0  0  0
  -21.4550  -29.3200   22.4540 N   0  0  0  0  0  0  0  0  0  0  0  0
  -23.4450  -28.8880   23.4340 O   0  0  0  0  0  0  0  0  0  0  0  0
  -20.9730  -29.8650   21.7530 H   0  0  0  0  0  0  0  0  0  0  0  0
  -18.0740  -28.1070   22.9570 C   0  0  0  0  0  0  0  0  0  0  0  0
  -20.6340  -28.3810   23.2250 C   0  0  0  0  0  3  0  0  0  0  0  0
  -20.7380  -26.9470   22.6510 C   0  0  0  0  0  2  0  0  0  0  0  0
  -19.6400  -26.6230   21.6340 C   0  0  0  0  0  2  0  0  0  0  0  0
  -18.2580  -26.7590   22.2790 C   0  0  0  0  0  2  0  0  0  0  0  0
  -19.1900  -28.8750   23.3880 C   0  0  0  0  0  0  0  0  0  0  0  0
  -18.9610  -30.1350   23.9860 C   0  0  0  0  0  3  0  0  0  0  0  0
  -17.6530  -30.6260   24.1540 C   0  0  0  0  0  3  0  0  0  0  0  0
  -16.5540  -29.8560   23.7360 C   0  0  0  0  0  3  0  0  0  0  0  0
  -16.7660  -28.5970   23.1450 C   0  0  0  0  0  3  0  0  0  0  0  0
  -25.8640  -32.6090   23.9100 C   0  0  0  0  0  3  0  0  0  0  0  0
  -26.3520  -31.8720   25.2190 C   0  0  1  0  0  0  0  0  0  0  0  0
  -25.2310  -31.6340   26.2570 C   0  0  0  0  0  1  0  0  0  0  0  0
  -26.9740  -30.4980   24.8800 C   0  0  0  0  0  1  0  0  0  0  0  0
  -27.4640  -32.7020   25.9040 C   0  0  0  0  0  1  0  0  0  0  0  0
  -25.5230  -34.0100   24.2100 N   0  0  0  0  0  0  0  0  0  0  0  0
  -25.8680  -35.0620   23.4550 C   0  0  0  0  0  0  0  0  0  0  0  0
  -26.5720  -34.9560   22.4480 O   0  0  0  0  0  0  0  0  0  0  0  0
  -24.8940  -34.1620   24.9860 H   0  0  0  0  0  0  0  0  0  0  0  0
  -24.1570  -36.8550   23.0120 C   0  0  0  0  0  1  0  0  0  0  0  0
  -25.3560  -36.4510   23.8840 C   0  0  0  0  0  3  0  0  0  0  0  0
  -27.4390  -37.3600   24.8220 C   0  0  0  0  0  1  0  0  0  0  0  0
  -26.3910  -37.5090   23.8160 N   0  0  0  0  0  0  0  0  0  0  0  0
  -25.9730  -38.4290   23.9320 H   0  0  0  0  0  0  0  0  0  0  0  0
  1  4  1  0
  1 54  1  0
  2  4  1  0
  3  7  1  0
  4  7  2  0
  5  3  2  0
  6  2  2  0
  6  5  1  0
  7  9  1  0
  8  6  1  0
 10 18  1  0
 11 16  1  0
 12 13  1  0
 12 11  1  0
 14 13  1  0
 14 23  1  0
 14 15  1  0
 16 10  1  0
 16 15  1  0
 17 10  2  0
 18  5  1  0
 18 19  1  0
 20 21  2  0
 21 40  1  0
 22 21  1  0
 22 25  1  0
 23 24  1  0
 23 20  1  0
 24 22  2  0
 25 26  1  0
 26 27  2  0
 28 31  1  0
 28 27  1  0
 29 28  2  0
 30 29  1  0
 30 25  2  0
 31 32  1  0
 32 37  2  0
 32 33  1  0
 33 34  2  0
 34 35  1  0
 35 39  1  0
 36 35  2  0
 37 36  1  0
 38 37  1  0
 40 41  1  0
 41 44  1  0
 41 43  1  0
 42 40  2  0
 45 20  1  0
 45 46  1  0
 47 45  1  0
 48 52  1  0
 48 53  2  0
 49 48  1  0
 50 49  1  0
 50 51  1  0
 51 52  1  0
 52  1  1  0
 55 54  1  0
 56 67  2  0
 57 55  1  0
 57 62  1  0
 58 66  1  0
 58 68  1  0
 59 65  1  0
 59 61  1  0
 60 66  1  0
 61 62  2  0
 61 60  1  0
 63 57  2  0
 64 63  1  0
 64 59  2  0
 65 58  1  0
 66 56  1  0
 68 70  2  0
 69 68  1  0
 71 69  1  0
 72 81  2  0
 72 77  1  0
 73 69  1  0
 73 77  1  0
 74 73  1  0
 75 76  1  0
 75 74  1  0
 76 72  1  0
 77 78  2  0
 78 79  1  0
 80 79  2  0
 81 80  1  0
 82 56  1  0
 82 87  1  0
 82 83  1  0
 83 86  1  1
 83 84  1  0
 85 83  1  0
 87 90  1  0
 88 92  1  0
 88 87  1  0
 89 88  2  0
 92 91  1  0
 94 92  1  0
 94 95  1  0
 94 93  1  0
M  ISO  4  10 100  18 100  54 101  55 101
M  END
>  <TORSDO>  (57) 
F 19

>  <SCORE>  (57) 
-15.719

>  <name>  (57) 
56

>  <ligand_id>  (57) 
56

>  <original_smiles>  (57) 
[H]c1c([H])c([H])c2c(c1[H])C([H])([H])C([H])([H])C([H])([H])C2([H])N([H])C(=O)C1([H])N(C(=O)C([H])(N([H])C(=O)C([H])(N([H])C([H])([H])[H])C([H])([H])[H])C(C([H])([H])[H])(C([H])([H])[H])C([H])([H])[H])C([H])([H])c2c([H])c(OC([H])([H])C([H])(c3c([H])c(F)c(N([H])C(=O)N4C([H])([H])C([H])([H])C([H])([H])C([H])(n5nc(-c6c([H])c([H])c(Oc7c([H])c([H])c(F)c([H])c7F)c([H])c6[H])c(C(=O)N([H])[H])c5N([H])[H])C4([H])[H])c([H])c3F)N3C(=O)C([H])([H])C([H])([H])C3([H])[H])c([H])c([H])c2C1([H])[H]

>  <smiles>  (57) 
[H]c1c([H])c([H])c2c(c1[H])C([H])([H])C([H])([H])C([H])([H])C2([H])N([H])C(=O)C1([H])N(C(=O)C([H])(N([H])C(=O)C([H])(N([H])C([H])([H])[H])C([H])([H])[H])C(C([H])([H])[H])(C([H])([H])[H])C([H])([H])[H])C([H])([H])c2c([H])c(OC([H])([H])C([H])(c3c([H])c(F)c(N([H])C(=O)N4C([H])([H])C([H])([H])C([H])([H])C([H])(n5nc(-c6c([H])c([H])c(Oc7c([H])c([H])c(F)c([H])c7F)c([H])c6[H])c(C(=O)N([H])[H])c5N([H])[H])C4([H])[H])c([H])c3F)N3C(=O)C([H])([H])C([H])([H])C3([H])[H])c([H])c([H])c2C1([H])[H]

$$$$
57:0:0
     RDKit          3D

 90 98  0  0  1  0  0  0  0  0999 V2000
  -29.5440  -18.1180   21.4500 C   0  0  0  0  0  3  0  0  0  0  0  0
  -29.3420  -19.5070   21.1780 C   0  0  0  0  0  3  0  0  0  0  0  0
  -30.3080  -17.7510   19.2130 C   0  0  0  0  0  3  0  0  0  0  0  0
  -30.0500  -17.1810   20.4910 C   0  0  0  0  0  0  0  0  0  0  0  0
  -29.6330  -20.0710   19.9110 C   0  0  0  0  0  0  0  0  0  0  0  0
  -30.1120  -19.1430   18.9400 C   0  0  0  0  0  0  0  0  0  0  0  0
  -30.4010  -19.6000   17.6960 F   0  0  0  0  0  0  0  0  0  0  0  0
  -30.8040  -14.7500   20.0400 C   0  0  0  0  0  0  0  0  0  0  0  0
  -30.4600  -12.5680   18.8610 C   0  0  0  0  0  2  0  0  0  0  0  0
  -29.4390  -12.7240   17.7140 C   0  0  0  0  0  2  0  0  0  0  0  0
  -28.0000  -12.5430   18.2340 C   0  0  0  0  0  2  0  0  0  0  0  0
  -27.7290  -13.3720   19.5160 C   0  0  0  0  0  3  0  0  0  0  0  0
  -28.8510  -13.1800   20.5520 C   0  0  0  0  0  2  0  0  0  0  0  0
  -30.1270  -13.5540   19.9160 N   0  0  0  0  0  0  0  0  0  0  0  0
  -31.8580  -14.9310   19.4230 O   0  0  0  0  0  0  0  0  0  0  0  0
  -30.3360  -15.4510   22.2860 C   0  0  0  0  0  1  0  0  0  0  0  0
  -30.2760  -15.7500   20.8440 N   0  0  0  0  0  0  0  0  0  0  0  0
  -25.3970  -13.9580   20.4210 C   0  0  0  0  0  0  0  0  0  0  0  0
  -24.3550  -13.1770   20.8420 C   0  0  0  0  0  0  0  0  0  0  0  0
  -24.8060  -11.8250   20.7400 C   0  0  0  0  0  0  0  0  0  0  0  0
  -26.4160  -13.0800   20.0850 N   0  0  0  0  0  0  0  0  0  0  0  0
  -26.0700  -11.7910   20.3380 N   0  0  0  0  0  0  0  0  0  0  0  0
  -24.0870  -10.5620   20.9460 C   0  0  0  0  0  0  0  0  0  0  0  0
  -24.5520   -9.5870   21.8570 C   0  0  0  0  0  3  0  0  0  0  0  0
  -23.8320   -8.3880   22.0500 C   0  0  0  0  0  3  0  0  0  0  0  0
  -22.6360   -8.1530   21.3320 C   0  0  0  0  0  0  0  0  0  0  0  0
  -22.1910   -9.1160   20.4090 C   0  0  0  0  0  3  0  0  0  0  0  0
  -22.9110  -10.3070   20.2140 C   0  0  0  0  0  3  0  0  0  0  0  0
  -21.8860   -7.0070   21.4350 O   0  0  0  0  0  0  0  0  0  0  0  0
  -21.8370   -6.2810   22.5980 C   0  0  0  0  0  0  0  0  0  0  0  0
  -21.3930   -6.8480   23.8120 C   0  0  0  0  0  3  0  0  0  0  0  0
  -21.2920   -6.0470   24.9680 C   0  0  0  0  0  3  0  0  0  0  0  0
  -21.6260   -4.6820   24.9100 C   0  0  0  0  0  0  0  0  0  0  0  0
  -22.0640   -4.1140   23.7000 C   0  0  0  0  0  3  0  0  0  0  0  0
  -22.1660   -4.9120   22.5470 C   0  0  0  0  0  0  0  0  0  0  0  0
  -22.5680   -4.3550   21.3790 F   0  0  0  0  0  0  0  0  0  0  0  0
  -21.5220   -3.9100   26.0170 F   0  0  0  0  0  0  0  0  0  0  0  0
  -22.9830  -13.6520   21.2260 C   0  0  0  0  0  0  0  0  0  0  0  0
  -22.3170  -12.9360   22.1250 N   0  0  0  0  0  0  0  0  0  0  0  0
  -22.5140  -14.6920   20.7660 O   0  0  0  0  0  0  0  0  0  0  0  0
  -22.7100  -12.0930   22.5170 H   0  0  0  0  0  0  0  0  0  0  0  0
  -21.3990  -13.2350   22.4250 H   0  0  0  0  0  0  0  0  0  0  0  0
  -25.5600  -15.3320   20.2770 N   0  0  0  0  0  0  0  0  0  0  0  0
  -24.8150  -15.9910   20.4750 H   0  0  0  0  0  0  0  0  0  0  0  0
  -26.4010  -15.7780   19.9310 H   0  0  0  0  0  0  0  0  0  0  0  0
  -29.4980  -21.4370   19.5570 O   0  0  0  0  0  0  0  0  0  0  0  0
  -28.9230  -22.4710   20.4280 C   0  0  0  0  0  3  0  0  0  0  0  0
  -29.0120  -23.9710   19.8610 C   0  0  0  0  0  3  0  0  0  0  0  0
  -28.2850  -25.1540   20.6530 C   0  0  0  0  0  2  0  0  0  0  0  0
  -28.4820  -26.5690   20.2380 O   0  0  0  0  0  0  0  0  0  0  0  0
  -24.6410  -31.9150   23.2270 C   0  0  0  0  0  0  0  0  0  0  0  0
  -27.3600  -27.4070   20.2040 C   0  0  0  0  0  0  0  0  0  0  0  0
  -23.4870  -30.5230   21.5440 C   0  0  0  0  0  3  0  0  0  0  0  0
  -24.9840  -28.9940   20.1420 C   0  0  0  0  0  0  0  0  0  0  0  0
  -26.0270  -30.8650   21.4240 C   0  0  0  0  0  2  0  0  0  0  0  0
  -26.1340  -29.4920   20.7700 C   0  0  0  0  0  0  0  0  0  0  0  0
  -27.3280  -28.7110   20.7870 C   0  0  0  0  0  3  0  0  0  0  0  0
  -26.1920  -26.9610   19.5500 C   0  0  0  0  0  3  0  0  0  0  0  0
  -25.0160  -27.7340   19.5220 C   0  0  0  0  0  3  0  0  0  0  0  0
  -23.7410  -29.8590   20.1640 C   0  0  0  0  0  2  0  0  0  0  0  0
  -24.7360  -31.1190   22.1230 N   0  0  0  0  0  0  0  0  0  0  0  0
  -23.5420  -32.1790   23.7380 O   0  0  0  0  0  0  0  0  0  0  0  0
  -22.8090  -29.4940   22.4790 C   0  0  0  0  0  0  0  0  0  0  0  0
  -21.4880  -29.3050   22.3130 N   0  0  0  0  0  0  0  0  0  0  0  0
  -23.4700  -28.8690   23.3120 O   0  0  0  0  0  0  0  0  0  0  0  0
  -21.0140  -29.8630   21.6170 H   0  0  0  0  0  0  0  0  0  0  0  0
  -18.1140  -28.0620   22.6940 C   0  0  0  0  0  0  0  0  0  0  0  0
  -20.6580  -28.3540   23.0520 C   0  0  0  0  0  3  0  0  0  0  0  0
  -20.7990  -26.9250   22.4760 C   0  0  0  0  0  2  0  0  0  0  0  0
  -19.7370  -26.5930   21.4230 C   0  0  0  0  0  2  0  0  0  0  0  0
  -18.3320  -26.7160   22.0200 C   0  0  0  0  0  2  0  0  0  0  0  0
  -19.2070  -28.8370   23.1630 C   0  0  0  0  0  0  0  0  0  0  0  0
  -18.9500  -30.0950   23.7520 C   0  0  0  0  0  3  0  0  0  0  0  0
  -17.6340  -30.5780   23.8740 C   0  0  0  0  0  3  0  0  0  0  0  0
  -16.5560  -29.8000   23.4200 C   0  0  0  0  0  3  0  0  0  0  0  0
  -16.7950  -28.5430   22.8360 C   0  0  0  0  0  3  0  0  0  0  0  0
  -25.9030  -32.5500   23.8880 C   0  0  0  0  0  3  0  0  0  0  0  0
  -26.3990  -31.7630   25.1630 C   0  0  1  0  0  0  0  0  0  0  0  0
  -25.2810  -31.4850   26.1950 C   0  0  0  0  0  1  0  0  0  0  0  0
  -27.0170  -30.4030   24.7610 C   0  0  0  0  0  1  0  0  0  0  0  0
  -27.5160  -32.5640   25.8710 C   0  0  0  0  0  1  0  0  0  0  0  0
  -25.5720  -33.9400   24.2340 N   0  0  0  0  0  0  0  0  0  0  0  0
  -25.9070  -35.0080   23.4970 C   0  0  0  0  0  0  0  0  0  0  0  0
  -26.5960  -34.9280   22.4770 O   0  0  0  0  0  0  0  0  0  0  0  0
  -24.9630  -34.0760   25.0270 H   0  0  0  0  0  0  0  0  0  0  0  0
  -24.1630  -36.7860   23.1450 C   0  0  0  0  0  1  0  0  0  0  0  0
  -25.3970  -36.3840   23.9680 C   0  0  0  0  0  3  0  0  0  0  0  0
  -27.5090  -37.2830   24.8420 C   0  0  0  0  0  1  0  0  0  0  0  0
  -26.4190  -37.4500   23.8840 N   0  0  0  0  0  0  0  0  0  0  0  0
  -26.0000  -38.3640   24.0360 H   0  0  0  0  0  0  0  0  0  0  0  0
  2  1  1  0
  3  4  1  0
  4 17  1  0
  4  1  2  0
  5  2  2  0
  6  3  2  0
  6  5  1  0
  7  6  1  0
  8 17  1  0
  9 14  1  0
 10 11  1  0
 10  9  1  0
 12 11  1  0
 12 21  1  0
 12 13  1  0
 14  8  1  0
 14 13  1  0
 15  8  2  0
 17 16  1  0
 18 19  2  0
 19 38  1  0
 20 19  1  0
 20 23  1  0
 21 22  1  0
 21 18  1  0
 22 20  2  0
 23 24  1  0
 24 25  2  0
 26 29  1  0
 26 25  1  0
 27 26  2  0
 28 27  1  0
 28 23  2  0
 29 30  1  0
 30 31  1  0
 31 32  2  0
 33 32  1  0
 33 37  1  0
 34 33  2  0
 35 30  2  0
 35 34  1  0
 36 35  1  0
 38 39  1  0
 39 42  1  0
 39 41  1  0
 40 38  2  0
 43 18  1  0
 43 44  1  0
 45 43  1  0
 46  5  1  0
 46 47  1  0
 48 47  2  0
 48 49  1  0
 50 49  1  0
 51 62  2  0
 52 50  1  0
 52 57  1  0
 53 61  1  0
 53 63  1  0
 54 60  1  0
 54 56  1  0
 55 61  1  0
 56 57  2  0
 56 55  1  0
 58 52  2  0
 59 58  1  0
 59 54  2  0
 60 53  1  0
 61 51  1  0
 63 65  2  0
 64 63  1  0
 66 64  1  0
 67 76  2  0
 67 72  1  0
 68 64  1  0
 68 72  1  0
 69 68  1  0
 70 71  1  0
 70 69  1  0
 71 67  1  0
 72 73  2  0
 73 74  1  0
 75 74  2  0
 76 75  1  0
 77 51  1  0
 77 82  1  0
 77 78  1  0
 78 81  1  1
 78 79  1  0
 80 78  1  0
 82 85  1  0
 83 87  1  0
 83 82  1  0
 84 83  2  0
 87 86  1  0
 89 87  1  0
 89 90  1  0
 89 88  1  0
M  ISO  4   8 100  17 100  49 101  50 101
M  END
>  <TORSDO>  (58) 
F 20

>  <SCORE>  (58) 
-12.362

>  <name>  (58) 
57

>  <ligand_id>  (58) 
57

>  <original_smiles>  (58) 
[H]c1c([H])c([H])c2c(c1[H])C([H])([H])C([H])([H])C([H])([H])C2([H])N([H])C(=O)C1([H])N(C(=O)C([H])(N([H])C(=O)C([H])(N([H])C([H])([H])[H])C([H])([H])[H])C(C([H])([H])[H])(C([H])([H])[H])C([H])([H])[H])C([H])([H])c2c([H])c(OC([H])([H])C([H])([H])C([H])([H])Oc3c([H])c([H])c(N(C(=O)N4C([H])([H])C([H])([H])C([H])([H])C([H])(n5nc(-c6c([H])c([H])c(Oc7c([H])c([H])c(F)c([H])c7F)c([H])c6[H])c(C(=O)N([H])[H])c5N([H])[H])C4([H])[H])C([H])([H])[H])c([H])c3F)c([H])c([H])c2C1([H])[H]

>  <smiles>  (58) 
[H]c1c([H])c([H])c2c(c1[H])C([H])([H])C([H])([H])C([H])([H])C2([H])N([H])C(=O)C1([H])N(C(=O)C([H])(N([H])C(=O)C([H])(N([H])C([H])([H])[H])C([H])([H])[H])C(C([H])([H])[H])(C([H])([H])[H])C([H])([H])[H])C([H])([H])c2c([H])c(OC([H])([H])C([H])([H])C([H])([H])Oc3c([H])c([H])c(N(C(=O)N4C([H])([H])C([H])([H])C([H])([H])C([H])(n5nc(-c6c([H])c([H])c(Oc7c([H])c([H])c(F)c([H])c7F)c([H])c6[H])c(C(=O)N([H])[H])c5N([H])[H])C4([H])[H])C([H])([H])[H])c([H])c3F)c([H])c([H])c2C1([H])[H]

$$$$
58:0:0
     RDKit          3D

 94102  0  0  1  0  0  0  0  0999 V2000
  -31.3190  -21.1270   21.3530 C   0  0  0  0  0  0  0  0  0  0  0  0
  -32.5640  -21.1900   21.8210 N   0  0  0  0  0  4  0  0  0  0  0  0
  -30.7940  -22.3330   21.0260 N   0  0  0  0  0  0  0  0  0  0  0  0
  -33.0310  -20.3190   22.0280 H   0  0  0  0  0  0  0  0  0  0  0  0
  -33.0770  -22.0430   21.9740 H   0  0  0  0  0  0  0  0  0  0  0  0
  -31.4650  -23.0850   21.0700 H   0  0  0  0  0  0  0  0  0  0  0  0
  -30.9160  -18.8930   22.3810 C   0  0  0  0  0  3  0  0  0  0  0  0
  -30.2410  -19.2020   20.0710 C   0  0  0  0  0  3  0  0  0  0  0  0
  -30.6480  -17.5080   22.2870 C   0  0  0  0  0  3  0  0  0  0  0  0
  -29.9910  -17.8040   19.9710 C   0  0  0  0  0  3  0  0  0  0  0  0
  -30.7440  -19.7590   21.2720 C   0  0  0  0  0  0  0  0  0  0  0  0
  -30.2250  -16.9340   21.0690 C   0  0  0  0  0  0  0  0  0  0  0  0
  -30.6400  -14.5660   20.3510 C   0  0  0  0  0  0  0  0  0  0  0  0
  -30.3480  -12.4220   19.1460 C   0  0  0  0  0  2  0  0  0  0  0  0
  -29.3680  -12.6420   17.9740 C   0  0  0  0  0  2  0  0  0  0  0  0
  -27.9080  -12.4800   18.4400 C   0  0  0  0  0  2  0  0  0  0  0  0
  -27.6020  -13.2810   19.7340 C   0  0  0  0  0  3  0  0  0  0  0  0
  -28.6870  -13.0320   20.8050 C   0  0  0  0  0  2  0  0  0  0  0  0
  -29.9920  -13.3720   20.2140 N   0  0  0  0  0  0  0  0  0  0  0  0
  -31.7390  -14.7860   19.8320 O   0  0  0  0  0  0  0  0  0  0  0  0
  -29.9520  -15.5270   21.0080 N   0  0  0  0  0  0  0  0  0  0  0  0
  -29.1220  -15.2150   21.4850 H   0  0  0  0  0  0  0  0  0  0  0  0
  -25.2190  -13.8640   20.5080 C   0  0  0  0  0  0  0  0  0  0  0  0
  -24.1630  -13.0810   20.8920 C   0  0  0  0  0  0  0  0  0  0  0  0
  -24.6300  -11.7320   20.8310 C   0  0  0  0  0  0  0  0  0  0  0  0
  -26.2620  -12.9920   20.2400 N   0  0  0  0  0  0  0  0  0  0  0  0
  -25.9120  -11.7040   20.4900 N   0  0  0  0  0  0  0  0  0  0  0  0
  -23.9150  -10.4630   21.0220 C   0  0  0  0  0  0  0  0  0  0  0  0
  -24.3620   -9.4950   21.9460 C   0  0  0  0  0  3  0  0  0  0  0  0
  -23.6480   -8.2910   22.1240 C   0  0  0  0  0  3  0  0  0  0  0  0
  -22.4720   -8.0460   21.3770 C   0  0  0  0  0  0  0  0  0  0  0  0
  -22.0440   -9.0040   20.4400 C   0  0  0  0  0  3  0  0  0  0  0  0
  -22.7580  -10.1990   20.2610 C   0  0  0  0  0  3  0  0  0  0  0  0
  -21.7280   -6.8950   21.4630 O   0  0  0  0  0  0  0  0  0  0  0  0
  -21.6750   -6.1590   22.6200 C   0  0  0  0  0  0  0  0  0  0  0  0
  -21.2130   -6.7110   23.8340 C   0  0  0  0  0  3  0  0  0  0  0  0
  -21.1090   -5.9000   24.9820 C   0  0  0  0  0  3  0  0  0  0  0  0
  -21.4550   -4.5380   24.9150 C   0  0  0  0  0  0  0  0  0  0  0  0
  -21.9080   -3.9840   23.7060 C   0  0  0  0  0  3  0  0  0  0  0  0
  -22.0150   -4.7920   22.5600 C   0  0  0  0  0  0  0  0  0  0  0  0
  -22.4320   -4.2490   21.3910 F   0  0  0  0  0  0  0  0  0  0  0  0
  -21.3460   -3.7560   26.0150 F   0  0  0  0  0  0  0  0  0  0  0  0
  -22.7710  -13.5470   21.2060 C   0  0  0  0  0  0  0  0  0  0  0  0
  -22.0690  -12.8360   22.0810 N   0  0  0  0  0  0  0  0  0  0  0  0
  -22.3130  -14.5760   20.7100 O   0  0  0  0  0  0  0  0  0  0  0  0
  -22.4510  -12.0040   22.5060 H   0  0  0  0  0  0  0  0  0  0  0  0
  -21.1350  -13.1290   22.3340 H   0  0  0  0  0  0  0  0  0  0  0  0
  -25.3740  -15.2380   20.3470 N   0  0  0  0  0  0  0  0  0  0  0  0
  -24.6100  -15.8910   20.4860 H   0  0  0  0  0  0  0  0  0  0  0  0
  -26.2160  -15.6820   20.0010 H   0  0  0  0  0  0  0  0  0  0  0  0
  -29.4760  -22.8610   20.5850 C   0  0  0  0  0  2  0  0  0  0  0  0
  -29.5110  -24.4330   20.6230 C   0  0  0  0  0  2  0  0  0  0  0  0
  -28.2620  -25.2180   20.1230 C   0  0  0  0  0  2  0  0  0  0  0  0
  -28.3940  -26.6570   20.2930 O   0  0  0  0  0  0  0  0  0  0  0  0
  -24.6180  -31.9230   23.3180 C   0  0  0  0  0  0  0  0  0  0  0  0
  -27.2380  -27.4270   20.2520 C   0  0  0  0  0  0  0  0  0  0  0  0
  -23.4090  -30.5270   21.6750 C   0  0  0  0  0  3  0  0  0  0  0  0
  -24.8580  -28.9810   20.2520 C   0  0  0  0  0  0  0  0  0  0  0  0
  -25.9410  -30.8630   21.4850 C   0  0  0  0  0  2  0  0  0  0  0  0
  -26.0200  -29.4890   20.8430 C   0  0  0  0  0  0  0  0  0  0  0  0
  -27.2130  -28.7210   20.8370 C   0  0  0  0  0  3  0  0  0  0  0  0
  -26.0520  -26.9490   19.6470 C   0  0  0  0  0  3  0  0  0  0  0  0
  -24.8700  -27.7140   19.6480 C   0  0  0  0  0  3  0  0  0  0  0  0
  -23.6190  -29.8500   20.2950 C   0  0  0  0  0  2  0  0  0  0  0  0
  -24.6740  -31.1200   22.2170 N   0  0  0  0  0  0  0  0  0  0  0  0
  -23.5360  -32.2020   23.8550 O   0  0  0  0  0  0  0  0  0  0  0  0
  -22.7480  -29.5100   22.6330 C   0  0  0  0  0  0  0  0  0  0  0  0
  -21.4290  -29.3140   22.4840 N   0  0  0  0  0  0  0  0  0  0  0  0
  -23.4230  -28.9000   23.4680 O   0  0  0  0  0  0  0  0  0  0  0  0
  -20.9450  -29.8540   21.7800 H   0  0  0  0  0  0  0  0  0  0  0  0
  -18.0610  -28.0760   22.9200 C   0  0  0  0  0  0  0  0  0  0  0  0
  -20.6080  -28.3770   23.2510 C   0  0  0  0  0  3  0  0  0  0  0  0
  -20.7460  -26.9380   22.7000 C   0  0  0  0  0  2  0  0  0  0  0  0
  -19.6750  -26.5830   21.6650 C   0  0  0  0  0  2  0  0  0  0  0  0
  -18.2750  -26.7180   22.2720 C   0  0  0  0  0  2  0  0  0  0  0  0
  -19.1580  -28.8610   23.3660 C   0  0  0  0  0  0  0  0  0  0  0  0
  -18.9060  -30.1310   23.9290 C   0  0  0  0  0  3  0  0  0  0  0  0
  -17.5900  -30.6150   24.0530 C   0  0  0  0  0  3  0  0  0  0  0  0
  -16.5080  -29.8270   23.6250 C   0  0  0  0  0  3  0  0  0  0  0  0
  -16.7440  -28.5600   23.0640 C   0  0  0  0  0  3  0  0  0  0  0  0
  -25.9050  -32.5500   23.9390 C   0  0  0  0  0  3  0  0  0  0  0  0
  -26.4120  -31.7840   25.2220 C   0  0  1  0  0  0  0  0  0  0  0  0
  -25.3130  -31.5590   26.2850 C   0  0  0  0  0  1  0  0  0  0  0  0
  -26.9890  -30.4020   24.8390 C   0  0  0  0  0  1  0  0  0  0  0  0
  -27.5640  -32.5760   25.8860 C   0  0  0  0  0  1  0  0  0  0  0  0
  -25.6050  -33.9520   24.2570 N   0  0  0  0  0  0  0  0  0  0  0  0
  -25.9290  -34.9940   23.4800 C   0  0  0  0  0  0  0  0  0  0  0  0
  -26.5830  -34.8760   22.4400 O   0  0  0  0  0  0  0  0  0  0  0  0
  -25.0230  -34.1200   25.0660 H   0  0  0  0  0  0  0  0  0  0  0  0
  -24.1900  -36.7770   23.1410 C   0  0  0  0  0  1  0  0  0  0  0  0
  -25.4520  -36.3890   23.9280 C   0  0  0  0  0  3  0  0  0  0  0  0
  -27.6030  -37.2900   24.6960 C   0  0  0  0  0  1  0  0  0  0  0  0
  -26.4810  -37.4410   23.7720 N   0  0  0  0  0  0  0  0  0  0  0  0
  -26.0770  -38.3620   23.9150 H   0  0  0  0  0  0  0  0  0  0  0  0
  1  2  2  0
  2  5  1  0
  2  4  1  0
  3  6  1  0
  3  1  1  0
  8 11  1  0
  9  7  1  0
 10  8  2  0
 10 12  1  0
 11  1  1  0
 11  7  2  0
 12  9  2  0
 13 21  1  0
 14 19  1  0
 15 16  1  0
 15 14  1  0
 17 16  1  0
 17 26  1  0
 17 18  1  0
 19 13  1  0
 19 18  1  0
 20 13  2  0
 21 12  1  0
 21 22  1  0
 23 24  2  0
 24 43  1  0
 25 24  1  0
 25 28  1  0
 26 27  1  0
 26 23  1  0
 27 25  2  0
 28 29  1  0
 29 30  2  0
 31 34  1  0
 31 30  1  0
 32 31  2  0
 33 32  1  0
 33 28  2  0
 34 35  1  0
 35 36  1  0
 36 37  2  0
 38 37  1  0
 38 42  1  0
 39 38  2  0
 40 35  2  0
 40 39  1  0
 41 40  1  0
 43 44  1  0
 44 47  1  0
 44 46  1  0
 45 43  2  0
 48 49  1  0
 48 23  1  0
 50 48  1  0
 51 52  1  0
 51  3  1  0
 53 54  1  0
 53 52  1  0
 55 66  2  0
 56 54  1  0
 56 61  1  0
 57 65  1  0
 57 67  1  0
 58 64  1  0
 58 60  1  0
 59 65  1  0
 60 59  1  0
 61 60  2  0
 62 63  1  0
 62 56  2  0
 63 58  2  0
 64 57  1  0
 65 55  1  0
 67 69  2  0
 68 67  1  0
 70 68  1  0
 71 80  2  0
 71 76  1  0
 72 68  1  0
 72 76  1  0
 73 72  1  0
 74 75  1  0
 74 73  1  0
 75 71  1  0
 76 77  2  0
 77 78  1  0
 79 78  2  0
 80 79  1  0
 81 55  1  0
 81 86  1  0
 81 82  1  0
 82 85  1  1
 82 83  1  0
 84 82  1  0
 86 89  1  0
 87 91  1  0
 87 86  1  0
 88 87  2  0
 91 90  1  0
 93 94  1  0
 93 91  1  0
 93 92  1  0
M  ISO  4  13 100  21 100  53 101  54 101
M  END
>  <TORSDO>  (59) 
F 20

>  <SCORE>  (59) 
-14.072

>  <name>  (59) 
58

>  <ligand_id>  (59) 
58

>  <original_smiles>  (59) 
[H]c1c([H])c([H])c2c(c1[H])C([H])([H])C([H])([H])C([H])([H])C2([H])N([H])C(=O)C1([H])N(C(=O)C([H])(N([H])C(=O)C([H])(N([H])C([H])([H])[H])C([H])([H])[H])C(C([H])([H])[H])(C([H])([H])[H])C([H])([H])[H])C([H])([H])c2c([H])c(OC([H])([H])C([H])([H])C([H])([H])[N+]([H])=C(c3c([H])c([H])c(N([H])C(=O)N4C([H])([H])C([H])([H])C([H])([H])C([H])(n5nc(-c6c([H])c([H])c(Oc7c([H])c([H])c(F)c([H])c7F)c([H])c6[H])c(C(=O)N([H])[H])c5N([H])[H])C4([H])[H])c([H])c3[H])N([H])[H])c([H])c([H])c2C1([H])[H]

>  <smiles>  (59) 
[H]c1c([H])c([H])c2c(c1[H])C([H])([H])C([H])([H])C([H])([H])C2([H])N([H])C(=O)C1([H])N(C(=O)C([H])(N([H])C(=O)C([H])(N([H])C([H])([H])[H])C([H])([H])[H])C(C([H])([H])[H])(C([H])([H])[H])C([H])([H])[H])C([H])([H])c2c([H])c(OC([H])([H])C([H])([H])C([H])([H])[N+]([H])=C(c3c([H])c([H])c(N([H])C(=O)N4C([H])([H])C([H])([H])C([H])([H])C([H])(n5nc(-c6c([H])c([H])c(Oc7c([H])c([H])c(F)c([H])c7F)c([H])c6[H])c(C(=O)N([H])[H])c5N([H])[H])C4([H])[H])c([H])c3[H])N([H])[H])c([H])c([H])c2C1([H])[H]

$$$$
59:0:0
     RDKit          3D

 91 99  0  0  1  0  0  0  0  0999 V2000
  -30.5010  -19.4830   20.7610 C   0  0  0  0  0  3  0  0  0  0  0  0
  -30.4190  -17.9660   18.8570 C   0  0  0  0  0  3  0  0  0  0  0  0
  -29.9530  -20.3470   18.5580 C   0  0  0  0  0  3  0  0  0  0  0  0
  -30.6210  -18.1650   20.2380 C   0  0  0  0  0  0  0  0  0  0  0  0
  -30.1530  -20.5890   19.9410 C   0  0  0  0  0  0  0  0  0  0  0  0
  -30.0900  -19.0510   18.0240 C   0  0  0  0  0  0  0  0  0  0  0  0
  -29.9020  -18.8440   16.6980 F   0  0  0  0  0  0  0  0  0  0  0  0
  -30.9720  -16.9700   21.1500 C   0  0  0  0  0  2  0  0  0  0  0  0
  -30.7120  -14.5770   20.4590 C   0  0  0  0  0  0  0  0  0  0  0  0
  -30.4000  -12.4020   19.3050 C   0  0  0  0  0  2  0  0  0  0  0  0
  -29.4610  -12.5570   18.0900 C   0  0  0  0  0  2  0  0  0  0  0  0
  -27.9850  -12.4020   18.5080 C   0  0  0  0  0  2  0  0  0  0  0  0
  -27.6370  -13.2390   19.7670 C   0  0  0  0  0  3  0  0  0  0  0  0
  -28.6990  -13.0130   20.8730 C   0  0  0  0  0  2  0  0  0  0  0  0
  -29.9990  -13.4090   20.3130 N   0  0  0  0  0  0  0  0  0  0  0  0
  -31.8710  -14.6230   20.0330 O   0  0  0  0  0  0  0  0  0  0  0  0
  -28.7310  -16.0790   21.1450 C   0  0  0  0  0  1  0  0  0  0  0  0
  -30.1530  -15.7360   20.9620 N   0  0  0  0  0  0  0  0  0  0  0  0
  -25.2350  -13.8820   20.4240 C   0  0  0  0  0  0  0  0  0  0  0  0
  -24.1580  -13.1230   20.7940 C   0  0  0  0  0  0  0  0  0  0  0  0
  -24.6140  -11.7700   20.7990 C   0  0  0  0  0  0  0  0  0  0  0  0
  -26.2800  -12.9890   20.2340 N   0  0  0  0  0  0  0  0  0  0  0  0
  -25.9080  -11.7160   20.5160 N   0  0  0  0  0  0  0  0  0  0  0  0
  -23.8810  -10.5150   20.9990 C   0  0  0  0  0  0  0  0  0  0  0  0
  -24.3100   -9.5540   21.9400 C   0  0  0  0  0  3  0  0  0  0  0  0
  -23.5810   -8.3610   22.1290 C   0  0  0  0  0  3  0  0  0  0  0  0
  -22.4070   -8.1220   21.3760 C   0  0  0  0  0  0  0  0  0  0  0  0
  -21.9960   -9.0700   20.4230 C   0  0  0  0  0  3  0  0  0  0  0  0
  -22.7270  -10.2550   20.2330 C   0  0  0  0  0  3  0  0  0  0  0  0
  -21.6500   -6.9800   21.4740 O   0  0  0  0  0  0  0  0  0  0  0  0
  -21.6120   -6.2380   22.6270 C   0  0  0  0  0  0  0  0  0  0  0  0
  -21.2220   -6.8010   23.8620 C   0  0  0  0  0  3  0  0  0  0  0  0
  -21.1310   -5.9880   25.0090 C   0  0  0  0  0  3  0  0  0  0  0  0
  -21.4210   -4.6130   24.9220 C   0  0  0  0  0  0  0  0  0  0  0  0
  -21.8050   -4.0490   23.6920 C   0  0  0  0  0  3  0  0  0  0  0  0
  -21.8970   -4.8600   22.5470 C   0  0  0  0  0  0  0  0  0  0  0  0
  -22.2470   -4.3090   21.3600 F   0  0  0  0  0  0  0  0  0  0  0  0
  -21.3230   -3.8290   26.0220 F   0  0  0  0  0  0  0  0  0  0  0  0
  -22.7580  -13.6110   21.0330 C   0  0  0  0  0  0  0  0  0  0  0  0
  -22.0160  -12.9380   21.9050 N   0  0  0  0  0  0  0  0  0  0  0  0
  -22.3310  -14.6250   20.4820 O   0  0  0  0  0  0  0  0  0  0  0  0
  -22.3740  -12.1180   22.3710 H   0  0  0  0  0  0  0  0  0  0  0  0
  -21.0770  -13.2480   22.1100 H   0  0  0  0  0  0  0  0  0  0  0  0
  -25.4060  -15.2460   20.2100 N   0  0  0  0  0  0  0  0  0  0  0  0
  -24.6390  -15.9070   20.2820 H   0  0  0  0  0  0  0  0  0  0  0  0
  -26.2600  -15.6660   19.8710 H   0  0  0  0  0  0  0  0  0  0  0  0
  -30.0350  -21.8500   20.5250 O   0  0  0  0  0  0  0  0  0  0  0  0
  -29.4050  -22.9050   19.7700 C   0  0  0  0  0  2  0  0  0  0  0  0
  -29.3090  -24.2730   20.5120 C   0  0  0  0  0  2  0  0  0  0  0  0
  -28.2630  -25.2290   19.8690 C   0  0  0  0  0  2  0  0  0  0  0  0
  -28.3560  -26.6270   20.2450 O   0  0  0  0  0  0  0  0  0  0  0  0
  -24.5900  -31.9060   23.2340 C   0  0  0  0  0  0  0  0  0  0  0  0
  -27.2030  -27.4010   20.1780 C   0  0  0  0  0  0  0  0  0  0  0  0
  -23.3790  -30.5090   21.5940 C   0  0  0  0  0  3  0  0  0  0  0  0
  -24.8250  -28.9610   20.1730 C   0  0  0  0  0  0  0  0  0  0  0  0
  -25.9130  -30.8360   21.4090 C   0  0  0  0  0  2  0  0  0  0  0  0
  -25.9870  -29.4610   20.7730 C   0  0  0  0  0  0  0  0  0  0  0  0
  -27.1750  -28.6870   20.7780 C   0  0  0  0  0  3  0  0  0  0  0  0
  -26.0220  -26.9440   19.5420 C   0  0  0  0  0  3  0  0  0  0  0  0
  -24.8400  -27.7030   19.5540 C   0  0  0  0  0  3  0  0  0  0  0  0
  -23.5890  -29.8300   20.2150 C   0  0  0  0  0  2  0  0  0  0  0  0
  -24.6460  -31.0990   22.1360 N   0  0  0  0  0  0  0  0  0  0  0  0
  -23.5080  -32.1880   23.7700 O   0  0  0  0  0  0  0  0  0  0  0  0
  -22.7190  -29.4920   22.5550 C   0  0  0  0  0  0  0  0  0  0  0  0
  -21.3920  -29.3240   22.4300 N   0  0  0  0  0  0  0  0  0  0  0  0
  -23.3960  -28.8590   23.3690 O   0  0  0  0  0  0  0  0  0  0  0  0
  -20.9080  -29.8840   21.7420 H   0  0  0  0  0  0  0  0  0  0  0  0
  -18.0030  -28.1720   22.9330 C   0  0  0  0  0  0  0  0  0  0  0  0
  -20.5650  -28.3950   23.2010 C   0  0  0  0  0  3  0  0  0  0  0  0
  -20.6500  -26.9660   22.6180 C   0  0  0  0  0  2  0  0  0  0  0  0
  -19.5410  -26.6590   21.6070 C   0  0  0  0  0  2  0  0  0  0  0  0
  -18.1620  -26.8210   22.2550 C   0  0  0  0  0  2  0  0  0  0  0  0
  -19.1320  -28.9180   23.3620 C   0  0  0  0  0  0  0  0  0  0  0  0
  -18.9320  -30.1830   23.9560 C   0  0  0  0  0  3  0  0  0  0  0  0
  -17.6350  -30.7010   24.1260 C   0  0  0  0  0  3  0  0  0  0  0  0
  -16.5200  -29.9500   23.7140 C   0  0  0  0  0  3  0  0  0  0  0  0
  -16.7050  -28.6890   23.1230 C   0  0  0  0  0  3  0  0  0  0  0  0
  -25.8780  -32.5290   23.8560 C   0  0  0  0  0  3  0  0  0  0  0  0
  -25.5740  -33.9260   24.1920 N   0  0  0  0  0  0  0  0  0  0  0  0
  -25.9050  -34.9810   23.4340 C   0  0  0  0  0  0  0  0  0  0  0  0
  -26.5710  -34.8800   22.4000 O   0  0  0  0  0  0  0  0  0  0  0  0
  -24.9840  -34.0800   24.9960 H   0  0  0  0  0  0  0  0  0  0  0  0
  -24.1760  -36.7750   23.0970 C   0  0  0  0  0  1  0  0  0  0  0  0
  -25.4220  -36.3680   23.8980 C   0  0  0  0  0  3  0  0  0  0  0  0
  -27.5640  -37.2470   24.7160 C   0  0  0  0  0  1  0  0  0  0  0  0
  -26.4540  -37.4220   23.7830 N   0  0  0  0  0  0  0  0  0  0  0  0
  -26.0500  -38.3410   23.9400 H   0  0  0  0  0  0  0  0  0  0  0  0
  -26.3960  -31.7500   25.1260 C   0  0  1  0  0  0  0  0  0  0  0  0
  -25.3060  -31.5130   26.1960 C   0  0  0  0  0  1  0  0  0  0  0  0
  -26.9710  -30.3710   24.7240 C   0  0  0  0  0  1  0  0  0  0  0  0
  -27.5520  -32.5380   25.7880 C   0  0  0  0  0  1  0  0  0  0  0  0
  2  4  2  0
  3  5  1  0
  4  1  1  0
  4  8  1  0
  5 47  1  0
  5  1  2  0
  6  3  2  0
  6  2  1  0
  7  6  1  0
  9 18  1  0
 10 15  1  0
 11 12  1  0
 11 10  1  0
 13 12  1  0
 13 22  1  0
 13 14  1  0
 15  9  1  0
 15 14  1  0
 16  9  2  0
 18 17  1  0
 18  8  1  0
 19 20  2  0
 20 21  1  0
 20 39  1  0
 21 24  1  0
 22 19  1  0
 22 23  1  0
 23 21  2  0
 24 25  1  0
 25 26  2  0
 27 30  1  0
 27 26  1  0
 28 27  2  0
 29 28  1  0
 29 24  2  0
 30 31  1  0
 31 32  1  0
 32 33  2  0
 34 33  1  0
 34 38  1  0
 35 34  2  0
 36 31  2  0
 36 35  1  0
 37 36  1  0
 39 40  1  0
 40 43  1  0
 40 42  1  0
 41 39  2  0
 44 45  1  0
 44 19  1  0
 46 44  1  0
 48 49  1  0
 48 47  1  0
 50 51  1  0
 50 49  1  0
 52 63  2  0
 53 51  1  0
 53 58  1  0
 54 62  1  0
 54 64  1  0
 55 61  1  0
 55 57  1  0
 56 62  1  0
 57 58  2  0
 57 56  1  0
 59 60  1  0
 59 53  2  0
 60 55  2  0
 61 54  1  0
 62 52  1  0
 64 66  2  0
 65 64  1  0
 67 65  1  0
 68 77  2  0
 68 73  1  0
 69 65  1  0
 69 73  1  0
 70 69  1  0
 71 72  1  0
 71 70  1  0
 72 68  1  0
 73 74  2  0
 74 75  1  0
 76 75  2  0
 77 76  1  0
 78 52  1  0
 78 79  1  0
 78 88  1  0
 79 82  1  0
 80 84  1  0
 80 79  1  0
 81 80  2  0
 84 83  1  0
 86 84  1  0
 86 87  1  0
 86 85  1  0
 88 91  1  1
 88 89  1  0
 90 88  1  0
M  ISO  4   9 100  18 100  50 101  51 101
M  END
>  <TORSDO>  (60) 
F 21

>  <SCORE>  (60) 
-13.429

>  <name>  (60) 
59

>  <ligand_id>  (60) 
59

>  <original_smiles>  (60) 
[H]c1c([H])c([H])c2c(c1[H])C([H])([H])C([H])([H])C([H])([H])C2([H])N([H])C(=O)C1([H])N(C(=O)C([H])(N([H])C(=O)C([H])(N([H])C([H])([H])[H])C([H])([H])[H])C(C([H])([H])[H])(C([H])([H])[H])C([H])([H])[H])C([H])([H])c2c([H])c(OC([H])([H])C([H])([H])C([H])([H])Oc3c([H])c(F)c([H])c(C([H])([H])N(C(=O)N4C([H])([H])C([H])([H])C([H])([H])C([H])(n5nc(-c6c([H])c([H])c(Oc7c([H])c([H])c(F)c([H])c7F)c([H])c6[H])c(C(=O)N([H])[H])c5N([H])[H])C4([H])[H])C([H])([H])[H])c3[H])c([H])c([H])c2C1([H])[H]

>  <smiles>  (60) 
[H]c1c([H])c([H])c2c(c1[H])C([H])([H])C([H])([H])C([H])([H])C2([H])N([H])C(=O)C1([H])N(C(=O)C([H])(N([H])C(=O)C([H])(N([H])C([H])([H])[H])C([H])([H])[H])C(C([H])([H])[H])(C([H])([H])[H])C([H])([H])[H])C([H])([H])c2c([H])c(OC([H])([H])C([H])([H])C([H])([H])Oc3c([H])c(F)c([H])c(C([H])([H])N(C(=O)N4C([H])([H])C([H])([H])C([H])([H])C([H])(n5nc(-c6c([H])c([H])c(Oc7c([H])c([H])c(F)c([H])c7F)c([H])c6[H])c(C(=O)N([H])[H])c5N([H])[H])C4([H])[H])C([H])([H])[H])c3[H])c([H])c([H])c2C1([H])[H]

$$$$
60:0:0
     RDKit          3D

 93101  0  0  1  0  0  0  0  0999 V2000
  -29.3650  -19.3760   22.0840 C   0  0  0  0  0  3  0  0  0  0  0  0
  -29.2680  -20.7950   22.1490 C   0  0  0  0  0  3  0  0  0  0  0  0
  -30.2310  -19.5560   19.8570 C   0  0  0  0  0  3  0  0  0  0  0  0
  -29.7890  -18.6970   20.9100 C   0  0  0  0  0  0  0  0  0  0  0  0
  -29.5910  -21.6510   21.0660 C   0  0  0  0  0  0  0  0  0  0  0  0
  -30.1350  -20.9900   19.9220 C   0  0  0  0  0  0  0  0  0  0  0  0
  -30.5510  -21.7180   18.8590 F   0  0  0  0  0  0  0  0  0  0  0  0
  -29.4570  -17.1510   20.7180 C   0  0  0  0  0  3  0  0  0  0  0  0
  -30.8300  -14.9330   20.0600 C   0  0  0  0  0  0  0  0  0  0  0  0
  -30.4720  -12.7010   18.9740 C   0  0  0  0  0  2  0  0  0  0  0  0
  -29.4770  -12.7380   17.7920 C   0  0  0  0  0  2  0  0  0  0  0  0
  -28.0470  -12.5030   18.3100 C   0  0  0  0  0  2  0  0  0  0  0  0
  -27.7110  -13.4350   19.4930 C   0  0  0  0  0  3  0  0  0  0  0  0
  -28.8170  -13.4380   20.5830 C   0  0  0  0  0  2  0  0  0  0  0  0
  -30.1070  -13.7580   19.9570 N   0  0  0  0  0  0  0  0  0  0  0  0
  -31.9210  -15.0060   19.4830 O   0  0  0  0  0  0  0  0  0  0  0  0
  -31.4580  -16.3500   21.8940 C   0  0  0  0  0  1  0  0  0  0  0  0
  -30.4480  -15.9850   20.8950 N   0  0  0  0  0  0  0  0  0  0  0  0
  -25.3580  -14.0520   20.3510 C   0  0  0  0  0  0  0  0  0  0  0  0
  -24.3100  -13.2830   20.7680 C   0  0  0  0  0  0  0  0  0  0  0  0
  -24.7660  -11.9350   20.6950 C   0  0  0  0  0  0  0  0  0  0  0  0
  -26.3900  -13.1720   20.0550 N   0  0  0  0  0  0  0  0  0  0  0  0
  -26.0430  -11.8920   20.3370 N   0  0  0  0  0  0  0  0  0  0  0  0
  -24.0460  -10.6750   20.8930 C   0  0  0  0  0  0  0  0  0  0  0  0
  -24.4590   -9.7380   21.8640 C   0  0  0  0  0  3  0  0  0  0  0  0
  -23.7410   -8.5390   22.0470 C   0  0  0  0  0  3  0  0  0  0  0  0
  -22.5980   -8.2700   21.2560 C   0  0  0  0  0  0  0  0  0  0  0  0
  -22.2050   -9.1980   20.2740 C   0  0  0  0  0  3  0  0  0  0  0  0
  -22.9240  -10.3890   20.0910 C   0  0  0  0  0  3  0  0  0  0  0  0
  -21.8530   -7.1210   21.3460 O   0  0  0  0  0  0  0  0  0  0  0  0
  -21.6920   -6.4620   22.5380 C   0  0  0  0  0  0  0  0  0  0  0  0
  -21.1000   -7.0840   23.6590 C   0  0  0  0  0  3  0  0  0  0  0  0
  -20.8900   -6.3460   24.8400 C   0  0  0  0  0  3  0  0  0  0  0  0
  -21.2660   -4.9910   24.9010 C   0  0  0  0  0  0  0  0  0  0  0  0
  -21.8520   -4.3710   23.7840 C   0  0  0  0  0  3  0  0  0  0  0  0
  -22.0630   -5.1040   22.6050 C   0  0  0  0  0  0  0  0  0  0  0  0
  -22.6080   -4.4960   21.5250 F   0  0  0  0  0  0  0  0  0  0  0  0
  -21.0530   -4.2820   26.0330 F   0  0  0  0  0  0  0  0  0  0  0  0
  -22.9350  -13.7690   21.1180 C   0  0  0  0  0  0  0  0  0  0  0  0
  -22.2470  -13.0710   22.0190 N   0  0  0  0  0  0  0  0  0  0  0  0
  -22.4860  -14.8070   20.6330 O   0  0  0  0  0  0  0  0  0  0  0  0
  -22.6380  -12.2450   22.4450 H   0  0  0  0  0  0  0  0  0  0  0  0
  -21.3240  -13.3730   22.3030 H   0  0  0  0  0  0  0  0  0  0  0  0
  -25.4800  -15.4170   20.1740 N   0  0  0  0  0  0  0  0  0  0  0  0
  -24.6630  -16.0190   20.2160 H   0  0  0  0  0  0  0  0  0  0  0  0
  -26.2910  -15.8850   19.7960 H   0  0  0  0  0  0  0  0  0  0  0  0
  -27.1830  -17.9950   19.8050 C   0  0  0  0  0  1  0  0  0  0  0  0
  -28.7300  -16.8330   18.1950 C   0  0  0  0  0  1  0  0  0  0  0  0
  -28.3280  -16.9660   19.6790 C   0  0  0  0  0  3  0  0  0  0  0  0
  -29.3250  -23.0290   21.2600 O   0  0  0  0  0  0  0  0  0  0  0  0
  -29.3580  -24.1060   20.2590 C   0  0  0  0  0  2  0  0  0  0  0  0
  -28.4200  -25.3490   20.6580 C   0  0  0  0  0  2  0  0  0  0  0  0
  -28.5140  -26.6900   20.0240 O   0  0  0  0  0  0  0  0  0  0  0  0
  -24.5990  -31.8860   23.1740 C   0  0  0  0  0  0  0  0  0  0  0  0
  -27.3580  -27.4880   20.0290 C   0  0  0  0  0  0  0  0  0  0  0  0
  -23.4300  -30.4820   21.5070 C   0  0  0  0  0  3  0  0  0  0  0  0
  -24.9280  -29.0030   20.0510 C   0  0  0  0  0  0  0  0  0  0  0  0
  -25.9520  -30.8980   21.3070 C   0  0  0  0  0  2  0  0  0  0  0  0
  -26.0810  -29.5320   20.6430 C   0  0  0  0  0  0  0  0  0  0  0  0
  -27.3010  -28.7870   20.6150 C   0  0  0  0  0  3  0  0  0  0  0  0
  -26.1780  -27.0050   19.4180 C   0  0  0  0  0  3  0  0  0  0  0  0
  -24.9750  -27.7430   19.4320 C   0  0  0  0  0  3  0  0  0  0  0  0
  -23.6610  -29.8340   20.1150 C   0  0  0  0  0  2  0  0  0  0  0  0
  -24.6780  -31.1060   22.0550 N   0  0  0  0  0  0  0  0  0  0  0  0
  -23.5110  -32.1150   23.7220 O   0  0  0  0  0  0  0  0  0  0  0  0
  -22.7990  -29.4330   22.4530 C   0  0  0  0  0  0  0  0  0  0  0  0
  -21.4750  -29.2290   22.3350 N   0  0  0  0  0  0  0  0  0  0  0  0
  -23.5000  -28.8020   23.2470 O   0  0  0  0  0  0  0  0  0  0  0  0
  -20.9640  -29.7890   21.6650 H   0  0  0  0  0  0  0  0  0  0  0  0
  -18.1290  -27.9630   22.8590 C   0  0  0  0  0  0  0  0  0  0  0  0
  -20.6870  -28.2570   23.0930 C   0  0  0  0  0  3  0  0  0  0  0  0
  -20.8010  -26.8450   22.4690 C   0  0  0  0  0  2  0  0  0  0  0  0
  -19.6880  -26.5390   21.4630 C   0  0  0  0  0  2  0  0  0  0  0  0
  -18.3160  -26.6390   22.1360 C   0  0  0  0  0  2  0  0  0  0  0  0
  -19.2420  -28.7300   23.2930 C   0  0  0  0  0  0  0  0  0  0  0  0
  -19.0150  -29.9690   23.9300 C   0  0  0  0  0  3  0  0  0  0  0  0
  -17.7060  -30.4430   24.1350 C   0  0  0  0  0  3  0  0  0  0  0  0
  -16.6060  -29.6730   23.7200 C   0  0  0  0  0  3  0  0  0  0  0  0
  -16.8180  -28.4350   23.0860 C   0  0  0  0  0  3  0  0  0  0  0  0
  -25.8660  -32.5420   23.8070 C   0  0  0  0  0  3  0  0  0  0  0  0
  -25.5220  -33.9270   24.1610 N   0  0  0  0  0  0  0  0  0  0  0  0
  -25.8180  -34.9980   23.4150 C   0  0  0  0  0  0  0  0  0  0  0  0
  -26.4820  -34.9280   22.3750 O   0  0  0  0  0  0  0  0  0  0  0  0
  -24.9340  -34.0540   24.9720 H   0  0  0  0  0  0  0  0  0  0  0  0
  -24.0430  -36.7500   23.1020 C   0  0  0  0  0  1  0  0  0  0  0  0
  -25.3020  -36.3680   23.8960 C   0  0  0  0  0  3  0  0  0  0  0  0
  -27.4160  -37.3000   24.7280 C   0  0  0  0  0  1  0  0  0  0  0  0
  -26.3070  -37.4480   23.7890 N   0  0  0  0  0  0  0  0  0  0  0  0
  -25.8770  -38.3550   23.9500 H   0  0  0  0  0  0  0  0  0  0  0  0
  -26.4070  -31.7610   25.0650 C   0  0  1  0  0  0  0  0  0  0  0  0
  -25.3240  -31.4670   26.1290 C   0  0  0  0  0  1  0  0  0  0  0  0
  -27.0280  -30.4090   24.6440 C   0  0  0  0  0  1  0  0  0  0  0  0
  -27.5370  -32.5710   25.7390 C   0  0  0  0  0  1  0  0  0  0  0  0
  1  2  1  0
  3  6  2  0
  3  4  1  0
  4  1  2  0
  5 50  1  0
  5  2  2  0
  6  5  1  0
  7  6  1  0
  8 49  1  0
  8 18  1  0
  8  4  1  0
  9 18  1  0
 10 15  1  0
 11 12  1  0
 11 10  1  0
 13 12  1  0
 13 22  1  0
 13 14  1  0
 15  9  1  0
 15 14  1  0
 16  9  2  0
 18 17  1  0
 19 20  2  0
 20 39  1  0
 21 20  1  0
 21 24  1  0
 22 23  1  0
 22 19  1  0
 23 21  2  0
 24 25  1  0
 25 26  2  0
 27 30  1  0
 27 26  1  0
 28 27  2  0
 29 28  1  0
 29 24  2  0
 30 31  1  0
 31 36  2  0
 31 32  1  0
 32 33  2  0
 33 34  1  0
 34 38  1  0
 35 34  2  0
 36 35  1  0
 37 36  1  0
 39 40  1  0
 40 43  1  0
 40 42  1  0
 41 39  2  0
 44 45  1  0
 44 19  1  0
 46 44  1  0
 48 49  1  0
 49 47  1  0
 51 52  1  0
 51 50  1  0
 53 55  1  0
 53 52  1  0
 54 65  2  0
 55 60  1  0
 56 64  1  0
 56 66  1  0
 57 63  1  0
 57 59  1  0
 58 64  1  0
 59 58  1  0
 60 59  2  0
 61 62  1  0
 61 55  2  0
 62 57  2  0
 63 56  1  0
 64 54  1  0
 66 68  2  0
 67 66  1  0
 69 67  1  0
 70 79  2  0
 70 75  1  0
 71 67  1  0
 71 75  1  0
 72 71  1  0
 73 74  1  0
 73 72  1  0
 74 70  1  0
 75 76  2  0
 76 77  1  0
 78 77  2  0
 79 78  1  0
 80 54  1  0
 80 81  1  0
 80 90  1  0
 81 84  1  0
 82 86  1  0
 82 81  1  0
 83 82  2  0
 86 85  1  0
 88 86  1  0
 88 89  1  0
 88 87  1  0
 90 93  1  1
 90 91  1  0
 92 90  1  0
M  ISO  4   9 100  18 100  52 101  53 101
M  END
>  <TORSDO>  (61) 
F 21

>  <SCORE>  (61) 
-11.396

>  <name>  (61) 
60

>  <ligand_id>  (61) 
60

>  <original_smiles>  (61) 
[H]c1c([H])c([H])c2c(c1[H])C([H])([H])C([H])([H])C([H])([H])C2([H])N([H])C(=O)C1([H])N(C(=O)C([H])(N([H])C(=O)C([H])(N([H])C([H])([H])[H])C([H])([H])[H])C(C([H])([H])[H])(C([H])([H])[H])C([H])([H])[H])C([H])([H])c2c([H])c(OC([H])([H])C([H])([H])Oc3c([H])c([H])c(C([H])(N(C(=O)N4C([H])([H])C([H])([H])C([H])([H])C([H])(n5nc(-c6c([H])c([H])c(Oc7c([H])c([H])c(F)c([H])c7F)c([H])c6[H])c(C(=O)N([H])[H])c5N([H])[H])C4([H])[H])C([H])([H])[H])C([H])(C([H])([H])[H])C([H])([H])[H])c([H])c3F)c([H])c([H])c2C1([H])[H]

>  <smiles>  (61) 
[H]c1c([H])c([H])c2c(c1[H])C([H])([H])C([H])([H])C([H])([H])C2([H])N([H])C(=O)C1([H])N(C(=O)C([H])(N([H])C(=O)C([H])(N([H])C([H])([H])[H])C([H])([H])[H])C(C([H])([H])[H])(C([H])([H])[H])C([H])([H])[H])C([H])([H])c2c([H])c(OC([H])([H])C([H])([H])Oc3c([H])c([H])c(C([H])(N(C(=O)N4C([H])([H])C([H])([H])C([H])([H])C([H])(n5nc(-c6c([H])c([H])c(Oc7c([H])c([H])c(F)c([H])c7F)c([H])c6[H])c(C(=O)N([H])[H])c5N([H])[H])C4([H])[H])C([H])([H])[H])C([H])(C([H])([H])[H])C([H])([H])[H])c([H])c3F)c([H])c([H])c2C1([H])[H]

$$$$
61:0:0
     RDKit          3D

 92100  0  0  1  0  0  0  0  0999 V2000
  -29.8370  -17.4840   18.7800 C   0  0  0  0  0  3  0  0  0  0  0  0
  -29.6580  -18.9020   18.6790 C   0  0  0  0  0  3  0  0  0  0  0  0
  -31.3540  -17.8540   20.5860 C   0  0  0  0  0  3  0  0  0  0  0  0
  -30.6990  -16.8960   19.7450 C   0  0  0  0  0  0  0  0  0  0  0  0
  -30.3030  -19.8490   19.5290 C   0  0  0  0  0  0  0  0  0  0  0  0
  -31.1660  -19.2690   20.5000 C   0  0  0  0  0  0  0  0  0  0  0  0
  -31.8480  -20.0600   21.3620 F   0  0  0  0  0  0  0  0  0  0  0  0
  -31.1160  -14.5100   18.8990 C   0  0  0  0  0  0  0  0  0  0  0  0
  -30.3910  -12.4810   17.6150 C   0  0  0  0  0  2  0  0  0  0  0  0
  -29.2040  -12.8100   16.6840 C   0  0  0  0  0  2  0  0  0  0  0  0
  -27.8660  -12.6800   17.4360 C   0  0  0  0  0  2  0  0  0  0  0  0
  -27.8900  -13.4110   18.8040 C   0  0  0  0  0  3  0  0  0  0  0  0
  -29.1520  -13.0420   19.6050 C   0  0  0  0  0  2  0  0  0  0  0  0
  -30.3290  -13.3840   18.7900 N   0  0  0  0  0  0  0  0  0  0  0  0
  -32.0490  -14.6910   18.1050 O   0  0  0  0  0  0  0  0  0  0  0  0
  -30.8680  -15.4220   19.9140 N   0  0  0  0  0  0  0  0  0  0  0  0
  -25.8120  -14.0830   20.1550 C   0  0  0  0  0  0  0  0  0  0  0  0
  -24.7910  -13.3470   20.6920 C   0  0  0  0  0  0  0  0  0  0  0  0
  -25.0930  -11.9820   20.4020 C   0  0  0  0  0  0  0  0  0  0  0  0
  -26.6740  -13.1670   19.5740 N   0  0  0  0  0  0  0  0  0  0  0  0
  -26.2630  -11.8900   19.7800 N   0  0  0  0  0  0  0  0  0  0  0  0
  -24.3090  -10.7620   20.6300 C   0  0  0  0  0  0  0  0  0  0  0  0
  -24.7600   -9.7470   21.5040 C   0  0  0  0  0  3  0  0  0  0  0  0
  -23.9790   -8.5920   21.7220 C   0  0  0  0  0  3  0  0  0  0  0  0
  -22.7330   -8.4430   21.0680 C   0  0  0  0  0  0  0  0  0  0  0  0
  -22.2980   -9.4470   20.1840 C   0  0  0  0  0  3  0  0  0  0  0  0
  -23.0780  -10.5940   19.9640 C   0  0  0  0  0  3  0  0  0  0  0  0
  -21.9220   -7.3410   21.1970 O   0  0  0  0  0  0  0  0  0  0  0  0
  -21.7570   -6.7060   22.4020 C   0  0  0  0  0  0  0  0  0  0  0  0
  -21.2500   -7.3760   23.5350 C   0  0  0  0  0  3  0  0  0  0  0  0
  -21.0290   -6.6670   24.7330 C   0  0  0  0  0  3  0  0  0  0  0  0
  -21.3080   -5.2890   24.7970 C   0  0  0  0  0  0  0  0  0  0  0  0
  -21.8100   -4.6180   23.6680 C   0  0  0  0  0  3  0  0  0  0  0  0
  -22.0310   -5.3240   22.4720 C   0  0  0  0  0  0  0  0  0  0  0  0
  -22.4940   -4.6670   21.3810 F   0  0  0  0  0  0  0  0  0  0  0  0
  -21.0890   -4.6070   25.9450 F   0  0  0  0  0  0  0  0  0  0  0  0
  -23.5570  -13.8860   21.3560 C   0  0  0  0  0  0  0  0  0  0  0  0
  -23.0090  -13.1520   22.3180 N   0  0  0  0  0  0  0  0  0  0  0  0
  -23.1000  -14.9870   21.0560 O   0  0  0  0  0  0  0  0  0  0  0  0
  -23.4000  -12.2590   22.5780 H   0  0  0  0  0  0  0  0  0  0  0  0
  -22.1880  -13.4870   22.8010 H   0  0  0  0  0  0  0  0  0  0  0  0
  -26.0710  -15.4500   20.0940 N   0  0  0  0  0  0  0  0  0  0  0  0
  -25.4320  -16.1420   20.4700 H   0  0  0  0  0  0  0  0  0  0  0  0
  -26.8850  -15.8630   19.6570 H   0  0  0  0  0  0  0  0  0  0  0  0
  -31.2880  -14.9330   21.2490 C   0  0  0  0  0  2  0  0  0  0  0  0
  -29.2520  -14.2980   22.9050 C   0  0  0  0  0  3  0  0  0  0  0  0
  -30.1750  -14.5940   22.1600 C   0  0  0  0  0  0  0  0  0  0  0  0
  -30.0630  -21.2340   19.3050 O   0  0  0  0  0  0  0  0  0  0  0  0
  -30.1720  -22.3030   20.3170 C   0  0  0  0  0  2  0  0  0  0  0  0
  -29.9660  -23.8050   19.7720 C   0  0  0  0  0  3  0  0  0  0  0  0
  -29.5540  -24.9720   20.7890 C   0  0  0  0  0  3  0  0  0  0  0  0
  -29.5830  -26.3960   20.3600 O   0  0  0  0  0  0  0  0  0  0  0  0
  -24.9630  -31.2090   23.1410 C   0  0  0  0  0  0  0  0  0  0  0  0
  -28.3710  -27.0900   20.2660 C   0  0  0  0  0  0  0  0  0  0  0  0
  -24.0820  -29.7120   21.3850 C   0  0  0  0  0  3  0  0  0  0  0  0
  -25.8300  -28.3840   20.0680 C   0  0  0  0  0  0  0  0  0  0  0  0
  -26.5660  -30.3540   21.4140 C   0  0  0  0  0  2  0  0  0  0  0  0
  -26.8750  -29.0120   20.7610 C   0  0  0  0  0  0  0  0  0  0  0  0
  -28.1530  -28.3810   20.8430 C   0  0  0  0  0  3  0  0  0  0  0  0
  -27.3040  -26.5070   19.5530 C   0  0  0  0  0  3  0  0  0  0  0  0
  -26.0480  -27.1400   19.4540 C   0  0  0  0  0  3  0  0  0  0  0  0
  -24.4920  -29.0980   20.0200 C   0  0  0  0  0  2  0  0  0  0  0  0
  -25.2160  -30.4430   22.0380 N   0  0  0  0  0  0  0  0  0  0  0  0
  -23.8150  -31.3360   23.5890 O   0  0  0  0  0  0  0  0  0  0  0  0
  -23.4790  -28.5990   22.2730 C   0  0  0  0  0  0  0  0  0  0  0  0
  -22.2030  -28.2510   22.0290 N   0  0  0  0  0  0  0  0  0  0  0  0
  -24.1620  -28.0520   23.1430 O   0  0  0  0  0  0  0  0  0  0  0  0
  -21.7090  -28.7450   21.3010 H   0  0  0  0  0  0  0  0  0  0  0  0
  -18.9850  -26.6210   22.2020 C   0  0  0  0  0  0  0  0  0  0  0  0
  -21.4500  -27.2050   22.7220 C   0  0  0  0  0  3  0  0  0  0  0  0
  -21.7890  -25.8090   22.1530 C   0  0  0  0  0  2  0  0  0  0  0  0
  -20.8480  -25.3770   21.0240 C   0  0  0  0  0  2  0  0  0  0  0  0
  -19.3990  -25.3300   21.5170 C   0  0  0  0  0  2  0  0  0  0  0  0
  -19.9480  -27.5110   22.7490 C   0  0  0  0  0  0  0  0  0  0  0  0
  -19.5110  -28.7180   23.3320 C   0  0  0  0  0  3  0  0  0  0  0  0
  -18.1410  -29.0420   23.3770 C   0  0  0  0  0  3  0  0  0  0  0  0
  -17.1910  -28.1510   22.8490 C   0  0  0  0  0  3  0  0  0  0  0  0
  -17.6140  -26.9410   22.2690 C   0  0  0  0  0  3  0  0  0  0  0  0
  -26.1020  -31.9820   23.8770 C   0  0  0  0  0  3  0  0  0  0  0  0
  -25.6370  -33.3610   24.0950 N   0  0  0  0  0  0  0  0  0  0  0  0
  -25.9610  -34.4030   23.3190 C   0  0  0  0  0  0  0  0  0  0  0  0
  -26.7460  -34.3130   22.3720 O   0  0  0  0  0  0  0  0  0  0  0  0
  -24.9440  -33.4970   24.8160 H   0  0  0  0  0  0  0  0  0  0  0  0
  -24.1300  -36.0090   22.6880 C   0  0  0  0  0  1  0  0  0  0  0  0
  -25.3080  -35.7610   23.6440 C   0  0  0  0  0  3  0  0  0  0  0  0
  -27.2530  -36.8820   24.6400 C   0  0  0  0  0  1  0  0  0  0  0  0
  -26.2530  -36.8970   23.5750 N   0  0  0  0  0  0  0  0  0  0  0  0
  -25.7570  -37.7830   23.6180 H   0  0  0  0  0  0  0  0  0  0  0  0
  -26.5180  -31.3160   25.2450 C   0  0  1  0  0  0  0  0  0  0  0  0
  -25.3240  -31.0170   26.1820 C   0  0  0  0  0  1  0  0  0  0  0  0
  -27.2670  -29.9850   24.9990 C   0  0  0  0  0  1  0  0  0  0  0  0
  -27.5010  -32.2410   26.0000 C   0  0  0  0  0  1  0  0  0  0  0  0
  1  4  1  0
  2  1  2  0
  2  5  1  0
  4 16  1  0
  4  3  2  0
  5  6  2  0
  6  3  1  0
  6  7  1  0
  8 16  1  0
  9 14  1  0
 10 11  1  0
 10  9  1  0
 12 11  1  0
 12 20  1  0
 12 13  1  0
 14  8  1  0
 14 13  1  0
 15  8  2  0
 16 45  1  0
 17 18  2  0
 18 37  1  0
 19 22  1  0
 19 18  1  0
 20 21  1  0
 20 17  1  0
 21 19  2  0
 22 23  1  0
 23 24  2  0
 25 28  1  0
 25 24  1  0
 26 25  2  0
 27 26  1  0
 27 22  2  0
 28 29  1  0
 29 34  2  0
 29 30  1  0
 30 31  2  0
 31 32  1  0
 32 36  1  0
 33 32  2  0
 34 33  1  0
 35 34  1  0
 37 38  1  0
 38 40  1  0
 38 41  1  0
 39 37  2  0
 42 17  1  0
 42 43  1  0
 44 42  1  0
 45 47  1  0
 47 46  3  0
 48  5  1  0
 48 49  1  0
 50 49  1  0
 50 51  2  0
 52 51  1  0
 53 64  2  0
 54 52  1  0
 54 59  1  0
 55 63  1  0
 55 65  1  0
 56 58  1  0
 57 63  1  0
 58 59  2  0
 58 57  1  0
 60 54  2  0
 61 60  1  0
 61 56  2  0
 62 56  1  0
 62 55  1  0
 63 53  1  0
 65 67  2  0
 66 65  1  0
 68 66  1  0
 69 78  2  0
 69 74  1  0
 70 66  1  0
 70 74  1  0
 71 70  1  0
 72 73  1  0
 72 71  1  0
 73 69  1  0
 74 75  2  0
 75 76  1  0
 77 76  2  0
 78 77  1  0
 79 53  1  0
 79 80  1  0
 79 89  1  0
 80 83  1  0
 81 85  1  0
 81 80  1  0
 82 81  2  0
 85 84  1  0
 87 88  1  0
 87 85  1  0
 87 86  1  0
 89 92  1  1
 89 90  1  0
 91 89  1  0
M  ISO  4   8 100  16 100  51 101  52 101
M  END
>  <TORSDO>  (62) 
F 22

>  <SCORE>  (62) 
-3.555

>  <name>  (62) 
61

>  <ligand_id>  (62) 
61

>  <original_smiles>  (62) 
[H]C#CC([H])([H])N(C(=O)N1C([H])([H])C([H])([H])C([H])([H])C([H])(n2nc(-c3c([H])c([H])c(Oc4c([H])c([H])c(F)c([H])c4F)c([H])c3[H])c(C(=O)N([H])[H])c2N([H])[H])C1([H])[H])c1c([H])c([H])c(OC([H])([H])C([H])([H])C([H])([H])Oc2c([H])c([H])c3c(c2[H])C([H])([H])N(C(=O)C([H])(N([H])C(=O)C([H])(N([H])C([H])([H])[H])C([H])([H])[H])C(C([H])([H])[H])(C([H])([H])[H])C([H])([H])[H])C([H])(C(=O)N([H])C2([H])c4c([H])c([H])c([H])c([H])c4C([H])([H])C([H])([H])C2([H])[H])C3([H])[H])c(F)c1[H]

>  <smiles>  (62) 
[H]C#CC([H])([H])N(C(=O)N1C([H])([H])C([H])([H])C([H])([H])C([H])(n2nc(-c3c([H])c([H])c(Oc4c([H])c([H])c(F)c([H])c4F)c([H])c3[H])c(C(=O)N([H])[H])c2N([H])[H])C1([H])[H])c1c([H])c([H])c(OC([H])([H])C([H])([H])C([H])([H])Oc2c([H])c([H])c3c(c2[H])C([H])([H])N(C(=O)C([H])(N([H])C(=O)C([H])(N([H])C([H])([H])[H])C([H])([H])[H])C(C([H])([H])[H])(C([H])([H])[H])C([H])([H])[H])C([H])(C(=O)N([H])C2([H])c4c([H])c([H])c([H])c([H])c4C([H])([H])C([H])([H])C2([H])[H])C3([H])[H])c(F)c1[H]

$$$$
62:0:0
     RDKit          3D

 89 97  0  0  1  0  0  0  0  0999 V2000
  -30.6180  -18.5840   20.2340 C   0  0  0  0  0  3  0  0  0  0  0  0
  -30.3220  -20.0210   20.1180 C   0  0  0  0  0  3  0  0  0  0  0  0
  -28.3230  -18.1100   19.9970 C   0  0  0  0  0  3  0  0  0  0  0  0
  -29.6220  -17.5390   20.1790 C   0  0  0  0  0  0  0  0  0  0  0  0
  -28.9990  -20.5680   19.9200 C   0  0  0  0  0  0  0  0  0  0  0  0
  -28.0300  -19.5160   19.8660 C   0  0  0  0  0  0  0  0  0  0  0  0
  -26.7350  -19.8670   19.6790 F   0  0  0  0  0  0  0  0  0  0  0  0
  -30.5800  -14.9230   20.0660 C   0  0  0  0  0  0  0  0  0  0  0  0
  -30.4510  -12.5660   19.1460 C   0  0  0  0  0  2  0  0  0  0  0  0
  -29.4680  -12.5400   17.9490 C   0  0  0  0  0  2  0  0  0  0  0  0
  -28.0140  -12.3550   18.4280 C   0  0  0  0  0  2  0  0  0  0  0  0
  -27.6620  -13.2860   19.6170 C   0  0  0  0  0  3  0  0  0  0  0  0
  -28.7540  -13.2570   20.7090 C   0  0  0  0  0  2  0  0  0  0  0  0
  -30.0190  -13.6500   20.0680 N   0  0  0  0  0  0  0  0  0  0  0  0
  -31.7560  -15.0460   19.7010 O   0  0  0  0  0  0  0  0  0  0  0  0
  -29.7160  -16.0150   20.3160 N   0  0  0  0  0  0  0  0  0  0  0  0
  -28.8300  -15.6250   20.5980 H   0  0  0  0  0  0  0  0  0  0  0  0
  -25.3230  -13.9140   20.4530 C   0  0  0  0  0  0  0  0  0  0  0  0
  -24.2550  -13.1600   20.8530 C   0  0  0  0  0  0  0  0  0  0  0  0
  -24.6820  -11.7990   20.7750 C   0  0  0  0  0  0  0  0  0  0  0  0
  -26.3340  -13.0150   20.1560 N   0  0  0  0  0  0  0  0  0  0  0  0
  -25.9580  -11.7360   20.4130 N   0  0  0  0  0  0  0  0  0  0  0  0
  -23.9310  -10.5510   20.9660 C   0  0  0  0  0  0  0  0  0  0  0  0
  -24.3600   -9.5610   21.8760 C   0  0  0  0  0  3  0  0  0  0  0  0
  -23.6090   -8.3800   22.0560 C   0  0  0  0  0  3  0  0  0  0  0  0
  -22.4150   -8.1800   21.3260 C   0  0  0  0  0  0  0  0  0  0  0  0
  -22.0020   -9.1580   20.4040 C   0  0  0  0  0  3  0  0  0  0  0  0
  -22.7540  -10.3310   20.2210 C   0  0  0  0  0  3  0  0  0  0  0  0
  -21.6350   -7.0520   21.4170 O   0  0  0  0  0  0  0  0  0  0  0  0
  -21.5790   -6.3060   22.5670 C   0  0  0  0  0  0  0  0  0  0  0  0
  -21.1440   -6.8560   23.7920 C   0  0  0  0  0  3  0  0  0  0  0  0
  -21.0370   -6.0370   24.9340 C   0  0  0  0  0  3  0  0  0  0  0  0
  -21.3540   -4.6680   24.8510 C   0  0  0  0  0  0  0  0  0  0  0  0
  -21.7830   -4.1170   23.6300 C   0  0  0  0  0  3  0  0  0  0  0  0
  -21.8920   -4.9330   22.4910 C   0  0  0  0  0  0  0  0  0  0  0  0
  -22.2850   -4.3930   21.3120 F   0  0  0  0  0  0  0  0  0  0  0  0
  -21.2440   -3.8790   25.9450 F   0  0  0  0  0  0  0  0  0  0  0  0
  -22.8820  -13.6670   21.1860 C   0  0  0  0  0  0  0  0  0  0  0  0
  -22.1720  -12.9770   22.0720 N   0  0  0  0  0  0  0  0  0  0  0  0
  -22.4480  -14.7080   20.6950 O   0  0  0  0  0  0  0  0  0  0  0  0
  -22.5360  -12.1340   22.4910 H   0  0  0  0  0  0  0  0  0  0  0  0
  -21.2520  -13.2980   22.3390 H   0  0  0  0  0  0  0  0  0  0  0  0
  -25.5110  -15.2840   20.2900 N   0  0  0  0  0  0  0  0  0  0  0  0
  -24.7430  -15.9360   20.4050 H   0  0  0  0  0  0  0  0  0  0  0  0
  -26.3000  -15.6870   19.8030 H   0  0  0  0  0  0  0  0  0  0  0  0
  -28.5040  -21.9350   19.7320 O   0  0  0  0  0  0  0  0  0  0  0  0
  -29.0950  -23.3350   19.9090 C   0  0  0  0  0  3  0  0  0  0  0  0
  -28.1160  -24.6810   19.6400 C   0  0  0  0  0  3  0  0  0  0  0  0
  -28.3620  -26.1910   19.9150 O   0  0  0  0  0  0  0  0  0  0  0  0
  -24.5360  -31.6270   23.0850 C   0  0  0  0  0  0  0  0  0  0  0  0
  -27.2770  -27.1420   19.8750 C   0  0  0  0  0  0  0  0  0  0  0  0
  -23.3960  -30.2890   21.3560 C   0  0  0  0  0  3  0  0  0  0  0  0
  -24.9060  -28.8230   19.8830 C   0  0  0  0  0  0  0  0  0  0  0  0
  -25.9460  -30.6220   21.2520 C   0  0  0  0  0  2  0  0  0  0  0  0
  -26.0640  -29.2680   20.5340 C   0  0  0  0  0  0  0  0  0  0  0  0
  -27.2500  -28.4450   20.5130 C   0  0  0  0  0  3  0  0  0  0  0  0
  -26.0890  -26.7970   19.1910 C   0  0  0  0  0  3  0  0  0  0  0  0
  -24.9310  -27.6010   19.1980 C   0  0  0  0  0  3  0  0  0  0  0  0
  -23.6570  -29.6880   19.9500 C   0  0  0  0  0  2  0  0  0  0  0  0
  -24.6450  -30.8640   21.9540 N   0  0  0  0  0  0  0  0  0  0  0  0
  -23.4340  -31.8620   23.6050 O   0  0  0  0  0  0  0  0  0  0  0  0
  -22.7240  -29.2200   22.2530 C   0  0  0  0  0  0  0  0  0  0  0  0
  -21.3950  -29.0550   22.1190 N   0  0  0  0  0  0  0  0  0  0  0  0
  -23.3990  -28.5440   23.0340 O   0  0  0  0  0  0  0  0  0  0  0  0
  -20.9070  -29.6540   21.4680 H   0  0  0  0  0  0  0  0  0  0  0  0
  -18.0080  -27.8640   22.6020 C   0  0  0  0  0  0  0  0  0  0  0  0
  -20.5770  -28.0710   22.8320 C   0  0  0  0  0  3  0  0  0  0  0  0
  -20.6440  -26.6870   22.1430 C   0  0  0  0  0  2  0  0  0  0  0  0
  -19.5160  -26.4610   21.1320 C   0  0  0  0  0  2  0  0  0  0  0  0
  -18.1500  -26.5720   21.8170 C   0  0  0  0  0  2  0  0  0  0  0  0
  -19.1480  -28.5760   23.0650 C   0  0  0  0  0  0  0  0  0  0  0  0
  -18.9590  -29.7890   23.7640 C   0  0  0  0  0  3  0  0  0  0  0  0
  -17.6650  -30.2900   24.0000 C   0  0  0  0  0  3  0  0  0  0  0  0
  -16.5420  -29.5740   23.5510 C   0  0  0  0  0  3  0  0  0  0  0  0
  -16.7140  -28.3630   22.8590 C   0  0  0  0  0  3  0  0  0  0  0  0
  -25.7880  -32.2560   23.7670 C   0  0  0  0  0  3  0  0  0  0  0  0
  -26.2640  -31.4600   25.0450 C   0  0  1  0  0  0  0  0  0  0  0  0
  -25.1360  -31.1940   26.0690 C   0  0  0  0  0  1  0  0  0  0  0  0
  -26.8680  -30.0930   24.6470 C   0  0  0  0  0  1  0  0  0  0  0  0
  -27.3860  -32.2460   25.7630 C   0  0  0  0  0  1  0  0  0  0  0  0
  -25.4530  -33.6440   24.1230 N   0  0  0  0  0  0  0  0  0  0  0  0
  -25.7720  -34.7190   23.3900 C   0  0  0  0  0  0  0  0  0  0  0  0
  -26.4450  -34.6480   22.3590 O   0  0  0  0  0  0  0  0  0  0  0  0
  -24.8550  -33.7720   24.9260 H   0  0  0  0  0  0  0  0  0  0  0  0
  -24.0050  -36.4870   23.0910 C   0  0  0  0  0  1  0  0  0  0  0  0
  -25.2650  -36.0920   23.8780 C   0  0  0  0  0  3  0  0  0  0  0  0
  -27.3890  -37.0120   24.7010 C   0  0  0  0  0  1  0  0  0  0  0  0
  -26.2770  -37.1660   23.7680 N   0  0  0  0  0  0  0  0  0  0  0  0
  -25.8530  -38.0770   23.9260 H   0  0  0  0  0  0  0  0  0  0  0  0
  2  1  2  0
  3  4  2  0
  4  1  1  0
  4 16  1  0
  5  2  1  0
  6  5  2  0
  6  3  1  0
  7  6  1  0
  8 14  1  0
  8 16  1  0
  9 14  1  0
 10 11  1  0
 10  9  1  0
 12 11  1  0
 12 21  1  0
 12 13  1  0
 14 13  1  0
 15  8  2  0
 16 17  1  0
 18 19  2  0
 19 38  1  0
 20 19  1  0
 20 23  1  0
 21 22  1  0
 21 18  1  0
 22 20  2  0
 23 24  1  0
 24 25  2  0
 26 29  1  0
 26 25  1  0
 27 26  2  0
 28 27  1  0
 28 23  2  0
 29 30  1  0
 30 31  1  0
 31 32  2  0
 33 32  1  0
 33 37  1  0
 34 33  2  0
 35 30  2  0
 35 34  1  0
 36 35  1  0
 38 39  1  0
 39 42  1  0
 39 41  1  0
 40 38  2  0
 43 44  1  0
 43 18  1  0
 45 43  1  0
 46 47  1  0
 46  5  1  0
 48 47  2  0
 48 49  1  0
 50 61  2  0
 51 49  1  0
 51 56  1  0
 52 60  1  0
 52 62  1  0
 53 59  1  0
 53 55  1  0
 54 60  1  0
 55 54  1  0
 56 55  2  0
 57 58  1  0
 57 51  2  0
 58 53  2  0
 59 52  1  0
 60 50  1  0
 62 64  2  0
 63 62  1  0
 65 63  1  0
 66 75  2  0
 66 71  1  0
 67 63  1  0
 67 71  1  0
 68 67  1  0
 69 70  1  0
 69 68  1  0
 70 66  1  0
 71 72  2  0
 72 73  1  0
 74 73  2  0
 75 74  1  0
 76 50  1  0
 76 81  1  0
 76 77  1  0
 77 80  1  1
 77 78  1  0
 79 77  1  0
 81 84  1  0
 82 86  1  0
 82 81  1  0
 83 82  2  0
 86 85  1  0
 88 86  1  0
 88 89  1  0
 88 87  1  0
M  ISO  4   8 100  16 100  48 101  49 101
M  END
>  <TORSDO>  (63) 
F 19

>  <SCORE>  (63) 
-13.742

>  <name>  (63) 
62

>  <ligand_id>  (63) 
62

>  <original_smiles>  (63) 
[H]c1c([H])c([H])c2c(c1[H])C([H])([H])C([H])([H])C([H])([H])C2([H])N([H])C(=O)C1([H])N(C(=O)C([H])(N([H])C(=O)C([H])(N([H])C([H])([H])[H])C([H])([H])[H])C(C([H])([H])[H])(C([H])([H])[H])C([H])([H])[H])C([H])([H])c2c([H])c(OC([H])([H])C([H])([H])Oc3c([H])c([H])c(N([H])C(=O)N4C([H])([H])C([H])([H])C([H])([H])C([H])(n5nc(-c6c([H])c([H])c(Oc7c([H])c([H])c(F)c([H])c7F)c([H])c6[H])c(C(=O)N([H])[H])c5N([H])[H])C4([H])[H])c([H])c3F)c([H])c([H])c2C1([H])[H]

>  <smiles>  (63) 
[H]c1c([H])c([H])c2c(c1[H])C([H])([H])C([H])([H])C([H])([H])C2([H])N([H])C(=O)C1([H])N(C(=O)C([H])(N([H])C(=O)C([H])(N([H])C([H])([H])[H])C([H])([H])[H])C(C([H])([H])[H])(C([H])([H])[H])C([H])([H])[H])C([H])([H])c2c([H])c(OC([H])([H])C([H])([H])Oc3c([H])c([H])c(N([H])C(=O)N4C([H])([H])C([H])([H])C([H])([H])C([H])(n5nc(-c6c([H])c([H])c(Oc7c([H])c([H])c(F)c([H])c7F)c([H])c6[H])c(C(=O)N([H])[H])c5N([H])[H])C4([H])[H])c([H])c3F)c([H])c([H])c2C1([H])[H]

$$$$
63:0:0
     RDKit          3D

 92100  0  0  1  0  0  0  0  0999 V2000
  -30.8600  -20.3670   20.0290 C   0  0  0  0  0  3  0  0  0  0  0  0
  -28.7810  -18.5640   20.3820 C   0  0  0  0  0  3  0  0  0  0  0  0
  -29.5860  -20.9990   20.2470 C   0  0  0  0  0  0  0  0  0  0  0  0
  -30.0510  -17.9340   20.1810 C   0  0  0  0  0  0  0  0  0  0  0  0
  -31.0810  -18.9270   19.9840 C   0  0  0  0  0  0  0  0  0  0  0  0
  -28.5600  -19.9940   20.4140 C   0  0  0  0  0  0  0  0  0  0  0  0
  -32.3340  -18.4940   19.7030 F   0  0  0  0  0  0  0  0  0  0  0  0
  -26.9280  -20.5170   20.6500 Cl  0  0  0  0  0  0  0  0  0  0  0  0
  -30.9310  -15.3620   20.3990 C   0  0  0  0  0  0  0  0  0  0  0  0
  -30.9310  -12.9040   19.7530 C   0  0  0  0  0  2  0  0  0  0  0  0
  -30.0620  -12.6060   18.5080 C   0  0  0  0  0  2  0  0  0  0  0  0
  -28.5550  -12.5510   18.8380 C   0  0  0  0  0  2  0  0  0  0  0  0
  -28.0870  -13.5430   19.9330 C   0  0  0  0  0  3  0  0  0  0  0  0
  -29.0970  -13.7000   21.0770 C   0  0  0  0  0  2  0  0  0  0  0  0
  -30.3640  -14.0900   20.4500 N   0  0  0  0  0  0  0  0  0  0  0  0
  -32.1680  -15.4190   20.3990 O   0  0  0  0  0  0  0  0  0  0  0  0
  -30.1740  -16.4460   19.8430 N   0  0  0  0  0  0  0  0  0  0  0  0
  -25.6880  -14.1710   20.5740 C   0  0  0  0  0  0  0  0  0  0  0  0
  -24.5990  -13.4110   20.8890 C   0  0  0  0  0  0  0  0  0  0  0  0
  -25.0470  -12.0540   20.8770 C   0  0  0  0  0  0  0  0  0  0  0  0
  -26.7280  -13.2750   20.3820 N   0  0  0  0  0  0  0  0  0  0  0  0
  -26.3490  -11.9970   20.6340 N   0  0  0  0  0  0  0  0  0  0  0  0
  -24.3030  -10.8010   21.0220 C   0  0  0  0  0  0  0  0  0  0  0  0
  -24.6680   -9.8400   21.9900 C   0  0  0  0  0  3  0  0  0  0  0  0
  -23.9280   -8.6460   22.1240 C   0  0  0  0  0  3  0  0  0  0  0  0
  -22.8100   -8.4080   21.2900 C   0  0  0  0  0  0  0  0  0  0  0  0
  -22.4680   -9.3570   20.3100 C   0  0  0  0  0  3  0  0  0  0  0  0
  -23.2080  -10.5420   20.1750 C   0  0  0  0  0  3  0  0  0  0  0  0
  -22.0470   -7.2670   21.3320 O   0  0  0  0  0  0  0  0  0  0  0  0
  -21.8750   -6.5630   22.4970 C   0  0  0  0  0  0  0  0  0  0  0  0
  -21.2660   -7.1360   23.6340 C   0  0  0  0  0  3  0  0  0  0  0  0
  -21.0470   -6.3540   24.7850 C   0  0  0  0  0  3  0  0  0  0  0  0
  -21.4250   -4.9990   24.7990 C   0  0  0  0  0  0  0  0  0  0  0  0
  -22.0260   -4.4250   23.6660 C   0  0  0  0  0  3  0  0  0  0  0  0
  -22.2490   -5.2040   22.5160 C   0  0  0  0  0  0  0  0  0  0  0  0
  -22.8100   -4.6390   21.4210 F   0  0  0  0  0  0  0  0  0  0  0  0
  -21.2070   -4.2460   25.9030 F   0  0  0  0  0  0  0  0  0  0  0  0
  -23.1930  -13.8990   21.0980 C   0  0  0  0  0  0  0  0  0  0  0  0
  -22.4220  -13.2080   21.9280 N   0  0  0  0  0  0  0  0  0  0  0  0
  -22.7860  -14.9290   20.5610 O   0  0  0  0  0  0  0  0  0  0  0  0
  -22.7630  -12.3740   22.3850 H   0  0  0  0  0  0  0  0  0  0  0  0
  -21.4770  -13.5120   22.1150 H   0  0  0  0  0  0  0  0  0  0  0  0
  -25.8750  -15.5420   20.4030 N   0  0  0  0  0  0  0  0  0  0  0  0
  -25.1120  -16.2070   20.4750 H   0  0  0  0  0  0  0  0  0  0  0  0
  -26.7330  -15.9600   20.0730 H   0  0  0  0  0  0  0  0  0  0  0  0
  -28.6430  -16.7880   17.8160 C   0  0  0  0  0  1  0  0  0  0  0  0
  -29.9970  -16.3000   18.3750 C   0  0  0  0  0  2  0  0  0  0  0  0
  -29.7510  -22.7430   21.8540 C   0  0  0  0  0  1  0  0  0  0  0  0
  -29.3160  -22.4510   20.4870 N   0  0  0  0  0  0  0  0  0  0  0  0
  -29.2840  -23.7290   19.5900 C   0  0  0  0  0  3  0  0  0  0  0  0
  -28.3390  -25.0750   19.9780 C   0  0  0  0  0  3  0  0  0  0  0  0
  -28.3990  -26.5160   19.4070 O   0  0  0  0  0  0  0  0  0  0  0  0
  -24.7950  -31.7400   23.1520 C   0  0  0  0  0  0  0  0  0  0  0  0
  -27.3050  -27.4390   19.5400 C   0  0  0  0  0  0  0  0  0  0  0  0
  -23.5390  -30.5230   21.4110 C   0  0  0  0  0  3  0  0  0  0  0  0
  -24.9480  -29.1230   19.7770 C   0  0  0  0  0  0  0  0  0  0  0  0
  -26.0800  -30.8400   21.1790 C   0  0  0  0  0  2  0  0  0  0  0  0
  -26.1440  -29.5230   20.3850 C   0  0  0  0  0  0  0  0  0  0  0  0
  -27.3210  -28.7020   20.2490 C   0  0  0  0  0  3  0  0  0  0  0  0
  -26.0840  -27.1290   18.9090 C   0  0  0  0  0  3  0  0  0  0  0  0
  -24.9270  -27.9370   19.0230 C   0  0  0  0  0  3  0  0  0  0  0  0
  -23.7120  -29.9930   19.9630 C   0  0  0  0  0  2  0  0  0  0  0  0
  -24.8260  -31.0520   21.9710 N   0  0  0  0  0  0  0  0  0  0  0  0
  -23.7280  -31.9570   23.7490 O   0  0  0  0  0  0  0  0  0  0  0  0
  -22.8970  -29.4170   22.2830 C   0  0  0  0  0  0  0  0  0  0  0  0
  -21.5700  -29.2330   22.1650 N   0  0  0  0  0  0  0  0  0  0  0  0
  -23.5990  -28.7190   23.0200 O   0  0  0  0  0  0  0  0  0  0  0  0
  -21.0570  -29.8490   21.5490 H   0  0  0  0  0  0  0  0  0  0  0  0
  -18.2180  -27.9480   22.6460 C   0  0  0  0  0  0  0  0  0  0  0  0
  -20.7830  -28.2090   22.8590 C   0  0  0  0  0  3  0  0  0  0  0  0
  -20.8790  -26.8470   22.1300 C   0  0  0  0  0  2  0  0  0  0  0  0
  -19.7480  -26.6250   21.1210 C   0  0  0  0  0  2  0  0  0  0  0  0
  -18.3850  -26.6830   21.8210 C   0  0  0  0  0  2  0  0  0  0  0  0
  -19.3440  -28.6730   23.1210 C   0  0  0  0  0  0  0  0  0  0  0  0
  -19.1330  -29.8580   23.8560 C   0  0  0  0  0  3  0  0  0  0  0  0
  -17.8310  -30.3210   24.1180 C   0  0  0  0  0  3  0  0  0  0  0  0
  -16.7210  -29.5900   23.6610 C   0  0  0  0  0  3  0  0  0  0  0  0
  -16.9160  -28.4060   22.9300 C   0  0  0  0  0  3  0  0  0  0  0  0
  -26.0940  -32.3100   23.7990 C   0  0  0  0  0  3  0  0  0  0  0  0
  -26.6770  -31.3880   24.9410 C   0  0  1  0  0  0  0  0  0  0  0  0
  -25.6360  -30.9980   26.0180 C   0  0  0  0  0  1  0  0  0  0  0  0
  -27.2540  -30.0790   24.3520 C   0  0  0  0  0  1  0  0  0  0  0  0
  -27.8540  -32.1020   25.6430 C   0  0  0  0  0  1  0  0  0  0  0  0
  -25.7850  -33.6490   24.3280 N   0  0  0  0  0  0  0  0  0  0  0  0
  -26.0910  -34.8000   23.7160 C   0  0  0  0  0  0  0  0  0  0  0  0
  -26.7280  -34.8440   22.6590 O   0  0  0  0  0  0  0  0  0  0  0  0
  -25.2160  -33.6870   25.1600 H   0  0  0  0  0  0  0  0  0  0  0  0
  -24.3690  -36.6350   23.6410 C   0  0  0  0  0  1  0  0  0  0  0  0
  -25.6140  -36.1080   24.3760 C   0  0  0  0  0  3  0  0  0  0  0  0
  -27.7490  -36.8600   25.3270 C   0  0  0  0  0  1  0  0  0  0  0  0
  -26.6520  -37.1620   24.4130 N   0  0  0  0  0  0  0  0  0  0  0  0
  -26.2490  -38.0530   24.6880 H   0  0  0  0  0  0  0  0  0  0  0  0
  1  3  1  0
  2  6  1  0
  3  6  2  0
  3 49  1  0
  4  2  2  0
  5  1  2  0
  5  4  1  0
  6  8  1  0
  7  5  1  0
  9 15  1  0
 10 15  1  0
 11 12  1  0
 11 10  1  0
 13 12  1  0
 13 21  1  0
 13 14  1  0
 15 14  1  0
 16  9  2  0
 17  4  1  0
 17  9  1  0
 18 19  2  0
 19 38  1  0
 20 19  1  0
 20 23  1  0
 21 18  1  0
 21 22  1  0
 22 20  2  0
 23 24  1  0
 24 25  2  0
 26 29  1  0
 26 25  1  0
 27 26  2  0
 28 27  1  0
 28 23  2  0
 29 30  1  0
 30 35  2  0
 30 31  1  0
 31 32  2  0
 32 33  1  0
 33 37  1  0
 34 33  2  0
 35 34  1  0
 36 35  1  0
 38 39  1  0
 39 42  1  0
 39 41  1  0
 40 38  2  0
 43 44  1  0
 43 18  1  0
 45 43  1  0
 46 47  1  0
 47 17  1  0
 49 48  1  0
 50 51  2  0
 50 49  1  0
 52 54  1  0
 52 51  1  0
 53 64  2  0
 54 59  1  0
 55 63  1  0
 55 65  1  0
 56 62  1  0
 56 58  1  0
 57 63  1  0
 58 57  1  0
 59 58  2  0
 60 61  1  0
 60 54  2  0
 61 56  2  0
 62 55  1  0
 63 53  1  0
 65 67  2  0
 66 65  1  0
 68 66  1  0
 69 78  2  0
 69 74  1  0
 70 66  1  0
 70 74  1  0
 71 70  1  0
 72 73  1  0
 72 71  1  0
 73 69  1  0
 74 75  2  0
 75 76  1  0
 77 76  2  0
 78 77  1  0
 79 53  1  0
 79 84  1  0
 79 80  1  0
 80 83  1  1
 80 81  1  0
 82 80  1  0
 84 87  1  0
 85 84  1  0
 85 89  1  0
 86 85  2  0
 89 88  1  0
 89 91  1  0
 91 92  1  0
 91 90  1  0
M  ISO  4   9 100  17 100  51 101  52 101
M  END
>  <TORSDO>  (64) 
F 20

>  <SCORE>  (64) 
-10.490

>  <name>  (64) 
63

>  <ligand_id>  (64) 
63

>  <original_smiles>  (64) 
[H]c1c([H])c([H])c2c(c1[H])C([H])([H])C([H])([H])C([H])([H])C2([H])N([H])C(=O)C1([H])N(C(=O)C([H])(N([H])C(=O)C([H])(N([H])C([H])([H])[H])C([H])([H])[H])C(C([H])([H])[H])(C([H])([H])[H])C([H])([H])[H])C([H])([H])c2c([H])c(OC([H])([H])C([H])([H])N(c3c([H])c(F)c(N(C(=O)N4C([H])([H])C([H])([H])C([H])([H])C([H])(n5nc(-c6c([H])c([H])c(Oc7c([H])c([H])c(F)c([H])c7F)c([H])c6[H])c(C(=O)N([H])[H])c5N([H])[H])C4([H])[H])C([H])([H])C([H])([H])[H])c([H])c3Cl)C([H])([H])[H])c([H])c([H])c2C1([H])[H]

>  <smiles>  (64) 
[H]c1c([H])c([H])c2c(c1[H])C([H])([H])C([H])([H])C([H])([H])C2([H])N([H])C(=O)C1([H])N(C(=O)C([H])(N([H])C(=O)C([H])(N([H])C([H])([H])[H])C([H])([H])[H])C(C([H])([H])[H])(C([H])([H])[H])C([H])([H])[H])C([H])([H])c2c([H])c(OC([H])([H])C([H])([H])N(c3c([H])c(F)c(N(C(=O)N4C([H])([H])C([H])([H])C([H])([H])C([H])(n5nc(-c6c([H])c([H])c(Oc7c([H])c([H])c(F)c([H])c7F)c([H])c6[H])c(C(=O)N([H])[H])c5N([H])[H])C4([H])[H])C([H])([H])C([H])([H])[H])c([H])c3Cl)C([H])([H])[H])c([H])c([H])c2C1([H])[H]

$$$$
64:0:0
     RDKit          3D

 92101  0  0  1  0  0  0  0  0999 V2000
  -30.2140  -19.9860   21.2340 C   0  0  0  0  0  3  0  0  0  0  0  0
  -30.4070  -18.5410   21.1770 C   0  0  0  0  0  3  0  0  0  0  0  0
  -29.2130  -20.7440   20.5190 C   0  0  0  0  0  0  0  0  0  0  0  0
  -29.5950  -17.6480   20.4040 C   0  0  0  0  0  0  0  0  0  0  0  0
  -28.4280  -19.8490   19.7100 C   0  0  0  0  0  0  0  0  0  0  0  0
  -28.5960  -18.3960   19.6800 C   0  0  0  0  0  0  0  0  0  0  0  0
  -27.4310  -20.3830   18.9620 F   0  0  0  0  0  0  0  0  0  0  0  0
  -27.7230  -17.6830   18.9260 F   0  0  0  0  0  0  0  0  0  0  0  0
  -30.4460  -14.9990   20.3200 C   0  0  0  0  0  0  0  0  0  0  0  0
  -30.3540  -12.6560   19.3470 C   0  0  0  0  0  2  0  0  0  0  0  0
  -29.3930  -12.6200   18.1350 C   0  0  0  0  0  2  0  0  0  0  0  0
  -27.9360  -12.4040   18.5920 C   0  0  0  0  0  2  0  0  0  0  0  0
  -27.5490  -13.3180   19.7850 C   0  0  0  0  0  3  0  0  0  0  0  0
  -28.6240  -13.2990   20.8930 C   0  0  0  0  0  2  0  0  0  0  0  0
  -29.8860  -13.7250   20.2710 N   0  0  0  0  0  0  0  0  0  0  0  0
  -31.6450  -15.1130   20.0400 O   0  0  0  0  0  0  0  0  0  0  0  0
  -29.5730  -16.1100   20.4600 N   0  0  0  0  0  0  0  0  0  0  0  0
  -28.6270  -15.7650   20.5100 H   0  0  0  0  0  0  0  0  0  0  0  0
  -25.1810  -13.8980   20.5660 C   0  0  0  0  0  0  0  0  0  0  0  0
  -24.1200  -13.1230   20.9450 C   0  0  0  0  0  0  0  0  0  0  0  0
  -24.5800  -11.7710   20.8920 C   0  0  0  0  0  0  0  0  0  0  0  0
  -26.2170  -13.0190   20.2990 N   0  0  0  0  0  0  0  0  0  0  0  0
  -25.8660  -11.7340   20.5620 N   0  0  0  0  0  0  0  0  0  0  0  0
  -23.8540  -10.5080   21.0790 C   0  0  0  0  0  0  0  0  0  0  0  0
  -24.2980   -9.5280   21.9940 C   0  0  0  0  0  3  0  0  0  0  0  0
  -23.5700   -8.3320   22.1700 C   0  0  0  0  0  3  0  0  0  0  0  0
  -22.3840   -8.1070   21.4320 C   0  0  0  0  0  0  0  0  0  0  0  0
  -21.9590   -9.0750   20.5050 C   0  0  0  0  0  3  0  0  0  0  0  0
  -22.6870  -10.2630   20.3270 C   0  0  0  0  0  3  0  0  0  0  0  0
  -21.6260   -6.9640   21.5180 O   0  0  0  0  0  0  0  0  0  0  0  0
  -21.5930   -6.2070   22.6620 C   0  0  0  0  0  0  0  0  0  0  0  0
  -21.1760   -6.7460   23.9000 C   0  0  0  0  0  3  0  0  0  0  0  0
  -21.0910   -5.9140   25.0360 C   0  0  0  0  0  3  0  0  0  0  0  0
  -21.4120   -4.5480   24.9340 C   0  0  0  0  0  0  0  0  0  0  0  0
  -21.8230   -4.0090   23.7020 C   0  0  0  0  0  3  0  0  0  0  0  0
  -21.9100   -4.8370   22.5690 C   0  0  0  0  0  0  0  0  0  0  0  0
  -22.2850   -4.3090   21.3790 F   0  0  0  0  0  0  0  0  0  0  0  0
  -21.3230   -3.7480   26.0230 F   0  0  0  0  0  0  0  0  0  0  0  0
  -22.7270  -13.5990   21.2380 C   0  0  0  0  0  0  0  0  0  0  0  0
  -22.0070  -12.8950   22.1030 N   0  0  0  0  0  0  0  0  0  0  0  0
  -22.2870  -14.6320   20.7360 O   0  0  0  0  0  0  0  0  0  0  0  0
  -22.3750  -12.0580   22.5290 H   0  0  0  0  0  0  0  0  0  0  0  0
  -21.0730  -13.1960   22.3420 H   0  0  0  0  0  0  0  0  0  0  0  0
  -25.3410  -15.2720   20.4030 N   0  0  0  0  0  0  0  0  0  0  0  0
  -24.5700  -15.9150   20.5440 H   0  0  0  0  0  0  0  0  0  0  0  0
  -26.1580  -15.7200   20.0110 H   0  0  0  0  0  0  0  0  0  0  0  0
  -29.2180  -24.4200   21.7930 C   0  0  0  0  0  2  0  0  0  0  0  0
  -29.2830  -22.8680   21.9690 C   0  0  0  0  0  2  0  0  0  0  0  0
  -28.4340  -23.3720   19.8320 C   0  0  0  0  0  2  0  0  0  0  0  0
  -28.1830  -24.7590   20.7020 C   0  0  0  0  0  3  0  0  0  0  0  0
  -29.0240  -22.2270   20.6760 N   0  0  0  0  0  0  0  0  0  0  0  0
  -28.3200  -26.2580   20.2960 O   0  0  0  0  0  0  0  0  0  0  0  0
  -24.6200  -31.9270   23.2470 C   0  0  0  0  0  0  0  0  0  0  0  0
  -27.2320  -27.1980   20.2900 C   0  0  0  0  0  0  0  0  0  0  0  0
  -23.4310  -30.5110   21.6150 C   0  0  0  0  0  3  0  0  0  0  0  0
  -24.8910  -28.9180   20.2230 C   0  0  0  0  0  0  0  0  0  0  0  0
  -25.9830  -30.7880   21.4550 C   0  0  0  0  0  2  0  0  0  0  0  0
  -26.0660  -29.3870   20.8260 C   0  0  0  0  0  0  0  0  0  0  0  0
  -27.2400  -28.5450   20.8330 C   0  0  0  0  0  3  0  0  0  0  0  0
  -26.0290  -26.8160   19.6620 C   0  0  0  0  0  3  0  0  0  0  0  0
  -24.8830  -27.6450   19.6260 C   0  0  0  0  0  3  0  0  0  0  0  0
  -23.6610  -29.8130   20.2480 C   0  0  0  0  0  2  0  0  0  0  0  0
  -24.6980  -31.0970   22.1610 N   0  0  0  0  0  0  0  0  0  0  0  0
  -23.5310  -32.2130   23.7680 O   0  0  0  0  0  0  0  0  0  0  0  0
  -22.7480  -29.5160   22.5850 C   0  0  0  0  0  0  0  0  0  0  0  0
  -21.4200  -29.3460   22.4570 N   0  0  0  0  0  0  0  0  0  0  0  0
  -23.4160  -28.8950   23.4170 O   0  0  0  0  0  0  0  0  0  0  0  0
  -20.9370  -29.8970   21.7620 H   0  0  0  0  0  0  0  0  0  0  0  0
  -18.0340  -28.1640   22.9670 C   0  0  0  0  0  0  0  0  0  0  0  0
  -20.5940  -28.4160   23.2320 C   0  0  0  0  0  3  0  0  0  0  0  0
  -20.6900  -26.9800   22.6660 C   0  0  0  0  0  2  0  0  0  0  0  0
  -19.5870  -26.6580   21.6530 C   0  0  0  0  0  2  0  0  0  0  0  0
  -18.2060  -26.8110   22.2960 C   0  0  0  0  0  2  0  0  0  0  0  0
  -19.1560  -28.9240   23.3920 C   0  0  0  0  0  0  0  0  0  0  0  0
  -18.9410  -30.1900   23.9790 C   0  0  0  0  0  3  0  0  0  0  0  0
  -17.6380  -30.6950   24.1460 C   0  0  0  0  0  3  0  0  0  0  0  0
  -16.5300  -29.9330   23.7350 C   0  0  0  0  0  3  0  0  0  0  0  0
  -16.7290  -28.6680   23.1510 C   0  0  0  0  0  3  0  0  0  0  0  0
  -25.8920  -32.5710   23.8770 C   0  0  0  0  0  3  0  0  0  0  0  0
  -25.5760  -33.9710   24.1990 N   0  0  0  0  0  0  0  0  0  0  0  0
  -25.9050  -35.0240   23.4380 C   0  0  0  0  0  0  0  0  0  0  0  0
  -26.5740  -34.9180   22.4070 O   0  0  0  0  0  0  0  0  0  0  0  0
  -24.9830  -34.1260   25.0010 H   0  0  0  0  0  0  0  0  0  0  0  0
  -24.1700  -36.8130   23.0840 C   0  0  0  0  0  1  0  0  0  0  0  0
  -25.4160  -36.4140   23.8930 C   0  0  0  0  0  3  0  0  0  0  0  0
  -27.5500  -37.3100   24.7120 C   0  0  0  0  0  1  0  0  0  0  0  0
  -26.4450  -37.4700   23.7720 N   0  0  0  0  0  0  0  0  0  0  0  0
  -26.0360  -38.3890   23.9180 H   0  0  0  0  0  0  0  0  0  0  0  0
  -26.3990  -31.8120   25.1660 C   0  0  1  0  0  0  0  0  0  0  0  0
  -25.2970  -31.5860   26.2270 C   0  0  0  0  0  1  0  0  0  0  0  0
  -26.9840  -30.4310   24.7930 C   0  0  0  0  0  1  0  0  0  0  0  0
  -27.5440  -32.6120   25.8300 C   0  0  0  0  0  1  0  0  0  0  0  0
  2  1  1  0
  3 51  1  0
  3  1  2  0
  4 17  1  0
  4  2  2  0
  5  3  1  0
  6  5  2  0
  6  4  1  0
  7  5  1  0
  8  6  1  0
  9 17  1  0
 10 15  1  0
 11 12  1  0
 11 10  1  0
 13 12  1  0
 13 22  1  0
 13 14  1  0
 15  9  1  0
 15 14  1  0
 16  9  2  0
 17 18  1  0
 19 20  2  0
 20 39  1  0
 21 20  1  0
 21 24  1  0
 22 23  1  0
 22 19  1  0
 23 21  2  0
 24 25  1  0
 25 26  2  0
 27 30  1  0
 27 26  1  0
 28 27  2  0
 29 28  1  0
 29 24  2  0
 30 31  1  0
 31 32  1  0
 32 33  2  0
 34 33  1  0
 34 38  1  0
 35 34  2  0
 36 31  2  0
 36 35  1  0
 37 36  1  0
 39 40  1  0
 40 43  1  0
 40 42  1  0
 41 39  2  0
 44 45  1  0
 44 19  1  0
 46 44  1  0
 47 48  1  0
 49 51  1  0
 49 50  1  0
 50 52  1  0
 50 47  1  0
 51 48  1  0
 53 64  2  0
 54 52  1  0
 54 59  1  0
 55 63  1  0
 55 65  1  0
 56 62  1  0
 56 58  1  0
 57 63  1  0
 58 59  2  0
 58 57  1  0
 60 54  2  0
 61 60  1  0
 61 56  2  0
 62 55  1  0
 63 53  1  0
 65 67  2  0
 66 65  1  0
 68 66  1  0
 69 78  2  0
 69 74  1  0
 70 66  1  0
 70 74  1  0
 71 70  1  0
 72 73  1  0
 72 71  1  0
 73 69  1  0
 74 75  2  0
 75 76  1  0
 77 76  2  0
 78 77  1  0
 79 53  1  0
 79 80  1  0
 79 89  1  0
 80 83  1  0
 81 85  1  0
 81 80  1  0
 82 81  2  0
 85 84  1  0
 87 85  1  0
 87 88  1  0
 87 86  1  0
 89 92  1  1
 89 90  1  0
 91 89  1  0
M  ISO  4   9 100  17 100  50 101  52 101
M  END
>  <TORSDO>  (65) 
F 17

>  <SCORE>  (65) 
-15.541

>  <name>  (65) 
64

>  <ligand_id>  (65) 
64

>  <original_smiles>  (65) 
[H]c1c([H])c([H])c2c(c1[H])C([H])([H])C([H])([H])C([H])([H])C2([H])N([H])C(=O)C1([H])N(C(=O)C([H])(N([H])C(=O)C([H])(N([H])C([H])([H])[H])C([H])([H])[H])C(C([H])([H])[H])(C([H])([H])[H])C([H])([H])[H])C([H])([H])c2c([H])c(OC3([H])C([H])([H])N(c4c([H])c([H])c(N([H])C(=O)N5C([H])([H])C([H])([H])C([H])([H])C([H])(n6nc(-c7c([H])c([H])c(Oc8c([H])c([H])c(F)c([H])c8F)c([H])c7[H])c(C(=O)N([H])[H])c6N([H])[H])C5([H])[H])c(F)c4F)C([H])([H])C3([H])[H])c([H])c([H])c2C1([H])[H]

>  <smiles>  (65) 
[H]c1c([H])c([H])c2c(c1[H])C([H])([H])C([H])([H])C([H])([H])C2([H])N([H])C(=O)C1([H])N(C(=O)C([H])(N([H])C(=O)C([H])(N([H])C([H])([H])[H])C([H])([H])[H])C(C([H])([H])[H])(C([H])([H])[H])C([H])([H])[H])C([H])([H])c2c([H])c(OC3([H])C([H])([H])N(c4c([H])c([H])c(N([H])C(=O)N5C([H])([H])C([H])([H])C([H])([H])C([H])(n6nc(-c7c([H])c([H])c(Oc8c([H])c([H])c(F)c([H])c8F)c([H])c7[H])c(C(=O)N([H])[H])c6N([H])[H])C5([H])[H])c(F)c4F)C([H])([H])C3([H])[H])c([H])c([H])c2C1([H])[H]

$$$$
65:0:0
     RDKit          3D

 91 99  0  0  1  0  0  0  0  0999 V2000
  -30.8240  -19.7300   19.6820 C   0  0  0  0  0  3  0  0  0  0  0  0
  -30.2820  -21.0490   19.6840 C   0  0  0  0  0  3  0  0  0  0  0  0
  -30.0340  -18.5560   19.8490 C   0  0  0  0  0  0  0  0  0  0  0  0
  -28.8960  -21.2730   19.8610 C   0  0  0  0  0  0  0  0  0  0  0  0
  -28.0940  -20.1030   20.0050 C   0  0  0  0  0  0  0  0  0  0  0  0
  -28.6380  -18.7780   20.0030 C   0  0  0  0  0  0  0  0  0  0  0  0
  -26.7570  -20.2580   20.1710 F   0  0  0  0  0  0  0  0  0  0  0  0
  -27.5670  -17.4390   20.2350 Cl  0  0  0  0  0  0  0  0  0  0  0  0
  -30.7830  -17.1730   19.9730 C   0  0  0  0  0  2  0  0  0  0  0  0
  -30.8030  -14.6480   19.8910 C   0  0  0  0  0  0  0  0  0  0  0  0
  -30.4540  -12.3810   18.9500 C   0  0  0  0  0  2  0  0  0  0  0  0
  -29.4550  -12.4630   17.7780 C   0  0  0  0  0  2  0  0  0  0  0  0
  -28.0120  -12.3270   18.2980 C   0  0  0  0  0  2  0  0  0  0  0  0
  -27.7220  -13.2520   19.5110 C   0  0  0  0  0  3  0  0  0  0  0  0
  -28.8420  -13.1830   20.5720 C   0  0  0  0  0  2  0  0  0  0  0  0
  -30.1120  -13.4660   19.8940 N   0  0  0  0  0  0  0  0  0  0  0  0
  -31.9630  -14.6930   19.4720 O   0  0  0  0  0  0  0  0  0  0  0  0
  -30.1400  -15.8210   20.1480 N   0  0  0  0  0  0  0  0  0  0  0  0
  -29.1780  -15.7860   20.4520 H   0  0  0  0  0  0  0  0  0  0  0  0
  -25.4040  -13.8820   20.4170 C   0  0  0  0  0  0  0  0  0  0  0  0
  -24.3460  -13.1230   20.8370 C   0  0  0  0  0  0  0  0  0  0  0  0
  -24.7690  -11.7630   20.7370 C   0  0  0  0  0  0  0  0  0  0  0  0
  -26.4060  -12.9840   20.0850 N   0  0  0  0  0  0  0  0  0  0  0  0
  -26.0330  -11.7020   20.3390 N   0  0  0  0  0  0  0  0  0  0  0  0
  -24.0220  -10.5140   20.9390 C   0  0  0  0  0  0  0  0  0  0  0  0
  -24.4560   -9.5350   21.8610 C   0  0  0  0  0  3  0  0  0  0  0  0
  -23.7090   -8.3510   22.0520 C   0  0  0  0  0  3  0  0  0  0  0  0
  -22.5160   -8.1390   21.3220 C   0  0  0  0  0  0  0  0  0  0  0  0
  -22.1010   -9.1070   20.3890 C   0  0  0  0  0  3  0  0  0  0  0  0
  -22.8480  -10.2810   20.1960 C   0  0  0  0  0  3  0  0  0  0  0  0
  -21.7410   -7.0090   21.4230 O   0  0  0  0  0  0  0  0  0  0  0  0
  -21.6590   -6.2950   22.5910 C   0  0  0  0  0  0  0  0  0  0  0  0
  -21.2090   -6.8830   23.7930 C   0  0  0  0  0  3  0  0  0  0  0  0
  -21.0730   -6.0960   24.9540 C   0  0  0  0  0  3  0  0  0  0  0  0
  -21.3760   -4.7220   24.9140 C   0  0  0  0  0  0  0  0  0  0  0  0
  -21.8190   -4.1330   23.7170 C   0  0  0  0  0  3  0  0  0  0  0  0
  -21.9570   -4.9180   22.5570 C   0  0  0  0  0  0  0  0  0  0  0  0
  -22.3630   -4.3420   21.4010 F   0  0  0  0  0  0  0  0  0  0  0  0
  -21.2390   -3.9640   26.0270 F   0  0  0  0  0  0  0  0  0  0  0  0
  -22.9840  -13.6280   21.2190 C   0  0  0  0  0  0  0  0  0  0  0  0
  -22.3010  -12.9290   22.1190 N   0  0  0  0  0  0  0  0  0  0  0  0
  -22.5360  -14.6760   20.7550 O   0  0  0  0  0  0  0  0  0  0  0  0
  -22.6770  -12.0810   22.5170 H   0  0  0  0  0  0  0  0  0  0  0  0
  -21.3910  -13.2480   22.4170 H   0  0  0  0  0  0  0  0  0  0  0  0
  -25.5900  -15.2510   20.2680 N   0  0  0  0  0  0  0  0  0  0  0  0
  -24.8580  -15.9210   20.4750 H   0  0  0  0  0  0  0  0  0  0  0  0
  -26.4400  -15.6870   19.9350 H   0  0  0  0  0  0  0  0  0  0  0  0
  -28.2700  -22.5380   19.9200 O   0  0  0  0  0  0  0  0  0  0  0  0
  -28.9420  -23.8200   19.6910 C   0  0  0  0  0  2  0  0  0  0  0  0
  -28.0480  -25.0470   20.1760 C   0  0  0  0  0  2  0  0  0  0  0  0
  -28.2980  -26.4400   19.7280 O   0  0  0  0  0  0  0  0  0  0  0  0
  -24.5140  -31.6250   23.0240 C   0  0  0  0  0  0  0  0  0  0  0  0
  -27.1860  -27.2900   19.7310 C   0  0  0  0  0  0  0  0  0  0  0  0
  -23.3290  -30.2980   21.3120 C   0  0  0  0  0  3  0  0  0  0  0  0
  -24.8010  -28.8550   19.8010 C   0  0  0  0  0  0  0  0  0  0  0  0
  -25.8610  -30.6700   21.1430 C   0  0  0  0  0  2  0  0  0  0  0  0
  -25.9610  -29.3320   20.4240 C   0  0  0  0  0  0  0  0  0  0  0  0
  -27.1610  -28.5610   20.3810 C   0  0  0  0  0  3  0  0  0  0  0  0
  -26.0100  -26.8740   19.0700 C   0  0  0  0  0  3  0  0  0  0  0  0
  -24.8260  -27.6320   19.1120 C   0  0  0  0  0  3  0  0  0  0  0  0
  -23.5500  -29.7040   19.8970 C   0  0  0  0  0  2  0  0  0  0  0  0
  -24.5860  -30.8790   21.8840 N   0  0  0  0  0  0  0  0  0  0  0  0
  -23.4280  -31.8570   23.5750 O   0  0  0  0  0  0  0  0  0  0  0  0
  -22.6850  -29.2200   22.2170 C   0  0  0  0  0  0  0  0  0  0  0  0
  -21.3550  -29.0640   22.1180 N   0  0  0  0  0  0  0  0  0  0  0  0
  -23.3820  -28.5300   22.9660 O   0  0  0  0  0  0  0  0  0  0  0  0
  -20.8520  -29.6740   21.4880 H   0  0  0  0  0  0  0  0  0  0  0  0
  -17.9720  -27.9200   22.6930 C   0  0  0  0  0  0  0  0  0  0  0  0
  -20.5480  -28.0830   22.8440 C   0  0  0  0  0  3  0  0  0  0  0  0
  -20.5730  -26.7070   22.1370 C   0  0  0  0  0  2  0  0  0  0  0  0
  -19.4090  -26.5100   21.1600 C   0  0  0  0  0  2  0  0  0  0  0  0
  -18.0680  -26.6340   21.8910 C   0  0  0  0  0  2  0  0  0  0  0  0
  -19.1350  -28.6080   23.1280 C   0  0  0  0  0  0  0  0  0  0  0  0
  -18.9890  -29.8170   23.8430 C   0  0  0  0  0  3  0  0  0  0  0  0
  -17.7110  -30.3370   24.1240 C   0  0  0  0  0  3  0  0  0  0  0  0
  -16.5630  -29.6430   23.7050 C   0  0  0  0  0  3  0  0  0  0  0  0
  -16.6950  -28.4370   22.9950 C   0  0  0  0  0  3  0  0  0  0  0  0
  -25.7890  -32.2420   23.6780 C   0  0  0  0  0  3  0  0  0  0  0  0
  -26.3080  -31.4220   24.9220 C   0  0  1  0  0  0  0  0  0  0  0  0
  -25.2160  -31.1360   25.9780 C   0  0  0  0  0  1  0  0  0  0  0  0
  -26.8980  -30.0640   24.4740 C   0  0  0  0  0  1  0  0  0  0  0  0
  -27.4560  -32.1930   25.6150 C   0  0  0  0  0  1  0  0  0  0  0  0
  -25.4650  -33.6220   24.0660 N   0  0  0  0  0  0  0  0  0  0  0  0
  -25.7720  -34.7080   23.3450 C   0  0  0  0  0  0  0  0  0  0  0  0
  -26.4280  -34.6550   22.3020 O   0  0  0  0  0  0  0  0  0  0  0  0
  -24.8790  -33.7360   24.8810 H   0  0  0  0  0  0  0  0  0  0  0  0
  -24.0040  -36.4810   23.1000 C   0  0  0  0  0  1  0  0  0  0  0  0
  -25.2720  -36.0700   23.8650 C   0  0  0  0  0  3  0  0  0  0  0  0
  -27.4070  -36.9680   24.6790 C   0  0  0  0  0  1  0  0  0  0  0  0
  -26.2820  -37.1450   23.7640 N   0  0  0  0  0  0  0  0  0  0  0  0
  -25.8630  -38.0530   23.9490 H   0  0  0  0  0  0  0  0  0  0  0  0
  1  2  2  0
  1  3  1  0
  2  4  1  0
  3  9  1  0
  3  6  2  0
  4 48  1  0
  4  5  2  0
  5  7  1  0
  6  5  1  0
  6  8  1  0
  9 18  1  0
 10 16  1  0
 10 18  1  0
 11 16  1  0
 12 13  1  0
 12 11  1  0
 14 13  1  0
 14 23  1  0
 14 15  1  0
 16 15  1  0
 17 10  2  0
 18 19  1  0
 20 21  2  0
 21 40  1  0
 22 21  1  0
 22 25  1  0
 23 24  1  0
 23 20  1  0
 24 22  2  0
 25 26  1  0
 26 27  2  0
 28 31  1  0
 28 27  1  0
 29 28  2  0
 30 29  1  0
 30 25  2  0
 31 32  1  0
 32 33  1  0
 33 34  2  0
 35 34  1  0
 35 39  1  0
 36 35  2  0
 37 32  2  0
 37 36  1  0
 38 37  1  0
 40 41  1  0
 41 44  1  0
 41 43  1  0
 42 40  2  0
 45 20  1  0
 45 46  1  0
 47 45  1  0
 49 48  1  0
 49 50  1  0
 51 53  1  0
 51 50  1  0
 52 63  2  0
 53 58  1  0
 54 62  1  0
 54 64  1  0
 55 61  1  0
 55 57  1  0
 56 62  1  0
 57 56  1  0
 58 57  2  0
 59 60  1  0
 59 53  2  0
 60 55  2  0
 61 54  1  0
 62 52  1  0
 64 66  2  0
 65 64  1  0
 67 65  1  0
 68 77  2  0
 68 73  1  0
 69 65  1  0
 69 73  1  0
 70 69  1  0
 71 72  1  0
 71 70  1  0
 72 68  1  0
 73 74  2  0
 74 75  1  0
 76 75  2  0
 77 76  1  0
 78 52  1  0
 78 83  1  0
 78 79  1  0
 79 82  1  1
 79 80  1  0
 81 79  1  0
 83 86  1  0
 84 88  1  0
 84 83  1  0
 85 84  2  0
 88 87  1  0
 90 88  1  0
 90 91  1  0
 90 89  1  0
M  ISO  4  10 100  18 100  50 101  51 101
M  END
>  <TORSDO>  (66) 
F 20

>  <SCORE>  (66) 
-12.957

>  <name>  (66) 
65

>  <ligand_id>  (66) 
65

>  <original_smiles>  (66) 
[H]c1c([H])c([H])c2c(c1[H])C([H])([H])C([H])([H])C([H])([H])C2([H])N([H])C(=O)C1([H])N(C(=O)C([H])(N([H])C(=O)C([H])(N([H])C([H])([H])[H])C([H])([H])[H])C(C([H])([H])[H])(C([H])([H])[H])C([H])([H])[H])C([H])([H])c2c([H])c(OC([H])([H])C([H])([H])Oc3c([H])c([H])c(C([H])([H])N([H])C(=O)N4C([H])([H])C([H])([H])C([H])([H])C([H])(n5nc(-c6c([H])c([H])c(Oc7c([H])c([H])c(F)c([H])c7F)c([H])c6[H])c(C(=O)N([H])[H])c5N([H])[H])C4([H])[H])c(Cl)c3F)c([H])c([H])c2C1([H])[H]

>  <smiles>  (66) 
[H]c1c([H])c([H])c2c(c1[H])C([H])([H])C([H])([H])C([H])([H])C2([H])N([H])C(=O)C1([H])N(C(=O)C([H])(N([H])C(=O)C([H])(N([H])C([H])([H])[H])C([H])([H])[H])C(C([H])([H])[H])(C([H])([H])[H])C([H])([H])[H])C([H])([H])c2c([H])c(OC([H])([H])C([H])([H])Oc3c([H])c([H])c(C([H])([H])N([H])C(=O)N4C([H])([H])C([H])([H])C([H])([H])C([H])(n5nc(-c6c([H])c([H])c(Oc7c([H])c([H])c(F)c([H])c7F)c([H])c6[H])c(C(=O)N([H])[H])c5N([H])[H])C4([H])[H])c(Cl)c3F)c([H])c([H])c2C1([H])[H]

$$$$
66:0:0
     RDKit          3D

 90 99  0  0  1  0  0  0  0  0999 V2000
  -30.5470  -22.5500   18.6550 C   0  0  0  0  0  3  0  0  0  0  0  0
  -30.3460  -21.2310   19.1240 C   0  0  0  0  0  3  0  0  0  0  0  0
  -29.8040  -23.6490   19.1430 C   0  0  0  0  0  3  0  0  0  0  0  0
  -28.6360  -22.0930   20.6040 C   0  0  0  0  0  3  0  0  0  0  0  0
  -29.3920  -20.9230   20.1200 C   0  0  0  0  0  0  0  0  0  0  0  0
  -28.8190  -23.4820   20.1340 C   0  0  0  0  0  0  0  0  0  0  0  0
  -30.5830  -14.8580   20.3460 C   0  0  0  0  0  0  0  0  0  0  0  0
  -30.3440  -12.5500   19.3670 C   0  0  0  0  0  2  0  0  0  0  0  0
  -29.4030  -12.5410   18.1450 C   0  0  0  0  0  2  0  0  0  0  0  0
  -27.9450  -12.3410   18.5970 C   0  0  0  0  0  2  0  0  0  0  0  0
  -27.5590  -13.2660   19.7820 C   0  0  0  0  0  3  0  0  0  0  0  0
  -28.6290  -13.2820   20.8940 C   0  0  0  0  0  2  0  0  0  0  0  0
  -29.9010  -13.6520   20.2630 N   0  0  0  0  0  0  0  0  0  0  0  0
  -31.7920  -14.8400   20.0970 O   0  0  0  0  0  0  0  0  0  0  0  0
  -28.8340  -18.2900   19.5230 C   0  0  0  0  0  2  0  0  0  0  0  0
  -30.6080  -18.6770   21.0770 C   0  0  0  0  0  2  0  0  0  0  0  0
  -28.7880  -16.7280   19.9280 C   0  0  0  0  0  2  0  0  0  0  0  0
  -30.5630  -17.1430   21.5300 C   0  0  0  0  0  2  0  0  0  0  0  0
  -29.2790  -19.3630   20.5930 C   0  0  0  0  0  3  0  0  0  0  0  0
  -29.9560  -16.1010   20.6310 N   0  0  0  0  0  0  0  0  0  0  0  0
  -25.1890  -13.8530   20.5420 C   0  0  0  0  0  0  0  0  0  0  0  0
  -24.1260  -13.0800   20.9200 C   0  0  0  0  0  0  0  0  0  0  0  0
  -24.5890  -11.7280   20.8870 C   0  0  0  0  0  0  0  0  0  0  0  0
  -26.2280  -12.9730   20.2970 N   0  0  0  0  0  0  0  0  0  0  0  0
  -25.8780  -11.6900   20.5710 N   0  0  0  0  0  0  0  0  0  0  0  0
  -23.8620  -10.4660   21.0790 C   0  0  0  0  0  0  0  0  0  0  0  0
  -24.3100   -9.4890   21.9940 C   0  0  0  0  0  3  0  0  0  0  0  0
  -23.5820   -8.2930   22.1770 C   0  0  0  0  0  3  0  0  0  0  0  0
  -22.3920   -8.0680   21.4430 C   0  0  0  0  0  0  0  0  0  0  0  0
  -21.9640   -9.0350   20.5170 C   0  0  0  0  0  3  0  0  0  0  0  0
  -22.6930  -10.2220   20.3330 C   0  0  0  0  0  3  0  0  0  0  0  0
  -21.6340   -6.9260   21.5370 O   0  0  0  0  0  0  0  0  0  0  0  0
  -21.6200   -6.1630   22.6770 C   0  0  0  0  0  0  0  0  0  0  0  0
  -21.2540   -6.7030   23.9300 C   0  0  0  0  0  3  0  0  0  0  0  0
  -21.1850   -5.8680   25.0620 C   0  0  0  0  0  3  0  0  0  0  0  0
  -21.4710   -4.4940   24.9450 C   0  0  0  0  0  0  0  0  0  0  0  0
  -21.8300   -3.9540   23.6970 C   0  0  0  0  0  3  0  0  0  0  0  0
  -21.9010   -4.7860   22.5660 C   0  0  0  0  0  0  0  0  0  0  0  0
  -22.2260   -4.2570   21.3620 F   0  0  0  0  0  0  0  0  0  0  0  0
  -21.3970   -3.6900   26.0310 F   0  0  0  0  0  0  0  0  0  0  0  0
  -22.7300  -13.5590   21.1960 C   0  0  0  0  0  0  0  0  0  0  0  0
  -22.0070  -12.8670   22.0680 N   0  0  0  0  0  0  0  0  0  0  0  0
  -22.2920  -14.5820   20.6730 O   0  0  0  0  0  0  0  0  0  0  0  0
  -22.3760  -12.0400   22.5130 H   0  0  0  0  0  0  0  0  0  0  0  0
  -21.0710  -13.1710   22.2970 H   0  0  0  0  0  0  0  0  0  0  0  0
  -25.3500  -15.2220   20.3610 N   0  0  0  0  0  0  0  0  0  0  0  0
  -24.5820  -15.8760   20.4760 H   0  0  0  0  0  0  0  0  0  0  0  0
  -26.1950  -15.6600   20.0200 H   0  0  0  0  0  0  0  0  0  0  0  0
  -27.9610  -24.7790   20.6000 C   0  0  0  0  0  2  0  0  0  0  0  0
  -28.2690  -26.2330   20.2060 O   0  0  0  0  0  0  0  0  0  0  0  0
  -24.6470  -31.8690   23.2130 C   0  0  0  0  0  0  0  0  0  0  0  0
  -27.2060  -27.1900   20.1810 C   0  0  0  0  0  0  0  0  0  0  0  0
  -23.4330  -30.4650   21.5890 C   0  0  0  0  0  3  0  0  0  0  0  0
  -24.8720  -28.8950   20.1600 C   0  0  0  0  0  0  0  0  0  0  0  0
  -25.9820  -30.7470   21.3980 C   0  0  0  0  0  2  0  0  0  0  0  0
  -26.0530  -29.3560   20.7550 C   0  0  0  0  0  0  0  0  0  0  0  0
  -27.2260  -28.5190   20.7500 C   0  0  0  0  0  3  0  0  0  0  0  0
  -26.0050  -26.8240   19.5360 C   0  0  0  0  0  3  0  0  0  0  0  0
  -24.8580  -27.6400   19.5350 C   0  0  0  0  0  3  0  0  0  0  0  0
  -23.6420  -29.7860   20.2100 C   0  0  0  0  0  2  0  0  0  0  0  0
  -24.7070  -31.0470   22.1220 N   0  0  0  0  0  0  0  0  0  0  0  0
  -23.5660  -32.1530   23.7500 O   0  0  0  0  0  0  0  0  0  0  0  0
  -22.7680  -29.4570   22.5590 C   0  0  0  0  0  0  0  0  0  0  0  0
  -21.4400  -29.2840   22.4450 N   0  0  0  0  0  0  0  0  0  0  0  0
  -23.4490  -28.8330   23.3770 O   0  0  0  0  0  0  0  0  0  0  0  0
  -20.9480  -29.8400   21.7570 H   0  0  0  0  0  0  0  0  0  0  0  0
  -18.0650  -28.0800   22.9700 C   0  0  0  0  0  0  0  0  0  0  0  0
  -20.6250  -28.3510   23.2270 C   0  0  0  0  0  3  0  0  0  0  0  0
  -20.7290  -26.9150   22.6640 C   0  0  0  0  0  2  0  0  0  0  0  0
  -19.6240  -26.5790   21.6570 C   0  0  0  0  0  2  0  0  0  0  0  0
  -18.2440  -26.7260   22.3040 C   0  0  0  0  0  2  0  0  0  0  0  0
  -19.1840  -28.8500   23.3890 C   0  0  0  0  0  0  0  0  0  0  0  0
  -18.9620  -30.1160   23.9720 C   0  0  0  0  0  3  0  0  0  0  0  0
  -17.6560  -30.6130   24.1410 C   0  0  0  0  0  3  0  0  0  0  0  0
  -16.5530  -29.8410   23.7380 C   0  0  0  0  0  3  0  0  0  0  0  0
  -16.7590  -28.5760   23.1570 C   0  0  0  0  0  3  0  0  0  0  0  0
  -25.9310  -32.5070   23.8250 C   0  0  0  0  0  3  0  0  0  0  0  0
  -25.6150  -33.9000   24.1730 N   0  0  0  0  0  0  0  0  0  0  0  0
  -25.9240  -34.9650   23.4190 C   0  0  0  0  0  0  0  0  0  0  0  0
  -26.5730  -34.8770   22.3730 O   0  0  0  0  0  0  0  0  0  0  0  0
  -25.0370  -34.0430   24.9880 H   0  0  0  0  0  0  0  0  0  0  0  0
  -24.1710  -36.7470   23.1260 C   0  0  0  0  0  1  0  0  0  0  0  0
  -25.4370  -36.3460   23.9010 C   0  0  0  0  0  3  0  0  0  0  0  0
  -27.5860  -37.2410   24.6800 C   0  0  0  0  0  1  0  0  0  0  0  0
  -26.4560  -37.4090   23.7690 N   0  0  0  0  0  0  0  0  0  0  0  0
  -26.0470  -38.3240   23.9380 H   0  0  0  0  0  0  0  0  0  0  0  0
  -26.4660  -31.7310   25.0900 C   0  0  1  0  0  0  0  0  0  0  0  0
  -25.3880  -31.4830   26.1720 C   0  0  0  0  0  1  0  0  0  0  0  0
  -27.0500  -30.3570   24.6870 C   0  0  0  0  0  1  0  0  0  0  0  0
  -27.6230  -32.5260   25.7410 C   0  0  0  0  0  1  0  0  0  0  0  0
  1  2  2  0
  1  3  1  0
  2  5  1  0
  3  6  2  0
  5  4  2  0
  6 49  1  0
  6  4  1  0
  7 20  1  0
  8 13  1  0
  9 10  1  0
  9  8  1  0
 11 10  1  0
 11 24  1  0
 11 12  1  0
 13  7  1  0
 13 12  1  0
 14  7  2  0
 15 17  1  0
 15 19  1  0
 16 18  1  0
 17 20  1  0
 19  5  1  0
 19 16  1  0
 20 18  1  0
 21 22  2  0
 22 41  1  0
 23 22  1  0
 23 26  1  0
 24 21  1  0
 24 25  1  0
 25 23  2  0
 26 27  1  0
 27 28  2  0
 29 32  1  0
 29 28  1  0
 30 29  2  0
 31 30  1  0
 31 26  2  0
 32 33  1  0
 33 34  1  0
 34 35  2  0
 36 35  1  0
 36 40  1  0
 37 36  2  0
 38 33  2  0
 38 37  1  0
 39 38  1  0
 41 42  1  0
 42 45  1  0
 42 44  1  0
 43 41  2  0
 46 47  1  0
 46 21  1  0
 48 46  1  0
 50 49  1  0
 51 62  2  0
 52 50  1  0
 52 57  1  0
 53 61  1  0
 53 63  1  0
 54 60  1  0
 54 56  1  0
 55 61  1  0
 56 55  1  0
 57 56  2  0
 58 52  2  0
 59 58  1  0
 59 54  2  0
 60 53  1  0
 61 51  1  0
 63 65  2  0
 64 63  1  0
 66 64  1  0
 67 76  2  0
 67 72  1  0
 68 64  1  0
 68 72  1  0
 69 68  1  0
 70 71  1  0
 70 69  1  0
 71 67  1  0
 72 73  2  0
 73 74  1  0
 75 74  2  0
 76 75  1  0
 77 51  1  0
 77 78  1  0
 77 87  1  0
 78 81  1  0
 79 83  1  0
 79 78  1  0
 80 79  2  0
 83 82  1  0
 85 83  1  0
 85 86  1  0
 85 84  1  0
 87 90  1  1
 87 88  1  0
 89 87  1  0
M  ISO  4   7 100  20 100  49 101  50 101
M  END
>  <TORSDO>  (67) 
F 17

>  <SCORE>  (67) 
-15.194

>  <name>  (67) 
66

>  <ligand_id>  (67) 
66

>  <original_smiles>  (67) 
[H]c1c([H])c([H])c2c(c1[H])C([H])([H])C([H])([H])C([H])([H])C2([H])N([H])C(=O)C1([H])N(C(=O)C([H])(N([H])C(=O)C([H])(N([H])C([H])([H])[H])C([H])([H])[H])C(C([H])([H])[H])(C([H])([H])[H])C([H])([H])[H])C([H])([H])c2c([H])c(OC([H])([H])c3c([H])c([H])c([H])c(C4([H])C([H])([H])C([H])([H])N(C(=O)N5C([H])([H])C([H])([H])C([H])([H])C([H])(n6nc(-c7c([H])c([H])c(Oc8c([H])c([H])c(F)c([H])c8F)c([H])c7[H])c(C(=O)N([H])[H])c6N([H])[H])C5([H])[H])C([H])([H])C4([H])[H])c3[H])c([H])c([H])c2C1([H])[H]

>  <smiles>  (67) 
[H]c1c([H])c([H])c2c(c1[H])C([H])([H])C([H])([H])C([H])([H])C2([H])N([H])C(=O)C1([H])N(C(=O)C([H])(N([H])C(=O)C([H])(N([H])C([H])([H])[H])C([H])([H])[H])C(C([H])([H])[H])(C([H])([H])[H])C([H])([H])[H])C([H])([H])c2c([H])c(OC([H])([H])c3c([H])c([H])c([H])c(C4([H])C([H])([H])C([H])([H])N(C(=O)N5C([H])([H])C([H])([H])C([H])([H])C([H])(n6nc(-c7c([H])c([H])c(Oc8c([H])c([H])c(F)c([H])c8F)c([H])c7[H])c(C(=O)N([H])[H])c6N([H])[H])C5([H])[H])C([H])([H])C4([H])[H])c3[H])c([H])c([H])c2C1([H])[H]

$$$$
67:0:0
     RDKit          3D

 91100  0  0  1  0  0  0  0  0999 V2000
  -28.5660  -24.2560   18.4970 C   0  0  0  0  0  2  0  0  0  0  0  0
  -28.6490  -22.6860   18.4460 C   0  0  0  0  0  2  0  0  0  0  0  0
  -28.9140  -23.4090   20.6720 C   0  0  0  0  0  2  0  0  0  0  0  0
  -28.1800  -24.6880   19.9240 C   0  0  0  0  0  3  0  0  0  0  0  0
  -29.0030  -22.1640   19.7730 N   0  0  0  0  0  0  0  0  0  0  0  0
  -29.5630  -20.0730   21.2400 C   0  0  0  0  0  3  0  0  0  0  0  0
  -29.8430  -18.6550   21.4150 C   0  0  0  0  0  3  0  0  0  0  0  0
  -29.4340  -19.7160   18.9330 C   0  0  0  0  0  3  0  0  0  0  0  0
  -29.3270  -20.7120   19.9820 C   0  0  0  0  0  0  0  0  0  0  0  0
  -29.9550  -17.6530   20.3710 C   0  0  0  0  0  0  0  0  0  0  0  0
  -29.7320  -18.2900   19.1010 C   0  0  0  0  0  0  0  0  0  0  0  0
  -29.7710  -17.5120   17.9920 F   0  0  0  0  0  0  0  0  0  0  0  0
  -30.7430  -15.0480   19.9240 C   0  0  0  0  0  0  0  0  0  0  0  0
  -30.5260  -12.7220   18.8960 C   0  0  0  0  0  2  0  0  0  0  0  0
  -29.5010  -12.7250   17.7370 C   0  0  0  0  0  2  0  0  0  0  0  0
  -28.0760  -12.4890   18.2750 C   0  0  0  0  0  2  0  0  0  0  0  0
  -27.7710  -13.3590   19.5210 C   0  0  0  0  0  3  0  0  0  0  0  0
  -28.9140  -13.3210   20.5550 C   0  0  0  0  0  2  0  0  0  0  0  0
  -30.1390  -13.7810   19.8790 N   0  0  0  0  0  0  0  0  0  0  0  0
  -31.8190  -15.1670   19.3250 O   0  0  0  0  0  0  0  0  0  0  0  0
  -30.2790  -15.8570   22.1150 C   0  0  0  0  0  1  0  0  0  0  0  0
  -30.1950  -16.1420   20.6690 N   0  0  0  0  0  0  0  0  0  0  0  0
  -25.4870  -13.8990   20.5380 C   0  0  0  0  0  0  0  0  0  0  0  0
  -24.4560  -13.1090   20.9660 C   0  0  0  0  0  0  0  0  0  0  0  0
  -24.8950  -11.7610   20.7950 C   0  0  0  0  0  0  0  0  0  0  0  0
  -26.4840  -13.0340   20.1260 N   0  0  0  0  0  0  0  0  0  0  0  0
  -26.1450  -11.7350   20.3430 N   0  0  0  0  0  0  0  0  0  0  0  0
  -24.1730  -10.4930   20.9780 C   0  0  0  0  0  0  0  0  0  0  0  0
  -24.6150   -9.5150   21.8950 C   0  0  0  0  0  3  0  0  0  0  0  0
  -23.8910   -8.3140   22.0650 C   0  0  0  0  0  3  0  0  0  0  0  0
  -22.7110   -8.0860   21.3180 C   0  0  0  0  0  0  0  0  0  0  0  0
  -22.2860   -9.0550   20.3930 C   0  0  0  0  0  3  0  0  0  0  0  0
  -23.0110  -10.2450   20.2200 C   0  0  0  0  0  3  0  0  0  0  0  0
  -21.9590   -6.9370   21.3990 O   0  0  0  0  0  0  0  0  0  0  0  0
  -21.8240   -6.2460   22.5760 C   0  0  0  0  0  0  0  0  0  0  0  0
  -21.2810   -6.8450   23.7340 C   0  0  0  0  0  3  0  0  0  0  0  0
  -21.0960   -6.0800   24.9010 C   0  0  0  0  0  3  0  0  0  0  0  0
  -21.4420   -4.7150   24.9110 C   0  0  0  0  0  0  0  0  0  0  0  0
  -21.9770   -4.1150   23.7580 C   0  0  0  0  0  3  0  0  0  0  0  0
  -22.1650   -4.8790   22.5920 C   0  0  0  0  0  0  0  0  0  0  0  0
  -22.6610   -4.2910   21.4770 F   0  0  0  0  0  0  0  0  0  0  0  0
  -21.2570   -3.9770   26.0310 F   0  0  0  0  0  0  0  0  0  0  0  0
  -23.1020  -13.5800   21.4150 C   0  0  0  0  0  0  0  0  0  0  0  0
  -22.4750  -12.8540   22.3330 N   0  0  0  0  0  0  0  0  0  0  0  0
  -22.6160  -14.6250   20.9860 O   0  0  0  0  0  0  0  0  0  0  0  0
  -22.8860  -12.0100   22.7060 H   0  0  0  0  0  0  0  0  0  0  0  0
  -21.5690  -13.1480   22.6700 H   0  0  0  0  0  0  0  0  0  0  0  0
  -25.6520  -15.2780   20.4420 N   0  0  0  0  0  0  0  0  0  0  0  0
  -24.9180  -15.9300   20.6970 H   0  0  0  0  0  0  0  0  0  0  0  0
  -26.4780  -15.7350   20.0750 H   0  0  0  0  0  0  0  0  0  0  0  0
  -28.3570  -26.2230   20.1930 O   0  0  0  0  0  0  0  0  0  0  0  0
  -24.7170  -31.8330   23.2870 C   0  0  0  0  0  0  0  0  0  0  0  0
  -27.2900  -27.1960   20.1300 C   0  0  0  0  0  0  0  0  0  0  0  0
  -23.5090  -30.4710   21.6230 C   0  0  0  0  0  3  0  0  0  0  0  0
  -24.9520  -28.9340   20.1510 C   0  0  0  0  0  0  0  0  0  0  0  0
  -26.0610  -30.7460   21.4480 C   0  0  0  0  0  2  0  0  0  0  0  0
  -26.1330  -29.3700   20.7650 C   0  0  0  0  0  0  0  0  0  0  0  0
  -27.2990  -28.5160   20.7410 C   0  0  0  0  0  3  0  0  0  0  0  0
  -26.0870  -26.8690   19.4660 C   0  0  0  0  0  3  0  0  0  0  0  0
  -24.9430  -27.6980   19.4840 C   0  0  0  0  0  3  0  0  0  0  0  0
  -23.7230  -29.8250   20.2280 C   0  0  0  0  0  2  0  0  0  0  0  0
  -24.7820  -31.0370   22.1750 N   0  0  0  0  0  0  0  0  0  0  0  0
  -23.6350  -32.1030   23.8290 O   0  0  0  0  0  0  0  0  0  0  0  0
  -22.8400  -29.4420   22.5690 C   0  0  0  0  0  0  0  0  0  0  0  0
  -21.5140  -29.2590   22.4400 N   0  0  0  0  0  0  0  0  0  0  0  0
  -23.5180  -28.8100   23.3830 O   0  0  0  0  0  0  0  0  0  0  0  0
  -21.0220  -29.8230   21.7610 H   0  0  0  0  0  0  0  0  0  0  0  0
  -18.1460  -28.0130   22.9240 C   0  0  0  0  0  0  0  0  0  0  0  0
  -20.7030  -28.3010   23.1960 C   0  0  0  0  0  3  0  0  0  0  0  0
  -20.8190  -26.8790   22.5990 C   0  0  0  0  0  2  0  0  0  0  0  0
  -19.7210  -26.5600   21.5780 C   0  0  0  0  0  2  0  0  0  0  0  0
  -18.3380  -26.6790   22.2250 C   0  0  0  0  0  2  0  0  0  0  0  0
  -19.2560  -28.7820   23.3660 C   0  0  0  0  0  0  0  0  0  0  0  0
  -19.0210  -30.0300   23.9830 C   0  0  0  0  0  3  0  0  0  0  0  0
  -17.7110  -30.5110   24.1620 C   0  0  0  0  0  3  0  0  0  0  0  0
  -16.6150  -29.7410   23.7340 C   0  0  0  0  0  3  0  0  0  0  0  0
  -16.8350  -28.4940   23.1200 C   0  0  0  0  0  3  0  0  0  0  0  0
  -25.9980  -32.4590   23.9180 C   0  0  0  0  0  3  0  0  0  0  0  0
  -25.6980  -33.8610   24.2470 N   0  0  0  0  0  0  0  0  0  0  0  0
  -26.0150  -34.9130   23.4790 C   0  0  0  0  0  0  0  0  0  0  0  0
  -26.6580  -34.8030   22.4320 O   0  0  0  0  0  0  0  0  0  0  0  0
  -25.1270  -34.0210   25.0640 H   0  0  0  0  0  0  0  0  0  0  0  0
  -24.2740  -36.7060   23.1780 C   0  0  0  0  0  1  0  0  0  0  0  0
  -25.5460  -36.3060   23.9440 C   0  0  0  0  0  3  0  0  0  0  0  0
  -27.7070  -37.2050   24.6870 C   0  0  0  0  0  1  0  0  0  0  0  0
  -26.5730  -37.3590   23.7790 N   0  0  0  0  0  0  0  0  0  0  0  0
  -26.1700  -38.2810   23.9270 H   0  0  0  0  0  0  0  0  0  0  0  0
  -26.4950  -31.6880   25.2040 C   0  0  1  0  0  0  0  0  0  0  0  0
  -25.3920  -31.4670   26.2640 C   0  0  0  0  0  1  0  0  0  0  0  0
  -27.0670  -30.3020   24.8300 C   0  0  0  0  0  1  0  0  0  0  0  0
  -27.6490  -32.4730   25.8710 C   0  0  0  0  0  1  0  0  0  0  0  0
  1  4  1  0
  2  1  1  0
  2  5  1  0
  4 51  1  0
  4  3  1  0
  5  9  1  0
  5  3  1  0
  6  7  1  0
  8 11  2  0
  8  9  1  0
  9  6  2  0
 10 22  1  0
 10  7  2  0
 11 10  1  0
 12 11  1  0
 13 22  1  0
 14 19  1  0
 15 16  1  0
 15 14  1  0
 17 16  1  0
 17 26  1  0
 17 18  1  0
 19 13  1  0
 19 18  1  0
 20 13  2  0
 22 21  1  0
 23 24  2  0
 24 43  1  0
 25 24  1  0
 25 28  1  0
 26 27  1  0
 26 23  1  0
 27 25  2  0
 28 29  1  0
 29 30  2  0
 31 34  1  0
 31 30  1  0
 32 31  2  0
 33 32  1  0
 33 28  2  0
 34 35  1  0
 35 40  2  0
 35 36  1  0
 36 37  2  0
 37 38  1  0
 38 42  1  0
 39 38  2  0
 40 39  1  0
 41 40  1  0
 43 44  1  0
 44 47  1  0
 44 46  1  0
 45 43  2  0
 48 23  1  0
 48 49  1  0
 50 48  1  0
 52 63  2  0
 53 51  1  0
 53 58  1  0
 54 62  1  0
 54 64  1  0
 55 61  1  0
 55 57  1  0
 56 62  1  0
 57 56  1  0
 58 57  2  0
 59 60  1  0
 59 53  2  0
 60 55  2  0
 61 54  1  0
 62 52  1  0
 64 66  2  0
 65 64  1  0
 67 65  1  0
 68 77  2  0
 68 73  1  0
 69 65  1  0
 69 73  1  0
 70 69  1  0
 71 72  1  0
 71 70  1  0
 72 68  1  0
 73 74  2  0
 74 75  1  0
 76 75  2  0
 77 76  1  0
 78 52  1  0
 78 79  1  0
 78 88  1  0
 79 82  1  0
 80 84  1  0
 80 79  1  0
 81 80  2  0
 84 83  1  0
 86 87  1  0
 86 84  1  0
 86 85  1  0
 88 91  1  1
 88 89  1  0
 90 88  1  0
M  ISO  4   4 101  13 100  22 100  51 101
M  END
>  <TORSDO>  (68) 
F 17

>  <SCORE>  (68) 
-13.924

>  <name>  (68) 
67

>  <ligand_id>  (68) 
67

>  <original_smiles>  (68) 
[H]c1c([H])c([H])c2c(c1[H])C([H])([H])C([H])([H])C([H])([H])C2([H])N([H])C(=O)C1([H])N(C(=O)C([H])(N([H])C(=O)C([H])(N([H])C([H])([H])[H])C([H])([H])[H])C(C([H])([H])[H])(C([H])([H])[H])C([H])([H])[H])C([H])([H])c2c([H])c(OC3([H])C([H])([H])N(c4c([H])c([H])c(N(C(=O)N5C([H])([H])C([H])([H])C([H])([H])C([H])(n6nc(-c7c([H])c([H])c(Oc8c([H])c([H])c(F)c([H])c8F)c([H])c7[H])c(C(=O)N([H])[H])c6N([H])[H])C5([H])[H])C([H])([H])[H])c(F)c4[H])C([H])([H])C3([H])[H])c([H])c([H])c2C1([H])[H]

>  <smiles>  (68) 
[H]c1c([H])c([H])c2c(c1[H])C([H])([H])C([H])([H])C([H])([H])C2([H])N([H])C(=O)C1([H])N(C(=O)C([H])(N([H])C(=O)C([H])(N([H])C([H])([H])[H])C([H])([H])[H])C(C([H])([H])[H])(C([H])([H])[H])C([H])([H])[H])C([H])([H])c2c([H])c(OC3([H])C([H])([H])N(c4c([H])c([H])c(N(C(=O)N5C([H])([H])C([H])([H])C([H])([H])C([H])(n6nc(-c7c([H])c([H])c(Oc8c([H])c([H])c(F)c([H])c8F)c([H])c7[H])c(C(=O)N([H])[H])c6N([H])[H])C5([H])[H])C([H])([H])[H])c(F)c4[H])C([H])([H])C3([H])[H])c([H])c([H])c2C1([H])[H]

$$$$
68:0:0
     RDKit          3D

 92101  0  0  1  0  0  0  0  0999 V2000
  -29.6820  -20.7820   20.6370 N   0  0  0  0  0  0  0  0  0  0  0  0
  -27.9730  -17.7230   19.1430 C   0  0  0  0  0  3  0  0  0  0  0  0
  -28.6600  -16.5690   19.5820 C   0  0  0  0  0  3  0  0  0  0  0  0
  -28.3490  -19.0350   19.5060 C   0  0  0  0  0  3  0  0  0  0  0  0
  -30.1630  -18.0340   20.7700 C   0  0  0  0  0  3  0  0  0  0  0  0
  -29.7860  -16.6140   20.4320 C   0  0  0  0  0  0  0  0  0  0  0  0
  -29.4490  -19.3100   20.3420 C   0  0  0  0  0  0  0  0  0  0  0  0
  -30.5580  -15.1860   20.6410 C   0  0  0  0  0  0  0  0  0  0  0  0
  -30.4940  -12.8220   19.6770 C   0  0  0  0  0  2  0  0  0  0  0  0
  -29.5910  -12.7370   18.4240 C   0  0  0  0  0  2  0  0  0  0  0  0
  -28.1240  -12.4820   18.8190 C   0  0  0  0  0  2  0  0  0  0  0  0
  -27.6610  -13.3820   19.9930 C   0  0  0  0  0  3  0  0  0  0  0  0
  -28.6940  -13.4570   21.1330 C   0  0  0  0  0  2  0  0  0  0  0  0
  -29.9680  -13.9130   20.5560 N   0  0  0  0  0  0  0  0  0  0  0  0
  -31.7900  -15.1990   20.5420 O   0  0  0  0  0  0  0  0  0  0  0  0
  -25.2600  -13.8960   20.6900 C   0  0  0  0  0  0  0  0  0  0  0  0
  -24.2060  -13.0930   21.0310 C   0  0  0  0  0  0  0  0  0  0  0  0
  -24.7030  -11.7550   21.0040 C   0  0  0  0  0  0  0  0  0  0  0  0
  -26.3270  -13.0430   20.4710 N   0  0  0  0  0  0  0  0  0  0  0  0
  -26.0020  -11.7500   20.7270 N   0  0  0  0  0  0  0  0  0  0  0  0
  -24.0020  -10.4750   21.1680 C   0  0  0  0  0  0  0  0  0  0  0  0
  -24.4310   -9.5100   22.1060 C   0  0  0  0  0  3  0  0  0  0  0  0
  -23.7250   -8.2960   22.2580 C   0  0  0  0  0  3  0  0  0  0  0  0
  -22.5760   -8.0390   21.4730 C   0  0  0  0  0  0  0  0  0  0  0  0
  -22.1680   -8.9930   20.5240 C   0  0  0  0  0  3  0  0  0  0  0  0
  -22.8730  -10.1990   20.3700 C   0  0  0  0  0  3  0  0  0  0  0  0
  -21.8450   -6.8780   21.5330 O   0  0  0  0  0  0  0  0  0  0  0  0
  -21.7880   -6.1230   22.6800 C   0  0  0  0  0  0  0  0  0  0  0  0
  -21.3250   -6.6580   23.9010 C   0  0  0  0  0  3  0  0  0  0  0  0
  -21.2180   -5.8300   25.0370 C   0  0  0  0  0  3  0  0  0  0  0  0
  -21.5610   -4.4680   24.9500 C   0  0  0  0  0  0  0  0  0  0  0  0
  -22.0160   -3.9310   23.7320 C   0  0  0  0  0  3  0  0  0  0  0  0
  -22.1270   -4.7580   22.6000 C   0  0  0  0  0  0  0  0  0  0  0  0
  -22.5470   -4.2320   21.4240 F   0  0  0  0  0  0  0  0  0  0  0  0
  -21.4520   -3.6700   26.0380 F   0  0  0  0  0  0  0  0  0  0  0  0
  -22.7910  -13.5370   21.2670 C   0  0  0  0  0  0  0  0  0  0  0  0
  -22.0570  -12.8270   22.1170 N   0  0  0  0  0  0  0  0  0  0  0  0
  -22.3440  -14.5510   20.7320 O   0  0  0  0  0  0  0  0  0  0  0  0
  -22.4290  -12.0070   22.5710 H   0  0  0  0  0  0  0  0  0  0  0  0
  -21.1080  -13.1110   22.3140 H   0  0  0  0  0  0  0  0  0  0  0  0
  -25.3990  -15.2700   20.5210 N   0  0  0  0  0  0  0  0  0  0  0  0
  -24.6140  -15.9090   20.5950 H   0  0  0  0  0  0  0  0  0  0  0  0
  -26.2560  -15.7280   20.2340 H   0  0  0  0  0  0  0  0  0  0  0  0
  -31.9500  -21.8740   23.4920 C   0  0  0  0  0  2  0  0  0  0  0  0
  -30.7140  -21.3500   24.2340 C   0  0  0  0  0  2  0  0  0  0  0  0
  -31.4760  -22.0640   22.0550 C   0  0  0  0  0  2  0  0  0  0  0  0
  -29.8150  -20.7020   23.1650 C   0  0  0  0  0  2  0  0  0  0  0  0
  -30.5660  -20.8470   21.8270 C   0  0  0  0  0  3  0  0  0  0  0  0
  -29.0240  -23.3080   20.3450 C   0  0  0  0  0  3  0  0  0  0  0  0
  -28.8040  -21.9540   20.3470 N   0  0  0  0  0  0  0  0  0  0  0  0
  -27.9530  -24.6010   20.1890 C   0  0  0  0  0  2  0  0  0  0  0  0
  -28.2740  -26.1550   20.2870 O   0  0  0  0  0  0  0  0  0  0  0  0
  -24.6840  -31.9580   23.2300 C   0  0  0  0  0  0  0  0  0  0  0  0
  -27.2420  -27.1850   20.2010 C   0  0  0  0  0  0  0  0  0  0  0  0
  -23.4760  -30.5510   21.6130 C   0  0  0  0  0  3  0  0  0  0  0  0
  -24.9160  -28.9710   20.1770 C   0  0  0  0  0  0  0  0  0  0  0  0
  -26.0280  -30.8090   21.4250 C   0  0  0  0  0  2  0  0  0  0  0  0
  -26.1020  -29.4080   20.7780 C   0  0  0  0  0  0  0  0  0  0  0  0
  -27.2630  -28.5330   20.7730 C   0  0  0  0  0  3  0  0  0  0  0  0
  -26.0290  -26.8740   19.5460 C   0  0  0  0  0  3  0  0  0  0  0  0
  -24.8970  -27.7220   19.5400 C   0  0  0  0  0  3  0  0  0  0  0  0
  -23.6870  -29.8700   20.2360 C   0  0  0  0  0  2  0  0  0  0  0  0
  -24.7510  -31.1290   22.1440 N   0  0  0  0  0  0  0  0  0  0  0  0
  -23.6010  -32.2430   23.7670 O   0  0  0  0  0  0  0  0  0  0  0  0
  -22.8090  -29.5460   22.5880 C   0  0  0  0  0  0  0  0  0  0  0  0
  -21.4890  -29.3280   22.4440 N   0  0  0  0  0  0  0  0  0  0  0  0
  -23.4850  -28.9630   23.4400 O   0  0  0  0  0  0  0  0  0  0  0  0
  -20.9970  -29.8510   21.7330 H   0  0  0  0  0  0  0  0  0  0  0  0
  -18.1550  -27.9710   22.8740 C   0  0  0  0  0  0  0  0  0  0  0  0
  -20.6840  -28.3840   23.2250 C   0  0  0  0  0  3  0  0  0  0  0  0
  -20.8850  -26.9360   22.7240 C   0  0  0  0  0  2  0  0  0  0  0  0
  -19.8440  -26.5110   21.6830 C   0  0  0  0  0  2  0  0  0  0  0  0
  -18.4290  -26.6080   22.2620 C   0  0  0  0  0  2  0  0  0  0  0  0
  -19.2140  -28.8120   23.3100 C   0  0  0  0  0  0  0  0  0  0  0  0
  -18.9030  -30.0830   23.8400 C   0  0  0  0  0  3  0  0  0  0  0  0
  -17.5680  -30.5180   23.9350 C   0  0  0  0  0  3  0  0  0  0  0  0
  -16.5220  -29.6750   23.5150 C   0  0  0  0  0  3  0  0  0  0  0  0
  -16.8180  -28.4060   22.9880 C   0  0  0  0  0  3  0  0  0  0  0  0
  -25.9640  -32.6060   23.8420 C   0  0  0  0  0  3  0  0  0  0  0  0
  -26.4950  -31.8440   25.1200 C   0  0  1  0  0  0  0  0  0  0  0  0
  -25.4100  -31.6030   26.1970 C   0  0  0  0  0  1  0  0  0  0  0  0
  -27.0860  -30.4710   24.7330 C   0  0  0  0  0  1  0  0  0  0  0  0
  -27.6460  -32.6490   25.7680 C   0  0  0  0  0  1  0  0  0  0  0  0
  -25.6410  -34.0020   24.1800 N   0  0  0  0  0  0  0  0  0  0  0  0
  -25.9580  -35.0660   23.4290 C   0  0  0  0  0  0  0  0  0  0  0  0
  -26.6220  -34.9770   22.3920 O   0  0  0  0  0  0  0  0  0  0  0  0
  -25.0480  -34.1440   24.9830 H   0  0  0  0  0  0  0  0  0  0  0  0
  -24.2110  -36.8540   23.1170 C   0  0  0  0  0  1  0  0  0  0  0  0
  -25.4680  -36.4490   23.9040 C   0  0  0  0  0  3  0  0  0  0  0  0
  -27.6070  -37.3460   24.7120 C   0  0  0  0  0  1  0  0  0  0  0  0
  -26.4900  -37.5120   23.7860 N   0  0  0  0  0  0  0  0  0  0  0  0
  -26.0770  -38.4270   23.9520 H   0  0  0  0  0  0  0  0  0  0  0  0
  1 48  1  0
  2  4  2  0
  2  3  1  0
  3  6  2  0
  4  7  1  0
  6  8  1  0
  6  5  1  0
  7  1  1  0
  7  5  2  0
  9 14  1  0
 10 11  1  0
 10  9  1  0
 12 11  1  0
 12 19  1  0
 12 13  1  0
 14  8  1  0
 14 13  1  0
 15  8  2  0
 16 17  2  0
 17 36  1  0
 18 17  1  0
 18 21  1  0
 19 16  1  0
 19 20  1  0
 20 18  2  0
 21 22  1  0
 22 23  2  0
 24 27  1  0
 24 23  1  0
 25 24  2  0
 26 25  1  0
 26 21  2  0
 27 28  1  0
 28 29  1  0
 29 30  2  0
 31 30  1  0
 31 35  1  0
 32 31  2  0
 33 28  2  0
 33 32  1  0
 34 33  1  0
 36 37  1  0
 37 40  1  0
 37 39  1  0
 38 36  2  0
 41 42  1  0
 41 16  1  0
 43 41  1  0
 44 45  1  0
 46 44  1  0
 47 45  1  0
 48 46  1  0
 48 47  1  0
 49 50  2  0
 50  1  1  0
 51 52  1  0
 51 49  1  0
 53 64  2  0
 54 52  1  0
 54 59  1  0
 55 63  1  0
 55 65  1  0
 56 62  1  0
 56 58  1  0
 57 63  1  0
 58 57  1  0
 59 58  2  0
 60 54  2  0
 61 60  1  0
 61 56  2  0
 62 55  1  0
 63 53  1  0
 65 67  2  0
 66 65  1  0
 68 66  1  0
 69 78  2  0
 69 74  1  0
 70 66  1  0
 70 74  1  0
 71 70  1  0
 72 73  1  0
 72 71  1  0
 73 69  1  0
 74 75  2  0
 75 76  1  0
 77 76  2  0
 78 77  1  0
 79 53  1  0
 79 84  1  0
 79 80  1  0
 80 83  1  1
 80 81  1  0
 82 80  1  0
 84 87  1  0
 85 89  1  0
 85 84  1  0
 86 85  2  0
 89 88  1  0
 91 89  1  0
 91 92  1  0
 91 90  1  0
M  ISO  4   6 100   8 100  51 101  52 101
M  END
>  <TORSDO>  (69) 
F 20

>  <SCORE>  (69) 
-13.368

>  <name>  (69) 
68

>  <ligand_id>  (69) 
68

>  <original_smiles>  (69) 
[H]C(=NN(c1c([H])c([H])c([H])c(C(=O)N2C([H])([H])C([H])([H])C([H])([H])C([H])(n3nc(-c4c([H])c([H])c(Oc5c([H])c([H])c(F)c([H])c5F)c([H])c4[H])c(C(=O)N([H])[H])c3N([H])[H])C2([H])[H])c1[H])C1([H])C([H])([H])C([H])([H])C([H])([H])C1([H])[H])C([H])([H])Oc1c([H])c([H])c2c(c1[H])C([H])([H])N(C(=O)C([H])(N([H])C(=O)C([H])(N([H])C([H])([H])[H])C([H])([H])[H])C(C([H])([H])[H])(C([H])([H])[H])C([H])([H])[H])C([H])(C(=O)N([H])C1([H])c3c([H])c([H])c([H])c([H])c3C([H])([H])C([H])([H])C1([H])[H])C2([H])[H]

>  <smiles>  (69) 
[H]C(=NN(c1c([H])c([H])c([H])c(C(=O)N2C([H])([H])C([H])([H])C([H])([H])C([H])(n3nc(-c4c([H])c([H])c(Oc5c([H])c([H])c(F)c([H])c5F)c([H])c4[H])c(C(=O)N([H])[H])c3N([H])[H])C2([H])[H])c1[H])C1([H])C([H])([H])C([H])([H])C([H])([H])C1([H])[H])C([H])([H])Oc1c([H])c([H])c2c(c1[H])C([H])([H])N(C(=O)C([H])(N([H])C(=O)C([H])(N([H])C([H])([H])[H])C([H])([H])[H])C(C([H])([H])[H])(C([H])([H])[H])C([H])([H])[H])C([H])(C(=O)N([H])C1([H])c3c([H])c([H])c([H])c([H])c3C([H])([H])C([H])([H])C1([H])[H])C2([H])[H]

$$$$
69:0:0
     RDKit          3D

 91 99  0  0  1  0  0  0  0  0999 V2000
  -30.7250  -19.0090   19.7310 C   0  0  0  0  0  3  0  0  0  0  0  0
  -30.3580  -20.3680   19.8290 C   0  0  0  0  0  3  0  0  0  0  0  0
  -28.3870  -18.3890   19.5330 C   0  0  0  0  0  3  0  0  0  0  0  0
  -29.7470  -18.0090   19.5460 C   0  0  0  0  0  0  0  0  0  0  0  0
  -28.9980  -20.7640   19.7390 C   0  0  0  0  0  0  0  0  0  0  0  0
  -28.0180  -19.7500   19.6300 C   0  0  0  0  0  0  0  0  0  0  0  0
  -26.7070  -20.0870   19.5700 F   0  0  0  0  0  0  0  0  0  0  0  0
  -30.1710  -16.5730   19.2180 C   0  0  0  0  0  2  0  0  0  0  0  0
  -31.1370  -14.4970   20.0290 C   0  0  0  0  0  0  0  0  0  0  0  0
  -30.7430  -12.3200   18.9430 C   0  0  0  0  0  2  0  0  0  0  0  0
  -29.7580  -12.5280   17.7730 C   0  0  0  0  0  2  0  0  0  0  0  0
  -28.2990  -12.4330   18.2650 C   0  0  0  0  0  2  0  0  0  0  0  0
  -28.0330  -13.3010   19.5240 C   0  0  0  0  0  3  0  0  0  0  0  0
  -29.1270  -13.0780   20.5910 C   0  0  0  0  0  2  0  0  0  0  0  0
  -30.4320  -13.3340   19.9620 N   0  0  0  0  0  0  0  0  0  0  0  0
  -32.2670  -14.6150   19.5430 O   0  0  0  0  0  0  0  0  0  0  0  0
  -30.3400  -16.0940   21.6910 C   0  0  0  0  0  1  0  0  0  0  0  0
  -30.4020  -15.6010   20.3120 N   0  0  0  0  0  0  0  0  0  0  0  0
  -25.7000  -13.9920   20.3600 C   0  0  0  0  0  0  0  0  0  0  0  0
  -24.6180  -13.2570   20.7640 C   0  0  0  0  0  0  0  0  0  0  0  0
  -25.0210  -11.8880   20.6850 C   0  0  0  0  0  0  0  0  0  0  0  0
  -26.6940  -13.0730   20.0620 N   0  0  0  0  0  0  0  0  0  0  0  0
  -26.2920  -11.8020   20.3150 N   0  0  0  0  0  0  0  0  0  0  0  0
  -24.2530  -10.6530   20.8850 C   0  0  0  0  0  0  0  0  0  0  0  0
  -24.6410   -9.6920   21.8440 C   0  0  0  0  0  3  0  0  0  0  0  0
  -23.8790   -8.5190   22.0310 C   0  0  0  0  0  3  0  0  0  0  0  0
  -22.7130   -8.3010   21.2580 C   0  0  0  0  0  0  0  0  0  0  0  0
  -22.3440   -9.2510   20.2880 C   0  0  0  0  0  3  0  0  0  0  0  0
  -23.1070  -10.4140   20.1000 C   0  0  0  0  0  3  0  0  0  0  0  0
  -21.9230   -7.1810   21.3530 O   0  0  0  0  0  0  0  0  0  0  0  0
  -21.7720   -6.5050   22.5370 C   0  0  0  0  0  0  0  0  0  0  0  0
  -21.2260   -7.1220   23.6840 C   0  0  0  0  0  3  0  0  0  0  0  0
  -21.0240   -6.3700   24.8590 C   0  0  0  0  0  3  0  0  0  0  0  0
  -21.3590   -5.0030   24.8870 C   0  0  0  0  0  0  0  0  0  0  0  0
  -21.8970   -4.3860   23.7440 C   0  0  0  0  0  3  0  0  0  0  0  0
  -22.1010   -5.1340   22.5720 C   0  0  0  0  0  0  0  0  0  0  0  0
  -22.6020   -4.5290   21.4680 F   0  0  0  0  0  0  0  0  0  0  0  0
  -21.1570   -4.2790   26.0130 F   0  0  0  0  0  0  0  0  0  0  0  0
  -23.2570  -13.7850   21.1110 C   0  0  0  0  0  0  0  0  0  0  0  0
  -22.5420  -13.1030   22.0020 N   0  0  0  0  0  0  0  0  0  0  0  0
  -22.8370  -14.8370   20.6320 O   0  0  0  0  0  0  0  0  0  0  0  0
  -22.8950  -12.2530   22.4130 H   0  0  0  0  0  0  0  0  0  0  0  0
  -21.6290  -13.4390   22.2740 H   0  0  0  0  0  0  0  0  0  0  0  0
  -25.9130  -15.3570   20.2010 N   0  0  0  0  0  0  0  0  0  0  0  0
  -25.1840  -16.0430   20.3640 H   0  0  0  0  0  0  0  0  0  0  0  0
  -26.7700  -15.7630   19.8490 H   0  0  0  0  0  0  0  0  0  0  0  0
  -28.5790  -22.0870   19.7270 O   0  0  0  0  0  0  0  0  0  0  0  0
  -29.5540  -23.0880   19.4150 C   0  0  0  0  0  2  0  0  0  0  0  0
  -28.9410  -24.4720   19.1010 C   0  0  0  0  0  2  0  0  0  0  0  0
  -28.5150  -25.3000   20.3290 C   0  0  0  0  0  2  0  0  0  0  0  0
  -28.5640  -26.7080   20.0580 O   0  0  0  0  0  0  0  0  0  0  0  0
  -24.6650  -31.7220   23.2450 C   0  0  0  0  0  0  0  0  0  0  0  0
  -27.3760  -27.4050   20.0640 C   0  0  0  0  0  0  0  0  0  0  0  0
  -23.4940  -30.3870   21.5210 C   0  0  0  0  0  3  0  0  0  0  0  0
  -24.9780  -28.9000   20.0720 C   0  0  0  0  0  0  0  0  0  0  0  0
  -26.0210  -30.7540   21.3910 C   0  0  0  0  0  2  0  0  0  0  0  0
  -26.1210  -29.4090   20.7010 C   0  0  0  0  0  0  0  0  0  0  0  0
  -27.3250  -28.6720   20.6860 C   0  0  0  0  0  3  0  0  0  0  0  0
  -26.2170  -26.9030   19.4340 C   0  0  0  0  0  3  0  0  0  0  0  0
  -25.0200  -27.6460   19.4350 C   0  0  0  0  0  3  0  0  0  0  0  0
  -23.7330  -29.7570   20.1210 C   0  0  0  0  0  2  0  0  0  0  0  0
  -24.7430  -30.9660   22.1120 N   0  0  0  0  0  0  0  0  0  0  0  0
  -23.5720  -31.9740   23.7720 O   0  0  0  0  0  0  0  0  0  0  0  0
  -22.8210  -29.3310   22.4270 C   0  0  0  0  0  0  0  0  0  0  0  0
  -21.4940  -29.1830   22.2890 N   0  0  0  0  0  0  0  0  0  0  0  0
  -23.4900  -28.6500   23.2090 O   0  0  0  0  0  0  0  0  0  0  0  0
  -21.0160  -29.7850   21.6340 H   0  0  0  0  0  0  0  0  0  0  0  0
  -18.0870  -28.0790   22.7640 C   0  0  0  0  0  0  0  0  0  0  0  0
  -20.6560  -28.2230   23.0080 C   0  0  0  0  0  3  0  0  0  0  0  0
  -20.6960  -26.8340   22.3310 C   0  0  0  0  0  2  0  0  0  0  0  0
  -19.5670  -26.6240   21.3170 C   0  0  0  0  0  2  0  0  0  0  0  0
  -18.2020  -26.7740   21.9950 C   0  0  0  0  0  2  0  0  0  0  0  0
  -19.2400  -28.7680   23.2270 C   0  0  0  0  0  0  0  0  0  0  0  0
  -19.0790  -29.9940   23.9070 C   0  0  0  0  0  3  0  0  0  0  0  0
  -17.7980  -30.5310   24.1290 C   0  0  0  0  0  3  0  0  0  0  0  0
  -16.6580  -29.8370   23.6840 C   0  0  0  0  0  3  0  0  0  0  0  0
  -16.8040  -28.6130   23.0080 C   0  0  0  0  0  3  0  0  0  0  0  0
  -25.9370  -32.3250   23.9160 C   0  0  0  0  0  3  0  0  0  0  0  0
  -25.6230  -33.7080   24.2990 N   0  0  0  0  0  0  0  0  0  0  0  0
  -25.9680  -34.7900   23.5880 C   0  0  0  0  0  0  0  0  0  0  0  0
  -26.6530  -34.7280   22.5630 O   0  0  0  0  0  0  0  0  0  0  0  0
  -25.0190  -33.8300   25.0980 H   0  0  0  0  0  0  0  0  0  0  0  0
  -24.2500  -36.5960   23.2670 C   0  0  0  0  0  1  0  0  0  0  0  0
  -25.4710  -36.1580   24.0920 C   0  0  0  0  0  3  0  0  0  0  0  0
  -27.5790  -37.0090   25.0190 C   0  0  0  0  0  1  0  0  0  0  0  0
  -26.5070  -37.2130   24.0480 N   0  0  0  0  0  0  0  0  0  0  0  0
  -26.0970  -38.1270   24.2180 H   0  0  0  0  0  0  0  0  0  0  0  0
  -26.4330  -31.5000   25.1670 C   0  0  1  0  0  0  0  0  0  0  0  0
  -25.3210  -31.2090   26.2010 C   0  0  0  0  0  1  0  0  0  0  0  0
  -27.0310  -30.1440   24.7220 C   0  0  0  0  0  1  0  0  0  0  0  0
  -27.5650  -32.2680   25.8880 C   0  0  0  0  0  1  0  0  0  0  0  0
  1  2  1  0
  3  4  1  0
  3  6  2  0
  4  1  2  0
  5  2  2  0
  6  5  1  0
  7  6  1  0
  8  4  1  0
  8 18  1  0
  9 18  1  0
 10 15  1  0
 11 12  1  0
 11 10  1  0
 13 12  1  0
 13 22  1  0
 13 14  1  0
 15  9  1  0
 15 14  1  0
 16  9  2  0
 18 17  1  0
 19 20  2  0
 20 39  1  0
 21 20  1  0
 21 24  1  0
 22 23  1  0
 22 19  1  0
 23 21  2  0
 24 25  1  0
 25 26  2  0
 27 30  1  0
 27 26  1  0
 28 27  2  0
 29 28  1  0
 29 24  2  0
 30 31  1  0
 31 36  2  0
 31 32  1  0
 32 33  2  0
 33 34  1  0
 34 38  1  0
 35 34  2  0
 36 35  1  0
 37 36  1  0
 39 40  1  0
 40 43  1  0
 40 42  1  0
 41 39  2  0
 44 19  1  0
 44 45  1  0
 46 44  1  0
 47  5  1  0
 48 47  1  0
 49 48  1  0
 49 50  1  0
 51 53  1  0
 51 50  1  0
 52 63  2  0
 53 58  1  0
 54 62  1  0
 54 64  1  0
 55 61  1  0
 55 57  1  0
 56 62  1  0
 57 56  1  0
 58 57  2  0
 59 60  1  0
 59 53  2  0
 60 55  2  0
 61 54  1  0
 62 52  1  0
 64 66  2  0
 65 64  1  0
 67 65  1  0
 68 77  2  0
 68 73  1  0
 69 65  1  0
 69 73  1  0
 70 69  1  0
 71 72  1  0
 71 70  1  0
 72 68  1  0
 73 74  2  0
 74 75  1  0
 76 75  2  0
 77 76  1  0
 78 52  1  0
 78 79  1  0
 78 88  1  0
 79 82  1  0
 80 84  1  0
 80 79  1  0
 81 80  2  0
 84 83  1  0
 86 84  1  0
 86 87  1  0
 86 85  1  0
 88 91  1  1
 88 89  1  0
 90 88  1  0
M  ISO  4   9 100  18 100  50 101  51 101
M  END
>  <TORSDO>  (70) 
F 21

>  <SCORE>  (70) 
-12.990

>  <name>  (70) 
69

>  <ligand_id>  (70) 
69

>  <original_smiles>  (70) 
[H]c1c([H])c([H])c2c(c1[H])C([H])([H])C([H])([H])C([H])([H])C2([H])N([H])C(=O)C1([H])N(C(=O)C([H])(N([H])C(=O)C([H])(N([H])C([H])([H])[H])C([H])([H])[H])C(C([H])([H])[H])(C([H])([H])[H])C([H])([H])[H])C([H])([H])c2c([H])c(OC([H])([H])C([H])([H])C([H])([H])Oc3c([H])c([H])c(C([H])([H])N(C(=O)N4C([H])([H])C([H])([H])C([H])([H])C([H])(n5nc(-c6c([H])c([H])c(Oc7c([H])c([H])c(F)c([H])c7F)c([H])c6[H])c(C(=O)N([H])[H])c5N([H])[H])C4([H])[H])C([H])([H])[H])c([H])c3F)c([H])c([H])c2C1([H])[H]

>  <smiles>  (70) 
[H]c1c([H])c([H])c2c(c1[H])C([H])([H])C([H])([H])C([H])([H])C2([H])N([H])C(=O)C1([H])N(C(=O)C([H])(N([H])C(=O)C([H])(N([H])C([H])([H])[H])C([H])([H])[H])C(C([H])([H])[H])(C([H])([H])[H])C([H])([H])[H])C([H])([H])c2c([H])c(OC([H])([H])C([H])([H])C([H])([H])Oc3c([H])c([H])c(C([H])([H])N(C(=O)N4C([H])([H])C([H])([H])C([H])([H])C([H])(n5nc(-c6c([H])c([H])c(Oc7c([H])c([H])c(F)c([H])c7F)c([H])c6[H])c(C(=O)N([H])[H])c5N([H])[H])C4([H])[H])C([H])([H])[H])c([H])c3F)c([H])c([H])c2C1([H])[H]

$$$$
71:0:0
     RDKit          3D

 92100  0  0  1  0  0  0  0  0999 V2000
  -28.7230  -21.5630   19.8660 C   0  0  0  0  0  2  0  0  0  0  0  0
  -30.5350  -19.6260   19.9470 C   0  0  0  0  0  3  0  0  0  0  0  0
  -30.8760  -18.2380   20.0160 C   0  0  0  0  0  3  0  0  0  0  0  0
  -28.2630  -19.0790   20.5060 C   0  0  0  0  0  3  0  0  0  0  0  0
  -29.2060  -20.0850   20.1570 C   0  0  0  0  0  0  0  0  0  0  0  0
  -29.9110  -17.2330   20.3060 C   0  0  0  0  0  0  0  0  0  0  0  0
  -28.6030  -17.6980   20.5860 C   0  0  0  0  0  0  0  0  0  0  0  0
  -27.6330  -16.7890   20.8260 F   0  0  0  0  0  0  0  0  0  0  0  0
  -30.7990  -14.8390   20.6070 C   0  0  0  0  0  0  0  0  0  0  0  0
  -30.6910  -12.4860   19.8350 C   0  0  0  0  0  2  0  0  0  0  0  0
  -29.8430  -12.3980   18.5480 C   0  0  0  0  0  2  0  0  0  0  0  0
  -28.3240  -12.3770   18.8520 C   0  0  0  0  0  2  0  0  0  0  0  0
  -27.8580  -13.3030   20.0140 C   0  0  0  0  0  3  0  0  0  0  0  0
  -28.8560  -13.3160   21.1890 C   0  0  0  0  0  2  0  0  0  0  0  0
  -30.1790  -13.6160   20.6290 N   0  0  0  0  0  0  0  0  0  0  0  0
  -32.0280  -14.9160   20.6240 O   0  0  0  0  0  0  0  0  0  0  0  0
  -30.1450  -15.7060   18.4640 C   0  0  0  0  0  1  0  0  0  0  0  0
  -30.1070  -15.8330   19.9320 N   0  0  0  0  0  0  0  0  0  0  0  0
  -25.4130  -13.8510   20.5840 C   0  0  0  0  0  0  0  0  0  0  0  0
  -24.3400  -13.0620   20.8990 C   0  0  0  0  0  0  0  0  0  0  0  0
  -24.8350  -11.7230   20.9290 C   0  0  0  0  0  0  0  0  0  0  0  0
  -26.4930  -12.9930   20.4370 N   0  0  0  0  0  0  0  0  0  0  0  0
  -26.1440  -11.7080   20.7080 N   0  0  0  0  0  0  0  0  0  0  0  0
  -24.1240  -10.4510   21.1000 C   0  0  0  0  0  0  0  0  0  0  0  0
  -24.5160   -9.5050   22.0720 C   0  0  0  0  0  3  0  0  0  0  0  0
  -23.7950   -8.3000   22.2260 C   0  0  0  0  0  3  0  0  0  0  0  0
  -22.6730   -8.0340   21.4040 C   0  0  0  0  0  0  0  0  0  0  0  0
  -22.3030   -8.9710   20.4230 C   0  0  0  0  0  3  0  0  0  0  0  0
  -23.0240  -10.1650   20.2680 C   0  0  0  0  0  3  0  0  0  0  0  0
  -21.9320   -6.8790   21.4680 O   0  0  0  0  0  0  0  0  0  0  0  0
  -21.8230   -6.1550   22.6280 C   0  0  0  0  0  0  0  0  0  0  0  0
  -21.2600   -6.7090   23.7990 C   0  0  0  0  0  3  0  0  0  0  0  0
  -21.0980   -5.9090   24.9470 C   0  0  0  0  0  3  0  0  0  0  0  0
  -21.4930   -4.5580   24.9270 C   0  0  0  0  0  0  0  0  0  0  0  0
  -22.0530   -4.0050   23.7630 C   0  0  0  0  0  3  0  0  0  0  0  0
  -22.2130   -4.8000   22.6150 C   0  0  0  0  0  0  0  0  0  0  0  0
  -22.7310   -4.2580   21.4880 F   0  0  0  0  0  0  0  0  0  0  0  0
  -21.3330   -3.7880   26.0300 F   0  0  0  0  0  0  0  0  0  0  0  0
  -22.9220  -13.5210   21.0740 C   0  0  0  0  0  0  0  0  0  0  0  0
  -22.1620  -12.8460   21.9280 N   0  0  0  0  0  0  0  0  0  0  0  0
  -22.4970  -14.5200   20.4950 O   0  0  0  0  0  0  0  0  0  0  0  0
  -22.5130  -12.0380   22.4210 H   0  0  0  0  0  0  0  0  0  0  0  0
  -21.2150  -13.1500   22.0990 H   0  0  0  0  0  0  0  0  0  0  0  0
  -25.5470  -15.2170   20.3940 N   0  0  0  0  0  0  0  0  0  0  0  0
  -24.7780  -15.8630   20.5280 H   0  0  0  0  0  0  0  0  0  0  0  0
  -26.4500  -15.6870   20.3750 H   0  0  0  0  0  0  0  0  0  0  0  0
  -29.7560  -22.6810   21.8540 C   0  0  0  0  0  1  0  0  0  0  0  0
  -29.5130  -22.7420   20.3950 N   0  0  2  0  0  4  0  0  0  0  0  0
  -30.4290  -22.5670   20.0080 H   0  0  0  0  0  0  0  0  0  0  0  0
  -29.2170  -24.1430   19.8290 C   0  0  0  0  0  3  0  0  0  0  0  0
  -28.2640  -25.1800   20.5750 C   0  0  0  0  0  3  0  0  0  0  0  0
  -28.3680  -26.6020   20.1540 O   0  0  0  0  0  0  0  0  0  0  0  0
  -24.5500  -31.8970   23.2470 C   0  0  0  0  0  0  0  0  0  0  0  0
  -27.2210  -27.4060   20.1570 C   0  0  0  0  0  0  0  0  0  0  0  0
  -23.3640  -30.5110   21.5810 C   0  0  0  0  0  3  0  0  0  0  0  0
  -24.8360  -28.9820   20.1520 C   0  0  0  0  0  0  0  0  0  0  0  0
  -25.8990  -30.8550   21.4110 C   0  0  0  0  0  2  0  0  0  0  0  0
  -25.9960  -29.4840   20.7530 C   0  0  0  0  0  0  0  0  0  0  0  0
  -27.1920  -28.7120   20.7390 C   0  0  0  0  0  3  0  0  0  0  0  0
  -26.0400  -26.9520   19.5300 C   0  0  0  0  0  3  0  0  0  0  0  0
  -24.8580  -27.7210   19.5340 C   0  0  0  0  0  3  0  0  0  0  0  0
  -23.5920  -29.8470   20.1960 C   0  0  0  0  0  2  0  0  0  0  0  0
  -24.6240  -31.1020   22.1380 N   0  0  0  0  0  0  0  0  0  0  0  0
  -23.4620  -32.1610   23.7780 O   0  0  0  0  0  0  0  0  0  0  0  0
  -22.7020  -29.4810   22.5260 C   0  0  0  0  0  0  0  0  0  0  0  0
  -21.3770  -29.2970   22.3870 N   0  0  0  0  0  0  0  0  0  0  0  0
  -23.3800  -28.8500   23.3420 O   0  0  0  0  0  0  0  0  0  0  0  0
  -20.8870  -29.8620   21.7050 H   0  0  0  0  0  0  0  0  0  0  0  0
  -18.0040  -28.0810   22.8540 C   0  0  0  0  0  0  0  0  0  0  0  0
  -20.5590  -28.3430   23.1410 C   0  0  0  0  0  3  0  0  0  0  0  0
  -20.6670  -26.9200   22.5440 C   0  0  0  0  0  2  0  0  0  0  0  0
  -19.5720  -26.6100   21.5190 C   0  0  0  0  0  2  0  0  0  0  0  0
  -18.1880  -26.7420   22.1590 C   0  0  0  0  0  2  0  0  0  0  0  0
  -19.1180  -28.8400   23.3000 C   0  0  0  0  0  0  0  0  0  0  0  0
  -18.8930  -30.0930   23.9100 C   0  0  0  0  0  3  0  0  0  0  0  0
  -17.5840  -30.5880   24.0760 C   0  0  0  0  0  3  0  0  0  0  0  0
  -16.4850  -29.8260   23.6470 C   0  0  0  0  0  3  0  0  0  0  0  0
  -16.6950  -28.5740   23.0430 C   0  0  0  0  0  3  0  0  0  0  0  0
  -25.8250  -32.5300   23.8850 C   0  0  0  0  0  3  0  0  0  0  0  0
  -26.3130  -31.7700   25.1800 C   0  0  1  0  0  0  0  0  0  0  0  0
  -25.1990  -31.5490   26.2300 C   0  0  0  0  0  1  0  0  0  0  0  0
  -26.8990  -30.3890   24.8100 C   0  0  0  0  0  1  0  0  0  0  0  0
  -27.4530  -32.5670   25.8570 C   0  0  0  0  0  1  0  0  0  0  0  0
  -25.5190  -33.9340   24.1970 N   0  0  0  0  0  0  0  0  0  0  0  0
  -25.8820  -34.9770   23.4400 C   0  0  0  0  0  0  0  0  0  0  0  0
  -26.5740  -34.8580   22.4260 O   0  0  0  0  0  0  0  0  0  0  0  0
  -24.9130  -34.1010   24.9870 H   0  0  0  0  0  0  0  0  0  0  0  0
  -24.1960  -36.7900   23.0080 C   0  0  0  0  0  1  0  0  0  0  0  0
  -25.3970  -36.3750   23.8730 C   0  0  0  0  0  3  0  0  0  0  0  0
  -27.5030  -37.2330   24.7960 C   0  0  0  0  0  1  0  0  0  0  0  0
  -26.4480  -37.4120   23.8020 N   0  0  0  0  0  0  0  0  0  0  0  0
  -26.0500  -38.3390   23.9250 H   0  0  0  0  0  0  0  0  0  0  0  0
  1  5  1  0
  1 48  1  0
  2  3  2  0
  2  5  1  0
  3  6  1  0
  4  7  1  0
  5  4  2  0
  6  7  2  0
  7  8  1  0
  9 16  2  0
  9 15  1  0
 10 15  1  0
 11 12  1  0
 11 10  1  0
 13 12  1  0
 13 22  1  0
 13 14  1  0
 15 14  1  0
 17 18  1  0
 18  6  1  0
 18  9  1  0
 19 20  2  0
 20 21  1  0
 20 39  1  0
 21 24  1  0
 22 19  1  0
 22 23  1  0
 23 21  2  0
 24 25  1  0
 25 26  2  0
 27 30  1  0
 27 26  1  0
 28 27  2  0
 29 28  1  0
 29 24  2  0
 30 31  1  0
 31 32  1  0
 32 33  2  0
 34 33  1  0
 34 38  1  0
 35 34  2  0
 36 31  2  0
 36 35  1  0
 37 36  1  0
 39 40  1  0
 40 43  1  0
 40 42  1  0
 41 39  2  0
 44 45  1  0
 44 19  1  0
 46 44  1  0
 48 47  1  0
 48 49  1  6
 50 48  1  0
 50 51  2  0
 52 54  1  0
 52 51  1  0
 53 64  2  0
 54 59  1  0
 55 63  1  0
 55 65  1  0
 56 62  1  0
 56 58  1  0
 57 63  1  0
 58 57  1  0
 59 58  2  0
 60 61  1  0
 60 54  2  0
 61 56  2  0
 62 55  1  0
 63 53  1  0
 65 67  2  0
 66 65  1  0
 68 66  1  0
 69 78  2  0
 69 74  1  0
 70 66  1  0
 70 74  1  0
 71 70  1  0
 72 73  1  0
 72 71  1  0
 73 69  1  0
 74 75  2  0
 75 76  1  0
 77 76  2  0
 78 77  1  0
 79 53  1  0
 79 84  1  0
 79 80  1  0
 80 83  1  1
 80 81  1  0
 82 80  1  0
 84 87  1  0
 85 89  1  0
 85 84  1  0
 86 85  2  0
 89 88  1  0
 91 89  1  0
 91 92  1  0
 91 90  1  0
M  ISO  4   9 100  18 100  51 101  52 101
M  END
>  <TORSDO>  (71) 
F 20

>  <SCORE>  (71) 
-13.356

>  <name>  (71) 
71

>  <ligand_id>  (71) 
71

>  <original_smiles>  (71) 
[H]c1c([H])c([H])c2c(c1[H])C([H])([H])C([H])([H])C([H])([H])C2([H])N([H])C(=O)C1([H])N(C(=O)C([H])(N([H])C(=O)C([H])(N([H])C([H])([H])[H])C([H])([H])[H])C(C([H])([H])[H])(C([H])([H])[H])C([H])([H])[H])C([H])([H])c2c([H])c(OC([H])([H])C([H])([H])[N+]([H])(C([H])([H])[H])C([H])([H])c3c([H])c([H])c(N(C(=O)N4C([H])([H])C([H])([H])C([H])([H])C([H])(n5nc(-c6c([H])c([H])c(Oc7c([H])c([H])c(F)c([H])c7F)c([H])c6[H])c(C(=O)N([H])[H])c5N([H])[H])C4([H])[H])C([H])([H])[H])c(F)c3[H])c([H])c([H])c2C1([H])[H]

>  <smiles>  (71) 
[H]c1c([H])c([H])c2c(c1[H])C([H])([H])C([H])([H])C([H])([H])C2([H])N([H])C(=O)C1([H])N(C(=O)C([H])(N([H])C(=O)C([H])(N([H])C([H])([H])[H])C([H])([H])[H])C(C([H])([H])[H])(C([H])([H])[H])C([H])([H])[H])C([H])([H])c2c([H])c(OC([H])([H])C([H])([H])[N+]([H])(C([H])([H])[H])C([H])([H])c3c([H])c([H])c(N(C(=O)N4C([H])([H])C([H])([H])C([H])([H])C([H])(n5nc(-c6c([H])c([H])c(Oc7c([H])c([H])c(F)c([H])c7F)c([H])c6[H])c(C(=O)N([H])[H])c5N([H])[H])C4([H])[H])C([H])([H])[H])c(F)c3[H])c([H])c([H])c2C1([H])[H]

$$$$
72:0:0
     RDKit          3D

 90 99  0  0  1  0  0  0  0  0999 V2000
  -28.6320  -24.2300   18.5260 C   0  0  0  0  0  2  0  0  0  0  0  0
  -28.7850  -22.6660   18.4560 C   0  0  0  0  0  2  0  0  0  0  0  0
  -28.8600  -23.3570   20.7060 C   0  0  0  0  0  2  0  0  0  0  0  0
  -28.1570  -24.6380   19.9340 C   0  0  0  0  0  3  0  0  0  0  0  0
  -29.0170  -22.1260   19.8000 N   0  0  0  0  0  0  0  0  0  0  0  0
  -29.5470  -19.7070   18.9500 C   0  0  0  0  0  3  0  0  0  0  0  0
  -29.4600  -20.0060   21.2660 C   0  0  0  0  0  3  0  0  0  0  0  0
  -29.8400  -18.2820   19.1150 C   0  0  0  0  0  3  0  0  0  0  0  0
  -29.7360  -18.5870   21.4310 C   0  0  0  0  0  3  0  0  0  0  0  0
  -29.3360  -20.6740   20.0080 C   0  0  0  0  0  0  0  0  0  0  0  0
  -29.9500  -17.6070   20.3800 C   0  0  0  0  0  0  0  0  0  0  0  0
  -30.7440  -14.9970   19.9320 C   0  0  0  0  0  0  0  0  0  0  0  0
  -30.5380  -12.6770   18.8890 C   0  0  0  0  0  2  0  0  0  0  0  0
  -29.5130  -12.6690   17.7290 C   0  0  0  0  0  2  0  0  0  0  0  0
  -28.0880  -12.4260   18.2610 C   0  0  0  0  0  2  0  0  0  0  0  0
  -27.7740  -13.3010   19.5010 C   0  0  0  0  0  3  0  0  0  0  0  0
  -28.9100  -13.2680   20.5420 C   0  0  0  0  0  2  0  0  0  0  0  0
  -30.1410  -13.7300   19.8750 N   0  0  0  0  0  0  0  0  0  0  0  0
  -31.8190  -15.1230   19.3350 O   0  0  0  0  0  0  0  0  0  0  0  0
  -30.2260  -15.8000   22.1140 C   0  0  0  0  0  1  0  0  0  0  0  0
  -30.1840  -16.0920   20.6690 N   0  0  0  0  0  0  0  0  0  0  0  0
  -25.4770  -13.8360   20.4970 C   0  0  0  0  0  0  0  0  0  0  0  0
  -24.4430  -13.0410   20.9100 C   0  0  0  0  0  0  0  0  0  0  0  0
  -24.8880  -11.6940   20.7410 C   0  0  0  0  0  0  0  0  0  0  0  0
  -26.4820  -12.9730   20.0950 N   0  0  0  0  0  0  0  0  0  0  0  0
  -26.1420  -11.6740   20.3050 N   0  0  0  0  0  0  0  0  0  0  0  0
  -24.1670  -10.4250   20.9120 C   0  0  0  0  0  0  0  0  0  0  0  0
  -24.6390   -9.4170   21.7800 C   0  0  0  0  0  3  0  0  0  0  0  0
  -23.9170   -8.2140   21.9410 C   0  0  0  0  0  3  0  0  0  0  0  0
  -22.7070   -8.0120   21.2340 C   0  0  0  0  0  0  0  0  0  0  0  0
  -22.2530   -9.0110   20.3550 C   0  0  0  0  0  3  0  0  0  0  0  0
  -22.9760  -10.2050   20.1920 C   0  0  0  0  0  3  0  0  0  0  0  0
  -21.9520   -6.8670   21.3080 O   0  0  0  0  0  0  0  0  0  0  0  0
  -21.9120   -6.1040   22.4480 C   0  0  0  0  0  0  0  0  0  0  0  0
  -21.4960   -6.6370   23.6860 C   0  0  0  0  0  3  0  0  0  0  0  0
  -21.4010   -5.8010   24.8170 C   0  0  0  0  0  3  0  0  0  0  0  0
  -21.7130   -4.4320   24.7110 C   0  0  0  0  0  0  0  0  0  0  0  0
  -22.1230   -3.8990   23.4770 C   0  0  0  0  0  3  0  0  0  0  0  0
  -22.2190   -4.7320   22.3480 C   0  0  0  0  0  0  0  0  0  0  0  0
  -22.5940   -4.2070   21.1570 F   0  0  0  0  0  0  0  0  0  0  0  0
  -21.6150   -3.6280   25.7950 F   0  0  0  0  0  0  0  0  0  0  0  0
  -23.0850  -13.5060   21.3450 C   0  0  0  0  0  0  0  0  0  0  0  0
  -22.4440  -12.7700   22.2450 N   0  0  0  0  0  0  0  0  0  0  0  0
  -22.6030  -14.5560   20.9220 O   0  0  0  0  0  0  0  0  0  0  0  0
  -22.8490  -11.9190   22.6080 H   0  0  0  0  0  0  0  0  0  0  0  0
  -21.5350  -13.0610   22.5780 H   0  0  0  0  0  0  0  0  0  0  0  0
  -25.6400  -15.2150   20.4080 N   0  0  0  0  0  0  0  0  0  0  0  0
  -24.9010  -15.8630   20.6570 H   0  0  0  0  0  0  0  0  0  0  0  0
  -26.4700  -15.6770   20.0580 H   0  0  0  0  0  0  0  0  0  0  0  0
  -28.3120  -26.1700   20.2250 O   0  0  0  0  0  0  0  0  0  0  0  0
  -24.6540  -31.8310   23.1990 C   0  0  0  0  0  0  0  0  0  0  0  0
  -27.2460  -27.1420   20.1360 C   0  0  0  0  0  0  0  0  0  0  0  0
  -23.4560  -30.4420   21.5510 C   0  0  0  0  0  3  0  0  0  0  0  0
  -24.9080  -28.8810   20.1130 C   0  0  0  0  0  0  0  0  0  0  0  0
  -26.0090  -30.7150   21.3870 C   0  0  0  0  0  2  0  0  0  0  0  0
  -26.0850  -29.3270   20.7280 C   0  0  0  0  0  0  0  0  0  0  0  0
  -27.2510  -28.4720   20.7240 C   0  0  0  0  0  3  0  0  0  0  0  0
  -26.0480  -26.8060   19.4680 C   0  0  0  0  0  3  0  0  0  0  0  0
  -24.9030  -27.6340   19.4670 C   0  0  0  0  0  3  0  0  0  0  0  0
  -23.6790  -29.7730   20.1680 C   0  0  0  0  0  2  0  0  0  0  0  0
  -24.7250  -31.0190   22.1010 N   0  0  0  0  0  0  0  0  0  0  0  0
  -23.5670  -32.1090   23.7300 O   0  0  0  0  0  0  0  0  0  0  0  0
  -22.7800  -29.4270   22.5080 C   0  0  0  0  0  0  0  0  0  0  0  0
  -21.4510  -29.2640   22.3910 N   0  0  0  0  0  0  0  0  0  0  0  0
  -23.4560  -28.7900   23.3210 O   0  0  0  0  0  0  0  0  0  0  0  0
  -20.9620  -29.8310   21.7120 H   0  0  0  0  0  0  0  0  0  0  0  0
  -18.0680  -28.0790   22.9160 C   0  0  0  0  0  0  0  0  0  0  0  0
  -20.6310  -28.3220   23.1590 C   0  0  0  0  0  3  0  0  0  0  0  0
  -20.7170  -26.8960   22.5640 C   0  0  0  0  0  2  0  0  0  0  0  0
  -19.6020  -26.5950   21.5580 C   0  0  0  0  0  2  0  0  0  0  0  0
  -18.2290  -26.7390   22.2190 C   0  0  0  0  0  2  0  0  0  0  0  0
  -19.1960  -28.8290   23.3440 C   0  0  0  0  0  0  0  0  0  0  0  0
  -18.9900  -30.0840   23.9570 C   0  0  0  0  0  3  0  0  0  0  0  0
  -17.6900  -30.5880   24.1480 C   0  0  0  0  0  3  0  0  0  0  0  0
  -16.5770  -29.8360   23.7340 C   0  0  0  0  0  3  0  0  0  0  0  0
  -16.7660  -28.5830   23.1250 C   0  0  0  0  0  3  0  0  0  0  0  0
  -25.9310  -32.4660   23.8300 C   0  0  0  0  0  3  0  0  0  0  0  0
  -25.6220  -33.8660   24.1580 N   0  0  0  0  0  0  0  0  0  0  0  0
  -25.9380  -34.9190   23.3910 C   0  0  0  0  0  0  0  0  0  0  0  0
  -26.5870  -34.8130   22.3480 O   0  0  0  0  0  0  0  0  0  0  0  0
  -25.0440  -34.0220   24.9710 H   0  0  0  0  0  0  0  0  0  0  0  0
  -24.1890  -36.7030   23.0820 C   0  0  0  0  0  1  0  0  0  0  0  0
  -25.4580  -36.3090   23.8560 C   0  0  0  0  0  3  0  0  0  0  0  0
  -27.6130  -37.2140   24.6100 C   0  0  0  0  0  1  0  0  0  0  0  0
  -26.4800  -37.3670   23.7020 N   0  0  0  0  0  0  0  0  0  0  0  0
  -26.0740  -38.2870   23.8550 H   0  0  0  0  0  0  0  0  0  0  0  0
  -26.4350  -31.6990   25.1140 C   0  0  1  0  0  0  0  0  0  0  0  0
  -25.3340  -31.4740   26.1770 C   0  0  0  0  0  1  0  0  0  0  0  0
  -27.0130  -30.3140   24.7380 C   0  0  0  0  0  1  0  0  0  0  0  0
  -27.5860  -32.4900   25.7780 C   0  0  0  0  0  1  0  0  0  0  0  0
  1  4  1  0
  2  1  1  0
  2  5  1  0
  4 50  1  0
  4  3  1  0
  5 10  1  0
  5  3  1  0
  6  8  2  0
  6 10  1  0
  7  9  1  0
  8 11  1  0
 10  7  2  0
 11 21  1  0
 11  9  2  0
 12 21  1  0
 13 18  1  0
 14 15  1  0
 14 13  1  0
 16 15  1  0
 16 25  1  0
 16 17  1  0
 18 12  1  0
 18 17  1  0
 19 12  2  0
 21 20  1  0
 22 23  2  0
 23 42  1  0
 24 23  1  0
 24 27  1  0
 25 26  1  0
 25 22  1  0
 26 24  2  0
 27 28  1  0
 28 29  2  0
 30 33  1  0
 30 29  1  0
 31 30  2  0
 32 31  1  0
 32 27  2  0
 33 34  1  0
 34 35  1  0
 35 36  2  0
 37 36  1  0
 37 41  1  0
 38 37  2  0
 39 34  2  0
 39 38  1  0
 40 39  1  0
 42 43  1  0
 43 46  1  0
 43 45  1  0
 44 42  2  0
 47 22  1  0
 47 48  1  0
 49 47  1  0
 51 62  2  0
 52 50  1  0
 52 57  1  0
 53 61  1  0
 53 63  1  0
 54 60  1  0
 54 56  1  0
 55 61  1  0
 56 55  1  0
 57 56  2  0
 58 52  2  0
 59 58  1  0
 59 54  2  0
 60 53  1  0
 61 51  1  0
 63 65  2  0
 64 63  1  0
 66 64  1  0
 67 76  2  0
 67 72  1  0
 68 64  1  0
 68 72  1  0
 69 68  1  0
 70 71  1  0
 70 69  1  0
 71 67  1  0
 72 73  2  0
 73 74  1  0
 75 74  2  0
 76 75  1  0
 77 51  1  0
 77 78  1  0
 77 87  1  0
 78 81  1  0
 79 83  1  0
 79 78  1  0
 80 79  2  0
 83 82  1  0
 85 86  1  0
 85 83  1  0
 85 84  1  0
 87 90  1  1
 87 88  1  0
 89 87  1  0
M  ISO  4   4 101  12 100  21 100  50 101
M  END
>  <TORSDO>  (72) 
F 17

>  <SCORE>  (72) 
-13.727

>  <name>  (72) 
72

>  <ligand_id>  (72) 
72

>  <original_smiles>  (72) 
[H]c1c([H])c([H])c2c(c1[H])C([H])([H])C([H])([H])C([H])([H])C2([H])N([H])C(=O)C1([H])N(C(=O)C([H])(N([H])C(=O)C([H])(N([H])C([H])([H])[H])C([H])([H])[H])C(C([H])([H])[H])(C([H])([H])[H])C([H])([H])[H])C([H])([H])c2c([H])c(OC3([H])C([H])([H])N(c4c([H])c([H])c(N(C(=O)N5C([H])([H])C([H])([H])C([H])([H])C([H])(n6nc(-c7c([H])c([H])c(Oc8c([H])c([H])c(F)c([H])c8F)c([H])c7[H])c(C(=O)N([H])[H])c6N([H])[H])C5([H])[H])C([H])([H])[H])c([H])c4[H])C([H])([H])C3([H])[H])c([H])c([H])c2C1([H])[H]

>  <smiles>  (72) 
[H]c1c([H])c([H])c2c(c1[H])C([H])([H])C([H])([H])C([H])([H])C2([H])N([H])C(=O)C1([H])N(C(=O)C([H])(N([H])C(=O)C([H])(N([H])C([H])([H])[H])C([H])([H])[H])C(C([H])([H])[H])(C([H])([H])[H])C([H])([H])[H])C([H])([H])c2c([H])c(OC3([H])C([H])([H])N(c4c([H])c([H])c(N(C(=O)N5C([H])([H])C([H])([H])C([H])([H])C([H])(n6nc(-c7c([H])c([H])c(Oc8c([H])c([H])c(F)c([H])c8F)c([H])c7[H])c(C(=O)N([H])[H])c6N([H])[H])C5([H])[H])C([H])([H])[H])c([H])c4[H])C([H])([H])C3([H])[H])c([H])c([H])c2C1([H])[H]

$$$$
73:0:0
     RDKit          3D

 92100  0  0  1  0  0  0  0  0999 V2000
  -29.3500  -21.1570   20.9030 C   0  0  0  0  0  2  0  0  0  0  0  0
  -30.4900  -17.3940   18.7960 C   0  0  0  0  0  3  0  0  0  0  0  0
  -30.5820  -18.6630   18.1880 C   0  0  0  0  0  3  0  0  0  0  0  0
  -29.5540  -18.4570   20.7720 C   0  0  0  0  0  3  0  0  0  0  0  0
  -29.6610  -19.7790   20.1700 C   0  0  0  0  0  0  0  0  0  0  0  0
  -29.9830  -17.2350   20.1070 C   0  0  0  0  0  0  0  0  0  0  0  0
  -30.1840  -19.8330   18.8620 C   0  0  0  0  0  0  0  0  0  0  0  0
  -30.3160  -21.0300   18.2390 F   0  0  0  0  0  0  0  0  0  0  0  0
  -30.5950  -14.7300   20.3520 C   0  0  0  0  0  0  0  0  0  0  0  0
  -30.3660  -12.4640   19.3480 C   0  0  0  0  0  2  0  0  0  0  0  0
  -29.4340  -12.5710   18.1210 C   0  0  0  0  0  2  0  0  0  0  0  0
  -27.9610  -12.4130   18.5460 C   0  0  0  0  0  2  0  0  0  0  0  0
  -27.5970  -13.2910   19.7730 C   0  0  0  0  0  3  0  0  0  0  0  0
  -28.6520  -13.1780   20.8960 C   0  0  0  0  0  2  0  0  0  0  0  0
  -29.9580  -13.5110   20.3120 N   0  0  0  0  0  0  0  0  0  0  0  0
  -31.7680  -14.8200   19.9790 O   0  0  0  0  0  0  0  0  0  0  0  0
  -29.8580  -15.8640   20.6570 N   0  0  0  0  0  0  0  0  0  0  0  0
  -29.0060  -15.6840   21.1690 H   0  0  0  0  0  0  0  0  0  0  0  0
  -25.2060  -13.8870   20.4890 C   0  0  0  0  0  0  0  0  0  0  0  0
  -24.1380  -13.1170   20.8620 C   0  0  0  0  0  0  0  0  0  0  0  0
  -24.6000  -11.7640   20.8410 C   0  0  0  0  0  0  0  0  0  0  0  0
  -26.2500  -13.0060   20.2610 N   0  0  0  0  0  0  0  0  0  0  0  0
  -25.8910  -11.7240   20.5330 N   0  0  0  0  0  0  0  0  0  0  0  0
  -23.8710  -10.5040   21.0360 C   0  0  0  0  0  0  0  0  0  0  0  0
  -24.3090   -9.5340   21.9650 C   0  0  0  0  0  3  0  0  0  0  0  0
  -23.5800   -8.3400   22.1490 C   0  0  0  0  0  3  0  0  0  0  0  0
  -22.3990   -8.1060   21.4040 C   0  0  0  0  0  0  0  0  0  0  0  0
  -21.9820   -9.0640   20.4640 C   0  0  0  0  0  3  0  0  0  0  0  0
  -22.7110  -10.2510   20.2780 C   0  0  0  0  0  3  0  0  0  0  0  0
  -21.6410   -6.9630   21.4970 O   0  0  0  0  0  0  0  0  0  0  0  0
  -21.6080   -6.2140   22.6450 C   0  0  0  0  0  0  0  0  0  0  0  0
  -21.2110   -6.7640   23.8840 C   0  0  0  0  0  3  0  0  0  0  0  0
  -21.1250   -5.9410   25.0250 C   0  0  0  0  0  3  0  0  0  0  0  0
  -21.4250   -4.5690   24.9280 C   0  0  0  0  0  0  0  0  0  0  0  0
  -21.8160   -4.0180   23.6940 C   0  0  0  0  0  3  0  0  0  0  0  0
  -21.9040   -4.8380   22.5560 C   0  0  0  0  0  0  0  0  0  0  0  0
  -22.2600   -4.2990   21.3660 F   0  0  0  0  0  0  0  0  0  0  0  0
  -21.3350   -3.7760   26.0220 F   0  0  0  0  0  0  0  0  0  0  0  0
  -22.7410  -13.5970   21.1280 C   0  0  0  0  0  0  0  0  0  0  0  0
  -22.0090  -12.9070   21.9960 N   0  0  0  0  0  0  0  0  0  0  0  0
  -22.3060  -14.6200   20.6000 O   0  0  0  0  0  0  0  0  0  0  0  0
  -22.3740  -12.0820   22.4480 H   0  0  0  0  0  0  0  0  0  0  0  0
  -21.0710  -13.2110   22.2150 H   0  0  0  0  0  0  0  0  0  0  0  0
  -25.3710  -15.2570   20.3050 N   0  0  0  0  0  0  0  0  0  0  0  0
  -24.6030  -15.9120   20.4080 H   0  0  0  0  0  0  0  0  0  0  0  0
  -26.2180  -15.6920   19.9610 H   0  0  0  0  0  0  0  0  0  0  0  0
  -28.7980  -22.3460   20.1070 N   0  0  0  0  0  4  0  0  0  0  0  0
  -27.8140  -22.1670   19.9740 H   0  0  0  0  0  0  0  0  0  0  0  0
  -29.2310  -22.2870   19.1950 H   0  0  0  0  0  0  0  0  0  0  0  0
  -28.9820  -23.7850   20.6280 C   0  0  0  0  0  3  0  0  0  0  0  0
  -28.0720  -24.9440   19.9740 C   0  0  0  0  0  3  0  0  0  0  0  0
  -28.2760  -26.4040   20.2740 O   0  0  0  0  0  0  0  0  0  0  0  0
  -24.6000  -31.8970   23.2390 C   0  0  0  0  0  0  0  0  0  0  0  0
  -27.1800  -27.2940   20.1880 C   0  0  0  0  0  0  0  0  0  0  0  0
  -23.3880  -30.5020   21.6040 C   0  0  0  0  0  3  0  0  0  0  0  0
  -24.8290  -28.9450   20.1730 C   0  0  0  0  0  0  0  0  0  0  0  0
  -25.9320  -30.8000   21.4190 C   0  0  0  0  0  2  0  0  0  0  0  0
  -26.0020  -29.4180   20.7740 C   0  0  0  0  0  0  0  0  0  0  0  0
  -27.1780  -28.6030   20.7750 C   0  0  0  0  0  3  0  0  0  0  0  0
  -25.9880  -26.9000   19.5340 C   0  0  0  0  0  3  0  0  0  0  0  0
  -24.8270  -27.6940   19.5420 C   0  0  0  0  0  3  0  0  0  0  0  0
  -23.5980  -29.8260   20.2240 C   0  0  0  0  0  2  0  0  0  0  0  0
  -24.6590  -31.0850   22.1430 N   0  0  0  0  0  0  0  0  0  0  0  0
  -23.5190  -32.1800   23.7750 O   0  0  0  0  0  0  0  0  0  0  0  0
  -22.7240  -29.4880   22.5670 C   0  0  0  0  0  0  0  0  0  0  0  0
  -21.3970  -29.3110   22.4410 N   0  0  0  0  0  0  0  0  0  0  0  0
  -23.4010  -28.8630   23.3870 O   0  0  0  0  0  0  0  0  0  0  0  0
  -20.9090  -29.8690   21.7530 H   0  0  0  0  0  0  0  0  0  0  0  0
  -18.0180  -28.1140   22.9380 C   0  0  0  0  0  0  0  0  0  0  0  0
  -20.5770  -28.3780   23.2150 C   0  0  0  0  0  3  0  0  0  0  0  0
  -20.6810  -26.9430   22.6480 C   0  0  0  0  0  2  0  0  0  0  0  0
  -19.5820  -26.6130   21.6330 C   0  0  0  0  0  2  0  0  0  0  0  0
  -18.1980  -26.7600   22.2710 C   0  0  0  0  0  2  0  0  0  0  0  0
  -19.1360  -28.8810   23.3660 C   0  0  0  0  0  0  0  0  0  0  0  0
  -18.9130  -30.1470   23.9500 C   0  0  0  0  0  3  0  0  0  0  0  0
  -17.6060  -30.6470   24.1090 C   0  0  0  0  0  3  0  0  0  0  0  0
  -16.5050  -29.8780   23.6960 C   0  0  0  0  0  3  0  0  0  0  0  0
  -16.7120  -28.6140   23.1170 C   0  0  0  0  0  3  0  0  0  0  0  0
  -25.8870  -32.5260   23.8570 C   0  0  0  0  0  3  0  0  0  0  0  0
  -26.4040  -31.7540   25.1330 C   0  0  1  0  0  0  0  0  0  0  0  0
  -25.3130  -31.5230   26.2050 C   0  0  0  0  0  1  0  0  0  0  0  0
  -26.9800  -30.3740   24.7430 C   0  0  0  0  0  1  0  0  0  0  0  0
  -27.5590  -32.5450   25.7900 C   0  0  0  0  0  1  0  0  0  0  0  0
  -25.5810  -33.9260   24.1880 N   0  0  0  0  0  0  0  0  0  0  0  0
  -25.9110  -34.9780   23.4280 C   0  0  0  0  0  0  0  0  0  0  0  0
  -26.5740  -34.8730   22.3930 O   0  0  0  0  0  0  0  0  0  0  0  0
  -24.9920  -34.0820   24.9930 H   0  0  0  0  0  0  0  0  0  0  0  0
  -24.1840  -36.7760   23.0880 C   0  0  0  0  0  1  0  0  0  0  0  0
  -25.4310  -36.3680   23.8900 C   0  0  0  0  0  3  0  0  0  0  0  0
  -27.5740  -37.2480   24.7010 C   0  0  0  0  0  1  0  0  0  0  0  0
  -26.4650  -37.4190   23.7680 N   0  0  0  0  0  0  0  0  0  0  0  0
  -26.0620  -38.3390   23.9180 H   0  0  0  0  0  0  0  0  0  0  0  0
  2  6  1  0
  3  2  2  0
  3  7  1  0
  5  4  1  0
  5  1  1  0
  6 17  1  0
  6  4  2  0
  7  5  2  0
  8  7  1  0
  9 17  1  0
 10 15  1  0
 11 12  1  0
 11 10  1  0
 13 12  1  0
 13 22  1  0
 13 14  1  0
 15  9  1  0
 15 14  1  0
 16  9  2  0
 17 18  1  0
 19 20  2  0
 20 39  1  0
 21 20  1  0
 21 24  1  0
 22 19  1  0
 22 23  1  0
 23 21  2  0
 24 25  1  0
 25 26  2  0
 27 30  1  0
 27 26  1  0
 28 27  2  0
 29 28  1  0
 29 24  2  0
 30 31  1  0
 31 32  1  0
 32 33  2  0
 34 33  1  0
 34 38  1  0
 35 34  2  0
 36 31  2  0
 36 35  1  0
 37 36  1  0
 39 40  1  0
 40 43  1  0
 40 42  1  0
 41 39  2  0
 44 45  1  0
 44 19  1  0
 46 44  1  0
 47 50  1  0
 47  1  1  0
 48 47  1  0
 49 47  1  0
 51 52  1  0
 51 50  2  0
 53 64  2  0
 54 52  1  0
 54 59  1  0
 55 63  1  0
 55 65  1  0
 56 62  1  0
 56 58  1  0
 57 63  1  0
 58 59  2  0
 58 57  1  0
 60 61  1  0
 60 54  2  0
 61 56  2  0
 62 55  1  0
 63 53  1  0
 65 67  2  0
 66 65  1  0
 68 66  1  0
 69 78  2  0
 69 74  1  0
 70 66  1  0
 70 74  1  0
 71 70  1  0
 72 73  1  0
 72 71  1  0
 73 69  1  0
 74 75  2  0
 75 76  1  0
 77 76  2  0
 78 77  1  0
 79 53  1  0
 79 84  1  0
 79 80  1  0
 80 83  1  1
 80 81  1  0
 82 80  1  0
 84 87  1  0
 85 89  1  0
 85 84  1  0
 86 85  2  0
 89 88  1  0
 91 89  1  0
 91 92  1  0
 91 90  1  0
M  ISO  4   9 100  17 100  51 101  52 101
M  END
>  <TORSDO>  (73) 
F 20

>  <SCORE>  (73) 
-13.858

>  <name>  (73) 
73

>  <ligand_id>  (73) 
73

>  <original_smiles>  (73) 
[H]c1c([H])c([H])c2c(c1[H])C([H])([H])C([H])([H])C([H])([H])C2([H])N([H])C(=O)C1([H])N(C(=O)C([H])(N([H])C(=O)C([H])(N([H])C([H])([H])[H])C([H])([H])[H])C(C([H])([H])[H])(C([H])([H])[H])C([H])([H])[H])C([H])([H])c2c([H])c(OC([H])([H])C([H])([H])[N+]([H])([H])C([H])([H])c3c([H])c(N([H])C(=O)N4C([H])([H])C([H])([H])C([H])([H])C([H])(n5nc(-c6c([H])c([H])c(Oc7c([H])c([H])c(F)c([H])c7F)c([H])c6[H])c(C(=O)N([H])[H])c5N([H])[H])C4([H])[H])c([H])c([H])c3F)c([H])c([H])c2C1([H])[H]

>  <smiles>  (73) 
[H]c1c([H])c([H])c2c(c1[H])C([H])([H])C([H])([H])C([H])([H])C2([H])N([H])C(=O)C1([H])N(C(=O)C([H])(N([H])C(=O)C([H])(N([H])C([H])([H])[H])C([H])([H])[H])C(C([H])([H])[H])(C([H])([H])[H])C([H])([H])[H])C([H])([H])c2c([H])c(OC([H])([H])C([H])([H])[N+]([H])([H])C([H])([H])c3c([H])c(N([H])C(=O)N4C([H])([H])C([H])([H])C([H])([H])C([H])(n5nc(-c6c([H])c([H])c(Oc7c([H])c([H])c(F)c([H])c7F)c([H])c6[H])c(C(=O)N([H])[H])c5N([H])[H])C4([H])[H])c([H])c([H])c3F)c([H])c([H])c2C1([H])[H]

$$$$
74:0:0
     RDKit          3D

 94103  0  0  1  0  0  0  0  0999 V2000
  -30.7360  -20.1520   19.0930 C   0  0  0  0  0  3  0  0  0  0  0  0
  -30.9270  -18.7200   19.3010 C   0  0  0  0  0  3  0  0  0  0  0  0
  -28.7220  -18.5990   20.0760 C   0  0  0  0  0  3  0  0  0  0  0  0
  -28.5270  -20.0410   19.9120 C   0  0  0  0  0  0  0  0  0  0  0  0
  -29.5410  -20.9260   19.3680 C   0  0  0  0  0  0  0  0  0  0  0  0
  -29.9120  -17.8390   19.7950 C   0  0  0  0  0  0  0  0  0  0  0  0
  -30.7560  -15.1820   19.6810 C   0  0  0  0  0  0  0  0  0  0  0  0
  -30.5950  -12.7980   18.8290 C   0  0  0  0  0  2  0  0  0  0  0  0
  -29.5780  -12.7350   17.6630 C   0  0  0  0  0  2  0  0  0  0  0  0
  -28.1400  -12.5580   18.1910 C   0  0  0  0  0  2  0  0  0  0  0  0
  -27.8200  -13.5200   19.3630 C   0  0  0  0  0  3  0  0  0  0  0  0
  -28.9460  -13.5300   20.4220 C   0  0  0  0  0  2  0  0  0  0  0  0
  -30.1880  -13.9100   19.7340 N   0  0  0  0  0  0  0  0  0  0  0  0
  -31.9150  -15.2760   19.2630 O   0  0  0  0  0  0  0  0  0  0  0  0
  -29.9370  -16.3090   19.9690 N   0  0  0  0  0  0  0  0  0  0  0  0
  -29.0840  -15.9720   20.3860 H   0  0  0  0  0  0  0  0  0  0  0  0
  -25.5330  -14.1680   20.3220 C   0  0  0  0  0  0  0  0  0  0  0  0
  -24.4640  -13.4230   20.7400 C   0  0  0  0  0  0  0  0  0  0  0  0
  -24.8560  -12.0560   20.6000 C   0  0  0  0  0  0  0  0  0  0  0  0
  -26.5090  -13.2580   19.9500 N   0  0  0  0  0  0  0  0  0  0  0  0
  -26.1150  -11.9790   20.1820 N   0  0  0  0  0  0  0  0  0  0  0  0
  -24.0840  -10.8190   20.7820 C   0  0  0  0  0  0  0  0  0  0  0  0
  -24.5380   -9.7840   21.6280 C   0  0  0  0  0  3  0  0  0  0  0  0
  -23.7680   -8.6130   21.8030 C   0  0  0  0  0  3  0  0  0  0  0  0
  -22.5300   -8.4700   21.1320 C   0  0  0  0  0  0  0  0  0  0  0  0
  -22.0940   -9.4950   20.2740 C   0  0  0  0  0  3  0  0  0  0  0  0
  -22.8630  -10.6570   20.0960 C   0  0  0  0  0  3  0  0  0  0  0  0
  -21.7270   -7.3580   21.2220 O   0  0  0  0  0  0  0  0  0  0  0  0
  -21.7300   -6.5560   22.3350 C   0  0  0  0  0  0  0  0  0  0  0  0
  -21.4320   -7.0620   23.6190 C   0  0  0  0  0  3  0  0  0  0  0  0
  -21.3780   -6.1910   24.7240 C   0  0  0  0  0  3  0  0  0  0  0  0
  -21.6120   -4.8140   24.5490 C   0  0  0  0  0  0  0  0  0  0  0  0
  -21.9020   -4.3050   23.2690 C   0  0  0  0  0  3  0  0  0  0  0  0
  -21.9580   -5.1750   22.1660 C   0  0  0  0  0  0  0  0  0  0  0  0
  -22.2180   -4.6780   20.9330 F   0  0  0  0  0  0  0  0  0  0  0  0
  -21.5530   -3.9740   25.6080 F   0  0  0  0  0  0  0  0  0  0  0  0
  -23.1170  -13.9470   21.1460 C   0  0  0  0  0  0  0  0  0  0  0  0
  -22.4250  -13.2430   22.0350 N   0  0  0  0  0  0  0  0  0  0  0  0
  -22.6890  -15.0160   20.7090 O   0  0  0  0  0  0  0  0  0  0  0  0
  -22.7840  -12.3790   22.4130 H   0  0  0  0  0  0  0  0  0  0  0  0
  -21.5230  -13.5750   22.3450 H   0  0  0  0  0  0  0  0  0  0  0  0
  -25.7490  -15.5380   20.2010 N   0  0  0  0  0  0  0  0  0  0  0  0
  -25.0230  -16.2140   20.4100 H   0  0  0  0  0  0  0  0  0  0  0  0
  -26.5560  -15.9520   19.7540 H   0  0  0  0  0  0  0  0  0  0  0  0
  -30.2900  -24.6200   18.3730 C   0  0  0  0  0  2  0  0  0  0  0  0
  -30.4610  -23.0710   18.2550 C   0  0  0  0  0  2  0  0  0  0  0  0
  -28.5150  -23.5700   19.4720 C   0  0  0  0  0  2  0  0  0  0  0  0
  -28.8080  -24.9520   18.6170 C   0  0  0  0  0  3  0  0  0  0  0  0
  -29.4550  -22.4070   19.0910 N   0  0  0  0  0  0  0  0  0  0  0  0
  -28.6960  -26.4460   19.0440 O   0  0  0  0  0  0  0  0  0  0  0  0
  -24.6400  -31.3450   22.7080 C   0  0  0  0  0  0  0  0  0  0  0  0
  -27.5230  -27.2760   19.0840 C   0  0  0  0  0  0  0  0  0  0  0  0
  -23.5110  -30.0350   20.9510 C   0  0  0  0  0  3  0  0  0  0  0  0
  -25.0400  -28.7710   19.3130 C   0  0  0  0  0  0  0  0  0  0  0  0
  -26.0190  -30.5610   20.7470 C   0  0  0  0  0  2  0  0  0  0  0  0
  -26.1930  -29.2640   19.9370 C   0  0  0  0  0  0  0  0  0  0  0  0
  -27.4290  -28.5320   19.8070 C   0  0  0  0  0  3  0  0  0  0  0  0
  -26.3320  -26.8740   18.4420 C   0  0  0  0  0  3  0  0  0  0  0  0
  -25.1200  -27.5930   18.5530 C   0  0  0  0  0  3  0  0  0  0  0  0
  -23.7380  -29.5370   19.4980 C   0  0  0  0  0  2  0  0  0  0  0  0
  -24.7440  -30.6640   21.5250 N   0  0  0  0  0  0  0  0  0  0  0  0
  -23.5540  -31.4650   23.2940 O   0  0  0  0  0  0  0  0  0  0  0  0
  -22.9640  -28.8670   21.8090 C   0  0  0  0  0  0  0  0  0  0  0  0
  -21.6500  -28.5950   21.7060 N   0  0  0  0  0  0  0  0  0  0  0  0
  -23.7210  -28.2120   22.5290 O   0  0  0  0  0  0  0  0  0  0  0  0
  -21.0910  -29.1810   21.1030 H   0  0  0  0  0  0  0  0  0  0  0  0
  -18.3990  -27.0750   22.2010 C   0  0  0  0  0  0  0  0  0  0  0  0
  -20.9440  -27.5070   22.3890 C   0  0  0  0  0  3  0  0  0  0  0  0
  -21.1190  -26.1690   21.6340 C   0  0  0  0  0  2  0  0  0  0  0  0
  -19.9930  -25.8850   20.6350 C   0  0  0  0  0  2  0  0  0  0  0  0
  -18.6400  -25.8390   21.3520 C   0  0  0  0  0  2  0  0  0  0  0  0
  -19.4800  -27.8680   22.6740 C   0  0  0  0  0  0  0  0  0  0  0  0
  -19.1980  -29.0260   23.4310 C   0  0  0  0  0  3  0  0  0  0  0  0
  -17.8690  -29.3920   23.7190 C   0  0  0  0  0  3  0  0  0  0  0  0
  -16.8050  -28.5970   23.2600 C   0  0  0  0  0  3  0  0  0  0  0  0
  -17.0720  -27.4400   22.5060 C   0  0  0  0  0  3  0  0  0  0  0  0
  -25.8790  -32.0220   23.3700 C   0  0  0  0  0  3  0  0  0  0  0  0
  -26.5330  -31.1430   24.5060 C   0  0  1  0  0  0  0  0  0  0  0  0
  -25.5250  -30.6540   25.5730 C   0  0  0  0  0  1  0  0  0  0  0  0
  -27.2260  -29.8960   23.9090 C   0  0  0  0  0  1  0  0  0  0  0  0
  -27.6330  -31.9540   25.2290 C   0  0  0  0  0  1  0  0  0  0  0  0
  -25.4440  -33.3190   23.9120 N   0  0  0  0  0  0  0  0  0  0  0  0
  -25.6410  -34.5020   23.3160 C   0  0  0  0  0  0  0  0  0  0  0  0
  -26.2740  -34.6220   22.2640 O   0  0  0  0  0  0  0  0  0  0  0  0
  -24.8710  -33.2900   24.7420 H   0  0  0  0  0  0  0  0  0  0  0  0
  -23.7270  -36.1370   23.2920 C   0  0  0  0  0  1  0  0  0  0  0  0
  -25.0410  -35.7510   23.9930 C   0  0  0  0  0  3  0  0  0  0  0  0
  -27.1130  -36.7270   24.8760 C   0  0  0  0  0  1  0  0  0  0  0  0
  -25.9560  -36.9130   24.0050 N   0  0  0  0  0  0  0  0  0  0  0  0
  -25.4670  -37.7530   24.3020 H   0  0  0  0  0  0  0  0  0  0  0  0
  -27.1720  -20.6100   20.3410 C   0  0  1  0  0  0  0  0  0  0  0  0
  -26.3390  -19.6650   20.7820 F   0  0  0  0  0  0  0  0  0  0  0  0
  -27.3190  -21.4840   21.3370 F   0  0  0  0  0  0  0  0  0  0  0  0
  -26.5760  -21.2110   19.3120 F   0  0  0  0  0  0  0  0  0  0  0  0
  1  2  2  0
  1  5  1  0
  2  6  1  0
  4  3  1  0
  4 91  1  0
  5  4  2  0
  6 15  1  0
  6  3  2  0
  7 13  1  0
  7 15  1  0
  8 13  1  0
  9 10  1  0
  9  8  1  0
 11 10  1  0
 11 20  1  0
 11 12  1  0
 13 12  1  0
 14  7  2  0
 15 16  1  0
 17 18  2  0
 18 37  1  0
 19 18  1  0
 19 22  1  0
 20 21  1  0
 20 17  1  0
 21 19  2  0
 22 23  1  0
 23 24  2  0
 25 28  1  0
 25 24  1  0
 26 25  2  0
 27 26  1  0
 27 22  2  0
 28 29  1  0
 29 30  1  0
 30 31  2  0
 32 31  1  0
 32 36  1  0
 33 32  2  0
 34 29  2  0
 34 33  1  0
 35 34  1  0
 37 38  1  0
 38 41  1  0
 38 40  1  0
 39 37  2  0
 42 17  1  0
 42 43  1  0
 44 42  1  0
 45 48  1  0
 46 45  1  0
 46 49  1  0
 48 50  1  0
 48 47  1  0
 49  5  1  0
 49 47  1  0
 50 52  1  0
 51 62  2  0
 52 57  1  0
 53 61  1  0
 53 63  1  0
 54 60  1  0
 54 56  1  0
 55 61  1  0
 56 55  1  0
 57 56  2  0
 58 59  1  0
 58 52  2  0
 59 54  2  0
 60 53  1  0
 61 51  1  0
 63 65  2  0
 64 63  1  0
 66 64  1  0
 67 76  2  0
 67 72  1  0
 68 64  1  0
 68 72  1  0
 69 68  1  0
 70 71  1  0
 70 69  1  0
 71 67  1  0
 72 73  2  0
 73 74  1  0
 75 74  2  0
 76 75  1  0
 77 51  1  0
 77 82  1  0
 77 78  1  0
 78 81  1  1
 78 79  1  0
 80 78  1  0
 82 85  1  0
 83 82  1  0
 83 87  1  0
 84 83  2  0
 87 86  1  0
 87 89  1  0
 89 90  1  0
 89 88  1  0
 91 92  1  1
 91 93  1  0
 94 91  1  0
M  ISO  4   7 100  15 100  48 101  50 101
M  END
>  <TORSDO>  (74) 
F 18

>  <SCORE>  (74) 
-9.780

>  <name>  (74) 
74

>  <ligand_id>  (74) 
74

>  <original_smiles>  (74) 
[H]c1c([H])c([H])c2c(c1[H])C([H])([H])C([H])([H])C([H])([H])C2([H])N([H])C(=O)C1([H])N(C(=O)C([H])(N([H])C(=O)C([H])(N([H])C([H])([H])[H])C([H])([H])[H])C(C([H])([H])[H])(C([H])([H])[H])C([H])([H])[H])C([H])([H])c2c([H])c(OC3([H])C([H])([H])N(c4c([H])c([H])c(N([H])C(=O)N5C([H])([H])C([H])([H])C([H])([H])C([H])(n6nc(-c7c([H])c([H])c(Oc8c([H])c([H])c(F)c([H])c8F)c([H])c7[H])c(C(=O)N([H])[H])c6N([H])[H])C5([H])[H])c([H])c4C(F)(F)F)C([H])([H])C3([H])[H])c([H])c([H])c2C1([H])[H]

>  <smiles>  (74) 
[H]c1c([H])c([H])c2c(c1[H])C([H])([H])C([H])([H])C([H])([H])C2([H])N([H])C(=O)C1([H])N(C(=O)C([H])(N([H])C(=O)C([H])(N([H])C([H])([H])[H])C([H])([H])[H])C(C([H])([H])[H])(C([H])([H])[H])C([H])([H])[H])C([H])([H])c2c([H])c(OC3([H])C([H])([H])N(c4c([H])c([H])c(N([H])C(=O)N5C([H])([H])C([H])([H])C([H])([H])C([H])(n6nc(-c7c([H])c([H])c(Oc8c([H])c([H])c(F)c([H])c8F)c([H])c7[H])c(C(=O)N([H])[H])c6N([H])[H])C5([H])[H])c([H])c4C(F)(F)F)C([H])([H])C3([H])[H])c([H])c([H])c2C1([H])[H]

$$$$
75:0:0
     RDKit          3D

 91100  0  0  1  0  0  0  0  0999 V2000
  -28.9940  -24.4010   21.8230 C   0  0  0  0  0  2  0  0  0  0  0  0
  -29.0310  -22.8450   21.9740 C   0  0  0  0  0  2  0  0  0  0  0  0
  -28.5380  -23.3920   19.7420 C   0  0  0  0  0  2  0  0  0  0  0  0
  -28.1310  -24.7520   20.5950 C   0  0  0  0  0  3  0  0  0  0  0  0
  -29.0080  -22.2350   20.6400 N   0  0  0  0  0  0  0  0  0  0  0  0
  -28.4440  -19.8660   19.6780 C   0  0  0  0  0  3  0  0  0  0  0  0
  -28.6090  -18.4190   19.6300 C   0  0  0  0  0  3  0  0  0  0  0  0
  -30.4440  -18.5480   21.0880 C   0  0  0  0  0  3  0  0  0  0  0  0
  -29.2350  -20.7580   20.4760 C   0  0  0  0  0  0  0  0  0  0  0  0
  -29.6160  -17.6570   20.3270 C   0  0  0  0  0  0  0  0  0  0  0  0
  -30.2600  -19.9960   21.1690 C   0  0  0  0  0  0  0  0  0  0  0  0
  -31.1260  -20.6660   21.9660 F   0  0  0  0  0  0  0  0  0  0  0  0
  -30.4720  -15.0070   20.2490 C   0  0  0  0  0  0  0  0  0  0  0  0
  -30.3890  -12.6630   19.2790 C   0  0  0  0  0  2  0  0  0  0  0  0
  -29.4280  -12.6210   18.0670 C   0  0  0  0  0  2  0  0  0  0  0  0
  -27.9730  -12.3990   18.5220 C   0  0  0  0  0  2  0  0  0  0  0  0
  -27.5800  -13.3090   19.7140 C   0  0  0  0  0  3  0  0  0  0  0  0
  -28.6550  -13.3020   20.8230 C   0  0  0  0  0  2  0  0  0  0  0  0
  -29.9150  -13.7320   20.2000 N   0  0  0  0  0  0  0  0  0  0  0  0
  -31.6730  -15.1230   19.9750 O   0  0  0  0  0  0  0  0  0  0  0  0
  -29.5930  -16.1180   20.3670 N   0  0  0  0  0  0  0  0  0  0  0  0
  -28.6510  -15.7650   20.4120 H   0  0  0  0  0  0  0  0  0  0  0  0
  -25.2060  -13.8760   20.4900 C   0  0  0  0  0  0  0  0  0  0  0  0
  -24.1500  -13.0940   20.8710 C   0  0  0  0  0  0  0  0  0  0  0  0
  -24.6200  -11.7450   20.8220 C   0  0  0  0  0  0  0  0  0  0  0  0
  -26.2490  -13.0040   20.2290 N   0  0  0  0  0  0  0  0  0  0  0  0
  -25.9060  -11.7160   20.4930 N   0  0  0  0  0  0  0  0  0  0  0  0
  -23.9000  -10.4790   21.0090 C   0  0  0  0  0  0  0  0  0  0  0  0
  -24.3270   -9.5190   21.9510 C   0  0  0  0  0  3  0  0  0  0  0  0
  -23.6070   -8.3180   22.1270 C   0  0  0  0  0  3  0  0  0  0  0  0
  -22.4430   -8.0700   21.3590 C   0  0  0  0  0  0  0  0  0  0  0  0
  -22.0360   -9.0180   20.4050 C   0  0  0  0  0  3  0  0  0  0  0  0
  -22.7580  -10.2100   20.2280 C   0  0  0  0  0  3  0  0  0  0  0  0
  -21.6950   -6.9210   21.4440 O   0  0  0  0  0  0  0  0  0  0  0  0
  -21.6110   -6.2000   22.6080 C   0  0  0  0  0  0  0  0  0  0  0  0
  -21.1240   -6.7720   23.8050 C   0  0  0  0  0  3  0  0  0  0  0  0
  -20.9900   -5.9770   24.9610 C   0  0  0  0  0  3  0  0  0  0  0  0
  -21.3300   -4.6120   24.9200 C   0  0  0  0  0  0  0  0  0  0  0  0
  -21.8100   -4.0390   23.7290 C   0  0  0  0  0  3  0  0  0  0  0  0
  -21.9460   -4.8310   22.5750 C   0  0  0  0  0  0  0  0  0  0  0  0
  -22.3880   -4.2710   21.4240 F   0  0  0  0  0  0  0  0  0  0  0  0
  -21.1940   -3.8450   26.0280 F   0  0  0  0  0  0  0  0  0  0  0  0
  -22.7560  -13.5640   21.1650 C   0  0  0  0  0  0  0  0  0  0  0  0
  -22.0400  -12.8580   22.0330 N   0  0  0  0  0  0  0  0  0  0  0  0
  -22.3090  -14.5930   20.6600 O   0  0  0  0  0  0  0  0  0  0  0  0
  -22.4140  -12.0240   22.4610 H   0  0  0  0  0  0  0  0  0  0  0  0
  -21.1050  -13.1550   22.2720 H   0  0  0  0  0  0  0  0  0  0  0  0
  -25.3570  -15.2500   20.3210 N   0  0  0  0  0  0  0  0  0  0  0  0
  -24.5740  -15.8850   20.4340 H   0  0  0  0  0  0  0  0  0  0  0  0
  -26.1740  -15.6990   19.9330 H   0  0  0  0  0  0  0  0  0  0  0  0
  -28.2890  -26.2580   20.2250 O   0  0  0  0  0  0  0  0  0  0  0  0
  -24.6070  -31.9040   23.2340 C   0  0  0  0  0  0  0  0  0  0  0  0
  -27.2020  -27.2020   20.2210 C   0  0  0  0  0  0  0  0  0  0  0  0
  -23.4090  -30.5060   21.5930 C   0  0  0  0  0  3  0  0  0  0  0  0
  -24.8610  -28.9250   20.1790 C   0  0  0  0  0  0  0  0  0  0  0  0
  -25.9610  -30.7800   21.4250 C   0  0  0  0  0  2  0  0  0  0  0  0
  -26.0390  -29.3860   20.7820 C   0  0  0  0  0  0  0  0  0  0  0  0
  -27.2120  -28.5430   20.7780 C   0  0  0  0  0  3  0  0  0  0  0  0
  -25.9970  -26.8310   19.5900 C   0  0  0  0  0  3  0  0  0  0  0  0
  -24.8520  -27.6600   19.5680 C   0  0  0  0  0  3  0  0  0  0  0  0
  -23.6340  -29.8210   20.2170 C   0  0  0  0  0  2  0  0  0  0  0  0
  -24.6790  -31.0860   22.1390 N   0  0  0  0  0  0  0  0  0  0  0  0
  -23.5210  -32.1870   23.7630 O   0  0  0  0  0  0  0  0  0  0  0  0
  -22.7290  -29.5030   22.5570 C   0  0  0  0  0  0  0  0  0  0  0  0
  -21.4030  -29.3230   22.4220 N   0  0  0  0  0  0  0  0  0  0  0  0
  -23.3980  -28.8850   23.3900 O   0  0  0  0  0  0  0  0  0  0  0  0
  -20.9180  -29.8740   21.7290 H   0  0  0  0  0  0  0  0  0  0  0  0
  -18.0270  -28.1000   22.9030 C   0  0  0  0  0  0  0  0  0  0  0  0
  -20.5820  -28.3850   23.1920 C   0  0  0  0  0  3  0  0  0  0  0  0
  -20.7000  -26.9490   22.6300 C   0  0  0  0  0  2  0  0  0  0  0  0
  -19.6100  -26.6100   21.6080 C   0  0  0  0  0  2  0  0  0  0  0  0
  -18.2210  -26.7480   22.2370 C   0  0  0  0  0  2  0  0  0  0  0  0
  -19.1360  -28.8750   23.3380 C   0  0  0  0  0  0  0  0  0  0  0  0
  -18.8990  -30.1390   23.9220 C   0  0  0  0  0  3  0  0  0  0  0  0
  -17.5880  -30.6280   24.0750 C   0  0  0  0  0  3  0  0  0  0  0  0
  -16.4950  -29.8510   23.6540 C   0  0  0  0  0  3  0  0  0  0  0  0
  -16.7150  -28.5890   23.0760 C   0  0  0  0  0  3  0  0  0  0  0  0
  -25.8850  -32.5410   23.8630 C   0  0  0  0  0  3  0  0  0  0  0  0
  -25.5750  -33.9410   24.1930 N   0  0  0  0  0  0  0  0  0  0  0  0
  -25.9000  -34.9950   23.4330 C   0  0  0  0  0  0  0  0  0  0  0  0
  -26.5620  -34.8920   22.3960 O   0  0  0  0  0  0  0  0  0  0  0  0
  -24.9890  -34.0960   25.0010 H   0  0  0  0  0  0  0  0  0  0  0  0
  -24.1660  -36.7880   23.1000 C   0  0  0  0  0  1  0  0  0  0  0  0
  -25.4190  -36.3850   23.8950 C   0  0  0  0  0  3  0  0  0  0  0  0
  -27.5650  -37.2740   24.6950 C   0  0  0  0  0  1  0  0  0  0  0  0
  -26.4480  -37.4410   23.7680 N   0  0  0  0  0  0  0  0  0  0  0  0
  -26.0430  -38.3590   23.9250 H   0  0  0  0  0  0  0  0  0  0  0  0
  -26.3910  -31.7760   25.1470 C   0  0  1  0  0  0  0  0  0  0  0  0
  -25.2920  -31.5500   26.2120 C   0  0  0  0  0  1  0  0  0  0  0  0
  -26.9710  -30.3940   24.7670 C   0  0  0  0  0  1  0  0  0  0  0  0
  -27.5410  -32.5680   25.8110 C   0  0  0  0  0  1  0  0  0  0  0  0
  1  2  1  0
  3  4  1  0
  3  5  1  0
  4 51  1  0
  4  1  1  0
  5  2  1  0
  6  9  1  0
  7  6  2  0
  7 10  1  0
  8 11  1  0
  9  5  1  0
  9 11  2  0
 10 21  1  0
 10  8  2  0
 11 12  1  0
 13 21  1  0
 14 19  1  0
 15 16  1  0
 15 14  1  0
 17 16  1  0
 17 26  1  0
 17 18  1  0
 19 13  1  0
 19 18  1  0
 20 13  2  0
 21 22  1  0
 23 24  2  0
 24 43  1  0
 25 24  1  0
 25 28  1  0
 26 23  1  0
 26 27  1  0
 27 25  2  0
 28 29  1  0
 29 30  2  0
 31 34  1  0
 31 30  1  0
 32 31  2  0
 33 32  1  0
 33 28  2  0
 34 35  1  0
 35 36  1  0
 36 37  2  0
 38 37  1  0
 38 42  1  0
 39 38  2  0
 40 35  2  0
 40 39  1  0
 41 40  1  0
 43 44  1  0
 44 47  1  0
 44 46  1  0
 45 43  2  0
 48 49  1  0
 48 23  1  0
 50 48  1  0
 52 63  2  0
 53 51  1  0
 53 58  1  0
 54 62  1  0
 54 64  1  0
 55 61  1  0
 55 57  1  0
 56 62  1  0
 57 56  1  0
 58 57  2  0
 59 53  2  0
 60 59  1  0
 60 55  2  0
 61 54  1  0
 62 52  1  0
 64 66  2  0
 65 64  1  0
 67 65  1  0
 68 77  2  0
 68 73  1  0
 69 65  1  0
 69 73  1  0
 70 69  1  0
 71 72  1  0
 71 70  1  0
 72 68  1  0
 73 74  2  0
 74 75  1  0
 76 75  2  0
 77 76  1  0
 78 52  1  0
 78 79  1  0
 78 88  1  0
 79 82  1  0
 80 84  1  0
 80 79  1  0
 81 80  2  0
 84 83  1  0
 86 84  1  0
 86 87  1  0
 86 85  1  0
 88 91  1  1
 88 89  1  0
 90 88  1  0
M  ISO  4   4 101  13 100  21 100  51 101
M  END
>  <TORSDO>  (75) 
F 17

>  <SCORE>  (75) 
-15.402

>  <name>  (75) 
75

>  <ligand_id>  (75) 
75

>  <original_smiles>  (75) 
[H]c1c([H])c([H])c2c(c1[H])C([H])([H])C([H])([H])C([H])([H])C2([H])N([H])C(=O)C1([H])N(C(=O)C([H])(N([H])C(=O)C([H])(N([H])C([H])([H])[H])C([H])([H])[H])C(C([H])([H])[H])(C([H])([H])[H])C([H])([H])[H])C([H])([H])c2c([H])c(OC3([H])C([H])([H])N(c4c([H])c([H])c(N([H])C(=O)N5C([H])([H])C([H])([H])C([H])([H])C([H])(n6nc(-c7c([H])c([H])c(Oc8c([H])c([H])c(F)c([H])c8F)c([H])c7[H])c(C(=O)N([H])[H])c6N([H])[H])C5([H])[H])c([H])c4F)C([H])([H])C3([H])[H])c([H])c([H])c2C1([H])[H]

>  <smiles>  (75) 
[H]c1c([H])c([H])c2c(c1[H])C([H])([H])C([H])([H])C([H])([H])C2([H])N([H])C(=O)C1([H])N(C(=O)C([H])(N([H])C(=O)C([H])(N([H])C([H])([H])[H])C([H])([H])[H])C(C([H])([H])[H])(C([H])([H])[H])C([H])([H])[H])C([H])([H])c2c([H])c(OC3([H])C([H])([H])N(c4c([H])c([H])c(N([H])C(=O)N5C([H])([H])C([H])([H])C([H])([H])C([H])(n6nc(-c7c([H])c([H])c(Oc8c([H])c([H])c(F)c([H])c8F)c([H])c7[H])c(C(=O)N([H])[H])c6N([H])[H])C5([H])[H])c([H])c4F)C([H])([H])C3([H])[H])c([H])c([H])c2C1([H])[H]

$$$$
76:0:0
     RDKit          3D

 92100  0  0  1  0  0  0  0  0999 V2000
  -30.0670  -21.6640   20.7520 C   0  0  0  0  0  2  0  0  0  0  0  0
  -31.2660  -19.3570   20.4240 C   0  0  0  0  0  3  0  0  0  0  0  0
  -31.2940  -17.9270   20.4300 C   0  0  0  0  0  3  0  0  0  0  0  0
  -28.8970  -17.9110   20.6420 C   0  0  0  0  0  3  0  0  0  0  0  0
  -30.0580  -20.1010   20.5470 C   0  0  0  0  0  0  0  0  0  0  0  0
  -30.1030  -17.1630   20.5580 C   0  0  0  0  0  0  0  0  0  0  0  0
  -28.8690  -19.3370   20.6370 C   0  0  0  0  0  0  0  0  0  0  0  0
  -27.6800  -19.9770   20.7500 F   0  0  0  0  0  0  0  0  0  0  0  0
  -30.7820  -14.6890   20.0850 C   0  0  0  0  0  0  0  0  0  0  0  0
  -30.4820  -12.4950   18.9560 C   0  0  0  0  0  2  0  0  0  0  0  0
  -29.4670  -12.6760   17.8030 C   0  0  0  0  0  2  0  0  0  0  0  0
  -28.0180  -12.5310   18.3110 C   0  0  0  0  0  2  0  0  0  0  0  0
  -27.7500  -13.3590   19.5970 C   0  0  0  0  0  3  0  0  0  0  0  0
  -28.8660  -13.1340   20.6430 C   0  0  0  0  0  2  0  0  0  0  0  0
  -30.1490  -13.4770   20.0060 N   0  0  0  0  0  0  0  0  0  0  0  0
  -31.9030  -14.8660   19.5980 O   0  0  0  0  0  0  0  0  0  0  0  0
  -30.0260  -15.7020   20.6090 N   0  0  0  0  0  0  0  0  0  0  0  0
  -29.1760  -15.3450   21.0190 H   0  0  0  0  0  0  0  0  0  0  0  0
  -25.4120  -13.9850   20.4640 C   0  0  0  0  0  0  0  0  0  0  0  0
  -24.3510  -13.2220   20.8720 C   0  0  0  0  0  0  0  0  0  0  0  0
  -24.7830  -11.8620   20.7740 C   0  0  0  0  0  0  0  0  0  0  0  0
  -26.4220  -13.0910   20.1440 N   0  0  0  0  0  0  0  0  0  0  0  0
  -26.0520  -11.8090   20.3880 N   0  0  0  0  0  0  0  0  0  0  0  0
  -24.0430  -10.6090   20.9660 C   0  0  0  0  0  0  0  0  0  0  0  0
  -24.4810   -9.6230   21.8780 C   0  0  0  0  0  3  0  0  0  0  0  0
  -23.7400   -8.4350   22.0590 C   0  0  0  0  0  3  0  0  0  0  0  0
  -22.5460   -8.2250   21.3280 C   0  0  0  0  0  0  0  0  0  0  0  0
  -22.1280   -9.1990   20.4030 C   0  0  0  0  0  3  0  0  0  0  0  0
  -22.8700  -10.3770   20.2200 C   0  0  0  0  0  3  0  0  0  0  0  0
  -21.7760   -7.0900   21.4200 O   0  0  0  0  0  0  0  0  0  0  0  0
  -21.7050   -6.3620   22.5810 C   0  0  0  0  0  0  0  0  0  0  0  0
  -21.2480   -6.9290   23.7900 C   0  0  0  0  0  3  0  0  0  0  0  0
  -21.1230   -6.1260   24.9410 C   0  0  0  0  0  3  0  0  0  0  0  0
  -21.4470   -4.7580   24.8850 C   0  0  0  0  0  0  0  0  0  0  0  0
  -21.8960   -4.1900   23.6800 C   0  0  0  0  0  3  0  0  0  0  0  0
  -22.0220   -4.9900   22.5300 C   0  0  0  0  0  0  0  0  0  0  0  0
  -22.4350   -4.4330   21.3670 F   0  0  0  0  0  0  0  0  0  0  0  0
  -21.3210   -3.9840   25.9880 F   0  0  0  0  0  0  0  0  0  0  0  0
  -22.9820  -13.7170   21.2410 C   0  0  0  0  0  0  0  0  0  0  0  0
  -22.3010  -13.0180   22.1410 N   0  0  0  0  0  0  0  0  0  0  0  0
  -22.5300  -14.7590   20.7660 O   0  0  0  0  0  0  0  0  0  0  0  0
  -22.6820  -12.1740   22.5450 H   0  0  0  0  0  0  0  0  0  0  0  0
  -21.3850  -13.3290   22.4310 H   0  0  0  0  0  0  0  0  0  0  0  0
  -25.5970  -15.3570   20.3180 N   0  0  0  0  0  0  0  0  0  0  0  0
  -24.8560  -16.0250   20.4950 H   0  0  0  0  0  0  0  0  0  0  0  0
  -26.4270  -15.7830   19.9280 H   0  0  0  0  0  0  0  0  0  0  0  0
  -29.5040  -22.2290   18.4140 C   0  0  0  0  0  1  0  0  0  0  0  0
  -29.2830  -22.5860   19.8360 N   0  0  2  0  0  4  0  0  0  0  0  0
  -28.3110  -22.3860   20.0310 H   0  0  0  0  0  0  0  0  0  0  0  0
  -29.4750  -24.0800   20.1160 C   0  0  0  0  0  3  0  0  0  0  0  0
  -28.3670  -25.0820   19.5650 C   0  0  0  0  0  3  0  0  0  0  0  0
  -28.4920  -26.5280   19.8510 O   0  0  0  0  0  0  0  0  0  0  0  0
  -24.5810  -31.6850   23.0190 C   0  0  0  0  0  0  0  0  0  0  0  0
  -27.3330  -27.3200   19.8160 C   0  0  0  0  0  0  0  0  0  0  0  0
  -23.4140  -30.2890   21.3510 C   0  0  0  0  0  3  0  0  0  0  0  0
  -24.9080  -28.8370   19.8690 C   0  0  0  0  0  0  0  0  0  0  0  0
  -25.9400  -30.7030   21.1600 C   0  0  0  0  0  2  0  0  0  0  0  0
  -26.0620  -29.3490   20.4760 C   0  0  0  0  0  0  0  0  0  0  0  0
  -27.2750  -28.6020   20.4420 C   0  0  0  0  0  3  0  0  0  0  0  0
  -26.1550  -26.8640   19.1770 C   0  0  0  0  0  3  0  0  0  0  0  0
  -24.9570  -27.6010   19.2090 C   0  0  0  0  0  3  0  0  0  0  0  0
  -23.6410  -29.6620   19.9510 C   0  0  0  0  0  2  0  0  0  0  0  0
  -24.6640  -30.9100   21.9000 N   0  0  0  0  0  0  0  0  0  0  0  0
  -23.4930  -31.9100   23.5680 O   0  0  0  0  0  0  0  0  0  0  0  0
  -22.7980  -29.2220   22.2860 C   0  0  0  0  0  0  0  0  0  0  0  0
  -21.4780  -29.0090   22.1680 N   0  0  0  0  0  0  0  0  0  0  0  0
  -23.5060  -28.5910   23.0760 O   0  0  0  0  0  0  0  0  0  0  0  0
  -20.9680  -29.5670   21.4970 H   0  0  0  0  0  0  0  0  0  0  0  0
  -18.1350  -27.7270   22.6890 C   0  0  0  0  0  0  0  0  0  0  0  0
  -20.6920  -28.0280   22.9180 C   0  0  0  0  0  3  0  0  0  0  0  0
  -20.8120  -26.6220   22.2840 C   0  0  0  0  0  2  0  0  0  0  0  0
  -19.6950  -26.3160   21.2820 C   0  0  0  0  0  2  0  0  0  0  0  0
  -18.3240  -26.4080   21.9590 C   0  0  0  0  0  2  0  0  0  0  0  0
  -19.2470  -28.4950   23.1260 C   0  0  0  0  0  0  0  0  0  0  0  0
  -19.0150  -29.7310   23.7680 C   0  0  0  0  0  3  0  0  0  0  0  0
  -17.7040  -30.1950   23.9840 C   0  0  0  0  0  3  0  0  0  0  0  0
  -16.6070  -29.4240   23.5640 C   0  0  0  0  0  3  0  0  0  0  0  0
  -16.8230  -28.1940   22.9200 C   0  0  0  0  0  3  0  0  0  0  0  0
  -25.8460  -32.3450   23.6490 C   0  0  0  0  0  3  0  0  0  0  0  0
  -26.4040  -31.5510   24.8940 C   0  0  1  0  0  0  0  0  0  0  0  0
  -25.3270  -31.2310   25.9580 C   0  0  0  0  0  1  0  0  0  0  0  0
  -27.0390  -30.2120   24.4500 C   0  0  0  0  0  1  0  0  0  0  0  0
  -27.5270  -32.3670   25.5750 C   0  0  0  0  0  1  0  0  0  0  0  0
  -25.4870  -33.7180   24.0300 N   0  0  0  0  0  0  0  0  0  0  0  0
  -25.7770  -34.8090   23.3090 C   0  0  0  0  0  0  0  0  0  0  0  0
  -26.4460  -34.7670   22.2720 O   0  0  0  0  0  0  0  0  0  0  0  0
  -24.8890  -33.8210   24.8370 H   0  0  0  0  0  0  0  0  0  0  0  0
  -23.9830  -36.5500   23.0270 C   0  0  0  0  0  1  0  0  0  0  0  0
  -25.2420  -36.1610   23.8170 C   0  0  0  0  0  3  0  0  0  0  0  0
  -27.3410  -37.1000   24.6790 C   0  0  0  0  0  1  0  0  0  0  0  0
  -26.2350  -37.2550   23.7390 N   0  0  0  0  0  0  0  0  0  0  0  0
  -25.7950  -38.1540   23.9150 H   0  0  0  0  0  0  0  0  0  0  0  0
  2  3  2  0
  2  5  1  0
  3  6  1  0
  5  7  2  0
  5  1  1  0
  6 17  1  0
  6  4  2  0
  7  4  1  0
  7  8  1  0
  9 17  1  0
 10 15  1  0
 11 12  1  0
 11 10  1  0
 13 12  1  0
 13 22  1  0
 13 14  1  0
 15  9  1  0
 15 14  1  0
 16  9  2  0
 17 18  1  0
 19 20  2  0
 20 39  1  0
 21 20  1  0
 21 24  1  0
 22 23  1  0
 22 19  1  0
 23 21  2  0
 24 25  1  0
 25 26  2  0
 27 30  1  0
 27 26  1  0
 28 27  2  0
 29 28  1  0
 29 24  2  0
 30 31  1  0
 31 32  1  0
 32 33  2  0
 34 33  1  0
 34 38  1  0
 35 34  2  0
 36 31  2  0
 36 35  1  0
 37 36  1  0
 39 40  1  0
 40 43  1  0
 40 42  1  0
 41 39  2  0
 44 19  1  0
 44 45  1  0
 46 44  1  0
 47 48  1  0
 48 49  1  1
 48 50  1  0
 48  1  1  0
 51 52  1  0
 51 50  2  0
 53 64  2  0
 54 52  1  0
 54 59  1  0
 55 63  1  0
 55 65  1  0
 56 62  1  0
 56 58  1  0
 57 63  1  0
 58 57  1  0
 59 58  2  0
 60 61  1  0
 60 54  2  0
 61 56  2  0
 62 55  1  0
 63 53  1  0
 65 67  2  0
 66 65  1  0
 68 66  1  0
 69 78  2  0
 69 74  1  0
 70 66  1  0
 70 74  1  0
 71 70  1  0
 72 73  1  0
 72 71  1  0
 73 69  1  0
 74 75  2  0
 75 76  1  0
 77 76  2  0
 78 77  1  0
 79 53  1  0
 79 84  1  0
 79 80  1  0
 80 83  1  1
 80 81  1  0
 82 80  1  0
 84 87  1  0
 85 89  1  0
 85 84  1  0
 86 85  2  0
 89 88  1  0
 91 89  1  0
 91 92  1  0
 91 90  1  0
M  ISO  4   9 100  17 100  51 101  52 101
M  END
>  <TORSDO>  (76) 
F 20

>  <SCORE>  (76) 
-13.419

>  <name>  (76) 
76

>  <ligand_id>  (76) 
76

>  <original_smiles>  (76) 
[H]c1c([H])c([H])c2c(c1[H])C([H])([H])C([H])([H])C([H])([H])C2([H])N([H])C(=O)C1([H])N(C(=O)C([H])(N([H])C(=O)C([H])(N([H])C([H])([H])[H])C([H])([H])[H])C(C([H])([H])[H])(C([H])([H])[H])C([H])([H])[H])C([H])([H])c2c([H])c(OC([H])([H])C([H])([H])[N+]([H])(C([H])([H])[H])C([H])([H])c3c([H])c([H])c(N([H])C(=O)N4C([H])([H])C([H])([H])C([H])([H])C([H])(n5nc(-c6c([H])c([H])c(Oc7c([H])c([H])c(F)c([H])c7F)c([H])c6[H])c(C(=O)N([H])[H])c5N([H])[H])C4([H])[H])c([H])c3F)c([H])c([H])c2C1([H])[H]

>  <smiles>  (76) 
[H]c1c([H])c([H])c2c(c1[H])C([H])([H])C([H])([H])C([H])([H])C2([H])N([H])C(=O)C1([H])N(C(=O)C([H])(N([H])C(=O)C([H])(N([H])C([H])([H])[H])C([H])([H])[H])C(C([H])([H])[H])(C([H])([H])[H])C([H])([H])[H])C([H])([H])c2c([H])c(OC([H])([H])C([H])([H])[N+]([H])(C([H])([H])[H])C([H])([H])c3c([H])c([H])c(N([H])C(=O)N4C([H])([H])C([H])([H])C([H])([H])C([H])(n5nc(-c6c([H])c([H])c(Oc7c([H])c([H])c(F)c([H])c7F)c([H])c6[H])c(C(=O)N([H])[H])c5N([H])[H])C4([H])[H])c([H])c3F)c([H])c([H])c2C1([H])[H]

$$$$
77:0:0
     RDKit          3D

 91 99  0  0  1  0  0  0  0  0999 V2000
  -31.0520  -19.6260   20.2790 C   0  0  0  0  0  3  0  0  0  0  0  0
  -29.6410  -18.9510   18.4520 C   0  0  0  0  0  3  0  0  0  0  0  0
  -30.5070  -20.9480   20.2370 C   0  0  0  0  0  3  0  0  0  0  0  0
  -29.0910  -20.2660   18.4170 C   0  0  0  0  0  3  0  0  0  0  0  0
  -30.6490  -18.5970   19.3790 C   0  0  0  0  0  0  0  0  0  0  0  0
  -29.5190  -21.3060   19.2860 C   0  0  0  0  0  0  0  0  0  0  0  0
  -31.4400  -17.2390   19.2880 C   0  0  0  0  0  2  0  0  0  0  0  0
  -31.3780  -14.7640   19.1510 C   0  0  0  0  0  0  0  0  0  0  0  0
  -30.6080  -12.7810   17.8540 C   0  0  0  0  0  2  0  0  0  0  0  0
  -29.4030  -13.1530   16.9630 C   0  0  0  0  0  2  0  0  0  0  0  0
  -28.0830  -13.0010   17.7430 C   0  0  0  0  0  2  0  0  0  0  0  0
  -28.1410  -13.6580   19.1490 C   0  0  0  0  0  3  0  0  0  0  0  0
  -29.4330  -13.2600   19.8970 C   0  0  0  0  0  2  0  0  0  0  0  0
  -30.5670  -13.6540   19.0500 N   0  0  0  0  0  0  0  0  0  0  0  0
  -32.3720  -14.8430   18.4190 O   0  0  0  0  0  0  0  0  0  0  0  0
  -30.9540  -15.9050   19.8230 N   0  0  0  0  0  0  0  0  0  0  0  0
  -26.1180  -14.2280   20.6260 C   0  0  0  0  0  0  0  0  0  0  0  0
  -25.0940  -13.4630   21.1150 C   0  0  0  0  0  0  0  0  0  0  0  0
  -25.3440  -12.1320   20.6620 C   0  0  0  0  0  0  0  0  0  0  0  0
  -26.9410  -13.3600   19.9270 N   0  0  0  0  0  0  0  0  0  0  0  0
  -26.4930  -12.0800   19.9990 N   0  0  0  0  0  0  0  0  0  0  0  0
  -24.5250  -10.9190   20.7730 C   0  0  0  0  0  0  0  0  0  0  0  0
  -24.9710   -9.7890   21.4930 C   0  0  0  0  0  3  0  0  0  0  0  0
  -24.1560   -8.6410   21.6030 C   0  0  0  0  0  3  0  0  0  0  0  0
  -22.8800   -8.6160   20.9920 C   0  0  0  0  0  0  0  0  0  0  0  0
  -22.4500   -9.7350   20.2560 C   0  0  0  0  0  3  0  0  0  0  0  0
  -23.2640  -10.8740   20.1450 C   0  0  0  0  0  3  0  0  0  0  0  0
  -22.0300   -7.5360   21.0230 O   0  0  0  0  0  0  0  0  0  0  0  0
  -21.8950   -6.7600   22.1460 C   0  0  0  0  0  0  0  0  0  0  0  0
  -21.5110   -7.3080   23.3890 C   0  0  0  0  0  3  0  0  0  0  0  0
  -21.3160   -6.4640   24.5020 C   0  0  0  0  0  3  0  0  0  0  0  0
  -21.4960   -5.0740   24.3710 C   0  0  0  0  0  0  0  0  0  0  0  0
  -21.8730   -4.5250   23.1330 C   0  0  0  0  0  3  0  0  0  0  0  0
  -22.0690   -5.3660   22.0230 C   0  0  0  0  0  0  0  0  0  0  0  0
  -22.4110   -4.8310   20.8260 F   0  0  0  0  0  0  0  0  0  0  0  0
  -21.3010   -4.2620   25.4360 F   0  0  0  0  0  0  0  0  0  0  0  0
  -23.8970  -13.9580   21.8740 C   0  0  0  0  0  0  0  0  0  0  0  0
  -23.3600  -13.1390   22.7720 N   0  0  0  0  0  0  0  0  0  0  0  0
  -23.4610  -15.0960   21.7100 O   0  0  0  0  0  0  0  0  0  0  0  0
  -23.7310  -12.2120   22.9220 H   0  0  0  0  0  0  0  0  0  0  0  0
  -22.5680  -13.4450   23.3200 H   0  0  0  0  0  0  0  0  0  0  0  0
  -26.3980  -15.5890   20.6950 N   0  0  0  0  0  0  0  0  0  0  0  0
  -25.7820  -16.2430   21.1640 H   0  0  0  0  0  0  0  0  0  0  0  0
  -27.1910  -16.0360   20.2530 H   0  0  0  0  0  0  0  0  0  0  0  0
  -30.9190  -15.8910   21.2960 C   0  0  0  0  0  2  0  0  0  0  0  0
  -29.7400  -16.7270   23.3970 C   0  0  0  0  0  1  0  0  0  0  0  0
  -29.6450  -16.5250   21.8830 C   0  0  0  0  0  2  0  0  0  0  0  0
  -28.9330  -22.5740   19.1200 O   0  0  0  0  0  0  0  0  0  0  0  0
  -29.4160  -23.8230   19.7140 C   0  0  0  0  0  2  0  0  0  0  0  0
  -28.4410  -25.0080   19.3020 C   0  0  0  0  0  2  0  0  0  0  0  0
  -28.5800  -26.4160   19.7500 O   0  0  0  0  0  0  0  0  0  0  0  0
  -24.4700  -31.3770   23.0200 C   0  0  0  0  0  0  0  0  0  0  0  0
  -27.4140  -27.2050   19.7220 C   0  0  0  0  0  0  0  0  0  0  0  0
  -23.3780  -29.9940   21.2920 C   0  0  0  0  0  3  0  0  0  0  0  0
  -24.9420  -28.6470   19.7890 C   0  0  0  0  0  0  0  0  0  0  0  0
  -25.8910  -30.5020   21.1530 C   0  0  0  0  0  2  0  0  0  0  0  0
  -26.0720  -29.1750   20.4260 C   0  0  0  0  0  0  0  0  0  0  0  0
  -27.3100  -28.4650   20.3890 C   0  0  0  0  0  3  0  0  0  0  0  0
  -26.2550  -26.7430   19.0500 C   0  0  0  0  0  3  0  0  0  0  0  0
  -25.0350  -27.4360   19.0920 C   0  0  0  0  0  3  0  0  0  0  0  0
  -23.6460  -29.4240   19.8760 C   0  0  0  0  0  2  0  0  0  0  0  0
  -24.5970  -30.6380   21.8790 N   0  0  0  0  0  0  0  0  0  0  0  0
  -23.3670  -31.5450   23.5580 O   0  0  0  0  0  0  0  0  0  0  0  0
  -22.7870  -28.8750   22.1830 C   0  0  0  0  0  0  0  0  0  0  0  0
  -21.4920  -28.5700   21.9900 N   0  0  0  0  0  0  0  0  0  0  0  0
  -23.4930  -28.2880   23.0060 O   0  0  0  0  0  0  0  0  0  0  0  0
  -20.9770  -29.1040   21.3030 H   0  0  0  0  0  0  0  0  0  0  0  0
  -18.2360  -27.0250   22.2980 C   0  0  0  0  0  0  0  0  0  0  0  0
  -20.7420  -27.5260   22.6900 C   0  0  0  0  0  3  0  0  0  0  0  0
  -21.0110  -26.1360   22.0710 C   0  0  0  0  0  2  0  0  0  0  0  0
  -19.9890  -25.7450   20.9980 C   0  0  0  0  0  2  0  0  0  0  0  0
  -18.5750  -25.7270   21.5840 C   0  0  0  0  0  2  0  0  0  0  0  0
  -19.2540  -27.8770   22.8030 C   0  0  0  0  0  0  0  0  0  0  0  0
  -18.8840  -29.0880   23.4280 C   0  0  0  0  0  3  0  0  0  0  0  0
  -17.5300  -29.4510   23.5520 C   0  0  0  0  0  3  0  0  0  0  0  0
  -16.5270  -28.5970   23.0640 C   0  0  0  0  0  3  0  0  0  0  0  0
  -16.8790  -27.3850   22.4430 C   0  0  0  0  0  3  0  0  0  0  0  0
  -25.7030  -32.0610   23.6880 C   0  0  0  0  0  3  0  0  0  0  0  0
  -25.3060  -33.4280   24.0530 N   0  0  0  0  0  0  0  0  0  0  0  0
  -25.5600  -34.5170   23.3150 C   0  0  0  0  0  0  0  0  0  0  0  0
  -26.2250  -34.4800   22.2750 O   0  0  0  0  0  0  0  0  0  0  0  0
  -24.7110  -33.5260   24.8620 H   0  0  0  0  0  0  0  0  0  0  0  0
  -23.6970  -36.1850   23.0400 C   0  0  0  0  0  1  0  0  0  0  0  0
  -24.9890  -35.8600   23.8080 C   0  0  0  0  0  3  0  0  0  0  0  0
  -27.0720  -36.8910   24.5970 C   0  0  0  0  0  1  0  0  0  0  0  0
  -25.9390  -36.9860   23.6810 N   0  0  0  0  0  0  0  0  0  0  0  0
  -25.4710  -37.8730   23.8480 H   0  0  0  0  0  0  0  0  0  0  0  0
  -26.2350  -31.2810   24.9530 C   0  0  1  0  0  0  0  0  0  0  0  0
  -25.1290  -30.9210   25.9720 C   0  0  0  0  0  1  0  0  0  0  0  0
  -26.9330  -29.9670   24.5330 C   0  0  0  0  0  1  0  0  0  0  0  0
  -27.3000  -32.1340   25.6830 C   0  0  0  0  0  1  0  0  0  0  0  0
  2  5  1  0
  3  1  1  0
  4  2  2  0
  4  6  1  0
  5  1  2  0
  6  3  2  0
  7  5  1  0
  7 16  1  0
  8 16  1  0
  9 14  1  0
 10 11  1  0
 10  9  1  0
 12 11  1  0
 12 13  1  0
 12 20  1  0
 14  8  1  0
 14 13  1  0
 15  8  2  0
 16 45  1  0
 17 42  1  0
 17 18  2  0
 18 37  1  0
 19 22  1  0
 19 18  1  0
 20 21  1  0
 20 17  1  0
 21 19  2  0
 22 23  1  0
 23 24  2  0
 25 28  1  0
 25 24  1  0
 26 25  2  0
 27 26  1  0
 27 22  2  0
 28 29  1  0
 29 30  1  0
 30 31  2  0
 32 31  1  0
 32 36  1  0
 33 32  2  0
 34 29  2  0
 34 33  1  0
 35 34  1  0
 37 38  1  0
 38 40  1  0
 38 41  1  0
 39 37  2  0
 42 43  1  0
 44 42  1  0
 45 47  1  0
 47 46  1  0
 48  6  1  0
 48 49  1  0
 50 49  1  0
 50 51  1  0
 52 63  2  0
 53 51  1  0
 53 58  1  0
 54 62  1  0
 54 64  1  0
 55 61  1  0
 55 57  1  0
 56 62  1  0
 57 56  1  0
 58 57  2  0
 59 60  1  0
 59 53  2  0
 60 55  2  0
 61 54  1  0
 62 52  1  0
 64 66  2  0
 65 64  1  0
 67 65  1  0
 68 77  2  0
 68 73  1  0
 69 65  1  0
 69 73  1  0
 70 69  1  0
 71 72  1  0
 71 70  1  0
 72 68  1  0
 73 74  2  0
 74 75  1  0
 76 75  2  0
 77 76  1  0
 78 52  1  0
 78 79  1  0
 78 88  1  0
 79 82  1  0
 80 84  1  0
 80 79  1  0
 81 80  2  0
 84 83  1  0
 86 84  1  0
 86 87  1  0
 86 85  1  0
 88 91  1  1
 88 89  1  0
 90 88  1  0
M  ISO  4   8 100  16 100  50 101  51 101
M  END
>  <TORSDO>  (77) 
F 22

>  <SCORE>  (77) 
-5.061

>  <name>  (77) 
77

>  <ligand_id>  (77) 
77

>  <original_smiles>  (77) 
[H]c1c([H])c([H])c2c(c1[H])C([H])([H])C([H])([H])C([H])([H])C2([H])N([H])C(=O)C1([H])N(C(=O)C([H])(N([H])C(=O)C([H])(N([H])C([H])([H])[H])C([H])([H])[H])C(C([H])([H])[H])(C([H])([H])[H])C([H])([H])[H])C([H])([H])c2c([H])c(OC([H])([H])C([H])([H])Oc3c([H])c([H])c(C([H])([H])N(C(=O)N4C([H])([H])C([H])([H])C([H])([H])C([H])(n5nc(-c6c([H])c([H])c(Oc7c([H])c([H])c(F)c([H])c7F)c([H])c6[H])c(C(=O)N([H])[H])c5N([H])[H])C4([H])[H])C([H])([H])C([H])([H])C([H])([H])[H])c([H])c3[H])c([H])c([H])c2C1([H])[H]

>  <smiles>  (77) 
[H]c1c([H])c([H])c2c(c1[H])C([H])([H])C([H])([H])C([H])([H])C2([H])N([H])C(=O)C1([H])N(C(=O)C([H])(N([H])C(=O)C([H])(N([H])C([H])([H])[H])C([H])([H])[H])C(C([H])([H])[H])(C([H])([H])[H])C([H])([H])[H])C([H])([H])c2c([H])c(OC([H])([H])C([H])([H])Oc3c([H])c([H])c(C([H])([H])N(C(=O)N4C([H])([H])C([H])([H])C([H])([H])C([H])(n5nc(-c6c([H])c([H])c(Oc7c([H])c([H])c(F)c([H])c7F)c([H])c6[H])c(C(=O)N([H])[H])c5N([H])[H])C4([H])[H])C([H])([H])C([H])([H])C([H])([H])[H])c([H])c3[H])c([H])c([H])c2C1([H])[H]

$$$$
78:0:0
     RDKit          3D

 89 97  0  0  1  0  0  0  0  0999 V2000
  -29.5440  -21.4810   19.8000 O   0  0  0  0  0  0  0  0  0  0  0  0
  -30.2950  -17.8220   19.2330 C   0  0  0  0  0  3  0  0  0  0  0  0
  -29.6100  -18.0620   21.5290 C   0  0  0  0  0  3  0  0  0  0  0  0
  -30.1380  -19.2310   19.0550 C   0  0  0  0  0  3  0  0  0  0  0  0
  -29.4900  -19.4810   21.3580 C   0  0  0  0  0  3  0  0  0  0  0  0
  -30.0110  -17.1830   20.4750 C   0  0  0  0  0  0  0  0  0  0  0  0
  -29.7280  -20.1090   20.1010 C   0  0  0  0  0  0  0  0  0  0  0  0
  -30.6810  -14.6900   20.0640 C   0  0  0  0  0  0  0  0  0  0  0  0
  -30.4070  -12.4780   18.9480 C   0  0  0  0  0  2  0  0  0  0  0  0
  -29.4060  -12.6530   17.7840 C   0  0  0  0  0  2  0  0  0  0  0  0
  -27.9570  -12.4770   18.2740 C   0  0  0  0  0  2  0  0  0  0  0  0
  -27.6670  -13.2830   19.5690 C   0  0  0  0  0  3  0  0  0  0  0  0
  -28.7820  -13.0970   20.6240 C   0  0  0  0  0  2  0  0  0  0  0  0
  -30.0640  -13.4630   19.9990 N   0  0  0  0  0  0  0  0  0  0  0  0
  -31.7780  -14.8690   19.5220 O   0  0  0  0  0  0  0  0  0  0  0  0
  -30.0080  -15.7210   20.6770 N   0  0  0  0  0  0  0  0  0  0  0  0
  -29.2980  -15.3940   21.3180 H   0  0  0  0  0  0  0  0  0  0  0  0
  -25.3150  -13.8610   20.4180 C   0  0  0  0  0  0  0  0  0  0  0  0
  -24.2640  -13.0810   20.8230 C   0  0  0  0  0  0  0  0  0  0  0  0
  -24.7220  -11.7300   20.7360 C   0  0  0  0  0  0  0  0  0  0  0  0
  -26.3440  -12.9850   20.1100 N   0  0  0  0  0  0  0  0  0  0  0  0
  -25.9970  -11.6970   20.3590 N   0  0  0  0  0  0  0  0  0  0  0  0
  -24.0000  -10.4630   20.9290 C   0  0  0  0  0  0  0  0  0  0  0  0
  -24.4340   -9.5050   21.8700 C   0  0  0  0  0  3  0  0  0  0  0  0
  -23.7110   -8.3070   22.0570 C   0  0  0  0  0  3  0  0  0  0  0  0
  -22.5420   -8.0580   21.3020 C   0  0  0  0  0  0  0  0  0  0  0  0
  -22.1280   -9.0050   20.3490 C   0  0  0  0  0  3  0  0  0  0  0  0
  -22.8510  -10.1940   20.1600 C   0  0  0  0  0  3  0  0  0  0  0  0
  -21.7930   -6.9100   21.3950 O   0  0  0  0  0  0  0  0  0  0  0  0
  -21.6850   -6.2140   22.5740 C   0  0  0  0  0  0  0  0  0  0  0  0
  -21.1710   -6.8070   23.7460 C   0  0  0  0  0  3  0  0  0  0  0  0
  -21.0150   -6.0350   24.9150 C   0  0  0  0  0  3  0  0  0  0  0  0
  -21.3580   -4.6720   24.9110 C   0  0  0  0  0  0  0  0  0  0  0  0
  -21.8680   -4.0770   23.7420 C   0  0  0  0  0  3  0  0  0  0  0  0
  -22.0250   -4.8450   22.5760 C   0  0  0  0  0  0  0  0  0  0  0  0
  -22.4920   -4.2620   21.4470 F   0  0  0  0  0  0  0  0  0  0  0  0
  -21.2020   -3.9290   26.0300 F   0  0  0  0  0  0  0  0  0  0  0  0
  -22.8840  -13.5550   21.1750 C   0  0  0  0  0  0  0  0  0  0  0  0
  -22.1950  -12.8410   22.0630 N   0  0  0  0  0  0  0  0  0  0  0  0
  -22.4230  -14.5940   20.7030 O   0  0  0  0  0  0  0  0  0  0  0  0
  -22.5800  -12.0020   22.4720 H   0  0  0  0  0  0  0  0  0  0  0  0
  -21.2690  -13.1360   22.3320 H   0  0  0  0  0  0  0  0  0  0  0  0
  -25.4750  -15.2350   20.2710 N   0  0  0  0  0  0  0  0  0  0  0  0
  -24.7240  -15.8930   20.4490 H   0  0  0  0  0  0  0  0  0  0  0  0
  -26.3150  -15.6820   19.9300 H   0  0  0  0  0  0  0  0  0  0  0  0
  -29.5360  -22.5380   20.8210 C   0  0  0  0  0  2  0  0  0  0  0  0
  -29.6060  -24.0830   20.3680 C   0  0  0  0  0  3  0  0  0  0  0  0
  -28.3060  -24.9980   20.2520 C   0  0  0  0  0  3  0  0  0  0  0  0
  -28.4640  -26.4780   20.2340 O   0  0  0  0  0  0  0  0  0  0  0  0
  -24.6350  -31.8460   23.2070 C   0  0  0  0  0  0  0  0  0  0  0  0
  -27.3140  -27.2920   20.1940 C   0  0  0  0  0  0  0  0  0  0  0  0
  -23.4500  -30.4330   21.5650 C   0  0  0  0  0  3  0  0  0  0  0  0
  -24.9230  -28.8770   20.1610 C   0  0  0  0  0  0  0  0  0  0  0  0
  -25.9890  -30.7640   21.3990 C   0  0  0  0  0  2  0  0  0  0  0  0
  -26.0830  -29.3840   20.7600 C   0  0  0  0  0  0  0  0  0  0  0  0
  -27.2790  -28.6040   20.7640 C   0  0  0  0  0  3  0  0  0  0  0  0
  -26.1260  -26.8340   19.5790 C   0  0  0  0  0  3  0  0  0  0  0  0
  -24.9470  -27.6060   19.5630 C   0  0  0  0  0  3  0  0  0  0  0  0
  -23.6760  -29.7400   20.1940 C   0  0  0  0  0  2  0  0  0  0  0  0
  -24.7100  -31.0330   22.1130 N   0  0  0  0  0  0  0  0  0  0  0  0
  -23.5480  -32.1220   23.7320 O   0  0  0  0  0  0  0  0  0  0  0  0
  -22.7860  -29.4210   22.5280 C   0  0  0  0  0  0  0  0  0  0  0  0
  -21.4620  -29.2400   22.3930 N   0  0  0  0  0  0  0  0  0  0  0  0
  -23.4610  -28.7970   23.3520 O   0  0  0  0  0  0  0  0  0  0  0  0
  -20.9810  -29.7870   21.6940 H   0  0  0  0  0  0  0  0  0  0  0  0
  -18.0800  -28.0600   22.8960 C   0  0  0  0  0  0  0  0  0  0  0  0
  -20.6400  -28.3050   23.1600 C   0  0  0  0  0  3  0  0  0  0  0  0
  -20.7370  -26.8770   22.5740 C   0  0  0  0  0  2  0  0  0  0  0  0
  -19.6290  -26.5640   21.5650 C   0  0  0  0  0  2  0  0  0  0  0  0
  -18.2490  -26.7140   22.2100 C   0  0  0  0  0  2  0  0  0  0  0  0
  -19.2040  -28.8150   23.3260 C   0  0  0  0  0  0  0  0  0  0  0  0
  -18.9940  -30.0760   23.9240 C   0  0  0  0  0  3  0  0  0  0  0  0
  -17.6920  -30.5810   24.1000 C   0  0  0  0  0  3  0  0  0  0  0  0
  -16.5830  -29.8240   23.6860 C   0  0  0  0  0  3  0  0  0  0  0  0
  -16.7780  -28.5660   23.0900 C   0  0  0  0  0  3  0  0  0  0  0  0
  -25.9120  -32.4860   23.8370 C   0  0  0  0  0  3  0  0  0  0  0  0
  -26.4240  -31.7160   25.1150 C   0  0  1  0  0  0  0  0  0  0  0  0
  -25.3250  -31.4660   26.1740 C   0  0  0  0  0  1  0  0  0  0  0  0
  -27.0240  -30.3450   24.7260 C   0  0  0  0  0  1  0  0  0  0  0  0
  -27.5650  -32.5170   25.7860 C   0  0  0  0  0  1  0  0  0  0  0  0
  -25.5930  -33.8820   24.1710 N   0  0  0  0  0  0  0  0  0  0  0  0
  -25.9220  -34.9400   23.4160 C   0  0  0  0  0  0  0  0  0  0  0  0
  -26.5960  -34.8420   22.3870 O   0  0  0  0  0  0  0  0  0  0  0  0
  -25.0020  -34.0290   24.9740 H   0  0  0  0  0  0  0  0  0  0  0  0
  -24.1860  -36.7230   23.0530 C   0  0  0  0  0  1  0  0  0  0  0  0
  -25.4230  -36.3230   23.8750 C   0  0  0  0  0  3  0  0  0  0  0  0
  -27.5440  -37.2150   24.7320 C   0  0  0  0  0  1  0  0  0  0  0  0
  -26.4500  -37.3830   23.7760 N   0  0  0  0  0  0  0  0  0  0  0  0
  -26.0400  -38.3000   23.9230 H   0  0  0  0  0  0  0  0  0  0  0  0
  1  7  1  0
  1 46  1  0
  2  6  1  0
  4  2  2  0
  4  7  1  0
  5  3  1  0
  6 16  1  0
  6  3  2  0
  7  5  2  0
  8 16  1  0
  9 14  1  0
 10 11  1  0
 10  9  1  0
 12 11  1  0
 12 21  1  0
 12 13  1  0
 14  8  1  0
 14 13  1  0
 15  8  2  0
 16 17  1  0
 18 19  2  0
 19 38  1  0
 20 19  1  0
 20 23  1  0
 21 22  1  0
 21 18  1  0
 22 20  2  0
 23 24  1  0
 24 25  2  0
 26 29  1  0
 26 25  1  0
 27 26  2  0
 28 27  1  0
 28 23  2  0
 29 30  1  0
 30 35  2  0
 30 31  1  0
 31 32  2  0
 33 32  1  0
 33 37  1  0
 34 33  2  0
 35 34  1  0
 36 35  1  0
 38 39  1  0
 39 42  1  0
 39 41  1  0
 40 38  2  0
 43 18  1  0
 43 44  1  0
 45 43  1  0
 47 46  1  0
 48 47  2  0
 49 48  1  0
 50 61  2  0
 51 49  1  0
 51 56  1  0
 52 60  1  0
 52 62  1  0
 53 59  1  0
 53 55  1  0
 54 60  1  0
 55 56  2  0
 55 54  1  0
 57 51  2  0
 58 57  1  0
 58 53  2  0
 59 52  1  0
 60 50  1  0
 62 64  2  0
 63 62  1  0
 65 63  1  0
 66 75  2  0
 66 71  1  0
 67 63  1  0
 67 71  1  0
 68 67  1  0
 69 70  1  0
 69 68  1  0
 70 66  1  0
 71 72  2  0
 72 73  1  0
 74 73  2  0
 75 74  1  0
 76 50  1  0
 76 81  1  0
 76 77  1  0
 77 80  1  1
 77 78  1  0
 79 77  1  0
 81 84  1  0
 82 86  1  0
 82 81  1  0
 83 82  2  0
 86 85  1  0
 88 86  1  0
 88 89  1  0
 88 87  1  0
M  ISO  4   8 100  16 100  48 101  49 101
M  END
>  <TORSDO>  (78) 
F 20

>  <SCORE>  (78) 
-13.067

>  <name>  (78) 
78

>  <ligand_id>  (78) 
78

>  <original_smiles>  (78) 
[H]c1c([H])c([H])c2c(c1[H])C([H])([H])C([H])([H])C([H])([H])C2([H])N([H])C(=O)C1([H])N(C(=O)C([H])(N([H])C(=O)C([H])(N([H])C([H])([H])[H])C([H])([H])[H])C(C([H])([H])[H])(C([H])([H])[H])C([H])([H])[H])C([H])([H])c2c([H])c(OC([H])([H])C([H])([H])C([H])([H])Oc3c([H])c([H])c(N([H])C(=O)N4C([H])([H])C([H])([H])C([H])([H])C([H])(n5nc(-c6c([H])c([H])c(Oc7c([H])c([H])c(F)c([H])c7F)c([H])c6[H])c(C(=O)N([H])[H])c5N([H])[H])C4([H])[H])c([H])c3[H])c([H])c([H])c2C1([H])[H]

>  <smiles>  (78) 
[H]c1c([H])c([H])c2c(c1[H])C([H])([H])C([H])([H])C([H])([H])C2([H])N([H])C(=O)C1([H])N(C(=O)C([H])(N([H])C(=O)C([H])(N([H])C([H])([H])[H])C([H])([H])[H])C(C([H])([H])[H])(C([H])([H])[H])C([H])([H])[H])C([H])([H])c2c([H])c(OC([H])([H])C([H])([H])C([H])([H])Oc3c([H])c([H])c(N([H])C(=O)N4C([H])([H])C([H])([H])C([H])([H])C([H])(n5nc(-c6c([H])c([H])c(Oc7c([H])c([H])c(F)c([H])c7F)c([H])c6[H])c(C(=O)N([H])[H])c5N([H])[H])C4([H])[H])c([H])c3[H])c([H])c([H])c2C1([H])[H]

$$$$
79:0:0
     RDKit          3D

 89 97  0  0  1  0  0  0  0  0999 V2000
  -30.7790  -19.7090   20.5980 C   0  0  0  0  0  3  0  0  0  0  0  0
  -28.7270  -18.8590   19.6710 C   0  0  0  0  0  3  0  0  0  0  0  0
  -30.2700  -21.0400   20.5640 C   0  0  0  0  0  3  0  0  0  0  0  0
  -28.2160  -20.1890   19.6430 C   0  0  0  0  0  3  0  0  0  0  0  0
  -30.0320  -18.5840   20.1430 C   0  0  0  0  0  0  0  0  0  0  0  0
  -28.9700  -21.3160   20.0740 C   0  0  0  0  0  0  0  0  0  0  0  0
  -30.7220  -17.1720   20.0400 C   0  0  0  0  0  2  0  0  0  0  0  0
  -30.7480  -14.6730   20.1560 C   0  0  0  0  0  0  0  0  0  0  0  0
  -30.3880  -12.5270   18.9440 C   0  0  0  0  0  2  0  0  0  0  0  0
  -29.3840  -12.7280   17.7900 C   0  0  0  0  0  2  0  0  0  0  0  0
  -27.9320  -12.5650   18.2870 C   0  0  0  0  0  2  0  0  0  0  0  0
  -27.6590  -13.3380   19.6060 C   0  0  0  0  0  3  0  0  0  0  0  0
  -28.7770  -13.0780   20.6350 C   0  0  0  0  0  2  0  0  0  0  0  0
  -30.0410  -13.4960   20.0120 N   0  0  0  0  0  0  0  0  0  0  0  0
  -31.8920  -14.7360   19.6920 O   0  0  0  0  0  0  0  0  0  0  0  0
  -29.2080  -15.9920   21.6410 C   0  0  0  0  0  1  0  0  0  0  0  0
  -30.1080  -15.8630   20.4900 N   0  0  0  0  0  0  0  0  0  0  0  0
  -25.3010  -13.9100   20.4470 C   0  0  0  0  0  0  0  0  0  0  0  0
  -24.2590  -13.1250   20.8600 C   0  0  0  0  0  0  0  0  0  0  0  0
  -24.7240  -11.7770   20.7770 C   0  0  0  0  0  0  0  0  0  0  0  0
  -26.3360  -13.0410   20.1460 N   0  0  0  0  0  0  0  0  0  0  0  0
  -25.9960  -11.7510   20.4010 N   0  0  0  0  0  0  0  0  0  0  0  0
  -24.0130  -10.5090   20.9740 C   0  0  0  0  0  0  0  0  0  0  0  0
  -24.4710   -9.5410   21.8940 C   0  0  0  0  0  3  0  0  0  0  0  0
  -23.7590   -8.3360   22.0780 C   0  0  0  0  0  3  0  0  0  0  0  0
  -22.5760   -8.0920   21.3430 C   0  0  0  0  0  0  0  0  0  0  0  0
  -22.1370   -9.0490   20.4110 C   0  0  0  0  0  3  0  0  0  0  0  0
  -22.8480  -10.2460   20.2250 C   0  0  0  0  0  3  0  0  0  0  0  0
  -21.8320   -6.9410   21.4390 O   0  0  0  0  0  0  0  0  0  0  0  0
  -21.7730   -6.2180   22.6030 C   0  0  0  0  0  0  0  0  0  0  0  0
  -21.3090   -6.7870   23.8110 C   0  0  0  0  0  3  0  0  0  0  0  0
  -21.1960   -5.9880   24.9660 C   0  0  0  0  0  3  0  0  0  0  0  0
  -21.5370   -4.6240   24.9160 C   0  0  0  0  0  0  0  0  0  0  0  0
  -21.9920   -4.0550   23.7140 C   0  0  0  0  0  3  0  0  0  0  0  0
  -22.1060   -4.8490   22.5590 C   0  0  0  0  0  0  0  0  0  0  0  0
  -22.5220   -4.2900   21.3990 F   0  0  0  0  0  0  0  0  0  0  0  0
  -21.4210   -3.8570   26.0250 F   0  0  0  0  0  0  0  0  0  0  0  0
  -22.8740  -13.5900   21.2070 C   0  0  0  0  0  0  0  0  0  0  0  0
  -22.1930  -12.8790   22.0970 N   0  0  0  0  0  0  0  0  0  0  0  0
  -22.4060  -14.6210   20.7230 O   0  0  0  0  0  0  0  0  0  0  0  0
  -22.5820  -12.0430   22.5090 H   0  0  0  0  0  0  0  0  0  0  0  0
  -21.2650  -13.1700   22.3680 H   0  0  0  0  0  0  0  0  0  0  0  0
  -25.4440  -15.2840   20.2820 N   0  0  0  0  0  0  0  0  0  0  0  0
  -24.6690  -15.9220   20.4260 H   0  0  0  0  0  0  0  0  0  0  0  0
  -26.2490  -15.7260   19.8550 H   0  0  0  0  0  0  0  0  0  0  0  0
  -28.3780  -22.5850   19.9710 O   0  0  0  0  0  0  0  0  0  0  0  0
  -29.0370  -23.8520   20.2850 C   0  0  0  0  0  2  0  0  0  0  0  0
  -28.0400  -25.0450   19.9700 C   0  0  0  0  0  2  0  0  0  0  0  0
  -28.3120  -26.4760   20.2460 O   0  0  0  0  0  0  0  0  0  0  0  0
  -24.6050  -31.8920   23.2630 C   0  0  0  0  0  0  0  0  0  0  0  0
  -27.2010  -27.3390   20.1940 C   0  0  0  0  0  0  0  0  0  0  0  0
  -23.3940  -30.4960   21.6300 C   0  0  0  0  0  3  0  0  0  0  0  0
  -24.8360  -28.9530   20.2010 C   0  0  0  0  0  0  0  0  0  0  0  0
  -25.9350  -30.8140   21.4370 C   0  0  0  0  0  2  0  0  0  0  0  0
  -26.0110  -29.4370   20.7900 C   0  0  0  0  0  0  0  0  0  0  0  0
  -27.1980  -28.6430   20.7800 C   0  0  0  0  0  3  0  0  0  0  0  0
  -25.9960  -26.9150   19.5780 C   0  0  0  0  0  3  0  0  0  0  0  0
  -24.8300  -27.6930   19.5890 C   0  0  0  0  0  3  0  0  0  0  0  0
  -23.6030  -29.8260   20.2480 C   0  0  0  0  0  2  0  0  0  0  0  0
  -24.6640  -31.0840   22.1660 N   0  0  0  0  0  0  0  0  0  0  0  0
  -23.5220  -32.1710   23.8010 O   0  0  0  0  0  0  0  0  0  0  0  0
  -22.7360  -29.4760   22.5910 C   0  0  0  0  0  0  0  0  0  0  0  0
  -21.4140  -29.2830   22.4550 N   0  0  0  0  0  0  0  0  0  0  0  0
  -23.4150  -28.8640   23.4200 O   0  0  0  0  0  0  0  0  0  0  0  0
  -20.9240  -29.8310   21.7630 H   0  0  0  0  0  0  0  0  0  0  0  0
  -18.0450  -28.0510   22.9290 C   0  0  0  0  0  0  0  0  0  0  0  0
  -20.5970  -28.3440   23.2270 C   0  0  0  0  0  3  0  0  0  0  0  0
  -20.7230  -26.9060   22.6710 C   0  0  0  0  0  2  0  0  0  0  0  0
  -19.6360  -26.5570   21.6480 C   0  0  0  0  0  2  0  0  0  0  0  0
  -18.2460  -26.6940   22.2740 C   0  0  0  0  0  2  0  0  0  0  0  0
  -19.1490  -28.8320   23.3630 C   0  0  0  0  0  0  0  0  0  0  0  0
  -18.9070  -30.1020   23.9310 C   0  0  0  0  0  3  0  0  0  0  0  0
  -17.5940  -30.5870   24.0770 C   0  0  0  0  0  3  0  0  0  0  0  0
  -16.5050  -29.8030   23.6590 C   0  0  0  0  0  3  0  0  0  0  0  0
  -16.7310  -28.5370   23.0910 C   0  0  0  0  0  3  0  0  0  0  0  0
  -25.8890  -32.5260   23.8800 C   0  0  0  0  0  3  0  0  0  0  0  0
  -26.4090  -31.7540   25.1540 C   0  0  1  0  0  0  0  0  0  0  0  0
  -25.3230  -31.5160   26.2280 C   0  0  0  0  0  1  0  0  0  0  0  0
  -26.9930  -30.3770   24.7600 C   0  0  0  0  0  1  0  0  0  0  0  0
  -27.5600  -32.5500   25.8140 C   0  0  0  0  0  1  0  0  0  0  0  0
  -25.5770  -33.9240   24.2100 N   0  0  0  0  0  0  0  0  0  0  0  0
  -25.8930  -34.9770   23.4440 C   0  0  0  0  0  0  0  0  0  0  0  0
  -26.5460  -34.8740   22.4020 O   0  0  0  0  0  0  0  0  0  0  0  0
  -25.0000  -34.0780   25.0240 H   0  0  0  0  0  0  0  0  0  0  0  0
  -24.1490  -36.7590   23.1180 C   0  0  0  0  0  1  0  0  0  0  0  0
  -25.4080  -36.3640   23.9070 C   0  0  0  0  0  3  0  0  0  0  0  0
  -27.5510  -37.2650   24.6960 C   0  0  0  0  0  1  0  0  0  0  0  0
  -26.4310  -37.4220   23.7720 N   0  0  0  0  0  0  0  0  0  0  0  0
  -26.0200  -38.3400   23.9220 H   0  0  0  0  0  0  0  0  0  0  0  0
  2  5  1  0
  3  1  1  0
  4  2  2  0
  4  6  1  0
  5  1  2  0
  6  3  2  0
  7  5  1  0
  7 17  1  0
  8 17  1  0
  9 14  1  0
 10 11  1  0
 10  9  1  0
 12 11  1  0
 12 21  1  0
 12 13  1  0
 14  8  1  0
 14 13  1  0
 15  8  2  0
 17 16  1  0
 18 19  2  0
 19 38  1  0
 20 19  1  0
 20 23  1  0
 21 22  1  0
 21 18  1  0
 22 20  2  0
 23 24  1  0
 24 25  2  0
 26 29  1  0
 26 25  1  0
 27 26  2  0
 28 27  1  0
 28 23  2  0
 29 30  1  0
 30 31  1  0
 31 32  2  0
 33 32  1  0
 33 37  1  0
 34 33  2  0
 35 30  2  0
 35 34  1  0
 36 35  1  0
 38 39  1  0
 39 42  1  0
 39 41  1  0
 40 38  2  0
 43 44  1  0
 43 18  1  0
 45 43  1  0
 46  6  1  0
 46 47  1  0
 48 49  1  0
 48 47  1  0
 50 61  2  0
 51 49  1  0
 51 56  1  0
 52 60  1  0
 52 62  1  0
 53 59  1  0
 53 55  1  0
 54 60  1  0
 55 54  1  0
 56 55  2  0
 57 58  1  0
 57 51  2  0
 58 53  2  0
 59 52  1  0
 60 50  1  0
 62 64  2  0
 63 62  1  0
 65 63  1  0
 66 75  2  0
 66 71  1  0
 67 63  1  0
 67 71  1  0
 68 67  1  0
 69 70  1  0
 69 68  1  0
 70 66  1  0
 71 72  2  0
 72 73  1  0
 74 73  2  0
 75 74  1  0
 76 50  1  0
 76 81  1  0
 76 77  1  0
 77 80  1  1
 77 78  1  0
 79 77  1  0
 81 84  1  0
 82 86  1  0
 82 81  1  0
 83 82  2  0
 86 85  1  0
 88 86  1  0
 88 89  1  0
 88 87  1  0
M  ISO  4   8 100  17 100  48 101  49 101
M  END
>  <TORSDO>  (79) 
F 20

>  <SCORE>  (79) 
-13.345

>  <name>  (79) 
79

>  <ligand_id>  (79) 
79

>  <original_smiles>  (79) 
[H]c1c([H])c([H])c2c(c1[H])C([H])([H])C([H])([H])C([H])([H])C2([H])N([H])C(=O)C1([H])N(C(=O)C([H])(N([H])C(=O)C([H])(N([H])C([H])([H])[H])C([H])([H])[H])C(C([H])([H])[H])(C([H])([H])[H])C([H])([H])[H])C([H])([H])c2c([H])c(OC([H])([H])C([H])([H])Oc3c([H])c([H])c(C([H])([H])N(C(=O)N4C([H])([H])C([H])([H])C([H])([H])C([H])(n5nc(-c6c([H])c([H])c(Oc7c([H])c([H])c(F)c([H])c7F)c([H])c6[H])c(C(=O)N([H])[H])c5N([H])[H])C4([H])[H])C([H])([H])[H])c([H])c3[H])c([H])c([H])c2C1([H])[H]

>  <smiles>  (79) 
[H]c1c([H])c([H])c2c(c1[H])C([H])([H])C([H])([H])C([H])([H])C2([H])N([H])C(=O)C1([H])N(C(=O)C([H])(N([H])C(=O)C([H])(N([H])C([H])([H])[H])C([H])([H])[H])C(C([H])([H])[H])(C([H])([H])[H])C([H])([H])[H])C([H])([H])c2c([H])c(OC([H])([H])C([H])([H])Oc3c([H])c([H])c(C([H])([H])N(C(=O)N4C([H])([H])C([H])([H])C([H])([H])C([H])(n5nc(-c6c([H])c([H])c(Oc7c([H])c([H])c(F)c([H])c7F)c([H])c6[H])c(C(=O)N([H])[H])c5N([H])[H])C4([H])[H])C([H])([H])[H])c([H])c3[H])c([H])c([H])c2C1([H])[H]

$$$$
80:0:0
     RDKit          3D

 92101  0  0  1  0  0  0  0  0999 V2000
  -30.6170  -14.6060   20.4310 C   0  0  0  0  0  0  0  0  0  0  0  0
  -30.3840  -12.3820   19.3900 C   0  0  0  0  0  2  0  0  0  0  0  0
  -29.4560  -12.5480   18.1660 C   0  0  0  0  0  2  0  0  0  0  0  0
  -27.9730  -12.4500   18.5750 C   0  0  0  0  0  2  0  0  0  0  0  0
  -27.6200  -13.2830   19.8340 C   0  0  0  0  0  3  0  0  0  0  0  0
  -28.6680  -13.1080   20.9560 C   0  0  0  0  0  2  0  0  0  0  0  0
  -29.9850  -13.4000   20.3770 N   0  0  0  0  0  0  0  0  0  0  0  0
  -31.8340  -14.7160   20.2440 O   0  0  0  0  0  0  0  0  0  0  0  0
  -29.1720  -19.4450   20.4730 C   0  0  0  0  0  3  0  0  0  0  0  0
  -29.6710  -18.5950   17.8090 C   0  0  0  0  0  3  0  0  0  0  0  0
  -29.4440  -18.0750   20.1680 C   0  0  0  0  0  0  0  0  0  0  0  0
  -29.6420  -17.6710   18.8640 C   0  0  0  0  0  0  0  0  0  0  0  0
  -29.1220  -20.4070   19.4050 C   0  0  0  0  0  0  0  0  0  0  0  0
  -29.4270  -19.9540   18.0890 C   0  0  0  0  0  0  0  0  0  0  0  0
  -29.5550  -16.8370   21.0650 C   0  0  0  0  0  3  0  0  0  0  0  0
  -29.7980  -16.1790   18.7690 C   0  0  0  0  0  3  0  0  0  0  0  0
  -29.7990  -15.6670   20.1610 N   0  0  0  0  0  0  0  0  0  0  0  0
  -29.4760  -20.8340   17.0580 F   0  0  0  0  0  0  0  0  0  0  0  0
  -25.2250  -13.8990   20.5180 C   0  0  0  0  0  0  0  0  0  0  0  0
  -24.1510  -13.1310   20.8740 C   0  0  0  0  0  0  0  0  0  0  0  0
  -24.6100  -11.7770   20.8660 C   0  0  0  0  0  0  0  0  0  0  0  0
  -26.2680  -13.0120   20.3080 N   0  0  0  0  0  0  0  0  0  0  0  0
  -25.9050  -11.7330   20.5800 N   0  0  0  0  0  0  0  0  0  0  0  0
  -23.8780  -10.5190   21.0560 C   0  0  0  0  0  0  0  0  0  0  0  0
  -24.3040   -9.5570   21.9990 C   0  0  0  0  0  3  0  0  0  0  0  0
  -23.5780   -8.3600   22.1740 C   0  0  0  0  0  3  0  0  0  0  0  0
  -22.4140   -8.1150   21.4080 C   0  0  0  0  0  0  0  0  0  0  0  0
  -22.0060   -9.0680   20.4560 C   0  0  0  0  0  3  0  0  0  0  0  0
  -22.7320  -10.2570   20.2790 C   0  0  0  0  0  3  0  0  0  0  0  0
  -21.6600   -6.9710   21.4910 O   0  0  0  0  0  0  0  0  0  0  0  0
  -21.6070   -6.2270   22.6420 C   0  0  0  0  0  0  0  0  0  0  0  0
  -21.1870   -6.7870   23.8690 C   0  0  0  0  0  3  0  0  0  0  0  0
  -21.0770   -5.9720   25.0140 C   0  0  0  0  0  3  0  0  0  0  0  0
  -21.3760   -4.5990   24.9340 C   0  0  0  0  0  0  0  0  0  0  0  0
  -21.7900   -4.0380   23.7110 C   0  0  0  0  0  3  0  0  0  0  0  0
  -21.9020   -4.8500   22.5690 C   0  0  0  0  0  0  0  0  0  0  0  0
  -22.2800   -4.3020   21.3900 F   0  0  0  0  0  0  0  0  0  0  0  0
  -21.2630   -3.8160   26.0320 F   0  0  0  0  0  0  0  0  0  0  0  0
  -22.7490  -13.6100   21.1160 C   0  0  0  0  0  0  0  0  0  0  0  0
  -22.0090  -12.9230   21.9770 N   0  0  0  0  0  0  0  0  0  0  0  0
  -22.3180  -14.6300   20.5770 O   0  0  0  0  0  0  0  0  0  0  0  0
  -22.3720  -12.0980   22.4330 H   0  0  0  0  0  0  0  0  0  0  0  0
  -21.0670  -13.2210   22.1790 H   0  0  0  0  0  0  0  0  0  0  0  0
  -25.4030  -15.2680   20.3290 N   0  0  0  0  0  0  0  0  0  0  0  0
  -24.6430  -15.9350   20.3980 H   0  0  0  0  0  0  0  0  0  0  0  0
  -26.2650  -15.6870   20.0030 H   0  0  0  0  0  0  0  0  0  0  0  0
  -27.5350  -22.1250   18.7710 C   0  0  0  0  0  1  0  0  0  0  0  0
  -28.7250  -21.7750   19.5490 N   0  0  0  0  0  0  0  0  0  0  0  0
  -29.0790  -22.6100   20.7160 C   0  0  0  0  0  2  0  0  0  0  0  0
  -29.3330  -24.1500   20.4390 C   0  0  0  0  0  3  0  0  0  0  0  0
  -28.1080  -25.1040   20.2340 C   0  0  0  0  0  3  0  0  0  0  0  0
  -28.3600  -26.5490   20.3650 O   0  0  0  0  0  0  0  0  0  0  0  0
  -24.6130  -31.9620   23.2940 C   0  0  0  0  0  0  0  0  0  0  0  0
  -27.2390  -27.3820   20.3120 C   0  0  0  0  0  0  0  0  0  0  0  0
  -23.4260  -30.5450   21.6640 C   0  0  0  0  0  3  0  0  0  0  0  0
  -24.8810  -28.9810   20.2760 C   0  0  0  0  0  0  0  0  0  0  0  0
  -25.9680  -30.8590   21.5010 C   0  0  0  0  0  2  0  0  0  0  0  0
  -26.0470  -29.4750   20.8740 C   0  0  0  0  0  0  0  0  0  0  0  0
  -27.2330  -28.6880   20.8820 C   0  0  0  0  0  3  0  0  0  0  0  0
  -26.0420  -26.9320   19.7000 C   0  0  0  0  0  3  0  0  0  0  0  0
  -24.8780  -27.7130   19.6830 C   0  0  0  0  0  3  0  0  0  0  0  0
  -23.6540  -29.8660   20.2920 C   0  0  0  0  0  2  0  0  0  0  0  0
  -24.6880  -31.1390   22.2100 N   0  0  0  0  0  0  0  0  0  0  0  0
  -23.5230  -32.2470   23.8130 O   0  0  0  0  0  0  0  0  0  0  0  0
  -22.7570  -29.5330   22.6260 C   0  0  0  0  0  0  0  0  0  0  0  0
  -21.4340  -29.3550   22.4870 N   0  0  0  0  0  0  0  0  0  0  0  0
  -23.4290  -28.9150   23.4570 O   0  0  0  0  0  0  0  0  0  0  0  0
  -20.9560  -29.9120   21.7940 H   0  0  0  0  0  0  0  0  0  0  0  0
  -18.0460  -28.1800   22.9700 C   0  0  0  0  0  0  0  0  0  0  0  0
  -20.6020  -28.4310   23.2600 C   0  0  0  0  0  3  0  0  0  0  0  0
  -20.7030  -26.9920   22.7050 C   0  0  0  0  0  2  0  0  0  0  0  0
  -19.6080  -26.6580   21.6860 C   0  0  0  0  0  2  0  0  0  0  0  0
  -18.2210  -26.8210   22.3140 C   0  0  0  0  0  2  0  0  0  0  0  0
  -19.1640  -28.9430   23.3990 C   0  0  0  0  0  0  0  0  0  0  0  0
  -18.9480  -30.2130   23.9720 C   0  0  0  0  0  3  0  0  0  0  0  0
  -17.6440  -30.7240   24.1230 C   0  0  0  0  0  3  0  0  0  0  0  0
  -16.5390  -29.9600   23.7100 C   0  0  0  0  0  3  0  0  0  0  0  0
  -16.7400  -28.6900   23.1400 C   0  0  0  0  0  3  0  0  0  0  0  0
  -25.8900  -32.6070   23.9190 C   0  0  0  0  0  3  0  0  0  0  0  0
  -26.3950  -31.8530   25.2100 C   0  0  1  0  0  0  0  0  0  0  0  0
  -25.2960  -31.6200   26.2730 C   0  0  0  0  0  1  0  0  0  0  0  0
  -26.9920  -30.4750   24.8410 C   0  0  0  0  0  1  0  0  0  0  0  0
  -27.5360  -32.6600   25.8760 C   0  0  0  0  0  1  0  0  0  0  0  0
  -25.5750  -34.0080   24.2300 N   0  0  0  0  0  0  0  0  0  0  0  0
  -25.9000  -35.0530   23.4560 C   0  0  0  0  0  0  0  0  0  0  0  0
  -26.5730  -34.9380   22.4280 O   0  0  0  0  0  0  0  0  0  0  0  0
  -24.9870  -34.1680   25.0360 H   0  0  0  0  0  0  0  0  0  0  0  0
  -24.1650  -36.8340   23.0630 C   0  0  0  0  0  1  0  0  0  0  0  0
  -25.4020  -36.4460   23.8900 C   0  0  0  0  0  3  0  0  0  0  0  0
  -27.5290  -37.3500   24.7200 C   0  0  0  0  0  1  0  0  0  0  0  0
  -26.4300  -37.5030   23.7700 N   0  0  0  0  0  0  0  0  0  0  0  0
  -26.0190  -38.4230   23.9050 H   0  0  0  0  0  0  0  0  0  0  0  0
  2  7  1  0
  3  4  1  0
  3  2  1  0
  5  4  1  0
  5 22  1  0
  5  6  1  0
  7  1  1  0
  7  6  1  0
  8  1  2  0
 10 14  2  0
 10 12  1  0
 11  9  1  0
 11 15  2  0
 12 11  1  0
 13 48  1  0
 13  9  2  0
 14 13  1  0
 16 12  2  0
 16 17  1  0
 17  1  1  0
 17 15  1  0
 18 14  1  0
 19 20  2  0
 20 39  1  0
 21 20  1  0
 21 24  1  0
 22 19  1  0
 22 23  1  0
 23 21  2  0
 24 25  1  0
 25 26  2  0
 27 30  1  0
 27 26  1  0
 28 27  2  0
 29 28  1  0
 29 24  2  0
 30 31  1  0
 31 32  1  0
 32 33  2  0
 34 33  1  0
 34 38  1  0
 35 34  2  0
 36 31  2  0
 36 35  1  0
 37 36  1  0
 39 40  1  0
 40 43  1  0
 40 42  1  0
 41 39  2  0
 44 45  1  0
 44 19  1  0
 46 44  1  0
 47 48  1  0
 48 49  1  0
 50 49  1  0
 51 52  1  0
 51 50  2  0
 53 64  2  0
 54 52  1  0
 54 59  1  0
 55 63  1  0
 55 65  1  0
 56 62  1  0
 56 58  1  0
 57 63  1  0
 58 59  2  0
 58 57  1  0
 60 54  2  0
 61 60  1  0
 61 56  2  0
 62 55  1  0
 63 53  1  0
 65 67  2  0
 66 65  1  0
 68 66  1  0
 69 78  2  0
 69 74  1  0
 70 66  1  0
 70 74  1  0
 71 70  1  0
 72 73  1  0
 72 71  1  0
 73 69  1  0
 74 75  2  0
 75 76  1  0
 77 76  2  0
 78 77  1  0
 79 53  1  0
 79 84  1  0
 79 80  1  0
 80 83  1  1
 80 81  1  0
 82 80  1  0
 84 87  1  0
 85 89  1  0
 85 84  1  0
 86 85  2  0
 89 88  1  0
 91 89  1  0
 91 92  1  0
 91 90  1  0
M  ISO  4   1 100  17 100  51 101  52 101
M  END
>  <TORSDO>  (80) 
F 19

>  <SCORE>  (80) 
-14.328

>  <name>  (80) 
80

>  <ligand_id>  (80) 
80

>  <original_smiles>  (80) 
[H]c1c([H])c([H])c2c(c1[H])C([H])([H])C([H])([H])C([H])([H])C2([H])N([H])C(=O)C1([H])N(C(=O)C([H])(N([H])C(=O)C([H])(N([H])C([H])([H])[H])C([H])([H])[H])C(C([H])([H])[H])(C([H])([H])[H])C([H])([H])[H])C([H])([H])c2c([H])c(OC([H])([H])C([H])([H])C([H])([H])N(c3c([H])c4c(c([H])c3F)C([H])([H])N(C(=O)N3C([H])([H])C([H])([H])C([H])([H])C([H])(n5nc(-c6c([H])c([H])c(Oc7c([H])c([H])c(F)c([H])c7F)c([H])c6[H])c(C(=O)N([H])[H])c5N([H])[H])C3([H])[H])C4([H])[H])C([H])([H])[H])c([H])c([H])c2C1([H])[H]

>  <smiles>  (80) 
[H]c1c([H])c([H])c2c(c1[H])C([H])([H])C([H])([H])C([H])([H])C2([H])N([H])C(=O)C1([H])N(C(=O)C([H])(N([H])C(=O)C([H])(N([H])C([H])([H])[H])C([H])([H])[H])C(C([H])([H])[H])(C([H])([H])[H])C([H])([H])[H])C([H])([H])c2c([H])c(OC([H])([H])C([H])([H])C([H])([H])N(c3c([H])c4c(c([H])c3F)C([H])([H])N(C(=O)N3C([H])([H])C([H])([H])C([H])([H])C([H])(n5nc(-c6c([H])c([H])c(Oc7c([H])c([H])c(F)c([H])c7F)c([H])c6[H])c(C(=O)N([H])[H])c5N([H])[H])C3([H])[H])C4([H])[H])C([H])([H])[H])c([H])c([H])c2C1([H])[H]

$$$$
81:0:0
     RDKit          3D

 91 99  0  0  1  0  0  0  0  0999 V2000
  -28.4570  -19.2550   20.8340 C   0  0  0  0  0  3  0  0  0  0  0  0
  -30.1830  -20.5540   19.1010 C   0  0  0  0  0  3  0  0  0  0  0  0
  -29.3220  -18.4240   20.0590 C   0  0  0  0  0  0  0  0  0  0  0  0
  -29.2920  -21.3880   19.8330 C   0  0  0  0  0  0  0  0  0  0  0  0
  -28.4360  -20.6880   20.7350 C   0  0  0  0  0  0  0  0  0  0  0  0
  -30.2090  -19.1300   19.2020 C   0  0  0  0  0  0  0  0  0  0  0  0
  -27.5570  -21.3810   21.4980 F   0  0  0  0  0  0  0  0  0  0  0  0
  -31.3130  -18.2550   18.2030 Cl  0  0  0  0  0  0  0  0  0  0  0  0
  -29.1620  -16.8390   20.0080 C   0  0  0  0  0  2  0  0  0  0  0  0
  -30.6810  -14.7650   20.1130 C   0  0  0  0  0  0  0  0  0  0  0  0
  -30.3610  -12.5490   19.0140 C   0  0  0  0  0  2  0  0  0  0  0  0
  -29.3750  -12.6830   17.8350 C   0  0  0  0  0  2  0  0  0  0  0  0
  -27.9260  -12.5120   18.3270 C   0  0  0  0  0  2  0  0  0  0  0  0
  -27.6170  -13.3670   19.5860 C   0  0  0  0  0  3  0  0  0  0  0  0
  -28.7210  -13.2360   20.6580 C   0  0  0  0  0  2  0  0  0  0  0  0
  -29.9980  -13.5760   20.0180 N   0  0  0  0  0  0  0  0  0  0  0  0
  -31.8260  -14.8510   19.6600 O   0  0  0  0  0  0  0  0  0  0  0  0
  -30.8290  -16.5040   21.7980 C   0  0  0  0  0  1  0  0  0  0  0  0
  -30.0890  -15.8670   20.7080 N   0  0  0  0  0  0  0  0  0  0  0  0
  -25.2580  -13.9460   20.4100 C   0  0  0  0  0  0  0  0  0  0  0  0
  -24.2110  -13.1670   20.8150 C   0  0  0  0  0  0  0  0  0  0  0  0
  -24.6750  -11.8170   20.7550 C   0  0  0  0  0  0  0  0  0  0  0  0
  -26.2940  -13.0720   20.1270 N   0  0  0  0  0  0  0  0  0  0  0  0
  -25.9530  -11.7860   20.3960 N   0  0  0  0  0  0  0  0  0  0  0  0
  -23.9590  -10.5510   20.9610 C   0  0  0  0  0  0  0  0  0  0  0  0
  -24.4150   -9.5870   21.8870 C   0  0  0  0  0  3  0  0  0  0  0  0
  -23.6970   -8.3860   22.0820 C   0  0  0  0  0  3  0  0  0  0  0  0
  -22.5110   -8.1420   21.3500 C   0  0  0  0  0  0  0  0  0  0  0  0
  -22.0730   -9.0960   20.4140 C   0  0  0  0  0  3  0  0  0  0  0  0
  -22.7910  -10.2870   20.2170 C   0  0  0  0  0  3  0  0  0  0  0  0
  -21.7620   -6.9950   21.4560 O   0  0  0  0  0  0  0  0  0  0  0  0
  -21.7290   -6.2610   22.6140 C   0  0  0  0  0  0  0  0  0  0  0  0
  -21.2910   -6.8170   23.8360 C   0  0  0  0  0  3  0  0  0  0  0  0
  -21.2070   -6.0080   24.9880 C   0  0  0  0  0  3  0  0  0  0  0  0
  -21.5500   -4.6450   24.9170 C   0  0  0  0  0  0  0  0  0  0  0  0
  -21.9810   -4.0880   23.7010 C   0  0  0  0  0  3  0  0  0  0  0  0
  -22.0670   -4.8930   22.5510 C   0  0  0  0  0  0  0  0  0  0  0  0
  -22.4620   -4.3470   21.3760 F   0  0  0  0  0  0  0  0  0  0  0  0
  -21.4620   -3.8650   26.0210 F   0  0  0  0  0  0  0  0  0  0  0  0
  -22.8240  -13.6380   21.1440 C   0  0  0  0  0  0  0  0  0  0  0  0
  -22.1290  -12.9310   22.0270 N   0  0  0  0  0  0  0  0  0  0  0  0
  -22.3660  -14.6700   20.6520 O   0  0  0  0  0  0  0  0  0  0  0  0
  -22.5120  -12.0970   22.4470 H   0  0  0  0  0  0  0  0  0  0  0  0
  -21.2000  -13.2280   22.2900 H   0  0  0  0  0  0  0  0  0  0  0  0
  -25.4080  -15.3190   20.2350 N   0  0  0  0  0  0  0  0  0  0  0  0
  -24.6380  -15.9640   20.3750 H   0  0  0  0  0  0  0  0  0  0  0  0
  -26.2290  -15.7620   19.8450 H   0  0  0  0  0  0  0  0  0  0  0  0
  -29.3410  -22.7830   19.5610 O   0  0  0  0  0  0  0  0  0  0  0  0
  -28.5710  -23.8580   20.2180 C   0  0  0  0  0  2  0  0  0  0  0  0
  -28.6360  -25.2590   19.4260 C   0  0  0  0  0  2  0  0  0  0  0  0
  -28.5090  -26.5930   20.0740 O   0  0  0  0  0  0  0  0  0  0  0  0
  -24.6560  -31.8470   23.1660 C   0  0  0  0  0  0  0  0  0  0  0  0
  -27.3530  -27.3910   20.0160 C   0  0  0  0  0  0  0  0  0  0  0  0
  -23.4770  -30.4620   21.4950 C   0  0  0  0  0  3  0  0  0  0  0  0
  -24.9560  -28.9630   20.0370 C   0  0  0  0  0  0  0  0  0  0  0  0
  -26.0100  -30.8270   21.3200 C   0  0  0  0  0  2  0  0  0  0  0  0
  -26.1130  -29.4620   20.6450 C   0  0  0  0  0  0  0  0  0  0  0  0
  -27.3100  -28.6860   20.6260 C   0  0  0  0  0  3  0  0  0  0  0  0
  -26.1660  -26.9400   19.3960 C   0  0  0  0  0  3  0  0  0  0  0  0
  -24.9850  -27.7090   19.4050 C   0  0  0  0  0  3  0  0  0  0  0  0
  -23.7030  -29.8150   20.1020 C   0  0  0  0  0  2  0  0  0  0  0  0
  -24.7340  -31.0620   22.0510 N   0  0  0  0  0  0  0  0  0  0  0  0
  -23.5670  -32.0930   23.7050 O   0  0  0  0  0  0  0  0  0  0  0  0
  -22.8310  -29.4150   22.4340 C   0  0  0  0  0  0  0  0  0  0  0  0
  -21.5110  -29.2090   22.2910 N   0  0  0  0  0  0  0  0  0  0  0  0
  -23.5180  -28.7930   23.2490 O   0  0  0  0  0  0  0  0  0  0  0  0
  -21.0160  -29.7650   21.6080 H   0  0  0  0  0  0  0  0  0  0  0  0
  -18.1600  -27.9200   22.7360 C   0  0  0  0  0  0  0  0  0  0  0  0
  -20.7080  -28.2390   23.0390 C   0  0  0  0  0  3  0  0  0  0  0  0
  -20.8520  -26.8190   22.4420 C   0  0  0  0  0  2  0  0  0  0  0  0
  -19.7700  -26.4850   21.4110 C   0  0  0  0  0  2  0  0  0  0  0  0
  -18.3780  -26.5860   22.0420 C   0  0  0  0  0  2  0  0  0  0  0  0
  -19.2550  -28.7030   23.1900 C   0  0  0  0  0  0  0  0  0  0  0  0
  -18.9980  -29.9510   23.7980 C   0  0  0  0  0  3  0  0  0  0  0  0
  -17.6800  -30.4180   23.9570 C   0  0  0  0  0  3  0  0  0  0  0  0
  -16.5990  -29.6310   23.5200 C   0  0  0  0  0  3  0  0  0  0  0  0
  -16.8400  -28.3850   22.9150 C   0  0  0  0  0  3  0  0  0  0  0  0
  -25.9260  -32.4880   23.8040 C   0  0  0  0  0  3  0  0  0  0  0  0
  -26.4380  -31.7140   25.0800 C   0  0  1  0  0  0  0  0  0  0  0  0
  -25.3380  -31.4580   26.1370 C   0  0  0  0  0  1  0  0  0  0  0  0
  -27.0400  -30.3450   24.6850 C   0  0  0  0  0  1  0  0  0  0  0  0
  -27.5750  -32.5150   25.7580 C   0  0  0  0  0  1  0  0  0  0  0  0
  -25.5990  -33.8810   24.1430 N   0  0  0  0  0  0  0  0  0  0  0  0
  -25.9260  -34.9440   23.3960 C   0  0  0  0  0  0  0  0  0  0  0  0
  -26.6050  -34.8570   22.3690 O   0  0  0  0  0  0  0  0  0  0  0  0
  -24.9980  -34.0230   24.9410 H   0  0  0  0  0  0  0  0  0  0  0  0
  -24.1860  -36.7260   23.0400 C   0  0  0  0  0  1  0  0  0  0  0  0
  -25.4210  -36.3240   23.8620 C   0  0  0  0  0  3  0  0  0  0  0  0
  -27.5340  -37.2230   24.7320 C   0  0  0  0  0  1  0  0  0  0  0  0
  -26.4450  -37.3870   23.7730 N   0  0  0  0  0  0  0  0  0  0  0  0
  -26.0280  -38.3020   23.9200 H   0  0  0  0  0  0  0  0  0  0  0  0
  2  6  2  0
  2  4  1  0
  3  1  2  0
  4  5  2  0
  5  1  1  0
  5  7  1  0
  6  3  1  0
  8  6  1  0
  9  3  1  0
  9 19  1  0
 10 19  1  0
 11 16  1  0
 12 13  1  0
 12 11  1  0
 14 13  1  0
 14 23  1  0
 14 15  1  0
 16 10  1  0
 16 15  1  0
 17 10  2  0
 19 18  1  0
 20 21  2  0
 21 40  1  0
 22 21  1  0
 22 25  1  0
 23 24  1  0
 23 20  1  0
 24 22  2  0
 25 26  1  0
 26 27  2  0
 28 31  1  0
 28 27  1  0
 29 28  2  0
 30 29  1  0
 30 25  2  0
 31 32  1  0
 32 33  1  0
 33 34  2  0
 35 34  1  0
 35 39  1  0
 36 35  2  0
 37 32  2  0
 37 36  1  0
 38 37  1  0
 40 41  1  0
 41 44  1  0
 41 43  1  0
 42 40  2  0
 45 46  1  0
 45 20  1  0
 47 45  1  0
 48  4  1  0
 48 49  1  0
 50 51  1  0
 50 49  1  0
 52 63  2  0
 53 51  1  0
 53 58  1  0
 54 62  1  0
 54 64  1  0
 55 61  1  0
 55 57  1  0
 56 62  1  0
 57 56  1  0
 58 57  2  0
 59 60  1  0
 59 53  2  0
 60 55  2  0
 61 54  1  0
 62 52  1  0
 64 66  2  0
 65 64  1  0
 67 65  1  0
 68 77  2  0
 68 73  1  0
 69 65  1  0
 69 73  1  0
 70 69  1  0
 71 72  1  0
 71 70  1  0
 72 68  1  0
 73 74  2  0
 74 75  1  0
 76 75  2  0
 77 76  1  0
 78 52  1  0
 78 83  1  0
 78 79  1  0
 79 82  1  1
 79 80  1  0
 81 79  1  0
 83 86  1  0
 84 88  1  0
 84 83  1  0
 85 84  2  0
 88 87  1  0
 90 88  1  0
 90 91  1  0
 90 89  1  0
M  ISO  4  10 100  19 100  50 101  51 101
M  END
>  <TORSDO>  (81) 
F 20

>  <SCORE>  (81) 
-13.725

>  <name>  (81) 
81

>  <ligand_id>  (81) 
81

>  <original_smiles>  (81) 
[H]c1c([H])c([H])c2c(c1[H])C([H])([H])C([H])([H])C([H])([H])C2([H])N([H])C(=O)C1([H])N(C(=O)C([H])(N([H])C(=O)C([H])(N([H])C([H])([H])[H])C([H])([H])[H])C(C([H])([H])[H])(C([H])([H])[H])C([H])([H])[H])C([H])([H])c2c([H])c(OC([H])([H])C([H])([H])Oc3c([H])c(Cl)c(C([H])([H])N(C(=O)N4C([H])([H])C([H])([H])C([H])([H])C([H])(n5nc(-c6c([H])c([H])c(Oc7c([H])c([H])c(F)c([H])c7F)c([H])c6[H])c(C(=O)N([H])[H])c5N([H])[H])C4([H])[H])C([H])([H])[H])c([H])c3F)c([H])c([H])c2C1([H])[H]

>  <smiles>  (81) 
[H]c1c([H])c([H])c2c(c1[H])C([H])([H])C([H])([H])C([H])([H])C2([H])N([H])C(=O)C1([H])N(C(=O)C([H])(N([H])C(=O)C([H])(N([H])C([H])([H])[H])C([H])([H])[H])C(C([H])([H])[H])(C([H])([H])[H])C([H])([H])[H])C([H])([H])c2c([H])c(OC([H])([H])C([H])([H])Oc3c([H])c(Cl)c(C([H])([H])N(C(=O)N4C([H])([H])C([H])([H])C([H])([H])C([H])(n5nc(-c6c([H])c([H])c(Oc7c([H])c([H])c(F)c([H])c7F)c([H])c6[H])c(C(=O)N([H])[H])c5N([H])[H])C4([H])[H])C([H])([H])[H])c([H])c3F)c([H])c([H])c2C1([H])[H]

$$$$
82:0:0
     RDKit          3D

 93101  0  0  1  0  0  0  0  0999 V2000
  -29.1780  -17.8930   20.6190 C   0  0  0  0  0  3  0  0  0  0  0  0
  -30.6520  -17.8520   18.7380 C   0  0  0  0  0  3  0  0  0  0  0  0
  -28.9500  -19.3040   20.4270 C   0  0  0  0  0  3  0  0  0  0  0  0
  -30.4100  -19.2440   18.5340 C   0  0  0  0  0  3  0  0  0  0  0  0
  -30.0550  -17.1180   19.8000 C   0  0  0  0  0  0  0  0  0  0  0  0
  -29.5730  -20.0300   19.3720 C   0  0  0  0  0  0  0  0  0  0  0  0
  -30.6230  -14.7450   19.1040 C   0  0  0  0  0  0  0  0  0  0  0  0
  -30.1590  -12.5140   18.0800 C   0  0  0  0  0  2  0  0  0  0  0  0
  -28.9880  -12.6120   17.0820 C   0  0  0  0  0  2  0  0  0  0  0  0
  -27.6550  -12.3870   17.8170 C   0  0  0  0  0  2  0  0  0  0  0  0
  -27.5350  -13.2450   19.1070 C   0  0  0  0  0  3  0  0  0  0  0  0
  -28.8120  -13.1660   19.9760 C   0  0  0  0  0  2  0  0  0  0  0  0
  -29.9620  -13.5340   19.1410 N   0  0  0  0  0  0  0  0  0  0  0  0
  -31.4960  -14.9290   18.2500 O   0  0  0  0  0  0  0  0  0  0  0  0
  -30.4190  -15.7010   20.0900 N   0  0  0  0  0  0  0  0  0  0  0  0
  -25.3850  -13.7340   20.4220 C   0  0  0  0  0  0  0  0  0  0  0  0
  -24.4330  -12.9140   20.9650 C   0  0  0  0  0  0  0  0  0  0  0  0
  -24.8540  -11.5780   20.6870 C   0  0  0  0  0  0  0  0  0  0  0  0
  -26.3370  -12.8940   19.8670 N   0  0  0  0  0  0  0  0  0  0  0  0
  -26.0360  -11.5850   20.0820 N   0  0  0  0  0  0  0  0  0  0  0  0
  -24.1740  -10.2950   20.9200 C   0  0  0  0  0  0  0  0  0  0  0  0
  -24.6700   -9.3500   21.8480 C   0  0  0  0  0  3  0  0  0  0  0  0
  -23.9870   -8.1360   22.0660 C   0  0  0  0  0  3  0  0  0  0  0  0
  -22.7900   -7.8560   21.3650 C   0  0  0  0  0  0  0  0  0  0  0  0
  -22.3130   -8.7870   20.4250 C   0  0  0  0  0  3  0  0  0  0  0  0
  -22.9980   -9.9930   20.2010 C   0  0  0  0  0  3  0  0  0  0  0  0
  -22.0710   -6.6920   21.4990 O   0  0  0  0  0  0  0  0  0  0  0  0
  -21.8930   -6.0910   22.7190 C   0  0  0  0  0  0  0  0  0  0  0  0
  -21.2510   -6.7520   23.7880 C   0  0  0  0  0  3  0  0  0  0  0  0
  -21.0290   -6.0740   25.0040 C   0  0  0  0  0  3  0  0  0  0  0  0
  -21.4350   -4.7330   25.1440 C   0  0  0  0  0  0  0  0  0  0  0  0
  -22.0690   -4.0720   24.0780 C   0  0  0  0  0  3  0  0  0  0  0  0
  -22.2930   -4.7470   22.8670 C   0  0  0  0  0  0  0  0  0  0  0  0
  -22.8840   -4.0980   21.8340 F   0  0  0  0  0  0  0  0  0  0  0  0
  -21.2150   -4.0780   26.3080 F   0  0  0  0  0  0  0  0  0  0  0  0
  -23.1470  -13.3430   21.6070 C   0  0  0  0  0  0  0  0  0  0  0  0
  -22.6590  -12.5820   22.5810 N   0  0  0  0  0  0  0  0  0  0  0  0
  -22.5920  -14.3920   21.2810 O   0  0  0  0  0  0  0  0  0  0  0  0
  -23.1200  -11.7270   22.8640 H   0  0  0  0  0  0  0  0  0  0  0  0
  -21.8040  -12.8530   23.0470 H   0  0  0  0  0  0  0  0  0  0  0  0
  -25.5170  -15.1190   20.3310 N   0  0  0  0  0  0  0  0  0  0  0  0
  -24.8080  -15.7620   20.6600 H   0  0  0  0  0  0  0  0  0  0  0  0
  -26.2640  -15.5810   19.8260 H   0  0  0  0  0  0  0  0  0  0  0  0
  -32.8200  -15.4440   20.8330 C   0  0  0  0  0  1  0  0  0  0  0  0
  -31.3270  -15.4710   21.2540 C   0  0  0  0  0  3  0  0  0  0  0  0
  -31.6850  -15.7800   23.7620 C   0  0  0  0  0  1  0  0  0  0  0  0
  -31.6020  -17.8170   22.3380 C   0  0  0  0  0  1  0  0  0  0  0  0
  -31.0620  -16.3800   22.4900 C   0  0  0  0  0  3  0  0  0  0  0  0
  -29.4700  -21.4120   19.0690 O   0  0  0  0  0  0  0  0  0  0  0  0
  -28.6010  -22.3860   19.7410 C   0  0  0  0  0  2  0  0  0  0  0  0
  -28.8470  -23.9250   19.3050 C   0  0  0  0  0  3  0  0  0  0  0  0
  -27.8200  -25.0640   19.7700 C   0  0  0  0  0  3  0  0  0  0  0  0
  -28.0670  -26.5080   19.4520 O   0  0  0  0  0  0  0  0  0  0  0  0
  -24.6530  -31.7540   23.0590 C   0  0  0  0  0  0  0  0  0  0  0  0
  -26.9780  -27.3970   19.5250 C   0  0  0  0  0  0  0  0  0  0  0  0
  -23.3180  -30.4960   21.4090 C   0  0  0  0  0  3  0  0  0  0  0  0
  -24.6450  -29.0460   19.7690 C   0  0  0  0  0  0  0  0  0  0  0  0
  -25.8470  -30.7980   21.0770 C   0  0  0  0  0  2  0  0  0  0  0  0
  -25.8600  -29.4720   20.3240 C   0  0  0  0  0  0  0  0  0  0  0  0
  -27.0310  -28.6660   20.1860 C   0  0  0  0  0  3  0  0  0  0  0  0
  -25.7500  -27.0450   18.9210 C   0  0  0  0  0  3  0  0  0  0  0  0
  -24.5960  -27.8420   19.0440 C   0  0  0  0  0  3  0  0  0  0  0  0
  -23.4230  -29.9230   19.9710 C   0  0  0  0  0  2  0  0  0  0  0  0
  -24.6290  -31.0280   21.9040 N   0  0  0  0  0  0  0  0  0  0  0  0
  -23.6130  -32.0040   23.6830 O   0  0  0  0  0  0  0  0  0  0  0  0
  -22.7080  -29.4190   22.3350 C   0  0  0  0  0  0  0  0  0  0  0  0
  -21.3780  -29.2390   22.2560 N   0  0  0  0  0  0  0  0  0  0  0  0
  -23.4250  -28.7530   23.0860 O   0  0  0  0  0  0  0  0  0  0  0  0
  -20.8590  -29.8240   21.6160 H   0  0  0  0  0  0  0  0  0  0  0  0
  -18.0360  -27.9650   22.7900 C   0  0  0  0  0  0  0  0  0  0  0  0
  -20.5980  -28.2500   23.0020 C   0  0  0  0  0  3  0  0  0  0  0  0
  -20.7060  -26.8510   22.3490 C   0  0  0  0  0  2  0  0  0  0  0  0
  -19.5780  -26.5630   21.3530 C   0  0  0  0  0  2  0  0  0  0  0  0
  -18.2140  -26.6560   22.0420 C   0  0  0  0  0  2  0  0  0  0  0  0
  -19.1550  -28.7220   23.2270 C   0  0  0  0  0  0  0  0  0  0  0  0
  -18.9340  -29.9540   23.8820 C   0  0  0  0  0  3  0  0  0  0  0  0
  -17.6250  -30.4210   24.1130 C   0  0  0  0  0  3  0  0  0  0  0  0
  -16.5220  -29.6580   23.6920 C   0  0  0  0  0  3  0  0  0  0  0  0
  -16.7290  -28.4330   23.0340 C   0  0  0  0  0  3  0  0  0  0  0  0
  -25.9870  -32.3200   23.6380 C   0  0  0  0  0  3  0  0  0  0  0  0
  -25.7230  -33.6900   24.0990 N   0  0  0  0  0  0  0  0  0  0  0  0
  -26.0400  -34.7980   23.4120 C   0  0  0  0  0  0  0  0  0  0  0  0
  -26.6580  -34.7730   22.3440 O   0  0  0  0  0  0  0  0  0  0  0  0
  -25.1650  -33.7890   24.9350 H   0  0  0  0  0  0  0  0  0  0  0  0
  -24.3310  -36.6380   23.3110 C   0  0  0  0  0  1  0  0  0  0  0  0
  -25.6080  -36.1500   24.0120 C   0  0  0  0  0  3  0  0  0  0  0  0
  -27.8050  -36.9280   24.7850 C   0  0  0  0  0  1  0  0  0  0  0  0
  -26.6550  -37.1920   23.9220 N   0  0  0  0  0  0  0  0  0  0  0  0
  -26.2760  -38.1040   24.1650 H   0  0  0  0  0  0  0  0  0  0  0  0
  -26.5720  -31.4410   24.8100 C   0  0  1  0  0  0  0  0  0  0  0  0
  -25.5410  -31.1000   25.9120 C   0  0  0  0  0  1  0  0  0  0  0  0
  -27.1310  -30.1080   24.2670 C   0  0  0  0  0  1  0  0  0  0  0  0
  -27.7600  -32.1780   25.4670 C   0  0  0  0  0  1  0  0  0  0  0  0
  2  5  1  0
  3  1  1  0
  4  2  2  0
  4  6  1  0
  5 15  1  0
  5  1  2  0
  6  3  2  0
  7 13  1  0
  7 15  1  0
  8 13  1  0
  9 10  1  0
  9  8  1  0
 11 10  1  0
 11 19  1  0
 11 12  1  0
 13 12  1  0
 14  7  2  0
 15 45  1  0
 16 17  2  0
 17 36  1  0
 18 21  1  0
 18 17  1  0
 19 20  1  0
 19 16  1  0
 20 18  2  0
 21 22  1  0
 22 23  2  0
 24 27  1  0
 24 23  1  0
 25 24  2  0
 26 25  1  0
 26 21  2  0
 27 28  1  0
 28 33  2  0
 28 29  1  0
 29 30  2  0
 30 31  1  0
 31 35  1  0
 32 31  2  0
 33 32  1  0
 34 33  1  0
 36 37  1  0
 37 39  1  0
 37 40  1  0
 38 36  2  0
 41 16  1  0
 41 42  1  0
 43 41  1  0
 45 44  1  0
 45 48  1  0
 47 48  1  0
 48 46  1  0
 49  6  1  0
 49 50  1  0
 51 50  1  0
 51 52  2  0
 53 55  1  0
 53 52  1  0
 54 65  2  0
 55 60  1  0
 56 64  1  0
 56 66  1  0
 57 63  1  0
 57 59  1  0
 58 64  1  0
 59 58  1  0
 60 59  2  0
 61 62  1  0
 61 55  2  0
 62 57  2  0
 63 56  1  0
 64 54  1  0
 66 68  2  0
 67 66  1  0
 69 67  1  0
 70 79  2  0
 70 75  1  0
 71 67  1  0
 71 75  1  0
 72 71  1  0
 73 74  1  0
 73 72  1  0
 74 70  1  0
 75 76  2  0
 76 77  1  0
 78 77  2  0
 79 78  1  0
 80 54  1  0
 80 81  1  0
 80 90  1  0
 81 84  1  0
 82 86  1  0
 82 81  1  0
 83 82  2  0
 86 85  1  0
 88 86  1  0
 88 89  1  0
 88 87  1  0
 90 93  1  1
 90 91  1  0
 92 90  1  0
M  ISO  4   7 100  15 100  52 101  53 101
M  END
>  <TORSDO>  (82) 
F 22

>  <SCORE>  (82) 
-6.485

>  <name>  (82) 
82

>  <ligand_id>  (82) 
82

>  <original_smiles>  (82) 
[H]c1c([H])c([H])c2c(c1[H])C([H])([H])C([H])([H])C([H])([H])C2([H])N([H])C(=O)C1([H])N(C(=O)C([H])(N([H])C(=O)C([H])(N([H])C([H])([H])[H])C([H])([H])[H])C(C([H])([H])[H])(C([H])([H])[H])C([H])([H])[H])C([H])([H])c2c([H])c(OC([H])([H])C([H])([H])C([H])([H])Oc3c([H])c([H])c(N(C(=O)N4C([H])([H])C([H])([H])C([H])([H])C([H])(n5nc(-c6c([H])c([H])c(Oc7c([H])c([H])c(F)c([H])c7F)c([H])c6[H])c(C(=O)N([H])[H])c5N([H])[H])C4([H])[H])C([H])(C([H])([H])[H])C([H])(C([H])([H])[H])C([H])([H])[H])c([H])c3[H])c([H])c([H])c2C1([H])[H]

>  <smiles>  (82) 
[H]c1c([H])c([H])c2c(c1[H])C([H])([H])C([H])([H])C([H])([H])C2([H])N([H])C(=O)C1([H])N(C(=O)C([H])(N([H])C(=O)C([H])(N([H])C([H])([H])[H])C([H])([H])[H])C(C([H])([H])[H])(C([H])([H])[H])C([H])([H])[H])C([H])([H])c2c([H])c(OC([H])([H])C([H])([H])C([H])([H])Oc3c([H])c([H])c(N(C(=O)N4C([H])([H])C([H])([H])C([H])([H])C([H])(n5nc(-c6c([H])c([H])c(Oc7c([H])c([H])c(F)c([H])c7F)c([H])c6[H])c(C(=O)N([H])[H])c5N([H])[H])C4([H])[H])C([H])(C([H])([H])[H])C([H])(C([H])([H])[H])C([H])([H])[H])c([H])c3[H])c([H])c([H])c2C1([H])[H]

$$$$
83:0:0
     RDKit          3D

105114  0  0  1  0  0  0  0  0999 V2000
  -29.1560  -19.0070   19.8800 C   0  0  0  0  0  2  0  0  0  0  0  0
  -30.0550  -13.5500   18.2880 C   0  0  0  0  0  0  0  0  0  0  0  0
  -28.9160  -11.7440   17.0540 C   0  0  0  0  0  2  0  0  0  0  0  0
  -27.5910  -12.2890   16.4810 C   0  0  0  0  0  2  0  0  0  0  0  0
  -26.4590  -12.1300   17.5130 C   0  0  0  0  0  2  0  0  0  0  0  0
  -26.8500  -12.6300   18.9320 C   0  0  0  0  0  3  0  0  0  0  0  0
  -28.2500  -12.1290   19.3550 C   0  0  0  0  0  2  0  0  0  0  0  0
  -29.1950  -12.4920   18.2910 N   0  0  0  0  0  0  0  0  0  0  0  0
  -30.9420  -13.6710   17.4390 O   0  0  0  0  0  0  0  0  0  0  0  0
  -29.0940  -15.7290   18.0650 C   0  0  0  0  0  2  0  0  0  0  0  0
  -28.3360  -16.8600   18.8010 C   0  0  0  0  0  2  0  0  0  0  0  0
  -30.3380  -16.7660   20.3020 C   0  0  0  0  0  2  0  0  0  0  0  0
  -30.2940  -15.2000   20.1750 C   0  0  0  0  0  3  0  0  0  0  0  0
  -29.6330  -14.6720   18.9440 N   0  0  0  0  0  0  0  0  0  0  0  0
  -29.1000  -17.4940   19.9100 N   0  0  1  0  0  4  0  0  0  0  0  0
  -28.4790  -17.3300   20.6940 H   0  0  0  0  0  0  0  0  0  0  0  0
  -32.8480  -15.4520   20.1900 C   0  0  0  0  0  3  0  0  0  0  0  0
  -34.1240  -15.0300   20.6050 C   0  0  0  0  0  3  0  0  0  0  0  0
  -31.8750  -13.4230   21.1010 C   0  0  0  0  0  3  0  0  0  0  0  0
  -31.7030  -14.6700   20.4680 C   0  0  0  0  0  0  0  0  0  0  0  0
  -34.2930  -13.8130   21.2930 C   0  0  0  0  0  0  0  0  0  0  0  0
  -33.1550  -12.9880   21.5000 C   0  0  0  0  0  0  0  0  0  0  0  0
  -33.2560  -11.7690   22.0830 F   0  0  0  0  0  0  0  0  0  0  0  0
  -35.7510  -12.4420   22.6240 C   0  0  0  0  0  1  0  0  0  0  0  0
  -35.5730  -13.5210   21.7150 O   0  0  0  0  0  0  0  0  0  0  0  0
  -25.1250  -13.1190   20.7710 C   0  0  0  0  0  0  0  0  0  0  0  0
  -24.2380  -12.3130   21.4350 C   0  0  0  0  0  0  0  0  0  0  0  0
  -24.4560  -10.9920   20.9380 C   0  0  0  0  0  0  0  0  0  0  0  0
  -25.8310  -12.2850   19.9210 N   0  0  0  0  0  0  0  0  0  0  0  0
  -25.4610  -10.9870   20.0700 N   0  0  0  0  0  0  0  0  0  0  0  0
  -23.7270   -9.7420   21.1950 C   0  0  0  0  0  0  0  0  0  0  0  0
  -24.3210   -8.6730   21.9010 C   0  0  0  0  0  3  0  0  0  0  0  0
  -23.5930   -7.4920   22.1560 C   0  0  0  0  0  3  0  0  0  0  0  0
  -22.2550   -7.3720   21.7070 C   0  0  0  0  0  0  0  0  0  0  0  0
  -21.6760   -8.4300   20.9850 C   0  0  0  0  0  3  0  0  0  0  0  0
  -22.4040   -9.6030   20.7280 C   0  0  0  0  0  3  0  0  0  0  0  0
  -21.4790   -6.2520   21.8840 O   0  0  0  0  0  0  0  0  0  0  0  0
  -21.5470   -5.5010   23.0320 C   0  0  0  0  0  0  0  0  0  0  0  0
  -21.1470   -6.0190   24.2830 C   0  0  0  0  0  3  0  0  0  0  0  0
  -21.1700   -5.1930   25.4260 C   0  0  0  0  0  3  0  0  0  0  0  0
  -21.5790   -3.8510   25.3160 C   0  0  0  0  0  0  0  0  0  0  0  0
  -21.9720   -3.3320   24.0690 C   0  0  0  0  0  3  0  0  0  0  0  0
  -21.9530   -4.1560   22.9290 C   0  0  0  0  0  0  0  0  0  0  0  0
  -22.3120   -3.6450   21.7270 F   0  0  0  0  0  0  0  0  0  0  0  0
  -21.5920   -3.0560   26.4130 F   0  0  0  0  0  0  0  0  0  0  0  0
  -23.1780  -12.7600   22.4000 C   0  0  0  0  0  0  0  0  0  0  0  0
  -22.8160  -11.9040   23.3510 N   0  0  0  0  0  0  0  0  0  0  0  0
  -22.6960  -13.8890   22.3420 O   0  0  0  0  0  0  0  0  0  0  0  0
  -23.2330  -10.9880   23.4140 H   0  0  0  0  0  0  0  0  0  0  0  0
  -22.1120  -12.1720   24.0240 H   0  0  0  0  0  0  0  0  0  0  0  0
  -25.3750  -14.4860   20.8050 N   0  0  0  0  0  0  0  0  0  0  0  0
  -24.8240  -15.1160   21.3790 H   0  0  0  0  0  0  0  0  0  0  0  0
  -26.0300  -14.9640   20.2030 H   0  0  0  0  0  0  0  0  0  0  0  0
  -30.5450  -19.7270   19.6950 C   0  0  0  0  0  3  0  0  0  0  0  0
  -29.7470  -21.6860   18.1190 C   0  0  0  0  0  1  0  0  0  0  0  0
  -30.4190  -21.2810   19.4510 C   0  0  0  0  0  3  0  0  0  0  0  0
  -29.7790  -21.9740   20.5350 O   0  0  0  0  0  0  0  0  0  0  0  0
  -30.0350  -23.3980   20.6240 C   0  0  0  0  0  2  0  0  0  0  0  0
  -28.7930  -24.2590   20.2740 C   0  0  0  0  0  2  0  0  0  0  0  0
  -28.9960  -25.6810   20.4380 O   0  0  0  0  0  0  0  0  0  0  0  0
  -25.3750  -31.1610   23.2160 C   0  0  0  0  0  0  0  0  0  0  0  0
  -27.8860  -26.5080   20.3230 C   0  0  0  0  0  0  0  0  0  0  0  0
  -24.1810  -29.8500   21.4900 C   0  0  0  0  0  3  0  0  0  0  0  0
  -25.6120  -28.2030   20.1680 C   0  0  0  0  0  0  0  0  0  0  0  0
  -26.7340  -30.0180   21.4640 C   0  0  0  0  0  2  0  0  0  0  0  0
  -26.7640  -28.6390   20.8320 C   0  0  0  0  0  0  0  0  0  0  0  0
  -27.9050  -27.8010   20.9050 C   0  0  0  0  0  3  0  0  0  0  0  0
  -26.7160  -26.1000   19.6420 C   0  0  0  0  0  3  0  0  0  0  0  0
  -25.5870  -26.9340   19.5690 C   0  0  0  0  0  3  0  0  0  0  0  0
  -24.4320  -29.1460   20.1300 C   0  0  0  0  0  2  0  0  0  0  0  0
  -25.4450  -30.3560   22.1170 N   0  0  0  0  0  0  0  0  0  0  0  0
  -24.2830  -31.5130   23.6830 O   0  0  0  0  0  0  0  0  0  0  0  0
  -23.3860  -28.8870   22.4020 C   0  0  0  0  0  0  0  0  0  0  0  0
  -22.0540  -28.8500   22.2250 N   0  0  0  0  0  0  0  0  0  0  0  0
  -23.9680  -28.1720   23.2210 O   0  0  0  0  0  0  0  0  0  0  0  0
  -21.6480  -29.4720   21.5380 H   0  0  0  0  0  0  0  0  0  0  0  0
  -18.5520  -28.0840   22.6560 C   0  0  0  0  0  0  0  0  0  0  0  0
  -21.1200  -27.9880   22.9450 C   0  0  0  0  0  3  0  0  0  0  0  0
  -21.0370  -26.5880   22.2930 C   0  0  0  0  0  2  0  0  0  0  0  0
  -19.9120  -26.4670   21.2610 C   0  0  0  0  0  2  0  0  0  0  0  0
  -18.5550  -26.7610   21.9100 C   0  0  0  0  0  2  0  0  0  0  0  0
  -19.7580  -28.6670   23.1290 C   0  0  0  0  0  0  0  0  0  0  0  0
  -19.7030  -29.9140   23.7880 C   0  0  0  0  0  3  0  0  0  0  0  0
  -18.4760  -30.5770   23.9760 C   0  0  0  0  0  3  0  0  0  0  0  0
  -17.2840  -29.9890   23.5200 C   0  0  0  0  0  3  0  0  0  0  0  0
  -17.3240  -28.7440   22.8680 C   0  0  0  0  0  3  0  0  0  0  0  0
  -26.6590  -31.6950   23.9240 C   0  0  0  0  0  3  0  0  0  0  0  0
  -27.1280  -30.7900   25.1270 C   0  0  1  0  0  0  0  0  0  0  0  0
  -26.0020  -30.4680   26.1350 C   0  0  0  0  0  1  0  0  0  0  0  0
  -27.6960  -29.4460   24.6100 C   0  0  0  0  0  1  0  0  0  0  0  0
  -28.2740  -31.4880   25.8970 C   0  0  0  0  0  1  0  0  0  0  0  0
  -26.3760  -33.0640   24.3800 N   0  0  0  0  0  0  0  0  0  0  0  0
  -26.7380  -34.1730   23.7220 C   0  0  0  0  0  0  0  0  0  0  0  0
  -27.4130  -34.1510   22.6890 O   0  0  0  0  0  0  0  0  0  0  0  0
  -25.7790  -33.1580   25.1880 H   0  0  0  0  0  0  0  0  0  0  0  0
  -25.0430  -36.0200   23.5300 C   0  0  0  0  0  1  0  0  0  0  0  0
  -26.2760  -35.5240   24.3020 C   0  0  0  0  0  3  0  0  0  0  0  0
  -28.4230  -36.2910   25.2110 C   0  0  0  0  0  1  0  0  0  0  0  0
  -27.3280  -36.5640   24.2850 N   0  0  0  0  0  0  0  0  0  0  0  0
  -26.9380  -37.4740   24.5180 H   0  0  0  0  0  0  0  0  0  0  0  0
  -31.4640  -19.0420   18.6170 C   0  0  0  0  0  2  0  0  0  0  0  0
  -33.5010  -20.2750   17.8170 C   0  0  0  0  0  1  0  0  0  0  0  0
  -33.5100  -19.2770   20.1010 C   0  0  0  0  0  1  0  0  0  0  0  0
  -32.9430  -19.2460   18.7270 N   0  0  1  0  0  4  0  0  0  0  0  0
  -33.3340  -18.3970   18.3420 H   0  0  0  0  0  0  0  0  0  0  0  0
  1 15  1  0
  2  8  1  0
  2 14  1  0
  3  8  1  0
  4  3  1  0
  4  5  1  0
  6  5  1  0
  6  7  1  0
  6 29  1  0
  8  7  1  0
  9  2  2  0
 10 11  1  0
 10 14  1  0
 11 15  1  0
 13 12  1  0
 13 20  1  0
 14 13  1  0
 15 12  1  0
 15 16  1  1
 17 20  2  0
 17 18  1  0
 18 21  2  0
 19 22  2  0
 20 19  1  0
 21 22  1  0
 21 25  1  0
 22 23  1  0
 25 24  1  0
 26 51  1  0
 26 27  2  0
 27 46  1  0
 28 31  1  0
 28 27  1  0
 29 30  1  0
 29 26  1  0
 30 28  2  0
 31 32  1  0
 32 33  2  0
 34 37  1  0
 34 33  1  0
 35 34  2  0
 36 35  1  0
 36 31  2  0
 37 38  1  0
 38 39  1  0
 39 40  2  0
 41 40  1  0
 41 45  1  0
 42 41  2  0
 43 38  2  0
 43 42  1  0
 44 43  1  0
 46 47  1  0
 47 49  1  0
 47 50  1  0
 48 46  2  0
 51 52  1  0
 53 51  1  0
 54101  1  0
 54  1  1  0
 56 55  1  0
 56 54  1  0
 56 57  1  0
 57 58  1  0
 59 60  1  0
 59 58  1  0
 61 72  2  0
 62 60  1  0
 62 67  1  0
 63 71  1  0
 63 73  1  0
 64 66  1  0
 65 71  1  0
 66 67  2  0
 66 65  1  0
 68 62  2  0
 69 68  1  0
 69 64  2  0
 70 64  1  0
 70 63  1  0
 71 61  1  0
 73 75  2  0
 74 73  1  0
 76 74  1  0
 77 86  2  0
 77 82  1  0
 78 74  1  0
 78 82  1  0
 79 78  1  0
 80 81  1  0
 80 79  1  0
 81 77  1  0
 82 83  2  0
 83 84  1  0
 85 84  2  0
 86 85  1  0
 87 61  1  0
 87 92  1  0
 87 88  1  0
 88 91  1  1
 88 89  1  0
 90 88  1  0
 92 95  1  0
 93 97  1  0
 93 92  1  0
 94 93  2  0
 97 96  1  0
 99 97  1  0
 99100  1  0
 99 98  1  0
101104  1  0
102104  1  0
104103  1  0
104105  1  6
M  ISO  4   2 100  14 100  59 101  60 101
M  END
>  <TORSDO>  (83) 
F 25

>  <SCORE>  (83) 
-0.018

>  <name>  (83) 
83

>  <ligand_id>  (83) 
83

>  <original_smiles>  (83) 
[H]c1c([H])c([H])c2c(c1[H])C([H])([H])C([H])([H])C([H])([H])C2([H])N([H])C(=O)C1([H])N(C(=O)C([H])(N([H])C(=O)C([H])(N([H])C([H])([H])[H])C([H])([H])[H])C(C([H])([H])[H])(C([H])([H])[H])C([H])([H])[H])C([H])([H])c2c([H])c(OC([H])([H])C([H])([H])OC([H])(C([H])([H])[H])C([H])(C([H])([H])[N+]([H])(C([H])([H])[H])C([H])([H])[H])C([H])([H])[N+]3([H])C([H])([H])C([H])([H])N(C(=O)N4C([H])([H])C([H])([H])C([H])([H])C([H])(n5nc(-c6c([H])c([H])c(Oc7c([H])c([H])c(F)c([H])c7F)c([H])c6[H])c(C(=O)N([H])[H])c5N([H])[H])C4([H])[H])C([H])(c4c([H])c([H])c(OC([H])([H])[H])c(F)c4[H])C3([H])[H])c([H])c([H])c2C1([H])[H]

>  <smiles>  (83) 
[H]c1c([H])c([H])c2c(c1[H])C([H])([H])C([H])([H])C([H])([H])C2([H])N([H])C(=O)C1([H])N(C(=O)C([H])(N([H])C(=O)C([H])(N([H])C([H])([H])[H])C([H])([H])[H])C(C([H])([H])[H])(C([H])([H])[H])C([H])([H])[H])C([H])([H])c2c([H])c(OC([H])([H])C([H])([H])OC([H])(C([H])([H])[H])C([H])(C([H])([H])[N+]([H])(C([H])([H])[H])C([H])([H])[H])C([H])([H])[N+]3([H])C([H])([H])C([H])([H])N(C(=O)N4C([H])([H])C([H])([H])C([H])([H])C([H])(n5nc(-c6c([H])c([H])c(Oc7c([H])c([H])c(F)c([H])c7F)c([H])c6[H])c(C(=O)N([H])[H])c5N([H])[H])C4([H])[H])C([H])(c4c([H])c([H])c(OC([H])([H])[H])c(F)c4[H])C3([H])[H])c([H])c([H])c2C1([H])[H]

$$$$
84:0:0
     RDKit          3D

 90 98  0  0  1  0  0  0  0  0999 V2000
  -28.9100  -17.6550   20.9850 C   0  0  0  0  0  3  0  0  0  0  0  0
  -28.6100  -19.0360   21.1920 C   0  0  0  0  0  3  0  0  0  0  0  0
  -30.4420  -19.6810   19.7880 C   0  0  0  0  0  3  0  0  0  0  0  0
  -29.9810  -17.2420   20.1520 C   0  0  0  0  0  0  0  0  0  0  0  0
  -29.3320  -20.0930   20.5720 C   0  0  0  0  0  0  0  0  0  0  0  0
  -30.7650  -18.3020   19.5950 C   0  0  0  0  0  0  0  0  0  0  0  0
  -31.8120  -18.0000   18.7900 F   0  0  0  0  0  0  0  0  0  0  0  0
  -30.8380  -14.8080   20.1110 C   0  0  0  0  0  0  0  0  0  0  0  0
  -30.6620  -12.4840   19.2390 C   0  0  0  0  0  2  0  0  0  0  0  0
  -29.7100  -12.4500   18.0220 C   0  0  0  0  0  2  0  0  0  0  0  0
  -28.2320  -12.3620   18.4640 C   0  0  0  0  0  2  0  0  0  0  0  0
  -27.8640  -13.2810   19.6640 C   0  0  0  0  0  3  0  0  0  0  0  0
  -28.9430  -13.2540   20.7650 C   0  0  0  0  0  2  0  0  0  0  0  0
  -30.2210  -13.5800   20.1230 N   0  0  0  0  0  0  0  0  0  0  0  0
  -32.0650  -14.8780   19.9900 O   0  0  0  0  0  0  0  0  0  0  0  0
  -29.8860  -15.8370   18.1690 C   0  0  0  0  0  1  0  0  0  0  0  0
  -30.0660  -15.8630   19.6370 N   0  0  0  0  0  0  0  0  0  0  0  0
  -25.4890  -13.8780   20.4240 C   0  0  0  0  0  0  0  0  0  0  0  0
  -24.4260  -13.1030   20.7990 C   0  0  0  0  0  0  0  0  0  0  0  0
  -24.8900  -11.7520   20.7630 C   0  0  0  0  0  0  0  0  0  0  0  0
  -26.5310  -12.9970   20.1780 N   0  0  0  0  0  0  0  0  0  0  0  0
  -26.1780  -11.7150   20.4460 N   0  0  0  0  0  0  0  0  0  0  0  0
  -24.1690  -10.4900   20.9530 C   0  0  0  0  0  0  0  0  0  0  0  0
  -24.5880   -9.5390   21.9090 C   0  0  0  0  0  3  0  0  0  0  0  0
  -23.8660   -8.3390   22.0890 C   0  0  0  0  0  3  0  0  0  0  0  0
  -22.7130   -8.0820   21.3110 C   0  0  0  0  0  0  0  0  0  0  0  0
  -22.3150   -9.0220   20.3420 C   0  0  0  0  0  3  0  0  0  0  0  0
  -23.0380  -10.2120   20.1610 C   0  0  0  0  0  3  0  0  0  0  0  0
  -21.9640   -6.9340   21.4000 O   0  0  0  0  0  0  0  0  0  0  0  0
  -21.8610   -6.2330   22.5740 C   0  0  0  0  0  0  0  0  0  0  0  0
  -21.3140   -6.8100   23.7410 C   0  0  0  0  0  3  0  0  0  0  0  0
  -21.1610   -6.0320   24.9060 C   0  0  0  0  0  3  0  0  0  0  0  0
  -21.5430   -4.6760   24.9040 C   0  0  0  0  0  0  0  0  0  0  0  0
  -22.0810   -4.0990   23.7410 C   0  0  0  0  0  3  0  0  0  0  0  0
  -22.2370   -4.8740   22.5780 C   0  0  0  0  0  0  0  0  0  0  0  0
  -22.7350   -4.3060   21.4540 F   0  0  0  0  0  0  0  0  0  0  0  0
  -21.3890   -3.9270   26.0200 F   0  0  0  0  0  0  0  0  0  0  0  0
  -23.0310  -13.5780   21.0810 C   0  0  0  0  0  0  0  0  0  0  0  0
  -22.3110  -12.8810   21.9540 N   0  0  0  0  0  0  0  0  0  0  0  0
  -22.5870  -14.6020   20.5640 O   0  0  0  0  0  0  0  0  0  0  0  0
  -22.6820  -12.0510   22.3940 H   0  0  0  0  0  0  0  0  0  0  0  0
  -21.3740  -13.1800   22.1840 H   0  0  0  0  0  0  0  0  0  0  0  0
  -25.6520  -15.2490   20.2500 N   0  0  0  0  0  0  0  0  0  0  0  0
  -24.8910  -15.9070   20.3820 H   0  0  0  0  0  0  0  0  0  0  0  0
  -26.5060  -15.6880   19.9300 H   0  0  0  0  0  0  0  0  0  0  0  0
  -28.9230  -21.4290   20.7980 O   0  0  0  0  0  0  0  0  0  0  0  0
  -29.2430  -22.5490   19.9020 C   0  0  0  0  0  3  0  0  0  0  0  0
  -28.7460  -23.9920   20.3950 C   0  0  0  0  0  3  0  0  0  0  0  0
  -28.8290  -25.2230   19.3840 C   0  0  0  0  0  2  0  0  0  0  0  0
  -28.6800  -26.6130   19.8760 O   0  0  0  0  0  0  0  0  0  0  0  0
  -24.6420  -31.6510   23.0420 C   0  0  0  0  0  0  0  0  0  0  0  0
  -27.4890  -27.3530   19.8260 C   0  0  0  0  0  0  0  0  0  0  0  0
  -23.5160  -30.2760   21.3260 C   0  0  0  0  0  3  0  0  0  0  0  0
  -25.0470  -28.8500   19.8520 C   0  0  0  0  0  0  0  0  0  0  0  0
  -26.0390  -30.7150   21.1860 C   0  0  0  0  0  2  0  0  0  0  0  0
  -26.1840  -29.3700   20.4820 C   0  0  0  0  0  0  0  0  0  0  0  0
  -27.4030  -28.6330   20.4580 C   0  0  0  0  0  3  0  0  0  0  0  0
  -26.3220  -26.8740   19.1870 C   0  0  0  0  0  3  0  0  0  0  0  0
  -25.1180  -27.6090   19.1980 C   0  0  0  0  0  3  0  0  0  0  0  0
  -23.7730  -29.6670   19.9210 C   0  0  0  0  0  2  0  0  0  0  0  0
  -24.7500  -30.8960   21.9100 N   0  0  0  0  0  0  0  0  0  0  0  0
  -23.5430  -31.8570   23.5760 O   0  0  0  0  0  0  0  0  0  0  0  0
  -22.8890  -29.1920   22.2340 C   0  0  0  0  0  0  0  0  0  0  0  0
  -21.5650  -28.9910   22.1070 N   0  0  0  0  0  0  0  0  0  0  0  0
  -23.5900  -28.5370   23.0090 O   0  0  0  0  0  0  0  0  0  0  0  0
  -21.0590  -29.5750   21.4570 H   0  0  0  0  0  0  0  0  0  0  0  0
  -18.2100  -27.7460   22.6220 C   0  0  0  0  0  0  0  0  0  0  0  0
  -20.7750  -27.9940   22.8280 C   0  0  0  0  0  3  0  0  0  0  0  0
  -20.8600  -26.6110   22.1400 C   0  0  0  0  0  2  0  0  0  0  0  0
  -19.7270  -26.3640   21.1400 C   0  0  0  0  0  2  0  0  0  0  0  0
  -18.3670  -26.4530   21.8370 C   0  0  0  0  0  2  0  0  0  0  0  0
  -19.3410  -28.4760   23.0730 C   0  0  0  0  0  0  0  0  0  0  0  0
  -19.1390  -29.6890   23.7680 C   0  0  0  0  0  3  0  0  0  0  0  0
  -17.8390  -30.1700   24.0140 C   0  0  0  0  0  3  0  0  0  0  0  0
  -16.7230  -29.4350   23.5780 C   0  0  0  0  0  3  0  0  0  0  0  0
  -16.9100  -28.2230   22.8880 C   0  0  0  0  0  3  0  0  0  0  0  0
  -25.8900  -32.3070   23.7100 C   0  0  0  0  0  3  0  0  0  0  0  0
  -26.4060  -31.5190   24.9750 C   0  0  1  0  0  0  0  0  0  0  0  0
  -25.3010  -31.2220   26.0170 C   0  0  0  0  0  1  0  0  0  0  0  0
  -27.0360  -30.1690   24.5590 C   0  0  0  0  0  1  0  0  0  0  0  0
  -27.5200  -32.3290   25.6790 C   0  0  0  0  0  1  0  0  0  0  0  0
  -25.5290  -33.6850   24.0710 N   0  0  0  0  0  0  0  0  0  0  0  0
  -25.8510  -34.7700   23.3550 C   0  0  0  0  0  0  0  0  0  0  0  0
  -26.5540  -34.7180   22.3420 O   0  0  0  0  0  0  0  0  0  0  0  0
  -24.9080  -33.7970   24.8590 H   0  0  0  0  0  0  0  0  0  0  0  0
  -24.0970  -36.5340   22.9840 C   0  0  0  0  0  1  0  0  0  0  0  0
  -25.3090  -36.1290   23.8390 C   0  0  0  0  0  3  0  0  0  0  0  0
  -27.3700  -37.0400   24.8130 C   0  0  0  0  0  1  0  0  0  0  0  0
  -26.3180  -37.2100   23.8130 N   0  0  0  0  0  0  0  0  0  0  0  0
  -25.8810  -38.1150   23.9630 H   0  0  0  0  0  0  0  0  0  0  0  0
  1  2  1  0
  3  5  1  0
  4  1  2  0
  5 46  1  0
  5  2  2  0
  6  3  2  0
  6  4  1  0
  7  6  1  0
  8 14  1  0
  9 14  1  0
 10 11  1  0
 10  9  1  0
 12 11  1  0
 12 21  1  0
 12 13  1  0
 14 13  1  0
 15  8  2  0
 16 17  1  0
 17  8  1  0
 17  4  1  0
 18 19  2  0
 19 38  1  0
 20 19  1  0
 20 23  1  0
 21 18  1  0
 21 22  1  0
 22 20  2  0
 23 24  1  0
 24 25  2  0
 26 29  1  0
 26 25  1  0
 27 26  2  0
 28 27  1  0
 28 23  2  0
 29 30  1  0
 30 35  2  0
 30 31  1  0
 31 32  2  0
 33 32  1  0
 33 37  1  0
 34 33  2  0
 35 34  1  0
 36 35  1  0
 38 39  1  0
 39 42  1  0
 39 41  1  0
 40 38  2  0
 43 44  1  0
 43 18  1  0
 45 43  1  0
 47 48  2  0
 47 46  1  0
 49 50  1  0
 49 48  1  0
 51 62  2  0
 52 50  1  0
 52 57  1  0
 53 61  1  0
 53 63  1  0
 54 60  1  0
 54 56  1  0
 55 61  1  0
 56 55  1  0
 57 56  2  0
 58 59  1  0
 58 52  2  0
 59 54  2  0
 60 53  1  0
 61 51  1  0
 63 65  2  0
 64 63  1  0
 66 64  1  0
 67 76  2  0
 67 72  1  0
 68 64  1  0
 68 72  1  0
 69 68  1  0
 70 71  1  0
 70 69  1  0
 71 67  1  0
 72 73  2  0
 73 74  1  0
 75 74  2  0
 76 75  1  0
 77 51  1  0
 77 82  1  0
 77 78  1  0
 78 81  1  1
 78 79  1  0
 80 78  1  0
 82 85  1  0
 83 87  1  0
 83 82  1  0
 84 83  2  0
 87 86  1  0
 89 87  1  0
 89 90  1  0
 89 88  1  0
M  ISO  4   8 100  17 100  49 101  50 101
M  END
>  <TORSDO>  (84) 
F 20

>  <SCORE>  (84) 
-11.861

>  <name>  (84) 
84

>  <ligand_id>  (84) 
84

>  <original_smiles>  (84) 
[H]c1c([H])c([H])c2c(c1[H])C([H])([H])C([H])([H])C([H])([H])C2([H])N([H])C(=O)C1([H])N(C(=O)C([H])(N([H])C(=O)C([H])(N([H])C([H])([H])[H])C([H])([H])[H])C(C([H])([H])[H])(C([H])([H])[H])C([H])([H])[H])C([H])([H])c2c([H])c(OC([H])([H])C([H])([H])C([H])([H])Oc3c([H])c([H])c(N(C(=O)N4C([H])([H])C([H])([H])C([H])([H])C([H])(n5nc(-c6c([H])c([H])c(Oc7c([H])c([H])c(F)c([H])c7F)c([H])c6[H])c(C(=O)N([H])[H])c5N([H])[H])C4([H])[H])C([H])([H])[H])c(F)c3[H])c([H])c([H])c2C1([H])[H]

>  <smiles>  (84) 
[H]c1c([H])c([H])c2c(c1[H])C([H])([H])C([H])([H])C([H])([H])C2([H])N([H])C(=O)C1([H])N(C(=O)C([H])(N([H])C(=O)C([H])(N([H])C([H])([H])[H])C([H])([H])[H])C(C([H])([H])[H])(C([H])([H])[H])C([H])([H])[H])C([H])([H])c2c([H])c(OC([H])([H])C([H])([H])C([H])([H])Oc3c([H])c([H])c(N(C(=O)N4C([H])([H])C([H])([H])C([H])([H])C([H])(n5nc(-c6c([H])c([H])c(Oc7c([H])c([H])c(F)c([H])c7F)c([H])c6[H])c(C(=O)N([H])[H])c5N([H])[H])C4([H])[H])C([H])([H])[H])c(F)c3[H])c([H])c([H])c2C1([H])[H]

$$$$
85:0:0
     RDKit          3D

 90 99  0  0  1  0  0  0  0  0999 V2000
  -30.6160  -15.2940   20.4630 C   0  0  0  0  0  0  0  0  0  0  0  0
  -30.4340  -13.0010   19.3050 C   0  0  0  0  0  2  0  0  0  0  0  0
  -29.4960  -12.9560   18.0770 C   0  0  0  0  0  2  0  0  0  0  0  0
  -28.0400  -12.7180   18.5140 C   0  0  0  0  0  2  0  0  0  0  0  0
  -27.6380  -13.5730   19.7430 C   0  0  0  0  0  3  0  0  0  0  0  0
  -28.7060  -13.5710   20.8550 C   0  0  0  0  0  2  0  0  0  0  0  0
  -29.9420  -14.0740   20.2370 N   0  0  0  0  0  0  0  0  0  0  0  0
  -31.8410  -15.2140   20.2880 O   0  0  0  0  0  0  0  0  0  0  0  0
  -28.3820  -17.6410   17.4380 C   0  0  0  0  0  3  0  0  0  0  0  0
  -28.2450  -19.0300   17.5260 C   0  0  0  0  0  3  0  0  0  0  0  0
  -28.9420  -16.9250   18.5060 C   0  0  0  0  0  3  0  0  0  0  0  0
  -28.6430  -19.7040   18.6900 C   0  0  0  0  0  3  0  0  0  0  0  0
  -29.3730  -17.5450   19.7050 C   0  0  0  0  0  0  0  0  0  0  0  0
  -29.1830  -19.0420   19.8220 C   0  0  0  0  0  0  0  0  0  0  0  0
  -30.5760  -17.5700   21.7210 C   0  0  0  0  0  3  0  0  0  0  0  0
  -29.8110  -18.9820   22.0330 C   0  0  0  0  0  3  0  0  0  0  0  0
  -30.0090  -16.6210   20.6940 N   0  0  0  0  0  0  0  0  0  0  0  0
  -29.4970  -19.9560   20.9300 N   0  0  0  0  0  0  0  0  0  0  0  0
  -25.2550  -14.1140   20.4640 C   0  0  0  0  0  0  0  0  0  0  0  0
  -24.1940  -13.3240   20.8110 C   0  0  0  0  0  0  0  0  0  0  0  0
  -24.6770  -11.9790   20.7860 C   0  0  0  0  0  0  0  0  0  0  0  0
  -26.3090  -13.2480   20.2370 N   0  0  0  0  0  0  0  0  0  0  0  0
  -25.9740  -11.9580   20.5020 N   0  0  0  0  0  0  0  0  0  0  0  0
  -23.9620  -10.7080   20.9560 C   0  0  0  0  0  0  0  0  0  0  0  0
  -24.3520   -9.7670   21.9340 C   0  0  0  0  0  3  0  0  0  0  0  0
  -23.6340   -8.5620   22.0930 C   0  0  0  0  0  3  0  0  0  0  0  0
  -22.5120   -8.2890   21.2740 C   0  0  0  0  0  0  0  0  0  0  0  0
  -22.1430   -9.2200   20.2860 C   0  0  0  0  0  3  0  0  0  0  0  0
  -22.8610  -10.4160   20.1250 C   0  0  0  0  0  3  0  0  0  0  0  0
  -21.7710   -7.1350   21.3400 O   0  0  0  0  0  0  0  0  0  0  0  0
  -21.6140   -6.4470   22.5160 C   0  0  0  0  0  0  0  0  0  0  0  0
  -21.0490   -7.0480   23.6620 C   0  0  0  0  0  3  0  0  0  0  0  0
  -20.8430   -6.2850   24.8280 C   0  0  0  0  0  3  0  0  0  0  0  0
  -21.1920   -4.9220   24.8490 C   0  0  0  0  0  0  0  0  0  0  0  0
  -21.7490   -4.3200   23.7070 C   0  0  0  0  0  3  0  0  0  0  0  0
  -21.9560   -5.0800   22.5430 C   0  0  0  0  0  0  0  0  0  0  0  0
  -22.4740   -4.4910   21.4380 F   0  0  0  0  0  0  0  0  0  0  0  0
  -20.9860   -4.1850   25.9660 F   0  0  0  0  0  0  0  0  0  0  0  0
  -22.7860  -13.7840   21.0510 C   0  0  0  0  0  0  0  0  0  0  0  0
  -22.0500  -13.0790   21.9000 N   0  0  0  0  0  0  0  0  0  0  0  0
  -22.3500  -14.8060   20.5220 O   0  0  0  0  0  0  0  0  0  0  0  0
  -22.4150  -12.2520   22.3480 H   0  0  0  0  0  0  0  0  0  0  0  0
  -21.1050  -13.3700   22.1060 H   0  0  0  0  0  0  0  0  0  0  0  0
  -25.4060  -15.4870   20.2940 N   0  0  0  0  0  0  0  0  0  0  0  0
  -24.6290  -16.1310   20.3970 H   0  0  0  0  0  0  0  0  0  0  0  0
  -26.2590  -15.9390   19.9900 H   0  0  0  0  0  0  0  0  0  0  0  0
  -28.7310  -21.3680   21.1930 C   0  0  0  0  0  2  0  0  0  0  0  0
  -29.1970  -23.0430   20.9380 C   0  0  0  0  0  3  0  0  0  0  0  0
  -28.1930  -24.4950   20.9270 C   0  0  0  0  0  3  0  0  0  0  0  0
  -28.4750  -26.0800   20.7540 O   0  0  0  0  0  0  0  0  0  0  0  0
  -24.7330  -32.0340   23.3590 C   0  0  0  0  0  0  0  0  0  0  0  0
  -27.4400  -27.1220   20.6320 C   0  0  0  0  0  0  0  0  0  0  0  0
  -23.6050  -30.5510   21.7510 C   0  0  0  0  0  3  0  0  0  0  0  0
  -25.1160  -28.9210   20.4410 C   0  0  0  0  0  0  0  0  0  0  0  0
  -26.1680  -30.8110   21.6630 C   0  0  0  0  0  2  0  0  0  0  0  0
  -26.2770  -29.3820   21.0730 C   0  0  0  0  0  0  0  0  0  0  0  0
  -27.4380  -28.5000   21.1460 C   0  0  0  0  0  3  0  0  0  0  0  0
  -26.2480  -26.7950   19.9490 C   0  0  0  0  0  3  0  0  0  0  0  0
  -25.1210  -27.6450   19.8610 C   0  0  0  0  0  3  0  0  0  0  0  0
  -23.8810  -29.8170   20.4120 C   0  0  0  0  0  2  0  0  0  0  0  0
  -24.8550  -31.1600   22.3110 N   0  0  0  0  0  0  0  0  0  0  0  0
  -23.6270  -32.3300   23.8370 O   0  0  0  0  0  0  0  0  0  0  0  0
  -22.9010  -29.5830   22.7370 C   0  0  0  0  0  0  0  0  0  0  0  0
  -21.5870  -29.3550   22.5530 N   0  0  0  0  0  0  0  0  0  0  0  0
  -23.5440  -29.0350   23.6360 O   0  0  0  0  0  0  0  0  0  0  0  0
  -21.1220  -29.8490   21.8040 H   0  0  0  0  0  0  0  0  0  0  0  0
  -18.2280  -28.0530   22.9610 C   0  0  0  0  0  0  0  0  0  0  0  0
  -20.7580  -28.4370   23.3390 C   0  0  0  0  0  3  0  0  0  0  0  0
  -20.9430  -26.9770   22.8620 C   0  0  0  0  0  2  0  0  0  0  0  0
  -19.9090  -26.5490   21.8160 C   0  0  0  0  0  2  0  0  0  0  0  0
  -18.4900  -26.6760   22.3780 C   0  0  0  0  0  2  0  0  0  0  0  0
  -19.2930  -28.8860   23.3980 C   0  0  0  0  0  0  0  0  0  0  0  0
  -18.9950  -30.1690   23.9050 C   0  0  0  0  0  3  0  0  0  0  0  0
  -17.6650  -30.6240   23.9780 C   0  0  0  0  0  3  0  0  0  0  0  0
  -16.6140  -29.7910   23.5580 C   0  0  0  0  0  3  0  0  0  0  0  0
  -16.8950  -28.5080   23.0550 C   0  0  0  0  0  3  0  0  0  0  0  0
  -25.9800  -32.7200   23.9970 C   0  0  0  0  0  3  0  0  0  0  0  0
  -25.6230  -34.1200   24.2880 N   0  0  0  0  0  0  0  0  0  0  0  0
  -25.9230  -35.1660   23.5060 C   0  0  0  0  0  0  0  0  0  0  0  0
  -26.5900  -35.0560   22.4750 O   0  0  0  0  0  0  0  0  0  0  0  0
  -25.0260  -34.2750   25.0870 H   0  0  0  0  0  0  0  0  0  0  0  0
  -24.1320  -36.8980   23.1380 C   0  0  0  0  0  1  0  0  0  0  0  0
  -25.4010  -36.5530   23.9350 C   0  0  0  0  0  3  0  0  0  0  0  0
  -27.5180  -37.5330   24.7000 C   0  0  0  0  0  1  0  0  0  0  0  0
  -26.3970  -37.6340   23.7710 N   0  0  0  0  0  0  0  0  0  0  0  0
  -25.9630  -38.5460   23.8950 H   0  0  0  0  0  0  0  0  0  0  0  0
  -26.4800  -31.9990   25.3080 C   0  0  1  0  0  0  0  0  0  0  0  0
  -25.3570  -31.7250   26.3370 C   0  0  0  0  0  1  0  0  0  0  0  0
  -27.1490  -30.6440   24.9760 C   0  0  0  0  0  1  0  0  0  0  0  0
  -27.5600  -32.8630   26.0000 C   0  0  0  0  0  1  0  0  0  0  0  0
  1 17  1  0
  2  7  1  0
  3  4  1  0
  3  2  1  0
  5  4  1  0
  5 22  1  0
  5  6  1  0
  7  1  1  0
  7  6  1  0
  8  1  2  0
  9 10  2  0
  9 11  1  0
 10 12  1  0
 11 13  2  0
 12 14  2  0
 13 14  1  0
 13 17  1  0
 14 18  1  0
 15 16  2  0
 17 15  1  0
 18 47  1  0
 18 16  1  0
 19 20  2  0
 20 39  1  0
 21 20  1  0
 21 24  1  0
 22 19  1  0
 22 23  1  0
 23 21  2  0
 24 25  1  0
 25 26  2  0
 27 30  1  0
 27 26  1  0
 28 27  2  0
 29 28  1  0
 29 24  2  0
 30 31  1  0
 31 36  2  0
 31 32  1  0
 32 33  2  0
 33 34  1  0
 34 38  1  0
 35 34  2  0
 36 35  1  0
 37 36  1  0
 39 40  1  0
 40 43  1  0
 40 42  1  0
 41 39  2  0
 44 45  1  0
 44 19  1  0
 46 44  1  0
 48 47  1  0
 49 48  2  0
 50 49  1  0
 51 62  2  0
 52 50  1  0
 52 57  1  0
 53 61  1  0
 53 63  1  0
 54 56  1  0
 55 61  1  0
 56 57  2  0
 56 55  1  0
 58 52  2  0
 59 58  1  0
 59 54  2  0
 60 54  1  0
 60 53  1  0
 61 51  1  0
 63 65  2  0
 64 63  1  0
 66 64  1  0
 67 76  2  0
 67 72  1  0
 68 64  1  0
 68 72  1  0
 69 68  1  0
 70 71  1  0
 70 69  1  0
 71 67  1  0
 72 73  2  0
 73 74  1  0
 75 74  2  0
 76 75  1  0
 77 51  1  0
 77 78  1  0
 77 87  1  0
 78 81  1  0
 79 83  1  0
 79 78  1  0
 80 79  2  0
 83 82  1  0
 85 86  1  0
 85 83  1  0
 85 84  1  0
 87 90  1  1
 87 88  1  0
 89 87  1  0
M  ISO  4   1 100  17 100  49 101  50 101
M  END
>  <TORSDO>  (85) 
F 18

>  <SCORE>  (85) 
-14.542

>  <name>  (85) 
85

>  <ligand_id>  (85) 
85

>  <original_smiles>  (85) 
[H]c1c([H])c([H])c2c(c1[H])N(C(=O)N1C([H])([H])C([H])([H])C([H])([H])C([H])(n3nc(-c4c([H])c([H])c(Oc5c([H])c([H])c(F)c([H])c5F)c([H])c4[H])c(C(=O)N([H])[H])c3N([H])[H])C1([H])[H])C([H])([H])C([H])([H])N2C([H])([H])C([H])([H])C([H])([H])Oc1c([H])c([H])c2c(c1[H])C([H])([H])N(C(=O)C([H])(N([H])C(=O)C([H])(N([H])C([H])([H])[H])C([H])([H])[H])C(C([H])([H])[H])(C([H])([H])[H])C([H])([H])[H])C([H])(C(=O)N([H])C1([H])c3c([H])c([H])c([H])c([H])c3C([H])([H])C([H])([H])C1([H])[H])C2([H])[H]

>  <smiles>  (85) 
[H]c1c([H])c([H])c2c(c1[H])N(C(=O)N1C([H])([H])C([H])([H])C([H])([H])C([H])(n3nc(-c4c([H])c([H])c(Oc5c([H])c([H])c(F)c([H])c5F)c([H])c4[H])c(C(=O)N([H])[H])c3N([H])[H])C1([H])[H])C([H])([H])C([H])([H])N2C([H])([H])C([H])([H])C([H])([H])Oc1c([H])c([H])c2c(c1[H])C([H])([H])N(C(=O)C([H])(N([H])C(=O)C([H])(N([H])C([H])([H])[H])C([H])([H])[H])C(C([H])([H])[H])(C([H])([H])[H])C([H])([H])[H])C([H])(C(=O)N([H])C1([H])c3c([H])c([H])c([H])c([H])c3C([H])([H])C([H])([H])C1([H])[H])C2([H])[H]

$$$$
86:0:0
     RDKit          3D

 89 97  0  0  1  0  0  0  0  0999 V2000
  -30.5460  -18.6110   20.2210 C   0  0  0  0  0  3  0  0  0  0  0  0
  -30.2410  -20.0490   20.1530 C   0  0  0  0  0  3  0  0  0  0  0  0
  -27.9440  -19.5450   20.2350 C   0  0  0  0  0  3  0  0  0  0  0  0
  -29.5460  -17.5730   20.3030 C   0  0  0  0  0  0  0  0  0  0  0  0
  -28.9050  -20.5990   20.1510 C   0  0  0  0  0  0  0  0  0  0  0  0
  -28.2360  -18.1370   20.3130 C   0  0  0  0  0  0  0  0  0  0  0  0
  -27.1940  -17.2770   20.3970 F   0  0  0  0  0  0  0  0  0  0  0  0
  -30.4790  -14.9550   20.1290 C   0  0  0  0  0  0  0  0  0  0  0  0
  -30.3510  -12.6130   19.1660 C   0  0  0  0  0  2  0  0  0  0  0  0
  -29.3720  -12.5990   17.9670 C   0  0  0  0  0  2  0  0  0  0  0  0
  -27.9180  -12.4040   18.4410 C   0  0  0  0  0  2  0  0  0  0  0  0
  -27.5580  -13.3160   19.6440 C   0  0  0  0  0  3  0  0  0  0  0  0
  -28.6500  -13.2740   20.7360 C   0  0  0  0  0  2  0  0  0  0  0  0
  -29.9140  -13.6830   20.1040 N   0  0  0  0  0  0  0  0  0  0  0  0
  -31.6550  -15.0810   19.7700 O   0  0  0  0  0  0  0  0  0  0  0  0
  -29.6270  -16.0470   20.4000 N   0  0  0  0  0  0  0  0  0  0  0  0
  -28.7250  -15.6830   20.6710 H   0  0  0  0  0  0  0  0  0  0  0  0
  -25.1940  -13.9040   20.4450 C   0  0  0  0  0  0  0  0  0  0  0  0
  -24.1370  -13.1330   20.8380 C   0  0  0  0  0  0  0  0  0  0  0  0
  -24.5940  -11.7800   20.7890 C   0  0  0  0  0  0  0  0  0  0  0  0
  -26.2300  -13.0240   20.1760 N   0  0  0  0  0  0  0  0  0  0  0  0
  -25.8770  -11.7400   20.4460 N   0  0  0  0  0  0  0  0  0  0  0  0
  -23.8650  -10.5230   20.9920 C   0  0  0  0  0  0  0  0  0  0  0  0
  -24.3170   -9.5480   21.9100 C   0  0  0  0  0  3  0  0  0  0  0  0
  -23.5870   -8.3550   22.1020 C   0  0  0  0  0  3  0  0  0  0  0  0
  -22.3920   -8.1280   21.3780 C   0  0  0  0  0  0  0  0  0  0  0  0
  -21.9590   -9.0920   20.4510 C   0  0  0  0  0  3  0  0  0  0  0  0
  -22.6900  -10.2770   20.2560 C   0  0  0  0  0  3  0  0  0  0  0  0
  -21.6330   -6.9880   21.4810 O   0  0  0  0  0  0  0  0  0  0  0  0
  -21.6050   -6.2440   22.6330 C   0  0  0  0  0  0  0  0  0  0  0  0
  -21.2010   -6.7960   23.8670 C   0  0  0  0  0  3  0  0  0  0  0  0
  -21.1210   -5.9770   25.0120 C   0  0  0  0  0  3  0  0  0  0  0  0
  -21.4330   -4.6080   24.9230 C   0  0  0  0  0  0  0  0  0  0  0  0
  -21.8300   -4.0550   23.6920 C   0  0  0  0  0  3  0  0  0  0  0  0
  -21.9130   -4.8710   22.5500 C   0  0  0  0  0  0  0  0  0  0  0  0
  -22.2750   -4.3280   21.3630 F   0  0  0  0  0  0  0  0  0  0  0  0
  -21.3480   -3.8200   26.0200 F   0  0  0  0  0  0  0  0  0  0  0  0
  -22.7500  -13.6170   21.1520 C   0  0  0  0  0  0  0  0  0  0  0  0
  -22.0480  -12.9280   22.0450 N   0  0  0  0  0  0  0  0  0  0  0  0
  -22.3010  -14.6440   20.6440 O   0  0  0  0  0  0  0  0  0  0  0  0
  -22.4240  -12.0990   22.4790 H   0  0  0  0  0  0  0  0  0  0  0  0
  -21.1200  -13.2360   22.2990 H   0  0  0  0  0  0  0  0  0  0  0  0
  -25.3460  -15.2740   20.2760 N   0  0  0  0  0  0  0  0  0  0  0  0
  -24.5840  -15.9140   20.4630 H   0  0  0  0  0  0  0  0  0  0  0  0
  -26.2120  -15.7600   20.0740 H   0  0  0  0  0  0  0  0  0  0  0  0
  -28.3840  -21.9650   20.0490 O   0  0  0  0  0  0  0  0  0  0  0  0
  -29.0000  -23.3650   20.1000 C   0  0  0  0  0  3  0  0  0  0  0  0
  -28.0120  -24.7130   19.8800 C   0  0  0  0  0  3  0  0  0  0  0  0
  -28.2930  -26.2290   20.0810 O   0  0  0  0  0  0  0  0  0  0  0  0
  -24.6330  -31.8210   23.1810 C   0  0  0  0  0  0  0  0  0  0  0  0
  -27.2260  -27.2010   20.0390 C   0  0  0  0  0  0  0  0  0  0  0  0
  -23.4360  -30.4670   21.5040 C   0  0  0  0  0  3  0  0  0  0  0  0
  -24.8900  -28.9320   20.0450 C   0  0  0  0  0  0  0  0  0  0  0  0
  -25.9900  -30.7420   21.3520 C   0  0  0  0  0  2  0  0  0  0  0  0
  -26.0680  -29.3680   20.6650 C   0  0  0  0  0  0  0  0  0  0  0  0
  -27.2360  -28.5200   20.6450 C   0  0  0  0  0  3  0  0  0  0  0  0
  -26.0190  -26.8630   19.3860 C   0  0  0  0  0  3  0  0  0  0  0  0
  -24.8780  -27.6930   19.3910 C   0  0  0  0  0  3  0  0  0  0  0  0
  -23.6610  -29.8260   20.1100 C   0  0  0  0  0  2  0  0  0  0  0  0
  -24.7060  -31.0300   22.0680 N   0  0  0  0  0  0  0  0  0  0  0  0
  -23.5450  -32.0930   23.7130 O   0  0  0  0  0  0  0  0  0  0  0  0
  -22.7570  -29.4350   22.4380 C   0  0  0  0  0  0  0  0  0  0  0  0
  -21.4250  -29.2850   22.3200 N   0  0  0  0  0  0  0  0  0  0  0  0
  -23.4290  -28.7740   23.2330 O   0  0  0  0  0  0  0  0  0  0  0  0
  -20.9390  -29.8710   21.6550 H   0  0  0  0  0  0  0  0  0  0  0  0
  -18.0300  -28.1400   22.8450 C   0  0  0  0  0  0  0  0  0  0  0  0
  -20.5990  -28.3340   23.0680 C   0  0  0  0  0  3  0  0  0  0  0  0
  -20.6560  -26.9260   22.4340 C   0  0  0  0  0  2  0  0  0  0  0  0
  -19.5270  -26.6710   21.4290 C   0  0  0  0  0  2  0  0  0  0  0  0
  -18.1620  -26.8190   22.1080 C   0  0  0  0  0  2  0  0  0  0  0  0
  -19.1730  -28.8600   23.2820 C   0  0  0  0  0  0  0  0  0  0  0  0
  -18.9940  -30.1000   23.9330 C   0  0  0  0  0  3  0  0  0  0  0  0
  -17.7040  -30.6200   24.1510 C   0  0  0  0  0  3  0  0  0  0  0  0
  -16.5750  -29.8960   23.7290 C   0  0  0  0  0  3  0  0  0  0  0  0
  -16.7390  -28.6580   23.0810 C   0  0  0  0  0  3  0  0  0  0  0  0
  -25.9100  -32.4410   23.8260 C   0  0  0  0  0  3  0  0  0  0  0  0
  -26.4050  -31.6510   25.1000 C   0  0  1  0  0  0  0  0  0  0  0  0
  -25.2980  -31.4130   26.1540 C   0  0  0  0  0  1  0  0  0  0  0  0
  -26.9800  -30.2730   24.7020 C   0  0  0  0  0  1  0  0  0  0  0  0
  -27.5560  -32.4270   25.7810 C   0  0  0  0  0  1  0  0  0  0  0  0
  -25.6030  -33.8370   24.1750 N   0  0  0  0  0  0  0  0  0  0  0  0
  -25.9270  -34.9010   23.4290 C   0  0  0  0  0  0  0  0  0  0  0  0
  -26.5820  -34.8090   22.3880 O   0  0  0  0  0  0  0  0  0  0  0  0
  -25.0210  -33.9810   24.9880 H   0  0  0  0  0  0  0  0  0  0  0  0
  -24.1860  -36.6940   23.1380 C   0  0  0  0  0  1  0  0  0  0  0  0
  -25.4500  -36.2840   23.9120 C   0  0  0  0  0  3  0  0  0  0  0  0
  -27.6020  -37.1710   24.6960 C   0  0  0  0  0  1  0  0  0  0  0  0
  -26.4770  -37.3420   23.7800 N   0  0  0  0  0  0  0  0  0  0  0  0
  -26.0720  -38.2600   23.9440 H   0  0  0  0  0  0  0  0  0  0  0  0
  1  4  1  0
  2  1  2  0
  3  6  1  0
  4  6  2  0
  4 16  1  0
  5  2  1  0
  5  3  2  0
  6  7  1  0
  8 16  1  0
  9 14  1  0
 10 11  1  0
 10  9  1  0
 12 11  1  0
 12 21  1  0
 12 13  1  0
 14  8  1  0
 14 13  1  0
 15  8  2  0
 16 17  1  0
 18 19  2  0
 19 38  1  0
 20 19  1  0
 20 23  1  0
 21 18  1  0
 21 22  1  0
 22 20  2  0
 23 24  1  0
 24 25  2  0
 26 29  1  0
 26 25  1  0
 27 26  2  0
 28 27  1  0
 28 23  2  0
 29 30  1  0
 30 31  1  0
 31 32  2  0
 33 32  1  0
 33 37  1  0
 34 33  2  0
 35 30  2  0
 35 34  1  0
 36 35  1  0
 38 39  1  0
 39 42  1  0
 39 41  1  0
 40 38  2  0
 43 18  1  0
 43 44  1  0
 45 43  1  0
 46 47  1  0
 46  5  1  0
 48 49  1  0
 48 47  2  0
 50 61  2  0
 51 49  1  0
 51 56  1  0
 52 60  1  0
 52 62  1  0
 53 59  1  0
 53 55  1  0
 54 60  1  0
 55 54  1  0
 56 55  2  0
 57 58  1  0
 57 51  2  0
 58 53  2  0
 59 52  1  0
 60 50  1  0
 62 64  2  0
 63 62  1  0
 65 63  1  0
 66 75  2  0
 66 71  1  0
 67 63  1  0
 67 71  1  0
 68 67  1  0
 69 70  1  0
 69 68  1  0
 70 66  1  0
 71 72  2  0
 72 73  1  0
 74 73  2  0
 75 74  1  0
 76 50  1  0
 76 81  1  0
 76 77  1  0
 77 80  1  1
 77 78  1  0
 79 77  1  0
 81 84  1  0
 82 86  1  0
 82 81  1  0
 83 82  2  0
 86 85  1  0
 88 86  1  0
 88 89  1  0
 88 87  1  0
M  ISO  4   8 100  16 100  48 101  49 101
M  END
>  <TORSDO>  (86) 
F 19

>  <SCORE>  (86) 
-14.356

>  <name>  (86) 
86

>  <ligand_id>  (86) 
86

>  <original_smiles>  (86) 
[H]c1c([H])c([H])c2c(c1[H])C([H])([H])C([H])([H])C([H])([H])C2([H])N([H])C(=O)C1([H])N(C(=O)C([H])(N([H])C(=O)C([H])(N([H])C([H])([H])[H])C([H])([H])[H])C(C([H])([H])[H])(C([H])([H])[H])C([H])([H])[H])C([H])([H])c2c([H])c(OC([H])([H])C([H])([H])Oc3c([H])c([H])c(N([H])C(=O)N4C([H])([H])C([H])([H])C([H])([H])C([H])(n5nc(-c6c([H])c([H])c(Oc7c([H])c([H])c(F)c([H])c7F)c([H])c6[H])c(C(=O)N([H])[H])c5N([H])[H])C4([H])[H])c(F)c3[H])c([H])c([H])c2C1([H])[H]

>  <smiles>  (86) 
[H]c1c([H])c([H])c2c(c1[H])C([H])([H])C([H])([H])C([H])([H])C2([H])N([H])C(=O)C1([H])N(C(=O)C([H])(N([H])C(=O)C([H])(N([H])C([H])([H])[H])C([H])([H])[H])C(C([H])([H])[H])(C([H])([H])[H])C([H])([H])[H])C([H])([H])c2c([H])c(OC([H])([H])C([H])([H])Oc3c([H])c([H])c(N([H])C(=O)N4C([H])([H])C([H])([H])C([H])([H])C([H])(n5nc(-c6c([H])c([H])c(Oc7c([H])c([H])c(F)c([H])c7F)c([H])c6[H])c(C(=O)N([H])[H])c5N([H])[H])C4([H])[H])c(F)c3[H])c([H])c([H])c2C1([H])[H]

$$$$
87:0:0
     RDKit          3D

 93101  0  0  1  0  0  0  0  0999 V2000
  -30.4930  -20.7230   23.3600 C   0  0  0  0  0  3  0  0  0  0  0  0
  -30.8350  -19.3700   23.4400 C   0  0  0  0  0  3  0  0  0  0  0  0
  -29.9480  -21.2330   22.1750 C   0  0  0  0  0  3  0  0  0  0  0  0
  -30.6330  -18.5330   22.3300 C   0  0  0  0  0  3  0  0  0  0  0  0
  -29.7230  -20.4410   21.0150 C   0  0  0  0  0  0  0  0  0  0  0  0
  -30.0950  -19.0050   21.1090 C   0  0  0  0  0  0  0  0  0  0  0  0
  -28.7780  -17.6560   19.1310 O   0  0  0  0  0  0  0  0  0  0  0  0
  -31.3030  -17.7570   19.0220 O   0  0  0  0  0  0  0  0  0  0  0  0
  -30.0750  -17.6150   19.8260 S   0  0  1  0  0  0  0  0  0  0  0  0
  -30.9030  -14.8100   20.2540 C   0  0  0  0  0  0  0  0  0  0  0  0
  -30.6960  -12.5400   19.2470 C   0  0  0  0  0  2  0  0  0  0  0  0
  -29.7680  -12.6640   18.0140 C   0  0  0  0  0  2  0  0  0  0  0  0
  -28.2890  -12.5170   18.4260 C   0  0  0  0  0  2  0  0  0  0  0  0
  -27.9230  -13.3960   19.6510 C   0  0  0  0  0  3  0  0  0  0  0  0
  -28.9700  -13.2570   20.7790 C   0  0  0  0  0  2  0  0  0  0  0  0
  -30.2900  -13.5780   20.2210 N   0  0  0  0  0  0  0  0  0  0  0  0
  -32.0670  -14.9240   19.8590 O   0  0  0  0  0  0  0  0  0  0  0  0
  -30.1350  -15.9780   20.6120 N   0  0  0  0  0  0  0  0  0  0  0  0
  -29.2350  -15.8220   21.0570 H   0  0  0  0  0  0  0  0  0  0  0  0
  -25.5320  -14.0120   20.3520 C   0  0  0  0  0  0  0  0  0  0  0  0
  -24.4610  -13.2490   20.7270 C   0  0  0  0  0  0  0  0  0  0  0  0
  -24.9160  -11.8950   20.7190 C   0  0  0  0  0  0  0  0  0  0  0  0
  -26.5730  -13.1240   20.1330 N   0  0  0  0  0  0  0  0  0  0  0  0
  -26.2090  -11.8470   20.4180 N   0  0  0  0  0  0  0  0  0  0  0  0
  -24.1830  -10.6390   20.9200 C   0  0  0  0  0  0  0  0  0  0  0  0
  -24.5910   -9.6910   21.8840 C   0  0  0  0  0  3  0  0  0  0  0  0
  -23.8570   -8.5000   22.0720 C   0  0  0  0  0  3  0  0  0  0  0  0
  -22.7000   -8.2490   21.2970 C   0  0  0  0  0  0  0  0  0  0  0  0
  -22.3110   -9.1840   20.3210 C   0  0  0  0  0  3  0  0  0  0  0  0
  -23.0460  -10.3660   20.1320 C   0  0  0  0  0  3  0  0  0  0  0  0
  -21.9400   -7.1080   21.3940 O   0  0  0  0  0  0  0  0  0  0  0  0
  -21.8440   -6.4040   22.5670 C   0  0  0  0  0  0  0  0  0  0  0  0
  -21.3700   -6.9980   23.7580 C   0  0  0  0  0  3  0  0  0  0  0  0
  -21.2220   -6.2200   24.9230 C   0  0  0  0  0  3  0  0  0  0  0  0
  -21.5360   -4.8480   24.9000 C   0  0  0  0  0  0  0  0  0  0  0  0
  -22.0020   -4.2530   23.7150 C   0  0  0  0  0  3  0  0  0  0  0  0
  -22.1520   -5.0280   22.5520 C   0  0  0  0  0  0  0  0  0  0  0  0
  -22.5820   -4.4450   21.4070 F   0  0  0  0  0  0  0  0  0  0  0  0
  -21.3860   -4.0990   26.0170 F   0  0  0  0  0  0  0  0  0  0  0  0
  -23.0630  -13.7350   20.9800 C   0  0  0  0  0  0  0  0  0  0  0  0
  -22.3270  -13.0600   21.8550 N   0  0  0  0  0  0  0  0  0  0  0  0
  -22.6320  -14.7520   20.4350 O   0  0  0  0  0  0  0  0  0  0  0  0
  -22.6870  -12.2370   22.3160 H   0  0  0  0  0  0  0  0  0  0  0  0
  -21.3880  -13.3680   22.0670 H   0  0  0  0  0  0  0  0  0  0  0  0
  -25.7050  -15.3800   20.1540 N   0  0  0  0  0  0  0  0  0  0  0  0
  -24.9320  -16.0310   20.2380 H   0  0  0  0  0  0  0  0  0  0  0  0
  -26.5370  -15.8110   19.7700 H   0  0  0  0  0  0  0  0  0  0  0  0
  -27.9790  -20.6260   19.2680 C   0  0  0  0  0  1  0  0  0  0  0  0
  -29.1230  -21.2150   19.9520 N   0  0  0  0  0  0  0  0  0  0  0  0
  -29.4430  -22.6710   19.6590 C   0  0  0  0  0  3  0  0  0  0  0  0
  -28.4720  -23.8630   20.1350 C   0  0  0  0  0  3  0  0  0  0  0  0
  -28.7370  -25.3070   19.4790 C   0  0  0  0  0  2  0  0  0  0  0  0
  -28.5280  -26.5860   20.2000 O   0  0  0  0  0  0  0  0  0  0  0  0
  -24.6580  -31.8640   23.2070 C   0  0  0  0  0  0  0  0  0  0  0  0
  -27.3670  -27.3700   20.1200 C   0  0  0  0  0  0  0  0  0  0  0  0
  -23.4850  -30.4530   21.5520 C   0  0  0  0  0  3  0  0  0  0  0  0
  -24.9680  -28.9320   20.1210 C   0  0  0  0  0  0  0  0  0  0  0  0
  -26.0170  -30.8180   21.3790 C   0  0  0  0  0  2  0  0  0  0  0  0
  -26.1230  -29.4430   20.7260 C   0  0  0  0  0  0  0  0  0  0  0  0
  -27.3200  -28.6690   20.7200 C   0  0  0  0  0  3  0  0  0  0  0  0
  -26.1880  -26.9040   19.5000 C   0  0  0  0  0  3  0  0  0  0  0  0
  -25.0010  -27.6700   19.5020 C   0  0  0  0  0  3  0  0  0  0  0  0
  -23.7150  -29.7840   20.1690 C   0  0  0  0  0  2  0  0  0  0  0  0
  -24.7380  -31.0620   22.1030 N   0  0  0  0  0  0  0  0  0  0  0  0
  -23.5690  -32.1210   23.7390 O   0  0  0  0  0  0  0  0  0  0  0  0
  -22.8370  -29.4220   22.5060 C   0  0  0  0  0  0  0  0  0  0  0  0
  -21.5110  -29.2380   22.3840 N   0  0  0  0  0  0  0  0  0  0  0  0
  -23.5250  -28.7940   23.3160 O   0  0  0  0  0  0  0  0  0  0  0  0
  -21.0200  -29.7960   21.7000 H   0  0  0  0  0  0  0  0  0  0  0  0
  -18.1410  -28.0280   22.8930 C   0  0  0  0  0  0  0  0  0  0  0  0
  -20.7010  -28.2870   23.1450 C   0  0  0  0  0  3  0  0  0  0  0  0
  -20.7990  -26.8650   22.5410 C   0  0  0  0  0  2  0  0  0  0  0  0
  -19.6890  -26.5590   21.5330 C   0  0  0  0  0  2  0  0  0  0  0  0
  -18.3120  -26.6900   22.1910 C   0  0  0  0  0  2  0  0  0  0  0  0
  -19.2630  -28.7850   23.3240 C   0  0  0  0  0  0  0  0  0  0  0  0
  -19.0480  -30.0360   23.9420 C   0  0  0  0  0  3  0  0  0  0  0  0
  -17.7430  -30.5320   24.1280 C   0  0  0  0  0  3  0  0  0  0  0  0
  -16.6370  -29.7730   23.7100 C   0  0  0  0  0  3  0  0  0  0  0  0
  -16.8350  -28.5220   23.0990 C   0  0  0  0  0  3  0  0  0  0  0  0
  -25.9280  -32.5130   23.8400 C   0  0  0  0  0  3  0  0  0  0  0  0
  -25.5990  -33.9070   24.1670 N   0  0  0  0  0  0  0  0  0  0  0  0
  -25.9280  -34.9640   23.4120 C   0  0  0  0  0  0  0  0  0  0  0  0
  -26.6100  -34.8690   22.3880 O   0  0  0  0  0  0  0  0  0  0  0  0
  -24.9930  -34.0540   24.9600 H   0  0  0  0  0  0  0  0  0  0  0  0
  -24.1860  -36.7410   23.0380 C   0  0  0  0  0  1  0  0  0  0  0  0
  -25.4210  -36.3470   23.8650 C   0  0  0  0  0  3  0  0  0  0  0  0
  -27.5350  -37.2550   24.7260 C   0  0  0  0  0  1  0  0  0  0  0  0
  -26.4440  -37.4120   23.7680 N   0  0  0  0  0  0  0  0  0  0  0  0
  -26.0290  -38.3280   23.9070 H   0  0  0  0  0  0  0  0  0  0  0  0
  -26.4450  -31.7480   25.1210 C   0  0  1  0  0  0  0  0  0  0  0  0
  -25.3440  -31.4980   26.1770 C   0  0  0  0  0  1  0  0  0  0  0  0
  -27.0480  -30.3780   24.7320 C   0  0  0  0  0  1  0  0  0  0  0  0
  -27.5800  -32.5570   25.7920 C   0  0  0  0  0  1  0  0  0  0  0  0
  1  2  1  0
  3  1  2  0
  4  2  2  0
  5  6  2  0
  5  3  1  0
  6  4  1  0
  7  9  2  0
  8  9  2  0
  9 18  1  1
  9  6  1  0
 10 18  1  0
 11 16  1  0
 12 13  1  0
 12 11  1  0
 14 13  1  0
 14 23  1  0
 14 15  1  0
 16 10  1  0
 16 15  1  0
 17 10  2  0
 18 19  1  0
 20 21  2  0
 21 40  1  0
 22 21  1  0
 22 25  1  0
 23 20  1  0
 23 24  1  0
 24 22  2  0
 25 26  1  0
 26 27  2  0
 28 31  1  0
 28 27  1  0
 29 28  2  0
 30 29  1  0
 30 25  2  0
 31 32  1  0
 32 33  1  0
 33 34  2  0
 35 34  1  0
 35 39  1  0
 36 35  2  0
 37 32  2  0
 37 36  1  0
 38 37  1  0
 40 41  1  0
 41 44  1  0
 41 43  1  0
 42 40  2  0
 45 46  1  0
 45 20  1  0
 47 45  1  0
 48 49  1  0
 49  5  1  0
 50 49  1  0
 50 51  2  0
 52 51  1  0
 52 53  1  0
 54 65  2  0
 55 53  1  0
 55 60  1  0
 56 64  1  0
 56 66  1  0
 57 63  1  0
 57 59  1  0
 58 64  1  0
 59 58  1  0
 60 59  2  0
 61 62  1  0
 61 55  2  0
 62 57  2  0
 63 56  1  0
 64 54  1  0
 66 68  2  0
 67 66  1  0
 69 67  1  0
 70 79  2  0
 70 75  1  0
 71 67  1  0
 71 75  1  0
 72 71  1  0
 73 74  1  0
 73 72  1  0
 74 70  1  0
 75 76  2  0
 76 77  1  0
 78 77  2  0
 79 78  1  0
 80 54  1  0
 80 81  1  0
 80 90  1  0
 81 84  1  0
 82 86  1  0
 82 81  1  0
 83 82  2  0
 86 85  1  0
 88 86  1  0
 88 89  1  0
 88 87  1  0
 90 93  1  1
 90 91  1  0
 92 90  1  0
M  ISO  4  10 100  18 100  52 101  53 101
M  END
>  <TORSDO>  (87) 
F 21

>  <SCORE>  (87) 
-13.032

>  <name>  (87) 
87

>  <ligand_id>  (87) 
87

>  <original_smiles>  (87) 
[H]c1c([H])c([H])c(S(=O)(=O)N([H])C(=O)N2C([H])([H])C([H])([H])C([H])([H])C([H])(n3nc(-c4c([H])c([H])c(Oc5c([H])c([H])c(F)c([H])c5F)c([H])c4[H])c(C(=O)N([H])[H])c3N([H])[H])C2([H])[H])c(N(C([H])([H])[H])C([H])([H])C([H])([H])C([H])([H])Oc2c([H])c([H])c3c(c2[H])C([H])([H])N(C(=O)C([H])(N([H])C(=O)C([H])(N([H])C([H])([H])[H])C([H])([H])[H])C(C([H])([H])[H])(C([H])([H])[H])C([H])([H])[H])C([H])(C(=O)N([H])C2([H])c4c([H])c([H])c([H])c([H])c4C([H])([H])C([H])([H])C2([H])[H])C3([H])[H])c1[H]

>  <smiles>  (87) 
[H]c1c([H])c([H])c(S(=O)(=O)N([H])C(=O)N2C([H])([H])C([H])([H])C([H])([H])C([H])(n3nc(-c4c([H])c([H])c(Oc5c([H])c([H])c(F)c([H])c5F)c([H])c4[H])c(C(=O)N([H])[H])c3N([H])[H])C2([H])[H])c(N(C([H])([H])[H])C([H])([H])C([H])([H])C([H])([H])Oc2c([H])c([H])c3c(c2[H])C([H])([H])N(C(=O)C([H])(N([H])C(=O)C([H])(N([H])C([H])([H])[H])C([H])([H])[H])C(C([H])([H])[H])(C([H])([H])[H])C([H])([H])[H])C([H])(C(=O)N([H])C2([H])c4c([H])c([H])c([H])c([H])c4C([H])([H])C([H])([H])C2([H])[H])C3([H])[H])c1[H]

$$$$
88:0:0
     RDKit          3D

 90 98  0  0  1  0  0  0  0  0999 V2000
  -30.7620  -19.9330   19.1990 C   0  0  0  0  0  3  0  0  0  0  0  0
  -28.5300  -19.1730   18.9170 C   0  0  0  0  0  3  0  0  0  0  0  0
  -30.3830  -21.2560   18.8120 C   0  0  0  0  0  3  0  0  0  0  0  0
  -28.1470  -20.5200   18.5280 C   0  0  0  0  0  3  0  0  0  0  0  0
  -29.8670  -18.8290   19.2850 C   0  0  0  0  0  0  0  0  0  0  0  0
  -29.0550  -21.6290   18.5090 C   0  0  0  0  0  0  0  0  0  0  0  0
  -29.4190  -23.3990   16.8210 C   0  0  0  0  0  1  0  0  0  0  0  0
  -28.7860  -22.9920   18.0950 N   0  0  0  0  0  0  0  0  0  0  0  0
  -27.9410  -24.0640   18.7580 C   0  0  0  0  0  2  0  0  0  0  0  0
  -28.6190  -25.0930   19.8100 C   0  0  0  0  0  2  0  0  0  0  0  0
  -28.4290  -26.5800   19.9790 O   0  0  0  0  0  0  0  0  0  0  0  0
  -24.5840  -31.8920   23.2350 C   0  0  0  0  0  0  0  0  0  0  0  0
  -27.2360  -27.3310   20.1100 C   0  0  0  0  0  0  0  0  0  0  0  0
  -23.3820  -30.4790   21.6010 C   0  0  0  0  0  3  0  0  0  0  0  0
  -24.8360  -28.8960   20.2310 C   0  0  0  0  0  0  0  0  0  0  0  0
  -25.9280  -30.8170   21.4300 C   0  0  0  0  0  2  0  0  0  0  0  0
  -26.0140  -29.4210   20.7820 C   0  0  0  0  0  0  0  0  0  0  0  0
  -27.2070  -28.6380   20.7230 C   0  0  0  0  0  3  0  0  0  0  0  0
  -26.0400  -26.8800   19.5450 C   0  0  0  0  0  3  0  0  0  0  0  0
  -24.8560  -27.6180   19.6360 C   0  0  0  0  0  3  0  0  0  0  0  0
  -23.5950  -29.7500   20.2530 C   0  0  0  0  0  2  0  0  0  0  0  0
  -24.6520  -31.0720   22.1410 N   0  0  0  0  0  0  0  0  0  0  0  0
  -23.5010  -32.1690   23.7650 O   0  0  0  0  0  0  0  0  0  0  0  0
  -22.7100  -29.4870   22.5660 C   0  0  0  0  0  0  0  0  0  0  0  0
  -21.3850  -29.3060   22.4180 N   0  0  0  0  0  0  0  0  0  0  0  0
  -23.3810  -28.8740   23.4030 O   0  0  0  0  0  0  0  0  0  0  0  0
  -20.8910  -29.8140   21.6920 H   0  0  0  0  0  0  0  0  0  0  0  0
  -18.0310  -28.0830   22.9200 C   0  0  0  0  0  0  0  0  0  0  0  0
  -20.5820  -28.3700   23.1980 C   0  0  0  0  0  3  0  0  0  0  0  0
  -20.7080  -26.9340   22.6380 C   0  0  0  0  0  2  0  0  0  0  0  0
  -19.6190  -26.5920   21.6190 C   0  0  0  0  0  2  0  0  0  0  0  0
  -18.2280  -26.7310   22.2530 C   0  0  0  0  0  2  0  0  0  0  0  0
  -19.1410  -28.8590   23.3520 C   0  0  0  0  0  0  0  0  0  0  0  0
  -18.9080  -30.1240   23.9360 C   0  0  0  0  0  3  0  0  0  0  0  0
  -17.5980  -30.6110   24.0940 C   0  0  0  0  0  3  0  0  0  0  0  0
  -16.5040  -29.8360   23.6800 C   0  0  0  0  0  3  0  0  0  0  0  0
  -16.7170  -28.5770   23.0970 C   0  0  0  0  0  3  0  0  0  0  0  0
  -25.8640  -32.5240   23.8680 C   0  0  0  0  0  3  0  0  0  0  0  0
  -26.3830  -31.7640   25.1600 C   0  0  1  0  0  0  0  0  0  0  0  0
  -25.2820  -31.5470   26.2240 C   0  0  0  0  0  1  0  0  0  0  0  0
  -26.9650  -30.3700   24.7940 C   0  0  0  0  0  1  0  0  0  0  0  0
  -27.5260  -32.5620   25.8200 C   0  0  0  0  0  1  0  0  0  0  0  0
  -25.5510  -33.9280   24.1980 N   0  0  0  0  0  0  0  0  0  0  0  0
  -25.8900  -34.9790   23.4350 C   0  0  0  0  0  0  0  0  0  0  0  0
  -26.5630  -34.8680   22.4030 O   0  0  0  0  0  0  0  0  0  0  0  0
  -24.9640  -34.0940   25.0010 H   0  0  0  0  0  0  0  0  0  0  0  0
  -24.1810  -36.7890   23.0500 C   0  0  0  0  0  1  0  0  0  0  0  0
  -25.4050  -36.3710   23.8790 C   0  0  0  0  0  3  0  0  0  0  0  0
  -27.5270  -37.2620   24.7300 C   0  0  0  0  0  1  0  0  0  0  0  0
  -26.4390  -37.4210   23.7740 N   0  0  0  0  0  0  0  0  0  0  0  0
  -26.0350  -38.3360   23.9090 H   0  0  0  0  0  0  0  0  0  0  0  0
  -30.4820  -17.4440   19.8480 C   0  0  0  0  0  2  0  0  0  0  0  0
  -30.5770  -14.8530   20.1690 C   0  0  0  0  0  0  0  0  0  0  0  0
  -30.3650  -12.5310   19.3130 C   0  0  0  0  0  2  0  0  0  0  0  0
  -29.4090  -12.5010   18.1030 C   0  0  0  0  0  2  0  0  0  0  0  0
  -27.9570  -12.3200   18.5780 C   0  0  0  0  0  2  0  0  0  0  0  0
  -27.5710  -13.2850   19.7300 C   0  0  0  0  0  3  0  0  0  0  0  0
  -28.6500  -13.3170   20.8330 C   0  0  0  0  0  2  0  0  0  0  0  0
  -29.9220  -13.6460   20.1770 N   0  0  0  0  0  0  0  0  0  0  0  0
  -31.8050  -14.8680   20.0620 O   0  0  0  0  0  0  0  0  0  0  0  0
  -29.8590  -16.0430   19.9780 N   0  0  0  0  0  0  0  0  0  0  0  0
  -28.8590  -15.9900   19.9340 H   0  0  0  0  0  0  0  0  0  0  0  0
  -25.1970  -13.8890   20.4880 C   0  0  0  0  0  0  0  0  0  0  0  0
  -24.1280  -13.1200   20.8580 C   0  0  0  0  0  0  0  0  0  0  0  0
  -24.5870  -11.7670   20.8340 C   0  0  0  0  0  0  0  0  0  0  0  0
  -26.2380  -13.0050   20.2540 N   0  0  0  0  0  0  0  0  0  0  0  0
  -25.8790  -11.7270   20.5320 N   0  0  0  0  0  0  0  0  0  0  0  0
  -23.8570  -10.5070   21.0230 C   0  0  0  0  0  0  0  0  0  0  0  0
  -24.2780   -9.5450   21.9680 C   0  0  0  0  0  3  0  0  0  0  0  0
  -23.5480   -8.3500   22.1440 C   0  0  0  0  0  3  0  0  0  0  0  0
  -22.3840   -8.1070   21.3770 C   0  0  0  0  0  0  0  0  0  0  0  0
  -21.9830   -9.0580   20.4210 C   0  0  0  0  0  3  0  0  0  0  0  0
  -22.7140  -10.2460   20.2420 C   0  0  0  0  0  3  0  0  0  0  0  0
  -21.6270   -6.9640   21.4630 O   0  0  0  0  0  0  0  0  0  0  0  0
  -21.5580   -6.2330   22.6220 C   0  0  0  0  0  0  0  0  0  0  0  0
  -21.1010   -6.7950   23.8330 C   0  0  0  0  0  3  0  0  0  0  0  0
  -20.9800   -5.9890   24.9820 C   0  0  0  0  0  3  0  0  0  0  0  0
  -21.3080   -4.6220   24.9220 C   0  0  0  0  0  0  0  0  0  0  0  0
  -21.7590   -4.0590   23.7150 C   0  0  0  0  0  3  0  0  0  0  0  0
  -21.8800   -4.8620   22.5680 C   0  0  0  0  0  0  0  0  0  0  0  0
  -22.2960   -4.3090   21.4030 F   0  0  0  0  0  0  0  0  0  0  0  0
  -21.1860   -3.8450   26.0240 F   0  0  0  0  0  0  0  0  0  0  0  0
  -22.7310  -13.6020   21.1160 C   0  0  0  0  0  0  0  0  0  0  0  0
  -21.9920  -12.9060   21.9740 N   0  0  0  0  0  0  0  0  0  0  0  0
  -22.3000  -14.6300   20.5950 O   0  0  0  0  0  0  0  0  0  0  0  0
  -22.3540  -12.0750   22.4180 H   0  0  0  0  0  0  0  0  0  0  0  0
  -21.0530  -13.2100   22.1900 H   0  0  0  0  0  0  0  0  0  0  0  0
  -25.3650  -15.2600   20.3030 N   0  0  0  0  0  0  0  0  0  0  0  0
  -24.6000  -15.9160   20.4190 H   0  0  0  0  0  0  0  0  0  0  0  0
  -26.2120  -15.6970   19.9680 H   0  0  0  0  0  0  0  0  0  0  0  0
  1  5  1  0
  2  5  2  0
  3  1  2  0
  4  2  1  0
  5 52  1  0
  6  4  2  0
  6  3  1  0
  7  8  1  0
  8  6  1  0
  8  9  1  0
  9 10  1  0
 10 11  1  0
 11 13  1  0
 12 23  2  0
 13 18  1  0
 14 22  1  0
 14 24  1  0
 15 21  1  0
 15 17  1  0
 16 22  1  0
 17 16  1  0
 18 17  2  0
 19 20  1  0
 19 13  2  0
 20 15  2  0
 21 14  1  0
 22 12  1  0
 24 26  2  0
 25 24  1  0
 27 25  1  0
 28 37  2  0
 28 33  1  0
 29 25  1  0
 29 33  1  0
 30 29  1  0
 31 32  1  0
 31 30  1  0
 32 28  1  0
 33 34  2  0
 34 35  1  0
 36 35  2  0
 37 36  1  0
 38 12  1  0
 38 43  1  0
 38 39  1  0
 39 42  1  1
 39 40  1  0
 41 39  1  0
 43 46  1  0
 44 48  1  0
 44 43  1  0
 45 44  2  0
 48 47  1  0
 50 48  1  0
 50 51  1  0
 50 49  1  0
 52 61  1  0
 53 59  1  0
 54 59  1  0
 55 56  1  0
 55 54  1  0
 57 56  1  0
 57 66  1  0
 57 58  1  0
 59 58  1  0
 60 53  2  0
 61 53  1  0
 62 61  1  0
 63 64  2  0
 64 83  1  0
 65 64  1  0
 65 68  1  0
 66 63  1  0
 66 67  1  0
 67 65  2  0
 68 69  1  0
 69 70  2  0
 71 74  1  0
 71 70  1  0
 72 71  2  0
 73 72  1  0
 73 68  2  0
 74 75  1  0
 75 76  1  0
 76 77  2  0
 78 77  1  0
 78 82  1  0
 79 78  2  0
 80 75  2  0
 80 79  1  0
 81 80  1  0
 83 84  1  0
 84 87  1  0
 84 86  1  0
 85 83  2  0
 88 89  1  0
 88 63  1  0
 90 88  1  0
M  ISO  4  10 101  11 101  53 100  61 100
M  END
>  <TORSDO>  (88) 
F 20

>  <SCORE>  (88) 
-13.670

>  <name>  (88) 
88

>  <ligand_id>  (88) 
88

>  <original_smiles>  (88) 
[H]c1c([H])c([H])c2c(c1[H])C([H])([H])C([H])([H])C([H])([H])C2([H])N([H])C(=O)C1([H])N(C(=O)C([H])(N([H])C(=O)C([H])(N([H])C([H])([H])[H])C([H])([H])[H])C(C([H])([H])[H])(C([H])([H])[H])C([H])([H])[H])C([H])([H])c2c([H])c(OC([H])([H])C([H])([H])N(c3c([H])c([H])c(C([H])([H])N([H])C(=O)N4C([H])([H])C([H])([H])C([H])([H])C([H])(n5nc(-c6c([H])c([H])c(Oc7c([H])c([H])c(F)c([H])c7F)c([H])c6[H])c(C(=O)N([H])[H])c5N([H])[H])C4([H])[H])c([H])c3[H])C([H])([H])[H])c([H])c([H])c2C1([H])[H]

>  <smiles>  (88) 
[H]c1c([H])c([H])c2c(c1[H])C([H])([H])C([H])([H])C([H])([H])C2([H])N([H])C(=O)C1([H])N(C(=O)C([H])(N([H])C(=O)C([H])(N([H])C([H])([H])[H])C([H])([H])[H])C(C([H])([H])[H])(C([H])([H])[H])C([H])([H])[H])C([H])([H])c2c([H])c(OC([H])([H])C([H])([H])N(c3c([H])c([H])c(C([H])([H])N([H])C(=O)N4C([H])([H])C([H])([H])C([H])([H])C([H])(n5nc(-c6c([H])c([H])c(Oc7c([H])c([H])c(F)c([H])c7F)c([H])c6[H])c(C(=O)N([H])[H])c5N([H])[H])C4([H])[H])c([H])c3[H])C([H])([H])[H])c([H])c([H])c2C1([H])[H]

$$$$
89:0:0
     RDKit          3D

 93101  0  0  1  0  0  0  0  0999 V2000
  -31.2740  -18.9690   20.0930 C   0  0  0  0  0  3  0  0  0  0  0  0
  -31.0780  -20.3370   19.7780 C   0  0  0  0  0  3  0  0  0  0  0  0
  -30.2750  -19.3440   22.2680 C   0  0  0  0  0  3  0  0  0  0  0  0
  -30.8620  -18.4470   21.3410 C   0  0  0  0  0  0  0  0  0  0  0  0
  -30.4620  -21.2230   20.6910 C   0  0  0  0  0  0  0  0  0  0  0  0
  -30.0750  -20.7100   21.9530 C   0  0  0  0  0  0  0  0  0  0  0  0
  -29.5210  -21.5340   22.8770 F   0  0  0  0  0  0  0  0  0  0  0  0
  -31.0280  -16.9410   21.6910 C   0  0  0  0  0  2  0  0  0  0  0  0
  -30.7470  -14.8280   20.3740 C   0  0  0  0  0  0  0  0  0  0  0  0
  -30.3940  -12.6960   19.1400 C   0  0  0  0  0  2  0  0  0  0  0  0
  -29.4160  -12.8890   17.9640 C   0  0  0  0  0  2  0  0  0  0  0  0
  -27.9650  -12.6690   18.4340 C   0  0  0  0  0  2  0  0  0  0  0  0
  -27.6420  -13.4670   19.7190 C   0  0  0  0  0  3  0  0  0  0  0  0
  -28.7460  -13.2890   20.7980 C   0  0  0  0  0  2  0  0  0  0  0  0
  -30.0290  -13.6680   20.1930 N   0  0  0  0  0  0  0  0  0  0  0  0
  -31.9040  -14.8990   19.9500 O   0  0  0  0  0  0  0  0  0  0  0  0
  -30.1800  -15.9300   20.9780 N   0  0  0  0  0  0  0  0  0  0  0  0
  -25.2660  -14.0310   20.5340 C   0  0  0  0  0  0  0  0  0  0  0  0
  -24.2220  -13.2370   20.9140 C   0  0  0  0  0  0  0  0  0  0  0  0
  -24.7060  -11.8960   20.8450 C   0  0  0  0  0  0  0  0  0  0  0  0
  -26.3160  -13.1710   20.2440 N   0  0  0  0  0  0  0  0  0  0  0  0
  -25.9870  -11.8810   20.5000 N   0  0  0  0  0  0  0  0  0  0  0  0
  -24.0110  -10.6200   21.0250 C   0  0  0  0  0  0  0  0  0  0  0  0
  -24.4610   -9.6640   21.9610 C   0  0  0  0  0  3  0  0  0  0  0  0
  -23.7650   -8.4490   22.1290 C   0  0  0  0  0  3  0  0  0  0  0  0
  -22.6080   -8.1820   21.3590 C   0  0  0  0  0  0  0  0  0  0  0  0
  -22.1790   -9.1270   20.4110 C   0  0  0  0  0  3  0  0  0  0  0  0
  -22.8760  -10.3350   20.2410 C   0  0  0  0  0  3  0  0  0  0  0  0
  -21.8820   -7.0190   21.4390 O   0  0  0  0  0  0  0  0  0  0  0  0
  -21.8050   -6.2950   22.6010 C   0  0  0  0  0  0  0  0  0  0  0  0
  -21.2910   -6.8530   23.7920 C   0  0  0  0  0  3  0  0  0  0  0  0
  -21.1680   -6.0540   24.9470 C   0  0  0  0  0  3  0  0  0  0  0  0
  -21.5450   -4.6980   24.9100 C   0  0  0  0  0  0  0  0  0  0  0  0
  -22.0500   -4.1400   23.7220 C   0  0  0  0  0  3  0  0  0  0  0  0
  -22.1770   -4.9370   22.5720 C   0  0  0  0  0  0  0  0  0  0  0  0
  -22.6460   -4.3900   21.4240 F   0  0  0  0  0  0  0  0  0  0  0  0
  -21.4150   -3.9270   26.0150 F   0  0  0  0  0  0  0  0  0  0  0  0
  -22.8260  -13.6850   21.2300 C   0  0  0  0  0  0  0  0  0  0  0  0
  -22.1300  -12.9610   22.0990 N   0  0  0  0  0  0  0  0  0  0  0  0
  -22.3590  -14.7120   20.7390 O   0  0  0  0  0  0  0  0  0  0  0  0
  -22.5190  -12.1320   22.5240 H   0  0  0  0  0  0  0  0  0  0  0  0
  -21.1940  -13.2490   22.3500 H   0  0  0  0  0  0  0  0  0  0  0  0
  -25.3970  -15.4080   20.3910 N   0  0  0  0  0  0  0  0  0  0  0  0
  -24.6310  -16.0480   20.5650 H   0  0  0  0  0  0  0  0  0  0  0  0
  -26.2410  -15.8660   20.0760 H   0  0  0  0  0  0  0  0  0  0  0  0
  -28.8540  -16.4780   20.6220 C   0  0  0  0  0  2  0  0  0  0  0  0
  -27.7340  -17.3490   18.5020 C   0  0  0  0  0  2  0  0  0  0  0  0
  -28.8330  -17.0830   19.2230 C   0  0  0  0  0  3  0  0  0  0  0  0
  -30.3250  -22.5640   20.3590 O   0  0  0  0  0  0  0  0  0  0  0  0
  -28.9880  -23.0760   20.2210 C   0  0  0  0  0  2  0  0  0  0  0  0
  -28.7940  -24.5200   20.7760 C   0  0  0  0  0  2  0  0  0  0  0  0
  -29.1620  -25.6850   19.8180 C   0  0  0  0  0  2  0  0  0  0  0  0
  -28.9370  -27.0000   20.3760 O   0  0  0  0  0  0  0  0  0  0  0  0
  -24.7470  -31.9740   23.2900 C   0  0  0  0  0  0  0  0  0  0  0  0
  -27.7090  -27.6430   20.3040 C   0  0  0  0  0  0  0  0  0  0  0  0
  -23.6740  -30.5470   21.5780 C   0  0  0  0  0  3  0  0  0  0  0  0
  -25.2510  -29.0710   20.2110 C   0  0  0  0  0  0  0  0  0  0  0  0
  -26.1910  -30.9960   21.5050 C   0  0  0  0  0  2  0  0  0  0  0  0
  -26.3570  -29.6300   20.8610 C   0  0  0  0  0  0  0  0  0  0  0  0
  -27.5830  -28.9220   20.9050 C   0  0  0  0  0  3  0  0  0  0  0  0
  -26.5770  -27.1000   19.6550 C   0  0  0  0  0  3  0  0  0  0  0  0
  -25.3560  -27.8070   19.6060 C   0  0  0  0  0  3  0  0  0  0  0  0
  -23.9740  -29.8860   20.2040 C   0  0  0  0  0  2  0  0  0  0  0  0
  -24.8860  -31.1880   22.1830 N   0  0  0  0  0  0  0  0  0  0  0  0
  -23.6330  -32.2000   23.7820 O   0  0  0  0  0  0  0  0  0  0  0  0
  -23.0150  -29.4940   22.4970 C   0  0  0  0  0  0  0  0  0  0  0  0
  -21.7010  -29.2770   22.3160 N   0  0  0  0  0  0  0  0  0  0  0  0
  -23.6830  -28.8770   23.3300 O   0  0  0  0  0  0  0  0  0  0  0  0
  -21.2200  -29.8390   21.6270 H   0  0  0  0  0  0  0  0  0  0  0  0
  -18.3450  -27.9870   22.6690 C   0  0  0  0  0  0  0  0  0  0  0  0
  -20.8850  -28.3000   23.0380 C   0  0  0  0  0  3  0  0  0  0  0  0
  -21.0410  -26.8860   22.4340 C   0  0  0  0  0  2  0  0  0  0  0  0
  -19.9860  -26.5600   21.3740 C   0  0  0  0  0  2  0  0  0  0  0  0
  -18.5780  -26.6590   21.9700 C   0  0  0  0  0  2  0  0  0  0  0  0
  -19.4300  -28.7640   23.1570 C   0  0  0  0  0  0  0  0  0  0  0  0
  -19.1620  -30.0090   23.7670 C   0  0  0  0  0  3  0  0  0  0  0  0
  -17.8410  -30.4780   23.8980 C   0  0  0  0  0  3  0  0  0  0  0  0
  -16.7690  -29.6960   23.4330 C   0  0  0  0  0  3  0  0  0  0  0  0
  -17.0220  -28.4530   22.8250 C   0  0  0  0  0  3  0  0  0  0  0  0
  -25.9770  -32.6480   23.9750 C   0  0  0  0  0  3  0  0  0  0  0  0
  -25.6130  -34.0410   24.2700 N   0  0  0  0  0  0  0  0  0  0  0  0
  -25.9480  -35.0920   23.5110 C   0  0  0  0  0  0  0  0  0  0  0  0
  -26.6670  -34.9930   22.5120 O   0  0  0  0  0  0  0  0  0  0  0  0
  -24.9790  -34.1920   25.0410 H   0  0  0  0  0  0  0  0  0  0  0  0
  -24.1750  -36.8190   23.0660 C   0  0  0  0  0  1  0  0  0  0  0  0
  -25.4000  -36.4710   23.9270 C   0  0  0  0  0  3  0  0  0  0  0  0
  -27.4720  -37.4420   24.8180 C   0  0  0  0  0  1  0  0  0  0  0  0
  -26.3990  -37.5570   23.8330 N   0  0  0  0  0  0  0  0  0  0  0  0
  -25.9570  -38.4650   23.9480 H   0  0  0  0  0  0  0  0  0  0  0  0
  -26.4470  -31.9000   25.2830 C   0  0  1  0  0  0  0  0  0  0  0  0
  -25.3030  -31.6360   26.2890 C   0  0  0  0  0  1  0  0  0  0  0  0
  -27.0930  -30.5400   24.9340 C   0  0  0  0  0  1  0  0  0  0  0  0
  -27.5340  -32.7320   26.0030 C   0  0  0  0  0  1  0  0  0  0  0  0
  1  4  1  0
  2  1  2  0
  2  5  1  0
  4  8  1  0
  4  3  2  0
  5  6  2  0
  6  3  1  0
  6  7  1  0
  9 17  1  0
 10 15  1  0
 11 12  1  0
 11 10  1  0
 13 12  1  0
 13 21  1  0
 13 14  1  0
 15  9  1  0
 15 14  1  0
 16  9  2  0
 17  8  1  0
 18 19  2  0
 19 38  1  0
 20 19  1  0
 20 23  1  0
 21 22  1  0
 21 18  1  0
 22 20  2  0
 23 24  1  0
 24 25  2  0
 26 29  1  0
 26 25  1  0
 27 26  2  0
 28 27  1  0
 28 23  2  0
 29 30  1  0
 30 31  1  0
 31 32  2  0
 33 32  1  0
 33 37  1  0
 34 33  2  0
 35 30  2  0
 35 34  1  0
 36 35  1  0
 38 39  1  0
 39 42  1  0
 39 41  1  0
 40 38  2  0
 43 18  1  0
 43 44  1  0
 45 43  1  0
 46 17  1  0
 47 48  2  0
 48 46  1  0
 49  5  1  0
 50 49  1  0
 50 51  1  0
 52 53  1  0
 52 51  1  0
 54 65  2  0
 55 53  1  0
 55 60  1  0
 56 64  1  0
 56 66  1  0
 57 59  1  0
 58 64  1  0
 59 60  2  0
 59 58  1  0
 61 55  2  0
 62 61  1  0
 62 57  2  0
 63 57  1  0
 63 56  1  0
 64 54  1  0
 66 68  2  0
 67 66  1  0
 69 67  1  0
 70 79  2  0
 70 75  1  0
 71 67  1  0
 71 75  1  0
 72 71  1  0
 73 74  1  0
 73 72  1  0
 74 70  1  0
 75 76  2  0
 76 77  1  0
 78 77  2  0
 79 78  1  0
 80 54  1  0
 80 81  1  0
 80 90  1  0
 81 84  1  0
 82 86  1  0
 82 81  1  0
 83 82  2  0
 86 85  1  0
 88 86  1  0
 88 89  1  0
 88 87  1  0
 90 93  1  1
 90 91  1  0
 92 90  1  0
M  ISO  4   9 100  17 100  52 101  53 101
M  END
>  <TORSDO>  (89) 
F 23

>  <SCORE>  (89) 
-12.626

>  <name>  (89) 
89

>  <ligand_id>  (89) 
89

>  <original_smiles>  (89) 
[H]C([H])=C([H])C([H])([H])N(C(=O)N1C([H])([H])C([H])([H])C([H])([H])C([H])(n2nc(-c3c([H])c([H])c(Oc4c([H])c([H])c(F)c([H])c4F)c([H])c3[H])c(C(=O)N([H])[H])c2N([H])[H])C1([H])[H])C([H])([H])c1c([H])c([H])c(OC([H])([H])C([H])([H])C([H])([H])Oc2c([H])c([H])c3c(c2[H])C([H])([H])N(C(=O)C([H])(N([H])C(=O)C([H])(N([H])C([H])([H])[H])C([H])([H])[H])C(C([H])([H])[H])(C([H])([H])[H])C([H])([H])[H])C([H])(C(=O)N([H])C2([H])c4c([H])c([H])c([H])c([H])c4C([H])([H])C([H])([H])C2([H])[H])C3([H])[H])c(F)c1[H]

>  <smiles>  (89) 
[H]C([H])=C([H])C([H])([H])N(C(=O)N1C([H])([H])C([H])([H])C([H])([H])C([H])(n2nc(-c3c([H])c([H])c(Oc4c([H])c([H])c(F)c([H])c4F)c([H])c3[H])c(C(=O)N([H])[H])c2N([H])[H])C1([H])[H])C([H])([H])c1c([H])c([H])c(OC([H])([H])C([H])([H])C([H])([H])Oc2c([H])c([H])c3c(c2[H])C([H])([H])N(C(=O)C([H])(N([H])C(=O)C([H])(N([H])C([H])([H])[H])C([H])([H])[H])C(C([H])([H])[H])(C([H])([H])[H])C([H])([H])[H])C([H])(C(=O)N([H])C2([H])c4c([H])c([H])c([H])c([H])c4C([H])([H])C([H])([H])C2([H])[H])C3([H])[H])c(F)c1[H]

$$$$
90:0:0
     RDKit          3D

 90 98  0  0  1  0  0  0  0  0999 V2000
  -31.0900  -17.8700   19.9420 C   0  0  0  0  0  3  0  0  0  0  0  0
  -31.0830  -19.2900   19.8000 C   0  0  0  0  0  3  0  0  0  0  0  0
  -28.7210  -19.3530   20.2200 C   0  0  0  0  0  3  0  0  0  0  0  0
  -29.9060  -17.1450   20.2400 C   0  0  0  0  0  0  0  0  0  0  0  0
  -29.9050  -20.0780   19.9250 C   0  0  0  0  0  0  0  0  0  0  0  0
  -28.7270  -17.9340   20.3870 C   0  0  0  0  0  0  0  0  0  0  0  0
  -27.2410  -17.1560   20.7970 Cl  0  0  0  0  0  0  0  0  0  0  0  0
  -30.5490  -14.6370   19.9140 C   0  0  0  0  0  0  0  0  0  0  0  0
  -30.2370  -12.4090   18.8490 C   0  0  0  0  0  2  0  0  0  0  0  0
  -29.2080  -12.5570   17.7060 C   0  0  0  0  0  2  0  0  0  0  0  0
  -27.7700  -12.4040   18.2400 C   0  0  0  0  0  2  0  0  0  0  0  0
  -27.5090  -13.2570   19.5100 C   0  0  0  0  0  3  0  0  0  0  0  0
  -28.6460  -13.0840   20.5440 C   0  0  0  0  0  2  0  0  0  0  0  0
  -29.9140  -13.4210   19.8770 N   0  0  0  0  0  0  0  0  0  0  0  0
  -31.6700  -14.7840   19.4210 O   0  0  0  0  0  0  0  0  0  0  0  0
  -29.8090  -15.6880   20.3890 N   0  0  0  0  0  0  0  0  0  0  0  0
  -28.9500  -15.3920   20.8290 H   0  0  0  0  0  0  0  0  0  0  0  0
  -25.1790  -13.8640   20.4090 C   0  0  0  0  0  0  0  0  0  0  0  0
  -24.1340  -13.0970   20.8460 C   0  0  0  0  0  0  0  0  0  0  0  0
  -24.5790  -11.7420   20.7580 C   0  0  0  0  0  0  0  0  0  0  0  0
  -26.1960  -12.9800   20.0880 N   0  0  0  0  0  0  0  0  0  0  0  0
  -25.8430  -11.6970   20.3550 N   0  0  0  0  0  0  0  0  0  0  0  0
  -23.8520  -10.4850   20.9780 C   0  0  0  0  0  0  0  0  0  0  0  0
  -24.3380   -9.4980   21.8630 C   0  0  0  0  0  3  0  0  0  0  0  0
  -23.6110   -8.3050   22.0720 C   0  0  0  0  0  3  0  0  0  0  0  0
  -22.3850   -8.0940   21.3960 C   0  0  0  0  0  0  0  0  0  0  0  0
  -21.9190   -9.0700   20.5000 C   0  0  0  0  0  3  0  0  0  0  0  0
  -22.6450  -10.2540   20.2880 C   0  0  0  0  0  3  0  0  0  0  0  0
  -21.6250   -6.9560   21.5180 O   0  0  0  0  0  0  0  0  0  0  0  0
  -21.6420   -6.1970   22.6620 C   0  0  0  0  0  0  0  0  0  0  0  0
  -21.2990   -6.7390   23.9190 C   0  0  0  0  0  3  0  0  0  0  0  0
  -21.2630   -5.9070   25.0570 C   0  0  0  0  0  3  0  0  0  0  0  0
  -21.5580   -4.5360   24.9380 C   0  0  0  0  0  0  0  0  0  0  0  0
  -21.8950   -3.9940   23.6850 C   0  0  0  0  0  3  0  0  0  0  0  0
  -21.9330   -4.8230   22.5490 C   0  0  0  0  0  0  0  0  0  0  0  0
  -22.2370   -4.2920   21.3410 F   0  0  0  0  0  0  0  0  0  0  0  0
  -21.5160   -3.7360   26.0290 F   0  0  0  0  0  0  0  0  0  0  0  0
  -22.7680  -13.5860   21.2320 C   0  0  0  0  0  0  0  0  0  0  0  0
  -22.1050  -12.8870   22.1460 N   0  0  0  0  0  0  0  0  0  0  0  0
  -22.3010  -14.6200   20.7590 O   0  0  0  0  0  0  0  0  0  0  0  0
  -22.4970  -12.0500   22.5510 H   0  0  0  0  0  0  0  0  0  0  0  0
  -21.1910  -13.1950   22.4490 H   0  0  0  0  0  0  0  0  0  0  0  0
  -25.3370  -15.2340   20.2360 N   0  0  0  0  0  0  0  0  0  0  0  0
  -24.5960  -15.8930   20.4500 H   0  0  0  0  0  0  0  0  0  0  0  0
  -26.1880  -15.6870   19.9280 H   0  0  0  0  0  0  0  0  0  0  0  0
  -30.0120  -21.4800   19.7880 O   0  0  0  0  0  0  0  0  0  0  0  0
  -28.8630  -22.3870   19.7400 C   0  0  0  0  0  3  0  0  0  0  0  0
  -29.2230  -23.9470   19.7530 C   0  0  0  0  0  3  0  0  0  0  0  0
  -28.0460  -24.9850   19.5050 C   0  0  0  0  0  2  0  0  0  0  0  0
  -28.2630  -26.4430   19.6740 O   0  0  0  0  0  0  0  0  0  0  0  0
  -24.4980  -31.6200   23.0230 C   0  0  0  0  0  0  0  0  0  0  0  0
  -27.1280  -27.2740   19.6890 C   0  0  0  0  0  0  0  0  0  0  0  0
  -23.2890  -30.2960   21.3270 C   0  0  0  0  0  3  0  0  0  0  0  0
  -24.7390  -28.8480   19.8000 C   0  0  0  0  0  0  0  0  0  0  0  0
  -25.8220  -30.6610   21.1270 C   0  0  0  0  0  2  0  0  0  0  0  0
  -25.9110  -29.3220   20.4040 C   0  0  0  0  0  0  0  0  0  0  0  0
  -27.1080  -28.5480   20.3370 C   0  0  0  0  0  3  0  0  0  0  0  0
  -25.9270  -26.8560   19.0670 C   0  0  0  0  0  3  0  0  0  0  0  0
  -24.7490  -27.6210   19.1240 C   0  0  0  0  0  3  0  0  0  0  0  0
  -23.4910  -29.7010   19.9090 C   0  0  0  0  0  2  0  0  0  0  0  0
  -24.5560  -30.8730   21.8820 N   0  0  0  0  0  0  0  0  0  0  0  0
  -23.4180  -31.8540   23.5860 O   0  0  0  0  0  0  0  0  0  0  0  0
  -22.6540  -29.2190   22.2380 C   0  0  0  0  0  0  0  0  0  0  0  0
  -21.3250  -29.0420   22.1310 N   0  0  0  0  0  0  0  0  0  0  0  0
  -23.3530  -28.5480   23.0010 O   0  0  0  0  0  0  0  0  0  0  0  0
  -20.8200  -29.6370   21.4900 H   0  0  0  0  0  0  0  0  0  0  0  0
  -17.9610  -27.8230   22.6560 C   0  0  0  0  0  0  0  0  0  0  0  0
  -20.5270  -28.0580   22.8620 C   0  0  0  0  0  3  0  0  0  0  0  0
  -20.6050  -26.6670   22.1900 C   0  0  0  0  0  2  0  0  0  0  0  0
  -19.4700  -26.4150   21.1920 C   0  0  0  0  0  2  0  0  0  0  0  0
  -18.1090  -26.5220   21.8880 C   0  0  0  0  0  2  0  0  0  0  0  0
  -19.0950  -28.5520   23.1000 C   0  0  0  0  0  0  0  0  0  0  0  0
  -18.9000  -29.7740   23.7810 C   0  0  0  0  0  3  0  0  0  0  0  0
  -17.6040  -30.2670   24.0200 C   0  0  0  0  0  3  0  0  0  0  0  0
  -16.4830  -29.5330   23.5910 C   0  0  0  0  0  3  0  0  0  0  0  0
  -16.6630  -28.3130   22.9150 C   0  0  0  0  0  3  0  0  0  0  0  0
  -25.7800  -32.2350   23.6620 C   0  0  0  0  0  3  0  0  0  0  0  0
  -26.3140  -31.4130   24.8990 C   0  0  1  0  0  0  0  0  0  0  0  0
  -25.2330  -31.1250   25.9670 C   0  0  0  0  0  1  0  0  0  0  0  0
  -26.8990  -30.0550   24.4430 C   0  0  0  0  0  1  0  0  0  0  0  0
  -27.4670  -32.1830   25.5820 C   0  0  0  0  0  1  0  0  0  0  0  0
  -25.4630  -33.6140   24.0550 N   0  0  0  0  0  0  0  0  0  0  0  0
  -25.7690  -34.7020   23.3360 C   0  0  0  0  0  0  0  0  0  0  0  0
  -26.4190  -34.6490   22.2880 O   0  0  0  0  0  0  0  0  0  0  0  0
  -24.8820  -33.7290   24.8740 H   0  0  0  0  0  0  0  0  0  0  0  0
  -24.0060  -36.4820   23.1030 C   0  0  0  0  0  1  0  0  0  0  0  0
  -25.2770  -36.0650   23.8610 C   0  0  0  0  0  3  0  0  0  0  0  0
  -27.4210  -36.9520   24.6650 C   0  0  0  0  0  1  0  0  0  0  0  0
  -26.2910  -37.1370   23.7570 N   0  0  0  0  0  0  0  0  0  0  0  0
  -25.8760  -38.0450   23.9470 H   0  0  0  0  0  0  0  0  0  0  0  0
  1  4  1  0
  2  5  1  0
  2  1  2  0
  3  6  1  0
  4  6  2  0
  4 16  1  0
  5  3  2  0
  6  7  1  0
  8 16  1  0
  9 14  1  0
 10 11  1  0
 10  9  1  0
 12 11  1  0
 12 21  1  0
 12 13  1  0
 14  8  1  0
 14 13  1  0
 15  8  2  0
 16 17  1  0
 18 19  2  0
 19 38  1  0
 20 19  1  0
 20 23  1  0
 21 22  1  0
 21 18  1  0
 22 20  2  0
 23 24  1  0
 24 25  2  0
 26 29  1  0
 26 25  1  0
 27 26  2  0
 28 27  1  0
 28 23  2  0
 29 30  1  0
 30 31  1  0
 31 32  2  0
 33 32  1  0
 33 37  1  0
 34 33  2  0
 35 30  2  0
 35 34  1  0
 36 35  1  0
 38 39  1  0
 39 42  1  0
 39 41  1  0
 40 38  2  0
 43 18  1  0
 43 44  1  0
 45 43  1  0
 46  5  1  0
 47 48  2  0
 47 46  1  0
 49 50  1  0
 49 48  1  0
 50 52  1  0
 51 62  2  0
 52 57  1  0
 53 61  1  0
 53 63  1  0
 54 60  1  0
 54 56  1  0
 55 61  1  0
 56 55  1  0
 57 56  2  0
 58 59  1  0
 58 52  2  0
 59 54  2  0
 60 53  1  0
 61 51  1  0
 63 65  2  0
 64 63  1  0
 66 64  1  0
 67 76  2  0
 67 72  1  0
 68 64  1  0
 68 72  1  0
 69 68  1  0
 70 71  1  0
 70 69  1  0
 71 67  1  0
 72 73  2  0
 73 74  1  0
 75 74  2  0
 76 75  1  0
 77 51  1  0
 77 82  1  0
 77 78  1  0
 78 81  1  1
 78 79  1  0
 80 78  1  0
 82 85  1  0
 83 87  1  0
 83 82  1  0
 84 83  2  0
 87 86  1  0
 89 87  1  0
 89 90  1  0
 89 88  1  0
M  ISO  4   8 100  16 100  49 101  50 101
M  END
>  <TORSDO>  (90) 
F 20

>  <SCORE>  (90) 
-12.886

>  <name>  (90) 
90

>  <ligand_id>  (90) 
90

>  <original_smiles>  (90) 
[H]c1c([H])c([H])c2c(c1[H])C([H])([H])C([H])([H])C([H])([H])C2([H])N([H])C(=O)C1([H])N(C(=O)C([H])(N([H])C(=O)C([H])(N([H])C([H])([H])[H])C([H])([H])[H])C(C([H])([H])[H])(C([H])([H])[H])C([H])([H])[H])C([H])([H])c2c([H])c(OC([H])([H])C([H])([H])C([H])([H])Oc3c([H])c([H])c(N([H])C(=O)N4C([H])([H])C([H])([H])C([H])([H])C([H])(n5nc(-c6c([H])c([H])c(Oc7c([H])c([H])c(F)c([H])c7F)c([H])c6[H])c(C(=O)N([H])[H])c5N([H])[H])C4([H])[H])c(Cl)c3[H])c([H])c([H])c2C1([H])[H]

>  <smiles>  (90) 
[H]c1c([H])c([H])c2c(c1[H])C([H])([H])C([H])([H])C([H])([H])C2([H])N([H])C(=O)C1([H])N(C(=O)C([H])(N([H])C(=O)C([H])(N([H])C([H])([H])[H])C([H])([H])[H])C(C([H])([H])[H])(C([H])([H])[H])C([H])([H])[H])C([H])([H])c2c([H])c(OC([H])([H])C([H])([H])C([H])([H])Oc3c([H])c([H])c(N([H])C(=O)N4C([H])([H])C([H])([H])C([H])([H])C([H])(n5nc(-c6c([H])c([H])c(Oc7c([H])c([H])c(F)c([H])c7F)c([H])c6[H])c(C(=O)N([H])[H])c5N([H])[H])C4([H])[H])c(Cl)c3[H])c([H])c([H])c2C1([H])[H]

$$$$
91:0:0
     RDKit          3D

 94103  0  0  1  0  0  0  0  0999 V2000
  -26.6350  -22.3790   20.1320 C   0  0  0  0  0  2  0  0  0  0  0  0
  -27.2270  -23.6560   20.7510 C   0  0  0  0  0  2  0  0  0  0  0  0
  -27.5410  -22.0430   18.9480 C   0  0  0  0  0  2  0  0  0  0  0  0
  -28.5260  -23.9650   19.9680 C   0  0  0  0  0  3  0  0  0  0  0  0
  -28.8520  -22.6570   19.2460 N   0  0  1  0  0  4  0  0  0  0  0  0
  -29.2850  -22.8670   18.3580 H   0  0  0  0  0  0  0  0  0  0  0  0
  -29.8330  -21.7410   19.9690 C   0  0  0  0  0  2  0  0  0  0  0  0
  -31.0270  -19.4710   19.3040 C   0  0  0  0  0  3  0  0  0  0  0  0
  -31.1380  -18.0420   19.3850 C   0  0  0  0  0  3  0  0  0  0  0  0
  -28.8520  -19.3650   20.3160 C   0  0  0  0  0  3  0  0  0  0  0  0
  -29.8830  -20.1740   19.7810 C   0  0  0  0  0  0  0  0  0  0  0  0
  -30.1040  -17.2480   19.9570 C   0  0  0  0  0  0  0  0  0  0  0  0
  -28.9610  -17.9530   20.4120 C   0  0  0  0  0  0  0  0  0  0  0  0
  -27.6740  -17.0890   21.1750 Cl  0  0  0  0  0  0  0  0  0  0  0  0
  -30.8410  -14.7640   19.6420 C   0  0  0  0  0  0  0  0  0  0  0  0
  -30.5260  -12.5300   18.5990 C   0  0  0  0  0  2  0  0  0  0  0  0
  -29.4900  -12.6940   17.4630 C   0  0  0  0  0  2  0  0  0  0  0  0
  -28.0540  -12.5480   18.0040 C   0  0  0  0  0  2  0  0  0  0  0  0
  -27.8050  -13.3910   19.2850 C   0  0  0  0  0  3  0  0  0  0  0  0
  -28.9540  -13.2070   20.3040 C   0  0  0  0  0  2  0  0  0  0  0  0
  -30.2180  -13.5430   19.6280 N   0  0  0  0  0  0  0  0  0  0  0  0
  -31.9580  -14.9340   19.1460 O   0  0  0  0  0  0  0  0  0  0  0  0
  -30.0810  -15.7950   20.1100 N   0  0  0  0  0  0  0  0  0  0  0  0
  -29.2520  -15.4720   20.5890 H   0  0  0  0  0  0  0  0  0  0  0  0
  -25.4740  -13.9900   20.1900 C   0  0  0  0  0  0  0  0  0  0  0  0
  -24.4340  -13.2170   20.6270 C   0  0  0  0  0  0  0  0  0  0  0  0
  -24.8800  -11.8640   20.5350 C   0  0  0  0  0  0  0  0  0  0  0  0
  -26.4950  -13.1080   19.8680 N   0  0  0  0  0  0  0  0  0  0  0  0
  -26.1450  -11.8230   20.1310 N   0  0  0  0  0  0  0  0  0  0  0  0
  -24.1590  -10.6050   20.7560 C   0  0  0  0  0  0  0  0  0  0  0  0
  -24.5770   -9.6750   21.7350 C   0  0  0  0  0  3  0  0  0  0  0  0
  -23.8540   -8.4810   21.9410 C   0  0  0  0  0  3  0  0  0  0  0  0
  -22.7010   -8.2070   21.1700 C   0  0  0  0  0  0  0  0  0  0  0  0
  -22.3030   -9.1240   20.1810 C   0  0  0  0  0  3  0  0  0  0  0  0
  -23.0240  -10.3100   19.9720 C   0  0  0  0  0  3  0  0  0  0  0  0
  -21.9540   -7.0600   21.2810 O   0  0  0  0  0  0  0  0  0  0  0  0
  -21.7940   -6.4180   22.4820 C   0  0  0  0  0  0  0  0  0  0  0  0
  -21.2340   -7.0660   23.6040 C   0  0  0  0  0  3  0  0  0  0  0  0
  -21.0270   -6.3520   24.8000 C   0  0  0  0  0  3  0  0  0  0  0  0
  -21.3680   -4.9870   24.8760 C   0  0  0  0  0  0  0  0  0  0  0  0
  -21.9180   -4.3380   23.7570 C   0  0  0  0  0  3  0  0  0  0  0  0
  -22.1280   -5.0500   22.5630 C   0  0  0  0  0  0  0  0  0  0  0  0
  -22.6400   -4.4140   21.4820 F   0  0  0  0  0  0  0  0  0  0  0  0
  -21.1620   -4.2980   26.0220 F   0  0  0  0  0  0  0  0  0  0  0  0
  -23.0650  -13.6990   21.0180 C   0  0  0  0  0  0  0  0  0  0  0  0
  -22.4070  -12.9990   21.9350 N   0  0  0  0  0  0  0  0  0  0  0  0
  -22.5920  -14.7330   20.5460 O   0  0  0  0  0  0  0  0  0  0  0  0
  -22.8060  -12.1650   22.3400 H   0  0  0  0  0  0  0  0  0  0  0  0
  -21.4960  -13.3070   22.2440 H   0  0  0  0  0  0  0  0  0  0  0  0
  -25.6230  -15.3620   20.0210 N   0  0  0  0  0  0  0  0  0  0  0  0
  -24.8710  -16.0060   20.2330 H   0  0  0  0  0  0  0  0  0  0  0  0
  -26.4710  -15.8260   19.7210 H   0  0  0  0  0  0  0  0  0  0  0  0
  -28.3850  -25.2650   19.0440 C   0  0  0  0  0  2  0  0  0  0  0  0
  -28.2790  -26.6060   19.6630 O   0  0  0  0  0  0  0  0  0  0  0  0
  -24.5180  -31.7330   23.0430 C   0  0  0  0  0  0  0  0  0  0  0  0
  -27.1040  -27.3690   19.6870 C   0  0  0  0  0  0  0  0  0  0  0  0
  -23.2790  -30.3710   21.3980 C   0  0  0  0  0  3  0  0  0  0  0  0
  -24.6990  -28.9070   19.8560 C   0  0  0  0  0  0  0  0  0  0  0  0
  -25.7990  -30.7510   21.1310 C   0  0  0  0  0  2  0  0  0  0  0  0
  -25.8790  -29.4040   20.4250 C   0  0  0  0  0  0  0  0  0  0  0  0
  -27.0780  -28.6410   20.3390 C   0  0  0  0  0  3  0  0  0  0  0  0
  -25.8920  -26.9130   19.1140 C   0  0  0  0  0  3  0  0  0  0  0  0
  -24.7050  -27.6650   19.2010 C   0  0  0  0  0  3  0  0  0  0  0  0
  -23.4520  -29.7580   19.9840 C   0  0  0  0  0  2  0  0  0  0  0  0
  -24.5520  -30.9670   21.9140 N   0  0  0  0  0  0  0  0  0  0  0  0
  -23.4540  -31.9660   23.6320 O   0  0  0  0  0  0  0  0  0  0  0  0
  -22.6840  -29.2980   22.3390 C   0  0  0  0  0  0  0  0  0  0  0  0
  -21.3640  -29.0730   22.2340 N   0  0  0  0  0  0  0  0  0  0  0  0
  -23.4080  -28.6760   23.1220 O   0  0  0  0  0  0  0  0  0  0  0  0
  -20.8420  -29.6170   21.5630 H   0  0  0  0  0  0  0  0  0  0  0  0
  -18.0510  -27.7260   22.7690 C   0  0  0  0  0  0  0  0  0  0  0  0
  -20.6010  -28.0850   23.0020 C   0  0  0  0  0  3  0  0  0  0  0  0
  -20.7540  -26.6680   22.3950 C   0  0  0  0  0  2  0  0  0  0  0  0
  -19.6440  -26.3030   21.4040 C   0  0  0  0  0  2  0  0  0  0  0  0
  -18.2700  -26.3920   22.0730 C   0  0  0  0  0  2  0  0  0  0  0  0
  -19.1450  -28.5210   23.2010 C   0  0  0  0  0  0  0  0  0  0  0  0
  -18.8860  -29.7520   23.8420 C   0  0  0  0  0  3  0  0  0  0  0  0
  -17.5660  -30.1950   24.0400 C   0  0  0  0  0  3  0  0  0  0  0  0
  -16.4850  -29.4070   23.6070 C   0  0  0  0  0  3  0  0  0  0  0  0
  -16.7310  -28.1720   22.9790 C   0  0  0  0  0  3  0  0  0  0  0  0
  -25.8140  -32.3710   23.6320 C   0  0  0  0  0  3  0  0  0  0  0  0
  -26.4170  -31.5500   24.8380 C   0  0  1  0  0  0  0  0  0  0  0  0
  -25.3890  -31.2240   25.9460 C   0  0  0  0  0  1  0  0  0  0  0  0
  -27.0140  -30.2110   24.3470 C   0  0  0  0  0  1  0  0  0  0  0  0
  -27.5800  -32.3400   25.4800 C   0  0  0  0  0  1  0  0  0  0  0  0
  -25.4840  -33.7400   24.0550 N   0  0  0  0  0  0  0  0  0  0  0  0
  -25.7610  -34.8430   23.3480 C   0  0  0  0  0  0  0  0  0  0  0  0
  -26.3970  -34.8160   22.2900 O   0  0  0  0  0  0  0  0  0  0  0  0
  -24.9180  -33.8310   24.8850 H   0  0  0  0  0  0  0  0  0  0  0  0
  -23.9770  -36.6060   23.1580 C   0  0  0  0  0  1  0  0  0  0  0  0
  -25.2550  -36.1880   23.9030 C   0  0  0  0  0  3  0  0  0  0  0  0
  -27.3920  -37.0880   24.7130 C   0  0  0  0  0  1  0  0  0  0  0  0
  -26.2560  -37.2750   23.8150 N   0  0  0  0  0  0  0  0  0  0  0  0
  -25.8290  -38.1750   24.0210 H   0  0  0  0  0  0  0  0  0  0  0  0
  1  2  1  0
  3  5  1  0
  3  1  1  0
  4 53  1  0
  4  2  1  0
  5  4  1  0
  5  7  1  0
  5  6  1  6
  8  9  2  0
  8 11  1  0
  9 12  1  0
 10 13  1  0
 11  7  1  0
 11 10  2  0
 12 23  1  0
 12 13  2  0
 13 14  1  0
 15 23  1  0
 16 21  1  0
 17 18  1  0
 17 16  1  0
 19 18  1  0
 19 28  1  0
 19 20  1  0
 21 15  1  0
 21 20  1  0
 22 15  2  0
 23 24  1  0
 25 26  2  0
 26 45  1  0
 27 26  1  0
 27 30  1  0
 28 29  1  0
 28 25  1  0
 29 27  2  0
 30 31  1  0
 31 32  2  0
 33 36  1  0
 33 32  1  0
 34 33  2  0
 35 34  1  0
 35 30  2  0
 36 37  1  0
 37 42  2  0
 37 38  1  0
 38 39  2  0
 39 40  1  0
 40 44  1  0
 41 40  2  0
 42 41  1  0
 43 42  1  0
 45 46  1  0
 46 49  1  0
 46 48  1  0
 47 45  2  0
 50 25  1  0
 50 51  1  0
 52 50  1  0
 53 54  1  0
 54 56  1  0
 55 66  2  0
 56 61  1  0
 57 65  1  0
 57 67  1  0
 58 64  1  0
 58 60  1  0
 59 65  1  0
 60 59  1  0
 61 60  2  0
 62 63  1  0
 62 56  2  0
 63 58  2  0
 64 57  1  0
 65 55  1  0
 67 69  2  0
 68 67  1  0
 70 68  1  0
 71 80  2  0
 71 76  1  0
 72 68  1  0
 72 76  1  0
 73 72  1  0
 74 75  1  0
 74 73  1  0
 75 71  1  0
 76 77  2  0
 77 78  1  0
 79 78  2  0
 80 79  1  0
 81 55  1  0
 81 86  1  0
 81 82  1  0
 82 85  1  1
 82 83  1  0
 84 82  1  0
 86 89  1  0
 87 91  1  0
 87 86  1  0
 88 87  2  0
 91 90  1  0
 93 91  1  0
 93 94  1  0
 93 92  1  0
M  ISO  4  15 100  23 100  53 101  54 101
M  END
>  <TORSDO>  (91) 
F 19

>  <SCORE>  (91) 
-12.389

>  <name>  (91) 
91

>  <ligand_id>  (91) 
91

>  <original_smiles>  (91) 
[H]c1c([H])c([H])c2c(c1[H])C([H])([H])C([H])([H])C([H])([H])C2([H])N([H])C(=O)C1([H])N(C(=O)C([H])(N([H])C(=O)C([H])(N([H])C([H])([H])[H])C([H])([H])[H])C(C([H])([H])[H])(C([H])([H])[H])C([H])([H])[H])C([H])([H])c2c([H])c(OC([H])([H])C3([H])C([H])([H])C([H])([H])C([H])([H])[N+]3([H])C([H])([H])c3c([H])c([H])c(N([H])C(=O)N4C([H])([H])C([H])([H])C([H])([H])C([H])(n5nc(-c6c([H])c([H])c(Oc7c([H])c([H])c(F)c([H])c7F)c([H])c6[H])c(C(=O)N([H])[H])c5N([H])[H])C4([H])[H])c(Cl)c3[H])c([H])c([H])c2C1([H])[H]

>  <smiles>  (91) 
[H]c1c([H])c([H])c2c(c1[H])C([H])([H])C([H])([H])C([H])([H])C2([H])N([H])C(=O)C1([H])N(C(=O)C([H])(N([H])C(=O)C([H])(N([H])C([H])([H])[H])C([H])([H])[H])C(C([H])([H])[H])(C([H])([H])[H])C([H])([H])[H])C([H])([H])c2c([H])c(OC([H])([H])C3([H])C([H])([H])C([H])([H])C([H])([H])[N+]3([H])C([H])([H])c3c([H])c([H])c(N([H])C(=O)N4C([H])([H])C([H])([H])C([H])([H])C([H])(n5nc(-c6c([H])c([H])c(Oc7c([H])c([H])c(F)c([H])c7F)c([H])c6[H])c(C(=O)N([H])[H])c5N([H])[H])C4([H])[H])c(Cl)c3[H])c([H])c([H])c2C1([H])[H]

$$$$
