0:0:0
     RDKit          3D

 92100  0  0  1  0  0  0  0  0999 V2000
  -29.3050  -19.9280   22.1110 C   0  0  0  0  0  3  0  0  0  0  0  0
  -28.6610  -21.1350   21.7830 C   0  0  0  0  0  3  0  0  0  0  0  0
  -30.5900  -20.0620   20.0570 C   0  0  0  0  0  3  0  0  0  0  0  0
  -30.2930  -19.3830   21.2630 C   0  0  0  0  0  0  0  0  0  0  0  0
  -28.9700  -21.8230   20.5970 C   0  0  0  0  0  0  0  0  0  0  0  0
  -29.9410  -21.2690   19.7210 C   0  0  0  0  0  0  0  0  0  0  0  0
  -30.3010  -21.8980   18.5750 F   0  0  0  0  0  0  0  0  0  0  0  0
  -31.5920  -18.2710   22.9870 C   0  0  0  0  0  1  0  0  0  0  0  0
  -30.9710  -18.2120   21.6670 N   0  0  0  0  0  0  0  0  0  0  0  0
  -31.4340  -17.2220   20.6850 C   0  0  0  0  0  2  0  0  0  0  0  0
  -31.1920  -15.7740   21.1700 C   0  0  0  0  0  2  0  0  0  0  0  0
  -31.5620  -14.7230   20.1030 C   0  0  0  0  0  0  0  0  0  0  0  0
  -31.1490  -12.5810   18.9340 C   0  0  0  0  0  2  0  0  0  0  0  0
  -30.1610  -12.7520   17.7670 C   0  0  0  0  0  2  0  0  0  0  0  0
  -28.7000  -12.6770   18.2520 C   0  0  0  0  0  2  0  0  0  0  0  0
  -28.4360  -13.5680   19.4990 C   0  0  0  0  0  3  0  0  0  0  0  0
  -29.5190  -13.3080   20.5700 C   0  0  0  0  0  2  0  0  0  0  0  0
  -30.8300  -13.5870   19.9610 N   0  0  0  0  0  0  0  0  0  0  0  0
  -32.5620  -14.9430   19.4090 O   0  0  0  0  0  0  0  0  0  0  0  0
  -26.0970  -14.2930   20.3060 C   0  0  0  0  0  0  0  0  0  0  0  0
  -25.0060  -13.5720   20.7080 C   0  0  0  0  0  0  0  0  0  0  0  0
  -25.3890  -12.1980   20.6310 C   0  0  0  0  0  0  0  0  0  0  0  0
  -27.0860  -13.3640   20.0230 N   0  0  0  0  0  0  0  0  0  0  0  0
  -26.6600  -12.0970   20.2650 N   0  0  0  0  0  0  0  0  0  0  0  0
  -24.6020  -10.9760   20.8300 C   0  0  0  0  0  0  0  0  0  0  0  0
  -24.9620  -10.0160   21.8020 C   0  0  0  0  0  3  0  0  0  0  0  0
  -24.1790   -8.8580   21.9890 C   0  0  0  0  0  3  0  0  0  0  0  0
  -23.0230   -8.6470   21.2020 C   0  0  0  0  0  0  0  0  0  0  0  0
  -22.6810   -9.5930   20.2200 C   0  0  0  0  0  3  0  0  0  0  0  0
  -23.4640  -10.7440   20.0310 C   0  0  0  0  0  3  0  0  0  0  0  0
  -22.2180   -7.5360   21.2950 O   0  0  0  0  0  0  0  0  0  0  0  0
  -22.0070   -6.8990   22.4920 C   0  0  0  0  0  0  0  0  0  0  0  0
  -21.4390   -7.5630   23.6000 C   0  0  0  0  0  3  0  0  0  0  0  0
  -21.1730   -6.8500   24.7870 C   0  0  0  0  0  3  0  0  0  0  0  0
  -21.4680   -5.4750   24.8640 C   0  0  0  0  0  0  0  0  0  0  0  0
  -22.0320   -4.8120   23.7610 C   0  0  0  0  0  3  0  0  0  0  0  0
  -22.2970   -5.5210   22.5760 C   0  0  0  0  0  0  0  0  0  0  0  0
  -22.8200   -4.8720   21.5070 F   0  0  0  0  0  0  0  0  0  0  0  0
  -21.2070   -4.7900   26.0010 F   0  0  0  0  0  0  0  0  0  0  0  0
  -23.6490  -14.1190   21.0530 C   0  0  0  0  0  0  0  0  0  0  0  0
  -22.9320  -13.4620   21.9560 N   0  0  0  0  0  0  0  0  0  0  0  0
  -23.2390  -15.1680   20.5560 O   0  0  0  0  0  0  0  0  0  0  0  0
  -23.2780  -12.6180   22.3900 H   0  0  0  0  0  0  0  0  0  0  0  0
  -22.0230  -13.8160   22.2200 H   0  0  0  0  0  0  0  0  0  0  0  0
  -26.3210  -15.6590   20.1460 N   0  0  0  0  0  0  0  0  0  0  0  0
  -25.5850  -16.3370   20.2970 H   0  0  0  0  0  0  0  0  0  0  0  0
  -27.1830  -16.0760   19.8160 H   0  0  0  0  0  0  0  0  0  0  0  0
  -28.2990  -23.0160   20.4240 O   0  0  0  0  0  0  0  0  0  0  0  0
  -28.1540  -23.5890   19.1290 C   0  0  0  0  0  2  0  0  0  0  0  0
  -29.0570  -24.8210   18.9260 C   0  0  0  0  0  2  0  0  0  0  0  0
  -28.9070  -25.8750   20.0440 C   0  0  0  0  0  2  0  0  0  0  0  0
  -28.9080  -27.2320   19.5800 O   0  0  0  0  0  0  0  0  0  0  0  0
  -24.5570  -31.6320   23.0840 C   0  0  0  0  0  0  0  0  0  0  0  0
  -27.6770  -27.8430   19.6160 C   0  0  0  0  0  0  0  0  0  0  0  0
  -23.5160  -30.2820   21.2900 C   0  0  0  0  0  3  0  0  0  0  0  0
  -25.1350  -29.0590   19.7470 C   0  0  0  0  0  0  0  0  0  0  0  0
  -25.9860  -30.9350   21.1590 C   0  0  0  0  0  2  0  0  0  0  0  0
  -26.2270  -29.6500   20.3950 C   0  0  0  0  0  0  0  0  0  0  0  0
  -27.5040  -29.0540   20.3220 C   0  0  0  0  0  3  0  0  0  0  0  0
  -26.5700  -27.2600   18.9630 C   0  0  0  0  0  3  0  0  0  0  0  0
  -25.3010  -27.8630   19.0260 C   0  0  0  0  0  3  0  0  0  0  0  0
  -23.8050  -29.7660   19.8550 C   0  0  0  0  0  2  0  0  0  0  0  0
  -24.7050  -30.9590   21.9060 N   0  0  0  0  0  0  0  0  0  0  0  0
  -23.4500  -31.7320   23.6310 O   0  0  0  0  0  0  0  0  0  0  0  0
  -22.9730  -29.1080   22.1370 C   0  0  0  0  0  0  0  0  0  0  0  0
  -21.6740  -28.8040   21.9750 N   0  0  0  0  0  0  0  0  0  0  0  0
  -23.7150  -28.4770   22.8930 O   0  0  0  0  0  0  0  0  0  0  0  0
  -21.1280  -29.3840   21.3520 H   0  0  0  0  0  0  0  0  0  0  0  0
  -18.4430  -27.2190   22.3020 C   0  0  0  0  0  0  0  0  0  0  0  0
  -20.9560  -27.7150   22.6370 C   0  0  0  0  0  3  0  0  0  0  0  0
  -21.2150  -26.3670   21.9230 C   0  0  0  0  0  2  0  0  0  0  0  0
  -20.1560  -26.0310   20.8670 C   0  0  0  0  0  2  0  0  0  0  0  0
  -18.7630  -25.9690   21.5000 C   0  0  0  0  0  2  0  0  0  0  0  0
  -19.4720  -28.0470   22.8230 C   0  0  0  0  0  0  0  0  0  0  0  0
  -19.1220  -29.2130   23.5340 C   0  0  0  0  0  3  0  0  0  0  0  0
  -17.7720  -29.5600   23.7300 C   0  0  0  0  0  3  0  0  0  0  0  0
  -16.7540  -28.7330   23.2220 C   0  0  0  0  0  3  0  0  0  0  0  0
  -17.0900  -27.5630   22.5160 C   0  0  0  0  0  3  0  0  0  0  0  0
  -25.7650  -32.3290   23.7840 C   0  0  0  0  0  3  0  0  0  0  0  0
  -25.3460  -33.6930   24.1330 N   0  0  0  0  0  0  0  0  0  0  0  0
  -25.6450  -34.7870   23.4180 C   0  0  0  0  0  0  0  0  0  0  0  0
  -26.3710  -34.7540   22.4190 O   0  0  0  0  0  0  0  0  0  0  0  0
  -24.6990  -33.7860   24.9030 H   0  0  0  0  0  0  0  0  0  0  0  0
  -23.8140  -36.4640   23.0190 C   0  0  0  0  0  1  0  0  0  0  0  0
  -25.0410  -36.1270   23.8800 C   0  0  0  0  0  3  0  0  0  0  0  0
  -27.0640  -37.1360   24.8340 C   0  0  0  0  0  1  0  0  0  0  0  0
  -26.0030  -37.2500   23.8400 N   0  0  0  0  0  0  0  0  0  0  0  0
  -25.5280  -38.1370   23.9840 H   0  0  0  0  0  0  0  0  0  0  0  0
  -26.2750  -31.5540   25.0600 C   0  0  1  0  0  0  0  0  0  0  0  0
  -25.1500  -31.1990   26.0580 C   0  0  0  0  0  1  0  0  0  0  0  0
  -26.9750  -30.2390   24.6470 C   0  0  0  0  0  1  0  0  0  0  0  0
  -27.3330  -32.4030   25.8010 C   0  0  0  0  0  1  0  0  0  0  0  0
  2  1  1  0
  3  4  1  0
  4  9  1  0
  4  1  2  0
  5  2  2  0
  6  3  2  0
  6  5  1  0
  7  6  1  0
  9  8  1  0
 10 11  1  0
 10  9  1  0
 12 11  1  0
 13 18  1  0
 14 15  1  0
 14 13  1  0
 16 15  1  0
 16 23  1  0
 16 17  1  0
 18 12  1  0
 18 17  1  0
 19 12  2  0
 20 21  2  0
 21 40  1  0
 22 21  1  0
 22 25  1  0
 23 24  1  0
 23 20  1  0
 24 22  2  0
 25 26  1  0
 26 27  2  0
 28 31  1  0
 28 27  1  0
 29 28  2  0
 30 29  1  0
 30 25  2  0
 31 32  1  0
 32 37  2  0
 32 33  1  0
 33 34  2  0
 34 35  1  0
 35 39  1  0
 36 35  2  0
 37 36  1  0
 38 37  1  0
 40 41  1  0
 41 44  1  0
 41 43  1  0
 42 40  2  0
 45 46  1  0
 45 20  1  0
 47 45  1  0
 48  5  1  0
 49 48  1  0
 50 49  1  0
 50 51  1  0
 52 54  1  0
 52 51  1  0
 53 64  2  0
 54 59  1  0
 55 63  1  0
 55 65  1  0
 56 62  1  0
 56 58  1  0
 57 63  1  0
 58 57  1  0
 59 58  2  0
 60 61  1  0
 60 54  2  0
 61 56  2  0
 62 55  1  0
 63 53  1  0
 65 67  2  0
 66 65  1  0
 68 66  1  0
 69 78  2  0
 69 74  1  0
 70 66  1  0
 70 74  1  0
 71 70  1  0
 72 73  1  0
 72 71  1  0
 73 69  1  0
 74 75  2  0
 75 76  1  0
 77 76  2  0
 78 77  1  0
 79 53  1  0
 79 80  1  0
 79 89  1  0
 80 83  1  0
 81 85  1  0
 81 80  1  0
 82 81  2  0
 85 84  1  0
 87 85  1  0
 87 88  1  0
 87 86  1  0
 89 92  1  1
 89 90  1  0
 91 89  1  0
M  ISO  4  11 100  12 100  51 101  52 101
M  END
>  <TORSDO>  (1) 
F 23

>  <SCORE>  (1) 
-9.272

>  <name>  (1) 
0

>  <ligand_id>  (1) 
0

>  <original_smiles>  (1) 
[H]c1c([H])c([H])c2c(c1[H])C([H])([H])C([H])([H])C([H])([H])C2([H])N([H])C(=O)C1([H])N(C(=O)C([H])(N([H])C(=O)C([H])(N([H])C([H])([H])[H])C([H])([H])[H])C(C([H])([H])[H])(C([H])([H])[H])C([H])([H])[H])C([H])([H])c2c([H])c(OC([H])([H])C([H])([H])C([H])([H])Oc3c([H])c([H])c(N(C([H])([H])[H])C([H])([H])C([H])([H])C(=O)N4C([H])([H])C([H])([H])C([H])([H])C([H])(n5nc(-c6c([H])c([H])c(Oc7c([H])c([H])c(F)c([H])c7F)c([H])c6[H])c(C(=O)N([H])[H])c5N([H])[H])C4([H])[H])c([H])c3F)c([H])c([H])c2C1([H])[H]

>  <smiles>  (1) 
[H]c1c([H])c([H])c2c(c1[H])C([H])([H])C([H])([H])C([H])([H])C2([H])N([H])C(=O)C1([H])N(C(=O)C([H])(N([H])C(=O)C([H])(N([H])C([H])([H])[H])C([H])([H])[H])C(C([H])([H])[H])(C([H])([H])[H])C([H])([H])[H])C([H])([H])c2c([H])c(OC([H])([H])C([H])([H])C([H])([H])Oc3c([H])c([H])c(N(C([H])([H])[H])C([H])([H])C([H])([H])C(=O)N4C([H])([H])C([H])([H])C([H])([H])C([H])(n5nc(-c6c([H])c([H])c(Oc7c([H])c([H])c(F)c([H])c7F)c([H])c6[H])c(C(=O)N([H])[H])c5N([H])[H])C4([H])[H])c([H])c3F)c([H])c([H])c2C1([H])[H]

$$$$
1:0:0
     RDKit          3D

 91 99  0  0  1  0  0  0  0  0999 V2000
  -28.1370  -22.3490   22.5800 C   0  0  0  0  0  1  0  0  0  0  0  0
  -29.0540  -22.2430   21.4440 N   0  0  0  0  0  0  0  0  0  0  0  0
  -30.6790  -18.9020   21.9470 C   0  0  0  0  0  3  0  0  0  0  0  0
  -29.8280  -18.9990   19.6790 C   0  0  0  0  0  3  0  0  0  0  0  0
  -30.1830  -20.2010   22.1870 C   0  0  0  0  0  3  0  0  0  0  0  0
  -29.3550  -20.3090   19.9130 C   0  0  0  0  0  3  0  0  0  0  0  0
  -30.4990  -18.2780   20.6950 C   0  0  0  0  0  0  0  0  0  0  0  0
  -29.5190  -20.9340   21.1740 C   0  0  0  0  0  0  0  0  0  0  0  0
  -31.1680  -16.9330   20.3840 C   0  0  0  0  0  2  0  0  0  0  0  0
  -30.8420  -14.5460   19.9580 C   0  0  0  0  0  0  0  0  0  0  0  0
  -30.3640  -12.3860   18.8480 C   0  0  0  0  0  2  0  0  0  0  0  0
  -29.3640  -12.5690   17.6880 C   0  0  0  0  0  2  0  0  0  0  0  0
  -27.9250  -12.3920   18.2000 C   0  0  0  0  0  2  0  0  0  0  0  0
  -27.6530  -13.2570   19.4570 C   0  0  0  0  0  3  0  0  0  0  0  0
  -28.7720  -13.0880   20.5060 C   0  0  0  0  0  2  0  0  0  0  0  0
  -30.0690  -13.4120   19.8750 N   0  0  0  0  0  0  0  0  0  0  0  0
  -31.8670  -14.6330   19.2680 O   0  0  0  0  0  0  0  0  0  0  0  0
  -29.8750  -15.5920   22.0130 C   0  0  0  0  0  1  0  0  0  0  0  0
  -30.4420  -15.6540   20.6600 N   0  0  0  0  0  0  0  0  0  0  0  0
  -25.3240  -13.8590   20.3650 C   0  0  0  0  0  0  0  0  0  0  0  0
  -24.2840  -13.0830   20.7990 C   0  0  0  0  0  0  0  0  0  0  0  0
  -24.7340  -11.7310   20.7070 C   0  0  0  0  0  0  0  0  0  0  0  0
  -26.3400  -12.9770   20.0310 N   0  0  0  0  0  0  0  0  0  0  0  0
  -25.9950  -11.6910   20.2940 N   0  0  0  0  0  0  0  0  0  0  0  0
  -24.0200  -10.4680   20.9300 C   0  0  0  0  0  0  0  0  0  0  0  0
  -24.4760   -9.5190   21.8700 C   0  0  0  0  0  3  0  0  0  0  0  0
  -23.7610   -8.3220   22.0820 C   0  0  0  0  0  3  0  0  0  0  0  0
  -22.5760   -8.0650   21.3530 C   0  0  0  0  0  0  0  0  0  0  0  0
  -22.1380   -9.0050   20.4030 C   0  0  0  0  0  3  0  0  0  0  0  0
  -22.8530  -10.1940   20.1910 C   0  0  0  0  0  3  0  0  0  0  0  0
  -21.8320   -6.9150   21.4700 O   0  0  0  0  0  0  0  0  0  0  0  0
  -21.7440   -6.2320   22.6560 C   0  0  0  0  0  0  0  0  0  0  0  0
  -21.2720   -6.8450   23.8380 C   0  0  0  0  0  3  0  0  0  0  0  0
  -21.1330   -6.0870   25.0160 C   0  0  0  0  0  3  0  0  0  0  0  0
  -21.4570   -4.7180   25.0170 C   0  0  0  0  0  0  0  0  0  0  0  0
  -21.9230   -4.1040   23.8400 C   0  0  0  0  0  3  0  0  0  0  0  0
  -22.0640   -4.8600   22.6640 C   0  0  0  0  0  0  0  0  0  0  0  0
  -22.4940   -4.2590   21.5270 F   0  0  0  0  0  0  0  0  0  0  0  0
  -21.3160   -3.9870   26.1470 F   0  0  0  0  0  0  0  0  0  0  0  0
  -22.9170  -13.5640   21.1920 C   0  0  0  0  0  0  0  0  0  0  0  0
  -22.2650  -12.8700   22.1190 N   0  0  0  0  0  0  0  0  0  0  0  0
  -22.4370  -14.5890   20.7100 O   0  0  0  0  0  0  0  0  0  0  0  0
  -22.6650  -12.0410   22.5300 H   0  0  0  0  0  0  0  0  0  0  0  0
  -21.3520  -13.1760   22.4220 H   0  0  0  0  0  0  0  0  0  0  0  0
  -25.4800  -15.2320   20.2090 N   0  0  0  0  0  0  0  0  0  0  0  0
  -24.7280  -15.8830   20.4090 H   0  0  0  0  0  0  0  0  0  0  0  0
  -26.3240  -15.6890   19.8850 H   0  0  0  0  0  0  0  0  0  0  0  0
  -28.9170  -23.1870   20.3270 C   0  0  0  0  0  2  0  0  0  0  0  0
  -28.7330  -24.6650   20.7560 C   0  0  0  0  0  2  0  0  0  0  0  0
  -28.6730  -25.6020   19.5350 C   0  0  0  0  0  2  0  0  0  0  0  0
  -28.5220  -26.9680   19.9240 O   0  0  0  0  0  0  0  0  0  0  0  0
  -24.6430  -31.9220   23.1970 C   0  0  0  0  0  0  0  0  0  0  0  0
  -27.2880  -27.5890   19.9660 C   0  0  0  0  0  0  0  0  0  0  0  0
  -23.4100  -30.5260   21.5620 C   0  0  0  0  0  3  0  0  0  0  0  0
  -24.8530  -29.0380   20.0760 C   0  0  0  0  0  0  0  0  0  0  0  0
  -25.9230  -30.9390   21.3000 C   0  0  0  0  0  2  0  0  0  0  0  0
  -26.0160  -29.5800   20.6330 C   0  0  0  0  0  0  0  0  0  0  0  0
  -27.2310  -28.8660   20.5710 C   0  0  0  0  0  3  0  0  0  0  0  0
  -26.0990  -27.0480   19.4210 C   0  0  0  0  0  3  0  0  0  0  0  0
  -24.8890  -27.7710   19.4700 C   0  0  0  0  0  3  0  0  0  0  0  0
  -23.5950  -29.8710   20.1650 C   0  0  0  0  0  2  0  0  0  0  0  0
  -24.6770  -31.1470   22.0760 N   0  0  0  0  0  0  0  0  0  0  0  0
  -23.5730  -32.1610   23.7750 O   0  0  0  0  0  0  0  0  0  0  0  0
  -22.8050  -29.4770   22.5230 C   0  0  0  0  0  0  0  0  0  0  0  0
  -21.4880  -29.2440   22.4020 N   0  0  0  0  0  0  0  0  0  0  0  0
  -23.5150  -28.8730   23.3320 O   0  0  0  0  0  0  0  0  0  0  0  0
  -20.9740  -29.7750   21.7130 H   0  0  0  0  0  0  0  0  0  0  0  0
  -18.1710  -27.8950   22.8690 C   0  0  0  0  0  0  0  0  0  0  0  0
  -20.7090  -28.2750   23.1730 C   0  0  0  0  0  3  0  0  0  0  0  0
  -20.8890  -26.8480   22.6060 C   0  0  0  0  0  2  0  0  0  0  0  0
  -19.8190  -26.4650   21.5810 C   0  0  0  0  0  2  0  0  0  0  0  0
  -18.4240  -26.5500   22.2070 C   0  0  0  0  0  2  0  0  0  0  0  0
  -19.2450  -28.7120   23.3060 C   0  0  0  0  0  0  0  0  0  0  0  0
  -18.9600  -29.9710   23.8790 C   0  0  0  0  0  3  0  0  0  0  0  0
  -17.6310  -30.4110   24.0260 C   0  0  0  0  0  3  0  0  0  0  0  0
  -16.5700  -29.5920   23.6050 C   0  0  0  0  0  3  0  0  0  0  0  0
  -16.8400  -28.3350   23.0330 C   0  0  0  0  0  3  0  0  0  0  0  0
  -25.9380  -32.5580   23.7930 C   0  0  0  0  0  3  0  0  0  0  0  0
  -25.6320  -33.9540   24.1340 N   0  0  0  0  0  0  0  0  0  0  0  0
  -25.9370  -35.0090   23.3650 C   0  0  0  0  0  0  0  0  0  0  0  0
  -26.5810  -34.9120   22.3170 O   0  0  0  0  0  0  0  0  0  0  0  0
  -25.0620  -34.1050   24.9540 H   0  0  0  0  0  0  0  0  0  0  0  0
  -24.1780  -36.7740   23.0510 C   0  0  0  0  0  1  0  0  0  0  0  0
  -25.4440  -36.3910   23.8340 C   0  0  0  0  0  3  0  0  0  0  0  0
  -27.5860  -37.2930   24.6210 C   0  0  0  0  0  1  0  0  0  0  0  0
  -26.4630  -37.4550   23.7010 N   0  0  0  0  0  0  0  0  0  0  0  0
  -26.0510  -38.3700   23.8610 H   0  0  0  0  0  0  0  0  0  0  0  0
  -26.4920  -31.7840   25.0540 C   0  0  1  0  0  0  0  0  0  0  0  0
  -25.4220  -31.5090   26.1340 C   0  0  0  0  0  1  0  0  0  0  0  0
  -27.0960  -30.4250   24.6360 C   0  0  0  0  0  1  0  0  0  0  0  0
  -27.6370  -32.5920   25.7100 C   0  0  0  0  0  1  0  0  0  0  0  0
  2  1  1  0
  3  5  1  0
  4  6  2  0
  4  7  1  0
  6  8  1  0
  7  3  2  0
  8  2  1  0
  8  5  2  0
  9 19  1  0
  9  7  1  0
 10 19  1  0
 11 16  1  0
 12 13  1  0
 12 11  1  0
 14 13  1  0
 14 23  1  0
 14 15  1  0
 16 10  1  0
 16 15  1  0
 17 10  2  0
 19 18  1  0
 20 21  2  0
 21 40  1  0
 22 21  1  0
 22 25  1  0
 23 24  1  0
 23 20  1  0
 24 22  2  0
 25 26  1  0
 26 27  2  0
 28 31  1  0
 28 27  1  0
 29 28  2  0
 30 29  1  0
 30 25  2  0
 31 32  1  0
 32 37  2  0
 32 33  1  0
 33 34  2  0
 34 35  1  0
 35 39  1  0
 36 35  2  0
 37 36  1  0
 38 37  1  0
 40 41  1  0
 41 44  1  0
 41 43  1  0
 42 40  2  0
 45 20  1  0
 45 46  1  0
 47 45  1  0
 48 49  1  0
 48  2  1  0
 50 51  1  0
 50 49  1  0
 51 53  1  0
 52 63  2  0
 53 58  1  0
 54 62  1  0
 54 64  1  0
 55 61  1  0
 55 57  1  0
 56 62  1  0
 57 56  1  0
 58 57  2  0
 59 60  1  0
 59 53  2  0
 60 55  2  0
 61 54  1  0
 62 52  1  0
 64 66  2  0
 65 64  1  0
 67 65  1  0
 68 77  2  0
 68 73  1  0
 69 65  1  0
 69 73  1  0
 70 69  1  0
 71 72  1  0
 71 70  1  0
 72 68  1  0
 73 74  2  0
 74 75  1  0
 76 75  2  0
 77 76  1  0
 78 52  1  0
 78 79  1  0
 78 88  1  0
 79 82  1  0
 80 84  1  0
 80 79  1  0
 81 80  2  0
 84 83  1  0
 86 84  1  0
 86 87  1  0
 86 85  1  0
 88 91  1  1
 88 89  1  0
 90 88  1  0
M  ISO  4  10 100  19 100  50 101  51 101
M  END
>  <TORSDO>  (2) 
F 21

>  <SCORE>  (2) 
-11.894

>  <name>  (2) 
1

>  <ligand_id>  (2) 
1

>  <original_smiles>  (2) 
[H]c1c([H])c([H])c2c(c1[H])C([H])([H])C([H])([H])C([H])([H])C2([H])N([H])C(=O)C1([H])N(C(=O)C([H])(N([H])C(=O)C([H])(N([H])C([H])([H])[H])C([H])([H])[H])C(C([H])([H])[H])(C([H])([H])[H])C([H])([H])[H])C([H])([H])c2c([H])c(OC([H])([H])C([H])([H])C([H])([H])N(c3c([H])c([H])c(C([H])([H])N(C(=O)N4C([H])([H])C([H])([H])C([H])([H])C([H])(n5nc(-c6c([H])c([H])c(Oc7c([H])c([H])c(F)c([H])c7F)c([H])c6[H])c(C(=O)N([H])[H])c5N([H])[H])C4([H])[H])C([H])([H])[H])c([H])c3[H])C([H])([H])[H])c([H])c([H])c2C1([H])[H]

>  <smiles>  (2) 
[H]c1c([H])c([H])c2c(c1[H])C([H])([H])C([H])([H])C([H])([H])C2([H])N([H])C(=O)C1([H])N(C(=O)C([H])(N([H])C(=O)C([H])(N([H])C([H])([H])[H])C([H])([H])[H])C(C([H])([H])[H])(C([H])([H])[H])C([H])([H])[H])C([H])([H])c2c([H])c(OC([H])([H])C([H])([H])C([H])([H])N(c3c([H])c([H])c(C([H])([H])N(C(=O)N4C([H])([H])C([H])([H])C([H])([H])C([H])(n5nc(-c6c([H])c([H])c(Oc7c([H])c([H])c(F)c([H])c7F)c([H])c6[H])c(C(=O)N([H])[H])c5N([H])[H])C4([H])[H])C([H])([H])[H])c([H])c3[H])C([H])([H])[H])c([H])c([H])c2C1([H])[H]

$$$$
2:0:0
     RDKit          3D

 91 99  0  0  1  0  0  0  0  0999 V2000
  -29.9950  -21.5290   20.3470 N   0  0  0  0  0  0  0  0  0  0  0  0
  -30.9320  -21.9270   20.3000 H   0  0  0  0  0  0  0  0  0  0  0  0
  -31.1130  -19.3350   20.4640 C   0  0  0  0  0  3  0  0  0  0  0  0
  -31.1210  -17.9090   20.5340 C   0  0  0  0  0  3  0  0  0  0  0  0
  -28.7100  -19.3490   20.3720 C   0  0  0  0  0  3  0  0  0  0  0  0
  -29.9160  -20.0970   20.3860 C   0  0  0  0  0  0  0  0  0  0  0  0
  -29.9120  -17.1680   20.5350 C   0  0  0  0  0  0  0  0  0  0  0  0
  -28.7140  -17.9250   20.4500 C   0  0  0  0  0  0  0  0  0  0  0  0
  -27.5320  -17.2600   20.4430 F   0  0  0  0  0  0  0  0  0  0  0  0
  -30.5860  -14.6780   20.2440 C   0  0  0  0  0  0  0  0  0  0  0  0
  -30.3220  -12.4700   19.1360 C   0  0  0  0  0  2  0  0  0  0  0  0
  -29.3330  -12.6360   17.9620 C   0  0  0  0  0  2  0  0  0  0  0  0
  -27.8760  -12.4780   18.4420 C   0  0  0  0  0  2  0  0  0  0  0  0
  -27.5700  -13.3140   19.7140 C   0  0  0  0  0  3  0  0  0  0  0  0
  -28.6690  -13.1180   20.7830 C   0  0  0  0  0  2  0  0  0  0  0  0
  -29.9600  -13.4620   20.1660 N   0  0  0  0  0  0  0  0  0  0  0  0
  -31.7320  -14.8400   19.8190 O   0  0  0  0  0  0  0  0  0  0  0  0
  -29.7960  -15.7170   20.6490 N   0  0  0  0  0  0  0  0  0  0  0  0
  -28.8780  -15.4180   20.9420 H   0  0  0  0  0  0  0  0  0  0  0  0
  -25.2070  -13.9130   20.5280 C   0  0  0  0  0  0  0  0  0  0  0  0
  -24.1470  -13.1380   20.9140 C   0  0  0  0  0  0  0  0  0  0  0  0
  -24.5980  -11.7850   20.8350 C   0  0  0  0  0  0  0  0  0  0  0  0
  -26.2370  -13.0310   20.2390 N   0  0  0  0  0  0  0  0  0  0  0  0
  -25.8760  -11.7450   20.4830 N   0  0  0  0  0  0  0  0  0  0  0  0
  -23.8670  -10.5240   21.0210 C   0  0  0  0  0  0  0  0  0  0  0  0
  -24.3030   -9.5480   21.9440 C   0  0  0  0  0  3  0  0  0  0  0  0
  -23.5740   -8.3520   22.1170 C   0  0  0  0  0  3  0  0  0  0  0  0
  -22.3960   -8.1240   21.3670 C   0  0  0  0  0  0  0  0  0  0  0  0
  -21.9800   -9.0880   20.4330 C   0  0  0  0  0  3  0  0  0  0  0  0
  -22.7090  -10.2760   20.2580 C   0  0  0  0  0  3  0  0  0  0  0  0
  -21.6380   -6.9800   21.4510 O   0  0  0  0  0  0  0  0  0  0  0  0
  -21.5630   -6.2490   22.6100 C   0  0  0  0  0  0  0  0  0  0  0  0
  -21.0800   -6.8090   23.8130 C   0  0  0  0  0  3  0  0  0  0  0  0
  -20.9540   -6.0030   24.9620 C   0  0  0  0  0  3  0  0  0  0  0  0
  -21.3000   -4.6390   24.9100 C   0  0  0  0  0  0  0  0  0  0  0  0
  -21.7770   -4.0810   23.7110 C   0  0  0  0  0  3  0  0  0  0  0  0
  -21.9050   -4.8830   22.5630 C   0  0  0  0  0  0  0  0  0  0  0  0
  -22.3440   -4.3340   21.4050 F   0  0  0  0  0  0  0  0  0  0  0  0
  -21.1720   -3.8640   26.0110 F   0  0  0  0  0  0  0  0  0  0  0  0
  -22.7630  -13.6190   21.2470 C   0  0  0  0  0  0  0  0  0  0  0  0
  -22.0610  -12.9050   22.1200 N   0  0  0  0  0  0  0  0  0  0  0  0
  -22.3160  -14.6620   20.7710 O   0  0  0  0  0  0  0  0  0  0  0  0
  -22.4360  -12.0610   22.5260 H   0  0  0  0  0  0  0  0  0  0  0  0
  -21.1350  -13.2080   22.3860 H   0  0  0  0  0  0  0  0  0  0  0  0
  -25.3720  -15.2870   20.3860 N   0  0  0  0  0  0  0  0  0  0  0  0
  -24.6190  -15.9360   20.5810 H   0  0  0  0  0  0  0  0  0  0  0  0
  -26.2380  -15.7570   20.1540 H   0  0  0  0  0  0  0  0  0  0  0  0
  -28.8750  -22.4930   20.1460 C   0  0  0  0  0  2  0  0  0  0  0  0
  -29.2490  -24.0370   20.2920 C   0  0  0  0  0  3  0  0  0  0  0  0
  -28.1090  -25.0860   19.9540 C   0  0  0  0  0  3  0  0  0  0  0  0
  -28.3260  -26.5330   20.1740 O   0  0  0  0  0  0  0  0  0  0  0  0
  -24.5850  -31.8920   23.2290 C   0  0  0  0  0  0  0  0  0  0  0  0
  -27.1980  -27.3700   20.1340 C   0  0  0  0  0  0  0  0  0  0  0  0
  -23.3760  -30.4990   21.5890 C   0  0  0  0  0  3  0  0  0  0  0  0
  -24.8230  -28.9650   20.1480 C   0  0  0  0  0  0  0  0  0  0  0  0
  -25.9130  -30.8300   21.3930 C   0  0  0  0  0  2  0  0  0  0  0  0
  -25.9940  -29.4570   20.7400 C   0  0  0  0  0  0  0  0  0  0  0  0
  -27.1840  -28.6710   20.7230 C   0  0  0  0  0  3  0  0  0  0  0  0
  -25.9990  -26.9320   19.5190 C   0  0  0  0  0  3  0  0  0  0  0  0
  -24.8280  -27.7080   19.5300 C   0  0  0  0  0  3  0  0  0  0  0  0
  -23.5840  -29.8330   20.2040 C   0  0  0  0  0  2  0  0  0  0  0  0
  -24.6430  -31.0910   22.1280 N   0  0  0  0  0  0  0  0  0  0  0  0
  -23.5030  -32.1650   23.7710 O   0  0  0  0  0  0  0  0  0  0  0  0
  -22.7220  -29.4740   22.5470 C   0  0  0  0  0  0  0  0  0  0  0  0
  -21.3970  -29.2910   22.4210 N   0  0  0  0  0  0  0  0  0  0  0  0
  -23.4060  -28.8480   23.3610 O   0  0  0  0  0  0  0  0  0  0  0  0
  -20.9060  -29.8500   21.7370 H   0  0  0  0  0  0  0  0  0  0  0  0
  -18.0230  -28.0940   22.9330 C   0  0  0  0  0  0  0  0  0  0  0  0
  -20.5820  -28.3490   23.1890 C   0  0  0  0  0  3  0  0  0  0  0  0
  -20.6790  -26.9220   22.6030 C   0  0  0  0  0  2  0  0  0  0  0  0
  -19.5700  -26.6070   21.5940 C   0  0  0  0  0  2  0  0  0  0  0  0
  -18.1930  -26.7490   22.2480 C   0  0  0  0  0  2  0  0  0  0  0  0
  -19.1450  -28.8520   23.3610 C   0  0  0  0  0  0  0  0  0  0  0  0
  -18.9300  -30.1120   23.9630 C   0  0  0  0  0  3  0  0  0  0  0  0
  -17.6280  -30.6130   24.1410 C   0  0  0  0  0  3  0  0  0  0  0  0
  -16.5210  -29.8520   23.7290 C   0  0  0  0  0  3  0  0  0  0  0  0
  -16.7180  -28.5950   23.1310 C   0  0  0  0  0  3  0  0  0  0  0  0
  -25.8700  -32.5240   23.8490 C   0  0  0  0  0  3  0  0  0  0  0  0
  -26.3900  -31.7510   25.1220 C   0  0  1  0  0  0  0  0  0  0  0  0
  -25.2990  -31.5040   26.1900 C   0  0  0  0  0  1  0  0  0  0  0  0
  -26.9790  -30.3770   24.7240 C   0  0  0  0  0  1  0  0  0  0  0  0
  -27.5390  -32.5470   25.7860 C   0  0  0  0  0  1  0  0  0  0  0  0
  -25.5600  -33.9220   24.1820 N   0  0  0  0  0  0  0  0  0  0  0  0
  -25.8630  -34.9740   23.4100 C   0  0  0  0  0  0  0  0  0  0  0  0
  -26.5040  -34.8710   22.3600 O   0  0  0  0  0  0  0  0  0  0  0  0
  -24.9890  -34.0750   25.0010 H   0  0  0  0  0  0  0  0  0  0  0  0
  -24.1050  -36.7470   23.1100 C   0  0  0  0  0  1  0  0  0  0  0  0
  -25.3790  -36.3610   23.8760 C   0  0  0  0  0  3  0  0  0  0  0  0
  -27.5310  -37.2760   24.6280 C   0  0  0  0  0  1  0  0  0  0  0  0
  -26.3970  -37.4220   23.7180 N   0  0  0  0  0  0  0  0  0  0  0  0
  -25.9860  -38.3400   23.8690 H   0  0  0  0  0  0  0  0  0  0  0  0
  1  6  1  0
  2  1  1  0
  3  4  1  0
  4  7  2  0
  5  6  1  0
  5  8  2  0
  6  3  2  0
  7 18  1  0
  8  7  1  0
  9  8  1  0
 10 18  1  0
 11 16  1  0
 12 13  1  0
 12 11  1  0
 14 13  1  0
 14 23  1  0
 14 15  1  0
 16 10  1  0
 16 15  1  0
 17 10  2  0
 18 19  1  0
 20 21  2  0
 21 40  1  0
 22 21  1  0
 22 25  1  0
 23 24  1  0
 23 20  1  0
 24 22  2  0
 25 26  1  0
 26 27  2  0
 28 31  1  0
 28 27  1  0
 29 28  2  0
 30 29  1  0
 30 25  2  0
 31 32  1  0
 32 33  1  0
 33 34  2  0
 35 34  1  0
 35 39  1  0
 36 35  2  0
 37 32  2  0
 37 36  1  0
 38 37  1  0
 40 41  1  0
 41 44  1  0
 41 43  1  0
 42 40  2  0
 45 20  1  0
 45 46  1  0
 47 45  1  0
 48 49  1  0
 48  1  1  0
 50 51  1  0
 50 49  2  0
 52 63  2  0
 53 51  1  0
 53 58  1  0
 54 62  1  0
 54 64  1  0
 55 61  1  0
 55 57  1  0
 56 62  1  0
 57 56  1  0
 58 57  2  0
 59 60  1  0
 59 53  2  0
 60 55  2  0
 61 54  1  0
 62 52  1  0
 64 66  2  0
 65 64  1  0
 67 65  1  0
 68 77  2  0
 68 73  1  0
 69 65  1  0
 69 73  1  0
 70 69  1  0
 71 72  1  0
 71 70  1  0
 72 68  1  0
 73 74  2  0
 74 75  1  0
 76 75  2  0
 77 76  1  0
 78 52  1  0
 78 83  1  0
 78 79  1  0
 79 82  1  1
 79 80  1  0
 81 79  1  0
 83 86  1  0
 84 88  1  0
 84 83  1  0
 85 84  2  0
 88 87  1  0
 90 91  1  0
 90 88  1  0
 90 89  1  0
M  ISO  4  10 100  18 100  50 101  51 101
M  END
>  <TORSDO>  (3) 
F 20

>  <SCORE>  (3) 
-14.064

>  <name>  (3) 
2

>  <ligand_id>  (3) 
2

>  <original_smiles>  (3) 
[H]c1c([H])c([H])c2c(c1[H])C([H])([H])C([H])([H])C([H])([H])C2([H])N([H])C(=O)C1([H])N(C(=O)C([H])(N([H])C(=O)C([H])(N([H])C([H])([H])[H])C([H])([H])[H])C(C([H])([H])[H])(C([H])([H])[H])C([H])([H])[H])C([H])([H])c2c([H])c(OC([H])([H])C([H])([H])C([H])([H])N([H])c3c([H])c([H])c(N([H])C(=O)N4C([H])([H])C([H])([H])C([H])([H])C([H])(n5nc(-c6c([H])c([H])c(Oc7c([H])c([H])c(F)c([H])c7F)c([H])c6[H])c(C(=O)N([H])[H])c5N([H])[H])C4([H])[H])c(F)c3[H])c([H])c([H])c2C1([H])[H]

>  <smiles>  (3) 
[H]c1c([H])c([H])c2c(c1[H])C([H])([H])C([H])([H])C([H])([H])C2([H])N([H])C(=O)C1([H])N(C(=O)C([H])(N([H])C(=O)C([H])(N([H])C([H])([H])[H])C([H])([H])[H])C(C([H])([H])[H])(C([H])([H])[H])C([H])([H])[H])C([H])([H])c2c([H])c(OC([H])([H])C([H])([H])C([H])([H])N([H])c3c([H])c([H])c(N([H])C(=O)N4C([H])([H])C([H])([H])C([H])([H])C([H])(n5nc(-c6c([H])c([H])c(Oc7c([H])c([H])c(F)c([H])c7F)c([H])c6[H])c(C(=O)N([H])[H])c5N([H])[H])C4([H])[H])c(F)c3[H])c([H])c([H])c2C1([H])[H]

$$$$
3:0:0
     RDKit          3D

 95103  0  0  1  0  0  0  0  0999 V2000
  -30.5380  -23.7020   24.1650 C   0  0  0  0  0  2  0  0  0  0  0  0
  -29.6910  -21.3280   23.8540 C   0  0  0  0  0  3  0  0  0  0  0  0
  -31.9380  -21.8780   23.0660 C   0  0  0  0  0  3  0  0  0  0  0  0
  -29.8020  -20.0500   23.2970 C   0  0  0  0  0  3  0  0  0  0  0  0
  -32.0590  -20.5800   22.5280 C   0  0  0  0  0  3  0  0  0  0  0  0
  -30.7400  -22.2670   23.6990 C   0  0  0  0  0  0  0  0  0  0  0  0
  -30.9910  -19.6700   22.6240 C   0  0  0  0  0  0  0  0  0  0  0  0
  -30.7800  -17.2620   22.8870 C   0  0  0  0  0  1  0  0  0  0  0  0
  -31.1190  -18.4020   22.0330 N   0  0  0  0  0  0  0  0  0  0  0  0
  -30.8760  -18.3990   20.5850 C   0  0  0  0  0  2  0  0  0  0  0  0
  -31.4350  -17.1440   19.8980 C   0  0  0  0  0  2  0  0  0  0  0  0
  -30.7100  -15.8340   20.3090 C   0  0  0  0  0  2  0  0  0  0  0  0
  -31.2500  -14.6030   19.5620 C   0  0  0  0  0  0  0  0  0  0  0  0
  -30.8370  -12.3660   18.6310 C   0  0  0  0  0  2  0  0  0  0  0  0
  -29.8330  -12.4670   17.4700 C   0  0  0  0  0  2  0  0  0  0  0  0
  -28.3880  -12.3790   17.9980 C   0  0  0  0  0  2  0  0  0  0  0  0
  -28.1240  -13.3580   19.1800 C   0  0  0  0  0  3  0  0  0  0  0  0
  -29.2400  -13.2470   20.2450 C   0  0  0  0  0  2  0  0  0  0  0  0
  -30.5340  -13.4520   19.5720 N   0  0  0  0  0  0  0  0  0  0  0  0
  -32.2980  -14.7290   18.9200 O   0  0  0  0  0  0  0  0  0  0  0  0
  -25.7930  -14.0620   20.0350 C   0  0  0  0  0  0  0  0  0  0  0  0
  -24.7320  -13.3310   20.5070 C   0  0  0  0  0  0  0  0  0  0  0  0
  -25.1530  -11.9680   20.4880 C   0  0  0  0  0  0  0  0  0  0  0  0
  -26.7950  -13.1430   19.7610 N   0  0  0  0  0  0  0  0  0  0  0  0
  -26.4160  -11.8810   20.0890 N   0  0  0  0  0  0  0  0  0  0  0  0
  -24.4090  -10.7330   20.7690 C   0  0  0  0  0  0  0  0  0  0  0  0
  -24.8320   -9.8280   21.7660 C   0  0  0  0  0  3  0  0  0  0  0  0
  -24.0870   -8.6570   22.0320 C   0  0  0  0  0  3  0  0  0  0  0  0
  -22.9070   -8.3860   21.2990 C   0  0  0  0  0  0  0  0  0  0  0  0
  -22.5020   -9.2810   20.2940 C   0  0  0  0  0  3  0  0  0  0  0  0
  -23.2480  -10.4430   20.0270 C   0  0  0  0  0  3  0  0  0  0  0  0
  -22.1330   -7.2650   21.4730 O   0  0  0  0  0  0  0  0  0  0  0  0
  -21.9410   -6.7040   22.7120 C   0  0  0  0  0  0  0  0  0  0  0  0
  -21.3900   -7.4400   23.7820 C   0  0  0  0  0  3  0  0  0  0  0  0
  -21.1410   -6.8060   25.0170 C   0  0  0  0  0  3  0  0  0  0  0  0
  -21.4380   -5.4400   25.1800 C   0  0  0  0  0  0  0  0  0  0  0  0
  -21.9810   -4.7060   24.1100 C   0  0  0  0  0  3  0  0  0  0  0  0
  -22.2270   -5.3360   22.8800 C   0  0  0  0  0  0  0  0  0  0  0  0
  -22.7340   -4.6170   21.8470 F   0  0  0  0  0  0  0  0  0  0  0  0
  -21.1930   -4.8300   26.3610 F   0  0  0  0  0  0  0  0  0  0  0  0
  -23.3740  -13.8640   20.8630 C   0  0  0  0  0  0  0  0  0  0  0  0
  -22.7050  -13.2420   21.8320 N   0  0  0  0  0  0  0  0  0  0  0  0
  -22.9080  -14.8570   20.3100 O   0  0  0  0  0  0  0  0  0  0  0  0
  -23.0930  -12.4400   22.3030 H   0  0  0  0  0  0  0  0  0  0  0  0
  -21.7970  -13.5870   22.1080 H   0  0  0  0  0  0  0  0  0  0  0  0
  -25.9750  -15.4190   19.8060 N   0  0  0  0  0  0  0  0  0  0  0  0
  -25.2290  -16.0890   19.9530 H   0  0  0  0  0  0  0  0  0  0  0  0
  -26.8090  -15.8370   19.4120 H   0  0  0  0  0  0  0  0  0  0  0  0
  -30.3140  -26.0300   23.4180 C   0  0  0  0  0  1  0  0  0  0  0  0
  -30.1710  -24.5990   23.0330 N   0  0  2  0  0  4  0  0  0  0  0  0
  -30.8650  -24.4090   22.3180 H   0  0  0  0  0  0  0  0  0  0  0  0
  -28.8260  -24.2960   22.4440 C   0  0  0  0  0  2  0  0  0  0  0  0
  -28.7150  -24.6660   20.9250 C   0  0  0  0  0  2  0  0  0  0  0  0
  -27.3720  -25.3690   20.6070 C   0  0  0  0  0  2  0  0  0  0  0  0
  -27.3340  -26.3550   19.5930 O   0  0  0  0  0  0  0  0  0  0  0  0
  -24.2530  -31.7040   23.0840 C   0  0  0  0  0  0  0  0  0  0  0  0
  -26.1960  -27.1310   19.7130 C   0  0  0  0  0  0  0  0  0  0  0  0
  -22.7710  -30.4810   21.5200 C   0  0  0  0  0  3  0  0  0  0  0  0
  -23.9340  -28.8100   19.9830 C   0  0  0  0  0  0  0  0  0  0  0  0
  -25.2990  -30.5670   21.1380 C   0  0  0  0  0  2  0  0  0  0  0  0
  -25.1780  -29.2080   20.4900 C   0  0  0  0  0  0  0  0  0  0  0  0
  -26.3000  -28.3640   20.3720 C   0  0  0  0  0  3  0  0  0  0  0  0
  -24.9250  -26.7060   19.2540 C   0  0  0  0  0  3  0  0  0  0  0  0
  -23.7890  -27.5430   19.3860 C   0  0  0  0  0  3  0  0  0  0  0  0
  -22.8020  -29.8010   20.1190 C   0  0  0  0  0  2  0  0  0  0  0  0
  -24.1320  -30.9290   21.9730 N   0  0  0  0  0  0  0  0  0  0  0  0
  -23.2540  -32.0900   23.7070 O   0  0  0  0  0  0  0  0  0  0  0  0
  -22.0830  -29.5260   22.5160 C   0  0  0  0  0  0  0  0  0  0  0  0
  -20.7410  -29.4430   22.4470 N   0  0  0  0  0  0  0  0  0  0  0  0
  -22.7460  -28.8510   23.3110 O   0  0  0  0  0  0  0  0  0  0  0  0
  -20.2750  -30.0300   21.7770 H   0  0  0  0  0  0  0  0  0  0  0  0
  -17.3180  -28.4770   23.0100 C   0  0  0  0  0  0  0  0  0  0  0  0
  -19.8880  -28.5840   23.2530 C   0  0  0  0  0  3  0  0  0  0  0  0
  -19.9000  -27.1290   22.7230 C   0  0  0  0  0  2  0  0  0  0  0  0
  -18.7690  -26.8450   21.7330 C   0  0  0  0  0  2  0  0  0  0  0  0
  -17.4030  -27.0960   22.3810 C   0  0  0  0  0  2  0  0  0  0  0  0
  -18.4820  -29.1800   23.4080 C   0  0  0  0  0  0  0  0  0  0  0  0
  -18.3490  -30.4780   23.9510 C   0  0  0  0  0  3  0  0  0  0  0  0
  -17.0760  -31.0620   24.1110 C   0  0  0  0  0  3  0  0  0  0  0  0
  -15.9240  -30.3500   23.7380 C   0  0  0  0  0  3  0  0  0  0  0  0
  -16.0450  -29.0620   23.1840 C   0  0  0  0  0  3  0  0  0  0  0  0
  -25.6440  -32.1650   23.6110 C   0  0  0  0  0  3  0  0  0  0  0  0
  -26.2010  -31.2620   24.7760 C   0  0  1  0  0  0  0  0  0  0  0  0
  -25.1870  -31.0630   25.9250 C   0  0  0  0  0  1  0  0  0  0  0  0
  -26.6060  -29.8700   24.2390 C   0  0  0  0  0  1  0  0  0  0  0  0
  -27.4890  -31.8880   25.3660 C   0  0  0  0  0  1  0  0  0  0  0  0
  -25.5100  -33.5560   24.0640 N   0  0  0  0  0  0  0  0  0  0  0  0
  -25.9190  -34.6250   23.3670 C   0  0  0  0  0  0  0  0  0  0  0  0
  -26.5180  -34.5330   22.2920 O   0  0  0  0  0  0  0  0  0  0  0  0
  -24.9780  -33.7050   24.9080 H   0  0  0  0  0  0  0  0  0  0  0  0
  -24.3780  -36.6000   23.2370 C   0  0  0  0  0  1  0  0  0  0  0  0
  -25.6040  -36.0160   23.9560 C   0  0  0  0  0  3  0  0  0  0  0  0
  -27.8520  -36.6000   24.7470 C   0  0  0  0  0  1  0  0  0  0  0  0
  -26.7400  -36.9560   23.8670 N   0  0  0  0  0  0  0  0  0  0  0  0
  -26.4450  -37.9030   24.0900 H   0  0  0  0  0  0  0  0  0  0  0  0
  3  6  2  0
  4  2  2  0
  5  7  2  0
  5  3  1  0
  6  2  1  0
  6  1  1  0
  7  4  1  0
  9  7  1  0
  9  8  1  0
 10  9  1  0
 11 12  1  0
 11 10  1  0
 13 19  1  0
 13 12  1  0
 14 19  1  0
 15 16  1  0
 15 14  1  0
 17 16  1  0
 17 24  1  0
 17 18  1  0
 19 18  1  0
 20 13  2  0
 21 22  2  0
 22 41  1  0
 23 22  1  0
 23 26  1  0
 24 21  1  0
 24 25  1  0
 25 23  2  0
 26 27  1  0
 27 28  2  0
 29 32  1  0
 29 28  1  0
 30 29  2  0
 31 30  1  0
 31 26  2  0
 32 33  1  0
 33 38  2  0
 33 34  1  0
 34 35  2  0
 35 36  1  0
 36 40  1  0
 37 36  2  0
 38 37  1  0
 39 38  1  0
 41 42  1  0
 42 45  1  0
 42 44  1  0
 43 41  2  0
 46 47  1  0
 46 21  1  0
 48 46  1  0
 50 49  1  0
 50  1  1  0
 50 51  1  6
 52 50  1  0
 53 52  1  0
 54 53  1  0
 55 57  1  0
 55 54  1  0
 56 67  2  0
 57 62  1  0
 58 66  1  0
 58 68  1  0
 59 65  1  0
 59 61  1  0
 60 66  1  0
 61 60  1  0
 62 61  2  0
 63 64  1  0
 63 57  2  0
 64 59  2  0
 65 58  1  0
 66 56  1  0
 68 70  2  0
 69 68  1  0
 71 69  1  0
 72 81  2  0
 72 77  1  0
 73 69  1  0
 73 77  1  0
 74 73  1  0
 75 76  1  0
 75 74  1  0
 76 72  1  0
 77 78  2  0
 78 79  1  0
 80 79  2  0
 81 80  1  0
 82 56  1  0
 82 87  1  0
 82 83  1  0
 83 86  1  1
 83 84  1  0
 85 83  1  0
 87 90  1  0
 88 92  1  0
 88 87  1  0
 89 88  2  0
 92 91  1  0
 94 92  1  0
 94 95  1  0
 94 93  1  0
M  ISO  4  12 100  13 100  54 101  55 101
M  END
>  <TORSDO>  (4) 
F 25

>  <SCORE>  (4) 
-6.816

>  <name>  (4) 
3

>  <ligand_id>  (4) 
3

>  <original_smiles>  (4) 
[H]c1c([H])c([H])c2c(c1[H])C([H])([H])C([H])([H])C([H])([H])C2([H])N([H])C(=O)C1([H])N(C(=O)C([H])(N([H])C(=O)C([H])(N([H])C([H])([H])[H])C([H])([H])[H])C(C([H])([H])[H])(C([H])([H])[H])C([H])([H])[H])C([H])([H])c2c([H])c(OC([H])([H])C([H])([H])C([H])([H])[N+]([H])(C([H])([H])[H])C([H])([H])c3c([H])c([H])c(N(C([H])([H])[H])C([H])([H])C([H])([H])C([H])([H])C(=O)N4C([H])([H])C([H])([H])C([H])([H])C([H])(n5nc(-c6c([H])c([H])c(Oc7c([H])c([H])c(F)c([H])c7F)c([H])c6[H])c(C(=O)N([H])[H])c5N([H])[H])C4([H])[H])c([H])c3[H])c([H])c([H])c2C1([H])[H]

>  <smiles>  (4) 
[H]c1c([H])c([H])c2c(c1[H])C([H])([H])C([H])([H])C([H])([H])C2([H])N([H])C(=O)C1([H])N(C(=O)C([H])(N([H])C(=O)C([H])(N([H])C([H])([H])[H])C([H])([H])[H])C(C([H])([H])[H])(C([H])([H])[H])C([H])([H])[H])C([H])([H])c2c([H])c(OC([H])([H])C([H])([H])C([H])([H])[N+]([H])(C([H])([H])[H])C([H])([H])c3c([H])c([H])c(N(C([H])([H])[H])C([H])([H])C([H])([H])C([H])([H])C(=O)N4C([H])([H])C([H])([H])C([H])([H])C([H])(n5nc(-c6c([H])c([H])c(Oc7c([H])c([H])c(F)c([H])c7F)c([H])c6[H])c(C(=O)N([H])[H])c5N([H])[H])C4([H])[H])c([H])c3[H])c([H])c([H])c2C1([H])[H]

$$$$
4:0:0
     RDKit          3D

 93102  0  0  1  0  0  0  0  0999 V2000
  -27.6270  -23.6120   18.0330 C   0  0  0  0  0  2  0  0  0  0  0  0
  -27.7610  -22.1190   18.2970 C   0  0  0  0  0  2  0  0  0  0  0  0
  -29.2100  -23.2080   19.8230 C   0  0  0  0  0  2  0  0  0  0  0  0
  -28.1900  -24.2710   19.3010 C   0  0  0  0  0  3  0  0  0  0  0  0
  -29.0140  -21.9890   19.0200 N   0  0  0  0  0  0  0  0  0  0  0  0
  -29.8960  -18.3690   18.8260 C   0  0  0  0  0  3  0  0  0  0  0  0
  -29.8050  -19.7490   18.5390 C   0  0  0  0  0  3  0  0  0  0  0  0
  -28.9460  -18.7770   21.0190 C   0  0  0  0  0  3  0  0  0  0  0  0
  -29.4270  -17.8570   20.0550 C   0  0  0  0  0  0  0  0  0  0  0  0
  -29.2560  -20.6660   19.4680 C   0  0  0  0  0  0  0  0  0  0  0  0
  -28.8560  -20.1640   20.7350 C   0  0  0  0  0  0  0  0  0  0  0  0
  -28.3050  -20.9870   21.6580 F   0  0  0  0  0  0  0  0  0  0  0  0
  -29.2780  -16.3360   20.2580 C   0  0  0  0  0  2  0  0  0  0  0  0
  -30.9410  -14.4950   20.0020 C   0  0  0  0  0  0  0  0  0  0  0  0
  -30.5420  -12.2810   18.9610 C   0  0  0  0  0  2  0  0  0  0  0  0
  -29.5630  -12.4020   17.7770 C   0  0  0  0  0  2  0  0  0  0  0  0
  -28.1080  -12.2710   18.2670 C   0  0  0  0  0  2  0  0  0  0  0  0
  -27.8080  -13.1920   19.4770 C   0  0  0  0  0  3  0  0  0  0  0  0
  -28.9050  -13.0780   20.5630 C   0  0  0  0  0  2  0  0  0  0  0  0
  -30.2080  -13.3420   19.9300 N   0  0  0  0  0  0  0  0  0  0  0  0
  -32.0550  -14.5830   19.4750 O   0  0  0  0  0  0  0  0  0  0  0  0
  -31.3290  -16.2700   21.6260 C   0  0  0  0  0  1  0  0  0  0  0  0
  -30.4420  -15.5420   20.7170 N   0  0  0  0  0  0  0  0  0  0  0  0
  -25.4820  -13.8850   20.3180 C   0  0  0  0  0  0  0  0  0  0  0  0
  -24.4040  -13.1500   20.7300 C   0  0  0  0  0  0  0  0  0  0  0  0
  -24.8110  -11.7830   20.6620 C   0  0  0  0  0  0  0  0  0  0  0  0
  -26.4760  -12.9650   20.0230 N   0  0  0  0  0  0  0  0  0  0  0  0
  -26.0820  -11.6970   20.2900 N   0  0  0  0  0  0  0  0  0  0  0  0
  -24.0480  -10.5470   20.8680 C   0  0  0  0  0  0  0  0  0  0  0  0
  -24.4440   -9.5870   21.8240 C   0  0  0  0  0  3  0  0  0  0  0  0
  -23.6850   -8.4120   22.0160 C   0  0  0  0  0  3  0  0  0  0  0  0
  -22.5140   -8.1920   21.2510 C   0  0  0  0  0  0  0  0  0  0  0  0
  -22.1380   -9.1390   20.2830 C   0  0  0  0  0  3  0  0  0  0  0  0
  -22.8980  -10.3050   20.0890 C   0  0  0  0  0  3  0  0  0  0  0  0
  -21.7280   -7.0700   21.3520 O   0  0  0  0  0  0  0  0  0  0  0  0
  -21.5930   -6.3900   22.5350 C   0  0  0  0  0  0  0  0  0  0  0  0
  -21.0980   -7.0140   23.7020 C   0  0  0  0  0  3  0  0  0  0  0  0
  -20.9120   -6.2620   24.8780 C   0  0  0  0  0  3  0  0  0  0  0  0
  -21.2080   -4.8850   24.8880 C   0  0  0  0  0  0  0  0  0  0  0  0
  -21.6950   -4.2600   23.7260 C   0  0  0  0  0  3  0  0  0  0  0  0
  -21.8850   -5.0110   22.5520 C   0  0  0  0  0  0  0  0  0  0  0  0
  -22.3350   -4.4010   21.4300 F   0  0  0  0  0  0  0  0  0  0  0  0
  -21.0210   -4.1600   26.0150 F   0  0  0  0  0  0  0  0  0  0  0  0
  -23.0400  -13.6770   21.0690 C   0  0  0  0  0  0  0  0  0  0  0  0
  -22.3240  -13.0000   21.9600 N   0  0  0  0  0  0  0  0  0  0  0  0
  -22.6190  -14.7250   20.5800 O   0  0  0  0  0  0  0  0  0  0  0  0
  -22.6760  -12.1530   22.3810 H   0  0  0  0  0  0  0  0  0  0  0  0
  -21.4090  -13.3350   22.2270 H   0  0  0  0  0  0  0  0  0  0  0  0
  -25.6880  -15.2510   20.1460 N   0  0  0  0  0  0  0  0  0  0  0  0
  -24.9410  -15.9230   20.2880 H   0  0  0  0  0  0  0  0  0  0  0  0
  -26.5160  -15.6610   19.7390 H   0  0  0  0  0  0  0  0  0  0  0  0
  -28.7200  -25.7110   18.9970 C   0  0  0  0  0  2  0  0  0  0  0  0
  -28.4950  -26.7340   19.9860 O   0  0  0  0  0  0  0  0  0  0  0  0
  -24.6410  -31.8460   23.1410 C   0  0  0  0  0  0  0  0  0  0  0  0
  -27.3090  -27.4500   19.9760 C   0  0  0  0  0  0  0  0  0  0  0  0
  -23.4430  -30.4620   21.4800 C   0  0  0  0  0  3  0  0  0  0  0  0
  -24.9020  -28.9550   20.0260 C   0  0  0  0  0  0  0  0  0  0  0  0
  -25.9680  -30.8310   21.2890 C   0  0  0  0  0  2  0  0  0  0  0  0
  -26.0580  -29.4680   20.6280 C   0  0  0  0  0  0  0  0  0  0  0  0
  -27.2580  -28.7170   20.6090 C   0  0  0  0  0  3  0  0  0  0  0  0
  -26.1280  -26.9580   19.3730 C   0  0  0  0  0  3  0  0  0  0  0  0
  -24.9320  -27.6990   19.4010 C   0  0  0  0  0  3  0  0  0  0  0  0
  -23.6540  -29.8070   20.0890 C   0  0  0  0  0  2  0  0  0  0  0  0
  -24.7020  -31.0610   22.0280 N   0  0  0  0  0  0  0  0  0  0  0  0
  -23.5590  -32.1040   23.6850 O   0  0  0  0  0  0  0  0  0  0  0  0
  -22.7990  -29.4210   22.4250 C   0  0  0  0  0  0  0  0  0  0  0  0
  -21.4730  -29.2440   22.3050 N   0  0  0  0  0  0  0  0  0  0  0  0
  -23.4880  -28.7790   23.2200 O   0  0  0  0  0  0  0  0  0  0  0  0
  -20.9780  -29.8150   21.6350 H   0  0  0  0  0  0  0  0  0  0  0  0
  -18.0990  -28.0550   22.8180 C   0  0  0  0  0  0  0  0  0  0  0  0
  -20.6610  -28.2920   23.0640 C   0  0  0  0  0  3  0  0  0  0  0  0
  -20.7480  -26.8760   22.4500 C   0  0  0  0  0  2  0  0  0  0  0  0
  -19.6320  -26.5850   21.4430 C   0  0  0  0  0  2  0  0  0  0  0  0
  -18.2590  -26.7210   22.1090 C   0  0  0  0  0  2  0  0  0  0  0  0
  -19.2270  -28.8000   23.2520 C   0  0  0  0  0  0  0  0  0  0  0  0
  -19.0240  -30.0500   23.8760 C   0  0  0  0  0  3  0  0  0  0  0  0
  -17.7240  -30.5550   24.0690 C   0  0  0  0  0  3  0  0  0  0  0  0
  -16.6100  -29.8060   23.6520 C   0  0  0  0  0  3  0  0  0  0  0  0
  -16.7980  -28.5580   23.0320 C   0  0  0  0  0  3  0  0  0  0  0  0
  -25.9240  -32.4760   23.7690 C   0  0  0  0  0  3  0  0  0  0  0  0
  -26.4570  -31.6810   25.0230 C   0  0  1  0  0  0  0  0  0  0  0  0
  -25.3750  -31.4090   26.0940 C   0  0  0  0  0  1  0  0  0  0  0  0
  -27.0480  -30.3190   24.5940 C   0  0  0  0  0  1  0  0  0  0  0  0
  -27.6070  -32.4700   25.6940 C   0  0  0  0  0  1  0  0  0  0  0  0
  -25.6030  -33.8630   24.1310 N   0  0  0  0  0  0  0  0  0  0  0  0
  -25.9140  -34.9340   23.3890 C   0  0  0  0  0  0  0  0  0  0  0  0
  -26.5730  -34.8590   22.3490 O   0  0  0  0  0  0  0  0  0  0  0  0
  -25.0190  -33.9950   24.9440 H   0  0  0  0  0  0  0  0  0  0  0  0
  -24.1580  -36.7100   23.0880 C   0  0  0  0  0  1  0  0  0  0  0  0
  -25.4140  -36.3070   23.8800 C   0  0  0  0  0  3  0  0  0  0  0  0
  -27.5470  -37.2030   24.7030 C   0  0  0  0  0  1  0  0  0  0  0  0
  -26.4310  -37.3760   23.7760 N   0  0  0  0  0  0  0  0  0  0  0  0
  -26.0150  -38.2870   23.9500 H   0  0  0  0  0  0  0  0  0  0  0  0
  1  2  1  0
  1  4  1  0
  2  5  1  0
  4 52  1  0
  4  3  1  0
  5 10  1  0
  5  3  1  0
  6  9  1  0
  7  6  2  0
  7 10  1  0
  9 13  1  0
  9  8  2  0
 10 11  2  0
 11  8  1  0
 11 12  1  0
 13 23  1  0
 14 23  1  0
 15 20  1  0
 16 17  1  0
 16 15  1  0
 18 17  1  0
 18 27  1  0
 18 19  1  0
 20 14  1  0
 20 19  1  0
 21 14  2  0
 23 22  1  0
 24 25  2  0
 25 44  1  0
 26 25  1  0
 26 29  1  0
 27 28  1  0
 27 24  1  0
 28 26  2  0
 29 30  1  0
 30 31  2  0
 32 35  1  0
 32 31  1  0
 33 32  2  0
 34 33  1  0
 34 29  2  0
 35 36  1  0
 36 41  2  0
 36 37  1  0
 37 38  2  0
 38 39  1  0
 39 43  1  0
 40 39  2  0
 41 40  1  0
 42 41  1  0
 44 45  1  0
 45 48  1  0
 45 47  1  0
 46 44  2  0
 49 50  1  0
 49 24  1  0
 51 49  1  0
 52 53  1  0
 54 65  2  0
 55 53  1  0
 55 60  1  0
 56 64  1  0
 56 66  1  0
 57 63  1  0
 57 59  1  0
 58 64  1  0
 59 58  1  0
 60 59  2  0
 61 62  1  0
 61 55  2  0
 62 57  2  0
 63 56  1  0
 64 54  1  0
 66 68  2  0
 67 66  1  0
 69 67  1  0
 70 79  2  0
 70 75  1  0
 71 67  1  0
 71 75  1  0
 72 71  1  0
 73 74  1  0
 73 72  1  0
 74 70  1  0
 75 76  2  0
 76 77  1  0
 78 77  2  0
 79 78  1  0
 80 54  1  0
 80 85  1  0
 80 81  1  0
 81 84  1  1
 81 82  1  0
 83 81  1  0
 85 88  1  0
 86 90  1  0
 86 85  1  0
 87 86  2  0
 90 89  1  0
 92 90  1  0
 92 93  1  0
 92 91  1  0
M  ISO  4  14 100  23 100  52 101  53 101
M  END
>  <TORSDO>  (5) 
F 19

>  <SCORE>  (5) 
-13.913

>  <name>  (5) 
4

>  <ligand_id>  (5) 
4

>  <original_smiles>  (5) 
[H]c1c([H])c([H])c2c(c1[H])C([H])([H])C([H])([H])C([H])([H])C2([H])N([H])C(=O)C1([H])N(C(=O)C([H])(N([H])C(=O)C([H])(N([H])C([H])([H])[H])C([H])([H])[H])C(C([H])([H])[H])(C([H])([H])[H])C([H])([H])[H])C([H])([H])c2c([H])c(OC([H])([H])C3([H])C([H])([H])N(c4c([H])c([H])c(C([H])([H])N(C(=O)N5C([H])([H])C([H])([H])C([H])([H])C([H])(n6nc(-c7c([H])c([H])c(Oc8c([H])c([H])c(F)c([H])c8F)c([H])c7[H])c(C(=O)N([H])[H])c6N([H])[H])C5([H])[H])C([H])([H])[H])c([H])c4F)C([H])([H])C3([H])[H])c([H])c([H])c2C1([H])[H]

>  <smiles>  (5) 
[H]c1c([H])c([H])c2c(c1[H])C([H])([H])C([H])([H])C([H])([H])C2([H])N([H])C(=O)C1([H])N(C(=O)C([H])(N([H])C(=O)C([H])(N([H])C([H])([H])[H])C([H])([H])[H])C(C([H])([H])[H])(C([H])([H])[H])C([H])([H])[H])C([H])([H])c2c([H])c(OC([H])([H])C3([H])C([H])([H])N(c4c([H])c([H])c(C([H])([H])N(C(=O)N5C([H])([H])C([H])([H])C([H])([H])C([H])(n6nc(-c7c([H])c([H])c(Oc8c([H])c([H])c(F)c([H])c8F)c([H])c7[H])c(C(=O)N([H])[H])c6N([H])[H])C5([H])[H])C([H])([H])[H])c([H])c4F)C([H])([H])C3([H])[H])c([H])c([H])c2C1([H])[H]

$$$$
5:0:0
     RDKit          3D

 90 98  0  0  1  0  0  0  0  0999 V2000
  -30.6620  -18.5820   20.4600 C   0  0  0  0  0  3  0  0  0  0  0  0
  -30.3710  -20.0190   20.4070 C   0  0  0  0  0  3  0  0  0  0  0  0
  -28.4640  -18.1370   19.7410 C   0  0  0  0  0  3  0  0  0  0  0  0
  -29.7020  -17.5530   20.1530 C   0  0  0  0  0  0  0  0  0  0  0  0
  -29.0980  -20.5920   20.0360 C   0  0  0  0  0  0  0  0  0  0  0  0
  -28.1730  -19.5490   19.6740 C   0  0  0  0  0  0  0  0  0  0  0  0
  -26.5780  -19.9780   19.1490 Cl  0  0  0  0  0  0  0  0  0  0  0  0
  -30.6530  -14.9440   20.0550 C   0  0  0  0  0  0  0  0  0  0  0  0
  -30.5320  -12.5890   19.1330 C   0  0  0  0  0  2  0  0  0  0  0  0
  -29.5460  -12.5570   17.9400 C   0  0  0  0  0  2  0  0  0  0  0  0
  -28.0940  -12.3650   18.4230 C   0  0  0  0  0  2  0  0  0  0  0  0
  -27.7390  -13.2950   19.6120 C   0  0  0  0  0  3  0  0  0  0  0  0
  -28.8350  -13.2720   20.7000 C   0  0  0  0  0  2  0  0  0  0  0  0
  -30.0960  -13.6700   20.0560 N   0  0  0  0  0  0  0  0  0  0  0  0
  -31.8300  -15.0740   19.7000 O   0  0  0  0  0  0  0  0  0  0  0  0
  -29.7760  -16.0290   20.2730 N   0  0  0  0  0  0  0  0  0  0  0  0
  -28.8760  -15.6420   20.5080 H   0  0  0  0  0  0  0  0  0  0  0  0
  -25.3960  -13.9070   20.4520 C   0  0  0  0  0  0  0  0  0  0  0  0
  -24.3350  -13.1450   20.8570 C   0  0  0  0  0  0  0  0  0  0  0  0
  -24.7740  -11.7880   20.7840 C   0  0  0  0  0  0  0  0  0  0  0  0
  -26.4140  -13.0150   20.1550 N   0  0  0  0  0  0  0  0  0  0  0  0
  -26.0500  -11.7340   20.4200 N   0  0  0  0  0  0  0  0  0  0  0  0
  -24.0330  -10.5340   20.9820 C   0  0  0  0  0  0  0  0  0  0  0  0
  -24.4760   -9.5520   21.8960 C   0  0  0  0  0  3  0  0  0  0  0  0
  -23.7360   -8.3650   22.0840 C   0  0  0  0  0  3  0  0  0  0  0  0
  -22.5390   -8.1510   21.3570 C   0  0  0  0  0  0  0  0  0  0  0  0
  -22.1160   -9.1220   20.4330 C   0  0  0  0  0  3  0  0  0  0  0  0
  -22.8570  -10.3010   20.2430 C   0  0  0  0  0  3  0  0  0  0  0  0
  -21.7710   -7.0180   21.4560 O   0  0  0  0  0  0  0  0  0  0  0  0
  -21.7230   -6.2780   22.6100 C   0  0  0  0  0  0  0  0  0  0  0  0
  -21.2860   -6.8320   23.8330 C   0  0  0  0  0  3  0  0  0  0  0  0
  -21.1870   -6.0180   24.9800 C   0  0  0  0  0  3  0  0  0  0  0  0
  -21.5130   -4.6510   24.9040 C   0  0  0  0  0  0  0  0  0  0  0  0
  -21.9440   -4.0970   23.6860 C   0  0  0  0  0  3  0  0  0  0  0  0
  -22.0450   -4.9070   22.5410 C   0  0  0  0  0  0  0  0  0  0  0  0
  -22.4390   -4.3630   21.3650 F   0  0  0  0  0  0  0  0  0  0  0  0
  -21.4110   -3.8670   26.0020 F   0  0  0  0  0  0  0  0  0  0  0  0
  -22.9580  -13.6410   21.1900 C   0  0  0  0  0  0  0  0  0  0  0  0
  -22.2560  -12.9490   22.0800 N   0  0  0  0  0  0  0  0  0  0  0  0
  -22.5150  -14.6770   20.6960 O   0  0  0  0  0  0  0  0  0  0  0  0
  -22.6280  -12.1110   22.5010 H   0  0  0  0  0  0  0  0  0  0  0  0
  -21.3330  -13.2620   22.3450 H   0  0  0  0  0  0  0  0  0  0  0  0
  -25.5720  -15.2770   20.2830 N   0  0  0  0  0  0  0  0  0  0  0  0
  -24.8000  -15.9240   20.4000 H   0  0  0  0  0  0  0  0  0  0  0  0
  -26.3580  -15.6850   19.7950 H   0  0  0  0  0  0  0  0  0  0  0  0
  -27.9830  -22.1440   21.4900 C   0  0  0  0  0  1  0  0  0  0  0  0
  -28.6410  -22.0050   20.1890 N   0  0  0  0  0  0  0  0  0  0  0  0
  -29.0560  -23.3870   19.6090 C   0  0  0  0  0  3  0  0  0  0  0  0
  -27.9810  -24.6820   19.6450 C   0  0  0  0  0  3  0  0  0  0  0  0
  -28.2570  -26.2030   19.5000 O   0  0  0  0  0  0  0  0  0  0  0  0
  -24.6880  -31.6110   23.0030 C   0  0  0  0  0  0  0  0  0  0  0  0
  -27.1830  -27.1600   19.5610 C   0  0  0  0  0  0  0  0  0  0  0  0
  -23.4380  -30.3330   21.3070 C   0  0  0  0  0  3  0  0  0  0  0  0
  -24.8440  -28.8750   19.7300 C   0  0  0  0  0  0  0  0  0  0  0  0
  -25.9840  -30.6280   21.0790 C   0  0  0  0  0  2  0  0  0  0  0  0
  -26.0400  -29.2880   20.3290 C   0  0  0  0  0  0  0  0  0  0  0  0
  -27.2120  -28.4480   20.2280 C   0  0  0  0  0  3  0  0  0  0  0  0
  -25.9570  -26.8510   18.9280 C   0  0  0  0  0  3  0  0  0  0  0  0
  -24.8130  -27.6710   19.0140 C   0  0  0  0  0  3  0  0  0  0  0  0
  -23.6160  -29.7580   19.8770 C   0  0  0  0  0  2  0  0  0  0  0  0
  -24.7250  -30.8740   21.8520 N   0  0  0  0  0  0  0  0  0  0  0  0
  -23.6190  -31.8520   23.5850 O   0  0  0  0  0  0  0  0  0  0  0  0
  -22.7940  -29.2540   22.2130 C   0  0  0  0  0  0  0  0  0  0  0  0
  -21.4630  -29.0830   22.1120 N   0  0  0  0  0  0  0  0  0  0  0  0
  -23.4920  -28.5760   22.9720 O   0  0  0  0  0  0  0  0  0  0  0  0
  -20.9560  -29.6830   21.4760 H   0  0  0  0  0  0  0  0  0  0  0  0
  -18.1000  -27.8470   22.6400 C   0  0  0  0  0  0  0  0  0  0  0  0
  -20.6680  -28.0910   22.8380 C   0  0  0  0  0  3  0  0  0  0  0  0
  -20.7470  -26.7060   22.1550 C   0  0  0  0  0  2  0  0  0  0  0  0
  -19.6100  -26.4570   21.1580 C   0  0  0  0  0  2  0  0  0  0  0  0
  -18.2510  -26.5520   21.8590 C   0  0  0  0  0  2  0  0  0  0  0  0
  -19.2340  -28.5770   23.0860 C   0  0  0  0  0  0  0  0  0  0  0  0
  -19.0370  -29.7900   23.7800 C   0  0  0  0  0  3  0  0  0  0  0  0
  -17.7380  -30.2730   24.0300 C   0  0  0  0  0  3  0  0  0  0  0  0
  -16.6190  -29.5400   23.5980 C   0  0  0  0  0  3  0  0  0  0  0  0
  -16.8020  -28.3280   22.9090 C   0  0  0  0  0  3  0  0  0  0  0  0
  -25.9850  -32.2040   23.6330 C   0  0  0  0  0  3  0  0  0  0  0  0
  -26.5420  -31.3420   24.8320 C   0  0  1  0  0  0  0  0  0  0  0  0
  -25.4830  -31.0250   25.9160 C   0  0  0  0  0  1  0  0  0  0  0  0
  -27.1100  -29.9970   24.3260 C   0  0  0  0  0  1  0  0  0  0  0  0
  -27.7140  -32.0870   25.5130 C   0  0  0  0  0  1  0  0  0  0  0  0
  -25.6790  -33.5710   24.0830 N   0  0  0  0  0  0  0  0  0  0  0  0
  -25.9560  -34.6840   23.3890 C   0  0  0  0  0  0  0  0  0  0  0  0
  -26.5630  -34.6670   22.3160 O   0  0  0  0  0  0  0  0  0  0  0  0
  -25.1310  -33.6570   24.9260 H   0  0  0  0  0  0  0  0  0  0  0  0
  -24.1830  -36.4680   23.2920 C   0  0  0  0  0  1  0  0  0  0  0  0
  -25.4860  -36.0280   23.9800 C   0  0  0  0  0  3  0  0  0  0  0  0
  -27.6600  -36.8970   24.7220 C   0  0  0  0  0  1  0  0  0  0  0  0
  -26.4940  -37.1050   23.8670 N   0  0  0  0  0  0  0  0  0  0  0  0
  -26.0860  -38.0060   24.1020 H   0  0  0  0  0  0  0  0  0  0  0  0
  2  1  1  0
  3  4  1  0
  4 16  1  0
  4  1  2  0
  5 47  1  0
  5  2  2  0
  6  3  2  0
  6  5  1  0
  7  6  1  0
  8 14  1  0
  8 16  1  0
  9 14  1  0
 10 11  1  0
 10  9  1  0
 12 11  1  0
 12 21  1  0
 12 13  1  0
 14 13  1  0
 15  8  2  0
 16 17  1  0
 18 19  2  0
 19 38  1  0
 20 19  1  0
 20 23  1  0
 21 22  1  0
 21 18  1  0
 22 20  2  0
 23 24  1  0
 24 25  2  0
 26 29  1  0
 26 25  1  0
 27 26  2  0
 28 27  1  0
 28 23  2  0
 29 30  1  0
 30 31  1  0
 31 32  2  0
 33 32  1  0
 33 37  1  0
 34 33  2  0
 35 30  2  0
 35 34  1  0
 36 35  1  0
 38 39  1  0
 39 42  1  0
 39 41  1  0
 40 38  2  0
 43 44  1  0
 43 18  1  0
 45 43  1  0
 47 46  1  0
 48 49  2  0
 48 47  1  0
 50 52  1  0
 50 49  1  0
 51 62  2  0
 52 57  1  0
 53 61  1  0
 53 63  1  0
 54 60  1  0
 54 56  1  0
 55 61  1  0
 56 55  1  0
 57 56  2  0
 58 59  1  0
 58 52  2  0
 59 54  2  0
 60 53  1  0
 61 51  1  0
 63 65  2  0
 64 63  1  0
 66 64  1  0
 67 76  2  0
 67 72  1  0
 68 64  1  0
 68 72  1  0
 69 68  1  0
 70 71  1  0
 70 69  1  0
 71 67  1  0
 72 73  2  0
 73 74  1  0
 75 74  2  0
 76 75  1  0
 77 51  1  0
 77 82  1  0
 77 78  1  0
 78 81  1  1
 78 79  1  0
 80 78  1  0
 82 85  1  0
 83 87  1  0
 83 82  1  0
 84 83  2  0
 87 86  1  0
 89 87  1  0
 89 90  1  0
 89 88  1  0
M  ISO  4   8 100  16 100  49 101  50 101
M  END
>  <TORSDO>  (6) 
F 19

>  <SCORE>  (6) 
-13.568

>  <name>  (6) 
5

>  <ligand_id>  (6) 
5

>  <original_smiles>  (6) 
[H]c1c([H])c([H])c2c(c1[H])C([H])([H])C([H])([H])C([H])([H])C2([H])N([H])C(=O)C1([H])N(C(=O)C([H])(N([H])C(=O)C([H])(N([H])C([H])([H])[H])C([H])([H])[H])C(C([H])([H])[H])(C([H])([H])[H])C([H])([H])[H])C([H])([H])c2c([H])c(OC([H])([H])C([H])([H])N(c3c([H])c([H])c(N([H])C(=O)N4C([H])([H])C([H])([H])C([H])([H])C([H])(n5nc(-c6c([H])c([H])c(Oc7c([H])c([H])c(F)c([H])c7F)c([H])c6[H])c(C(=O)N([H])[H])c5N([H])[H])C4([H])[H])c([H])c3Cl)C([H])([H])[H])c([H])c([H])c2C1([H])[H]

>  <smiles>  (6) 
[H]c1c([H])c([H])c2c(c1[H])C([H])([H])C([H])([H])C([H])([H])C2([H])N([H])C(=O)C1([H])N(C(=O)C([H])(N([H])C(=O)C([H])(N([H])C([H])([H])[H])C([H])([H])[H])C(C([H])([H])[H])(C([H])([H])[H])C([H])([H])[H])C([H])([H])c2c([H])c(OC([H])([H])C([H])([H])N(c3c([H])c([H])c(N([H])C(=O)N4C([H])([H])C([H])([H])C([H])([H])C([H])(n5nc(-c6c([H])c([H])c(Oc7c([H])c([H])c(F)c([H])c7F)c([H])c6[H])c(C(=O)N([H])[H])c5N([H])[H])C4([H])[H])c([H])c3Cl)C([H])([H])[H])c([H])c([H])c2C1([H])[H]

$$$$
6:0:0
     RDKit          3D

 95103  0  0  1  0  0  0  0  0999 V2000
  -30.0850  -21.3840   18.9900 C   0  0  0  0  0  2  0  0  0  0  0  0
  -29.8510  -18.4560   21.4950 C   0  0  0  0  0  3  0  0  0  0  0  0
  -29.5510  -18.9270   18.7490 C   0  0  0  0  0  3  0  0  0  0  0  0
  -29.4870  -17.3880   20.6460 C   0  0  0  0  0  0  0  0  0  0  0  0
  -29.8880  -19.9990   19.5990 C   0  0  0  0  0  0  0  0  0  0  0  0
  -29.3290  -17.6400   19.2610 C   0  0  0  0  0  0  0  0  0  0  0  0
  -30.0440  -19.7560   20.9850 C   0  0  0  0  0  0  0  0  0  0  0  0
  -28.8330  -16.4140   18.1520 Cl  0  0  0  0  0  0  0  0  0  0  0  0
  -30.4580  -21.0280   22.0800 Cl  0  0  0  0  0  0  0  0  0  0  0  0
  -29.2460  -16.0060   21.2490 C   0  0  0  0  0  2  0  0  0  0  0  0
  -30.7210  -14.3310   20.1760 C   0  0  0  0  0  0  0  0  0  0  0  0
  -30.2630  -12.2650   18.9010 C   0  0  0  0  0  2  0  0  0  0  0  0
  -29.2490  -12.5080   17.7670 C   0  0  0  0  0  2  0  0  0  0  0  0
  -27.8040  -12.3660   18.2820 C   0  0  0  0  0  2  0  0  0  0  0  0
  -27.5580  -13.1720   19.5820 C   0  0  0  0  0  3  0  0  0  0  0  0
  -28.6740  -12.8930   20.6180 C   0  0  0  0  0  2  0  0  0  0  0  0
  -29.9720  -13.2070   19.9940 N   0  0  0  0  0  0  0  0  0  0  0  0
  -31.7400  -14.5570   19.5140 O   0  0  0  0  0  0  0  0  0  0  0  0
  -31.5140  -15.5970   22.0830 C   0  0  0  0  0  1  0  0  0  0  0  0
  -30.4170  -15.1090   21.2420 N   0  0  0  0  0  0  0  0  0  0  0  0
  -25.2210  -13.8240   20.4460 C   0  0  0  0  0  0  0  0  0  0  0  0
  -24.1600  -13.0660   20.8620 C   0  0  0  0  0  0  0  0  0  0  0  0
  -24.5880  -11.7060   20.7690 C   0  0  0  0  0  0  0  0  0  0  0  0
  -26.2290  -12.9230   20.1330 N   0  0  0  0  0  0  0  0  0  0  0  0
  -25.8540  -11.6450   20.3820 N   0  0  0  0  0  0  0  0  0  0  0  0
  -23.8480  -10.4540   20.9680 C   0  0  0  0  0  0  0  0  0  0  0  0
  -24.2870   -9.4800   21.8890 C   0  0  0  0  0  3  0  0  0  0  0  0
  -23.5510   -8.2890   22.0760 C   0  0  0  0  0  3  0  0  0  0  0  0
  -22.3630   -8.0690   21.3410 C   0  0  0  0  0  0  0  0  0  0  0  0
  -21.9430   -9.0330   20.4080 C   0  0  0  0  0  3  0  0  0  0  0  0
  -22.6800  -10.2140   20.2190 C   0  0  0  0  0  3  0  0  0  0  0  0
  -21.5960   -6.9330   21.4390 O   0  0  0  0  0  0  0  0  0  0  0  0
  -21.5280   -6.2090   22.6020 C   0  0  0  0  0  0  0  0  0  0  0  0
  -21.0880   -6.7850   23.8140 C   0  0  0  0  0  3  0  0  0  0  0  0
  -20.9670   -5.9870   24.9690 C   0  0  0  0  0  3  0  0  0  0  0  0
  -21.2750   -4.6150   24.9150 C   0  0  0  0  0  0  0  0  0  0  0  0
  -21.7070   -4.0380   23.7070 C   0  0  0  0  0  3  0  0  0  0  0  0
  -21.8310   -4.8330   22.5540 C   0  0  0  0  0  0  0  0  0  0  0  0
  -22.2280   -4.2680   21.3900 F   0  0  0  0  0  0  0  0  0  0  0  0
  -21.1510   -3.8470   26.0220 F   0  0  0  0  0  0  0  0  0  0  0  0
  -22.7910  -13.5640   21.2280 C   0  0  0  0  0  0  0  0  0  0  0  0
  -22.0980  -12.8590   22.1150 N   0  0  0  0  0  0  0  0  0  0  0  0
  -22.3460  -14.6130   20.7630 O   0  0  0  0  0  0  0  0  0  0  0  0
  -22.4720  -12.0110   22.5150 H   0  0  0  0  0  0  0  0  0  0  0  0
  -21.1810  -13.1730   22.3990 H   0  0  0  0  0  0  0  0  0  0  0  0
  -25.4030  -15.1950   20.2890 N   0  0  0  0  0  0  0  0  0  0  0  0
  -24.6470  -15.8520   20.4460 H   0  0  0  0  0  0  0  0  0  0  0  0
  -26.2170  -15.6220   19.8680 H   0  0  0  0  0  0  0  0  0  0  0  0
  -27.8300  -21.5050   17.9320 C   0  0  0  0  0  1  0  0  0  0  0  0
  -28.8210  -22.1500   18.8290 N   0  0  2  0  0  4  0  0  0  0  0  0
  -28.3920  -22.1790   19.7430 H   0  0  0  0  0  0  0  0  0  0  0  0
  -29.0660  -23.5650   18.4490 C   0  0  0  0  0  2  0  0  0  0  0  0
  -28.5660  -24.5380   19.5260 C   0  0  0  0  0  2  0  0  0  0  0  0
  -28.8010  -25.9960   19.1090 C   0  0  0  0  0  2  0  0  0  0  0  0
  -28.4880  -26.8830   20.1760 O   0  0  0  0  0  0  0  0  0  0  0  0
  -24.5770  -31.9340   23.2390 C   0  0  0  0  0  0  0  0  0  0  0  0
  -27.2720  -27.5280   20.1710 C   0  0  0  0  0  0  0  0  0  0  0  0
  -23.3830  -30.5150   21.5980 C   0  0  0  0  0  3  0  0  0  0  0  0
  -24.8510  -28.9830   20.1850 C   0  0  0  0  0  0  0  0  0  0  0  0
  -25.9020  -30.8970   21.4050 C   0  0  0  0  0  2  0  0  0  0  0  0
  -25.9980  -29.5220   20.7810 C   0  0  0  0  0  0  0  0  0  0  0  0
  -27.2030  -28.7940   20.7860 C   0  0  0  0  0  3  0  0  0  0  0  0
  -26.1050  -26.9870   19.5840 C   0  0  0  0  0  3  0  0  0  0  0  0
  -24.8960  -27.7100   19.5920 C   0  0  0  0  0  3  0  0  0  0  0  0
  -23.6000  -29.8290   20.2220 C   0  0  0  0  0  2  0  0  0  0  0  0
  -24.6380  -31.1310   22.1400 N   0  0  0  0  0  0  0  0  0  0  0  0
  -23.4930  -32.2020   23.7760 O   0  0  0  0  0  0  0  0  0  0  0  0
  -22.7390  -29.4940   22.5620 C   0  0  0  0  0  0  0  0  0  0  0  0
  -21.4160  -29.3090   22.4360 N   0  0  0  0  0  0  0  0  0  0  0  0
  -23.4270  -28.8710   23.3750 O   0  0  0  0  0  0  0  0  0  0  0  0
  -20.9240  -29.8630   21.7500 H   0  0  0  0  0  0  0  0  0  0  0  0
  -18.0400  -28.1300   22.9480 C   0  0  0  0  0  0  0  0  0  0  0  0
  -20.6010  -28.3710   23.2070 C   0  0  0  0  0  3  0  0  0  0  0  0
  -20.6910  -26.9430   22.6210 C   0  0  0  0  0  2  0  0  0  0  0  0
  -19.5800  -26.6330   21.6130 C   0  0  0  0  0  2  0  0  0  0  0  0
  -18.2040  -26.7830   22.2670 C   0  0  0  0  0  2  0  0  0  0  0  0
  -19.1660  -28.8830   23.3750 C   0  0  0  0  0  0  0  0  0  0  0  0
  -18.9580  -30.1460   23.9730 C   0  0  0  0  0  3  0  0  0  0  0  0
  -17.6590  -30.6560   24.1470 C   0  0  0  0  0  3  0  0  0  0  0  0
  -16.5470  -29.8990   23.7380 C   0  0  0  0  0  3  0  0  0  0  0  0
  -16.7380  -28.6390   23.1450 C   0  0  0  0  0  3  0  0  0  0  0  0
  -25.8590  -32.5730   23.8590 C   0  0  0  0  0  3  0  0  0  0  0  0
  -25.5450  -33.9700   24.1840 N   0  0  0  0  0  0  0  0  0  0  0  0
  -25.8810  -35.0210   23.4230 C   0  0  0  0  0  0  0  0  0  0  0  0
  -26.5610  -34.9170   22.3990 O   0  0  0  0  0  0  0  0  0  0  0  0
  -24.9400  -34.1240   24.9770 H   0  0  0  0  0  0  0  0  0  0  0  0
  -24.1540  -36.8070   23.0340 C   0  0  0  0  0  1  0  0  0  0  0  0
  -25.3800  -36.4070   23.8710 C   0  0  0  0  0  3  0  0  0  0  0  0
  -27.5000  -37.2920   24.7380 C   0  0  0  0  0  1  0  0  0  0  0  0
  -26.4110  -37.4650   23.7810 N   0  0  0  0  0  0  0  0  0  0  0  0
  -25.9990  -38.3810   23.9340 H   0  0  0  0  0  0  0  0  0  0  0  0
  -26.3820  -31.8060   25.1350 C   0  0  1  0  0  0  0  0  0  0  0  0
  -25.2910  -31.5620   26.2030 C   0  0  0  0  0  1  0  0  0  0  0  0
  -26.9740  -30.4320   24.7420 C   0  0  0  0  0  1  0  0  0  0  0  0
  -27.5280  -32.6080   25.7970 C   0  0  0  0  0  1  0  0  0  0  0  0
  1  5  1  0
  3  6  2  0
  3  5  1  0
  4 10  1  0
  4  2  2  0
  5  7  2  0
  6  4  1  0
  7  2  1  0
  7  9  1  0
  8  6  1  0
 11 20  1  0
 12 17  1  0
 13 14  1  0
 13 12  1  0
 15 14  1  0
 15 24  1  0
 15 16  1  0
 17 11  1  0
 17 16  1  0
 18 11  2  0
 20 10  1  0
 20 19  1  0
 21 22  2  0
 22 41  1  0
 23 22  1  0
 23 26  1  0
 24 25  1  0
 24 21  1  0
 25 23  2  0
 26 27  1  0
 27 28  2  0
 29 32  1  0
 29 28  1  0
 30 29  2  0
 31 30  1  0
 31 26  2  0
 32 33  1  0
 33 34  1  0
 34 35  2  0
 36 35  1  0
 36 40  1  0
 37 36  2  0
 38 33  2  0
 38 37  1  0
 39 38  1  0
 41 42  1  0
 42 45  1  0
 42 44  1  0
 43 41  2  0
 46 47  1  0
 46 21  1  0
 48 46  1  0
 49 50  1  0
 50  1  1  0
 50 51  1  1
 52 50  1  0
 52 53  1  0
 54 53  1  0
 54 55  1  0
 56 67  2  0
 57 55  1  0
 57 62  1  0
 58 66  1  0
 58 68  1  0
 59 65  1  0
 59 61  1  0
 60 66  1  0
 61 62  2  0
 61 60  1  0
 63 64  1  0
 63 57  2  0
 64 59  2  0
 65 58  1  0
 66 56  1  0
 68 70  2  0
 69 68  1  0
 71 69  1  0
 72 81  2  0
 72 77  1  0
 73 69  1  0
 73 77  1  0
 74 73  1  0
 75 76  1  0
 75 74  1  0
 76 72  1  0
 77 78  2  0
 78 79  1  0
 80 79  2  0
 81 80  1  0
 82 56  1  0
 82 83  1  0
 82 92  1  0
 83 86  1  0
 84 88  1  0
 84 83  1  0
 85 84  2  0
 88 87  1  0
 90 88  1  0
 90 91  1  0
 90 89  1  0
 92 95  1  1
 92 93  1  0
 94 92  1  0
M  ISO  4  11 100  20 100  54 101  55 101
M  END
>  <TORSDO>  (7) 
F 22

>  <SCORE>  (7) 
-11.945

>  <name>  (7) 
6

>  <ligand_id>  (7) 
6

>  <original_smiles>  (7) 
[H]c1c([H])c([H])c2c(c1[H])C([H])([H])C([H])([H])C([H])([H])C2([H])N([H])C(=O)C1([H])N(C(=O)C([H])(N([H])C(=O)C([H])(N([H])C([H])([H])[H])C([H])([H])[H])C(C([H])([H])[H])(C([H])([H])[H])C([H])([H])[H])C([H])([H])c2c([H])c(OC([H])([H])C([H])([H])C([H])([H])[N+]([H])(C([H])([H])[H])C([H])([H])c3c([H])c(Cl)c(C([H])([H])N(C(=O)N4C([H])([H])C([H])([H])C([H])([H])C([H])(n5nc(-c6c([H])c([H])c(Oc7c([H])c([H])c(F)c([H])c7F)c([H])c6[H])c(C(=O)N([H])[H])c5N([H])[H])C4([H])[H])C([H])([H])[H])c([H])c3Cl)c([H])c([H])c2C1([H])[H]

>  <smiles>  (7) 
[H]c1c([H])c([H])c2c(c1[H])C([H])([H])C([H])([H])C([H])([H])C2([H])N([H])C(=O)C1([H])N(C(=O)C([H])(N([H])C(=O)C([H])(N([H])C([H])([H])[H])C([H])([H])[H])C(C([H])([H])[H])(C([H])([H])[H])C([H])([H])[H])C([H])([H])c2c([H])c(OC([H])([H])C([H])([H])C([H])([H])[N+]([H])(C([H])([H])[H])C([H])([H])c3c([H])c(Cl)c(C([H])([H])N(C(=O)N4C([H])([H])C([H])([H])C([H])([H])C([H])(n5nc(-c6c([H])c([H])c(Oc7c([H])c([H])c(F)c([H])c7F)c([H])c6[H])c(C(=O)N([H])[H])c5N([H])[H])C4([H])[H])C([H])([H])[H])c([H])c3Cl)c([H])c([H])c2C1([H])[H]

$$$$
7:0:0
     RDKit          3D

 95104  0  0  1  0  0  0  0  0999 V2000
  -29.2510  -21.6720   19.1110 C   0  0  0  0  0  2  0  0  0  0  0  0
  -30.2670  -19.3490   19.2010 C   0  0  0  0  0  3  0  0  0  0  0  0
  -30.7710  -18.2410   19.9060 C   0  0  0  0  0  3  0  0  0  0  0  0
  -30.0450  -20.5680   21.2840 C   0  0  0  0  0  3  0  0  0  0  0  0
  -29.8800  -20.5170   19.8840 C   0  0  0  0  0  0  0  0  0  0  0  0
  -30.9200  -18.2580   21.3190 C   0  0  0  0  0  0  0  0  0  0  0  0
  -30.5720  -19.4670   21.9910 C   0  0  0  0  0  0  0  0  0  0  0  0
  -30.7340  -19.6040   23.3290 F   0  0  0  0  0  0  0  0  0  0  0  0
  -30.8780  -16.8520   23.3620 C   0  0  0  0  0  1  0  0  0  0  0  0
  -31.3860  -17.1050   22.0130 N   0  0  0  0  0  0  0  0  0  0  0  0
  -31.7730  -15.9120   21.2520 C   0  0  0  0  0  2  0  0  0  0  0  0
  -30.5450  -15.0530   20.8670 C   0  0  0  0  0  2  0  0  0  0  0  0
  -30.7430  -14.1360   19.6500 C   0  0  0  0  0  0  0  0  0  0  0  0
  -30.1630  -12.0540   18.4520 C   0  0  0  0  0  2  0  0  0  0  0  0
  -29.0610  -12.2470   17.3950 C   0  0  0  0  0  2  0  0  0  0  0  0
  -27.6670  -12.1250   18.0330 C   0  0  0  0  0  2  0  0  0  0  0  0
  -27.5160  -13.0110   19.2960 C   0  0  0  0  0  3  0  0  0  0  0  0
  -28.7030  -12.7970   20.2620 C   0  0  0  0  0  2  0  0  0  0  0  0
  -29.9570  -13.0360   19.5260 N   0  0  0  0  0  0  0  0  0  0  0  0
  -31.6300  -14.4090   18.8340 O   0  0  0  0  0  0  0  0  0  0  0  0
  -25.2630  -13.6910   20.3460 C   0  0  0  0  0  0  0  0  0  0  0  0
  -24.2290  -12.9490   20.8480 C   0  0  0  0  0  0  0  0  0  0  0  0
  -24.6300  -11.5830   20.7320 C   0  0  0  0  0  0  0  0  0  0  0  0
  -26.2330  -12.7790   19.9580 N   0  0  0  0  0  0  0  0  0  0  0  0
  -25.8610  -11.5050   20.2450 N   0  0  0  0  0  0  0  0  0  0  0  0
  -23.8920  -10.3430   21.0020 C   0  0  0  0  0  0  0  0  0  0  0  0
  -24.3860   -9.3720   21.9000 C   0  0  0  0  0  3  0  0  0  0  0  0
  -23.6520   -8.1940   22.1570 C   0  0  0  0  0  3  0  0  0  0  0  0
  -22.4080   -7.9800   21.5160 C   0  0  0  0  0  0  0  0  0  0  0  0
  -21.9330   -8.9390   20.6050 C   0  0  0  0  0  3  0  0  0  0  0  0
  -22.6670  -10.1080   20.3460 C   0  0  0  0  0  3  0  0  0  0  0  0
  -21.6380   -6.8540   21.6840 O   0  0  0  0  0  0  0  0  0  0  0  0
  -21.6260   -6.1590   22.8670 C   0  0  0  0  0  0  0  0  0  0  0  0
  -21.2650   -6.7710   24.0880 C   0  0  0  0  0  3  0  0  0  0  0  0
  -21.1990   -6.0030   25.2670 C   0  0  0  0  0  3  0  0  0  0  0  0
  -21.4850   -4.6260   25.2280 C   0  0  0  0  0  0  0  0  0  0  0  0
  -21.8410   -4.0150   24.0140 C   0  0  0  0  0  3  0  0  0  0  0  0
  -21.9080   -4.7790   22.8360 C   0  0  0  0  0  0  0  0  0  0  0  0
  -22.2310   -4.1810   21.6640 F   0  0  0  0  0  0  0  0  0  0  0  0
  -21.4160   -3.8850   26.3600 F   0  0  0  0  0  0  0  0  0  0  0  0
  -22.9010  -13.4670   21.3250 C   0  0  0  0  0  0  0  0  0  0  0  0
  -22.2820  -12.7810   22.2780 N   0  0  0  0  0  0  0  0  0  0  0  0
  -22.4280  -14.5130   20.8840 O   0  0  0  0  0  0  0  0  0  0  0  0
  -22.6820  -11.9360   22.6570 H   0  0  0  0  0  0  0  0  0  0  0  0
  -21.3970  -13.1080   22.6400 H   0  0  0  0  0  0  0  0  0  0  0  0
  -25.4530  -15.0590   20.1690 N   0  0  0  0  0  0  0  0  0  0  0  0
  -24.7360  -15.7410   20.3930 H   0  0  0  0  0  0  0  0  0  0  0  0
  -26.2770  -15.4740   19.7510 H   0  0  0  0  0  0  0  0  0  0  0  0
  -29.3570  -23.9590   20.1170 C   0  0  0  0  0  2  0  0  0  0  0  0
  -29.8880  -23.8630   18.1230 C   0  0  0  0  0  2  0  0  0  0  0  0
  -29.7900  -25.0260   19.1100 C   0  0  0  0  0  3  0  0  0  0  0  0
  -29.9860  -22.9500   19.2610 N   0  0  2  0  0  4  0  0  0  0  0  0
  -30.9540  -22.7990   19.4960 H   0  0  0  0  0  0  0  0  0  0  0  0
  -28.8650  -26.1940   18.7760 C   0  0  0  0  0  2  0  0  0  0  0  0
  -28.4890  -26.8610   19.9810 O   0  0  0  0  0  0  0  0  0  0  0  0
  -24.5700  -31.8260   23.2110 C   0  0  0  0  0  0  0  0  0  0  0  0
  -27.2820  -27.5240   19.9990 C   0  0  0  0  0  0  0  0  0  0  0  0
  -23.3780  -30.4360   21.5470 C   0  0  0  0  0  3  0  0  0  0  0  0
  -24.8490  -28.9600   20.0810 C   0  0  0  0  0  0  0  0  0  0  0  0
  -25.8890  -30.8570   21.3300 C   0  0  0  0  0  2  0  0  0  0  0  0
  -25.9980  -29.4980   20.6720 C   0  0  0  0  0  0  0  0  0  0  0  0
  -27.2130  -28.7810   20.6420 C   0  0  0  0  0  3  0  0  0  0  0  0
  -26.1040  -26.9840   19.4330 C   0  0  0  0  0  3  0  0  0  0  0  0
  -24.8930  -27.6980   19.4670 C   0  0  0  0  0  3  0  0  0  0  0  0
  -23.5890  -29.7890   20.1520 C   0  0  0  0  0  2  0  0  0  0  0  0
  -24.6320  -31.0510   22.0900 N   0  0  0  0  0  0  0  0  0  0  0  0
  -23.4890  -32.0640   23.7640 O   0  0  0  0  0  0  0  0  0  0  0  0
  -22.7530  -29.3830   22.4890 C   0  0  0  0  0  0  0  0  0  0  0  0
  -21.4400  -29.1500   22.3380 N   0  0  0  0  0  0  0  0  0  0  0  0
  -23.4470  -28.7750   23.3100 O   0  0  0  0  0  0  0  0  0  0  0  0
  -20.9390  -29.6970   21.6510 H   0  0  0  0  0  0  0  0  0  0  0  0
  -18.1150  -27.8010   22.7390 C   0  0  0  0  0  0  0  0  0  0  0  0
  -20.6480  -28.1770   23.0870 C   0  0  0  0  0  3  0  0  0  0  0  0
  -20.8340  -26.7500   22.5190 C   0  0  0  0  0  2  0  0  0  0  0  0
  -19.7800  -26.3760   21.4720 C   0  0  0  0  0  2  0  0  0  0  0  0
  -18.3730  -26.4600   22.0730 C   0  0  0  0  0  2  0  0  0  0  0  0
  -19.1830  -28.6150   23.2010 C   0  0  0  0  0  0  0  0  0  0  0  0
  -18.8890  -29.8690   23.7760 C   0  0  0  0  0  3  0  0  0  0  0  0
  -17.5580  -30.3100   23.9050 C   0  0  0  0  0  3  0  0  0  0  0  0
  -16.5030  -29.4930   23.4600 C   0  0  0  0  0  3  0  0  0  0  0  0
  -16.7830  -28.2430   22.8800 C   0  0  0  0  0  3  0  0  0  0  0  0
  -25.8500  -32.4670   23.8330 C   0  0  0  0  0  3  0  0  0  0  0  0
  -25.5410  -33.8680   24.1450 N   0  0  0  0  0  0  0  0  0  0  0  0
  -25.8720  -34.9090   23.3700 C   0  0  0  0  0  0  0  0  0  0  0  0
  -26.5420  -34.7920   22.3400 O   0  0  0  0  0  0  0  0  0  0  0  0
  -24.9580  -34.0360   24.9520 H   0  0  0  0  0  0  0  0  0  0  0  0
  -24.1430  -36.6920   22.9760 C   0  0  0  0  0  1  0  0  0  0  0  0
  -25.3790  -36.3030   23.8040 C   0  0  0  0  0  3  0  0  0  0  0  0
  -27.5060  -37.2030   24.6350 C   0  0  0  0  0  1  0  0  0  0  0  0
  -26.4090  -37.3570   23.6830 N   0  0  0  0  0  0  0  0  0  0  0  0
  -26.0010  -38.2780   23.8170 H   0  0  0  0  0  0  0  0  0  0  0  0
  -26.3590  -31.7080   25.1190 C   0  0  1  0  0  0  0  0  0  0  0  0
  -25.2630  -31.4800   26.1850 C   0  0  0  0  0  1  0  0  0  0  0  0
  -26.9420  -30.3280   24.7350 C   0  0  0  0  0  1  0  0  0  0  0  0
  -27.5100  -32.5040   25.7790 C   0  0  0  0  0  1  0  0  0  0  0  0
  1 52  1  0
  1  5  1  0
  2  5  2  0
  2  3  1  0
  3  6  2  0
  4  7  2  0
  5  4  1  0
  6  7  1  0
  6 10  1  0
  7  8  1  0
 10  9  1  0
 11 10  1  0
 12 11  1  0
 13 12  1  0
 14 19  1  0
 15 16  1  0
 15 14  1  0
 17 16  1  0
 17 24  1  0
 17 18  1  0
 19 13  1  0
 19 18  1  0
 20 13  2  0
 21 22  2  0
 22 41  1  0
 23 22  1  0
 23 26  1  0
 24 25  1  0
 24 21  1  0
 25 23  2  0
 26 27  1  0
 27 28  2  0
 29 32  1  0
 29 28  1  0
 30 29  2  0
 31 30  1  0
 31 26  2  0
 32 33  1  0
 33 34  1  0
 34 35  2  0
 36 35  1  0
 36 40  1  0
 37 36  2  0
 38 33  2  0
 38 37  1  0
 39 38  1  0
 41 42  1  0
 42 45  1  0
 42 44  1  0
 43 41  2  0
 46 21  1  0
 46 47  1  0
 48 46  1  0
 50 51  1  0
 50 52  1  0
 51 54  1  0
 51 49  1  0
 52 53  1  1
 52 49  1  0
 54 55  1  0
 55 57  1  0
 56 67  2  0
 57 62  1  0
 58 66  1  0
 58 68  1  0
 59 65  1  0
 59 61  1  0
 60 66  1  0
 61 60  1  0
 62 61  2  0
 63 64  1  0
 63 57  2  0
 64 59  2  0
 65 58  1  0
 66 56  1  0
 68 70  2  0
 69 68  1  0
 71 69  1  0
 72 81  2  0
 72 77  1  0
 73 69  1  0
 73 77  1  0
 74 73  1  0
 75 76  1  0
 75 74  1  0
 76 72  1  0
 77 78  2  0
 78 79  1  0
 80 79  2  0
 81 80  1  0
 82 56  1  0
 82 83  1  0
 82 92  1  0
 83 86  1  0
 84 88  1  0
 84 83  1  0
 85 84  2  0
 88 87  1  0
 90 88  1  0
 90 91  1  0
 90 89  1  0
 92 95  1  1
 92 93  1  0
 94 92  1  0
M  ISO  4  12 100  13 100  54 101  55 101
M  END
>  <TORSDO>  (8) 
F 22

>  <SCORE>  (8) 
-11.137

>  <name>  (8) 
7

>  <ligand_id>  (8) 
7

>  <original_smiles>  (8) 
[H]c1c([H])c([H])c2c(c1[H])C([H])([H])C([H])([H])C([H])([H])C2([H])N([H])C(=O)C1([H])N(C(=O)C([H])(N([H])C(=O)C([H])(N([H])C([H])([H])[H])C([H])([H])[H])C(C([H])([H])[H])(C([H])([H])[H])C([H])([H])[H])C([H])([H])c2c([H])c(OC([H])([H])C3([H])C([H])([H])[N+]([H])(C([H])([H])c4c([H])c([H])c(N(C([H])([H])[H])C([H])([H])C([H])([H])C(=O)N5C([H])([H])C([H])([H])C([H])([H])C([H])(n6nc(-c7c([H])c([H])c(Oc8c([H])c([H])c(F)c([H])c8F)c([H])c7[H])c(C(=O)N([H])[H])c6N([H])[H])C5([H])[H])c(F)c4[H])C3([H])[H])c([H])c([H])c2C1([H])[H]

>  <smiles>  (8) 
[H]c1c([H])c([H])c2c(c1[H])C([H])([H])C([H])([H])C([H])([H])C2([H])N([H])C(=O)C1([H])N(C(=O)C([H])(N([H])C(=O)C([H])(N([H])C([H])([H])[H])C([H])([H])[H])C(C([H])([H])[H])(C([H])([H])[H])C([H])([H])[H])C([H])([H])c2c([H])c(OC([H])([H])C3([H])C([H])([H])[N+]([H])(C([H])([H])c4c([H])c([H])c(N(C([H])([H])[H])C([H])([H])C([H])([H])C(=O)N5C([H])([H])C([H])([H])C([H])([H])C([H])(n6nc(-c7c([H])c([H])c(Oc8c([H])c([H])c(F)c([H])c8F)c([H])c7[H])c(C(=O)N([H])[H])c6N([H])[H])C5([H])[H])c(F)c4[H])C3([H])[H])c([H])c([H])c2C1([H])[H]

$$$$
8:0:0
     RDKit          3D

 91 99  0  0  1  0  0  0  0  0999 V2000
  -30.8660  -19.8110   19.7450 C   0  0  0  0  0  3  0  0  0  0  0  0
  -30.2640  -21.1020   19.7450 C   0  0  0  0  0  3  0  0  0  0  0  0
  -28.7630  -18.8000   20.2620 C   0  0  0  0  0  3  0  0  0  0  0  0
  -30.1480  -18.6190   20.0290 C   0  0  0  0  0  0  0  0  0  0  0  0
  -28.8840  -21.3060   20.0220 C   0  0  0  0  0  0  0  0  0  0  0  0
  -28.1460  -20.0870   20.2360 C   0  0  0  0  0  0  0  0  0  0  0  0
  -26.8010  -20.1070   20.4120 F   0  0  0  0  0  0  0  0  0  0  0  0
  -27.0580  -22.7770   20.8730 C   0  0  0  0  0  1  0  0  0  0  0  0
  -28.2880  -22.6310   20.0790 N   0  0  0  0  0  0  0  0  0  0  0  0
  -29.0120  -23.9370   19.9080 C   0  0  0  0  0  2  0  0  0  0  0  0
  -28.1500  -25.1260   19.3020 C   0  0  0  0  0  2  0  0  0  0  0  0
  -28.4000  -26.5300   19.7030 O   0  0  0  0  0  0  0  0  0  0  0  0
  -24.6240  -31.6500   23.0770 C   0  0  0  0  0  0  0  0  0  0  0  0
  -27.2970  -27.3970   19.6760 C   0  0  0  0  0  0  0  0  0  0  0  0
  -23.4450  -30.3560   21.3410 C   0  0  0  0  0  3  0  0  0  0  0  0
  -24.9170  -28.9660   19.7860 C   0  0  0  0  0  0  0  0  0  0  0  0
  -25.9750  -30.7420   21.1750 C   0  0  0  0  0  2  0  0  0  0  0  0
  -26.0770  -29.4210   20.4270 C   0  0  0  0  0  0  0  0  0  0  0  0
  -27.2720  -28.6410   20.3760 C   0  0  0  0  0  3  0  0  0  0  0  0
  -26.1280  -27.0270   18.9720 C   0  0  0  0  0  3  0  0  0  0  0  0
  -24.9450  -27.7790   19.0460 C   0  0  0  0  0  3  0  0  0  0  0  0
  -23.6630  -29.8020   19.9100 C   0  0  0  0  0  2  0  0  0  0  0  0
  -24.7000  -30.9300   21.9210 N   0  0  0  0  0  0  0  0  0  0  0  0
  -23.5380  -31.8610   23.6330 O   0  0  0  0  0  0  0  0  0  0  0  0
  -22.8110  -29.2500   22.2170 C   0  0  0  0  0  0  0  0  0  0  0  0
  -21.4820  -29.0820   22.1080 N   0  0  0  0  0  0  0  0  0  0  0  0
  -23.5130  -28.5530   22.9550 O   0  0  0  0  0  0  0  0  0  0  0  0
  -20.9750  -29.7010   21.4920 H   0  0  0  0  0  0  0  0  0  0  0  0
  -18.1100  -27.8710   22.6090 C   0  0  0  0  0  0  0  0  0  0  0  0
  -20.6790  -28.0800   22.8090 C   0  0  0  0  0  3  0  0  0  0  0  0
  -20.7440  -26.7120   22.0900 C   0  0  0  0  0  2  0  0  0  0  0  0
  -19.6020  -26.5020   21.0910 C   0  0  0  0  0  2  0  0  0  0  0  0
  -18.2450  -26.5940   21.7960 C   0  0  0  0  0  2  0  0  0  0  0  0
  -19.2530  -28.5780   23.0680 C   0  0  0  0  0  0  0  0  0  0  0  0
  -19.0710  -29.7780   23.7890 C   0  0  0  0  0  3  0  0  0  0  0  0
  -17.7790  -30.2710   24.0550 C   0  0  0  0  0  3  0  0  0  0  0  0
  -16.6510  -29.5640   23.6040 C   0  0  0  0  0  3  0  0  0  0  0  0
  -16.8180  -28.3640   22.8900 C   0  0  0  0  0  3  0  0  0  0  0  0
  -25.8970  -32.2620   23.7410 C   0  0  0  0  0  3  0  0  0  0  0  0
  -26.3850  -31.4480   25.0020 C   0  0  1  0  0  0  0  0  0  0  0  0
  -25.2730  -31.1970   26.0480 C   0  0  0  0  0  1  0  0  0  0  0  0
  -26.9500  -30.0740   24.5750 C   0  0  0  0  0  1  0  0  0  0  0  0
  -27.5380  -32.2070   25.7000 C   0  0  0  0  0  1  0  0  0  0  0  0
  -25.5860  -33.6490   24.1080 N   0  0  0  0  0  0  0  0  0  0  0  0
  -25.9240  -34.7220   23.3810 C   0  0  0  0  0  0  0  0  0  0  0  0
  -26.6000  -34.6470   22.3510 O   0  0  0  0  0  0  0  0  0  0  0  0
  -24.9960  -33.7820   24.9170 H   0  0  0  0  0  0  0  0  0  0  0  0
  -24.1890  -36.5140   23.0710 C   0  0  0  0  0  1  0  0  0  0  0  0
  -25.4330  -36.0970   23.8730 C   0  0  0  0  0  3  0  0  0  0  0  0
  -27.5620  -36.9690   24.7250 C   0  0  0  0  0  1  0  0  0  0  0  0
  -26.4590  -37.1590   23.7870 N   0  0  0  0  0  0  0  0  0  0  0  0
  -26.0470  -38.0710   23.9620 H   0  0  0  0  0  0  0  0  0  0  0  0
  -30.9440  -17.2570   20.0890 C   0  0  0  0  0  2  0  0  0  0  0  0
  -30.9920  -14.7490   20.0900 C   0  0  0  0  0  0  0  0  0  0  0  0
  -30.6550  -12.5110   19.0330 C   0  0  0  0  0  2  0  0  0  0  0  0
  -29.6790  -12.6030   17.8400 C   0  0  0  0  0  2  0  0  0  0  0  0
  -28.2290  -12.4220   18.3260 C   0  0  0  0  0  2  0  0  0  0  0  0
  -27.9060  -13.3320   19.5410 C   0  0  0  0  0  3  0  0  0  0  0  0
  -28.9950  -13.2120   20.6250 C   0  0  0  0  0  2  0  0  0  0  0  0
  -30.2840  -13.5650   20.0100 N   0  0  0  0  0  0  0  0  0  0  0  0
  -32.0960  -14.8200   19.5390 O   0  0  0  0  0  0  0  0  0  0  0  0
  -29.9070  -15.9820   21.9340 C   0  0  0  0  0  1  0  0  0  0  0  0
  -30.3980  -15.9200   20.5520 N   0  0  0  0  0  0  0  0  0  0  0  0
  -25.5590  -13.9580   20.3720 C   0  0  0  0  0  0  0  0  0  0  0  0
  -24.5000  -13.1970   20.7840 C   0  0  0  0  0  0  0  0  0  0  0  0
  -24.9430  -11.8410   20.7300 C   0  0  0  0  0  0  0  0  0  0  0  0
  -26.5770  -13.0650   20.0840 N   0  0  0  0  0  0  0  0  0  0  0  0
  -26.2160  -11.7860   20.3600 N   0  0  0  0  0  0  0  0  0  0  0  0
  -24.2090  -10.5880   20.9500 C   0  0  0  0  0  0  0  0  0  0  0  0
  -24.6340   -9.6420   21.9090 C   0  0  0  0  0  3  0  0  0  0  0  0
  -23.9020   -8.4520   22.1140 C   0  0  0  0  0  3  0  0  0  0  0  0
  -22.7320   -8.2010   21.3580 C   0  0  0  0  0  0  0  0  0  0  0  0
  -22.3260   -9.1350   20.3880 C   0  0  0  0  0  3  0  0  0  0  0  0
  -23.0580  -10.3160   20.1840 C   0  0  0  0  0  3  0  0  0  0  0  0
  -21.9720   -7.0610   21.4680 O   0  0  0  0  0  0  0  0  0  0  0  0
  -21.8600   -6.3840   22.6540 C   0  0  0  0  0  0  0  0  0  0  0  0
  -21.3600   -7.0030   23.8220 C   0  0  0  0  0  3  0  0  0  0  0  0
  -21.1980   -6.2500   25.0010 C   0  0  0  0  0  3  0  0  0  0  0  0
  -21.5240   -4.8810   25.0160 C   0  0  0  0  0  0  0  0  0  0  0  0
  -22.0170   -4.2620   23.8530 C   0  0  0  0  0  3  0  0  0  0  0  0
  -22.1820   -5.0110   22.6750 C   0  0  0  0  0  0  0  0  0  0  0  0
  -22.6370   -4.4070   21.5520 F   0  0  0  0  0  0  0  0  0  0  0  0
  -21.3600   -4.1560   26.1470 F   0  0  0  0  0  0  0  0  0  0  0  0
  -23.1220  -13.6920   21.1210 C   0  0  0  0  0  0  0  0  0  0  0  0
  -22.4320  -13.0120   22.0280 N   0  0  0  0  0  0  0  0  0  0  0  0
  -22.6720  -14.7190   20.6130 O   0  0  0  0  0  0  0  0  0  0  0  0
  -22.8120  -12.1840   22.4600 H   0  0  0  0  0  0  0  0  0  0  0  0
  -21.5090  -13.3260   22.2940 H   0  0  0  0  0  0  0  0  0  0  0  0
  -25.7350  -15.3260   20.1980 N   0  0  0  0  0  0  0  0  0  0  0  0
  -24.9850  -15.9900   20.3580 H   0  0  0  0  0  0  0  0  0  0  0  0
  -26.5850  -15.7590   19.8580 H   0  0  0  0  0  0  0  0  0  0  0  0
  1  4  1  0
  2  1  2  0
  2  5  1  0
  4 53  1  0
  4  3  2  0
  5  9  1  0
  5  6  2  0
  6  3  1  0
  6  7  1  0
  9  8  1  0
 10  9  1  0
 11 12  1  0
 11 10  1  0
 13 24  2  0
 14 12  1  0
 14 19  1  0
 15 23  1  0
 15 25  1  0
 16 22  1  0
 16 18  1  0
 17 23  1  0
 18 17  1  0
 19 18  2  0
 20 21  1  0
 20 14  2  0
 21 16  2  0
 22 15  1  0
 23 13  1  0
 25 27  2  0
 26 25  1  0
 28 26  1  0
 29 38  2  0
 29 34  1  0
 30 26  1  0
 30 34  1  0
 31 30  1  0
 32 33  1  0
 32 31  1  0
 33 29  1  0
 34 35  2  0
 35 36  1  0
 37 36  2  0
 38 37  1  0
 39 13  1  0
 39 44  1  0
 39 40  1  0
 40 43  1  1
 40 41  1  0
 42 40  1  0
 44 47  1  0
 45 49  1  0
 45 44  1  0
 46 45  2  0
 49 48  1  0
 51 49  1  0
 51 52  1  0
 51 50  1  0
 53 63  1  0
 54 63  1  0
 55 60  1  0
 56 57  1  0
 56 55  1  0
 58 57  1  0
 58 67  1  0
 58 59  1  0
 60 54  1  0
 60 59  1  0
 61 54  2  0
 63 62  1  0
 64 65  2  0
 65 84  1  0
 66 65  1  0
 66 69  1  0
 67 68  1  0
 67 64  1  0
 68 66  2  0
 69 70  1  0
 70 71  2  0
 72 75  1  0
 72 71  1  0
 73 72  2  0
 74 73  1  0
 74 69  2  0
 75 76  1  0
 76 81  2  0
 76 77  1  0
 77 78  2  0
 78 79  1  0
 79 83  1  0
 80 79  2  0
 81 80  1  0
 82 81  1  0
 84 85  1  0
 85 88  1  0
 85 87  1  0
 86 84  2  0
 89 90  1  0
 89 64  1  0
 91 89  1  0
M  ISO  4  11 101  12 101  54 100  63 100
M  END
>  <TORSDO>  (9) 
F 20

>  <SCORE>  (9) 
-12.551

>  <name>  (9) 
8

>  <ligand_id>  (9) 
8

>  <original_smiles>  (9) 
[H]c1c([H])c([H])c2c(c1[H])C([H])([H])C([H])([H])C([H])([H])C2([H])N([H])C(=O)C1([H])N(C(=O)C([H])(N([H])C(=O)C([H])(N([H])C([H])([H])[H])C([H])([H])[H])C(C([H])([H])[H])(C([H])([H])[H])C([H])([H])[H])C([H])([H])c2c([H])c(OC([H])([H])C([H])([H])N(c3c([H])c([H])c(C([H])([H])N(C(=O)N4C([H])([H])C([H])([H])C([H])([H])C([H])(n5nc(-c6c([H])c([H])c(Oc7c([H])c([H])c(F)c([H])c7F)c([H])c6[H])c(C(=O)N([H])[H])c5N([H])[H])C4([H])[H])C([H])([H])[H])c([H])c3F)C([H])([H])[H])c([H])c([H])c2C1([H])[H]

>  <smiles>  (9) 
[H]c1c([H])c([H])c2c(c1[H])C([H])([H])C([H])([H])C([H])([H])C2([H])N([H])C(=O)C1([H])N(C(=O)C([H])(N([H])C(=O)C([H])(N([H])C([H])([H])[H])C([H])([H])[H])C(C([H])([H])[H])(C([H])([H])[H])C([H])([H])[H])C([H])([H])c2c([H])c(OC([H])([H])C([H])([H])N(c3c([H])c([H])c(C([H])([H])N(C(=O)N4C([H])([H])C([H])([H])C([H])([H])C([H])(n5nc(-c6c([H])c([H])c(Oc7c([H])c([H])c(F)c([H])c7F)c([H])c6[H])c(C(=O)N([H])[H])c5N([H])[H])C4([H])[H])C([H])([H])[H])c([H])c3F)C([H])([H])[H])c([H])c([H])c2C1([H])[H]

$$$$
9:0:0
     RDKit          3D

 99107  0  0  1  0  0  0  0  0999 V2000
  -28.6790  -21.4500   22.0410 C   0  0  0  0  0  3  0  0  0  0  0  0
  -28.3900  -22.7220   21.5090 C   0  0  0  0  0  3  0  0  0  0  0  0
  -28.8000  -21.8680   19.2710 C   0  0  0  0  0  3  0  0  0  0  0  0
  -29.1010  -20.4050   21.1930 C   0  0  0  0  0  0  0  0  0  0  0  0
  -28.5090  -22.9500   20.1220 C   0  0  0  0  0  0  0  0  0  0  0  0
  -29.0740  -20.5960   19.7950 C   0  0  0  0  0  0  0  0  0  0  0  0
  -29.4030  -19.5840   18.9560 F   0  0  0  0  0  0  0  0  0  0  0  0
  -28.3740  -24.1750   19.5220 O   0  0  0  0  0  0  0  0  0  0  0  0
  -29.0490  -25.3080   20.0460 C   0  0  0  0  0  2  0  0  0  0  0  0
  -30.5990  -25.2500   19.9010 C   0  0  0  0  0  2  0  0  0  0  0  0
  -31.3780  -26.5800   19.6730 C   0  0  0  0  0  2  0  0  0  0  0  0
  -31.2680  -27.5930   20.6900 O   0  0  0  0  0  0  0  0  0  0  0  0
  -26.7100  -30.5020   25.3650 C   0  0  0  0  0  0  0  0  0  0  0  0
  -30.0490  -28.2120   20.8850 C   0  0  0  0  0  0  0  0  0  0  0  0
  -25.7990  -29.9720   23.1340 C   0  0  0  0  0  3  0  0  0  0  0  0
  -27.5140  -29.3830   21.3530 C   0  0  0  0  0  0  0  0  0  0  0  0
  -28.2880  -30.5010   23.4370 C   0  0  0  0  0  2  0  0  0  0  0  0
  -28.5640  -29.5980   22.2550 C   0  0  0  0  0  0  0  0  0  0  0  0
  -29.8250  -28.9900   22.0440 C   0  0  0  0  0  3  0  0  0  0  0  0
  -28.9960  -28.1080   19.9470 C   0  0  0  0  0  3  0  0  0  0  0  0
  -27.7210  -28.6160   20.2020 C   0  0  0  0  0  3  0  0  0  0  0  0
  -26.1940  -30.0500   21.6400 C   0  0  0  0  0  2  0  0  0  0  0  0
  -26.9450  -30.3120   24.0370 N   0  0  0  0  0  0  0  0  0  0  0  0
  -25.5670  -30.4290   25.8310 O   0  0  0  0  0  0  0  0  0  0  0  0
  -25.1920  -28.5790   23.4140 C   0  0  0  0  0  0  0  0  0  0  0  0
  -24.0250  -28.2990   22.8120 N   0  0  0  0  0  0  0  0  0  0  0  0
  -25.7780  -27.7690   24.1390 O   0  0  0  0  0  0  0  0  0  0  0  0
  -23.6010  -29.0230   22.2460 H   0  0  0  0  0  0  0  0  0  0  0  0
  -21.1670  -26.4970   21.5250 C   0  0  0  0  0  0  0  0  0  0  0  0
  -23.2820  -27.0420   22.9080 C   0  0  0  0  0  3  0  0  0  0  0  0
  -23.9740  -25.9170   22.1030 C   0  0  0  0  0  2  0  0  0  0  0  0
  -23.4410  -25.7860   20.6710 C   0  0  0  0  0  2  0  0  0  0  0  0
  -21.9380  -25.4940   20.6850 C   0  0  0  0  0  2  0  0  0  0  0  0
  -21.8010  -27.2360   22.5600 C   0  0  0  0  0  0  0  0  0  0  0  0
  -21.0480  -28.1820   23.2880 C   0  0  0  0  0  3  0  0  0  0  0  0
  -19.6870  -28.3960   22.9980 C   0  0  0  0  0  3  0  0  0  0  0  0
  -19.0590  -27.6510   21.9830 C   0  0  0  0  0  3  0  0  0  0  0  0
  -19.7980  -26.7010   21.2540 C   0  0  0  0  0  3  0  0  0  0  0  0
  -27.8670  -30.8450   26.3530 C   0  0  0  0  0  3  0  0  0  0  0  0
  -27.9420  -29.8610   27.5830 C   0  0  1  0  0  0  0  0  0  0  0  0
  -26.5780  -29.6140   28.2670 C   0  0  0  0  0  1  0  0  0  0  0  0
  -28.5110  -28.4890   27.1530 C   0  0  0  0  0  1  0  0  0  0  0  0
  -28.9130  -30.4270   28.6460 C   0  0  0  0  0  1  0  0  0  0  0  0
  -27.6700  -32.2280   26.8040 N   0  0  0  0  0  0  0  0  0  0  0  0
  -28.3190  -33.2900   26.3080 C   0  0  0  0  0  0  0  0  0  0  0  0
  -29.2170  -33.1920   25.4650 O   0  0  0  0  0  0  0  0  0  0  0  0
  -26.9160  -32.3870   27.4570 H   0  0  0  0  0  0  0  0  0  0  0  0
  -26.9980  -35.3700   25.8040 C   0  0  0  0  0  1  0  0  0  0  0  0
  -27.9100  -34.6800   26.8330 C   0  0  0  0  0  3  0  0  0  0  0  0
  -29.8900  -35.0530   28.2350 C   0  0  0  0  0  1  0  0  0  0  0  0
  -29.0630  -35.5550   27.1420 N   0  0  0  0  0  0  0  0  0  0  0  0
  -28.7520  -36.4920   27.3830 H   0  0  0  0  0  0  0  0  0  0  0  0
  -29.6590  -19.1180   21.7940 C   0  0  0  0  0  2  0  0  0  0  0  0
  -31.6430  -19.4750   20.3650 C   0  0  0  0  0  1  0  0  0  0  0  0
  -30.6870  -18.4800   20.9170 N   0  0  2  0  0  4  0  0  0  0  0  0
  -31.2150  -17.8800   21.5360 H   0  0  0  0  0  0  0  0  0  0  0  0
  -30.0780  -17.6040   19.8680 C   0  0  0  0  0  2  0  0  0  0  0  0
  -31.0410  -16.7860   17.6580 C   0  0  0  0  0  1  0  0  0  0  0  0
  -31.0320  -16.5780   19.1850 C   0  0  0  0  0  3  0  0  0  0  0  0
  -30.6190  -15.1360   19.5390 C   0  0  0  0  0  2  0  0  0  0  0  0
  -31.5300  -13.1200   18.4160 C   0  0  0  0  0  0  0  0  0  0  0  0
  -30.7870  -10.7770   18.1600 C   0  0  0  0  0  2  0  0  0  0  0  0
  -29.5510  -10.6430   17.2490 C   0  0  0  0  0  2  0  0  0  0  0  0
  -28.2440  -10.8880   18.0290 C   0  0  0  0  0  2  0  0  0  0  0  0
  -28.3020  -12.1720   18.8980 C   0  0  0  0  0  3  0  0  0  0  0  0
  -29.5970  -12.1550   19.7430 C   0  0  0  0  0  2  0  0  0  0  0  0
  -30.7430  -12.0880   18.8220 N   0  0  0  0  0  0  0  0  0  0  0  0
  -32.2950  -13.0240   17.4470 O   0  0  0  0  0  0  0  0  0  0  0  0
  -31.6770  -14.1250   19.3150 N   0  0  0  0  0  0  0  0  0  0  0  0
  -26.5130  -13.4520   20.2490 C   0  0  0  0  0  0  0  0  0  0  0  0
  -25.3780  -13.0270   20.8880 C   0  0  0  0  0  0  0  0  0  0  0  0
  -25.3270  -11.6090   20.7030 C   0  0  0  0  0  0  0  0  0  0  0  0
  -27.1050  -12.3100   19.7260 N   0  0  0  0  0  0  0  0  0  0  0  0
  -26.4000  -11.1960   20.0420 N   0  0  0  0  0  0  0  0  0  0  0  0
  -24.2950  -10.6310   21.0630 C   0  0  0  0  0  0  0  0  0  0  0  0
  -24.6160   -9.4320   21.7340 C   0  0  0  0  0  3  0  0  0  0  0  0
  -23.6040   -8.5160   22.0890 C   0  0  0  0  0  3  0  0  0  0  0  0
  -22.2530   -8.7940   21.7760 C   0  0  0  0  0  0  0  0  0  0  0  0
  -21.9400   -9.9810   21.0880 C   0  0  0  0  0  3  0  0  0  0  0  0
  -22.9500  -10.8870   20.7300 C   0  0  0  0  0  3  0  0  0  0  0  0
  -21.2040   -7.9510   22.0570 O   0  0  0  0  0  0  0  0  0  0  0  0
  -21.2590   -7.0560   23.0970 C   0  0  0  0  0  0  0  0  0  0  0  0
  -21.4980   -7.4730   24.4240 C   0  0  0  0  0  3  0  0  0  0  0  0
  -21.4770   -6.5270   25.4720 C   0  0  0  0  0  3  0  0  0  0  0  0
  -21.2110   -5.1750   25.1920 C   0  0  0  0  0  0  0  0  0  0  0  0
  -20.9690   -4.7590   23.8710 C   0  0  0  0  0  3  0  0  0  0  0  0
  -20.9930   -5.7010   22.8250 C   0  0  0  0  0  0  0  0  0  0  0  0
  -20.7360   -5.3000   21.5570 F   0  0  0  0  0  0  0  0  0  0  0  0
  -21.1830   -4.2680   26.1980 F   0  0  0  0  0  0  0  0  0  0  0  0
  -24.3460  -13.8900   21.5530 C   0  0  0  0  0  0  0  0  0  0  0  0
  -23.7180  -13.3870   22.6120 N   0  0  0  0  0  0  0  0  0  0  0  0
  -24.1240  -15.0370   21.1660 O   0  0  0  0  0  0  0  0  0  0  0  0
  -23.9070  -12.4520   22.9430 H   0  0  0  0  0  0  0  0  0  0  0  0
  -23.0350  -13.9490   23.1010 H   0  0  0  0  0  0  0  0  0  0  0  0
  -27.0760  -14.7100   20.0570 N   0  0  0  0  0  0  0  0  0  0  0  0
  -26.6300  -15.5540   20.4010 H   0  0  0  0  0  0  0  0  0  0  0  0
  -27.8920  -14.8960   19.4890 H   0  0  0  0  0  0  0  0  0  0  0  0
  -33.1770  -15.1100   21.1170 C   0  0  0  0  0  1  0  0  0  0  0  0
  -33.0480  -14.5040   19.7050 C   0  0  0  0  0  2  0  0  0  0  0  0
  2  1  1  0
  3  6  2  0
  3  5  1  0
  4 53  1  0
  4  1  2  0
  5  2  2  0
  6  4  1  0
  7  6  1  0
  8  9  1  0
  8  5  1  0
 10  9  1  0
 11 10  1  0
 11 12  1  0
 12 14  1  0
 13 24  2  0
 14 19  1  0
 15 25  1  0
 15 23  1  0
 16 22  1  0
 16 18  1  0
 17 23  1  0
 18 17  1  0
 19 18  2  0
 20 21  1  0
 20 14  2  0
 21 16  2  0
 22 15  1  0
 23 13  1  0
 25 27  2  0
 26 25  1  0
 28 26  1  0
 29 34  1  0
 30 26  1  0
 31 30  1  0
 32 33  1  0
 32 31  1  0
 33 29  1  0
 34 30  1  0
 34 35  2  0
 36 35  1  0
 37 36  2  0
 38 29  2  0
 38 37  1  0
 39 13  1  0
 39 44  1  0
 39 40  1  0
 40 41  1  1
 40 43  1  0
 42 40  1  0
 44 47  1  0
 45 44  1  0
 45 49  1  0
 46 45  2  0
 49 48  1  0
 49 51  1  0
 51 52  1  0
 51 50  1  0
 54 55  1  0
 55 56  1  1
 55 53  1  0
 57 55  1  0
 59 58  1  0
 59 60  1  0
 59 57  1  0
 61 67  1  0
 61 69  1  0
 62 67  1  0
 63 64  1  0
 63 62  1  0
 65 64  1  0
 65 73  1  0
 65 66  1  0
 67 66  1  0
 68 61  2  0
 69 60  1  0
 69 99  1  0
 70 71  2  0
 71 90  1  0
 72 71  1  0
 72 75  1  0
 73 74  1  0
 73 70  1  0
 74 72  2  0
 75 76  1  0
 76 77  2  0
 78 81  1  0
 78 77  1  0
 79 78  2  0
 80 75  2  0
 80 79  1  0
 81 82  1  0
 82 83  1  0
 83 84  2  0
 85 84  1  0
 85 89  1  0
 86 85  2  0
 87 82  2  0
 87 86  1  0
 88 87  1  0
 90 91  1  0
 91 93  1  0
 91 94  1  0
 92 90  2  0
 95 70  1  0
 95 96  1  0
 97 95  1  0
 99 98  1  0
M  ISO  4  11 101  12 101  61 100  69 100
M  END
>  <TORSDO>  (10) 
F 26

>  <SCORE>  (10) 
-3.280

>  <name>  (10) 
9

>  <ligand_id>  (10) 
9

>  <original_smiles>  (10) 
[H]c1c([H])c([H])c2c(c1[H])C([H])([H])C([H])([H])C([H])([H])C2([H])N([H])C(=O)C1([H])N(C(=O)C([H])(N([H])C(=O)C([H])(N([H])C([H])([H])[H])C([H])([H])[H])C(C([H])([H])[H])(C([H])([H])[H])C([H])([H])[H])C([H])([H])c2c([H])c(OC([H])([H])C([H])([H])C([H])([H])Oc3c([H])c([H])c(C([H])([H])[N+]([H])(C([H])([H])[H])C([H])([H])C([H])(C([H])([H])[H])C([H])([H])N(C(=O)N4C([H])([H])C([H])([H])C([H])([H])C([H])(n5nc(-c6c([H])c([H])c(Oc7c([H])c([H])c(F)c([H])c7F)c([H])c6[H])c(C(=O)N([H])[H])c5N([H])[H])C4([H])[H])C([H])([H])C([H])([H])[H])c(F)c3[H])c([H])c([H])c2C1([H])[H]

>  <smiles>  (10) 
[H]c1c([H])c([H])c2c(c1[H])C([H])([H])C([H])([H])C([H])([H])C2([H])N([H])C(=O)C1([H])N(C(=O)C([H])(N([H])C(=O)C([H])(N([H])C([H])([H])[H])C([H])([H])[H])C(C([H])([H])[H])(C([H])([H])[H])C([H])([H])[H])C([H])([H])c2c([H])c(OC([H])([H])C([H])([H])C([H])([H])Oc3c([H])c([H])c(C([H])([H])[N+]([H])(C([H])([H])[H])C([H])([H])C([H])(C([H])([H])[H])C([H])([H])N(C(=O)N4C([H])([H])C([H])([H])C([H])([H])C([H])(n5nc(-c6c([H])c([H])c(Oc7c([H])c([H])c(F)c([H])c7F)c([H])c6[H])c(C(=O)N([H])[H])c5N([H])[H])C4([H])[H])C([H])([H])C([H])([H])[H])c(F)c3[H])c([H])c([H])c2C1([H])[H]

$$$$
10:0:0
     RDKit          3D

 92100  0  0  1  0  0  0  0  0999 V2000
  -28.7830  -18.7600   21.2510 C   0  0  0  0  0  3  0  0  0  0  0  0
  -28.8430  -20.1660   21.1120 C   0  0  0  0  0  3  0  0  0  0  0  0
  -30.0080  -18.5040   19.1760 C   0  0  0  0  0  3  0  0  0  0  0  0
  -29.3590  -17.9100   20.2820 C   0  0  0  0  0  0  0  0  0  0  0  0
  -29.4880  -20.7720   20.0080 C   0  0  0  0  0  0  0  0  0  0  0  0
  -30.0710  -19.9110   19.0350 C   0  0  0  0  0  0  0  0  0  0  0  0
  -30.6810  -20.4190   17.9340 F   0  0  0  0  0  0  0  0  0  0  0  0
  -30.7740  -22.7770   19.4190 C   0  0  0  0  0  1  0  0  0  0  0  0
  -29.5360  -22.1920   19.9300 N   0  0  0  0  0  0  0  0  0  0  0  0
  -28.2670  -22.8780   19.6350 C   0  0  0  0  0  2  0  0  0  0  0  0
  -28.1510  -24.3260   20.1980 C   0  0  0  0  0  2  0  0  0  0  0  0
  -28.5010  -25.4670   19.2060 C   0  0  0  0  0  2  0  0  0  0  0  0
  -28.4010  -26.7800   19.7890 O   0  0  0  0  0  0  0  0  0  0  0  0
  -24.5970  -31.7710   23.1540 C   0  0  0  0  0  0  0  0  0  0  0  0
  -27.1950  -27.4570   19.8370 C   0  0  0  0  0  0  0  0  0  0  0  0
  -23.3610  -30.4260   21.4870 C   0  0  0  0  0  3  0  0  0  0  0  0
  -24.7860  -28.9510   19.9710 C   0  0  0  0  0  0  0  0  0  0  0  0
  -25.8800  -30.8040   21.2460 C   0  0  0  0  0  2  0  0  0  0  0  0
  -25.9560  -29.4580   20.5520 C   0  0  0  0  0  0  0  0  0  0  0  0
  -27.1590  -28.7180   20.4820 C   0  0  0  0  0  3  0  0  0  0  0  0
  -25.9990  -26.9600   19.2670 C   0  0  0  0  0  3  0  0  0  0  0  0
  -24.8040  -27.7000   19.3310 C   0  0  0  0  0  3  0  0  0  0  0  0
  -23.5420  -29.8030   20.0770 C   0  0  0  0  0  2  0  0  0  0  0  0
  -24.6330  -31.0140   22.0200 N   0  0  0  0  0  0  0  0  0  0  0  0
  -23.5270  -32.0170   23.7260 O   0  0  0  0  0  0  0  0  0  0  0  0
  -22.7380  -29.3650   22.4210 C   0  0  0  0  0  0  0  0  0  0  0  0
  -21.4120  -29.1780   22.3130 N   0  0  0  0  0  0  0  0  0  0  0  0
  -23.4400  -28.7160   23.1990 O   0  0  0  0  0  0  0  0  0  0  0  0
  -20.9040  -29.7550   21.6580 H   0  0  0  0  0  0  0  0  0  0  0  0
  -18.0550  -27.9480   22.8400 C   0  0  0  0  0  0  0  0  0  0  0  0
  -20.6180  -28.2060   23.0650 C   0  0  0  0  0  3  0  0  0  0  0  0
  -20.7130  -26.8010   22.4280 C   0  0  0  0  0  2  0  0  0  0  0  0
  -19.5890  -26.5140   21.4270 C   0  0  0  0  0  2  0  0  0  0  0  0
  -18.2210  -26.6270   22.1090 C   0  0  0  0  0  2  0  0  0  0  0  0
  -19.1810  -28.6970   23.2750 C   0  0  0  0  0  0  0  0  0  0  0  0
  -18.9720  -29.9350   23.9200 C   0  0  0  0  0  3  0  0  0  0  0  0
  -17.6700  -30.4250   24.1350 C   0  0  0  0  0  3  0  0  0  0  0  0
  -16.5590  -29.6730   23.7170 C   0  0  0  0  0  3  0  0  0  0  0  0
  -16.7530  -28.4360   23.0750 C   0  0  0  0  0  3  0  0  0  0  0  0
  -25.8940  -32.3850   23.7680 C   0  0  0  0  0  3  0  0  0  0  0  0
  -25.5920  -33.7740   24.1390 N   0  0  0  0  0  0  0  0  0  0  0  0
  -25.9140  -34.8440   23.4010 C   0  0  0  0  0  0  0  0  0  0  0  0
  -26.5670  -34.7650   22.3570 O   0  0  0  0  0  0  0  0  0  0  0  0
  -25.0090  -33.9090   24.9520 H   0  0  0  0  0  0  0  0  0  0  0  0
  -24.1860  -36.6490   23.1120 C   0  0  0  0  0  1  0  0  0  0  0  0
  -25.4340  -36.2190   23.8990 C   0  0  0  0  0  3  0  0  0  0  0  0
  -27.5760  -37.0790   24.7400 C   0  0  0  0  0  1  0  0  0  0  0  0
  -26.4680  -37.2730   23.8060 N   0  0  0  0  0  0  0  0  0  0  0  0
  -26.0650  -38.1900   23.9770 H   0  0  0  0  0  0  0  0  0  0  0  0
  -26.4360  -31.5790   25.0130 C   0  0  1  0  0  0  0  0  0  0  0  0
  -25.3610  -31.2990   26.0900 C   0  0  0  0  0  1  0  0  0  0  0  0
  -27.0230  -30.2190   24.5690 C   0  0  0  0  0  1  0  0  0  0  0  0
  -27.5940  -32.3610   25.6780 C   0  0  0  0  0  1  0  0  0  0  0  0
  -29.2010  -16.3810   20.3840 C   0  0  0  0  0  2  0  0  0  0  0  0
  -30.8810  -14.5790   20.1680 C   0  0  0  0  0  0  0  0  0  0  0  0
  -30.5420  -12.3970   19.0490 C   0  0  0  0  0  2  0  0  0  0  0  0
  -29.5690  -12.5410   17.8640 C   0  0  0  0  0  2  0  0  0  0  0  0
  -28.1120  -12.3760   18.3400 C   0  0  0  0  0  2  0  0  0  0  0  0
  -27.7880  -13.2420   19.5840 C   0  0  0  0  0  3  0  0  0  0  0  0
  -28.8800  -13.1000   20.6710 C   0  0  0  0  0  2  0  0  0  0  0  0
  -30.1800  -13.4120   20.0560 N   0  0  0  0  0  0  0  0  0  0  0  0
  -31.9930  -14.7240   19.6510 O   0  0  0  0  0  0  0  0  0  0  0  0
  -31.1910  -16.2940   21.8630 C   0  0  0  0  0  1  0  0  0  0  0  0
  -30.3380  -15.5850   20.9040 N   0  0  0  0  0  0  0  0  0  0  0  0
  -25.4140  -13.8380   20.3650 C   0  0  0  0  0  0  0  0  0  0  0  0
  -24.3620  -13.0590   20.7660 C   0  0  0  0  0  0  0  0  0  0  0  0
  -24.8310  -11.7110   20.7230 C   0  0  0  0  0  0  0  0  0  0  0  0
  -26.4560  -12.9620   20.1070 N   0  0  0  0  0  0  0  0  0  0  0  0
  -26.1120  -11.6780   20.3800 N   0  0  0  0  0  0  0  0  0  0  0  0
  -24.1190  -10.4440   20.9320 C   0  0  0  0  0  0  0  0  0  0  0  0
  -24.5520   -9.5080   21.8970 C   0  0  0  0  0  3  0  0  0  0  0  0
  -23.8410   -8.3040   22.0920 C   0  0  0  0  0  3  0  0  0  0  0  0
  -22.6840   -8.0300   21.3250 C   0  0  0  0  0  0  0  0  0  0  0  0
  -22.2720   -8.9560   20.3510 C   0  0  0  0  0  3  0  0  0  0  0  0
  -22.9830  -10.1510   20.1520 C   0  0  0  0  0  3  0  0  0  0  0  0
  -21.9460   -6.8760   21.4290 O   0  0  0  0  0  0  0  0  0  0  0  0
  -21.8580   -6.1830   22.6090 C   0  0  0  0  0  0  0  0  0  0  0  0
  -21.3250   -6.7670   23.7790 C   0  0  0  0  0  3  0  0  0  0  0  0
  -21.1890   -5.9970   24.9510 C   0  0  0  0  0  3  0  0  0  0  0  0
  -21.5770   -4.6430   24.9550 C   0  0  0  0  0  0  0  0  0  0  0  0
  -22.1030   -4.0590   23.7890 C   0  0  0  0  0  3  0  0  0  0  0  0
  -22.2410   -4.8250   22.6190 C   0  0  0  0  0  0  0  0  0  0  0  0
  -22.7290   -4.2520   21.4930 F   0  0  0  0  0  0  0  0  0  0  0  0
  -21.4390   -3.9010   26.0780 F   0  0  0  0  0  0  0  0  0  0  0  0
  -22.9700  -13.5280   21.0750 C   0  0  0  0  0  0  0  0  0  0  0  0
  -22.2660  -12.8180   21.9490 N   0  0  0  0  0  0  0  0  0  0  0  0
  -22.5170  -14.5570   20.5770 O   0  0  0  0  0  0  0  0  0  0  0  0
  -22.6470  -11.9840   22.3720 H   0  0  0  0  0  0  0  0  0  0  0  0
  -21.3340  -13.1130   22.2010 H   0  0  0  0  0  0  0  0  0  0  0  0
  -25.5600  -15.2090   20.1760 N   0  0  0  0  0  0  0  0  0  0  0  0
  -24.7820  -15.8490   20.2950 H   0  0  0  0  0  0  0  0  0  0  0  0
  -26.3770  -15.6520   19.7790 H   0  0  0  0  0  0  0  0  0  0  0  0
  2  1  1  0
  3  4  1  0
  4 54  1  0
  4  1  2  0
  5  2  2  0
  6  3  2  0
  6  5  1  0
  7  6  1  0
  8  9  1  0
  9  5  1  0
 10  9  1  0
 10 11  1  0
 12 13  1  0
 12 11  1  0
 13 15  1  0
 14 25  2  0
 15 20  1  0
 16 24  1  0
 16 26  1  0
 17 23  1  0
 17 19  1  0
 18 24  1  0
 19 18  1  0
 20 19  2  0
 21 22  1  0
 21 15  2  0
 22 17  2  0
 23 16  1  0
 24 14  1  0
 26 28  2  0
 27 26  1  0
 29 27  1  0
 30 39  2  0
 30 35  1  0
 31 27  1  0
 31 35  1  0
 32 31  1  0
 33 34  1  0
 33 32  1  0
 34 30  1  0
 35 36  2  0
 36 37  1  0
 38 37  2  0
 39 38  1  0
 40 14  1  0
 40 41  1  0
 40 50  1  0
 41 44  1  0
 42 46  1  0
 42 41  1  0
 43 42  2  0
 46 45  1  0
 48 46  1  0
 48 49  1  0
 48 47  1  0
 50 53  1  1
 50 51  1  0
 52 50  1  0
 54 64  1  0
 55 64  1  0
 56 61  1  0
 57 58  1  0
 57 56  1  0
 59 58  1  0
 59 68  1  0
 59 60  1  0
 61 55  1  0
 61 60  1  0
 62 55  2  0
 64 63  1  0
 65 66  2  0
 66 85  1  0
 67 66  1  0
 67 70  1  0
 68 65  1  0
 68 69  1  0
 69 67  2  0
 70 71  1  0
 71 72  2  0
 73 76  1  0
 73 72  1  0
 74 73  2  0
 75 74  1  0
 75 70  2  0
 76 77  1  0
 77 82  2  0
 77 78  1  0
 78 79  2  0
 79 80  1  0
 80 84  1  0
 81 80  2  0
 82 81  1  0
 83 82  1  0
 85 86  1  0
 86 89  1  0
 86 88  1  0
 87 85  2  0
 90 91  1  0
 90 65  1  0
 92 90  1  0
M  ISO  4  12 101  13 101  55 100  64 100
M  END
>  <TORSDO>  (11) 
F 21

>  <SCORE>  (11) 
-12.561

>  <name>  (11) 
10

>  <ligand_id>  (11) 
10

>  <original_smiles>  (11) 
[H]c1c([H])c([H])c2c(c1[H])C([H])([H])C([H])([H])C([H])([H])C2([H])N([H])C(=O)C1([H])N(C(=O)C([H])(N([H])C(=O)C([H])(N([H])C([H])([H])[H])C([H])([H])[H])C(C([H])([H])[H])(C([H])([H])[H])C([H])([H])[H])C([H])([H])c2c([H])c(OC([H])([H])C([H])([H])C([H])([H])N(c3c([H])c([H])c(C([H])([H])N(C(=O)N4C([H])([H])C([H])([H])C([H])([H])C([H])(n5nc(-c6c([H])c([H])c(Oc7c([H])c([H])c(F)c([H])c7F)c([H])c6[H])c(C(=O)N([H])[H])c5N([H])[H])C4([H])[H])C([H])([H])[H])c([H])c3F)C([H])([H])[H])c([H])c([H])c2C1([H])[H]

>  <smiles>  (11) 
[H]c1c([H])c([H])c2c(c1[H])C([H])([H])C([H])([H])C([H])([H])C2([H])N([H])C(=O)C1([H])N(C(=O)C([H])(N([H])C(=O)C([H])(N([H])C([H])([H])[H])C([H])([H])[H])C(C([H])([H])[H])(C([H])([H])[H])C([H])([H])[H])C([H])([H])c2c([H])c(OC([H])([H])C([H])([H])C([H])([H])N(c3c([H])c([H])c(C([H])([H])N(C(=O)N4C([H])([H])C([H])([H])C([H])([H])C([H])(n5nc(-c6c([H])c([H])c(Oc7c([H])c([H])c(F)c([H])c7F)c([H])c6[H])c(C(=O)N([H])[H])c5N([H])[H])C4([H])[H])C([H])([H])[H])c([H])c3F)C([H])([H])[H])c([H])c([H])c2C1([H])[H]

$$$$
11:0:0
     RDKit          3D

 95103  0  0  1  0  0  0  0  0999 V2000
  -31.0570  -22.1110   22.4680 C   0  0  0  0  0  2  0  0  0  0  0  0
  -31.0120  -18.2430   22.1950 C   0  0  0  0  0  3  0  0  0  0  0  0
  -31.1100  -19.5480   22.7310 C   0  0  0  0  0  3  0  0  0  0  0  0
  -30.2910  -19.1920   20.0820 C   0  0  0  0  0  3  0  0  0  0  0  0
  -30.6290  -18.0500   20.8400 C   0  0  0  0  0  0  0  0  0  0  0  0
  -30.8200  -20.6880   21.9400 C   0  0  0  0  0  0  0  0  0  0  0  0
  -30.3670  -20.4900   20.6210 C   0  0  0  0  0  0  0  0  0  0  0  0
  -30.0110  -21.5540   19.8620 F   0  0  0  0  0  0  0  0  0  0  0  0
  -30.4990  -16.6970   20.1110 C   0  0  0  0  0  2  0  0  0  0  0  0
  -31.1030  -14.5370   19.2930 C   0  0  0  0  0  0  0  0  0  0  0  0
  -30.3570  -12.5460   18.0430 C   0  0  0  0  0  2  0  0  0  0  0  0
  -29.2140  -12.8820   17.0740 C   0  0  0  0  0  2  0  0  0  0  0  0
  -27.8530  -12.7720   17.7810 C   0  0  0  0  0  2  0  0  0  0  0  0
  -27.8210  -13.5120   19.1450 C   0  0  0  0  0  3  0  0  0  0  0  0
  -29.0690  -13.1960   20.0020 C   0  0  0  0  0  2  0  0  0  0  0  0
  -30.2760  -13.4560   19.2000 N   0  0  0  0  0  0  0  0  0  0  0  0
  -31.9500  -14.8020   18.4350 O   0  0  0  0  0  0  0  0  0  0  0  0
  -30.9950  -15.3230   20.3900 N   0  0  0  0  0  0  0  0  0  0  0  0
  -25.6500  -14.1090   20.3970 C   0  0  0  0  0  0  0  0  0  0  0  0
  -24.6320  -13.3310   20.8900 C   0  0  0  0  0  0  0  0  0  0  0  0
  -24.9990  -11.9800   20.6110 C   0  0  0  0  0  0  0  0  0  0  0  0
  -26.5770  -13.2270   19.8610 N   0  0  0  0  0  0  0  0  0  0  0  0
  -26.2000  -11.9330   20.0470 N   0  0  0  0  0  0  0  0  0  0  0  0
  -24.2470  -10.7290   20.8000 C   0  0  0  0  0  0  0  0  0  0  0  0
  -24.7020   -9.7140   21.6680 C   0  0  0  0  0  3  0  0  0  0  0  0
  -23.9500   -8.5350   21.8520 C   0  0  0  0  0  3  0  0  0  0  0  0
  -22.7250   -8.3620   21.1630 C   0  0  0  0  0  0  0  0  0  0  0  0
  -22.2830   -9.3680   20.2850 C   0  0  0  0  0  3  0  0  0  0  0  0
  -23.0380  -10.5370   20.1020 C   0  0  0  0  0  3  0  0  0  0  0  0
  -21.9380   -7.2370   21.2610 O   0  0  0  0  0  0  0  0  0  0  0  0
  -21.8250   -6.5380   22.4380 C   0  0  0  0  0  0  0  0  0  0  0  0
  -21.3890   -7.1510   23.6320 C   0  0  0  0  0  3  0  0  0  0  0  0
  -21.2180   -6.3790   24.7970 C   0  0  0  0  0  3  0  0  0  0  0  0
  -21.4750   -4.9950   24.7740 C   0  0  0  0  0  0  0  0  0  0  0  0
  -21.8990   -4.3810   23.5830 C   0  0  0  0  0  3  0  0  0  0  0  0
  -22.0720   -5.1500   22.4190 C   0  0  0  0  0  0  0  0  0  0  0  0
  -22.4600   -4.5490   21.2670 F   0  0  0  0  0  0  0  0  0  0  0  0
  -21.3060   -4.2510   25.8910 F   0  0  0  0  0  0  0  0  0  0  0  0
  -23.3500  -13.8230   21.4980 C   0  0  0  0  0  0  0  0  0  0  0  0
  -22.7950  -13.0820   22.4550 N   0  0  0  0  0  0  0  0  0  0  0  0
  -22.8490  -14.8940   21.1590 O   0  0  0  0  0  0  0  0  0  0  0  0
  -23.2060  -12.2080   22.7460 H   0  0  0  0  0  0  0  0  0  0  0  0
  -21.9220  -13.3750   22.8700 H   0  0  0  0  0  0  0  0  0  0  0  0
  -25.8530  -15.4830   20.3490 N   0  0  0  0  0  0  0  0  0  0  0  0
  -25.1670  -16.1410   20.7100 H   0  0  0  0  0  0  0  0  0  0  0  0
  -26.6660  -15.9380   19.9520 H   0  0  0  0  0  0  0  0  0  0  0  0
  -31.2640  -14.5540   22.7260 C   0  0  0  0  0  1  0  0  0  0  0  0
  -31.9720  -15.0750   21.4700 C   0  0  0  0  0  2  0  0  0  0  0  0
  -29.2010  -23.8570   22.2390 C   0  0  0  0  0  0  0  0  0  0  0  0
  -29.3760  -22.4160   24.2220 C   0  0  0  0  0  1  0  0  0  0  0  0
  -29.8480  -22.8420   22.8900 N   0  0  0  0  0  0  0  0  0  0  0  0
  -28.1430  -24.3120   22.6910 O   0  0  0  0  0  0  0  0  0  0  0  0
  -29.7730  -24.5350   20.9630 C   0  0  0  0  0  2  0  0  0  0  0  0
  -28.7070  -25.0770   19.9530 C   0  0  0  0  0  2  0  0  0  0  0  0
  -28.7900  -26.5040   19.7210 O   0  0  0  0  0  0  0  0  0  0  0  0
  -25.0130  -31.4480   23.1140 C   0  0  0  0  0  0  0  0  0  0  0  0
  -27.6100  -27.2260   19.7210 C   0  0  0  0  0  0  0  0  0  0  0  0
  -23.7710  -30.1520   21.4060 C   0  0  0  0  0  3  0  0  0  0  0  0
  -25.2020  -28.7160   19.8490 C   0  0  0  0  0  0  0  0  0  0  0  0
  -26.2900  -30.5430   21.1690 C   0  0  0  0  0  2  0  0  0  0  0  0
  -26.3680  -29.2150   20.4430 C   0  0  0  0  0  0  0  0  0  0  0  0
  -27.5730  -28.4810   20.3720 C   0  0  0  0  0  3  0  0  0  0  0  0
  -26.4330  -26.7530   19.0970 C   0  0  0  0  0  3  0  0  0  0  0  0
  -25.2280  -27.4830   19.1730 C   0  0  0  0  0  3  0  0  0  0  0  0
  -23.9550  -29.5610   19.9820 C   0  0  0  0  0  2  0  0  0  0  0  0
  -25.0430  -30.7270   21.9550 N   0  0  0  0  0  0  0  0  0  0  0  0
  -23.9440  -31.6780   23.6970 O   0  0  0  0  0  0  0  0  0  0  0  0
  -23.1440  -29.0700   22.3140 C   0  0  0  0  0  0  0  0  0  0  0  0
  -21.8180  -28.8930   22.2070 N   0  0  0  0  0  0  0  0  0  0  0  0
  -23.8470  -28.3950   23.0700 O   0  0  0  0  0  0  0  0  0  0  0  0
  -21.3130  -29.4910   21.5690 H   0  0  0  0  0  0  0  0  0  0  0  0
  -18.4560  -27.6600   22.7080 C   0  0  0  0  0  0  0  0  0  0  0  0
  -21.0210  -27.9000   22.9280 C   0  0  0  0  0  3  0  0  0  0  0  0
  -21.1070  -26.5140   22.2480 C   0  0  0  0  0  2  0  0  0  0  0  0
  -19.9780  -26.2650   21.2440 C   0  0  0  0  0  2  0  0  0  0  0  0
  -18.6140  -26.3620   21.9340 C   0  0  0  0  0  2  0  0  0  0  0  0
  -19.5870  -28.3890   23.1610 C   0  0  0  0  0  0  0  0  0  0  0  0
  -19.3870  -29.6060   23.8470 C   0  0  0  0  0  3  0  0  0  0  0  0
  -18.0880  -30.0930   24.0850 C   0  0  0  0  0  3  0  0  0  0  0  0
  -16.9720  -29.3590   23.6490 C   0  0  0  0  0  3  0  0  0  0  0  0
  -17.1560  -28.1440   22.9670 C   0  0  0  0  0  3  0  0  0  0  0  0
  -26.3110  -32.0400   23.7450 C   0  0  0  0  0  3  0  0  0  0  0  0
  -26.0050  -33.4080   24.1890 N   0  0  0  0  0  0  0  0  0  0  0  0
  -26.3320  -34.5170   23.5130 C   0  0  0  0  0  0  0  0  0  0  0  0
  -26.9960  -34.4940   22.4720 O   0  0  0  0  0  0  0  0  0  0  0  0
  -25.4160  -33.4980   25.0040 H   0  0  0  0  0  0  0  0  0  0  0  0
  -24.6160  -36.3430   23.2970 C   0  0  0  0  0  1  0  0  0  0  0  0
  -25.8470  -35.8650   24.0820 C   0  0  0  0  0  3  0  0  0  0  0  0
  -27.9790  -36.6660   25.0000 C   0  0  0  0  0  1  0  0  0  0  0  0
  -26.8860  -36.9180   24.0670 N   0  0  0  0  0  0  0  0  0  0  0  0
  -26.4840  -37.8270   24.2820 H   0  0  0  0  0  0  0  0  0  0  0  0
  -26.8710  -31.1780   24.9430 C   0  0  1  0  0  0  0  0  0  0  0  0
  -25.8040  -30.8220   26.0050 C   0  0  0  0  0  1  0  0  0  0  0  0
  -27.4800  -29.8540   24.4250 C   0  0  0  0  0  1  0  0  0  0  0  0
  -28.0200  -31.9390   25.6430 C   0  0  0  0  0  1  0  0  0  0  0  0
  1 51  1  0
  2  3  1  0
  4  7  2  0
  4  5  1  0
  5  2  2  0
  6  1  1  0
  6  3  2  0
  7  6  1  0
  8  7  1  0
  9 18  1  0
  9  5  1  0
 10 18  1  0
 11 16  1  0
 12 13  1  0
 12 11  1  0
 14 13  1  0
 14 22  1  0
 14 15  1  0
 16 10  1  0
 16 15  1  0
 17 10  2  0
 18 48  1  0
 19 20  2  0
 20 39  1  0
 21 24  1  0
 21 20  1  0
 22 23  1  0
 22 19  1  0
 23 21  2  0
 24 25  1  0
 25 26  2  0
 27 30  1  0
 27 26  1  0
 28 27  2  0
 29 28  1  0
 29 24  2  0
 30 31  1  0
 31 32  1  0
 32 33  2  0
 34 33  1  0
 34 38  1  0
 35 34  2  0
 36 31  2  0
 36 35  1  0
 37 36  1  0
 39 40  1  0
 40 42  1  0
 40 43  1  0
 41 39  2  0
 44 19  1  0
 44 45  1  0
 46 44  1  0
 48 47  1  0
 49 52  2  0
 49 51  1  0
 51 50  1  0
 53 49  1  0
 54 53  1  0
 55 54  1  0
 56 67  2  0
 57 55  1  0
 57 62  1  0
 58 66  1  0
 58 68  1  0
 59 65  1  0
 59 61  1  0
 60 66  1  0
 61 60  1  0
 62 61  2  0
 63 64  1  0
 63 57  2  0
 64 59  2  0
 65 58  1  0
 66 56  1  0
 68 70  2  0
 69 68  1  0
 71 69  1  0
 72 81  2  0
 72 77  1  0
 73 69  1  0
 73 77  1  0
 74 73  1  0
 75 76  1  0
 75 74  1  0
 76 72  1  0
 77 78  2  0
 78 79  1  0
 80 79  2  0
 81 80  1  0
 82 56  1  0
 82 83  1  0
 82 92  1  0
 83 86  1  0
 84 88  1  0
 84 83  1  0
 85 84  2  0
 88 87  1  0
 90 88  1  0
 90 91  1  0
 90 89  1  0
 92 95  1  1
 92 93  1  0
 94 92  1  0
M  ISO  4  10 100  18 100  54 101  55 101
M  END
>  <TORSDO>  (12) 
F 22

>  <SCORE>  (12) 
-7.555

>  <name>  (12) 
11

>  <ligand_id>  (12) 
11

>  <original_smiles>  (12) 
[H]c1c([H])c([H])c2c(c1[H])C([H])([H])C([H])([H])C([H])([H])C2([H])N([H])C(=O)C1([H])N(C(=O)C([H])(N([H])C(=O)C([H])(N([H])C([H])([H])[H])C([H])([H])[H])C(C([H])([H])[H])(C([H])([H])[H])C([H])([H])[H])C([H])([H])c2c([H])c(OC([H])([H])C([H])([H])C(=O)N(C([H])([H])[H])C([H])([H])c3c([H])c([H])c(C([H])([H])N(C(=O)N4C([H])([H])C([H])([H])C([H])([H])C([H])(n5nc(-c6c([H])c([H])c(Oc7c([H])c([H])c(F)c([H])c7F)c([H])c6[H])c(C(=O)N([H])[H])c5N([H])[H])C4([H])[H])C([H])([H])C([H])([H])[H])c([H])c3F)c([H])c([H])c2C1([H])[H]

>  <smiles>  (12) 
[H]c1c([H])c([H])c2c(c1[H])C([H])([H])C([H])([H])C([H])([H])C2([H])N([H])C(=O)C1([H])N(C(=O)C([H])(N([H])C(=O)C([H])(N([H])C([H])([H])[H])C([H])([H])[H])C(C([H])([H])[H])(C([H])([H])[H])C([H])([H])[H])C([H])([H])c2c([H])c(OC([H])([H])C([H])([H])C(=O)N(C([H])([H])[H])C([H])([H])c3c([H])c([H])c(C([H])([H])N(C(=O)N4C([H])([H])C([H])([H])C([H])([H])C([H])(n5nc(-c6c([H])c([H])c(Oc7c([H])c([H])c(F)c([H])c7F)c([H])c6[H])c(C(=O)N([H])[H])c5N([H])[H])C4([H])[H])C([H])([H])C([H])([H])[H])c([H])c3F)c([H])c([H])c2C1([H])[H]

$$$$
12:0:0
     RDKit          3D

 94102  0  0  1  0  0  0  0  0999 V2000
  -29.8470  -22.6640   19.5160 C   0  0  0  0  0  2  0  0  0  0  0  0
  -30.5100  -19.1410   20.9670 C   0  0  0  0  0  3  0  0  0  0  0  0
  -30.3010  -20.5390   20.8950 C   0  0  0  0  0  3  0  0  0  0  0  0
  -29.5940  -18.8900   18.7330 C   0  0  0  0  0  3  0  0  0  0  0  0
  -30.2110  -18.3080   19.8640 C   0  0  0  0  0  0  0  0  0  0  0  0
  -29.7950  -21.1340   19.7160 C   0  0  0  0  0  0  0  0  0  0  0  0
  -29.3900  -20.2840   18.6590 C   0  0  0  0  0  0  0  0  0  0  0  0
  -28.8680  -20.8160   17.5300 F   0  0  0  0  0  0  0  0  0  0  0  0
  -30.8020  -16.8890   19.7820 C   0  0  0  0  0  2  0  0  0  0  0  0
  -30.7640  -14.4860   20.1050 C   0  0  0  0  0  0  0  0  0  0  0  0
  -30.3320  -12.3670   18.9160 C   0  0  0  0  0  2  0  0  0  0  0  0
  -29.3270  -12.6010   17.7720 C   0  0  0  0  0  2  0  0  0  0  0  0
  -27.8770  -12.4700   18.2790 C   0  0  0  0  0  2  0  0  0  0  0  0
  -27.6220  -13.2560   19.5920 C   0  0  0  0  0  3  0  0  0  0  0  0
  -28.7440  -12.9860   20.6170 C   0  0  0  0  0  2  0  0  0  0  0  0
  -30.0170  -13.3460   19.9760 N   0  0  0  0  0  0  0  0  0  0  0  0
  -31.9080  -14.5180   19.6410 O   0  0  0  0  0  0  0  0  0  0  0  0
  -29.2610  -15.9130   21.5180 C   0  0  0  0  0  1  0  0  0  0  0  0
  -30.1430  -15.6840   20.3680 N   0  0  0  0  0  0  0  0  0  0  0  0
  -25.2660  -13.8390   20.4310 C   0  0  0  0  0  0  0  0  0  0  0  0
  -24.2210  -13.0550   20.8420 C   0  0  0  0  0  0  0  0  0  0  0  0
  -24.6840  -11.7080   20.7690 C   0  0  0  0  0  0  0  0  0  0  0  0
  -26.3020  -12.9660   20.1400 N   0  0  0  0  0  0  0  0  0  0  0  0
  -25.9570  -11.6780   20.3990 N   0  0  0  0  0  0  0  0  0  0  0  0
  -23.9710  -10.4400   20.9740 C   0  0  0  0  0  0  0  0  0  0  0  0
  -24.4290   -9.4770   21.9000 C   0  0  0  0  0  3  0  0  0  0  0  0
  -23.7140   -8.2750   22.0940 C   0  0  0  0  0  3  0  0  0  0  0  0
  -22.5270   -8.0290   21.3630 C   0  0  0  0  0  0  0  0  0  0  0  0
  -22.0880   -8.9800   20.4240 C   0  0  0  0  0  3  0  0  0  0  0  0
  -22.8050  -10.1730   20.2270 C   0  0  0  0  0  3  0  0  0  0  0  0
  -21.7810   -6.8800   21.4690 O   0  0  0  0  0  0  0  0  0  0  0  0
  -21.7300   -6.1610   22.6370 C   0  0  0  0  0  0  0  0  0  0  0  0
  -21.2910   -6.7380   23.8490 C   0  0  0  0  0  3  0  0  0  0  0  0
  -21.1850   -5.9430   25.0080 C   0  0  0  0  0  3  0  0  0  0  0  0
  -21.5110   -4.5750   24.9550 C   0  0  0  0  0  0  0  0  0  0  0  0
  -21.9410   -3.9980   23.7470 C   0  0  0  0  0  3  0  0  0  0  0  0
  -22.0470   -4.7890   22.5900 C   0  0  0  0  0  0  0  0  0  0  0  0
  -22.4430   -4.2240   21.4230 F   0  0  0  0  0  0  0  0  0  0  0  0
  -21.4000   -3.8090   26.0660 F   0  0  0  0  0  0  0  0  0  0  0  0
  -22.8370  -13.5250   21.1890 C   0  0  0  0  0  0  0  0  0  0  0  0
  -22.1570  -12.8160   22.0840 N   0  0  0  0  0  0  0  0  0  0  0  0
  -22.3720  -14.5530   20.7000 O   0  0  0  0  0  0  0  0  0  0  0  0
  -22.5470  -11.9840   22.5010 H   0  0  0  0  0  0  0  0  0  0  0  0
  -21.2300  -13.1090   22.3580 H   0  0  0  0  0  0  0  0  0  0  0  0
  -25.4120  -15.2130   20.2620 N   0  0  0  0  0  0  0  0  0  0  0  0
  -24.6490  -15.8590   20.4290 H   0  0  0  0  0  0  0  0  0  0  0  0
  -26.2450  -15.6720   19.9150 H   0  0  0  0  0  0  0  0  0  0  0  0
  -27.3700  -22.6680   19.9700 C   0  0  0  0  0  1  0  0  0  0  0  0
  -28.5900  -23.4720   19.6920 N   0  0  2  0  0  4  0  0  0  0  0  0
  -28.7360  -23.9530   20.5700 H   0  0  0  0  0  0  0  0  0  0  0  0
  -28.7110  -24.2300   17.2290 C   0  0  0  0  0  1  0  0  0  0  0  0
  -28.3260  -24.5720   18.6870 C   0  0  0  0  0  3  0  0  0  0  0  0
  -28.8850  -25.9830   19.0680 C   0  0  0  0  0  2  0  0  0  0  0  0
  -28.3700  -26.6670   20.2250 O   0  0  0  0  0  0  0  0  0  0  0  0
  -24.5940  -31.8970   23.2490 C   0  0  0  0  0  0  0  0  0  0  0  0
  -27.2190  -27.4340   20.1470 C   0  0  0  0  0  0  0  0  0  0  0  0
  -23.3850  -30.4970   21.6150 C   0  0  0  0  0  3  0  0  0  0  0  0
  -24.8300  -28.9690   20.1760 C   0  0  0  0  0  0  0  0  0  0  0  0
  -25.9130  -30.8480   21.4060 C   0  0  0  0  0  2  0  0  0  0  0  0
  -25.9940  -29.4780   20.7640 C   0  0  0  0  0  0  0  0  0  0  0  0
  -27.1860  -28.7150   20.7550 C   0  0  0  0  0  3  0  0  0  0  0  0
  -26.0270  -26.9470   19.5670 C   0  0  0  0  0  3  0  0  0  0  0  0
  -24.8420  -27.7020   19.5770 C   0  0  0  0  0  3  0  0  0  0  0  0
  -23.5870  -29.8270   20.2310 C   0  0  0  0  0  2  0  0  0  0  0  0
  -24.6510  -31.0960   22.1480 N   0  0  0  0  0  0  0  0  0  0  0  0
  -23.5150  -32.1650   23.7940 O   0  0  0  0  0  0  0  0  0  0  0  0
  -22.7400  -29.4690   22.5740 C   0  0  0  0  0  0  0  0  0  0  0  0
  -21.4150  -29.2830   22.4520 N   0  0  0  0  0  0  0  0  0  0  0  0
  -23.4290  -28.8440   23.3850 O   0  0  0  0  0  0  0  0  0  0  0  0
  -20.9210  -29.8380   21.7660 H   0  0  0  0  0  0  0  0  0  0  0  0
  -18.0450  -28.0740   22.9560 C   0  0  0  0  0  0  0  0  0  0  0  0
  -20.6020  -28.3430   23.2270 C   0  0  0  0  0  3  0  0  0  0  0  0
  -20.7110  -26.9100   22.6560 C   0  0  0  0  0  2  0  0  0  0  0  0
  -19.6090  -26.5780   21.6440 C   0  0  0  0  0  2  0  0  0  0  0  0
  -18.2270  -26.7220   22.2870 C   0  0  0  0  0  2  0  0  0  0  0  0
  -19.1610  -28.8410   23.3850 C   0  0  0  0  0  0  0  0  0  0  0  0
  -18.9360  -30.1070   23.9680 C   0  0  0  0  0  3  0  0  0  0  0  0
  -17.6290  -30.6050   24.1280 C   0  0  0  0  0  3  0  0  0  0  0  0
  -16.5280  -29.8340   23.7170 C   0  0  0  0  0  3  0  0  0  0  0  0
  -16.7380  -28.5700   23.1370 C   0  0  0  0  0  3  0  0  0  0  0  0
  -25.8820  -32.5320   23.8630 C   0  0  0  0  0  3  0  0  0  0  0  0
  -25.5720  -33.9300   24.1870 N   0  0  0  0  0  0  0  0  0  0  0  0
  -25.9070  -34.9790   23.4240 C   0  0  0  0  0  0  0  0  0  0  0  0
  -26.5790  -34.8730   22.3940 O   0  0  0  0  0  0  0  0  0  0  0  0
  -24.9770  -34.0900   24.9860 H   0  0  0  0  0  0  0  0  0  0  0  0
  -24.1820  -36.7730   23.0520 C   0  0  0  0  0  1  0  0  0  0  0  0
  -25.4180  -36.3680   23.8730 C   0  0  0  0  0  3  0  0  0  0  0  0
  -27.5490  -37.2500   24.7160 C   0  0  0  0  0  1  0  0  0  0  0  0
  -26.4530  -37.4200   23.7670 N   0  0  0  0  0  0  0  0  0  0  0  0
  -26.0470  -38.3410   23.9120 H   0  0  0  0  0  0  0  0  0  0  0  0
  -26.4050  -31.7650   25.1380 C   0  0  1  0  0  0  0  0  0  0  0  0
  -25.3170  -31.5280   26.2110 C   0  0  0  0  0  1  0  0  0  0  0  0
  -26.9870  -30.3880   24.7430 C   0  0  0  0  0  1  0  0  0  0  0  0
  -27.5580  -32.5630   25.7920 C   0  0  0  0  0  1  0  0  0  0  0  0
  1 49  1  0
  1  6  1  0
  3  2  1  0
  4  5  1  0
  5  2  2  0
  6  3  2  0
  7  4  2  0
  7  6  1  0
  8  7  1  0
  9  5  1  0
  9 19  1  0
 10 19  1  0
 11 16  1  0
 12 13  1  0
 12 11  1  0
 14 13  1  0
 14 23  1  0
 14 15  1  0
 16 10  1  0
 16 15  1  0
 17 10  2  0
 19 18  1  0
 20 21  2  0
 21 40  1  0
 22 21  1  0
 22 25  1  0
 23 24  1  0
 23 20  1  0
 24 22  2  0
 25 26  1  0
 26 27  2  0
 28 31  1  0
 28 27  1  0
 29 28  2  0
 30 29  1  0
 30 25  2  0
 31 32  1  0
 32 33  1  0
 33 34  2  0
 35 34  1  0
 35 39  1  0
 36 35  2  0
 37 32  2  0
 37 36  1  0
 38 37  1  0
 40 41  1  0
 41 44  1  0
 41 43  1  0
 42 40  2  0
 45 46  1  0
 45 20  1  0
 47 45  1  0
 49 48  1  0
 49 50  1  1
 52 51  1  0
 52 53  1  0
 52 49  1  0
 53 54  1  0
 55 66  2  0
 56 54  1  0
 56 61  1  0
 57 65  1  0
 57 67  1  0
 58 64  1  0
 58 60  1  0
 59 65  1  0
 60 59  1  0
 61 60  2  0
 62 63  1  0
 62 56  2  0
 63 58  2  0
 64 57  1  0
 65 55  1  0
 67 69  2  0
 68 67  1  0
 70 68  1  0
 71 80  2  0
 71 76  1  0
 72 68  1  0
 72 76  1  0
 73 72  1  0
 74 75  1  0
 74 73  1  0
 75 71  1  0
 76 77  2  0
 77 78  1  0
 79 78  2  0
 80 79  1  0
 81 55  1  0
 81 82  1  0
 81 91  1  0
 82 85  1  0
 83 87  1  0
 83 82  1  0
 84 83  2  0
 87 86  1  0
 89 87  1  0
 89 90  1  0
 89 88  1  0
 91 94  1  1
 91 92  1  0
 93 91  1  0
M  ISO  4  10 100  19 100  53 101  54 101
M  END
>  <TORSDO>  (13) 
F 21

>  <SCORE>  (13) 
-13.244

>  <name>  (13) 
12

>  <ligand_id>  (13) 
12

>  <original_smiles>  (13) 
[H]c1c([H])c([H])c2c(c1[H])C([H])([H])C([H])([H])C([H])([H])C2([H])N([H])C(=O)C1([H])N(C(=O)C([H])(N([H])C(=O)C([H])(N([H])C([H])([H])[H])C([H])([H])[H])C(C([H])([H])[H])(C([H])([H])[H])C([H])([H])[H])C([H])([H])c2c([H])c(OC([H])([H])C([H])(C([H])([H])[H])[N+]([H])(C([H])([H])[H])C([H])([H])c3c([H])c([H])c(C([H])([H])N(C(=O)N4C([H])([H])C([H])([H])C([H])([H])C([H])(n5nc(-c6c([H])c([H])c(Oc7c([H])c([H])c(F)c([H])c7F)c([H])c6[H])c(C(=O)N([H])[H])c5N([H])[H])C4([H])[H])C([H])([H])[H])c([H])c3F)c([H])c([H])c2C1([H])[H]

>  <smiles>  (13) 
[H]c1c([H])c([H])c2c(c1[H])C([H])([H])C([H])([H])C([H])([H])C2([H])N([H])C(=O)C1([H])N(C(=O)C([H])(N([H])C(=O)C([H])(N([H])C([H])([H])[H])C([H])([H])[H])C(C([H])([H])[H])(C([H])([H])[H])C([H])([H])[H])C([H])([H])c2c([H])c(OC([H])([H])C([H])(C([H])([H])[H])[N+]([H])(C([H])([H])[H])C([H])([H])c3c([H])c([H])c(C([H])([H])N(C(=O)N4C([H])([H])C([H])([H])C([H])([H])C([H])(n5nc(-c6c([H])c([H])c(Oc7c([H])c([H])c(F)c([H])c7F)c([H])c6[H])c(C(=O)N([H])[H])c5N([H])[H])C4([H])[H])C([H])([H])[H])c([H])c3F)c([H])c([H])c2C1([H])[H]

$$$$
13:0:0
     RDKit          3D

 91 99  0  0  1  0  0  0  0  0999 V2000
  -26.9330  -21.0470   18.9950 C   0  0  0  0  0  1  0  0  0  0  0  0
  -28.2770  -21.0900   19.5830 N   0  0  0  0  0  0  0  0  0  0  0  0
  -30.0390  -18.1090   21.2670 C   0  0  0  0  0  3  0  0  0  0  0  0
  -29.5880  -19.4400   20.9890 C   0  0  0  0  0  3  0  0  0  0  0  0
  -29.0870  -17.3220   19.2240 C   0  0  0  0  0  3  0  0  0  0  0  0
  -29.7900  -16.9910   20.4100 C   0  0  0  0  0  0  0  0  0  0  0  0
  -28.8290  -19.7620   19.8350 C   0  0  0  0  0  0  0  0  0  0  0  0
  -28.6220  -18.6470   18.9450 C   0  0  0  0  0  0  0  0  0  0  0  0
  -27.9520  -18.8220   17.7800 F   0  0  0  0  0  0  0  0  0  0  0  0
  -30.6660  -14.6090   19.9750 C   0  0  0  0  0  0  0  0  0  0  0  0
  -30.3070  -12.4110   18.8360 C   0  0  0  0  0  2  0  0  0  0  0  0
  -29.2670  -12.5570   17.7050 C   0  0  0  0  0  2  0  0  0  0  0  0
  -27.8370  -12.4010   18.2520 C   0  0  0  0  0  2  0  0  0  0  0  0
  -27.5930  -13.2460   19.5290 C   0  0  0  0  0  3  0  0  0  0  0  0
  -28.7310  -13.0610   20.5510 C   0  0  0  0  0  2  0  0  0  0  0  0
  -29.9930  -13.4110   19.8840 N   0  0  0  0  0  0  0  0  0  0  0  0
  -31.7110  -14.7870   19.3380 O   0  0  0  0  0  0  0  0  0  0  0  0
  -30.4460  -15.3890   22.2200 C   0  0  0  0  0  1  0  0  0  0  0  0
  -30.1600  -15.6050   20.7940 N   0  0  0  0  0  0  0  0  0  0  0  0
  -25.2890  -13.8600   20.4810 C   0  0  0  0  0  0  0  0  0  0  0  0
  -24.2390  -13.0920   20.9080 C   0  0  0  0  0  0  0  0  0  0  0  0
  -24.6690  -11.7350   20.7910 C   0  0  0  0  0  0  0  0  0  0  0  0
  -26.2870  -12.9700   20.1210 N   0  0  0  0  0  0  0  0  0  0  0  0
  -25.9260  -11.6830   20.3680 N   0  0  0  0  0  0  0  0  0  0  0  0
  -23.9350  -10.4810   21.0010 C   0  0  0  0  0  0  0  0  0  0  0  0
  -24.4170   -9.4790   21.8710 C   0  0  0  0  0  3  0  0  0  0  0  0
  -23.6810   -8.2910   22.0730 C   0  0  0  0  0  3  0  0  0  0  0  0
  -22.4500   -8.0960   21.4030 C   0  0  0  0  0  0  0  0  0  0  0  0
  -21.9860   -9.0870   20.5200 C   0  0  0  0  0  3  0  0  0  0  0  0
  -22.7230  -10.2660   20.3160 C   0  0  0  0  0  3  0  0  0  0  0  0
  -21.6820   -6.9620   21.5160 O   0  0  0  0  0  0  0  0  0  0  0  0
  -21.6860   -6.2000   22.6570 C   0  0  0  0  0  0  0  0  0  0  0  0
  -21.3650   -6.7450   23.9190 C   0  0  0  0  0  3  0  0  0  0  0  0
  -21.3140   -5.9110   25.0530 C   0  0  0  0  0  3  0  0  0  0  0  0
  -21.5730   -4.5340   24.9300 C   0  0  0  0  0  0  0  0  0  0  0  0
  -21.8880   -3.9870   23.6730 C   0  0  0  0  0  3  0  0  0  0  0  0
  -21.9420   -4.8180   22.5400 C   0  0  0  0  0  0  0  0  0  0  0  0
  -22.2240   -4.2820   21.3280 F   0  0  0  0  0  0  0  0  0  0  0  0
  -21.5180   -3.7320   26.0180 F   0  0  0  0  0  0  0  0  0  0  0  0
  -22.8810  -13.5880   21.3160 C   0  0  0  0  0  0  0  0  0  0  0  0
  -22.2270  -12.8880   22.2340 N   0  0  0  0  0  0  0  0  0  0  0  0
  -22.4140  -14.6310   20.8580 O   0  0  0  0  0  0  0  0  0  0  0  0
  -22.6300  -12.0530   22.6340 H   0  0  0  0  0  0  0  0  0  0  0  0
  -21.3230  -13.2010   22.5600 H   0  0  0  0  0  0  0  0  0  0  0  0
  -25.4700  -15.2340   20.3510 N   0  0  0  0  0  0  0  0  0  0  0  0
  -24.7510  -15.8980   20.6170 H   0  0  0  0  0  0  0  0  0  0  0  0
  -26.3230  -15.6780   20.0340 H   0  0  0  0  0  0  0  0  0  0  0  0
  -28.5540  -22.3290   20.3940 C   0  0  0  0  0  2  0  0  0  0  0  0
  -28.3400  -23.7650   19.6910 C   0  0  0  0  0  3  0  0  0  0  0  0
  -28.3100  -25.0710   20.6200 C   0  0  0  0  0  3  0  0  0  0  0  0
  -28.4320  -26.4450   20.0660 O   0  0  0  0  0  0  0  0  0  0  0  0
  -24.5450  -31.7330   23.1030 C   0  0  0  0  0  0  0  0  0  0  0  0
  -27.3000  -27.2620   20.0580 C   0  0  0  0  0  0  0  0  0  0  0  0
  -23.3930  -30.3050   21.4490 C   0  0  0  0  0  3  0  0  0  0  0  0
  -24.8970  -28.7980   20.0300 C   0  0  0  0  0  0  0  0  0  0  0  0
  -25.9190  -30.7030   21.2790 C   0  0  0  0  0  2  0  0  0  0  0  0
  -26.0470  -29.3270   20.6330 C   0  0  0  0  0  0  0  0  0  0  0  0
  -27.2560  -28.5710   20.6310 C   0  0  0  0  0  3  0  0  0  0  0  0
  -26.1300  -26.7800   19.4390 C   0  0  0  0  0  3  0  0  0  0  0  0
  -24.9410  -27.5330   19.4230 C   0  0  0  0  0  3  0  0  0  0  0  0
  -23.6370  -29.6380   20.0670 C   0  0  0  0  0  2  0  0  0  0  0  0
  -24.6380  -30.9300   22.0020 N   0  0  0  0  0  0  0  0  0  0  0  0
  -23.4510  -31.9770   23.6320 O   0  0  0  0  0  0  0  0  0  0  0  0
  -22.7550  -29.2620   22.3990 C   0  0  0  0  0  0  0  0  0  0  0  0
  -21.4310  -29.0620   22.2760 N   0  0  0  0  0  0  0  0  0  0  0  0
  -23.4490  -28.6400   23.2080 O   0  0  0  0  0  0  0  0  0  0  0  0
  -20.9300  -29.6190   21.5970 H   0  0  0  0  0  0  0  0  0  0  0  0
  -18.0800  -27.7990   22.7800 C   0  0  0  0  0  0  0  0  0  0  0  0
  -20.6340  -28.1010   23.0390 C   0  0  0  0  0  3  0  0  0  0  0  0
  -20.7570  -26.6780   22.4460 C   0  0  0  0  0  2  0  0  0  0  0  0
  -19.6560  -26.3480   21.4320 C   0  0  0  0  0  2  0  0  0  0  0  0
  -18.2750  -26.4630   22.0850 C   0  0  0  0  0  2  0  0  0  0  0  0
  -19.1870  -28.5750   23.2130 C   0  0  0  0  0  0  0  0  0  0  0  0
  -18.9490  -29.8270   23.8220 C   0  0  0  0  0  3  0  0  0  0  0  0
  -17.6370  -30.3050   23.9980 C   0  0  0  0  0  3  0  0  0  0  0  0
  -16.5440  -29.5260   23.5800 C   0  0  0  0  0  3  0  0  0  0  0  0
  -16.7660  -28.2740   22.9790 C   0  0  0  0  0  3  0  0  0  0  0  0
  -25.8050  -32.4000   23.7370 C   0  0  0  0  0  3  0  0  0  0  0  0
  -26.3430  -31.6300   25.0040 C   0  0  1  0  0  0  0  0  0  0  0  0
  -25.2550  -31.3490   26.0680 C   0  0  0  0  0  1  0  0  0  0  0  0
  -26.9630  -30.2730   24.5980 C   0  0  0  0  0  1  0  0  0  0  0  0
  -27.4700  -32.4490   25.6760 C   0  0  0  0  0  1  0  0  0  0  0  0
  -25.4510  -33.7840   24.0850 N   0  0  0  0  0  0  0  0  0  0  0  0
  -25.7420  -34.8550   23.3330 C   0  0  0  0  0  0  0  0  0  0  0  0
  -26.4080  -34.7830   22.2960 O   0  0  0  0  0  0  0  0  0  0  0  0
  -24.8600  -33.9110   24.8910 H   0  0  0  0  0  0  0  0  0  0  0  0
  -23.9470  -36.5850   23.0070 C   0  0  0  0  0  1  0  0  0  0  0  0
  -25.2090  -36.2200   23.8060 C   0  0  0  0  0  3  0  0  0  0  0  0
  -27.3200  -37.1730   24.6230 C   0  0  0  0  0  1  0  0  0  0  0  0
  -26.2040  -37.3100   23.6920 N   0  0  0  0  0  0  0  0  0  0  0  0
  -25.7660  -38.2150   23.8550 H   0  0  0  0  0  0  0  0  0  0  0  0
  1  2  1  0
  2  7  1  0
  2 48  1  0
  4  3  1  0
  5  6  1  0
  6 19  1  0
  6  3  2  0
  7  4  2  0
  8  5  2  0
  8  7  1  0
  9  8  1  0
 10 19  1  0
 11 16  1  0
 12 13  1  0
 12 11  1  0
 14 13  1  0
 14 23  1  0
 14 15  1  0
 16 10  1  0
 16 15  1  0
 17 10  2  0
 19 18  1  0
 20 21  2  0
 21 40  1  0
 22 21  1  0
 22 25  1  0
 23 24  1  0
 23 20  1  0
 24 22  2  0
 25 26  1  0
 26 27  2  0
 28 31  1  0
 28 27  1  0
 29 28  2  0
 30 29  1  0
 30 25  2  0
 31 32  1  0
 32 33  1  0
 33 34  2  0
 35 34  1  0
 35 39  1  0
 36 35  2  0
 37 32  2  0
 37 36  1  0
 38 37  1  0
 40 41  1  0
 41 44  1  0
 41 43  1  0
 42 40  2  0
 45 20  1  0
 45 46  1  0
 47 45  1  0
 49 48  1  0
 49 50  2  0
 51 50  1  0
 52 63  2  0
 53 51  1  0
 53 58  1  0
 54 62  1  0
 54 64  1  0
 55 61  1  0
 55 57  1  0
 56 62  1  0
 57 56  1  0
 58 57  2  0
 59 53  2  0
 60 59  1  0
 60 55  2  0
 61 54  1  0
 62 52  1  0
 64 66  2  0
 65 64  1  0
 67 65  1  0
 68 77  2  0
 68 73  1  0
 69 65  1  0
 69 73  1  0
 70 69  1  0
 71 72  1  0
 71 70  1  0
 72 68  1  0
 73 74  2  0
 74 75  1  0
 76 75  2  0
 77 76  1  0
 78 52  1  0
 78 83  1  0
 78 79  1  0
 79 82  1  1
 79 80  1  0
 81 79  1  0
 83 86  1  0
 84 88  1  0
 84 83  1  0
 85 84  2  0
 88 87  1  0
 90 88  1  0
 90 91  1  0
 90 89  1  0
M  ISO  4  10 100  19 100  50 101  51 101
M  END
>  <TORSDO>  (14) 
F 20

>  <SCORE>  (14) 
-12.922

>  <name>  (14) 
13

>  <ligand_id>  (14) 
13

>  <original_smiles>  (14) 
[H]c1c([H])c([H])c2c(c1[H])C([H])([H])C([H])([H])C([H])([H])C2([H])N([H])C(=O)C1([H])N(C(=O)C([H])(N([H])C(=O)C([H])(N([H])C([H])([H])[H])C([H])([H])[H])C(C([H])([H])[H])(C([H])([H])[H])C([H])([H])[H])C([H])([H])c2c([H])c(OC([H])([H])C([H])([H])C([H])([H])N(c3c([H])c([H])c(N(C(=O)N4C([H])([H])C([H])([H])C([H])([H])C([H])(n5nc(-c6c([H])c([H])c(Oc7c([H])c([H])c(F)c([H])c7F)c([H])c6[H])c(C(=O)N([H])[H])c5N([H])[H])C4([H])[H])C([H])([H])[H])c([H])c3F)C([H])([H])[H])c([H])c([H])c2C1([H])[H]

>  <smiles>  (14) 
[H]c1c([H])c([H])c2c(c1[H])C([H])([H])C([H])([H])C([H])([H])C2([H])N([H])C(=O)C1([H])N(C(=O)C([H])(N([H])C(=O)C([H])(N([H])C([H])([H])[H])C([H])([H])[H])C(C([H])([H])[H])(C([H])([H])[H])C([H])([H])[H])C([H])([H])c2c([H])c(OC([H])([H])C([H])([H])C([H])([H])N(c3c([H])c([H])c(N(C(=O)N4C([H])([H])C([H])([H])C([H])([H])C([H])(n5nc(-c6c([H])c([H])c(Oc7c([H])c([H])c(F)c([H])c7F)c([H])c6[H])c(C(=O)N([H])[H])c5N([H])[H])C4([H])[H])C([H])([H])[H])c([H])c3F)C([H])([H])[H])c([H])c([H])c2C1([H])[H]

$$$$
14:0:0
     RDKit          3D

 93101  0  0  1  0  0  0  0  0999 V2000
  -29.3050  -24.0570   20.3010 C   0  0  0  0  0  0  0  0  0  0  0  0
  -29.1750  -22.6880   20.4240 N   0  0  0  0  0  0  0  0  0  0  0  0
  -30.4140  -24.5760   20.1490 O   0  0  0  0  0  0  0  0  0  0  0  0
  -28.2360  -22.3260   20.5030 H   0  0  0  0  0  0  0  0  0  0  0  0
  -30.9560  -21.9470   21.9710 C   0  0  0  0  0  1  0  0  0  0  0  0
  -30.2930  -21.6940   20.6020 C   0  0  0  0  0  3  0  0  0  0  0  0
  -31.2130  -19.2960   20.2700 C   0  0  0  0  0  3  0  0  0  0  0  0
  -28.8480  -19.4510   20.6460 C   0  0  0  0  0  3  0  0  0  0  0  0
  -31.1480  -17.8720   20.2850 C   0  0  0  0  0  3  0  0  0  0  0  0
  -28.7810  -18.0200   20.6610 C   0  0  0  0  0  3  0  0  0  0  0  0
  -30.0770  -20.1330   20.4620 C   0  0  0  0  0  0  0  0  0  0  0  0
  -29.9250  -17.1840   20.4940 C   0  0  0  0  0  0  0  0  0  0  0  0
  -30.5730  -14.6720   20.1900 C   0  0  0  0  0  0  0  0  0  0  0  0
  -30.3270  -12.4460   19.1040 C   0  0  0  0  0  2  0  0  0  0  0  0
  -29.3460  -12.5940   17.9190 C   0  0  0  0  0  2  0  0  0  0  0  0
  -27.8870  -12.4320   18.3880 C   0  0  0  0  0  2  0  0  0  0  0  0
  -27.5680  -13.2810   19.6480 C   0  0  0  0  0  3  0  0  0  0  0  0
  -28.6580  -13.1040   20.7290 C   0  0  0  0  0  2  0  0  0  0  0  0
  -29.9510  -13.4510   20.1190 N   0  0  0  0  0  0  0  0  0  0  0  0
  -31.7270  -14.8200   19.7760 O   0  0  0  0  0  0  0  0  0  0  0  0
  -29.7780  -15.7250   20.5700 N   0  0  0  0  0  0  0  0  0  0  0  0
  -28.8660  -15.4150   20.8720 H   0  0  0  0  0  0  0  0  0  0  0  0
  -25.2000  -13.8840   20.4420 C   0  0  0  0  0  0  0  0  0  0  0  0
  -24.1410  -13.1120   20.8370 C   0  0  0  0  0  0  0  0  0  0  0  0
  -24.5960  -11.7590   20.7800 C   0  0  0  0  0  0  0  0  0  0  0  0
  -26.2330  -13.0020   20.1680 N   0  0  0  0  0  0  0  0  0  0  0  0
  -25.8770  -11.7180   20.4320 N   0  0  0  0  0  0  0  0  0  0  0  0
  -23.8700  -10.4980   20.9790 C   0  0  0  0  0  0  0  0  0  0  0  0
  -24.3130   -9.5300   21.9070 C   0  0  0  0  0  3  0  0  0  0  0  0
  -23.5880   -8.3340   22.0940 C   0  0  0  0  0  3  0  0  0  0  0  0
  -22.4060   -8.0970   21.3540 C   0  0  0  0  0  0  0  0  0  0  0  0
  -21.9820   -9.0530   20.4140 C   0  0  0  0  0  3  0  0  0  0  0  0
  -22.7070  -10.2410   20.2250 C   0  0  0  0  0  3  0  0  0  0  0  0
  -21.6510   -6.9530   21.4510 O   0  0  0  0  0  0  0  0  0  0  0  0
  -21.5980   -6.2220   22.6100 C   0  0  0  0  0  0  0  0  0  0  0  0
  -21.1670   -6.7890   23.8300 C   0  0  0  0  0  3  0  0  0  0  0  0
  -21.0610   -5.9840   24.9820 C   0  0  0  0  0  3  0  0  0  0  0  0
  -21.3760   -4.6130   24.9150 C   0  0  0  0  0  0  0  0  0  0  0  0
  -21.7990   -4.0460   23.7000 C   0  0  0  0  0  3  0  0  0  0  0  0
  -21.9070   -4.8470   22.5510 C   0  0  0  0  0  0  0  0  0  0  0  0
  -22.2950   -4.2910   21.3780 F   0  0  0  0  0  0  0  0  0  0  0  0
  -21.2660   -3.8390   26.0200 F   0  0  0  0  0  0  0  0  0  0  0  0
  -22.7540  -13.5930   21.1510 C   0  0  0  0  0  0  0  0  0  0  0  0
  -22.0490  -12.8930   22.0340 N   0  0  0  0  0  0  0  0  0  0  0  0
  -22.3050  -14.6220   20.6490 O   0  0  0  0  0  0  0  0  0  0  0  0
  -22.4240  -12.0610   22.4630 H   0  0  0  0  0  0  0  0  0  0  0  0
  -21.1180  -13.1970   22.2860 H   0  0  0  0  0  0  0  0  0  0  0  0
  -25.3640  -15.2550   20.2710 N   0  0  0  0  0  0  0  0  0  0  0  0
  -24.5960  -15.9060   20.4060 H   0  0  0  0  0  0  0  0  0  0  0  0
  -26.1880  -15.6920   19.8780 H   0  0  0  0  0  0  0  0  0  0  0  0
  -27.3180  -24.7590   21.7220 C   0  0  0  0  0  1  0  0  0  0  0  0
  -28.0380  -25.0010   20.3760 C   0  0  0  0  0  3  0  0  0  0  0  0
  -28.3060  -26.4650   20.2240 O   0  0  0  0  0  0  0  0  0  0  0  0
  -24.6130  -31.8790   23.2540 C   0  0  0  0  0  0  0  0  0  0  0  0
  -27.2010  -27.3350   20.1610 C   0  0  0  0  0  0  0  0  0  0  0  0
  -23.3980  -30.4910   21.6160 C   0  0  0  0  0  3  0  0  0  0  0  0
  -24.8370  -28.9520   20.1690 C   0  0  0  0  0  0  0  0  0  0  0  0
  -25.9370  -30.8080   21.4180 C   0  0  0  0  0  2  0  0  0  0  0  0
  -26.0120  -29.4350   20.7620 C   0  0  0  0  0  0  0  0  0  0  0  0
  -27.1950  -28.6380   20.7480 C   0  0  0  0  0  3  0  0  0  0  0  0
  -26.0060  -26.9160   19.5290 C   0  0  0  0  0  3  0  0  0  0  0  0
  -24.8380  -27.6980   19.5420 C   0  0  0  0  0  3  0  0  0  0  0  0
  -23.6010  -29.8260   20.2290 C   0  0  0  0  0  2  0  0  0  0  0  0
  -24.6680  -31.0760   22.1520 N   0  0  0  0  0  0  0  0  0  0  0  0
  -23.5320  -32.1530   23.7970 O   0  0  0  0  0  0  0  0  0  0  0  0
  -22.7410  -29.4670   22.5740 C   0  0  0  0  0  0  0  0  0  0  0  0
  -21.4150  -29.2880   22.4500 N   0  0  0  0  0  0  0  0  0  0  0  0
  -23.4230  -28.8410   23.3870 O   0  0  0  0  0  0  0  0  0  0  0  0
  -20.9220  -29.8470   21.7680 H   0  0  0  0  0  0  0  0  0  0  0  0
  -18.0420  -28.0790   22.9520 C   0  0  0  0  0  0  0  0  0  0  0  0
  -20.6000  -28.3470   23.2200 C   0  0  0  0  0  3  0  0  0  0  0  0
  -20.7060  -26.9160   22.6460 C   0  0  0  0  0  2  0  0  0  0  0  0
  -19.6040  -26.5890   21.6320 C   0  0  0  0  0  2  0  0  0  0  0  0
  -18.2220  -26.7300   22.2770 C   0  0  0  0  0  2  0  0  0  0  0  0
  -19.1580  -28.8450   23.3820 C   0  0  0  0  0  0  0  0  0  0  0  0
  -18.9360  -30.1070   23.9750 C   0  0  0  0  0  3  0  0  0  0  0  0
  -17.6300  -30.6040   24.1400 C   0  0  0  0  0  3  0  0  0  0  0  0
  -16.5280  -29.8350   23.7270 C   0  0  0  0  0  3  0  0  0  0  0  0
  -16.7350  -28.5740   23.1390 C   0  0  0  0  0  3  0  0  0  0  0  0
  -25.9000  -32.5080   23.8710 C   0  0  0  0  0  3  0  0  0  0  0  0
  -26.4230  -31.7300   25.1410 C   0  0  1  0  0  0  0  0  0  0  0  0
  -25.3370  -31.4870   26.2150 C   0  0  0  0  0  1  0  0  0  0  0  0
  -27.0040  -30.3540   24.7390 C   0  0  0  0  0  1  0  0  0  0  0  0
  -27.5790  -32.5190   25.8000 C   0  0  0  0  0  1  0  0  0  0  0  0
  -25.5910  -33.9040   24.2130 N   0  0  0  0  0  0  0  0  0  0  0  0
  -25.8990  -34.9600   23.4500 C   0  0  0  0  0  0  0  0  0  0  0  0
  -26.5430  -34.8620   22.4010 O   0  0  0  0  0  0  0  0  0  0  0  0
  -25.0200  -34.0530   25.0310 H   0  0  0  0  0  0  0  0  0  0  0  0
  -24.1460  -36.7400   23.1550 C   0  0  0  0  0  1  0  0  0  0  0  0
  -25.4170  -36.3450   23.9240 C   0  0  0  0  0  3  0  0  0  0  0  0
  -27.5730  -37.2470   24.6800 C   0  0  0  0  0  1  0  0  0  0  0  0
  -26.4380  -37.4060   23.7750 N   0  0  0  0  0  0  0  0  0  0  0  0
  -26.0300  -38.3240   23.9350 H   0  0  0  0  0  0  0  0  0  0  0  0
  1 52  1  0
  1  2  1  0
  2  4  1  0
  2  6  1  0
  3  1  2  0
  6  5  1  0
  7  9  2  0
  7 11  1  0
  8 10  1  0
  9 12  1  0
 11  6  1  0
 11  8  2  0
 12 21  1  0
 12 10  2  0
 13 21  1  0
 14 19  1  0
 15 16  1  0
 15 14  1  0
 17 16  1  0
 17 26  1  0
 17 18  1  0
 19 13  1  0
 19 18  1  0
 20 13  2  0
 21 22  1  0
 23 24  2  0
 24 43  1  0
 25 24  1  0
 25 28  1  0
 26 27  1  0
 26 23  1  0
 27 25  2  0
 28 29  1  0
 29 30  2  0
 31 34  1  0
 31 30  1  0
 32 31  2  0
 33 32  1  0
 33 28  2  0
 34 35  1  0
 35 36  1  0
 36 37  2  0
 38 37  1  0
 38 42  1  0
 39 38  2  0
 40 35  2  0
 40 39  1  0
 41 40  1  0
 43 44  1  0
 44 47  1  0
 44 46  1  0
 45 43  2  0
 48 49  1  0
 48 23  1  0
 50 48  1  0
 52 51  1  0
 53 52  1  0
 54 65  2  0
 55 53  1  0
 55 60  1  0
 56 64  1  0
 56 66  1  0
 57 63  1  0
 57 59  1  0
 58 64  1  0
 59 58  1  0
 60 59  2  0
 61 62  1  0
 61 55  2  0
 62 57  2  0
 63 56  1  0
 64 54  1  0
 66 68  2  0
 67 66  1  0
 69 67  1  0
 70 79  2  0
 70 75  1  0
 71 67  1  0
 71 75  1  0
 72 71  1  0
 73 74  1  0
 73 72  1  0
 74 70  1  0
 75 76  2  0
 76 77  1  0
 78 77  2  0
 79 78  1  0
 80 54  1  0
 80 85  1  0
 80 81  1  0
 81 84  1  1
 81 82  1  0
 83 81  1  0
 85 88  1  0
 86 90  1  0
 86 85  1  0
 87 86  2  0
 90 89  1  0
 92 90  1  0
 92 93  1  0
 92 91  1  0
M  ISO  4  13 100  21 100  52 101  53 101
M  END
>  <TORSDO>  (15) 
F 19

>  <SCORE>  (15) 
-14.393

>  <name>  (15) 
14

>  <ligand_id>  (15) 
14

>  <original_smiles>  (15) 
[H]c1c([H])c([H])c2c(c1[H])C([H])([H])C([H])([H])C([H])([H])C2([H])N([H])C(=O)C1([H])N(C(=O)C([H])(N([H])C(=O)C([H])(N([H])C([H])([H])[H])C([H])([H])[H])C(C([H])([H])[H])(C([H])([H])[H])C([H])([H])[H])C([H])([H])c2c([H])c(OC([H])(C(=O)N([H])C([H])(c3c([H])c([H])c(N([H])C(=O)N4C([H])([H])C([H])([H])C([H])([H])C([H])(n5nc(-c6c([H])c([H])c(Oc7c([H])c([H])c(F)c([H])c7F)c([H])c6[H])c(C(=O)N([H])[H])c5N([H])[H])C4([H])[H])c([H])c3[H])C([H])([H])[H])C([H])([H])[H])c([H])c([H])c2C1([H])[H]

>  <smiles>  (15) 
[H]c1c([H])c([H])c2c(c1[H])C([H])([H])C([H])([H])C([H])([H])C2([H])N([H])C(=O)C1([H])N(C(=O)C([H])(N([H])C(=O)C([H])(N([H])C([H])([H])[H])C([H])([H])[H])C(C([H])([H])[H])(C([H])([H])[H])C([H])([H])[H])C([H])([H])c2c([H])c(OC([H])(C(=O)N([H])C([H])(c3c([H])c([H])c(N([H])C(=O)N4C([H])([H])C([H])([H])C([H])([H])C([H])(n5nc(-c6c([H])c([H])c(Oc7c([H])c([H])c(F)c([H])c7F)c([H])c6[H])c(C(=O)N([H])[H])c5N([H])[H])C4([H])[H])c([H])c3[H])C([H])([H])[H])C([H])([H])[H])c([H])c([H])c2C1([H])[H]

$$$$
15:0:0
     RDKit          3D

 96104  0  0  1  0  0  0  0  0999 V2000
  -28.5060  -23.4440   21.7350 C   0  0  0  0  0  0  0  0  0  0  0  0
  -29.0750  -22.1970   21.7270 N   0  0  0  0  0  0  0  0  0  0  0  0
  -28.4080  -24.0820   22.7890 O   0  0  0  0  0  0  0  0  0  0  0  0
  -29.3980  -21.4670   20.4730 C   0  0  0  0  0  2  0  0  0  0  0  0
  -28.7450  -18.9930   20.2190 C   0  0  0  0  0  3  0  0  0  0  0  0
  -31.0660  -19.4960   20.6990 C   0  0  0  0  0  3  0  0  0  0  0  0
  -29.0840  -17.6330   20.0450 C   0  0  0  0  0  3  0  0  0  0  0  0
  -31.4080  -18.1280   20.5310 C   0  0  0  0  0  3  0  0  0  0  0  0
  -29.7370  -19.9550   20.5110 C   0  0  0  0  0  0  0  0  0  0  0  0
  -30.4250  -17.1850   20.1490 C   0  0  0  0  0  0  0  0  0  0  0  0
  -31.4490  -14.8780   20.1540 C   0  0  0  0  0  0  0  0  0  0  0  0
  -31.1360  -12.6210   19.2240 C   0  0  0  0  0  2  0  0  0  0  0  0
  -30.2030  -12.6970   17.9920 C   0  0  0  0  0  2  0  0  0  0  0  0
  -28.7230  -12.6700   18.4130 C   0  0  0  0  0  2  0  0  0  0  0  0
  -28.3890  -13.6170   19.5990 C   0  0  0  0  0  3  0  0  0  0  0  0
  -29.4310  -13.4970   20.7340 C   0  0  0  0  0  2  0  0  0  0  0  0
  -30.7570  -13.7050   20.1430 N   0  0  0  0  0  0  0  0  0  0  0  0
  -32.6800  -14.9070   20.0650 O   0  0  0  0  0  0  0  0  0  0  0  0
  -30.9150  -16.0240   18.1110 C   0  0  0  0  0  1  0  0  0  0  0  0
  -30.7520  -15.9040   19.5740 N   0  0  0  0  0  0  0  0  0  0  0  0
  -26.0110  -14.3270   20.2700 C   0  0  0  0  0  0  0  0  0  0  0  0
  -24.9090  -13.6000   20.6290 C   0  0  0  0  0  0  0  0  0  0  0  0
  -25.3240  -12.2330   20.6440 C   0  0  0  0  0  0  0  0  0  0  0  0
  -27.0270  -13.4040   20.0800 N   0  0  0  0  0  0  0  0  0  0  0  0
  -26.6190  -12.1430   20.3720 N   0  0  0  0  0  0  0  0  0  0  0  0
  -24.5530  -11.0020   20.8430 C   0  0  0  0  0  0  0  0  0  0  0  0
  -24.9060  -10.0640   21.8390 C   0  0  0  0  0  3  0  0  0  0  0  0
  -24.1380   -8.8950   22.0250 C   0  0  0  0  0  3  0  0  0  0  0  0
  -23.0040   -8.6550   21.2140 C   0  0  0  0  0  0  0  0  0  0  0  0
  -22.6730   -9.5780   20.2060 C   0  0  0  0  0  3  0  0  0  0  0  0
  -23.4400  -10.7400   20.0190 C   0  0  0  0  0  3  0  0  0  0  0  0
  -22.2120   -7.5360   21.3050 O   0  0  0  0  0  0  0  0  0  0  0  0
  -21.9950   -6.9040   22.5030 C   0  0  0  0  0  0  0  0  0  0  0  0
  -21.4570   -7.5860   23.6170 C   0  0  0  0  0  3  0  0  0  0  0  0
  -21.1850   -6.8840   24.8080 C   0  0  0  0  0  3  0  0  0  0  0  0
  -21.4390   -5.5000   24.8840 C   0  0  0  0  0  0  0  0  0  0  0  0
  -21.9680   -4.8190   23.7740 C   0  0  0  0  0  3  0  0  0  0  0  0
  -22.2420   -5.5190   22.5860 C   0  0  0  0  0  0  0  0  0  0  0  0
  -22.7320   -4.8540   21.5120 F   0  0  0  0  0  0  0  0  0  0  0  0
  -21.1710   -4.8240   26.0250 F   0  0  0  0  0  0  0  0  0  0  0  0
  -23.5230  -14.1310   20.8560 C   0  0  0  0  0  0  0  0  0  0  0  0
  -22.7620  -13.4930   21.7370 N   0  0  0  0  0  0  0  0  0  0  0  0
  -23.1240  -15.1440   20.2840 O   0  0  0  0  0  0  0  0  0  0  0  0
  -23.0990  -12.6730   22.2180 H   0  0  0  0  0  0  0  0  0  0  0  0
  -21.8280  -13.8270   21.9310 H   0  0  0  0  0  0  0  0  0  0  0  0
  -26.2300  -15.6860   20.0680 N   0  0  0  0  0  0  0  0  0  0  0  0
  -25.4990  -16.3800   20.1770 H   0  0  0  0  0  0  0  0  0  0  0  0
  -27.1300  -16.0870   19.8400 H   0  0  0  0  0  0  0  0  0  0  0  0
  -27.8770  -24.0760   20.4560 C   0  0  0  0  0  2  0  0  0  0  0  0
  -27.9190  -25.6440   20.4020 C   0  0  0  0  0  2  0  0  0  0  0  0
  -27.4680  -26.2420   19.1630 O   0  0  0  0  0  0  0  0  0  0  0  0
  -24.6500  -31.5660   22.9760 C   0  0  0  0  0  0  0  0  0  0  0  0
  -26.4250  -27.1280   19.3220 C   0  0  0  0  0  0  0  0  0  0  0  0
  -23.1110  -30.4000   21.4270 C   0  0  0  0  0  3  0  0  0  0  0  0
  -24.2150  -28.8450   19.7260 C   0  0  0  0  0  0  0  0  0  0  0  0
  -25.6130  -30.5460   20.9130 C   0  0  0  0  0  2  0  0  0  0  0  0
  -25.4840  -29.2200   20.1880 C   0  0  0  0  0  0  0  0  0  0  0  0
  -26.5950  -28.3680   19.9810 C   0  0  0  0  0  3  0  0  0  0  0  0
  -25.1470  -26.7740   18.8490 C   0  0  0  0  0  3  0  0  0  0  0  0
  -24.0410  -27.6230   19.0520 C   0  0  0  0  0  3  0  0  0  0  0  0
  -23.0750  -29.8040   19.9930 C   0  0  0  0  0  2  0  0  0  0  0  0
  -24.4850  -30.8460   21.8290 N   0  0  0  0  0  0  0  0  0  0  0  0
  -23.6800  -31.8940   23.6730 O   0  0  0  0  0  0  0  0  0  0  0  0
  -22.4930  -29.3740   22.4050 C   0  0  0  0  0  0  0  0  0  0  0  0
  -21.1570  -29.2450   22.3710 N   0  0  0  0  0  0  0  0  0  0  0  0
  -23.2090  -28.7020   23.1530 O   0  0  0  0  0  0  0  0  0  0  0  0
  -20.6410  -29.8410   21.7380 H   0  0  0  0  0  0  0  0  0  0  0  0
  -17.7990  -28.0450   22.9620 C   0  0  0  0  0  0  0  0  0  0  0  0
  -20.3610  -28.3130   23.1720 C   0  0  0  0  0  3  0  0  0  0  0  0
  -20.4540  -26.8750   22.6100 C   0  0  0  0  0  2  0  0  0  0  0  0
  -19.3300  -26.5380   21.6260 C   0  0  0  0  0  2  0  0  0  0  0  0
  -17.9630  -26.6870   22.3000 C   0  0  0  0  0  2  0  0  0  0  0  0
  -18.9250  -28.8150   23.3570 C   0  0  0  0  0  0  0  0  0  0  0  0
  -18.7150  -30.0850   23.9370 C   0  0  0  0  0  3  0  0  0  0  0  0
  -17.4130  -30.5850   24.1260 C   0  0  0  0  0  3  0  0  0  0  0  0
  -16.3030  -29.8120   23.7470 C   0  0  0  0  0  3  0  0  0  0  0  0
  -16.4960  -28.5440   23.1710 C   0  0  0  0  0  3  0  0  0  0  0  0
  -26.0620  -32.0320   23.4520 C   0  0  0  0  0  3  0  0  0  0  0  0
  -25.9140  -33.3770   24.0250 N   0  0  0  0  0  0  0  0  0  0  0  0
  -26.2740  -34.5100   23.4060 C   0  0  0  0  0  0  0  0  0  0  0  0
  -26.8380  -34.5240   22.3080 O   0  0  0  0  0  0  0  0  0  0  0  0
  -25.4120  -33.4450   24.8970 H   0  0  0  0  0  0  0  0  0  0  0  0
  -24.7140  -36.4790   23.4860 C   0  0  0  0  0  1  0  0  0  0  0  0
  -25.9580  -35.8400   24.1190 C   0  0  0  0  0  3  0  0  0  0  0  0
  -28.2190  -36.3820   24.9090 C   0  0  0  0  0  1  0  0  0  0  0  0
  -27.0820  -36.8020   24.0930 N   0  0  0  0  0  0  0  0  0  0  0  0
  -26.7800  -37.7170   24.4160 H   0  0  0  0  0  0  0  0  0  0  0  0
  -26.7220  -31.0510   24.4960 C   0  0  1  0  0  0  0  0  0  0  0  0
  -25.8040  -30.7030   25.6910 C   0  0  0  0  0  1  0  0  0  0  0  0
  -27.1290  -29.7230   23.8130 C   0  0  0  0  0  1  0  0  0  0  0  0
  -28.0200  -31.6760   25.0570 C   0  0  0  0  0  1  0  0  0  0  0  0
  -29.2600  -21.4800   23.0120 C   0  0  0  0  0  2  0  0  0  0  0  0
  -31.1500  -20.0340   23.8690 C   0  0  0  0  0  1  0  0  0  0  0  0
  -31.7540  -22.2060   22.7690 C   0  0  0  0  0  1  0  0  0  0  0  0
  -30.6560  -22.1770   25.0150 C   0  0  0  0  0  1  0  0  0  0  0  0
  -30.6960  -21.4900   23.6360 C   0  0  1  0  0  0  0  0  0  0  0  0
  1  3  2  0
  2  1  1  0
  2 92  1  0
  4  9  1  0
  4  2  1  0
  5  9  1  0
  7 10  1  0
  7  5  2  0
  8  6  1  0
  9  6  2  0
 10  8  2  0
 12 17  1  0
 13 14  1  0
 13 12  1  0
 15 14  1  0
 15 24  1  0
 15 16  1  0
 17 11  1  0
 17 16  1  0
 18 11  2  0
 19 20  1  0
 20 10  1  0
 20 11  1  0
 21 22  2  0
 22 23  1  0
 22 41  1  0
 23 26  1  0
 24 21  1  0
 24 25  1  0
 25 23  2  0
 26 27  1  0
 27 28  2  0
 29 32  1  0
 29 28  1  0
 30 29  2  0
 31 30  1  0
 31 26  2  0
 32 33  1  0
 33 38  2  0
 33 34  1  0
 34 35  2  0
 35 36  1  0
 36 40  1  0
 37 36  2  0
 38 37  1  0
 39 38  1  0
 41 42  1  0
 42 45  1  0
 42 44  1  0
 43 41  2  0
 46 47  1  0
 46 21  1  0
 48 46  1  0
 49  1  1  0
 50 49  1  0
 51 53  1  0
 51 50  1  0
 52 63  2  0
 53 58  1  0
 54 62  1  0
 54 64  1  0
 55 61  1  0
 55 57  1  0
 56 62  1  0
 57 56  1  0
 58 57  2  0
 59 60  1  0
 59 53  2  0
 60 55  2  0
 61 54  1  0
 62 52  1  0
 64 66  2  0
 65 64  1  0
 67 65  1  0
 68 77  2  0
 68 73  1  0
 69 65  1  0
 69 73  1  0
 70 69  1  0
 71 72  1  0
 71 70  1  0
 72 68  1  0
 73 74  2  0
 74 75  1  0
 76 75  2  0
 77 76  1  0
 78 52  1  0
 78 79  1  0
 78 88  1  0
 79 82  1  0
 80 79  1  0
 80 84  1  0
 81 80  2  0
 84 83  1  0
 86 84  1  0
 86 87  1  0
 86 85  1  0
 88 91  1  1
 88 89  1  0
 90 88  1  0
 92 96  1  0
 96 94  1  6
 96 93  1  0
 96 95  1  0
M  ISO  4  11 100  20 100  50 101  51 101
M  END
>  <TORSDO>  (16) 
F 22

>  <SCORE>  (16) 
-10.825

>  <name>  (16) 
15

>  <ligand_id>  (16) 
15

>  <original_smiles>  (16) 
[H]c1c([H])c([H])c2c(c1[H])C([H])([H])C([H])([H])C([H])([H])C2([H])N([H])C(=O)C1([H])N(C(=O)C([H])(N([H])C(=O)C([H])(N([H])C([H])([H])[H])C([H])([H])[H])C(C([H])([H])[H])(C([H])([H])[H])C([H])([H])[H])C([H])([H])c2c([H])c(OC([H])([H])C([H])([H])C(=O)N(C([H])([H])c3c([H])c([H])c(N(C(=O)N4C([H])([H])C([H])([H])C([H])([H])C([H])(n5nc(-c6c([H])c([H])c(Oc7c([H])c([H])c(F)c([H])c7F)c([H])c6[H])c(C(=O)N([H])[H])c5N([H])[H])C4([H])[H])C([H])([H])[H])c([H])c3[H])C([H])([H])C(C([H])([H])[H])(C([H])([H])[H])C([H])([H])[H])c([H])c([H])c2C1([H])[H]

>  <smiles>  (16) 
[H]c1c([H])c([H])c2c(c1[H])C([H])([H])C([H])([H])C([H])([H])C2([H])N([H])C(=O)C1([H])N(C(=O)C([H])(N([H])C(=O)C([H])(N([H])C([H])([H])[H])C([H])([H])[H])C(C([H])([H])[H])(C([H])([H])[H])C([H])([H])[H])C([H])([H])c2c([H])c(OC([H])([H])C([H])([H])C(=O)N(C([H])([H])c3c([H])c([H])c(N(C(=O)N4C([H])([H])C([H])([H])C([H])([H])C([H])(n5nc(-c6c([H])c([H])c(Oc7c([H])c([H])c(F)c([H])c7F)c([H])c6[H])c(C(=O)N([H])[H])c5N([H])[H])C4([H])[H])C([H])([H])[H])c([H])c3[H])C([H])([H])C(C([H])([H])[H])(C([H])([H])[H])C([H])([H])[H])c([H])c([H])c2C1([H])[H]

$$$$
16:0:0
     RDKit          3D

 93102  0  0  1  0  0  0  0  0999 V2000
  -29.0120  -22.5320   20.5600 C   0  0  0  0  0  0  0  0  0  0  0  0
  -27.2000  -23.2780   19.1960 C   0  0  0  0  0  2  0  0  0  0  0  0
  -27.3100  -21.7430   19.2490 C   0  0  0  0  0  2  0  0  0  0  0  0
  -28.4640  -23.8270   19.8510 C   0  0  0  0  0  3  0  0  0  0  0  0
  -28.4320  -21.3690   20.1230 N   0  0  0  0  0  0  0  0  0  0  0  0
  -29.8960  -22.5990   21.4180 O   0  0  0  0  0  0  0  0  0  0  0  0
  -30.0440  -19.4980   20.9100 C   0  0  0  0  0  3  0  0  0  0  0  0
  -30.4370  -18.1150   20.9580 C   0  0  0  0  0  3  0  0  0  0  0  0
  -28.3500  -17.5120   19.9560 C   0  0  0  0  0  3  0  0  0  0  0  0
  -28.8060  -19.9410   20.3390 C   0  0  0  0  0  0  0  0  0  0  0  0
  -29.6060  -17.0810   20.4450 C   0  0  0  0  0  0  0  0  0  0  0  0
  -27.9580  -18.8760   19.9020 C   0  0  0  0  0  0  0  0  0  0  0  0
  -26.7430  -19.1220   19.3600 F   0  0  0  0  0  0  0  0  0  0  0  0
  -30.7210  -14.7460   20.7780 C   0  0  0  0  0  0  0  0  0  0  0  0
  -30.6140  -12.4120   19.9340 C   0  0  0  0  0  2  0  0  0  0  0  0
  -29.7650  -12.3460   18.6440 C   0  0  0  0  0  2  0  0  0  0  0  0
  -28.2570  -12.2640   18.9610 C   0  0  0  0  0  2  0  0  0  0  0  0
  -27.7920  -13.2270   20.0900 C   0  0  0  0  0  3  0  0  0  0  0  0
  -28.7670  -13.2230   21.2850 C   0  0  0  0  0  2  0  0  0  0  0  0
  -30.1010  -13.5240   20.7560 N   0  0  0  0  0  0  0  0  0  0  0  0
  -31.9540  -14.8160   20.8070 O   0  0  0  0  0  0  0  0  0  0  0  0
  -30.3000  -15.6890   18.6160 C   0  0  0  0  0  1  0  0  0  0  0  0
  -30.0490  -15.7320   20.0690 N   0  0  0  0  0  0  0  0  0  0  0  0
  -25.3520  -13.8270   20.6250 C   0  0  0  0  0  0  0  0  0  0  0  0
  -24.2620  -13.0550   20.9280 C   0  0  0  0  0  0  0  0  0  0  0  0
  -24.7350  -11.7080   20.9750 C   0  0  0  0  0  0  0  0  0  0  0  0
  -26.4160  -12.9480   20.4970 N   0  0  0  0  0  0  0  0  0  0  0  0
  -26.0460  -11.6730   20.7770 N   0  0  0  0  0  0  0  0  0  0  0  0
  -24.0050  -10.4440   21.1380 C   0  0  0  0  0  0  0  0  0  0  0  0
  -24.3860   -9.4910   22.1080 C   0  0  0  0  0  3  0  0  0  0  0  0
  -23.6550   -8.2940   22.2610 C   0  0  0  0  0  3  0  0  0  0  0  0
  -22.5300   -8.0390   21.4420 C   0  0  0  0  0  0  0  0  0  0  0  0
  -22.1690   -8.9810   20.4610 C   0  0  0  0  0  3  0  0  0  0  0  0
  -22.9000  -10.1700   20.3080 C   0  0  0  0  0  3  0  0  0  0  0  0
  -21.7760   -6.8920   21.5010 O   0  0  0  0  0  0  0  0  0  0  0  0
  -21.6780   -6.1550   22.6540 C   0  0  0  0  0  0  0  0  0  0  0  0
  -21.2050   -6.7170   23.8590 C   0  0  0  0  0  3  0  0  0  0  0  0
  -21.0540   -5.9060   25.0020 C   0  0  0  0  0  3  0  0  0  0  0  0
  -21.3660   -4.5350   24.9400 C   0  0  0  0  0  0  0  0  0  0  0  0
  -21.8330   -3.9730   23.7380 C   0  0  0  0  0  3  0  0  0  0  0  0
  -21.9850   -4.7800   22.5980 C   0  0  0  0  0  0  0  0  0  0  0  0
  -22.4150   -4.2300   21.4370 F   0  0  0  0  0  0  0  0  0  0  0  0
  -21.2140   -3.7540   26.0350 F   0  0  0  0  0  0  0  0  0  0  0  0
  -22.8450  -13.5280   21.0700 C   0  0  0  0  0  0  0  0  0  0  0  0
  -22.0560  -12.8540   21.8990 N   0  0  0  0  0  0  0  0  0  0  0  0
  -22.4430  -14.5300   20.4810 O   0  0  0  0  0  0  0  0  0  0  0  0
  -22.3920  -12.0440   22.3990 H   0  0  0  0  0  0  0  0  0  0  0  0
  -21.1010  -13.1550   22.0400 H   0  0  0  0  0  0  0  0  0  0  0  0
  -25.5220  -15.1920   20.4290 N   0  0  0  0  0  0  0  0  0  0  0  0
  -24.7520  -15.8510   20.4760 H   0  0  0  0  0  0  0  0  0  0  0  0
  -26.4090  -15.6310   20.2260 H   0  0  0  0  0  0  0  0  0  0  0  0
  -28.2390  -25.1780   20.6750 C   0  0  0  0  0  2  0  0  0  0  0  0
  -28.3010  -26.4940   19.9970 O   0  0  0  0  0  0  0  0  0  0  0  0
  -24.6020  -31.8540   23.1140 C   0  0  0  0  0  0  0  0  0  0  0  0
  -27.1720  -27.3170   20.0210 C   0  0  0  0  0  0  0  0  0  0  0  0
  -23.3740  -30.4590   21.4870 C   0  0  0  0  0  3  0  0  0  0  0  0
  -24.8040  -28.9090   20.0410 C   0  0  0  0  0  0  0  0  0  0  0  0
  -25.9070  -30.7870   21.2630 C   0  0  0  0  0  2  0  0  0  0  0  0
  -25.9800  -29.4090   20.6170 C   0  0  0  0  0  0  0  0  0  0  0  0
  -27.1690  -28.6250   20.5930 C   0  0  0  0  0  3  0  0  0  0  0  0
  -25.9780  -26.8600   19.4290 C   0  0  0  0  0  3  0  0  0  0  0  0
  -24.8050  -27.6410   19.4360 C   0  0  0  0  0  3  0  0  0  0  0  0
  -23.5680  -29.7830   20.1030 C   0  0  0  0  0  2  0  0  0  0  0  0
  -24.6470  -31.0510   22.0120 N   0  0  0  0  0  0  0  0  0  0  0  0
  -23.5280  -32.1290   23.6670 O   0  0  0  0  0  0  0  0  0  0  0  0
  -22.7270  -29.4420   22.4550 C   0  0  0  0  0  0  0  0  0  0  0  0
  -21.3960  -29.2750   22.3540 N   0  0  0  0  0  0  0  0  0  0  0  0
  -23.4170  -28.8050   23.2550 O   0  0  0  0  0  0  0  0  0  0  0  0
  -20.8990  -29.8390   21.6800 H   0  0  0  0  0  0  0  0  0  0  0  0
  -18.0200  -28.1080   22.9200 C   0  0  0  0  0  0  0  0  0  0  0  0
  -20.5860  -28.3390   23.1350 C   0  0  0  0  0  3  0  0  0  0  0  0
  -20.6600  -26.9120   22.5460 C   0  0  0  0  0  2  0  0  0  0  0  0
  -19.5330  -26.6100   21.5540 C   0  0  0  0  0  2  0  0  0  0  0  0
  -18.1670  -26.7630   22.2290 C   0  0  0  0  0  2  0  0  0  0  0  0
  -19.1560  -28.8550   23.3310 C   0  0  0  0  0  0  0  0  0  0  0  0
  -18.9620  -30.1150   23.9380 C   0  0  0  0  0  3  0  0  0  0  0  0
  -17.6670  -30.6280   24.1370 C   0  0  0  0  0  3  0  0  0  0  0  0
  -16.5460  -29.8770   23.7420 C   0  0  0  0  0  3  0  0  0  0  0  0
  -16.7230  -28.6200   23.1390 C   0  0  0  0  0  3  0  0  0  0  0  0
  -25.8950  -32.4830   23.7210 C   0  0  0  0  0  3  0  0  0  0  0  0
  -25.5810  -33.8700   24.0940 N   0  0  0  0  0  0  0  0  0  0  0  0
  -25.8980  -34.9450   23.3610 C   0  0  0  0  0  0  0  0  0  0  0  0
  -26.5570  -34.8750   22.3190 O   0  0  0  0  0  0  0  0  0  0  0  0
  -24.9970  -33.9980   24.9080 H   0  0  0  0  0  0  0  0  0  0  0  0
  -24.1650  -36.7440   23.0680 C   0  0  0  0  0  1  0  0  0  0  0  0
  -25.4090  -36.3170   23.8640 C   0  0  0  0  0  3  0  0  0  0  0  0
  -27.5440  -37.1800   24.7150 C   0  0  0  0  0  1  0  0  0  0  0  0
  -26.4390  -37.3770   23.7810 N   0  0  0  0  0  0  0  0  0  0  0  0
  -26.0300  -38.2890   23.9620 H   0  0  0  0  0  0  0  0  0  0  0  0
  -26.4500  -31.6850   24.9640 C   0  0  1  0  0  0  0  0  0  0  0  0
  -25.3850  -31.4130   26.0540 C   0  0  0  0  0  1  0  0  0  0  0  0
  -27.0300  -30.3210   24.5230 C   0  0  0  0  0  1  0  0  0  0  0  0
  -27.6110  -32.4720   25.6150 C   0  0  0  0  0  1  0  0  0  0  0  0
  1  6  2  0
  2  3  1  0
  2  4  1  0
  3  5  1  0
  4  1  1  0
  4 52  1  0
  5 10  1  0
  5  1  1  0
  7  8  1  0
  9 11  1  0
 10  7  2  0
 11  8  2  0
 12  9  2  0
 12 10  1  0
 13 12  1  0
 14 21  2  0
 15 20  1  0
 16 17  1  0
 16 15  1  0
 18 17  1  0
 18 27  1  0
 18 19  1  0
 20 14  1  0
 20 19  1  0
 22 23  1  0
 23 11  1  0
 23 14  1  0
 24 25  2  0
 25 26  1  0
 25 44  1  0
 26 29  1  0
 27 24  1  0
 27 28  1  0
 28 26  2  0
 29 30  1  0
 30 31  2  0
 32 35  1  0
 32 31  1  0
 33 32  2  0
 34 33  1  0
 34 29  2  0
 35 36  1  0
 36 37  1  0
 37 38  2  0
 39 38  1  0
 39 43  1  0
 40 39  2  0
 41 36  2  0
 41 40  1  0
 42 41  1  0
 44 45  1  0
 45 48  1  0
 45 47  1  0
 46 44  2  0
 49 50  1  0
 49 24  1  0
 51 49  1  0
 53 55  1  0
 53 52  1  0
 54 65  2  0
 55 60  1  0
 56 64  1  0
 56 66  1  0
 57 63  1  0
 57 59  1  0
 58 64  1  0
 59 58  1  0
 60 59  2  0
 61 62  1  0
 61 55  2  0
 62 57  2  0
 63 56  1  0
 64 54  1  0
 66 68  2  0
 67 66  1  0
 69 67  1  0
 70 79  2  0
 70 75  1  0
 71 67  1  0
 71 75  1  0
 72 71  1  0
 73 74  1  0
 73 72  1  0
 74 70  1  0
 75 76  2  0
 76 77  1  0
 78 77  2  0
 79 78  1  0
 80 54  1  0
 80 81  1  0
 80 90  1  0
 81 84  1  0
 82 86  1  0
 82 81  1  0
 83 82  2  0
 86 85  1  0
 88 86  1  0
 88 89  1  0
 88 87  1  0
 90 93  1  1
 90 91  1  0
 92 90  1  0
M  ISO  4  14 100  23 100  52 101  53 101
M  END
>  <TORSDO>  (17) 
F 18

>  <SCORE>  (17) 
-14.645

>  <name>  (17) 
16

>  <ligand_id>  (17) 
16

>  <original_smiles>  (17) 
[H]c1c([H])c([H])c2c(c1[H])C([H])([H])C([H])([H])C([H])([H])C2([H])N([H])C(=O)C1([H])N(C(=O)C([H])(N([H])C(=O)C([H])(N([H])C([H])([H])[H])C([H])([H])[H])C(C([H])([H])[H])(C([H])([H])[H])C([H])([H])[H])C([H])([H])c2c([H])c(OC([H])([H])C3([H])C(=O)N(c4c([H])c([H])c(N(C(=O)N5C([H])([H])C([H])([H])C([H])([H])C([H])(n6nc(-c7c([H])c([H])c(Oc8c([H])c([H])c(F)c([H])c8F)c([H])c7[H])c(C(=O)N([H])[H])c6N([H])[H])C5([H])[H])C([H])([H])[H])c([H])c4F)C([H])([H])C3([H])[H])c([H])c([H])c2C1([H])[H]

>  <smiles>  (17) 
[H]c1c([H])c([H])c2c(c1[H])C([H])([H])C([H])([H])C([H])([H])C2([H])N([H])C(=O)C1([H])N(C(=O)C([H])(N([H])C(=O)C([H])(N([H])C([H])([H])[H])C([H])([H])[H])C(C([H])([H])[H])(C([H])([H])[H])C([H])([H])[H])C([H])([H])c2c([H])c(OC([H])([H])C3([H])C(=O)N(c4c([H])c([H])c(N(C(=O)N5C([H])([H])C([H])([H])C([H])([H])C([H])(n6nc(-c7c([H])c([H])c(Oc8c([H])c([H])c(F)c([H])c8F)c([H])c7[H])c(C(=O)N([H])[H])c6N([H])[H])C5([H])[H])C([H])([H])[H])c([H])c4F)C([H])([H])C3([H])[H])c([H])c([H])c2C1([H])[H]

$$$$
17:0:0
     RDKit          3D

 93101  0  0  1  0  0  0  0  0999 V2000
  -31.3670  -22.4940   21.5290 C   0  0  0  0  0  1  0  0  0  0  0  0
  -30.4270  -22.4150   20.3850 N   0  0  1  0  0  4  0  0  0  0  0  0
  -30.9990  -22.1160   19.6100 H   0  0  0  0  0  0  0  0  0  0  0  0
  -29.4180  -21.3180   20.5070 C   0  0  0  0  0  2  0  0  0  0  0  0
  -30.6600  -19.4900   19.1520 C   0  0  0  0  0  3  0  0  0  0  0  0
  -30.9580  -18.1310   18.9100 C   0  0  0  0  0  3  0  0  0  0  0  0
  -29.6650  -18.8680   21.2640 C   0  0  0  0  0  3  0  0  0  0  0  0
  -29.9580  -19.8770   20.3160 C   0  0  0  0  0  0  0  0  0  0  0  0
  -30.5190  -17.0950   19.7790 C   0  0  0  0  0  0  0  0  0  0  0  0
  -29.9260  -17.4950   21.0050 C   0  0  0  0  0  0  0  0  0  0  0  0
  -29.4070  -16.3350   22.1690 Cl  0  0  0  0  0  0  0  0  0  0  0  0
  -31.1980  -14.6880   19.7670 C   0  0  0  0  0  0  0  0  0  0  0  0
  -30.9390  -12.3830   18.9170 C   0  0  0  0  0  2  0  0  0  0  0  0
  -29.9560  -12.3510   17.7250 C   0  0  0  0  0  2  0  0  0  0  0  0
  -28.4780  -12.3490   18.1860 C   0  0  0  0  0  2  0  0  0  0  0  0
  -28.1600  -13.2840   19.3910 C   0  0  0  0  0  3  0  0  0  0  0  0
  -29.2630  -13.2020   20.4650 C   0  0  0  0  0  2  0  0  0  0  0  0
  -30.5430  -13.4890   19.8040 N   0  0  0  0  0  0  0  0  0  0  0  0
  -32.4180  -14.7510   19.6070 O   0  0  0  0  0  0  0  0  0  0  0  0
  -30.2360  -15.6820   17.8180 C   0  0  0  0  0  1  0  0  0  0  0  0
  -30.4530  -15.7340   19.2820 N   0  0  0  0  0  0  0  0  0  0  0  0
  -25.8110  -13.9460   20.1990 C   0  0  0  0  0  0  0  0  0  0  0  0
  -24.7400  -13.1970   20.6010 C   0  0  0  0  0  0  0  0  0  0  0  0
  -25.1710  -11.8350   20.5550 C   0  0  0  0  0  0  0  0  0  0  0  0
  -26.8280  -13.0400   19.9340 N   0  0  0  0  0  0  0  0  0  0  0  0
  -26.4490  -11.7670   20.2090 N   0  0  0  0  0  0  0  0  0  0  0  0
  -24.4260  -10.5890   20.7650 C   0  0  0  0  0  0  0  0  0  0  0  0
  -24.8030   -9.6660   21.7650 C   0  0  0  0  0  3  0  0  0  0  0  0
  -24.0620   -8.4810   21.9610 C   0  0  0  0  0  3  0  0  0  0  0  0
  -22.9290   -8.2120   21.1570 C   0  0  0  0  0  0  0  0  0  0  0  0
  -22.5720   -9.1240   20.1460 C   0  0  0  0  0  3  0  0  0  0  0  0
  -23.3150  -10.3000   19.9490 C   0  0  0  0  0  3  0  0  0  0  0  0
  -22.1640   -7.0770   21.2610 O   0  0  0  0  0  0  0  0  0  0  0  0
  -21.9520   -6.4580   22.4680 C   0  0  0  0  0  0  0  0  0  0  0  0
  -21.3580   -7.1320   23.5560 C   0  0  0  0  0  3  0  0  0  0  0  0
  -21.0940   -6.4390   24.7550 C   0  0  0  0  0  3  0  0  0  0  0  0
  -21.4140   -5.0720   24.8640 C   0  0  0  0  0  0  0  0  0  0  0  0
  -21.9990   -4.3980   23.7780 C   0  0  0  0  0  3  0  0  0  0  0  0
  -22.2650   -5.0890   22.5830 C   0  0  0  0  0  0  0  0  0  0  0  0
  -22.8110   -4.4280   21.5340 F   0  0  0  0  0  0  0  0  0  0  0  0
  -21.1540   -4.4050   26.0120 F   0  0  0  0  0  0  0  0  0  0  0  0
  -23.3620  -13.7030   20.9160 C   0  0  0  0  0  0  0  0  0  0  0  0
  -22.6500  -13.0320   21.8150 N   0  0  0  0  0  0  0  0  0  0  0  0
  -22.9240  -14.7290   20.3960 O   0  0  0  0  0  0  0  0  0  0  0  0
  -23.0150  -12.2040   22.2640 H   0  0  0  0  0  0  0  0  0  0  0  0
  -21.7250  -13.3540   22.0600 H   0  0  0  0  0  0  0  0  0  0  0  0
  -25.9930  -15.3130   20.0140 N   0  0  0  0  0  0  0  0  0  0  0  0
  -25.2530  -15.9850   20.1830 H   0  0  0  0  0  0  0  0  0  0  0  0
  -26.8650  -15.7440   19.7350 H   0  0  0  0  0  0  0  0  0  0  0  0
  -29.9180  -23.7590   19.9380 C   0  0  0  0  0  2  0  0  0  0  0  0
  -28.9170  -24.4930   20.8830 C   0  0  0  0  0  2  0  0  0  0  0  0
  -29.0490  -26.0470   20.9510 C   0  0  0  0  0  2  0  0  0  0  0  0
  -28.6310  -26.7390   19.7670 O   0  0  0  0  0  0  0  0  0  0  0  0
  -24.5150  -31.6140   23.0500 C   0  0  0  0  0  0  0  0  0  0  0  0
  -27.4450  -27.4380   19.8450 C   0  0  0  0  0  0  0  0  0  0  0  0
  -23.4170  -30.2300   21.3190 C   0  0  0  0  0  3  0  0  0  0  0  0
  -24.9800  -28.8250   19.8680 C   0  0  0  0  0  0  0  0  0  0  0  0
  -25.9280  -30.7130   21.2040 C   0  0  0  0  0  2  0  0  0  0  0  0
  -26.0960  -29.3740   20.5130 C   0  0  0  0  0  0  0  0  0  0  0  0
  -27.3330  -28.6860   20.5060 C   0  0  0  0  0  3  0  0  0  0  0  0
  -26.3160  -26.9070   19.1920 C   0  0  0  0  0  3  0  0  0  0  0  0
  -25.0820  -27.5870   19.2080 C   0  0  0  0  0  3  0  0  0  0  0  0
  -23.6940  -29.6220   19.9170 C   0  0  0  0  0  2  0  0  0  0  0  0
  -24.6360  -30.8660   21.9160 N   0  0  0  0  0  0  0  0  0  0  0  0
  -23.4090  -31.8100   23.5740 O   0  0  0  0  0  0  0  0  0  0  0  0
  -22.7960  -29.1360   22.2180 C   0  0  0  0  0  0  0  0  0  0  0  0
  -21.4810  -28.9090   22.0620 N   0  0  0  0  0  0  0  0  0  0  0  0
  -23.4940  -28.4970   23.0090 O   0  0  0  0  0  0  0  0  0  0  0  0
  -20.9770  -29.4820   21.4000 H   0  0  0  0  0  0  0  0  0  0  0  0
  -18.1440  -27.5830   22.4770 C   0  0  0  0  0  0  0  0  0  0  0  0
  -20.6930  -27.9020   22.7710 C   0  0  0  0  0  3  0  0  0  0  0  0
  -20.8380  -26.5110   22.1100 C   0  0  0  0  0  2  0  0  0  0  0  0
  -19.7490  -26.2170   21.0740 C   0  0  0  0  0  2  0  0  0  0  0  0
  -18.3630  -26.2820   21.7220 C   0  0  0  0  0  2  0  0  0  0  0  0
  -19.2380  -28.3510   22.9550 C   0  0  0  0  0  0  0  0  0  0  0  0
  -18.9810  -29.5690   23.6200 C   0  0  0  0  0  3  0  0  0  0  0  0
  -17.6620  -30.0220   23.8100 C   0  0  0  0  0  3  0  0  0  0  0  0
  -16.5820  -29.2490   23.3480 C   0  0  0  0  0  3  0  0  0  0  0  0
  -16.8230  -28.0310   22.6870 C   0  0  0  0  0  3  0  0  0  0  0  0
  -25.7550  -32.2770   23.7280 C   0  0  0  0  0  3  0  0  0  0  0  0
  -25.3780  -33.6490   24.0950 N   0  0  0  0  0  0  0  0  0  0  0  0
  -25.6830  -34.7370   23.3770 C   0  0  0  0  0  0  0  0  0  0  0  0
  -26.3840  -34.6950   22.3620 O   0  0  0  0  0  0  0  0  0  0  0  0
  -24.7560  -33.7530   24.8830 H   0  0  0  0  0  0  0  0  0  0  0  0
  -23.8880  -36.4640   23.0280 C   0  0  0  0  0  1  0  0  0  0  0  0
  -25.1240  -36.0890   23.8630 C   0  0  0  0  0  3  0  0  0  0  0  0
  -27.1920  -37.0400   24.7850 C   0  0  0  0  0  1  0  0  0  0  0  0
  -26.1130  -37.1880   23.8110 N   0  0  0  0  0  0  0  0  0  0  0  0
  -25.6620  -38.0850   23.9690 H   0  0  0  0  0  0  0  0  0  0  0  0
  -26.2730  -31.4830   24.9920 C   0  0  1  0  0  0  0  0  0  0  0  0
  -25.1640  -31.1600   26.0200 C   0  0  0  0  0  1  0  0  0  0  0  0
  -26.9280  -30.1480   24.5680 C   0  0  0  0  0  1  0  0  0  0  0  0
  -27.3690  -32.3030   25.7120 C   0  0  0  0  0  1  0  0  0  0  0  0
  2  4  1  0
  2  1  1  0
  2  3  1  6
  5  8  1  0
  6  5  2  0
  6  9  1  0
  8  4  1  0
  8  7  2  0
  9 10  2  0
 10  7  1  0
 10 11  1  0
 12 18  1  0
 13 18  1  0
 14 15  1  0
 14 13  1  0
 16 15  1  0
 16 25  1  0
 16 17  1  0
 18 17  1  0
 19 12  2  0
 20 21  1  0
 21 12  1  0
 21  9  1  0
 22 23  2  0
 23 42  1  0
 24 23  1  0
 24 27  1  0
 25 22  1  0
 25 26  1  0
 26 24  2  0
 27 28  1  0
 28 29  2  0
 30 33  1  0
 30 29  1  0
 31 30  2  0
 32 31  1  0
 32 27  2  0
 33 34  1  0
 34 39  2  0
 34 35  1  0
 35 36  2  0
 36 37  1  0
 37 41  1  0
 38 37  2  0
 39 38  1  0
 40 39  1  0
 42 43  1  0
 43 46  1  0
 43 45  1  0
 44 42  2  0
 47 48  1  0
 47 22  1  0
 49 47  1  0
 50  2  1  0
 50 51  1  0
 51 52  1  0
 53 55  1  0
 53 52  1  0
 54 65  2  0
 55 60  1  0
 56 64  1  0
 56 66  1  0
 57 63  1  0
 57 59  1  0
 58 64  1  0
 59 58  1  0
 60 59  2  0
 61 62  1  0
 61 55  2  0
 62 57  2  0
 63 56  1  0
 64 54  1  0
 66 68  2  0
 67 66  1  0
 69 67  1  0
 70 79  2  0
 70 75  1  0
 71 67  1  0
 71 75  1  0
 72 71  1  0
 73 74  1  0
 73 72  1  0
 74 70  1  0
 75 76  2  0
 76 77  1  0
 78 77  2  0
 79 78  1  0
 80 54  1  0
 80 81  1  0
 80 90  1  0
 81 84  1  0
 82 86  1  0
 82 81  1  0
 83 82  2  0
 86 85  1  0
 88 86  1  0
 88 89  1  0
 88 87  1  0
 90 93  1  1
 90 91  1  0
 92 90  1  0
M  ISO  4  12 100  21 100  52 101  53 101
M  END
>  <TORSDO>  (18) 
F 21

>  <SCORE>  (18) 
-10.514

>  <name>  (18) 
17

>  <ligand_id>  (18) 
17

>  <original_smiles>  (18) 
[H]c1c([H])c([H])c2c(c1[H])C([H])([H])C([H])([H])C([H])([H])C2([H])N([H])C(=O)C1([H])N(C(=O)C([H])(N([H])C(=O)C([H])(N([H])C([H])([H])[H])C([H])([H])[H])C(C([H])([H])[H])(C([H])([H])[H])C([H])([H])[H])C([H])([H])c2c([H])c(OC([H])([H])C([H])([H])C([H])([H])[N+]([H])(C([H])([H])[H])C([H])([H])c3c([H])c([H])c(N(C(=O)N4C([H])([H])C([H])([H])C([H])([H])C([H])(n5nc(-c6c([H])c([H])c(Oc7c([H])c([H])c(F)c([H])c7F)c([H])c6[H])c(C(=O)N([H])[H])c5N([H])[H])C4([H])[H])C([H])([H])[H])c(Cl)c3[H])c([H])c([H])c2C1([H])[H]

>  <smiles>  (18) 
[H]c1c([H])c([H])c2c(c1[H])C([H])([H])C([H])([H])C([H])([H])C2([H])N([H])C(=O)C1([H])N(C(=O)C([H])(N([H])C(=O)C([H])(N([H])C([H])([H])[H])C([H])([H])[H])C(C([H])([H])[H])(C([H])([H])[H])C([H])([H])[H])C([H])([H])c2c([H])c(OC([H])([H])C([H])([H])C([H])([H])[N+]([H])(C([H])([H])[H])C([H])([H])c3c([H])c([H])c(N(C(=O)N4C([H])([H])C([H])([H])C([H])([H])C([H])(n5nc(-c6c([H])c([H])c(Oc7c([H])c([H])c(F)c([H])c7F)c([H])c6[H])c(C(=O)N([H])[H])c5N([H])[H])C4([H])[H])C([H])([H])[H])c(Cl)c3[H])c([H])c([H])c2C1([H])[H]

$$$$
18:0:0
     RDKit          3D

 93101  0  0  1  0  0  0  0  0999 V2000
  -28.7650  -22.0010   20.8560 N   0  0  0  0  0  0  0  0  0  0  0  0
  -30.5390  -18.8310   19.7820 C   0  0  0  0  0  3  0  0  0  0  0  0
  -28.3530  -18.2700   20.6600 C   0  0  0  0  0  3  0  0  0  0  0  0
  -30.2800  -20.2040   20.0210 C   0  0  0  0  0  3  0  0  0  0  0  0
  -28.0980  -19.6380   20.9000 C   0  0  0  0  0  3  0  0  0  0  0  0
  -29.5740  -17.8470   20.0950 C   0  0  0  0  0  0  0  0  0  0  0  0
  -29.0510  -20.6350   20.5810 C   0  0  0  0  0  0  0  0  0  0  0  0
  -29.7810  -16.3610   19.7480 C   0  0  0  0  0  2  0  0  0  0  0  0
  -31.4400  -14.5310   19.6980 C   0  0  0  0  0  0  0  0  0  0  0  0
  -31.0090  -12.2490   18.8330 C   0  0  0  0  0  2  0  0  0  0  0  0
  -30.0130  -12.2930   17.6580 C   0  0  0  0  0  2  0  0  0  0  0  0
  -28.5600  -12.2470   18.1690 C   0  0  0  0  0  2  0  0  0  0  0  0
  -28.3000  -13.2680   19.3060 C   0  0  0  0  0  3  0  0  0  0  0  0
  -29.4030  -13.1890   20.3880 C   0  0  0  0  0  2  0  0  0  0  0  0
  -30.7020  -13.3820   19.7250 N   0  0  0  0  0  0  0  0  0  0  0  0
  -32.5480  -14.5810   19.1520 O   0  0  0  0  0  0  0  0  0  0  0  0
  -31.8040  -16.4000   21.2130 C   0  0  0  0  0  1  0  0  0  0  0  0
  -30.9330  -15.6260   20.3250 N   0  0  0  0  0  0  0  0  0  0  0  0
  -26.0260  -14.0920   20.1830 C   0  0  0  0  0  0  0  0  0  0  0  0
  -24.9190  -13.4180   20.6210 C   0  0  0  0  0  0  0  0  0  0  0  0
  -25.2490  -12.0300   20.5500 C   0  0  0  0  0  0  0  0  0  0  0  0
  -26.9660  -13.1190   19.8770 N   0  0  0  0  0  0  0  0  0  0  0  0
  -26.5060  -11.8740   20.1570 N   0  0  0  0  0  0  0  0  0  0  0  0
  -24.4240  -10.8390   20.7790 C   0  0  0  0  0  0  0  0  0  0  0  0
  -24.7900   -9.8600   21.7290 C   0  0  0  0  0  3  0  0  0  0  0  0
  -23.9710   -8.7300   21.9440 C   0  0  0  0  0  3  0  0  0  0  0  0
  -22.7730   -8.5730   21.2090 C   0  0  0  0  0  0  0  0  0  0  0  0
  -22.4250   -9.5380   20.2480 C   0  0  0  0  0  3  0  0  0  0  0  0
  -23.2430  -10.6600   20.0310 C   0  0  0  0  0  3  0  0  0  0  0  0
  -21.9280   -7.4960   21.3320 O   0  0  0  0  0  0  0  0  0  0  0  0
  -21.7860   -6.8270   22.5210 C   0  0  0  0  0  0  0  0  0  0  0  0
  -21.3700   -7.4830   23.7000 C   0  0  0  0  0  3  0  0  0  0  0  0
  -21.1690   -6.7430   24.8820 C   0  0  0  0  0  3  0  0  0  0  0  0
  -21.3730   -5.3510   24.8870 C   0  0  0  0  0  0  0  0  0  0  0  0
  -21.7810   -4.6960   23.7120 C   0  0  0  0  0  3  0  0  0  0  0  0
  -21.9840   -5.4310   22.5310 C   0  0  0  0  0  0  0  0  0  0  0  0
  -22.3570   -4.7930   21.3960 F   0  0  0  0  0  0  0  0  0  0  0  0
  -21.1720   -4.6390   26.0200 F   0  0  0  0  0  0  0  0  0  0  0  0
  -23.5930  -14.0190   20.9870 C   0  0  0  0  0  0  0  0  0  0  0  0
  -22.8730  -13.3960   21.9140 N   0  0  0  0  0  0  0  0  0  0  0  0
  -23.2090  -15.0750   20.4860 O   0  0  0  0  0  0  0  0  0  0  0  0
  -23.1970  -12.5420   22.3410 H   0  0  0  0  0  0  0  0  0  0  0  0
  -21.9840  -13.7810   22.2010 H   0  0  0  0  0  0  0  0  0  0  0  0
  -26.3000  -15.4430   19.9960 N   0  0  0  0  0  0  0  0  0  0  0  0
  -25.5910  -16.1530   20.1460 H   0  0  0  0  0  0  0  0  0  0  0  0
  -27.1340  -15.8090   19.5580 H   0  0  0  0  0  0  0  0  0  0  0  0
  -28.4590  -22.3010   22.2610 C   0  0  0  0  0  2  0  0  0  0  0  0
  -30.9220  -22.4480   23.0530 C   0  0  0  0  0  1  0  0  0  0  0  0
  -29.5330  -21.8260   23.2610 C   0  0  0  0  0  2  0  0  0  0  0  0
  -29.3180  -23.0550   19.9840 C   0  0  0  0  0  2  0  0  0  0  0  0
  -28.3950  -24.2860   19.7180 C   0  0  0  0  0  2  0  0  0  0  0  0
  -28.5040  -25.4820   20.7030 C   0  0  0  0  0  2  0  0  0  0  0  0
  -28.4900  -26.7790   20.0780 O   0  0  0  0  0  0  0  0  0  0  0  0
  -24.5970  -31.8780   23.1950 C   0  0  0  0  0  0  0  0  0  0  0  0
  -27.3040  -27.4810   20.1080 C   0  0  0  0  0  0  0  0  0  0  0  0
  -23.4170  -30.4840   21.5260 C   0  0  0  0  0  3  0  0  0  0  0  0
  -24.8970  -28.9650   20.1050 C   0  0  0  0  0  0  0  0  0  0  0  0
  -25.9410  -30.8630   21.3550 C   0  0  0  0  0  2  0  0  0  0  0  0
  -26.0440  -29.4970   20.7070 C   0  0  0  0  0  0  0  0  0  0  0  0
  -27.2530  -28.7630   20.7000 C   0  0  0  0  0  3  0  0  0  0  0  0
  -26.1410  -26.9580   19.5080 C   0  0  0  0  0  3  0  0  0  0  0  0
  -24.9400  -27.6940   19.5020 C   0  0  0  0  0  3  0  0  0  0  0  0
  -23.6450  -29.8150   20.1430 C   0  0  0  0  0  2  0  0  0  0  0  0
  -24.6690  -31.0900   22.0840 N   0  0  0  0  0  0  0  0  0  0  0  0
  -23.5090  -32.1380   23.7270 O   0  0  0  0  0  0  0  0  0  0  0  0
  -22.7630  -29.4520   22.4710 C   0  0  0  0  0  0  0  0  0  0  0  0
  -21.4450  -29.2460   22.3120 N   0  0  0  0  0  0  0  0  0  0  0  0
  -23.4380  -28.8370   23.3000 O   0  0  0  0  0  0  0  0  0  0  0  0
  -20.9620  -29.7940   21.6140 H   0  0  0  0  0  0  0  0  0  0  0  0
  -18.0840  -27.9840   22.7200 C   0  0  0  0  0  0  0  0  0  0  0  0
  -20.6280  -28.2910   23.0600 C   0  0  0  0  0  3  0  0  0  0  0  0
  -20.7740  -26.8640   22.4850 C   0  0  0  0  0  2  0  0  0  0  0  0
  -19.7070  -26.5200   21.4430 C   0  0  0  0  0  2  0  0  0  0  0  0
  -18.3050  -26.6380   22.0490 C   0  0  0  0  0  2  0  0  0  0  0  0
  -19.1750  -28.7670   23.1810 C   0  0  0  0  0  0  0  0  0  0  0  0
  -18.9180  -30.0260   23.7650 C   0  0  0  0  0  3  0  0  0  0  0  0
  -17.5990  -30.5030   23.8950 C   0  0  0  0  0  3  0  0  0  0  0  0
  -16.5210  -29.7170   23.4520 C   0  0  0  0  0  3  0  0  0  0  0  0
  -16.7650  -28.4590   22.8710 C   0  0  0  0  0  3  0  0  0  0  0  0
  -25.8730  -32.5110   23.8340 C   0  0  0  0  0  3  0  0  0  0  0  0
  -25.5530  -33.9040   24.1730 N   0  0  0  0  0  0  0  0  0  0  0  0
  -25.8940  -34.9650   23.4290 C   0  0  0  0  0  0  0  0  0  0  0  0
  -26.5820  -34.8740   22.4090 O   0  0  0  0  0  0  0  0  0  0  0  0
  -24.9440  -34.0480   24.9660 H   0  0  0  0  0  0  0  0  0  0  0  0
  -24.1690  -36.7570   23.0570 C   0  0  0  0  0  1  0  0  0  0  0  0
  -25.3920  -36.3470   23.8910 C   0  0  0  0  0  3  0  0  0  0  0  0
  -27.5060  -37.2270   24.7800 C   0  0  0  0  0  1  0  0  0  0  0  0
  -26.4250  -37.4040   23.8140 N   0  0  0  0  0  0  0  0  0  0  0  0
  -26.0120  -38.3210   23.9640 H   0  0  0  0  0  0  0  0  0  0  0  0
  -26.3840  -31.7300   25.1070 C   0  0  1  0  0  0  0  0  0  0  0  0
  -25.2800  -31.4630   26.1570 C   0  0  0  0  0  1  0  0  0  0  0  0
  -26.9910  -30.3660   24.7020 C   0  0  0  0  0  1  0  0  0  0  0  0
  -27.5140  -32.5310   25.7950 C   0  0  0  0  0  1  0  0  0  0  0  0
  1 47  1  0
  2  4  2  0
  2  6  1  0
  3  5  1  0
  4  7  1  0
  6  3  2  0
  7  1  1  0
  7  5  2  0
  8  6  1  0
  8 18  1  0
  9 15  1  0
  9 18  1  0
 10 15  1  0
 11 12  1  0
 11 10  1  0
 13 12  1  0
 13 22  1  0
 13 14  1  0
 15 14  1  0
 16  9  2  0
 18 17  1  0
 19 20  2  0
 20 39  1  0
 21 20  1  0
 21 24  1  0
 22 23  1  0
 22 19  1  0
 23 21  2  0
 24 25  1  0
 25 26  2  0
 27 30  1  0
 27 26  1  0
 28 27  2  0
 29 28  1  0
 29 24  2  0
 30 31  1  0
 31 36  2  0
 31 32  1  0
 32 33  2  0
 33 34  1  0
 34 38  1  0
 35 34  2  0
 36 35  1  0
 37 36  1  0
 39 40  1  0
 40 43  1  0
 40 42  1  0
 41 39  2  0
 44 45  1  0
 44 19  1  0
 46 44  1  0
 47 49  1  0
 48 49  1  0
 50  1  1  0
 51 50  1  0
 51 52  1  0
 53 55  1  0
 53 52  1  0
 54 65  2  0
 55 60  1  0
 56 64  1  0
 56 66  1  0
 57 63  1  0
 57 59  1  0
 58 64  1  0
 59 58  1  0
 60 59  2  0
 61 55  2  0
 62 61  1  0
 62 57  2  0
 63 56  1  0
 64 54  1  0
 66 68  2  0
 67 66  1  0
 69 67  1  0
 70 79  2  0
 70 75  1  0
 71 67  1  0
 71 75  1  0
 72 71  1  0
 73 74  1  0
 73 72  1  0
 74 70  1  0
 75 76  2  0
 76 77  1  0
 78 77  2  0
 79 78  1  0
 80 54  1  0
 80 81  1  0
 80 90  1  0
 81 84  1  0
 82 86  1  0
 82 81  1  0
 83 82  2  0
 86 85  1  0
 88 86  1  0
 88 89  1  0
 88 87  1  0
 90 93  1  1
 90 91  1  0
 92 90  1  0
M  ISO  4   9 100  18 100  52 101  53 101
M  END
>  <TORSDO>  (19) 
F 23

>  <SCORE>  (19) 
-11.525

>  <name>  (19) 
18

>  <ligand_id>  (19) 
18

>  <original_smiles>  (19) 
[H]c1c([H])c([H])c2c(c1[H])C([H])([H])C([H])([H])C([H])([H])C2([H])N([H])C(=O)C1([H])N(C(=O)C([H])(N([H])C(=O)C([H])(N([H])C([H])([H])[H])C([H])([H])[H])C(C([H])([H])[H])(C([H])([H])[H])C([H])([H])[H])C([H])([H])c2c([H])c(OC([H])([H])C([H])([H])C([H])([H])N(c3c([H])c([H])c(C([H])([H])N(C(=O)N4C([H])([H])C([H])([H])C([H])([H])C([H])(n5nc(-c6c([H])c([H])c(Oc7c([H])c([H])c(F)c([H])c7F)c([H])c6[H])c(C(=O)N([H])[H])c5N([H])[H])C4([H])[H])C([H])([H])[H])c([H])c3[H])C([H])([H])C([H])([H])C([H])([H])[H])c([H])c([H])c2C1([H])[H]

>  <smiles>  (19) 
[H]c1c([H])c([H])c2c(c1[H])C([H])([H])C([H])([H])C([H])([H])C2([H])N([H])C(=O)C1([H])N(C(=O)C([H])(N([H])C(=O)C([H])(N([H])C([H])([H])[H])C([H])([H])[H])C(C([H])([H])[H])(C([H])([H])[H])C([H])([H])[H])C([H])([H])c2c([H])c(OC([H])([H])C([H])([H])C([H])([H])N(c3c([H])c([H])c(C([H])([H])N(C(=O)N4C([H])([H])C([H])([H])C([H])([H])C([H])(n5nc(-c6c([H])c([H])c(Oc7c([H])c([H])c(F)c([H])c7F)c([H])c6[H])c(C(=O)N([H])[H])c5N([H])[H])C4([H])[H])C([H])([H])[H])c([H])c3[H])C([H])([H])C([H])([H])C([H])([H])[H])c([H])c([H])c2C1([H])[H]

$$$$
19:0:0
     RDKit          3D

 90 98  0  0  1  0  0  0  0  0999 V2000
  -28.1030  -22.0310   18.5070 C   0  0  0  0  0  1  0  0  0  0  0  0
  -28.9280  -22.1100   19.7120 N   0  0  0  0  0  0  0  0  0  0  0  0
  -30.7570  -18.6590   20.0920 C   0  0  0  0  0  3  0  0  0  0  0  0
  -28.4610  -18.3140   20.5170 C   0  0  0  0  0  3  0  0  0  0  0  0
  -30.5140  -20.0920   20.0190 C   0  0  0  0  0  3  0  0  0  0  0  0
  -28.2230  -19.7410   20.4470 C   0  0  0  0  0  3  0  0  0  0  0  0
  -29.7320  -17.6770   20.3090 C   0  0  0  0  0  0  0  0  0  0  0  0
  -29.2270  -20.7200   20.1480 C   0  0  0  0  0  0  0  0  0  0  0  0
  -30.6080  -15.0710   20.2790 C   0  0  0  0  0  0  0  0  0  0  0  0
  -30.5500  -12.6820   19.4250 C   0  0  0  0  0  2  0  0  0  0  0  0
  -29.6230  -12.5070   18.1970 C   0  0  0  0  0  2  0  0  0  0  0  0
  -28.1450  -12.3610   18.6160 C   0  0  0  0  0  2  0  0  0  0  0  0
  -27.7190  -13.3100   19.7680 C   0  0  0  0  0  3  0  0  0  0  0  0
  -28.7720  -13.3890   20.8900 C   0  0  0  0  0  2  0  0  0  0  0  0
  -30.0310  -13.8020   20.2550 N   0  0  0  0  0  0  0  0  0  0  0  0
  -31.8410  -15.1300   20.1840 O   0  0  0  0  0  0  0  0  0  0  0  0
  -29.3340  -16.1470   18.5200 C   0  0  0  0  0  1  0  0  0  0  0  0
  -29.8090  -16.2030   19.9130 N   0  0  0  0  0  0  0  0  0  0  0  0
  -25.3340  -13.8870   20.4940 C   0  0  0  0  0  0  0  0  0  0  0  0
  -24.2700  -13.1050   20.8530 C   0  0  0  0  0  0  0  0  0  0  0  0
  -24.7460  -11.7580   20.8310 C   0  0  0  0  0  0  0  0  0  0  0  0
  -26.3840  -13.0130   20.2690 N   0  0  0  0  0  0  0  0  0  0  0  0
  -26.0400  -11.7300   20.5390 N   0  0  0  0  0  0  0  0  0  0  0  0
  -24.0310  -10.4900   21.0120 C   0  0  0  0  0  0  0  0  0  0  0  0
  -24.4490   -9.5360   21.9670 C   0  0  0  0  0  3  0  0  0  0  0  0
  -23.7330   -8.3330   22.1360 C   0  0  0  0  0  3  0  0  0  0  0  0
  -22.5860   -8.0730   21.3520 C   0  0  0  0  0  0  0  0  0  0  0  0
  -22.1870   -9.0160   20.3870 C   0  0  0  0  0  3  0  0  0  0  0  0
  -22.9030  -10.2120   20.2150 C   0  0  0  0  0  3  0  0  0  0  0  0
  -21.8430   -6.9200   21.4300 O   0  0  0  0  0  0  0  0  0  0  0  0
  -21.7480   -6.2040   22.5960 C   0  0  0  0  0  0  0  0  0  0  0  0
  -21.2210   -6.7710   23.7770 C   0  0  0  0  0  3  0  0  0  0  0  0
  -21.0750   -5.9800   24.9340 C   0  0  0  0  0  3  0  0  0  0  0  0
  -21.4490   -4.6220   24.9100 C   0  0  0  0  0  0  0  0  0  0  0  0
  -21.9700   -4.0550   23.7340 C   0  0  0  0  0  3  0  0  0  0  0  0
  -22.1160   -4.8430   22.5790 C   0  0  0  0  0  0  0  0  0  0  0  0
  -22.5980   -4.2880   21.4420 F   0  0  0  0  0  0  0  0  0  0  0  0
  -21.3030   -3.8580   26.0180 F   0  0  0  0  0  0  0  0  0  0  0  0
  -22.8650  -13.5710   21.1040 C   0  0  0  0  0  0  0  0  0  0  0  0
  -22.1320  -12.8670   21.9580 N   0  0  0  0  0  0  0  0  0  0  0  0
  -22.4280  -14.5940   20.5790 O   0  0  0  0  0  0  0  0  0  0  0  0
  -22.4990  -12.0390   22.4030 H   0  0  0  0  0  0  0  0  0  0  0  0
  -21.1890  -13.1620   22.1710 H   0  0  0  0  0  0  0  0  0  0  0  0
  -25.4880  -15.2590   20.3130 N   0  0  0  0  0  0  0  0  0  0  0  0
  -24.7150  -15.9080   20.4050 H   0  0  0  0  0  0  0  0  0  0  0  0
  -26.3440  -15.6960   19.9970 H   0  0  0  0  0  0  0  0  0  0  0  0
  -29.9590  -23.6480   21.4040 C   0  0  0  0  0  1  0  0  0  0  0  0
  -28.7430  -23.4400   20.4980 C   0  0  0  0  0  3  0  0  0  0  0  0
  -28.3940  -24.8700   19.6800 C   0  0  0  0  0  2  0  0  0  0  0  0
  -28.3390  -26.3210   20.2240 O   0  0  0  0  0  0  0  0  0  0  0  0
  -24.5880  -31.8880   23.1770 C   0  0  0  0  0  0  0  0  0  0  0  0
  -27.2440  -27.2490   20.1160 C   0  0  0  0  0  0  0  0  0  0  0  0
  -23.4150  -30.4990   21.5140 C   0  0  0  0  0  3  0  0  0  0  0  0
  -24.8890  -28.9550   20.0850 C   0  0  0  0  0  0  0  0  0  0  0  0
  -25.9660  -30.7920   21.3740 C   0  0  0  0  0  2  0  0  0  0  0  0
  -26.0550  -29.4100   20.7100 C   0  0  0  0  0  0  0  0  0  0  0  0
  -27.2290  -28.5710   20.7140 C   0  0  0  0  0  3  0  0  0  0  0  0
  -26.0460  -26.8900   19.4520 C   0  0  0  0  0  3  0  0  0  0  0  0
  -24.8960  -27.7070   19.4450 C   0  0  0  0  0  3  0  0  0  0  0  0
  -23.6520  -29.8370   20.1300 C   0  0  0  0  0  2  0  0  0  0  0  0
  -24.6760  -31.0810   22.0770 N   0  0  0  0  0  0  0  0  0  0  0  0
  -23.4950  -32.1580   23.6980 O   0  0  0  0  0  0  0  0  0  0  0  0
  -22.7390  -29.4750   22.4590 C   0  0  0  0  0  0  0  0  0  0  0  0
  -21.4110  -29.3010   22.3220 N   0  0  0  0  0  0  0  0  0  0  0  0
  -23.4090  -28.8410   23.2770 O   0  0  0  0  0  0  0  0  0  0  0  0
  -20.9280  -29.8660   21.6370 H   0  0  0  0  0  0  0  0  0  0  0  0
  -18.0290  -28.1040   22.8080 C   0  0  0  0  0  0  0  0  0  0  0  0
  -20.5880  -28.3540   23.0770 C   0  0  0  0  0  3  0  0  0  0  0  0
  -20.6850  -26.9330   22.4750 C   0  0  0  0  0  2  0  0  0  0  0  0
  -19.5810  -26.6320   21.4570 C   0  0  0  0  0  2  0  0  0  0  0  0
  -18.2010  -26.7680   22.1060 C   0  0  0  0  0  2  0  0  0  0  0  0
  -19.1500  -28.8560   23.2510 C   0  0  0  0  0  0  0  0  0  0  0  0
  -18.9350  -30.1070   23.8690 C   0  0  0  0  0  3  0  0  0  0  0  0
  -17.6310  -30.6070   24.0480 C   0  0  0  0  0  3  0  0  0  0  0  0
  -16.5250  -29.8530   23.6200 C   0  0  0  0  0  3  0  0  0  0  0  0
  -16.7240  -28.6030   23.0070 C   0  0  0  0  0  3  0  0  0  0  0  0
  -25.8560  -32.5250   23.8240 C   0  0  0  0  0  3  0  0  0  0  0  0
  -26.3500  -31.7550   25.1110 C   0  0  1  0  0  0  0  0  0  0  0  0
  -25.2360  -31.5200   26.1580 C   0  0  0  0  0  1  0  0  0  0  0  0
  -26.9430  -30.3780   24.7370 C   0  0  0  0  0  1  0  0  0  0  0  0
  -27.4870  -32.5520   25.7920 C   0  0  0  0  0  1  0  0  0  0  0  0
  -25.5350  -33.9220   24.1520 N   0  0  0  0  0  0  0  0  0  0  0  0
  -25.8770  -34.9810   23.4060 C   0  0  0  0  0  0  0  0  0  0  0  0
  -26.5620  -34.8840   22.3850 O   0  0  0  0  0  0  0  0  0  0  0  0
  -24.9220  -34.0700   24.9400 H   0  0  0  0  0  0  0  0  0  0  0  0
  -24.1620  -36.7840   23.0250 C   0  0  0  0  0  1  0  0  0  0  0  0
  -25.3820  -36.3680   23.8630 C   0  0  0  0  0  3  0  0  0  0  0  0
  -27.4920  -37.2480   24.7590 C   0  0  0  0  0  1  0  0  0  0  0  0
  -26.4190  -37.4200   23.7830 N   0  0  0  0  0  0  0  0  0  0  0  0
  -26.0120  -38.3400   23.9180 H   0  0  0  0  0  0  0  0  0  0  0  0
  1  2  1  0
  2  8  1  0
  2 48  1  0
  3  7  1  0
  5  3  2  0
  5  8  1  0
  6  4  1  0
  7  4  2  0
  8  6  2  0
 10 15  1  0
 11 12  1  0
 11 10  1  0
 13 12  1  0
 13 22  1  0
 13 14  1  0
 15  9  1  0
 15 14  1  0
 16  9  2  0
 17 18  1  0
 18  9  1  0
 18  7  1  0
 19 20  2  0
 20 39  1  0
 21 20  1  0
 21 24  1  0
 22 19  1  0
 22 23  1  0
 23 21  2  0
 24 25  1  0
 25 26  2  0
 27 30  1  0
 27 26  1  0
 28 27  2  0
 29 28  1  0
 29 24  2  0
 30 31  1  0
 31 32  1  0
 32 33  2  0
 34 33  1  0
 34 38  1  0
 35 34  2  0
 36 31  2  0
 36 35  1  0
 37 36  1  0
 39 40  1  0
 40 43  1  0
 40 42  1  0
 41 39  2  0
 44 45  1  0
 44 19  1  0
 46 44  1  0
 48 47  1  0
 49 50  1  0
 49 48  1  0
 51 62  2  0
 52 50  1  0
 52 57  1  0
 53 61  1  0
 53 63  1  0
 54 60  1  0
 54 56  1  0
 55 61  1  0
 56 57  2  0
 56 55  1  0
 58 52  2  0
 59 58  1  0
 59 54  2  0
 60 53  1  0
 61 51  1  0
 63 65  2  0
 64 63  1  0
 66 64  1  0
 67 76  2  0
 67 72  1  0
 68 64  1  0
 68 72  1  0
 69 68  1  0
 70 71  1  0
 70 69  1  0
 71 67  1  0
 72 73  2  0
 73 74  1  0
 75 74  2  0
 76 75  1  0
 77 51  1  0
 77 82  1  0
 77 78  1  0
 78 81  1  1
 78 79  1  0
 80 78  1  0
 82 85  1  0
 83 87  1  0
 83 82  1  0
 84 83  2  0
 87 86  1  0
 89 87  1  0
 89 90  1  0
 89 88  1  0
M  ISO  4   9 100  18 100  49 101  50 101
M  END
>  <TORSDO>  (20) 
F 19

>  <SCORE>  (20) 
-13.901

>  <name>  (20) 
19

>  <ligand_id>  (20) 
19

>  <original_smiles>  (20) 
[H]c1c([H])c([H])c2c(c1[H])C([H])([H])C([H])([H])C([H])([H])C2([H])N([H])C(=O)C1([H])N(C(=O)C([H])(N([H])C(=O)C([H])(N([H])C([H])([H])[H])C([H])([H])[H])C(C([H])([H])[H])(C([H])([H])[H])C([H])([H])[H])C([H])([H])c2c([H])c(OC([H])([H])C([H])(N(c3c([H])c([H])c(N(C(=O)N4C([H])([H])C([H])([H])C([H])([H])C([H])(n5nc(-c6c([H])c([H])c(Oc7c([H])c([H])c(F)c([H])c7F)c([H])c6[H])c(C(=O)N([H])[H])c5N([H])[H])C4([H])[H])C([H])([H])[H])c([H])c3[H])C([H])([H])[H])C([H])([H])[H])c([H])c([H])c2C1([H])[H]

>  <smiles>  (20) 
[H]c1c([H])c([H])c2c(c1[H])C([H])([H])C([H])([H])C([H])([H])C2([H])N([H])C(=O)C1([H])N(C(=O)C([H])(N([H])C(=O)C([H])(N([H])C([H])([H])[H])C([H])([H])[H])C(C([H])([H])[H])(C([H])([H])[H])C([H])([H])[H])C([H])([H])c2c([H])c(OC([H])([H])C([H])(N(c3c([H])c([H])c(N(C(=O)N4C([H])([H])C([H])([H])C([H])([H])C([H])(n5nc(-c6c([H])c([H])c(Oc7c([H])c([H])c(F)c([H])c7F)c([H])c6[H])c(C(=O)N([H])[H])c5N([H])[H])C4([H])[H])C([H])([H])[H])c([H])c3[H])C([H])([H])[H])C([H])([H])[H])c([H])c([H])c2C1([H])[H]

$$$$
20:0:0
     RDKit          3D

 98106  0  0  1  0  0  0  0  0999 V2000
  -29.7750  -20.0840   20.9350 C   0  0  0  0  0  3  0  0  0  0  0  0
  -31.6660  -20.1790   19.4310 C   0  0  0  0  0  3  0  0  0  0  0  0
  -29.1810  -21.1810   20.2680 C   0  0  0  0  0  0  0  0  0  0  0  0
  -31.0010  -19.5240   20.5030 C   0  0  0  0  0  0  0  0  0  0  0  0
  -29.8060  -21.7450   19.1290 C   0  0  0  0  0  0  0  0  0  0  0  0
  -31.0790  -21.2660   18.7510 C   0  0  0  0  0  0  0  0  0  0  0  0
  -27.8580  -21.7040   20.7900 C   0  0  0  0  0  1  0  0  0  0  0  0
  -31.7230  -21.8040   17.6850 F   0  0  0  0  0  0  0  0  0  0  0  0
  -29.4050  -23.9160   18.0120 C   0  0  0  0  0  0  0  0  0  0  0  0
  -28.0890  -22.0050   17.3700 C   0  0  0  0  0  1  0  0  0  0  0  0
  -29.0980  -22.6180   18.2430 N   0  0  0  0  0  0  0  0  0  0  0  0
  -29.4900  -24.3690   16.8650 O   0  0  0  0  0  0  0  0  0  0  0  0
  -29.5170  -24.8990   19.1840 C   0  0  0  0  0  2  0  0  0  0  0  0
  -28.1690  -25.6530   19.2960 C   0  0  0  0  0  2  0  0  0  0  0  0
  -28.2220  -26.9380   19.9220 O   0  0  0  0  0  0  0  0  0  0  0  0
  -24.5830  -31.9880   23.3620 C   0  0  0  0  0  0  0  0  0  0  0  0
  -27.0360  -27.6520   19.9980 C   0  0  0  0  0  0  0  0  0  0  0  0
  -23.2790  -30.6640   21.7250 C   0  0  0  0  0  3  0  0  0  0  0  0
  -24.6490  -29.1830   20.1690 C   0  0  0  0  0  0  0  0  0  0  0  0
  -25.7860  -31.0240   21.4030 C   0  0  0  0  0  2  0  0  0  0  0  0
  -25.8360  -29.6680   20.7300 C   0  0  0  0  0  0  0  0  0  0  0  0
  -27.0270  -28.9040   20.6580 C   0  0  0  0  0  3  0  0  0  0  0  0
  -25.8200  -27.1880   19.4270 C   0  0  0  0  0  3  0  0  0  0  0  0
  -24.6380  -27.9460   19.5110 C   0  0  0  0  0  3  0  0  0  0  0  0
  -23.4130  -30.0440   20.3090 C   0  0  0  0  0  2  0  0  0  0  0  0
  -24.5730  -31.2340   22.2270 N   0  0  0  0  0  0  0  0  0  0  0  0
  -23.5330  -32.2460   23.9680 O   0  0  0  0  0  0  0  0  0  0  0  0
  -22.6690  -29.6050   22.6730 C   0  0  0  0  0  0  0  0  0  0  0  0
  -21.3590  -29.3640   22.5280 N   0  0  0  0  0  0  0  0  0  0  0  0
  -23.3730  -29.0070   23.4910 O   0  0  0  0  0  0  0  0  0  0  0  0
  -20.8500  -29.9090   21.8460 H   0  0  0  0  0  0  0  0  0  0  0  0
  -18.0530  -27.9500   22.8940 C   0  0  0  0  0  0  0  0  0  0  0  0
  -20.5730  -28.3820   23.2760 C   0  0  0  0  0  3  0  0  0  0  0  0
  -20.7960  -26.9520   22.7340 C   0  0  0  0  0  2  0  0  0  0  0  0
  -19.7640  -26.5370   21.6810 C   0  0  0  0  0  2  0  0  0  0  0  0
  -18.3470  -26.6040   22.2590 C   0  0  0  0  0  2  0  0  0  0  0  0
  -19.1000  -28.7930   23.3560 C   0  0  0  0  0  0  0  0  0  0  0  0
  -18.7720  -30.0520   23.9040 C   0  0  0  0  0  3  0  0  0  0  0  0
  -17.4310  -30.4700   23.9990 C   0  0  0  0  0  3  0  0  0  0  0  0
  -16.3990  -29.6260   23.5530 C   0  0  0  0  0  3  0  0  0  0  0  0
  -16.7110  -28.3690   23.0050 C   0  0  0  0  0  3  0  0  0  0  0  0
  -25.9050  -32.5770   23.9460 C   0  0  0  0  0  3  0  0  0  0  0  0
  -25.6540  -33.9810   24.2960 N   0  0  0  0  0  0  0  0  0  0  0  0
  -25.9710  -35.0250   23.5170 C   0  0  0  0  0  0  0  0  0  0  0  0
  -26.5820  -34.9030   22.4520 O   0  0  0  0  0  0  0  0  0  0  0  0
  -25.1300  -34.1560   25.1400 H   0  0  0  0  0  0  0  0  0  0  0  0
  -24.2590  -36.8440   23.2470 C   0  0  0  0  0  1  0  0  0  0  0  0
  -25.5370  -36.4250   23.9900 C   0  0  0  0  0  3  0  0  0  0  0  0
  -27.7270  -37.2680   24.7040 C   0  0  0  0  0  1  0  0  0  0  0  0
  -26.5810  -37.4550   23.8160 N   0  0  0  0  0  0  0  0  0  0  0  0
  -26.2020  -38.3820   23.9840 H   0  0  0  0  0  0  0  0  0  0  0  0
  -26.4440  -31.7770   25.1940 C   0  0  1  0  0  0  0  0  0  0  0  0
  -25.3790  -31.5300   26.2880 C   0  0  0  0  0  1  0  0  0  0  0  0
  -26.9980  -30.4030   24.7490 C   0  0  0  0  0  1  0  0  0  0  0  0
  -27.6210  -32.5470   25.8430 C   0  0  0  0  0  1  0  0  0  0  0  0
  -33.0130  -18.3110   21.1760 C   0  0  0  0  0  1  0  0  0  0  0  0
  -31.5490  -18.3470   21.0920 N   0  0  0  0  0  0  0  0  0  0  0  0
  -30.8380  -17.9600   23.4210 C   0  0  0  0  0  1  0  0  0  0  0  0
  -30.7430  -17.4630   21.9650 C   0  0  0  0  0  3  0  0  0  0  0  0
  -31.1770  -15.9680   21.8790 C   0  0  0  0  0  2  0  0  0  0  0  0
  -30.3500  -14.4270   20.1060 C   0  0  0  0  0  0  0  0  0  0  0  0
  -29.9030  -12.3510   18.8440 C   0  0  0  0  0  2  0  0  0  0  0  0
  -28.8450  -12.5400   17.7450 C   0  0  0  0  0  2  0  0  0  0  0  0
  -27.4340  -12.3190   18.3140 C   0  0  0  0  0  2  0  0  0  0  0  0
  -27.1860  -13.1270   19.6150 C   0  0  0  0  0  3  0  0  0  0  0  0
  -28.3510  -12.9560   20.6180 C   0  0  0  0  0  2  0  0  0  0  0  0
  -29.6190  -13.2920   19.9410 N   0  0  0  0  0  0  0  0  0  0  0  0
  -31.2310  -14.7780   19.3140 O   0  0  0  0  0  0  0  0  0  0  0  0
  -30.1850  -15.0670   21.2720 N   0  0  0  0  0  0  0  0  0  0  0  0
  -29.4390  -14.7360   21.8660 H   0  0  0  0  0  0  0  0  0  0  0  0
  -24.8500  -13.6150   20.5810 C   0  0  0  0  0  0  0  0  0  0  0  0
  -23.8550  -12.7890   21.0350 C   0  0  0  0  0  0  0  0  0  0  0  0
  -24.3600  -11.4600   20.9150 C   0  0  0  0  0  0  0  0  0  0  0  0
  -25.8990  -12.7830   20.2180 N   0  0  0  0  0  0  0  0  0  0  0  0
  -25.6120  -11.4810   20.4730 N   0  0  0  0  0  0  0  0  0  0  0  0
  -23.7030  -10.1650   21.1420 C   0  0  0  0  0  0  0  0  0  0  0  0
  -24.2070   -9.2350   22.0780 C   0  0  0  0  0  3  0  0  0  0  0  0
  -23.5490   -8.0060   22.2930 C   0  0  0  0  0  3  0  0  0  0  0  0
  -22.3710   -7.6960   21.5720 C   0  0  0  0  0  0  0  0  0  0  0  0
  -21.8840   -8.6150   20.6250 C   0  0  0  0  0  3  0  0  0  0  0  0
  -22.5440   -9.8370   20.4090 C   0  0  0  0  0  3  0  0  0  0  0  0
  -21.6810   -6.5150   21.6960 O   0  0  0  0  0  0  0  0  0  0  0  0
  -21.6350   -5.8260   22.8810 C   0  0  0  0  0  0  0  0  0  0  0  0
  -21.1080   -6.4020   24.0580 C   0  0  0  0  0  3  0  0  0  0  0  0
  -21.0180   -5.6350   25.2370 C   0  0  0  0  0  3  0  0  0  0  0  0
  -21.4430   -4.2930   25.2390 C   0  0  0  0  0  0  0  0  0  0  0  0
  -21.9620   -3.7170   24.0670 C   0  0  0  0  0  3  0  0  0  0  0  0
  -22.0560   -4.4820   22.8910 C   0  0  0  0  0  0  0  0  0  0  0  0
  -22.5370   -3.9140   21.7570 F   0  0  0  0  0  0  0  0  0  0  0  0
  -21.3500   -3.5540   26.3690 F   0  0  0  0  0  0  0  0  0  0  0  0
  -22.4770  -13.2060   21.4680 C   0  0  0  0  0  0  0  0  0  0  0  0
  -21.8690  -12.4580   22.3820 N   0  0  0  0  0  0  0  0  0  0  0  0
  -21.9510  -14.2270   21.0320 O   0  0  0  0  0  0  0  0  0  0  0  0
  -22.3110  -11.6340   22.7600 H   0  0  0  0  0  0  0  0  0  0  0  0
  -20.9470  -12.7160   22.7100 H   0  0  0  0  0  0  0  0  0  0  0  0
  -24.9410  -14.9940   20.4330 N   0  0  0  0  0  0  0  0  0  0  0  0
  -24.1650  -15.6110   20.6410 H   0  0  0  0  0  0  0  0  0  0  0  0
  -25.7430  -15.4780   20.0460 H   0  0  0  0  0  0  0  0  0  0  0  0
  2  4  2  0
  3  7  1  0
  3  1  2  0
  4  1  1  0
  4 57  1  0
  5  3  1  0
  6  5  2  0
  6  2  1  0
  8  6  1  0
  9 11  1  0
  9 13  1  0
 10 11  1  0
 11  5  1  0
 12  9  2  0
 13 14  1  0
 14 15  1  0
 15 17  1  0
 16 27  2  0
 17 22  1  0
 18 26  1  0
 18 28  1  0
 19 25  1  0
 19 21  1  0
 20 26  1  0
 21 20  1  0
 22 21  2  0
 23 24  1  0
 23 17  2  0
 24 19  2  0
 25 18  1  0
 26 16  1  0
 28 30  2  0
 29 28  1  0
 31 29  1  0
 32 41  2  0
 32 37  1  0
 33 29  1  0
 33 37  1  0
 34 33  1  0
 35 36  1  0
 35 34  1  0
 36 32  1  0
 37 38  2  0
 38 39  1  0
 40 39  2  0
 41 40  1  0
 42 16  1  0
 42 43  1  0
 42 52  1  0
 43 46  1  0
 44 48  1  0
 44 43  1  0
 45 44  2  0
 48 47  1  0
 50 51  1  0
 50 48  1  0
 50 49  1  0
 52 55  1  1
 52 53  1  0
 54 52  1  0
 57 56  1  0
 57 59  1  0
 59 58  1  0
 60 59  1  0
 61 69  1  0
 62 67  1  0
 63 64  1  0
 63 62  1  0
 65 64  1  0
 65 74  1  0
 65 66  1  0
 67 61  1  0
 67 66  1  0
 68 61  2  0
 69 70  1  0
 69 60  1  0
 71 72  2  0
 72 91  1  0
 73 72  1  0
 73 76  1  0
 74 75  1  0
 74 71  1  0
 75 73  2  0
 76 77  1  0
 77 78  2  0
 79 82  1  0
 79 78  1  0
 80 79  2  0
 81 80  1  0
 81 76  2  0
 82 83  1  0
 83 88  2  0
 83 84  1  0
 84 85  2  0
 85 86  1  0
 86 90  1  0
 87 86  2  0
 88 87  1  0
 89 88  1  0
 91 92  1  0
 92 95  1  0
 92 94  1  0
 93 91  2  0
 96 71  1  0
 96 97  1  0
 98 96  1  0
M  ISO  4  14 101  15 101  61 100  69 100
M  END
>  <TORSDO>  (21) 
F 22

>  <SCORE>  (21) 
-11.839

>  <name>  (21) 
20

>  <ligand_id>  (21) 
20

>  <original_smiles>  (21) 
[H]c1c([H])c([H])c2c(c1[H])C([H])([H])C([H])([H])C([H])([H])C2([H])N([H])C(=O)C1([H])N(C(=O)C([H])(N([H])C(=O)C([H])(N([H])C([H])([H])[H])C([H])([H])[H])C(C([H])([H])[H])(C([H])([H])[H])C([H])([H])[H])C([H])([H])c2c([H])c(OC([H])([H])C([H])([H])C(=O)N(c3c(F)c([H])c(N(C([H])([H])[H])C([H])(C([H])([H])[H])C([H])([H])N([H])C(=O)N4C([H])([H])C([H])([H])C([H])([H])C([H])(n5nc(-c6c([H])c([H])c(Oc7c([H])c([H])c(F)c([H])c7F)c([H])c6[H])c(C(=O)N([H])[H])c5N([H])[H])C4([H])[H])c([H])c3C([H])([H])[H])C([H])([H])[H])c([H])c([H])c2C1([H])[H]

>  <smiles>  (21) 
[H]c1c([H])c([H])c2c(c1[H])C([H])([H])C([H])([H])C([H])([H])C2([H])N([H])C(=O)C1([H])N(C(=O)C([H])(N([H])C(=O)C([H])(N([H])C([H])([H])[H])C([H])([H])[H])C(C([H])([H])[H])(C([H])([H])[H])C([H])([H])[H])C([H])([H])c2c([H])c(OC([H])([H])C([H])([H])C(=O)N(c3c(F)c([H])c(N(C([H])([H])[H])C([H])(C([H])([H])[H])C([H])([H])N([H])C(=O)N4C([H])([H])C([H])([H])C([H])([H])C([H])(n5nc(-c6c([H])c([H])c(Oc7c([H])c([H])c(F)c([H])c7F)c([H])c6[H])c(C(=O)N([H])[H])c5N([H])[H])C4([H])[H])c([H])c3C([H])([H])[H])C([H])([H])[H])c([H])c([H])c2C1([H])[H]

$$$$
21:0:0
     RDKit          3D

 91100  0  0  1  0  0  0  0  0999 V2000
  -30.6710  -14.7290   20.4810 C   0  0  0  0  0  0  0  0  0  0  0  0
  -30.3610  -12.4850   19.4330 C   0  0  0  0  0  2  0  0  0  0  0  0
  -29.4620  -12.5940   18.1880 C   0  0  0  0  0  2  0  0  0  0  0  0
  -27.9880  -12.4240   18.5900 C   0  0  0  0  0  2  0  0  0  0  0  0
  -27.5970  -13.3130   19.8000 C   0  0  0  0  0  3  0  0  0  0  0  0
  -28.6340  -13.2470   20.9440 C   0  0  0  0  0  2  0  0  0  0  0  0
  -29.9520  -13.5580   20.3740 N   0  0  0  0  0  0  0  0  0  0  0  0
  -31.8440  -14.7420   20.0960 O   0  0  0  0  0  0  0  0  0  0  0  0
  -27.9950  -19.1010   20.0480 C   0  0  0  0  0  3  0  0  0  0  0  0
  -28.1050  -20.5230   19.9150 C   0  0  0  0  0  3  0  0  0  0  0  0
  -30.4070  -20.3730   20.5770 C   0  0  0  0  0  3  0  0  0  0  0  0
  -29.0900  -18.2750   20.4270 C   0  0  0  0  0  0  0  0  0  0  0  0
  -30.2930  -18.9450   20.7300 C   0  0  0  0  0  0  0  0  0  0  0  0
  -29.3250  -21.2130   20.1370 C   0  0  0  0  0  0  0  0  0  0  0  0
  -31.4570  -18.0830   21.2070 C   0  0  0  0  0  2  0  0  0  0  0  0
  -28.9840  -16.6980   20.4860 C   0  0  0  0  0  2  0  0  0  0  0  0
  -31.0040  -16.7460   21.8730 C   0  0  0  0  0  2  0  0  0  0  0  0
  -30.1360  -15.8930   21.0260 N   0  0  0  0  0  0  0  0  0  0  0  0
  -25.1940  -13.9100   20.4640 C   0  0  0  0  0  0  0  0  0  0  0  0
  -24.1220  -13.1410   20.8230 C   0  0  0  0  0  0  0  0  0  0  0  0
  -24.5870  -11.7900   20.8270 C   0  0  0  0  0  0  0  0  0  0  0  0
  -26.2460  -13.0300   20.2700 N   0  0  0  0  0  0  0  0  0  0  0  0
  -25.8850  -11.7500   20.5500 N   0  0  0  0  0  0  0  0  0  0  0  0
  -23.8570  -10.5320   21.0210 C   0  0  0  0  0  0  0  0  0  0  0  0
  -24.2760   -9.5720   21.9680 C   0  0  0  0  0  3  0  0  0  0  0  0
  -23.5450   -8.3770   22.1490 C   0  0  0  0  0  3  0  0  0  0  0  0
  -22.3790   -8.1360   21.3830 C   0  0  0  0  0  0  0  0  0  0  0  0
  -21.9800   -9.0840   20.4260 C   0  0  0  0  0  3  0  0  0  0  0  0
  -22.7120  -10.2690   20.2440 C   0  0  0  0  0  3  0  0  0  0  0  0
  -21.6210   -6.9930   21.4730 O   0  0  0  0  0  0  0  0  0  0  0  0
  -21.5680   -6.2550   22.6280 C   0  0  0  0  0  0  0  0  0  0  0  0
  -21.1490   -6.8180   23.8540 C   0  0  0  0  0  3  0  0  0  0  0  0
  -21.0410   -6.0070   25.0010 C   0  0  0  0  0  3  0  0  0  0  0  0
  -21.3410   -4.6330   24.9230 C   0  0  0  0  0  0  0  0  0  0  0  0
  -21.7510   -4.0710   23.7020 C   0  0  0  0  0  3  0  0  0  0  0  0
  -21.8610   -4.8790   22.5580 C   0  0  0  0  0  0  0  0  0  0  0  0
  -22.2380   -4.3260   21.3800 F   0  0  0  0  0  0  0  0  0  0  0  0
  -21.2300   -3.8510   26.0220 F   0  0  0  0  0  0  0  0  0  0  0  0
  -22.7180  -13.6230   21.0490 C   0  0  0  0  0  0  0  0  0  0  0  0
  -21.9690  -12.9460   21.9110 N   0  0  0  0  0  0  0  0  0  0  0  0
  -22.2920  -14.6370   20.4960 O   0  0  0  0  0  0  0  0  0  0  0  0
  -22.3240  -12.1270   22.3830 H   0  0  0  0  0  0  0  0  0  0  0  0
  -21.0260  -13.2520   22.1050 H   0  0  0  0  0  0  0  0  0  0  0  0
  -25.3580  -15.2780   20.2620 N   0  0  0  0  0  0  0  0  0  0  0  0
  -24.5780  -15.9240   20.3240 H   0  0  0  0  0  0  0  0  0  0  0  0
  -26.2010  -15.7080   19.9080 H   0  0  0  0  0  0  0  0  0  0  0  0
  -30.7980  -22.8690   19.1770 C   0  0  0  0  0  1  0  0  0  0  0  0
  -29.4880  -22.6180   19.7840 N   0  0  0  0  0  0  0  0  0  0  0  0
  -28.8180  -23.8050   20.4560 C   0  0  0  0  0  2  0  0  0  0  0  0
  -28.6040  -25.1780   19.6130 C   0  0  0  0  0  2  0  0  0  0  0  0
  -28.4330  -26.5050   20.2810 O   0  0  0  0  0  0  0  0  0  0  0  0
  -24.6160  -31.8940   23.2440 C   0  0  0  0  0  0  0  0  0  0  0  0
  -27.2810  -27.3190   20.2040 C   0  0  0  0  0  0  0  0  0  0  0  0
  -23.4310  -30.4800   21.6020 C   0  0  0  0  0  3  0  0  0  0  0  0
  -24.8980  -28.9260   20.1880 C   0  0  0  0  0  0  0  0  0  0  0  0
  -25.9700  -30.8050   21.4360 C   0  0  0  0  0  2  0  0  0  0  0  0
  -26.0600  -29.4220   20.7900 C   0  0  0  0  0  0  0  0  0  0  0  0
  -27.2470  -28.6280   20.7910 C   0  0  0  0  0  3  0  0  0  0  0  0
  -26.0870  -26.8740   19.5930 C   0  0  0  0  0  3  0  0  0  0  0  0
  -24.9140  -27.6560   19.5870 C   0  0  0  0  0  3  0  0  0  0  0  0
  -23.6580  -29.7980   20.2260 C   0  0  0  0  0  2  0  0  0  0  0  0
  -24.6920  -31.0790   22.1500 N   0  0  0  0  0  0  0  0  0  0  0  0
  -23.5280  -32.1710   23.7700 O   0  0  0  0  0  0  0  0  0  0  0  0
  -22.7670  -29.4670   22.5640 C   0  0  0  0  0  0  0  0  0  0  0  0
  -21.4410  -29.2900   22.4400 N   0  0  0  0  0  0  0  0  0  0  0  0
  -23.4450  -28.8420   23.3830 O   0  0  0  0  0  0  0  0  0  0  0  0
  -20.9510  -29.8480   21.7550 H   0  0  0  0  0  0  0  0  0  0  0  0
  -18.0610  -28.1050   22.9470 C   0  0  0  0  0  0  0  0  0  0  0  0
  -20.6210  -28.3530   23.2100 C   0  0  0  0  0  3  0  0  0  0  0  0
  -20.7150  -26.9230   22.6290 C   0  0  0  0  0  2  0  0  0  0  0  0
  -19.6080  -26.6100   21.6180 C   0  0  0  0  0  2  0  0  0  0  0  0
  -18.2290  -26.7570   22.2670 C   0  0  0  0  0  2  0  0  0  0  0  0
  -19.1830  -28.8610   23.3750 C   0  0  0  0  0  0  0  0  0  0  0  0
  -18.9700  -30.1220   23.9720 C   0  0  0  0  0  3  0  0  0  0  0  0
  -17.6670  -30.6270   24.1430 C   0  0  0  0  0  3  0  0  0  0  0  0
  -16.5590  -29.8670   23.7320 C   0  0  0  0  0  3  0  0  0  0  0  0
  -16.7560  -28.6060   23.1400 C   0  0  0  0  0  3  0  0  0  0  0  0
  -25.8920  -32.5370   23.8710 C   0  0  0  0  0  3  0  0  0  0  0  0
  -25.5730  -33.9350   24.1980 N   0  0  0  0  0  0  0  0  0  0  0  0
  -25.8970  -34.9870   23.4360 C   0  0  0  0  0  0  0  0  0  0  0  0
  -26.5630  -34.8850   22.4020 O   0  0  0  0  0  0  0  0  0  0  0  0
  -24.9890  -34.0890   25.0070 H   0  0  0  0  0  0  0  0  0  0  0  0
  -24.1520  -36.7630   23.0820 C   0  0  0  0  0  1  0  0  0  0  0  0
  -25.4000  -36.3740   23.8910 C   0  0  0  0  0  3  0  0  0  0  0  0
  -27.5310  -37.2750   24.7110 C   0  0  0  0  0  1  0  0  0  0  0  0
  -26.4250  -37.4340   23.7710 N   0  0  0  0  0  0  0  0  0  0  0  0
  -26.0110  -38.3510   23.9180 H   0  0  0  0  0  0  0  0  0  0  0  0
  -26.4060  -31.7730   25.1540 C   0  0  1  0  0  0  0  0  0  0  0  0
  -25.3090  -31.5380   26.2170 C   0  0  0  0  0  1  0  0  0  0  0  0
  -26.9970  -30.3970   24.7720 C   0  0  0  0  0  1  0  0  0  0  0  0
  -27.5530  -32.5730   25.8170 C   0  0  0  0  0  1  0  0  0  0  0  0
  1 18  1  0
  2  7  1  0
  3  4  1  0
  3  2  1  0
  5  4  1  0
  5 22  1  0
  5  6  1  0
  7  1  1  0
  7  6  1  0
  8  1  2  0
  9 12  1  0
 10  9  2  0
 10 14  1  0
 11 13  1  0
 12 16  1  0
 12 13  2  0
 13 15  1  0
 14 11  2  0
 15 17  1  0
 16 18  1  0
 18 17  1  0
 19 20  2  0
 20 21  1  0
 20 39  1  0
 21 24  1  0
 22 19  1  0
 22 23  1  0
 23 21  2  0
 24 25  1  0
 25 26  2  0
 27 30  1  0
 27 26  1  0
 28 27  2  0
 29 28  1  0
 29 24  2  0
 30 31  1  0
 31 32  1  0
 32 33  2  0
 34 33  1  0
 34 38  1  0
 35 34  2  0
 36 31  2  0
 36 35  1  0
 37 36  1  0
 39 40  1  0
 40 43  1  0
 40 42  1  0
 41 39  2  0
 44 45  1  0
 44 19  1  0
 46 44  1  0
 47 48  1  0
 48 14  1  0
 48 49  1  0
 50 51  1  0
 50 49  1  0
 52 63  2  0
 53 51  1  0
 53 58  1  0
 54 62  1  0
 54 64  1  0
 55 61  1  0
 55 57  1  0
 56 62  1  0
 57 58  2  0
 57 56  1  0
 59 53  2  0
 60 59  1  0
 60 55  2  0
 61 54  1  0
 62 52  1  0
 64 66  2  0
 65 64  1  0
 67 65  1  0
 68 77  2  0
 68 73  1  0
 69 65  1  0
 69 73  1  0
 70 69  1  0
 71 72  1  0
 71 70  1  0
 72 68  1  0
 73 74  2  0
 74 75  1  0
 76 75  2  0
 77 76  1  0
 78 52  1  0
 78 79  1  0
 78 88  1  0
 79 82  1  0
 80 84  1  0
 80 79  1  0
 81 80  2  0
 84 83  1  0
 86 84  1  0
 86 87  1  0
 86 85  1  0
 88 91  1  1
 88 89  1  0
 90 88  1  0
M  ISO  4   1 100  18 100  50 101  51 101
M  END
>  <TORSDO>  (22) 
F 18

>  <SCORE>  (22) 
-15.025

>  <name>  (22) 
21

>  <ligand_id>  (22) 
21

>  <original_smiles>  (22) 
[H]c1c([H])c([H])c2c(c1[H])C([H])([H])C([H])([H])C([H])([H])C2([H])N([H])C(=O)C1([H])N(C(=O)C([H])(N([H])C(=O)C([H])(N([H])C([H])([H])[H])C([H])([H])[H])C(C([H])([H])[H])(C([H])([H])[H])C([H])([H])[H])C([H])([H])c2c([H])c(OC([H])([H])C([H])([H])N(c3c([H])c([H])c4c(c3[H])C([H])([H])C([H])([H])N(C(=O)N3C([H])([H])C([H])([H])C([H])([H])C([H])(n5nc(-c6c([H])c([H])c(Oc7c([H])c([H])c(F)c([H])c7F)c([H])c6[H])c(C(=O)N([H])[H])c5N([H])[H])C3([H])[H])C4([H])[H])C([H])([H])[H])c([H])c([H])c2C1([H])[H]

>  <smiles>  (22) 
[H]c1c([H])c([H])c2c(c1[H])C([H])([H])C([H])([H])C([H])([H])C2([H])N([H])C(=O)C1([H])N(C(=O)C([H])(N([H])C(=O)C([H])(N([H])C([H])([H])[H])C([H])([H])[H])C(C([H])([H])[H])(C([H])([H])[H])C([H])([H])[H])C([H])([H])c2c([H])c(OC([H])([H])C([H])([H])N(c3c([H])c([H])c4c(c3[H])C([H])([H])C([H])([H])N(C(=O)N3C([H])([H])C([H])([H])C([H])([H])C([H])(n5nc(-c6c([H])c([H])c(Oc7c([H])c([H])c(F)c([H])c7F)c([H])c6[H])c(C(=O)N([H])[H])c5N([H])[H])C3([H])[H])C4([H])[H])C([H])([H])[H])c([H])c([H])c2C1([H])[H]

$$$$
22:0:0
     RDKit          3D

 94103  0  0  1  0  0  0  0  0999 V2000
  -31.4750  -19.2190   21.0860 C   0  0  0  0  0  3  0  0  0  0  0  0
  -31.4080  -20.6260   21.0390 C   0  0  0  0  0  3  0  0  0  0  0  0
  -30.9800  -20.5360   18.6560 C   0  0  0  0  0  3  0  0  0  0  0  0
  -31.2630  -18.4470   19.9250 C   0  0  0  0  0  0  0  0  0  0  0  0
  -31.1750  -21.3010   19.8250 C   0  0  0  0  0  0  0  0  0  0  0  0
  -31.0300  -19.1250   18.6990 C   0  0  0  0  0  0  0  0  0  0  0  0
  -30.8800  -18.4300   17.5440 F   0  0  0  0  0  0  0  0  0  0  0  0
  -32.4240  -23.2790   19.2610 C   0  0  0  0  0  1  0  0  0  0  0  0
  -31.1970  -22.7100   19.8140 N   0  0  0  0  0  0  0  0  0  0  0  0
  -29.9560  -23.3730   19.4150 C   0  0  0  0  0  2  0  0  0  0  0  0
  -29.8450  -24.7930   20.0190 C   0  0  0  0  0  2  0  0  0  0  0  0
  -28.5810  -25.5530   19.5890 C   0  0  0  0  0  2  0  0  0  0  0  0
  -28.5310  -26.8280   20.2410 O   0  0  0  0  0  0  0  0  0  0  0  0
  -24.6250  -31.9070   23.3540 C   0  0  0  0  0  0  0  0  0  0  0  0
  -27.3370  -27.5250   20.2310 C   0  0  0  0  0  0  0  0  0  0  0  0
  -23.4450  -30.5160   21.6840 C   0  0  0  0  0  3  0  0  0  0  0  0
  -24.9280  -29.0130   20.2540 C   0  0  0  0  0  0  0  0  0  0  0  0
  -25.9720  -30.8930   21.5270 C   0  0  0  0  0  2  0  0  0  0  0  0
  -26.0740  -29.5340   20.8650 C   0  0  0  0  0  0  0  0  0  0  0  0
  -27.2790  -28.7930   20.8600 C   0  0  0  0  0  3  0  0  0  0  0  0
  -26.1660  -27.0250   19.6110 C   0  0  0  0  0  3  0  0  0  0  0  0
  -24.9670  -27.7560   19.6300 C   0  0  0  0  0  3  0  0  0  0  0  0
  -23.6710  -29.8530   20.3020 C   0  0  0  0  0  2  0  0  0  0  0  0
  -24.6980  -31.1190   22.2450 N   0  0  0  0  0  0  0  0  0  0  0  0
  -23.5390  -32.1670   23.8880 O   0  0  0  0  0  0  0  0  0  0  0  0
  -22.7950  -29.4770   22.6260 C   0  0  0  0  0  0  0  0  0  0  0  0
  -21.4750  -29.2850   22.4780 N   0  0  0  0  0  0  0  0  0  0  0  0
  -23.4740  -28.8480   23.4420 O   0  0  0  0  0  0  0  0  0  0  0  0
  -20.9920  -29.8310   21.7780 H   0  0  0  0  0  0  0  0  0  0  0  0
  -18.1000  -28.0840   22.9300 C   0  0  0  0  0  0  0  0  0  0  0  0
  -20.6550  -28.3390   23.2290 C   0  0  0  0  0  3  0  0  0  0  0  0
  -20.7680  -26.9170   22.6310 C   0  0  0  0  0  2  0  0  0  0  0  0
  -19.6740  -26.6080   21.6040 C   0  0  0  0  0  2  0  0  0  0  0  0
  -18.2860  -26.7450   22.2370 C   0  0  0  0  0  2  0  0  0  0  0  0
  -19.2140  -28.8400   23.3830 C   0  0  0  0  0  0  0  0  0  0  0  0
  -18.9910  -30.0960   23.9860 C   0  0  0  0  0  3  0  0  0  0  0  0
  -17.6850  -30.5950   24.1490 C   0  0  0  0  0  3  0  0  0  0  0  0
  -16.5840  -29.8330   23.7200 C   0  0  0  0  0  3  0  0  0  0  0  0
  -16.7920  -28.5820   23.1140 C   0  0  0  0  0  3  0  0  0  0  0  0
  -25.9020  -32.5380   23.9910 C   0  0  0  0  0  3  0  0  0  0  0  0
  -25.5960  -33.9420   24.2890 N   0  0  0  0  0  0  0  0  0  0  0  0
  -25.9230  -34.9750   23.5010 C   0  0  0  0  0  0  0  0  0  0  0  0
  -26.5870  -34.8480   22.4670 O   0  0  0  0  0  0  0  0  0  0  0  0
  -25.0090  -34.1150   25.0920 H   0  0  0  0  0  0  0  0  0  0  0  0
  -24.1770  -36.7440   23.1330 C   0  0  0  0  0  1  0  0  0  0  0  0
  -25.4390  -36.3730   23.9290 C   0  0  0  0  0  3  0  0  0  0  0  0
  -27.5800  -37.3010   24.6920 C   0  0  0  0  0  1  0  0  0  0  0  0
  -26.4620  -37.4270   23.7610 N   0  0  0  0  0  0  0  0  0  0  0  0
  -26.0530  -38.3490   23.8860 H   0  0  0  0  0  0  0  0  0  0  0  0
  -26.3860  -31.7840   25.2900 C   0  0  1  0  0  0  0  0  0  0  0  0
  -25.2670  -31.5620   26.3360 C   0  0  0  0  0  1  0  0  0  0  0  0
  -26.9740  -30.3990   24.9320 C   0  0  0  0  0  1  0  0  0  0  0  0
  -27.5230  -32.5860   25.9660 C   0  0  0  0  0  1  0  0  0  0  0  0
  -31.4550  -16.9260   19.9940 C   0  0  0  0  0  2  0  0  0  0  0  0
  -30.8920  -14.6080   20.3730 C   0  0  0  0  0  0  0  0  0  0  0  0
  -30.5030  -12.4110   19.3210 C   0  0  0  0  0  2  0  0  0  0  0  0
  -29.5790  -12.5230   18.0960 C   0  0  0  0  0  2  0  0  0  0  0  0
  -28.1070  -12.3900   18.5210 C   0  0  0  0  0  2  0  0  0  0  0  0
  -27.7470  -13.2820   19.7410 C   0  0  0  0  0  3  0  0  0  0  0  0
  -28.8080  -13.1360   20.8590 C   0  0  0  0  0  2  0  0  0  0  0  0
  -30.1010  -13.4900   20.2540 N   0  0  0  0  0  0  0  0  0  0  0  0
  -32.0950  -14.4760   20.1440 O   0  0  0  0  0  0  0  0  0  0  0  0
  -30.3950  -15.9010   20.3490 N   0  0  0  0  0  0  0  0  0  0  0  0
  -25.3380  -13.8830   20.4220 C   0  0  0  0  0  0  0  0  0  0  0  0
  -24.2710  -13.1090   20.7820 C   0  0  0  0  0  0  0  0  0  0  0  0
  -24.7410  -11.7640   20.7720 C   0  0  0  0  0  0  0  0  0  0  0  0
  -26.3950  -13.0100   20.2150 N   0  0  0  0  0  0  0  0  0  0  0  0
  -26.0350  -11.7260   20.4780 N   0  0  0  0  0  0  0  0  0  0  0  0
  -24.0120  -10.5050   20.9620 C   0  0  0  0  0  0  0  0  0  0  0  0
  -24.4210   -9.5570   21.9240 C   0  0  0  0  0  3  0  0  0  0  0  0
  -23.6880   -8.3660   22.1080 C   0  0  0  0  0  3  0  0  0  0  0  0
  -22.5340   -8.1180   21.3290 C   0  0  0  0  0  0  0  0  0  0  0  0
  -22.1410   -9.0570   20.3610 C   0  0  0  0  0  3  0  0  0  0  0  0
  -22.8730  -10.2410   20.1760 C   0  0  0  0  0  3  0  0  0  0  0  0
  -21.7720   -6.9780   21.4210 O   0  0  0  0  0  0  0  0  0  0  0  0
  -21.6840   -6.2670   22.5900 C   0  0  0  0  0  0  0  0  0  0  0  0
  -21.1860   -6.8450   23.7770 C   0  0  0  0  0  3  0  0  0  0  0  0
  -21.0460   -6.0610   24.9380 C   0  0  0  0  0  3  0  0  0  0  0  0
  -21.3900   -4.6960   24.9100 C   0  0  0  0  0  0  0  0  0  0  0  0
  -21.8850   -4.1170   23.7270 C   0  0  0  0  0  3  0  0  0  0  0  0
  -22.0270   -4.9010   22.5690 C   0  0  0  0  0  0  0  0  0  0  0  0
  -22.4800   -4.3320   21.4250 F   0  0  0  0  0  0  0  0  0  0  0  0
  -21.2530   -3.9400   26.0240 F   0  0  0  0  0  0  0  0  0  0  0  0
  -22.8690  -13.5930   21.0190 C   0  0  0  0  0  0  0  0  0  0  0  0
  -22.1380  -12.9310   21.9080 N   0  0  0  0  0  0  0  0  0  0  0  0
  -22.4330  -14.5920   20.4500 O   0  0  0  0  0  0  0  0  0  0  0  0
  -22.5000  -12.1220   22.3930 H   0  0  0  0  0  0  0  0  0  0  0  0
  -21.2010  -13.2480   22.1100 H   0  0  0  0  0  0  0  0  0  0  0  0
  -25.4600  -15.2480   20.2420 N   0  0  0  0  0  0  0  0  0  0  0  0
  -24.6450  -15.8470   20.3210 H   0  0  0  0  0  0  0  0  0  0  0  0
  -26.2860  -15.7410   19.9330 H   0  0  0  0  0  0  0  0  0  0  0  0
  -28.4460  -17.6990   20.7670 C   0  0  0  0  0  2  0  0  0  0  0  0
  -28.1640  -16.7790   19.6130 C   0  0  0  0  0  2  0  0  0  0  0  0
  -29.0500  -16.3000   20.7460 C   0  0  0  0  0  3  0  0  0  0  0  0
  2  1  1  0
  3  6  2  0
  3  5  1  0
  4 54  1  0
  4  1  2  0
  5  2  2  0
  6  4  1  0
  7  6  1  0
  8  9  1  0
  9  5  1  0
 10  9  1  0
 10 11  1  0
 12 11  1  0
 12 13  1  0
 14 25  2  0
 15 13  1  0
 15 20  1  0
 16 24  1  0
 16 26  1  0
 17 23  1  0
 17 19  1  0
 18 24  1  0
 19 18  1  0
 20 19  2  0
 21 22  1  0
 21 15  2  0
 22 17  2  0
 23 16  1  0
 24 14  1  0
 26 28  2  0
 27 26  1  0
 29 27  1  0
 30 39  2  0
 30 35  1  0
 31 27  1  0
 31 35  1  0
 32 31  1  0
 33 34  1  0
 33 32  1  0
 34 30  1  0
 35 36  2  0
 36 37  1  0
 38 37  2  0
 39 38  1  0
 40 14  1  0
 40 41  1  0
 40 50  1  0
 41 44  1  0
 42 46  1  0
 42 41  1  0
 43 42  2  0
 46 45  1  0
 48 49  1  0
 48 46  1  0
 48 47  1  0
 50 53  1  1
 50 51  1  0
 52 50  1  0
 54 63  1  0
 56 61  1  0
 57 58  1  0
 57 56  1  0
 59 58  1  0
 59 67  1  0
 59 60  1  0
 61 55  1  0
 61 60  1  0
 62 55  2  0
 63 55  1  0
 63 94  1  0
 64 65  2  0
 65 84  1  0
 66 65  1  0
 66 69  1  0
 67 64  1  0
 67 68  1  0
 68 66  2  0
 69 70  1  0
 70 71  2  0
 72 75  1  0
 72 71  1  0
 73 72  2  0
 74 73  1  0
 74 69  2  0
 75 76  1  0
 76 77  1  0
 77 78  2  0
 79 78  1  0
 79 83  1  0
 80 79  2  0
 81 76  2  0
 81 80  1  0
 82 81  1  0
 84 85  1  0
 85 88  1  0
 85 87  1  0
 86 84  2  0
 89 90  1  0
 89 64  1  0
 91 89  1  0
 93 94  1  0
 93 92  1  0
 94 92  1  0
M  ISO  4  12 101  13 101  55 100  63 100
M  END
>  <TORSDO>  (23) 
F 22

>  <SCORE>  (23) 
-13.264

>  <name>  (23) 
22

>  <ligand_id>  (23) 
22

>  <original_smiles>  (23) 
[H]c1c([H])c([H])c2c(c1[H])C([H])([H])C([H])([H])C([H])([H])C2([H])N([H])C(=O)C1([H])N(C(=O)C([H])(N([H])C(=O)C([H])(N([H])C([H])([H])[H])C([H])([H])[H])C(C([H])([H])[H])(C([H])([H])[H])C([H])([H])[H])C([H])([H])c2c([H])c(OC([H])([H])C([H])([H])C([H])([H])N(c3c([H])c([H])c(C([H])([H])N(C(=O)N4C([H])([H])C([H])([H])C([H])([H])C([H])(n5nc(-c6c([H])c([H])c(Oc7c([H])c([H])c(F)c([H])c7F)c([H])c6[H])c(C(=O)N([H])[H])c5N([H])[H])C4([H])[H])C4([H])C([H])([H])C4([H])[H])c(F)c3[H])C([H])([H])[H])c([H])c([H])c2C1([H])[H]

>  <smiles>  (23) 
[H]c1c([H])c([H])c2c(c1[H])C([H])([H])C([H])([H])C([H])([H])C2([H])N([H])C(=O)C1([H])N(C(=O)C([H])(N([H])C(=O)C([H])(N([H])C([H])([H])[H])C([H])([H])[H])C(C([H])([H])[H])(C([H])([H])[H])C([H])([H])[H])C([H])([H])c2c([H])c(OC([H])([H])C([H])([H])C([H])([H])N(c3c([H])c([H])c(C([H])([H])N(C(=O)N4C([H])([H])C([H])([H])C([H])([H])C([H])(n5nc(-c6c([H])c([H])c(Oc7c([H])c([H])c(F)c([H])c7F)c([H])c6[H])c(C(=O)N([H])[H])c5N([H])[H])C4([H])[H])C4([H])C([H])([H])C4([H])[H])c(F)c3[H])C([H])([H])[H])c([H])c([H])c2C1([H])[H]

$$$$
23:0:0
     RDKit          3D

 97105  0  0  1  0  0  0  0  0999 V2000
  -33.0680  -23.5230   21.1490 C   0  0  0  0  0  1  0  0  0  0  0  0
  -31.6800  -23.9930   20.9070 N   0  0  1  0  0  4  0  0  0  0  0  0
  -31.5100  -23.8350   19.9250 H   0  0  0  0  0  0  0  0  0  0  0  0
  -30.6420  -23.2170   21.6430 C   0  0  0  0  0  2  0  0  0  0  0  0
  -29.7810  -21.2000   20.3300 C   0  0  0  0  0  3  0  0  0  0  0  0
  -31.3540  -19.4440   21.8590 C   0  0  0  0  0  3  0  0  0  0  0  0
  -29.7080  -19.8060   20.1030 C   0  0  0  0  0  0  0  0  0  0  0  0
  -30.6230  -21.7180   21.3380 C   0  0  0  0  0  0  0  0  0  0  0  0
  -30.4890  -18.9130   20.8730 C   0  0  0  0  0  0  0  0  0  0  0  0
  -31.4060  -20.8280   22.1010 C   0  0  0  0  0  0  0  0  0  0  0  0
  -28.7580  -19.2640   19.0480 C   0  0  0  0  0  1  0  0  0  0  0  0
  -32.2220  -21.3050   23.0700 F   0  0  0  0  0  0  0  0  0  0  0  0
  -30.3590  -17.5600   20.6270 O   0  0  0  0  0  0  0  0  0  0  0  0
  -30.9140  -16.6520   21.5790 C   0  0  0  0  0  2  0  0  0  0  0  0
  -30.2200  -15.2850   21.4700 C   0  0  0  0  0  2  0  0  0  0  0  0
  -30.7410  -14.3380   20.3730 C   0  0  0  0  0  0  0  0  0  0  0  0
  -30.4100  -12.2630   19.0600 C   0  0  0  0  0  2  0  0  0  0  0  0
  -29.4340  -12.4920   17.8910 C   0  0  0  0  0  2  0  0  0  0  0  0
  -27.9690  -12.3500   18.3510 C   0  0  0  0  0  2  0  0  0  0  0  0
  -27.6670  -13.1590   19.6400 C   0  0  0  0  0  3  0  0  0  0  0  0
  -28.7370  -12.8650   20.7140 C   0  0  0  0  0  2  0  0  0  0  0  0
  -30.0520  -13.1920   20.1390 N   0  0  0  0  0  0  0  0  0  0  0  0
  -31.7650  -14.6330   19.7440 O   0  0  0  0  0  0  0  0  0  0  0  0
  -25.2690  -13.7740   20.3520 C   0  0  0  0  0  0  0  0  0  0  0  0
  -24.2060  -13.0030   20.7420 C   0  0  0  0  0  0  0  0  0  0  0  0
  -24.6720  -11.6530   20.7290 C   0  0  0  0  0  0  0  0  0  0  0  0
  -26.3150  -12.8930   20.1300 N   0  0  0  0  0  0  0  0  0  0  0  0
  -25.9580  -11.6130   20.4080 N   0  0  0  0  0  0  0  0  0  0  0  0
  -23.9540  -10.3910   20.9460 C   0  0  0  0  0  0  0  0  0  0  0  0
  -24.3980   -9.4440   21.8950 C   0  0  0  0  0  3  0  0  0  0  0  0
  -23.6810   -8.2450   22.0970 C   0  0  0  0  0  3  0  0  0  0  0  0
  -22.5080   -7.9850   21.3510 C   0  0  0  0  0  0  0  0  0  0  0  0
  -22.0830   -8.9220   20.3920 C   0  0  0  0  0  3  0  0  0  0  0  0
  -22.8000  -10.1120   20.1880 C   0  0  0  0  0  3  0  0  0  0  0  0
  -21.7610   -6.8360   21.4630 O   0  0  0  0  0  0  0  0  0  0  0  0
  -21.7250   -6.1130   22.6280 C   0  0  0  0  0  0  0  0  0  0  0  0
  -21.3070   -6.6860   23.8480 C   0  0  0  0  0  3  0  0  0  0  0  0
  -21.2170   -5.8880   25.0060 C   0  0  0  0  0  3  0  0  0  0  0  0
  -21.5360   -4.5180   24.9450 C   0  0  0  0  0  0  0  0  0  0  0  0
  -21.9470   -3.9450   23.7290 C   0  0  0  0  0  3  0  0  0  0  0  0
  -22.0380   -4.7400   22.5730 C   0  0  0  0  0  0  0  0  0  0  0  0
  -22.4140   -4.1770   21.3990 F   0  0  0  0  0  0  0  0  0  0  0  0
  -21.4410   -3.7500   26.0560 F   0  0  0  0  0  0  0  0  0  0  0  0
  -22.8090  -13.4780   21.0230 C   0  0  0  0  0  0  0  0  0  0  0  0
  -22.0950  -12.7910   21.9080 N   0  0  0  0  0  0  0  0  0  0  0  0
  -22.3610  -14.4940   20.4930 O   0  0  0  0  0  0  0  0  0  0  0  0
  -22.4710  -11.9700   22.3570 H   0  0  0  0  0  0  0  0  0  0  0  0
  -21.1590  -13.0920   22.1390 H   0  0  0  0  0  0  0  0  0  0  0  0
  -25.4270  -15.1420   20.1520 N   0  0  0  0  0  0  0  0  0  0  0  0
  -24.6600  -15.7980   20.2590 H   0  0  0  0  0  0  0  0  0  0  0  0
  -26.2790  -15.5780   19.8220 H   0  0  0  0  0  0  0  0  0  0  0  0
  -31.5480  -25.4710   21.0820 C   0  0  0  0  0  2  0  0  0  0  0  0
  -30.3100  -25.2510   18.8400 C   0  0  0  0  0  1  0  0  0  0  0  0
  -31.1960  -27.4620   19.5640 C   0  0  0  0  0  1  0  0  0  0  0  0
  -30.5590  -26.1530   20.0800 C   0  0  2  0  0  0  0  0  0  0  0  0
  -29.2270  -26.5410   20.7930 C   0  0  0  0  0  2  0  0  0  0  0  0
  -28.2260  -26.6690   19.7940 O   0  0  0  0  0  0  0  0  0  0  0  0
  -24.5370  -31.8220   23.1930 C   0  0  0  0  0  0  0  0  0  0  0  0
  -27.1020  -27.4290   19.9940 C   0  0  0  0  0  0  0  0  0  0  0  0
  -23.2960  -30.4660   21.5330 C   0  0  0  0  0  3  0  0  0  0  0  0
  -24.7180  -28.9330   20.0770 C   0  0  0  0  0  0  0  0  0  0  0  0
  -25.8210  -30.7990   21.3210 C   0  0  0  0  0  2  0  0  0  0  0  0
  -25.8850  -29.4350   20.6700 C   0  0  0  0  0  0  0  0  0  0  0  0
  -27.0840  -28.6870   20.6370 C   0  0  0  0  0  3  0  0  0  0  0  0
  -25.9220  -26.9350   19.4060 C   0  0  0  0  0  3  0  0  0  0  0  0
  -24.7270  -27.6770   19.4480 C   0  0  0  0  0  3  0  0  0  0  0  0
  -23.4850  -29.8050   20.1420 C   0  0  0  0  0  2  0  0  0  0  0  0
  -24.5690  -31.0430   22.0760 N   0  0  0  0  0  0  0  0  0  0  0  0
  -23.4670  -32.0980   23.7500 O   0  0  0  0  0  0  0  0  0  0  0  0
  -22.6420  -29.4350   22.4810 C   0  0  0  0  0  0  0  0  0  0  0  0
  -21.3120  -29.2800   22.3640 N   0  0  0  0  0  0  0  0  0  0  0  0
  -23.3230  -28.7790   23.2730 O   0  0  0  0  0  0  0  0  0  0  0  0
  -20.8250  -29.8640   21.6980 H   0  0  0  0  0  0  0  0  0  0  0  0
  -17.9220  -28.1460   22.8820 C   0  0  0  0  0  0  0  0  0  0  0  0
  -20.4880  -28.3400   23.1240 C   0  0  0  0  0  3  0  0  0  0  0  0
  -20.5510  -26.9220   22.5100 C   0  0  0  0  0  2  0  0  0  0  0  0
  -19.4300  -26.6500   21.5010 C   0  0  0  0  0  2  0  0  0  0  0  0
  -18.0600  -26.8090   22.1700 C   0  0  0  0  0  2  0  0  0  0  0  0
  -19.0630  -28.8710   23.3150 C   0  0  0  0  0  0  0  0  0  0  0  0
  -18.8830  -30.1240   23.9390 C   0  0  0  0  0  3  0  0  0  0  0  0
  -17.5930  -30.6510   24.1360 C   0  0  0  0  0  3  0  0  0  0  0  0
  -16.4660  -29.9230   23.7210 C   0  0  0  0  0  3  0  0  0  0  0  0
  -16.6310  -28.6720   23.1000 C   0  0  0  0  0  3  0  0  0  0  0  0
  -25.8400  -32.4180   23.8130 C   0  0  0  0  0  3  0  0  0  0  0  0
  -25.5530  -33.8090   24.1900 N   0  0  0  0  0  0  0  0  0  0  0  0
  -25.8940  -34.8810   23.4620 C   0  0  0  0  0  0  0  0  0  0  0  0
  -26.5570  -34.8010   22.4240 O   0  0  0  0  0  0  0  0  0  0  0  0
  -24.9730  -33.9470   25.0050 H   0  0  0  0  0  0  0  0  0  0  0  0
  -24.1890  -36.7050   23.1670 C   0  0  0  0  0  1  0  0  0  0  0  0
  -25.4240  -36.2580   23.9660 C   0  0  0  0  0  3  0  0  0  0  0  0
  -27.5690  -37.0860   24.8280 C   0  0  0  0  0  1  0  0  0  0  0  0
  -26.4690  -37.3010   23.8920 N   0  0  0  0  0  0  0  0  0  0  0  0
  -26.0730  -38.2190   24.0770 H   0  0  0  0  0  0  0  0  0  0  0  0
  -26.3730  -31.5980   25.0520 C   0  0  1  0  0  0  0  0  0  0  0  0
  -25.2970  -31.3340   26.1300 C   0  0  0  0  0  1  0  0  0  0  0  0
  -26.9350  -30.2300   24.5990 C   0  0  0  0  0  1  0  0  0  0  0  0
  -27.5390  -32.3620   25.7230 C   0  0  0  0  0  1  0  0  0  0  0  0
  2 52  1  0
  2  1  1  0
  2  4  1  0
  2  3  1  6
  5  8  1  0
  6 10  1  0
  7  5  2  0
  7  9  1  0
  8  4  1  0
  8 10  2  0
  9  6  2  0
 10 12  1  0
 11  7  1  0
 13  9  1  0
 13 14  1  0
 15 14  1  0
 16 15  1  0
 17 22  1  0
 18 19  1  0
 18 17  1  0
 20 19  1  0
 20 27  1  0
 20 21  1  0
 22 16  1  0
 22 21  1  0
 23 16  2  0
 24 25  2  0
 25 44  1  0
 26 25  1  0
 26 29  1  0
 27 24  1  0
 27 28  1  0
 28 26  2  0
 29 30  1  0
 30 31  2  0
 32 35  1  0
 32 31  1  0
 33 32  2  0
 34 33  1  0
 34 29  2  0
 35 36  1  0
 36 37  1  0
 37 38  2  0
 39 38  1  0
 39 43  1  0
 40 39  2  0
 41 36  2  0
 41 40  1  0
 42 41  1  0
 44 45  1  0
 45 48  1  0
 45 47  1  0
 46 44  2  0
 49 50  1  0
 49 24  1  0
 51 49  1  0
 55 53  1  6
 54 55  1  0
 55 56  1  0
 55 52  1  0
 57 59  1  0
 57 56  1  0
 58 69  2  0
 59 64  1  0
 60 68  1  0
 60 70  1  0
 61 67  1  0
 61 63  1  0
 62 68  1  0
 63 62  1  0
 64 63  2  0
 65 66  1  0
 65 59  2  0
 66 61  2  0
 67 60  1  0
 68 58  1  0
 70 72  2  0
 71 70  1  0
 73 71  1  0
 74 83  2  0
 74 79  1  0
 75 71  1  0
 75 79  1  0
 76 75  1  0
 77 78  1  0
 77 76  1  0
 78 74  1  0
 79 80  2  0
 80 81  1  0
 82 81  2  0
 83 82  1  0
 84 58  1  0
 84 85  1  0
 84 94  1  0
 85 88  1  0
 86 90  1  0
 86 85  1  0
 87 86  2  0
 90 89  1  0
 92 90  1  0
 92 93  1  0
 92 91  1  0
 94 97  1  1
 94 95  1  0
 96 94  1  0
M  ISO  4  15 100  16 100  56 101  57 101
M  END
>  <TORSDO>  (24) 
F 24

>  <SCORE>  (24) 
-11.760

>  <name>  (24) 
23

>  <ligand_id>  (24) 
23

>  <original_smiles>  (24) 
[H]c1c([H])c([H])c2c(c1[H])C([H])([H])C([H])([H])C([H])([H])C2([H])N([H])C(=O)C1([H])N(C(=O)C([H])(N([H])C(=O)C([H])(N([H])C([H])([H])[H])C([H])([H])[H])C(C([H])([H])[H])(C([H])([H])[H])C([H])([H])[H])C([H])([H])c2c([H])c(OC([H])([H])C(C([H])([H])[H])(C([H])([H])[H])C([H])([H])[N+]([H])(C([H])([H])[H])C([H])([H])c3c([H])c(C([H])([H])[H])c(OC([H])([H])C([H])([H])C(=O)N4C([H])([H])C([H])([H])C([H])([H])C([H])(n5nc(-c6c([H])c([H])c(Oc7c([H])c([H])c(F)c([H])c7F)c([H])c6[H])c(C(=O)N([H])[H])c5N([H])[H])C4([H])[H])c([H])c3F)c([H])c([H])c2C1([H])[H]

>  <smiles>  (24) 
[H]c1c([H])c([H])c2c(c1[H])C([H])([H])C([H])([H])C([H])([H])C2([H])N([H])C(=O)C1([H])N(C(=O)C([H])(N([H])C(=O)C([H])(N([H])C([H])([H])[H])C([H])([H])[H])C(C([H])([H])[H])(C([H])([H])[H])C([H])([H])[H])C([H])([H])c2c([H])c(OC([H])([H])C(C([H])([H])[H])(C([H])([H])[H])C([H])([H])[N+]([H])(C([H])([H])[H])C([H])([H])c3c([H])c(C([H])([H])[H])c(OC([H])([H])C([H])([H])C(=O)N4C([H])([H])C([H])([H])C([H])([H])C([H])(n5nc(-c6c([H])c([H])c(Oc7c([H])c([H])c(F)c([H])c7F)c([H])c6[H])c(C(=O)N([H])[H])c5N([H])[H])C4([H])[H])c([H])c3F)c([H])c([H])c2C1([H])[H]

$$$$
24:0:0
     RDKit          3D

 89 97  0  0  1  0  0  0  0  0999 V2000
  -29.8270  -22.3630   19.5040 C   0  0  0  0  0  3  0  0  0  0  0  0
  -29.4170  -23.7400   19.5950 C   0  0  0  0  0  0  0  0  0  0  0  0
  -30.3040  -24.7130   18.8150 C   0  0  0  0  0  1  0  0  0  0  0  0
  -30.5150  -19.8730   19.0210 C   0  0  0  0  0  3  0  0  0  0  0  0
  -29.0310  -20.0350   20.8220 C   0  0  0  0  0  3  0  0  0  0  0  0
  -30.6420  -18.4320   19.1880 C   0  0  0  0  0  3  0  0  0  0  0  0
  -29.1650  -18.5910   21.0010 C   0  0  0  0  0  3  0  0  0  0  0  0
  -29.7300  -20.7870   19.8270 C   0  0  0  0  0  0  0  0  0  0  0  0
  -29.9940  -17.6820   20.2230 C   0  0  0  0  0  0  0  0  0  0  0  0
  -30.7450  -15.0390   19.9090 C   0  0  0  0  0  0  0  0  0  0  0  0
  -30.5320  -12.7300   18.8460 C   0  0  0  0  0  2  0  0  0  0  0  0
  -29.5030  -12.7300   17.6880 C   0  0  0  0  0  2  0  0  0  0  0  0
  -28.0740  -12.4980   18.2140 C   0  0  0  0  0  2  0  0  0  0  0  0
  -27.7660  -13.3580   19.4630 C   0  0  0  0  0  3  0  0  0  0  0  0
  -28.9030  -13.2880   20.4980 C   0  0  0  0  0  2  0  0  0  0  0  0
  -30.1340  -13.7730   19.8430 N   0  0  0  0  0  0  0  0  0  0  0  0
  -31.8460  -15.1450   19.3540 O   0  0  0  0  0  0  0  0  0  0  0  0
  -29.9180  -15.9250   21.9930 C   0  0  0  0  0  1  0  0  0  0  0  0
  -30.1340  -16.1700   20.5580 N   0  0  0  0  0  0  0  0  0  0  0  0
  -25.4560  -13.9070   20.4190 C   0  0  0  0  0  0  0  0  0  0  0  0
  -24.4200  -13.1170   20.8380 C   0  0  0  0  0  0  0  0  0  0  0  0
  -24.8730  -11.7690   20.7070 C   0  0  0  0  0  0  0  0  0  0  0  0
  -26.4700  -13.0400   20.0520 N   0  0  0  0  0  0  0  0  0  0  0  0
  -26.1340  -11.7450   20.2890 N   0  0  0  0  0  0  0  0  0  0  0  0
  -24.1590  -10.5000   20.8990 C   0  0  0  0  0  0  0  0  0  0  0  0
  -24.5930   -9.5400   21.8410 C   0  0  0  0  0  3  0  0  0  0  0  0
  -23.8760   -8.3380   22.0190 C   0  0  0  0  0  3  0  0  0  0  0  0
  -22.7100   -8.0860   21.2550 C   0  0  0  0  0  0  0  0  0  0  0  0
  -22.2960   -9.0350   20.3040 C   0  0  0  0  0  3  0  0  0  0  0  0
  -23.0140  -10.2290   20.1240 C   0  0  0  0  0  3  0  0  0  0  0  0
  -21.9630   -6.9360   21.3440 O   0  0  0  0  0  0  0  0  0  0  0  0
  -21.8290   -6.2550   22.5270 C   0  0  0  0  0  0  0  0  0  0  0  0
  -21.2870   -6.8630   23.6800 C   0  0  0  0  0  3  0  0  0  0  0  0
  -21.1040   -6.1050   24.8540 C   0  0  0  0  0  3  0  0  0  0  0  0
  -21.4500   -4.7400   24.8750 C   0  0  0  0  0  0  0  0  0  0  0  0
  -21.9850   -4.1330   23.7260 C   0  0  0  0  0  3  0  0  0  0  0  0
  -22.1710   -4.8880   22.5530 C   0  0  0  0  0  0  0  0  0  0  0  0
  -22.6680   -4.2920   21.4430 F   0  0  0  0  0  0  0  0  0  0  0  0
  -21.2650   -4.0100   25.9990 F   0  0  0  0  0  0  0  0  0  0  0  0
  -23.0540  -13.5840   21.2450 C   0  0  0  0  0  0  0  0  0  0  0  0
  -22.3970  -12.8540   22.1390 N   0  0  0  0  0  0  0  0  0  0  0  0
  -22.5810  -14.6320   20.8050 O   0  0  0  0  0  0  0  0  0  0  0  0
  -22.7990  -12.0070   22.5140 H   0  0  0  0  0  0  0  0  0  0  0  0
  -21.4830  -13.1460   22.4540 H   0  0  0  0  0  0  0  0  0  0  0  0
  -25.6160  -15.2840   20.2970 N   0  0  0  0  0  0  0  0  0  0  0  0
  -24.8690  -15.9370   20.5110 H   0  0  0  0  0  0  0  0  0  0  0  0
  -26.4540  -15.7360   19.9520 H   0  0  0  0  0  0  0  0  0  0  0  0
  -28.2620  -24.6920   20.2520 C   0  0  0  0  0  2  0  0  0  0  0  0
  -28.4060  -26.2530   20.2060 O   0  0  0  0  0  0  0  0  0  0  0  0
  -24.6850  -31.8920   23.1870 C   0  0  0  0  0  0  0  0  0  0  0  0
  -27.3040  -27.1860   20.1830 C   0  0  0  0  0  0  0  0  0  0  0  0
  -23.4900  -30.4740   21.5610 C   0  0  0  0  0  3  0  0  0  0  0  0
  -24.9480  -28.8960   20.1490 C   0  0  0  0  0  0  0  0  0  0  0  0
  -26.0390  -30.7660   21.3810 C   0  0  0  0  0  2  0  0  0  0  0  0
  -26.1250  -29.3670   20.7450 C   0  0  0  0  0  0  0  0  0  0  0  0
  -27.3050  -28.5290   20.7400 C   0  0  0  0  0  3  0  0  0  0  0  0
  -26.0970  -26.8120   19.5550 C   0  0  0  0  0  3  0  0  0  0  0  0
  -24.9470  -27.6320   19.5390 C   0  0  0  0  0  3  0  0  0  0  0  0
  -23.7130  -29.7850   20.1890 C   0  0  0  0  0  2  0  0  0  0  0  0
  -24.7580  -31.0650   22.0990 N   0  0  0  0  0  0  0  0  0  0  0  0
  -23.5990  -32.1690   23.7170 O   0  0  0  0  0  0  0  0  0  0  0  0
  -22.8220  -29.4690   22.5330 C   0  0  0  0  0  0  0  0  0  0  0  0
  -21.4940  -29.2940   22.4180 N   0  0  0  0  0  0  0  0  0  0  0  0
  -23.5020  -28.8470   23.3530 O   0  0  0  0  0  0  0  0  0  0  0  0
  -20.9980  -29.8480   21.7330 H   0  0  0  0  0  0  0  0  0  0  0  0
  -18.1200  -28.0870   22.9510 C   0  0  0  0  0  0  0  0  0  0  0  0
  -20.6810  -28.3590   23.2010 C   0  0  0  0  0  3  0  0  0  0  0  0
  -20.7830  -26.9240   22.6330 C   0  0  0  0  0  2  0  0  0  0  0  0
  -19.6760  -26.5920   21.6270 C   0  0  0  0  0  2  0  0  0  0  0  0
  -18.2980  -26.7360   22.2790 C   0  0  0  0  0  2  0  0  0  0  0  0
  -19.2390  -28.8560   23.3690 C   0  0  0  0  0  0  0  0  0  0  0  0
  -19.0200  -30.1190   23.9590 C   0  0  0  0  0  3  0  0  0  0  0  0
  -17.7140  -30.6160   24.1330 C   0  0  0  0  0  3  0  0  0  0  0  0
  -16.6090  -29.8440   23.7290 C   0  0  0  0  0  3  0  0  0  0  0  0
  -16.8140  -28.5820   23.1450 C   0  0  0  0  0  3  0  0  0  0  0  0
  -25.9610  -32.5420   23.8060 C   0  0  0  0  0  3  0  0  0  0  0  0
  -25.6340  -33.9360   24.1430 N   0  0  0  0  0  0  0  0  0  0  0  0
  -25.9630  -34.9980   23.3960 C   0  0  0  0  0  0  0  0  0  0  0  0
  -26.6390  -34.9070   22.3670 O   0  0  0  0  0  0  0  0  0  0  0  0
  -25.0380  -34.0800   24.9450 H   0  0  0  0  0  0  0  0  0  0  0  0
  -24.2350  -36.7920   23.0340 C   0  0  0  0  0  1  0  0  0  0  0  0
  -25.4650  -36.3810   23.8620 C   0  0  0  0  0  3  0  0  0  0  0  0
  -27.5780  -37.2660   24.7450 C   0  0  0  0  0  1  0  0  0  0  0  0
  -26.4960  -37.4380   23.7790 N   0  0  0  0  0  0  0  0  0  0  0  0
  -26.0830  -38.3550   23.9270 H   0  0  0  0  0  0  0  0  0  0  0  0
  -26.4870  -31.7780   25.0830 C   0  0  1  0  0  0  0  0  0  0  0  0
  -25.3990  -31.5330   26.1540 C   0  0  0  0  0  1  0  0  0  0  0  0
  -27.0840  -30.4070   24.6930 C   0  0  0  0  0  1  0  0  0  0  0  0
  -27.6280  -32.5870   25.7450 C   0  0  0  0  0  1  0  0  0  0  0  0
  1  2  2  0
  1  8  1  0
  2 48  1  0
  3  2  1  0
  4  6  2  0
  4  8  1  0
  5  7  1  0
  6  9  1  0
  8  5  2  0
  9 19  1  0
  9  7  2  0
 10 19  1  0
 11 16  1  0
 12 13  1  0
 12 11  1  0
 14 13  1  0
 14 23  1  0
 14 15  1  0
 16 10  1  0
 16 15  1  0
 17 10  2  0
 19 18  1  0
 20 21  2  0
 21 40  1  0
 22 21  1  0
 22 25  1  0
 23 24  1  0
 23 20  1  0
 24 22  2  0
 25 26  1  0
 26 27  2  0
 28 31  1  0
 28 27  1  0
 29 28  2  0
 30 29  1  0
 30 25  2  0
 31 32  1  0
 32 37  2  0
 32 33  1  0
 33 34  2  0
 34 35  1  0
 35 39  1  0
 36 35  2  0
 37 36  1  0
 38 37  1  0
 40 41  1  0
 41 44  1  0
 41 43  1  0
 42 40  2  0
 45 20  1  0
 45 46  1  0
 47 45  1  0
 49 48  1  0
 50 61  2  0
 51 49  1  0
 51 56  1  0
 52 60  1  0
 52 62  1  0
 53 59  1  0
 53 55  1  0
 54 60  1  0
 55 54  1  0
 56 55  2  0
 57 51  2  0
 58 57  1  0
 58 53  2  0
 59 52  1  0
 60 50  1  0
 62 64  2  0
 63 62  1  0
 65 63  1  0
 66 75  2  0
 66 71  1  0
 67 63  1  0
 67 71  1  0
 68 67  1  0
 69 70  1  0
 69 68  1  0
 70 66  1  0
 71 72  2  0
 72 73  1  0
 74 73  2  0
 75 74  1  0
 76 50  1  0
 76 77  1  0
 76 86  1  0
 77 80  1  0
 78 82  1  0
 78 77  1  0
 79 78  2  0
 82 81  1  0
 84 82  1  0
 84 85  1  0
 84 83  1  0
 86 89  1  1
 86 87  1  0
 88 86  1  0
M  ISO  4  10 100  19 100  48 101  49 101
M  END
>  <TORSDO>  (25) 
F 18

>  <SCORE>  (25) 
-13.597

>  <name>  (25) 
24

>  <ligand_id>  (25) 
24

>  <original_smiles>  (25) 
[H]C(=C(C([H])([H])[H])C([H])([H])Oc1c([H])c([H])c2c(c1[H])C([H])([H])N(C(=O)C([H])(N([H])C(=O)C([H])(N([H])C([H])([H])[H])C([H])([H])[H])C(C([H])([H])[H])(C([H])([H])[H])C([H])([H])[H])C([H])(C(=O)N([H])C1([H])c3c([H])c([H])c([H])c([H])c3C([H])([H])C([H])([H])C1([H])[H])C2([H])[H])c1c([H])c([H])c(N(C(=O)N2C([H])([H])C([H])([H])C([H])([H])C([H])(n3nc(-c4c([H])c([H])c(Oc5c([H])c([H])c(F)c([H])c5F)c([H])c4[H])c(C(=O)N([H])[H])c3N([H])[H])C2([H])[H])C([H])([H])[H])c([H])c1[H]

>  <smiles>  (25) 
[H]C(=C(C([H])([H])[H])C([H])([H])Oc1c([H])c([H])c2c(c1[H])C([H])([H])N(C(=O)C([H])(N([H])C(=O)C([H])(N([H])C([H])([H])[H])C([H])([H])[H])C(C([H])([H])[H])(C([H])([H])[H])C([H])([H])[H])C([H])(C(=O)N([H])C1([H])c3c([H])c([H])c([H])c([H])c3C([H])([H])C([H])([H])C1([H])[H])C2([H])[H])c1c([H])c([H])c(N(C(=O)N2C([H])([H])C([H])([H])C([H])([H])C([H])(n3nc(-c4c([H])c([H])c(Oc5c([H])c([H])c(F)c([H])c5F)c([H])c4[H])c(C(=O)N([H])[H])c3N([H])[H])C2([H])[H])C([H])([H])[H])c([H])c1[H]

$$$$
25:0:0
     RDKit          3D

100109  0  0  1  0  0  0  0  0999 V2000
  -26.3070  -21.1730   20.5380 C   0  0  0  0  0  3  0  0  0  0  0  0
  -27.1130  -20.1560   19.9880 C   0  0  0  0  0  3  0  0  0  0  0  0
  -28.2970  -22.2650   21.4310 C   0  0  0  0  0  3  0  0  0  0  0  0
  -26.8960  -22.2330   21.2630 C   0  0  0  0  0  0  0  0  0  0  0  0
  -28.5150  -20.1950   20.1500 C   0  0  0  0  0  0  0  0  0  0  0  0
  -29.1080  -21.2610   20.8720 C   0  0  0  0  0  0  0  0  0  0  0  0
  -30.8210  -21.3760   21.0760 Cl  0  0  0  0  0  0  0  0  0  0  0  0
  -29.6430  -18.0980   20.3770 C   0  0  0  0  0  0  0  0  0  0  0  0
  -29.3260  -19.1630   19.5950 N   0  0  0  0  0  0  0  0  0  0  0  0
  -29.0020  -17.8030   21.3940 O   0  0  0  0  0  0  0  0  0  0  0  0
  -29.5420  -18.6620   17.0930 C   0  0  0  0  0  2  0  0  0  0  0  0
  -29.2310  -20.1320   17.2070 C   0  0  0  0  0  2  0  0  0  0  0  0
  -29.9710  -19.4270   18.3320 C   0  0  0  0  0  3  0  0  0  0  0  0
  -30.8250  -17.1930   20.0050 C   0  0  0  0  0  2  0  0  0  0  0  0
  -31.1670  -14.7660   19.8360 C   0  0  0  0  0  0  0  0  0  0  0  0
  -30.8410  -12.4930   18.9650 C   0  0  0  0  0  2  0  0  0  0  0  0
  -29.8610  -12.5610   17.7760 C   0  0  0  0  0  2  0  0  0  0  0  0
  -28.4030  -12.4650   18.2650 C   0  0  0  0  0  2  0  0  0  0  0  0
  -28.0960  -13.4420   19.4310 C   0  0  0  0  0  3  0  0  0  0  0  0
  -29.1870  -13.3620   20.5240 C   0  0  0  0  0  2  0  0  0  0  0  0
  -30.4950  -13.5870   19.8840 N   0  0  0  0  0  0  0  0  0  0  0  0
  -32.2260  -14.9210   19.2250 O   0  0  0  0  0  0  0  0  0  0  0  0
  -30.5370  -15.8090   20.3770 N   0  0  0  0  0  0  0  0  0  0  0  0
  -29.6750  -15.6510   20.8780 H   0  0  0  0  0  0  0  0  0  0  0  0
  -25.7770  -14.1310   20.3140 C   0  0  0  0  0  0  0  0  0  0  0  0
  -24.6980  -13.3910   20.7190 C   0  0  0  0  0  0  0  0  0  0  0  0
  -25.0880  -12.0230   20.5960 C   0  0  0  0  0  0  0  0  0  0  0  0
  -26.7630  -13.2120   19.9810 N   0  0  0  0  0  0  0  0  0  0  0  0
  -26.3520  -11.9380   20.2020 N   0  0  0  0  0  0  0  0  0  0  0  0
  -24.3120  -10.7880   20.7760 C   0  0  0  0  0  0  0  0  0  0  0  0
  -24.7170   -9.7890   21.6880 C   0  0  0  0  0  3  0  0  0  0  0  0
  -23.9450   -8.6180   21.8590 C   0  0  0  0  0  3  0  0  0  0  0  0
  -22.7530   -8.4410   21.1160 C   0  0  0  0  0  0  0  0  0  0  0  0
  -22.3670   -9.4280   20.1940 C   0  0  0  0  0  3  0  0  0  0  0  0
  -23.1370  -10.5900   20.0220 C   0  0  0  0  0  3  0  0  0  0  0  0
  -21.9540   -7.3270   21.1970 O   0  0  0  0  0  0  0  0  0  0  0  0
  -21.8300   -6.6140   22.3620 C   0  0  0  0  0  0  0  0  0  0  0  0
  -21.3780   -7.2110   23.5580 C   0  0  0  0  0  3  0  0  0  0  0  0
  -21.1990   -6.4260   24.7150 C   0  0  0  0  0  3  0  0  0  0  0  0
  -21.4580   -5.0420   24.6740 C   0  0  0  0  0  0  0  0  0  0  0  0
  -21.9030   -4.4440   23.4820 C   0  0  0  0  0  3  0  0  0  0  0  0
  -22.0850   -5.2280   22.3280 C   0  0  0  0  0  0  0  0  0  0  0  0
  -22.4930   -4.6430   21.1770 F   0  0  0  0  0  0  0  0  0  0  0  0
  -21.2790   -4.2850   25.7810 F   0  0  0  0  0  0  0  0  0  0  0  0
  -23.3470  -13.9190   21.1090 C   0  0  0  0  0  0  0  0  0  0  0  0
  -22.6530  -13.2280   22.0060 N   0  0  0  0  0  0  0  0  0  0  0  0
  -22.9200  -14.9780   20.6510 O   0  0  0  0  0  0  0  0  0  0  0  0
  -23.0080  -12.3700   22.3970 H   0  0  0  0  0  0  0  0  0  0  0  0
  -21.7500  -13.5660   22.3050 H   0  0  0  0  0  0  0  0  0  0  0  0
  -25.9940  -15.5000   20.1890 N   0  0  0  0  0  0  0  0  0  0  0  0
  -25.2660  -16.1790   20.3820 H   0  0  0  0  0  0  0  0  0  0  0  0
  -26.8520  -15.9240   19.8600 H   0  0  0  0  0  0  0  0  0  0  0  0
  -26.0310  -23.3220   21.8790 C   0  0  0  0  0  2  0  0  0  0  0  0
  -25.8220  -24.4730   20.9730 N   0  0  0  0  0  4  0  0  0  0  0  0
  -24.9480  -24.8920   21.2560 H   0  0  0  0  0  0  0  0  0  0  0  0
  -25.6860  -24.1400   20.0320 H   0  0  0  0  0  0  0  0  0  0  0  0
  -26.8360  -25.5580   21.0120 C   0  0  0  0  0  2  0  0  0  0  0  0
  -27.9470  -25.4280   19.9440 C   0  0  0  0  0  2  0  0  0  0  0  0
  -28.7590  -26.7220   19.6960 C   0  0  0  0  0  2  0  0  0  0  0  0
  -28.2510  -27.5130   18.6210 O   0  0  0  0  0  0  0  0  0  0  0  0
  -24.5110  -31.7890   22.9030 C   0  0  0  0  0  0  0  0  0  0  0  0
  -27.0650  -28.1460   18.8820 C   0  0  0  0  0  0  0  0  0  0  0  0
  -23.2190  -30.5770   21.1770 C   0  0  0  0  0  3  0  0  0  0  0  0
  -24.6000  -29.4140   19.3750 C   0  0  0  0  0  0  0  0  0  0  0  0
  -25.6760  -31.1720   20.7900 C   0  0  0  0  0  2  0  0  0  0  0  0
  -25.7780  -29.9280   19.9340 C   0  0  0  0  0  0  0  0  0  0  0  0
  -27.0170  -29.2990   19.6950 C   0  0  0  0  0  3  0  0  0  0  0  0
  -25.8780  -27.6440   18.3110 C   0  0  0  0  0  3  0  0  0  0  0  0
  -24.6400  -28.2660   18.5660 C   0  0  0  0  0  3  0  0  0  0  0  0
  -23.3170  -30.1500   19.6900 C   0  0  0  0  0  2  0  0  0  0  0  0
  -24.4920  -31.1820   21.6830 N   0  0  0  0  0  0  0  0  0  0  0  0
  -23.4830  -31.8830   23.5890 O   0  0  0  0  0  0  0  0  0  0  0  0
  -22.7480  -29.3630   22.0090 C   0  0  0  0  0  0  0  0  0  0  0  0
  -21.4350  -29.0840   21.9690 N   0  0  0  0  0  0  0  0  0  0  0  0
  -23.5560  -28.6800   22.6440 O   0  0  0  0  0  0  0  0  0  0  0  0
  -20.8350  -29.6960   21.4330 H   0  0  0  0  0  0  0  0  0  0  0  0
  -18.2410  -27.4750   22.4720 C   0  0  0  0  0  0  0  0  0  0  0  0
  -20.7740  -27.9660   22.6390 C   0  0  0  0  0  3  0  0  0  0  0  0
  -20.9790  -26.6460   21.8600 C   0  0  0  0  0  2  0  0  0  0  0  0
  -19.8420  -26.3270   20.8820 C   0  0  0  0  0  2  0  0  0  0  0  0
  -18.5010  -26.2510   21.6140 C   0  0  0  0  0  2  0  0  0  0  0  0
  -19.3050  -28.2890   22.9420 C   0  0  0  0  0  0  0  0  0  0  0  0
  -19.0010  -29.4330   23.7120 C   0  0  0  0  0  3  0  0  0  0  0  0
  -17.6670  -29.7680   24.0110 C   0  0  0  0  0  3  0  0  0  0  0  0
  -16.6200  -28.9530   23.5500 C   0  0  0  0  0  3  0  0  0  0  0  0
  -16.9070  -27.8090   22.7860 C   0  0  0  0  0  3  0  0  0  0  0  0
  -25.8140  -32.4170   23.4880 C   0  0  0  0  0  3  0  0  0  0  0  0
  -25.4700  -33.7470   24.0070 N   0  0  0  0  0  0  0  0  0  0  0  0
  -25.7140  -34.8990   23.3690 C   0  0  0  0  0  0  0  0  0  0  0  0
  -26.3240  -34.9540   22.2970 O   0  0  0  0  0  0  0  0  0  0  0  0
  -24.9190  -33.7780   24.8550 H   0  0  0  0  0  0  0  0  0  0  0  0
  -23.9030  -36.6380   23.3290 C   0  0  0  0  0  1  0  0  0  0  0  0
  -25.2020  -36.1950   24.0220 C   0  0  0  0  0  3  0  0  0  0  0  0
  -27.3470  -37.0590   24.8470 C   0  0  0  0  0  1  0  0  0  0  0  0
  -26.1860  -37.2990   23.9930 N   0  0  0  0  0  0  0  0  0  0  0  0
  -25.7560  -38.1760   24.2790 H   0  0  0  0  0  0  0  0  0  0  0  0
  -26.4790  -31.5270   24.6090 C   0  0  1  0  0  0  0  0  0  0  0  0
  -25.5030  -31.1070   25.7330 C   0  0  0  0  0  1  0  0  0  0  0  0
  -27.0760  -30.2400   23.9970 C   0  0  0  0  0  1  0  0  0  0  0  0
  -27.6550  -32.2960   25.2570 C   0  0  0  0  0  1  0  0  0  0  0  0
  1  4  1  0
  2  5  1  0
  2  1  2  0
  4  3  2  0
  4 53  1  0
  5  6  2  0
  6  7  1  0
  6  3  1  0
  8 10  2  0
  9  5  1  0
  9  8  1  0
 11 12  1  0
 11 13  1  0
 12 13  1  0
 13  9  1  0
 14 23  1  0
 14  8  1  0
 15 21  1  0
 15 23  1  0
 16 21  1  0
 17 18  1  0
 17 16  1  0
 19 18  1  0
 19 28  1  0
 19 20  1  0
 21 20  1  0
 22 15  2  0
 23 24  1  0
 25 26  2  0
 26 45  1  0
 27 26  1  0
 27 30  1  0
 28 29  1  0
 28 25  1  0
 29 27  2  0
 30 31  1  0
 31 32  2  0
 33 36  1  0
 33 32  1  0
 34 33  2  0
 35 34  1  0
 35 30  2  0
 36 37  1  0
 37 38  1  0
 38 39  2  0
 40 39  1  0
 40 44  1  0
 41 40  2  0
 42 37  2  0
 42 41  1  0
 43 42  1  0
 45 46  1  0
 46 49  1  0
 46 48  1  0
 47 45  2  0
 50 25  1  0
 50 51  1  0
 52 50  1  0
 54 57  1  0
 54 55  1  0
 54 53  1  0
 56 54  1  0
 58 57  1  0
 59 58  1  0
 60 62  1  0
 60 59  1  0
 61 72  2  0
 62 67  1  0
 63 71  1  0
 63 73  1  0
 64 70  1  0
 64 66  1  0
 65 71  1  0
 66 65  1  0
 67 66  2  0
 68 69  1  0
 68 62  2  0
 69 64  2  0
 70 63  1  0
 71 61  1  0
 73 75  2  0
 74 73  1  0
 76 74  1  0
 77 86  2  0
 77 82  1  0
 78 74  1  0
 78 82  1  0
 79 78  1  0
 80 81  1  0
 80 79  1  0
 81 77  1  0
 82 83  2  0
 83 84  1  0
 85 84  2  0
 86 85  1  0
 87 61  1  0
 87 88  1  0
 87 97  1  0
 88 91  1  0
 89 88  1  0
 89 93  1  0
 90 89  2  0
 93 92  1  0
 95 93  1  0
 95 96  1  0
 95 94  1  0
 97100  1  1
 97 98  1  0
 99 97  1  0
M  ISO  4  15 100  23 100  59 101  60 101
M  END
>  <TORSDO>  (26) 
F 24

>  <SCORE>  (26) 
-8.106

>  <name>  (26) 
25

>  <ligand_id>  (26) 
25

>  <original_smiles>  (26) 
[H]c1c([H])c([H])c2c(c1[H])C([H])([H])C([H])([H])C([H])([H])C2([H])N([H])C(=O)C1([H])N(C(=O)C([H])(N([H])C(=O)C([H])(N([H])C([H])([H])[H])C([H])([H])[H])C(C([H])([H])[H])(C([H])([H])[H])C([H])([H])[H])C([H])([H])c2c([H])c(OC([H])([H])C([H])([H])C([H])([H])[N+]([H])([H])C([H])([H])c3c([H])c([H])c(N(C(=O)C([H])([H])N([H])C(=O)N4C([H])([H])C([H])([H])C([H])([H])C([H])(n5nc(-c6c([H])c([H])c(Oc7c([H])c([H])c(F)c([H])c7F)c([H])c6[H])c(C(=O)N([H])[H])c5N([H])[H])C4([H])[H])C4([H])C([H])([H])C4([H])[H])c(Cl)c3[H])c([H])c([H])c2C1([H])[H]

>  <smiles>  (26) 
[H]c1c([H])c([H])c2c(c1[H])C([H])([H])C([H])([H])C([H])([H])C2([H])N([H])C(=O)C1([H])N(C(=O)C([H])(N([H])C(=O)C([H])(N([H])C([H])([H])[H])C([H])([H])[H])C(C([H])([H])[H])(C([H])([H])[H])C([H])([H])[H])C([H])([H])c2c([H])c(OC([H])([H])C([H])([H])C([H])([H])[N+]([H])([H])C([H])([H])c3c([H])c([H])c(N(C(=O)C([H])([H])N([H])C(=O)N4C([H])([H])C([H])([H])C([H])([H])C([H])(n5nc(-c6c([H])c([H])c(Oc7c([H])c([H])c(F)c([H])c7F)c([H])c6[H])c(C(=O)N([H])[H])c5N([H])[H])C4([H])[H])C4([H])C([H])([H])C4([H])[H])c(Cl)c3[H])c([H])c([H])c2C1([H])[H]

$$$$
26:0:0
     RDKit          3D

100109  0  0  1  0  0  0  0  0999 V2000
  -32.8830  -20.7920   22.8170 C   0  0  0  0  0  2  0  0  0  0  0  0
  -32.4030  -22.0770   22.1410 C   0  0  0  0  0  2  0  0  0  0  0  0
  -32.1160  -19.7100   22.0630 C   0  0  0  0  0  2  0  0  0  0  0  0
  -32.0730  -21.6790   20.6830 C   0  0  0  0  0  3  0  0  0  0  0  0
  -32.0310  -20.1960   20.6680 N   0  0  2  0  0  4  0  0  0  0  0  0
  -32.9050  -19.9480   20.2210 H   0  0  0  0  0  0  0  0  0  0  0  0
  -33.1650  -22.1500   19.6960 C   0  0  0  0  0  0  0  0  0  0  0  0
  -34.2080  -23.8440   18.2630 C   0  0  0  0  0  1  0  0  0  0  0  0
  -33.0670  -23.3410   19.0460 N   0  0  0  0  0  0  0  0  0  0  0  0
  -34.1210  -21.3850   19.5250 O   0  0  0  0  0  0  0  0  0  0  0  0
  -31.8330  -24.1580   19.0340 C   0  0  0  0  0  2  0  0  0  0  0  0
  -31.7700  -25.2600   17.9500 C   0  0  0  0  0  2  0  0  0  0  0  0
  -30.3860  -25.9150   17.8330 C   0  0  0  0  0  2  0  0  0  0  0  0
  -30.0410  -26.5020   19.0800 O   0  0  0  0  0  0  0  0  0  0  0  0
  -25.6530  -30.0240   23.3980 C   0  0  0  0  0  0  0  0  0  0  0  0
  -28.8220  -27.1350   19.1880 C   0  0  0  0  0  0  0  0  0  0  0  0
  -24.7150  -29.4300   21.1860 C   0  0  0  0  0  3  0  0  0  0  0  0
  -26.3870  -28.5440   19.4780 C   0  0  0  0  0  0  0  0  0  0  0  0
  -27.2300  -29.7730   21.4870 C   0  0  0  0  0  2  0  0  0  0  0  0
  -27.4370  -28.7650   20.3770 C   0  0  0  0  0  0  0  0  0  0  0  0
  -28.6510  -28.0600   20.2380 C   0  0  0  0  0  3  0  0  0  0  0  0
  -27.7450  -26.9080   18.2970 C   0  0  0  0  0  3  0  0  0  0  0  0
  -26.5330  -27.6090   18.4390 C   0  0  0  0  0  3  0  0  0  0  0  0
  -25.1260  -29.3480   19.6910 C   0  0  0  0  0  2  0  0  0  0  0  0
  -25.8760  -29.7320   22.0860 N   0  0  0  0  0  0  0  0  0  0  0  0
  -24.5020  -30.0880   23.8520 O   0  0  0  0  0  0  0  0  0  0  0  0
  -23.9730  -28.1290   21.5620 C   0  0  0  0  0  0  0  0  0  0  0  0
  -22.6590  -28.0920   21.2880 N   0  0  0  0  0  0  0  0  0  0  0  0
  -24.5780  -27.1750   22.0600 O   0  0  0  0  0  0  0  0  0  0  0  0
  -22.2350  -28.9190   20.8900 H   0  0  0  0  0  0  0  0  0  0  0  0
  -19.2110  -27.0320   21.1210 C   0  0  0  0  0  0  0  0  0  0  0  0
  -21.7630  -26.9590   21.5170 C   0  0  0  0  0  3  0  0  0  0  0  0
  -21.8160  -25.9600   20.3390 C   0  0  0  0  0  2  0  0  0  0  0  0
  -20.7440  -26.2210   19.2770 C   0  0  0  0  0  2  0  0  0  0  0  0
  -19.3460  -26.1430   19.8950 C   0  0  0  0  0  2  0  0  0  0  0  0
  -20.3480  -27.4270   21.8720 C   0  0  0  0  0  0  0  0  0  0  0  0
  -20.1730  -28.2830   22.9810 C   0  0  0  0  0  3  0  0  0  0  0  0
  -18.8910  -28.7390   23.3430 C   0  0  0  0  0  3  0  0  0  0  0  0
  -17.7660  -28.3310   22.6050 C   0  0  0  0  0  3  0  0  0  0  0  0
  -17.9270  -27.4760   21.5000 C   0  0  0  0  0  3  0  0  0  0  0  0
  -26.8290  -30.3160   24.3830 C   0  0  0  0  0  3  0  0  0  0  0  0
  -26.5030  -31.5530   25.1050 N   0  0  0  0  0  0  0  0  0  0  0  0
  -27.0120  -32.7580   24.8130 C   0  0  0  0  0  0  0  0  0  0  0  0
  -27.8690  -32.9310   23.9430 O   0  0  0  0  0  0  0  0  0  0  0  0
  -25.7680  -31.4950   25.7940 H   0  0  0  0  0  0  0  0  0  0  0  0
  -25.4520  -34.7280   24.7720 C   0  0  0  0  0  1  0  0  0  0  0  0
  -26.4850  -33.9620   25.6140 C   0  0  0  0  0  3  0  0  0  0  0  0
  -28.4170  -34.3220   27.0860 C   0  0  0  0  0  1  0  0  0  0  0  0
  -27.5510  -34.8870   26.0560 N   0  0  0  0  0  0  0  0  0  0  0  0
  -27.1520  -35.7510   26.4150 H   0  0  0  0  0  0  0  0  0  0  0  0
  -27.1020  -29.1330   25.3910 C   0  0  1  0  0  0  0  0  0  0  0  0
  -25.8390  -28.6540   26.1460 C   0  0  0  0  0  1  0  0  0  0  0  0
  -27.7000  -27.9150   24.6500 C   0  0  0  0  0  1  0  0  0  0  0  0
  -28.1510  -29.5710   26.4420 C   0  0  0  0  0  1  0  0  0  0  0  0
  -30.9290  -19.6240   19.8600 C   0  0  0  0  0  2  0  0  0  0  0  0
  -30.9590  -17.2760   18.8930 C   0  0  0  0  0  3  0  0  0  0  0  0
  -30.8480  -15.8810   19.0320 C   0  0  0  0  0  3  0  0  0  0  0  0
  -30.5760  -17.5450   21.2840 C   0  0  0  0  0  3  0  0  0  0  0  0
  -30.8260  -18.1150   20.0190 C   0  0  0  0  0  0  0  0  0  0  0  0
  -30.6010  -15.3030   20.3010 C   0  0  0  0  0  0  0  0  0  0  0  0
  -30.4550  -16.1490   21.4260 C   0  0  0  0  0  0  0  0  0  0  0  0
  -30.1150  -15.4840   22.9860 Cl  0  0  0  0  0  0  0  0  0  0  0  0
  -30.8910  -12.8790   19.7870 C   0  0  0  0  0  0  0  0  0  0  0  0
  -30.4190  -10.5800   19.0350 C   0  0  0  0  0  2  0  0  0  0  0  0
  -29.4190  -10.6170   17.8640 C   0  0  0  0  0  2  0  0  0  0  0  0
  -27.9670  -10.6460   18.3810 C   0  0  0  0  0  2  0  0  0  0  0  0
  -27.7450  -11.7230   19.4740 C   0  0  0  0  0  3  0  0  0  0  0  0
  -28.8420  -11.6290   20.5570 C   0  0  0  0  0  2  0  0  0  0  0  0
  -30.1580  -11.7420   19.8960 N   0  0  0  0  0  0  0  0  0  0  0  0
  -31.9150  -12.9580   19.0990 O   0  0  0  0  0  0  0  0  0  0  0  0
  -30.4200  -13.9090   20.5020 N   0  0  0  0  0  0  0  0  0  0  0  0
  -29.7220  -13.6710   21.1910 H   0  0  0  0  0  0  0  0  0  0  0  0
  -25.5180  -12.6360   20.3960 C   0  0  0  0  0  0  0  0  0  0  0  0
  -24.3830  -12.0060   20.8340 C   0  0  0  0  0  0  0  0  0  0  0  0
  -24.6430  -10.6050   20.7240 C   0  0  0  0  0  0  0  0  0  0  0  0
  -26.4060  -11.6270   20.0540 N   0  0  0  0  0  0  0  0  0  0  0  0
  -25.8840  -10.3980   20.3030 N   0  0  0  0  0  0  0  0  0  0  0  0
  -23.7630   -9.4500   20.9410 C   0  0  0  0  0  0  0  0  0  0  0  0
  -23.9180   -8.6030   22.0600 C   0  0  0  0  0  3  0  0  0  0  0  0
  -23.0490   -7.5090   22.2570 C   0  0  0  0  0  3  0  0  0  0  0  0
  -22.0100   -7.2540   21.3320 C   0  0  0  0  0  0  0  0  0  0  0  0
  -21.8730   -8.0860   20.2060 C   0  0  0  0  0  3  0  0  0  0  0  0
  -22.7420   -9.1720   20.0100 C   0  0  0  0  0  3  0  0  0  0  0  0
  -21.1340   -6.1990   21.4260 O   0  0  0  0  0  0  0  0  0  0  0  0
  -20.5070   -5.8880   22.6070 C   0  0  0  0  0  0  0  0  0  0  0  0
  -19.6670   -6.8090   23.2690 C   0  0  0  0  0  3  0  0  0  0  0  0
  -18.9880   -6.4250   24.4420 C   0  0  0  0  0  3  0  0  0  0  0  0
  -19.1390   -5.1200   24.9500 C   0  0  0  0  0  0  0  0  0  0  0  0
  -19.9710   -4.2000   24.2880 C   0  0  0  0  0  3  0  0  0  0  0  0
  -20.6510   -4.5830   23.1180 C   0  0  0  0  0  0  0  0  0  0  0  0
  -21.4350   -3.6850   22.4730 F   0  0  0  0  0  0  0  0  0  0  0  0
  -18.4810   -4.7480   26.0710 F   0  0  0  0  0  0  0  0  0  0  0  0
  -23.0960  -12.6610   21.2440 C   0  0  0  0  0  0  0  0  0  0  0  0
  -22.3810  -12.0690   22.1940 N   0  0  0  0  0  0  0  0  0  0  0  0
  -22.7410  -13.7330   20.7550 O   0  0  0  0  0  0  0  0  0  0  0  0
  -22.6820  -11.2000   22.6100 H   0  0  0  0  0  0  0  0  0  0  0  0
  -21.5200  -12.4910   22.5100 H   0  0  0  0  0  0  0  0  0  0  0  0
  -25.8630  -13.9750   20.2440 N   0  0  0  0  0  0  0  0  0  0  0  0
  -25.2140  -14.7300   20.4390 H   0  0  0  0  0  0  0  0  0  0  0  0
  -26.7460  -14.3000   19.8710 H   0  0  0  0  0  0  0  0  0  0  0  0
  2  1  1  0
  3  1  1  0
  4  7  1  0
  4  2  1  0
  5  4  1  0
  5  3  1  0
  5  6  1  6
  8  9  1  0
  9  7  1  0
 10  7  2  0
 11  9  1  0
 12 11  1  0
 13 12  1  0
 13 14  1  0
 14 16  1  0
 15 26  2  0
 16 21  1  0
 17 27  1  0
 17 25  1  0
 18 24  1  0
 18 20  1  0
 19 25  1  0
 20 19  1  0
 21 20  2  0
 22 23  1  0
 22 16  2  0
 23 18  2  0
 24 17  1  0
 25 15  1  0
 27 29  2  0
 28 27  1  0
 30 28  1  0
 31 40  2  0
 31 36  1  0
 32 28  1  0
 32 36  1  0
 33 32  1  0
 34 35  1  0
 34 33  1  0
 35 31  1  0
 36 37  2  0
 37 38  1  0
 39 38  2  0
 40 39  1  0
 41 15  1  0
 41 42  1  0
 41 51  1  0
 42 45  1  0
 43 42  1  0
 43 47  1  0
 44 43  2  0
 47 46  1  0
 47 49  1  0
 49 50  1  0
 49 48  1  0
 51 52  1  1
 51 54  1  0
 53 51  1  0
 55 59  1  0
 55  5  1  0
 56 57  2  0
 56 59  1  0
 57 60  1  0
 58 61  1  0
 59 58  2  0
 60 71  1  0
 60 61  2  0
 61 62  1  0
 63 69  1  0
 63 71  1  0
 64 69  1  0
 65 66  1  0
 65 64  1  0
 67 66  1  0
 67 76  1  0
 67 68  1  0
 69 68  1  0
 70 63  2  0
 71 72  1  0
 73 74  2  0
 74 93  1  0
 75 74  1  0
 75 78  1  0
 76 77  1  0
 76 73  1  0
 77 75  2  0
 78 79  1  0
 79 80  2  0
 81 84  1  0
 81 80  1  0
 82 81  2  0
 83 82  1  0
 83 78  2  0
 84 85  1  0
 85 90  2  0
 85 86  1  0
 86 87  2  0
 87 88  1  0
 88 92  1  0
 89 88  2  0
 90 89  1  0
 91 90  1  0
 93 94  1  0
 94 97  1  0
 94 96  1  0
 95 93  2  0
 98 73  1  0
 98 99  1  0
100 98  1  0
M  ISO  4  13 101  14 101  63 100  71 100
M  END
>  <TORSDO>  (27) 
F 22

>  <SCORE>  (27) 
-4.469

>  <name>  (27) 
26

>  <ligand_id>  (27) 
26

>  <original_smiles>  (27) 
[H]c1c([H])c([H])c2c(c1[H])C([H])([H])C([H])([H])C([H])([H])C2([H])N([H])C(=O)C1([H])N(C(=O)C([H])(N([H])C(=O)C([H])(N([H])C([H])([H])[H])C([H])([H])[H])C(C([H])([H])[H])(C([H])([H])[H])C([H])([H])[H])C([H])([H])c2c([H])c(OC([H])([H])C([H])([H])C([H])([H])N(C(=O)C3([H])C([H])([H])C([H])([H])C([H])([H])[N+]3([H])C([H])([H])c3c([H])c([H])c(N([H])C(=O)N4C([H])([H])C([H])([H])C([H])([H])C([H])(n5nc(-c6c([H])c([H])c(Oc7c([H])c([H])c(F)c([H])c7F)c([H])c6[H])c(C(=O)N([H])[H])c5N([H])[H])C4([H])[H])c(Cl)c3[H])C([H])([H])[H])c([H])c([H])c2C1([H])[H]

>  <smiles>  (27) 
[H]c1c([H])c([H])c2c(c1[H])C([H])([H])C([H])([H])C([H])([H])C2([H])N([H])C(=O)C1([H])N(C(=O)C([H])(N([H])C(=O)C([H])(N([H])C([H])([H])[H])C([H])([H])[H])C(C([H])([H])[H])(C([H])([H])[H])C([H])([H])[H])C([H])([H])c2c([H])c(OC([H])([H])C([H])([H])C([H])([H])N(C(=O)C3([H])C([H])([H])C([H])([H])C([H])([H])[N+]3([H])C([H])([H])c3c([H])c([H])c(N([H])C(=O)N4C([H])([H])C([H])([H])C([H])([H])C([H])(n5nc(-c6c([H])c([H])c(Oc7c([H])c([H])c(F)c([H])c7F)c([H])c6[H])c(C(=O)N([H])[H])c5N([H])[H])C4([H])[H])c(Cl)c3[H])C([H])([H])[H])c([H])c([H])c2C1([H])[H]

$$$$
27:0:0
     RDKit          3D

 93101  0  0  1  0  0  0  0  0999 V2000
  -29.8600  -22.6600   19.1350 C   0  0  0  0  0  3  0  0  0  0  0  0
  -30.2670  -21.2730   19.2710 C   0  0  0  0  0  3  0  0  0  0  0  0
  -27.7090  -22.1090   19.9530 C   0  0  0  0  0  3  0  0  0  0  0  0
  -28.5580  -23.1580   19.4800 C   0  0  0  0  0  0  0  0  0  0  0  0
  -29.4080  -20.2280   19.7430 C   0  0  0  0  0  0  0  0  0  0  0  0
  -28.0930  -20.7200   20.0660 C   0  0  0  0  0  0  0  0  0  0  0  0
  -30.6290  -18.9840   21.3290 C   0  0  0  0  0  1  0  0  0  0  0  0
  -29.8220  -18.8590   20.1140 N   0  0  0  0  0  0  0  0  0  0  0  0
  -30.0500  -17.5550   19.3050 C   0  0  0  0  0  2  0  0  0  0  0  0
  -29.8740  -16.0100   21.4530 C   0  0  0  0  0  1  0  0  0  0  0  0
  -29.6950  -16.0360   19.9250 C   0  0  1  0  0  0  0  0  0  0  0  0
  -28.3790  -15.9400   19.7280 F   0  0  0  0  0  0  0  0  0  0  0  0
  -30.3970  -14.6430   19.3800 C   0  0  0  0  0  0  0  0  0  0  0  0
  -30.1680  -12.2910   18.4700 C   0  0  0  0  0  2  0  0  0  0  0  0
  -29.0960  -12.2620   17.3550 C   0  0  0  0  0  2  0  0  0  0  0  0
  -27.6880  -12.0630   17.9490 C   0  0  0  0  0  2  0  0  0  0  0  0
  -27.4230  -12.9980   19.1560 C   0  0  0  0  0  3  0  0  0  0  0  0
  -28.5990  -12.9880   20.1550 C   0  0  0  0  0  2  0  0  0  0  0  0
  -29.8100  -13.3810   19.4190 N   0  0  0  0  0  0  0  0  0  0  0  0
  -31.5110  -14.7230   18.8500 O   0  0  0  0  0  0  0  0  0  0  0  0
  -25.1370  -13.5980   20.1510 C   0  0  0  0  0  0  0  0  0  0  0  0
  -24.1210  -12.8280   20.6450 C   0  0  0  0  0  0  0  0  0  0  0  0
  -24.5810  -11.4760   20.5800 C   0  0  0  0  0  0  0  0  0  0  0  0
  -26.1470  -12.7150   19.8050 N   0  0  0  0  0  0  0  0  0  0  0  0
  -25.8270  -11.4340   20.1260 N   0  0  0  0  0  0  0  0  0  0  0  0
  -23.8830  -10.2170   20.8680 C   0  0  0  0  0  0  0  0  0  0  0  0
  -24.3530   -9.3200   21.8520 C   0  0  0  0  0  3  0  0  0  0  0  0
  -23.6540   -8.1230   22.1240 C   0  0  0  0  0  3  0  0  0  0  0  0
  -22.4700   -7.8170   21.4130 C   0  0  0  0  0  0  0  0  0  0  0  0
  -22.0170   -8.7030   20.4200 C   0  0  0  0  0  3  0  0  0  0  0  0
  -22.7170   -9.8900   20.1460 C   0  0  0  0  0  3  0  0  0  0  0  0
  -21.7400   -6.6670   21.5920 O   0  0  0  0  0  0  0  0  0  0  0  0
  -21.6600   -6.0460   22.8130 C   0  0  0  0  0  0  0  0  0  0  0  0
  -21.1690   -6.7130   23.9560 C   0  0  0  0  0  3  0  0  0  0  0  0
  -21.0400   -6.0180   25.1750 C   0  0  0  0  0  3  0  0  0  0  0  0
  -21.3900   -4.6560   25.2510 C   0  0  0  0  0  0  0  0  0  0  0  0
  -21.8740   -3.9890   24.1110 C   0  0  0  0  0  3  0  0  0  0  0  0
  -22.0050   -4.6820   22.8950 C   0  0  0  0  0  0  0  0  0  0  0  0
  -22.4530   -4.0290   21.7950 F   0  0  0  0  0  0  0  0  0  0  0  0
  -21.2590   -3.9860   26.4190 F   0  0  0  0  0  0  0  0  0  0  0  0
  -22.7630  -13.3080   21.0680 C   0  0  0  0  0  0  0  0  0  0  0  0
  -22.1520  -12.6410   22.0400 N   0  0  0  0  0  0  0  0  0  0  0  0
  -22.2550  -14.3120   20.5680 O   0  0  0  0  0  0  0  0  0  0  0  0
  -22.5770  -11.8310   22.4650 H   0  0  0  0  0  0  0  0  0  0  0  0
  -21.2460  -12.9470   22.3670 H   0  0  0  0  0  0  0  0  0  0  0  0
  -25.2830  -14.9670   19.9480 N   0  0  0  0  0  0  0  0  0  0  0  0
  -24.5560  -15.6330   20.1780 H   0  0  0  0  0  0  0  0  0  0  0  0
  -26.1450  -15.4030   19.6410 H   0  0  0  0  0  0  0  0  0  0  0  0
  -27.9570  -24.6020   19.0220 C   0  0  0  0  0  2  0  0  0  0  0  0
  -28.2060  -26.0140   19.5730 O   0  0  0  0  0  0  0  0  0  0  0  0
  -24.4010  -31.4560   22.7020 C   0  0  0  0  0  0  0  0  0  0  0  0
  -27.1330  -26.9690   19.5060 C   0  0  0  0  0  0  0  0  0  0  0  0
  -23.2450  -30.0670   21.0280 C   0  0  0  0  0  3  0  0  0  0  0  0
  -24.7420  -28.6090   19.5450 C   0  0  0  0  0  0  0  0  0  0  0  0
  -25.7850  -30.4390   20.8640 C   0  0  0  0  0  2  0  0  0  0  0  0
  -25.9060  -29.0770   20.1700 C   0  0  0  0  0  0  0  0  0  0  0  0
  -27.1000  -28.2690   20.1450 C   0  0  0  0  0  3  0  0  0  0  0  0
  -25.9450  -26.6200   18.8170 C   0  0  0  0  0  3  0  0  0  0  0  0
  -24.7720  -27.3940   18.8560 C   0  0  0  0  0  3  0  0  0  0  0  0
  -23.4810  -29.4510   19.6260 C   0  0  0  0  0  2  0  0  0  0  0  0
  -24.4970  -30.6730   21.5870 N   0  0  0  0  0  0  0  0  0  0  0  0
  -23.3080  -31.6850   23.2420 O   0  0  0  0  0  0  0  0  0  0  0  0
  -22.6120  -29.0020   21.9570 C   0  0  0  0  0  0  0  0  0  0  0  0
  -21.2810  -28.8230   21.8660 N   0  0  0  0  0  0  0  0  0  0  0  0
  -23.3170  -28.3420   22.7230 O   0  0  0  0  0  0  0  0  0  0  0  0
  -20.7680  -29.4110   21.2240 H   0  0  0  0  0  0  0  0  0  0  0  0
  -17.9220  -27.6120   22.4670 C   0  0  0  0  0  0  0  0  0  0  0  0
  -20.4930  -27.8440   22.6190 C   0  0  0  0  0  3  0  0  0  0  0  0
  -20.5530  -26.4490   21.9530 C   0  0  0  0  0  2  0  0  0  0  0  0
  -19.3980  -26.1960   20.9780 C   0  0  0  0  0  2  0  0  0  0  0  0
  -18.0520  -26.3070   21.7000 C   0  0  0  0  0  2  0  0  0  0  0  0
  -19.0670  -28.3410   22.8840 C   0  0  0  0  0  0  0  0  0  0  0  0
  -18.8880  -29.5650   23.5650 C   0  0  0  0  0  3  0  0  0  0  0  0
  -17.5970  -30.0600   23.8320 C   0  0  0  0  0  3  0  0  0  0  0  0
  -16.4670  -29.3260   23.4290 C   0  0  0  0  0  3  0  0  0  0  0  0
  -16.6300  -28.1050   22.7520 C   0  0  0  0  0  3  0  0  0  0  0  0
  -25.6600  -32.1170   23.3400 C   0  0  0  0  0  3  0  0  0  0  0  0
  -25.2730  -33.4620   23.7950 N   0  0  0  0  0  0  0  0  0  0  0  0
  -25.5690  -34.6000   23.1520 C   0  0  0  0  0  0  0  0  0  0  0  0
  -26.2640  -34.6300   22.1320 O   0  0  0  0  0  0  0  0  0  0  0  0
  -24.6550  -33.5090   24.5920 H   0  0  0  0  0  0  0  0  0  0  0  0
  -23.7740  -36.3500   22.9250 C   0  0  0  0  0  1  0  0  0  0  0  0
  -25.0080  -35.9140   23.7320 C   0  0  0  0  0  3  0  0  0  0  0  0
  -27.0810  -36.7920   24.7150 C   0  0  0  0  0  1  0  0  0  0  0  0
  -25.9970  -37.0140   23.7610 N   0  0  0  0  0  0  0  0  0  0  0  0
  -25.5460  -37.8960   23.9930 H   0  0  0  0  0  0  0  0  0  0  0  0
  -26.2600  -31.2810   24.5370 C   0  0  1  0  0  0  0  0  0  0  0  0
  -25.2160  -30.8970   25.6120 C   0  0  0  0  0  1  0  0  0  0  0  0
  -26.9080  -29.9740   24.0270 C   0  0  0  0  0  1  0  0  0  0  0  0
  -27.3840  -32.0900   25.2280 C   0  0  0  0  0  1  0  0  0  0  0  0
  -27.1310  -19.8590   20.5380 O   0  0  0  0  0  0  0  0  0  0  0  0
  -25.8750  -17.8130   20.3500 C   0  0  0  0  0  1  0  0  0  0  0  0
  -26.7190  -18.8550   19.6130 C   0  0  0  0  0  2  0  0  0  0  0  0
  1  2  2  0
  1  4  1  0
  2  5  1  0
  3  6  1  0
  4  3  2  0
  5  6  2  0
  5  8  1  0
  6 91  1  0
  8  7  1  0
  9 11  1  0
  9  8  1  0
 11 10  1  1
 12 11  1  0
 13 19  1  0
 13 11  1  0
 14 19  1  0
 15 16  1  0
 15 14  1  0
 17 16  1  0
 17 24  1  0
 17 18  1  0
 19 18  1  0
 20 13  2  0
 21 22  2  0
 22 41  1  0
 23 22  1  0
 23 26  1  0
 24 25  1  0
 24 21  1  0
 25 23  2  0
 26 27  1  0
 27 28  2  0
 29 32  1  0
 29 28  1  0
 30 29  2  0
 31 30  1  0
 31 26  2  0
 32 33  1  0
 33 38  2  0
 33 34  1  0
 34 35  2  0
 35 36  1  0
 36 40  1  0
 37 36  2  0
 38 37  1  0
 39 38  1  0
 41 42  1  0
 42 45  1  0
 42 44  1  0
 43 41  2  0
 46 21  1  0
 46 47  1  0
 48 46  1  0
 49  4  1  0
 49 50  1  0
 51 62  2  0
 52 50  1  0
 52 57  1  0
 53 61  1  0
 53 63  1  0
 54 60  1  0
 54 56  1  0
 55 61  1  0
 56 55  1  0
 57 56  2  0
 58 59  1  0
 58 52  2  0
 59 54  2  0
 60 53  1  0
 61 51  1  0
 63 65  2  0
 64 63  1  0
 66 64  1  0
 67 76  2  0
 67 72  1  0
 68 64  1  0
 68 72  1  0
 69 68  1  0
 70 71  1  0
 70 69  1  0
 71 67  1  0
 72 73  2  0
 73 74  1  0
 75 74  2  0
 76 75  1  0
 77 51  1  0
 77 78  1  0
 77 87  1  0
 78 81  1  0
 79 83  1  0
 79 78  1  0
 80 79  2  0
 83 82  1  0
 83 85  1  0
 85 86  1  0
 85 84  1  0
 87 90  1  1
 87 88  1  0
 89 87  1  0
 93 92  1  0
 93 91  1  0
M  ISO  4  11 100  13 100  49 101  50 101
M  END
>  <TORSDO>  (28) 
F 22

>  <SCORE>  (28) 
-10.175

>  <name>  (28) 
27

>  <ligand_id>  (28) 
27

>  <original_smiles>  (28) 
[H]c1c([H])c([H])c2c(c1[H])C([H])([H])C([H])([H])C([H])([H])C2([H])N([H])C(=O)C1([H])N(C(=O)C([H])(N([H])C(=O)C([H])(N([H])C([H])([H])[H])C([H])([H])[H])C(C([H])([H])[H])(C([H])([H])[H])C([H])([H])[H])C([H])([H])c2c([H])c(OC([H])([H])c3c([H])c([H])c(N(C([H])([H])[H])C([H])([H])C(F)(C(=O)N4C([H])([H])C([H])([H])C([H])([H])C([H])(n5nc(-c6c([H])c([H])c(Oc7c([H])c([H])c(F)c([H])c7F)c([H])c6[H])c(C(=O)N([H])[H])c5N([H])[H])C4([H])[H])C([H])([H])[H])c(OC([H])([H])C([H])([H])[H])c3[H])c([H])c([H])c2C1([H])[H]

>  <smiles>  (28) 
[H]c1c([H])c([H])c2c(c1[H])C([H])([H])C([H])([H])C([H])([H])C2([H])N([H])C(=O)C1([H])N(C(=O)C([H])(N([H])C(=O)C([H])(N([H])C([H])([H])[H])C([H])([H])[H])C(C([H])([H])[H])(C([H])([H])[H])C([H])([H])[H])C([H])([H])c2c([H])c(OC([H])([H])c3c([H])c([H])c(N(C([H])([H])[H])C([H])([H])C(F)(C(=O)N4C([H])([H])C([H])([H])C([H])([H])C([H])(n5nc(-c6c([H])c([H])c(Oc7c([H])c([H])c(F)c([H])c7F)c([H])c6[H])c(C(=O)N([H])[H])c5N([H])[H])C4([H])[H])C([H])([H])[H])c(OC([H])([H])C([H])([H])[H])c3[H])c([H])c([H])c2C1([H])[H]

$$$$
28:0:0
     RDKit          3D

 91 99  0  0  1  0  0  0  0  0999 V2000
  -29.5270  -21.3350   20.7190 N   0  0  0  0  0  0  0  0  0  0  0  0
  -28.8940  -21.4540   21.5060 H   0  0  0  0  0  0  0  0  0  0  0  0
  -31.0580  -19.4480   19.9560 C   0  0  0  0  0  3  0  0  0  0  0  0
  -31.3500  -18.0400   19.9340 C   0  0  0  0  0  3  0  0  0  0  0  0
  -28.8590  -18.9660   20.7760 C   0  0  0  0  0  3  0  0  0  0  0  0
  -29.8170  -19.9520   20.4330 C   0  0  0  0  0  0  0  0  0  0  0  0
  -30.4150  -17.0580   20.3770 C   0  0  0  0  0  0  0  0  0  0  0  0
  -29.1350  -17.5690   20.7350 C   0  0  0  0  0  0  0  0  0  0  0  0
  -28.1400  -16.7180   21.0880 F   0  0  0  0  0  0  0  0  0  0  0  0
  -31.1820  -14.6780   19.7480 C   0  0  0  0  0  0  0  0  0  0  0  0
  -30.7820  -12.5000   18.5860 C   0  0  0  0  0  2  0  0  0  0  0  0
  -29.7330  -12.6720   17.4690 C   0  0  0  0  0  2  0  0  0  0  0  0
  -28.3040  -12.5140   18.0240 C   0  0  0  0  0  2  0  0  0  0  0  0
  -28.0790  -13.3380   19.3200 C   0  0  0  0  0  3  0  0  0  0  0  0
  -29.2330  -13.1430   20.3270 C   0  0  0  0  0  2  0  0  0  0  0  0
  -30.4910  -13.4900   19.6480 N   0  0  0  0  0  0  0  0  0  0  0  0
  -32.2120  -14.8590   19.0930 O   0  0  0  0  0  0  0  0  0  0  0  0
  -31.0990  -15.3560   22.0320 C   0  0  0  0  0  1  0  0  0  0  0  0
  -30.7310  -15.6350   20.6340 N   0  0  0  0  0  0  0  0  0  0  0  0
  -25.7850  -13.9440   20.3020 C   0  0  0  0  0  0  0  0  0  0  0  0
  -24.7380  -13.1780   20.7340 C   0  0  0  0  0  0  0  0  0  0  0  0
  -25.1530  -11.8180   20.5800 C   0  0  0  0  0  0  0  0  0  0  0  0
  -26.7770  -13.0560   19.9190 N   0  0  0  0  0  0  0  0  0  0  0  0
  -26.4060  -11.7680   20.1420 N   0  0  0  0  0  0  0  0  0  0  0  0
  -24.4070  -10.5660   20.7690 C   0  0  0  0  0  0  0  0  0  0  0  0
  -24.8490   -9.5710   21.6700 C   0  0  0  0  0  3  0  0  0  0  0  0
  -24.1030   -8.3870   21.8490 C   0  0  0  0  0  3  0  0  0  0  0  0
  -22.9010   -8.1870   21.1310 C   0  0  0  0  0  0  0  0  0  0  0  0
  -22.4770   -9.1710   20.2210 C   0  0  0  0  0  3  0  0  0  0  0  0
  -23.2230  -10.3470   20.0380 C   0  0  0  0  0  3  0  0  0  0  0  0
  -22.1280   -7.0540   21.2190 O   0  0  0  0  0  0  0  0  0  0  0  0
  -22.0380   -6.3340   22.3850 C   0  0  0  0  0  0  0  0  0  0  0  0
  -21.5970   -6.9200   23.5910 C   0  0  0  0  0  3  0  0  0  0  0  0
  -21.4540   -6.1290   24.7480 C   0  0  0  0  0  3  0  0  0  0  0  0
  -21.7390   -4.7510   24.6970 C   0  0  0  0  0  0  0  0  0  0  0  0
  -22.1720   -4.1640   23.4960 C   0  0  0  0  0  3  0  0  0  0  0  0
  -22.3180   -4.9540   22.3420 C   0  0  0  0  0  0  0  0  0  0  0  0
  -22.7150   -4.3790   21.1810 F   0  0  0  0  0  0  0  0  0  0  0  0
  -21.5930   -3.9870   25.8060 F   0  0  0  0  0  0  0  0  0  0  0  0
  -23.3910  -13.6760   21.1760 C   0  0  0  0  0  0  0  0  0  0  0  0
  -22.7490  -12.9770   22.1060 N   0  0  0  0  0  0  0  0  0  0  0  0
  -22.9200  -14.7210   20.7290 O   0  0  0  0  0  0  0  0  0  0  0  0
  -23.1460  -12.1370   22.4980 H   0  0  0  0  0  0  0  0  0  0  0  0
  -21.8470  -13.2930   22.4340 H   0  0  0  0  0  0  0  0  0  0  0  0
  -25.9640  -15.3190   20.1840 N   0  0  0  0  0  0  0  0  0  0  0  0
  -25.2080  -15.9650   20.3840 H   0  0  0  0  0  0  0  0  0  0  0  0
  -26.8180  -15.7790   19.8940 H   0  0  0  0  0  0  0  0  0  0  0  0
  -29.4370  -22.4860   19.7670 C   0  0  0  0  0  2  0  0  0  0  0  0
  -29.1810  -23.9190   20.4490 C   0  0  0  0  0  3  0  0  0  0  0  0
  -28.4920  -25.0670   19.5830 C   0  0  0  0  0  3  0  0  0  0  0  0
  -28.4890  -26.4770   20.0610 O   0  0  0  0  0  0  0  0  0  0  0  0
  -24.7120  -31.8450   23.0460 C   0  0  0  0  0  0  0  0  0  0  0  0
  -27.3310  -27.2780   19.9980 C   0  0  0  0  0  0  0  0  0  0  0  0
  -23.4890  -30.3920   21.4720 C   0  0  0  0  0  3  0  0  0  0  0  0
  -24.9270  -28.8470   20.0280 C   0  0  0  0  0  0  0  0  0  0  0  0
  -26.0160  -30.7540   21.2100 C   0  0  0  0  0  2  0  0  0  0  0  0
  -26.1030  -29.3690   20.5780 C   0  0  0  0  0  0  0  0  0  0  0  0
  -27.3040  -28.5970   20.5540 C   0  0  0  0  0  3  0  0  0  0  0  0
  -26.1270  -26.8170   19.4140 C   0  0  0  0  0  3  0  0  0  0  0  0
  -24.9410  -27.5750   19.4380 C   0  0  0  0  0  3  0  0  0  0  0  0
  -23.6700  -29.6930   20.1000 C   0  0  0  0  0  2  0  0  0  0  0  0
  -24.7590  -31.0150   21.9640 N   0  0  0  0  0  0  0  0  0  0  0  0
  -23.6380  -32.1150   23.6050 O   0  0  0  0  0  0  0  0  0  0  0  0
  -22.8760  -29.3800   22.4690 C   0  0  0  0  0  0  0  0  0  0  0  0
  -21.5630  -29.1270   22.3430 N   0  0  0  0  0  0  0  0  0  0  0  0
  -23.5810  -28.8230   23.3130 O   0  0  0  0  0  0  0  0  0  0  0  0
  -21.0490  -29.6290   21.6340 H   0  0  0  0  0  0  0  0  0  0  0  0
  -18.2560  -27.7600   22.8550 C   0  0  0  0  0  0  0  0  0  0  0  0
  -20.7890  -28.1810   23.1470 C   0  0  0  0  0  3  0  0  0  0  0  0
  -20.9840  -26.7340   22.6430 C   0  0  0  0  0  2  0  0  0  0  0  0
  -19.9200  -26.2980   21.6310 C   0  0  0  0  0  2  0  0  0  0  0  0
  -18.5220  -26.3930   22.2470 C   0  0  0  0  0  2  0  0  0  0  0  0
  -19.3200  -28.6060   23.2630 C   0  0  0  0  0  0  0  0  0  0  0  0
  -19.0220  -29.8820   23.7880 C   0  0  0  0  0  3  0  0  0  0  0  0
  -17.6860  -30.3150   23.9080 C   0  0  0  0  0  3  0  0  0  0  0  0
  -16.6360  -29.4680   23.5160 C   0  0  0  0  0  3  0  0  0  0  0  0
  -16.9200  -28.1920   22.9970 C   0  0  0  0  0  3  0  0  0  0  0  0
  -26.0000  -32.5120   23.6200 C   0  0  0  0  0  3  0  0  0  0  0  0
  -26.5990  -31.7390   24.8600 C   0  0  1  0  0  0  0  0  0  0  0  0
  -25.5510  -31.4130   25.9490 C   0  0  0  0  0  1  0  0  0  0  0  0
  -27.2500  -30.4080   24.4160 C   0  0  0  0  0  1  0  0  0  0  0  0
  -27.7200  -32.5840   25.5090 C   0  0  0  0  0  1  0  0  0  0  0  0
  -25.6550  -33.8920   23.9890 N   0  0  0  0  0  0  0  0  0  0  0  0
  -25.9260  -34.9700   23.2390 C   0  0  0  0  0  0  0  0  0  0  0  0
  -26.5620  -34.9070   22.1830 O   0  0  0  0  0  0  0  0  0  0  0  0
  -25.0760  -34.0110   24.8060 H   0  0  0  0  0  0  0  0  0  0  0  0
  -24.1350  -36.7130   22.9750 C   0  0  0  0  0  1  0  0  0  0  0  0
  -25.4090  -36.3310   23.7430 C   0  0  0  0  0  3  0  0  0  0  0  0
  -27.5390  -37.2590   24.5380 C   0  0  0  0  0  1  0  0  0  0  0  0
  -26.4080  -37.4160   23.6280 N   0  0  0  0  0  0  0  0  0  0  0  0
  -25.9790  -38.3200   23.8090 H   0  0  0  0  0  0  0  0  0  0  0  0
  1  2  1  0
  3  6  1  0
  4  3  2  0
  4  7  1  0
  6  1  1  0
  6  5  2  0
  7 19  1  0
  7  8  2  0
  8  5  1  0
  8  9  1  0
 10 19  1  0
 11 16  1  0
 12 13  1  0
 12 11  1  0
 14 13  1  0
 14 23  1  0
 14 15  1  0
 16 10  1  0
 16 15  1  0
 17 10  2  0
 19 18  1  0
 20 21  2  0
 21 40  1  0
 22 21  1  0
 22 25  1  0
 23 24  1  0
 23 20  1  0
 24 22  2  0
 25 26  1  0
 26 27  2  0
 28 31  1  0
 28 27  1  0
 29 28  2  0
 30 29  1  0
 30 25  2  0
 31 32  1  0
 32 33  1  0
 33 34  2  0
 35 34  1  0
 35 39  1  0
 36 35  2  0
 37 32  2  0
 37 36  1  0
 38 37  1  0
 40 41  1  0
 41 44  1  0
 41 43  1  0
 42 40  2  0
 45 20  1  0
 45 46  1  0
 47 45  1  0
 48 49  1  0
 48  1  1  0
 50 51  1  0
 50 49  2  0
 52 63  2  0
 53 51  1  0
 53 58  1  0
 54 62  1  0
 54 64  1  0
 55 61  1  0
 55 57  1  0
 56 62  1  0
 57 56  1  0
 58 57  2  0
 59 60  1  0
 59 53  2  0
 60 55  2  0
 61 54  1  0
 62 52  1  0
 64 66  2  0
 65 64  1  0
 67 65  1  0
 68 77  2  0
 68 73  1  0
 69 65  1  0
 69 73  1  0
 70 69  1  0
 71 72  1  0
 71 70  1  0
 72 68  1  0
 73 74  2  0
 74 75  1  0
 76 75  2  0
 77 76  1  0
 78 52  1  0
 78 83  1  0
 78 79  1  0
 79 82  1  1
 79 80  1  0
 81 79  1  0
 83 86  1  0
 84 88  1  0
 84 83  1  0
 85 84  2  0
 88 87  1  0
 90 88  1  0
 90 91  1  0
 90 89  1  0
M  ISO  4  10 100  19 100  50 101  51 101
M  END
>  <TORSDO>  (29) 
F 20

>  <SCORE>  (29) 
-12.268

>  <name>  (29) 
28

>  <ligand_id>  (29) 
28

>  <original_smiles>  (29) 
[H]c1c([H])c([H])c2c(c1[H])C([H])([H])C([H])([H])C([H])([H])C2([H])N([H])C(=O)C1([H])N(C(=O)C([H])(N([H])C(=O)C([H])(N([H])C([H])([H])[H])C([H])([H])[H])C(C([H])([H])[H])(C([H])([H])[H])C([H])([H])[H])C([H])([H])c2c([H])c(OC([H])([H])C([H])([H])C([H])([H])N([H])c3c([H])c([H])c(N(C(=O)N4C([H])([H])C([H])([H])C([H])([H])C([H])(n5nc(-c6c([H])c([H])c(Oc7c([H])c([H])c(F)c([H])c7F)c([H])c6[H])c(C(=O)N([H])[H])c5N([H])[H])C4([H])[H])C([H])([H])[H])c(F)c3[H])c([H])c([H])c2C1([H])[H]

>  <smiles>  (29) 
[H]c1c([H])c([H])c2c(c1[H])C([H])([H])C([H])([H])C([H])([H])C2([H])N([H])C(=O)C1([H])N(C(=O)C([H])(N([H])C(=O)C([H])(N([H])C([H])([H])[H])C([H])([H])[H])C(C([H])([H])[H])(C([H])([H])[H])C([H])([H])[H])C([H])([H])c2c([H])c(OC([H])([H])C([H])([H])C([H])([H])N([H])c3c([H])c([H])c(N(C(=O)N4C([H])([H])C([H])([H])C([H])([H])C([H])(n5nc(-c6c([H])c([H])c(Oc7c([H])c([H])c(F)c([H])c7F)c([H])c6[H])c(C(=O)N([H])[H])c5N([H])[H])C4([H])[H])C([H])([H])[H])c(F)c3[H])c([H])c([H])c2C1([H])[H]

$$$$
29:0:0
     RDKit          3D

 92100  0  0  1  0  0  0  0  0999 V2000
  -27.8310  -19.6180   19.2570 C   0  0  0  0  0  3  0  0  0  0  0  0
  -30.0150  -20.6000   19.6830 C   0  0  0  0  0  3  0  0  0  0  0  0
  -28.3590  -18.3320   19.4810 C   0  0  0  0  0  3  0  0  0  0  0  0
  -30.5490  -19.3110   19.8920 C   0  0  0  0  0  3  0  0  0  0  0  0
  -28.6610  -20.7630   19.3190 C   0  0  0  0  0  0  0  0  0  0  0  0
  -29.7330  -18.1690   19.7560 C   0  0  0  0  0  0  0  0  0  0  0  0
  -27.0740  -22.1110   18.0220 C   0  0  0  0  0  1  0  0  0  0  0  0
  -28.1760  -22.0450   18.9830 N   0  0  0  0  0  0  0  0  0  0  0  0
  -28.2090  -23.0340   20.0610 C   0  0  0  0  0  2  0  0  0  0  0  0
  -28.4250  -24.4700   19.5460 C   0  0  0  0  0  2  0  0  0  0  0  0
  -28.2750  -25.5110   20.6640 C   0  0  0  0  0  2  0  0  0  0  0  0
  -28.3240  -26.8400   20.1490 O   0  0  0  0  0  0  0  0  0  0  0  0
  -24.5220  -31.9630   23.2440 C   0  0  0  0  0  0  0  0  0  0  0  0
  -27.1370  -27.5310   20.1590 C   0  0  0  0  0  0  0  0  0  0  0  0
  -23.2960  -30.5620   21.6150 C   0  0  0  0  0  3  0  0  0  0  0  0
  -24.7350  -29.0140   20.1900 C   0  0  0  0  0  0  0  0  0  0  0  0
  -25.8190  -30.9210   21.3920 C   0  0  0  0  0  2  0  0  0  0  0  0
  -25.8970  -29.5500   20.7560 C   0  0  0  0  0  0  0  0  0  0  0  0
  -27.1040  -28.8190   20.7290 C   0  0  0  0  0  3  0  0  0  0  0  0
  -25.9550  -26.9920   19.6030 C   0  0  0  0  0  3  0  0  0  0  0  0
  -24.7560  -27.7310   19.6140 C   0  0  0  0  0  3  0  0  0  0  0  0
  -23.4920  -29.8730   20.2390 C   0  0  0  0  0  2  0  0  0  0  0  0
  -24.5640  -31.1630   22.1430 N   0  0  0  0  0  0  0  0  0  0  0  0
  -23.4460  -32.2410   23.7940 O   0  0  0  0  0  0  0  0  0  0  0  0
  -22.6480  -29.5470   22.5820 C   0  0  0  0  0  0  0  0  0  0  0  0
  -21.3230  -29.3630   22.4540 N   0  0  0  0  0  0  0  0  0  0  0  0
  -23.3320  -28.9270   23.3990 O   0  0  0  0  0  0  0  0  0  0  0  0
  -20.8350  -29.9130   21.7600 H   0  0  0  0  0  0  0  0  0  0  0  0
  -17.9500  -28.1740   22.9500 C   0  0  0  0  0  0  0  0  0  0  0  0
  -20.5070  -28.4300   23.2270 C   0  0  0  0  0  3  0  0  0  0  0  0
  -20.6110  -26.9970   22.6590 C   0  0  0  0  0  2  0  0  0  0  0  0
  -19.5110  -26.6690   21.6440 C   0  0  0  0  0  2  0  0  0  0  0  0
  -18.1270  -26.8200   22.2830 C   0  0  0  0  0  2  0  0  0  0  0  0
  -19.0680  -28.9370   23.3790 C   0  0  0  0  0  0  0  0  0  0  0  0
  -18.8510  -30.2060   23.9600 C   0  0  0  0  0  3  0  0  0  0  0  0
  -17.5470  -30.7120   24.1160 C   0  0  0  0  0  3  0  0  0  0  0  0
  -16.4420  -29.9450   23.7070 C   0  0  0  0  0  3  0  0  0  0  0  0
  -16.6440  -28.6780   23.1300 C   0  0  0  0  0  3  0  0  0  0  0  0
  -25.8160  -32.5850   23.8560 C   0  0  0  0  0  3  0  0  0  0  0  0
  -25.5200  -33.9870   24.1830 N   0  0  0  0  0  0  0  0  0  0  0  0
  -25.8710  -35.0340   23.4240 C   0  0  0  0  0  0  0  0  0  0  0  0
  -26.5500  -34.9210   22.4000 O   0  0  0  0  0  0  0  0  0  0  0  0
  -24.9200  -34.1480   24.9780 H   0  0  0  0  0  0  0  0  0  0  0  0
  -24.1760  -36.8490   23.0350 C   0  0  0  0  0  1  0  0  0  0  0  0
  -25.3920  -36.4270   23.8750 C   0  0  0  0  0  3  0  0  0  0  0  0
  -27.5190  -37.2780   24.7580 C   0  0  0  0  0  1  0  0  0  0  0  0
  -26.4420  -37.4660   23.7900 N   0  0  0  0  0  0  0  0  0  0  0  0
  -26.0450  -38.3910   23.9310 H   0  0  0  0  0  0  0  0  0  0  0  0
  -26.3380  -31.8130   25.1280 C   0  0  1  0  0  0  0  0  0  0  0  0
  -25.2510  -31.5840   26.2040 C   0  0  0  0  0  1  0  0  0  0  0  0
  -26.9110  -30.4320   24.7300 C   0  0  0  0  0  1  0  0  0  0  0  0
  -27.4980  -32.6020   25.7810 C   0  0  0  0  0  1  0  0  0  0  0  0
  -30.2900  -16.4250   18.3080 C   0  0  0  0  0  1  0  0  0  0  0  0
  -30.3400  -16.9050   19.6960 N   0  0  0  0  0  0  0  0  0  0  0  0
  -30.5600  -16.5080   22.1530 C   0  0  0  0  0  1  0  0  0  0  0  0
  -30.1140  -15.9340   20.7940 C   0  0  0  0  0  3  0  0  0  0  0  0
  -30.8540  -14.5890   20.5330 C   0  0  0  0  0  0  0  0  0  0  0  0
  -30.5650  -12.4160   19.4470 C   0  0  0  0  0  2  0  0  0  0  0  0
  -29.6730  -12.6420   18.2060 C   0  0  0  0  0  2  0  0  0  0  0  0
  -28.1770  -12.5430   18.5770 C   0  0  0  0  0  2  0  0  0  0  0  0
  -27.8030  -13.3720   19.8330 C   0  0  0  0  0  3  0  0  0  0  0  0
  -28.8260  -13.1590   20.9720 C   0  0  0  0  0  2  0  0  0  0  0  0
  -30.1740  -13.4160   20.4510 N   0  0  0  0  0  0  0  0  0  0  0  0
  -32.0440  -14.6750   20.2190 O   0  0  0  0  0  0  0  0  0  0  0  0
  -25.3820  -13.9730   20.4600 C   0  0  0  0  0  0  0  0  0  0  0  0
  -24.3060  -13.2000   20.8070 C   0  0  0  0  0  0  0  0  0  0  0  0
  -24.7780  -11.8530   20.8210 C   0  0  0  0  0  0  0  0  0  0  0  0
  -26.4390  -13.0950   20.2770 N   0  0  0  0  0  0  0  0  0  0  0  0
  -26.0780  -11.8170   20.5560 N   0  0  0  0  0  0  0  0  0  0  0  0
  -24.0570  -10.5870   21.0130 C   0  0  0  0  0  0  0  0  0  0  0  0
  -24.4700   -9.6390   21.9740 C   0  0  0  0  0  3  0  0  0  0  0  0
  -23.7490   -8.4370   22.1500 C   0  0  0  0  0  3  0  0  0  0  0  0
  -22.6020   -8.1770   21.3630 C   0  0  0  0  0  0  0  0  0  0  0  0
  -22.2100   -9.1130   20.3900 C   0  0  0  0  0  3  0  0  0  0  0  0
  -22.9310  -10.3060   20.2140 C   0  0  0  0  0  3  0  0  0  0  0  0
  -21.8560   -7.0240   21.4460 O   0  0  0  0  0  0  0  0  0  0  0  0
  -21.7740   -6.2990   22.6080 C   0  0  0  0  0  0  0  0  0  0  0  0
  -21.2970   -6.8700   23.8090 C   0  0  0  0  0  3  0  0  0  0  0  0
  -21.1660   -6.0730   24.9630 C   0  0  0  0  0  3  0  0  0  0  0  0
  -21.5000   -4.7060   24.9180 C   0  0  0  0  0  0  0  0  0  0  0  0
  -21.9710   -4.1350   23.7230 C   0  0  0  0  0  3  0  0  0  0  0  0
  -22.1050   -4.9300   22.5710 C   0  0  0  0  0  0  0  0  0  0  0  0
  -22.5390   -4.3710   21.4160 F   0  0  0  0  0  0  0  0  0  0  0  0
  -21.3670   -3.9390   26.0250 F   0  0  0  0  0  0  0  0  0  0  0  0
  -22.8970  -13.6700   21.0250 C   0  0  0  0  0  0  0  0  0  0  0  0
  -22.1480  -12.9810   21.8810 N   0  0  0  0  0  0  0  0  0  0  0  0
  -22.4670  -14.6800   20.4710 O   0  0  0  0  0  0  0  0  0  0  0  0
  -22.5080  -12.1650   22.3510 H   0  0  0  0  0  0  0  0  0  0  0  0
  -21.2010  -13.2770   22.0700 H   0  0  0  0  0  0  0  0  0  0  0  0
  -25.5460  -15.3410   20.2670 N   0  0  0  0  0  0  0  0  0  0  0  0
  -24.7830  -16.0020   20.3520 H   0  0  0  0  0  0  0  0  0  0  0  0
  -26.4180  -15.7740   19.9920 H   0  0  0  0  0  0  0  0  0  0  0  0
  1  5  2  0
  1  3  1  0
  2  4  2  0
  3  6  2  0
  5  2  1  0
  6  4  1  0
  7  8  1  0
  8  5  1  0
  8  9  1  0
 10  9  1  0
 10 11  1  0
 12 14  1  0
 12 11  1  0
 13 24  2  0
 14 19  1  0
 15 23  1  0
 15 25  1  0
 16 22  1  0
 16 18  1  0
 17 23  1  0
 18 17  1  0
 19 18  2  0
 20 21  1  0
 20 14  2  0
 21 16  2  0
 22 15  1  0
 23 13  1  0
 25 27  2  0
 26 25  1  0
 28 26  1  0
 29 38  2  0
 29 34  1  0
 30 26  1  0
 30 34  1  0
 31 30  1  0
 32 33  1  0
 32 31  1  0
 33 29  1  0
 34 35  2  0
 35 36  1  0
 37 36  2  0
 38 37  1  0
 39 13  1  0
 39 40  1  0
 39 49  1  0
 40 43  1  0
 41 45  1  0
 41 40  1  0
 42 41  2  0
 45 44  1  0
 47 45  1  0
 47 48  1  0
 47 46  1  0
 49 52  1  1
 49 50  1  0
 51 49  1  0
 53 54  1  0
 54  6  1  0
 54 56  1  0
 56 55  1  0
 57 56  1  0
 58 63  1  0
 59 60  1  0
 59 58  1  0
 61 60  1  0
 61 68  1  0
 61 62  1  0
 63 57  1  0
 63 62  1  0
 64 57  2  0
 65 66  2  0
 66 67  1  0
 66 85  1  0
 67 70  1  0
 68 65  1  0
 68 69  1  0
 69 67  2  0
 70 71  1  0
 71 72  2  0
 73 76  1  0
 73 72  1  0
 74 73  2  0
 75 74  1  0
 75 70  2  0
 76 77  1  0
 77 78  1  0
 78 79  2  0
 80 79  1  0
 80 84  1  0
 81 80  2  0
 82 77  2  0
 82 81  1  0
 83 82  1  0
 85 86  1  0
 86 89  1  0
 86 88  1  0
 87 85  2  0
 90 91  1  0
 90 65  1  0
 92 90  1  0
M  ISO  4  11 101  12 101  56 100  57 100
M  END
>  <TORSDO>  (30) 
F 22

>  <SCORE>  (30) 
-13.026

>  <name>  (30) 
29

>  <ligand_id>  (30) 
29

>  <original_smiles>  (30) 
[H]c1c([H])c([H])c2c(c1[H])C([H])([H])C([H])([H])C([H])([H])C2([H])N([H])C(=O)C1([H])N(C(=O)C([H])(N([H])C(=O)C([H])(N([H])C([H])([H])[H])C([H])([H])[H])C(C([H])([H])[H])(C([H])([H])[H])C([H])([H])[H])C([H])([H])c2c([H])c(OC([H])([H])C([H])([H])C([H])([H])N(c3c([H])c([H])c(N(C([H])([H])[H])C([H])(C(=O)N4C([H])([H])C([H])([H])C([H])([H])C([H])(n5nc(-c6c([H])c([H])c(Oc7c([H])c([H])c(F)c([H])c7F)c([H])c6[H])c(C(=O)N([H])[H])c5N([H])[H])C4([H])[H])C([H])([H])[H])c([H])c3[H])C([H])([H])[H])c([H])c([H])c2C1([H])[H]

>  <smiles>  (30) 
[H]c1c([H])c([H])c2c(c1[H])C([H])([H])C([H])([H])C([H])([H])C2([H])N([H])C(=O)C1([H])N(C(=O)C([H])(N([H])C(=O)C([H])(N([H])C([H])([H])[H])C([H])([H])[H])C(C([H])([H])[H])(C([H])([H])[H])C([H])([H])[H])C([H])([H])c2c([H])c(OC([H])([H])C([H])([H])C([H])([H])N(c3c([H])c([H])c(N(C([H])([H])[H])C([H])(C(=O)N4C([H])([H])C([H])([H])C([H])([H])C([H])(n5nc(-c6c([H])c([H])c(Oc7c([H])c([H])c(F)c([H])c7F)c([H])c6[H])c(C(=O)N([H])[H])c5N([H])[H])C4([H])[H])C([H])([H])[H])c([H])c3[H])C([H])([H])[H])c([H])c([H])c2C1([H])[H]

$$$$
30:0:0
     RDKit          3D

 92100  0  0  1  0  0  0  0  0999 V2000
  -30.8070  -21.9950   19.5030 C   0  0  0  0  0  1  0  0  0  0  0  0
  -30.1750  -22.1690   20.8340 N   0  0  1  0  0  4  0  0  0  0  0  0
  -29.1860  -22.0150   20.7030 H   0  0  0  0  0  0  0  0  0  0  0  0
  -30.6310  -21.1460   21.8250 C   0  0  0  0  0  2  0  0  0  0  0  0
  -29.3120  -19.0150   21.2910 C   0  0  0  0  0  3  0  0  0  0  0  0
  -31.7390  -18.8970   21.2870 C   0  0  0  0  0  3  0  0  0  0  0  0
  -29.2520  -17.6200   21.0820 C   0  0  0  0  0  3  0  0  0  0  0  0
  -31.6790  -17.5000   21.0720 C   0  0  0  0  0  3  0  0  0  0  0  0
  -30.5580  -19.6670   21.4180 C   0  0  0  0  0  0  0  0  0  0  0  0
  -30.4290  -16.8430   20.9810 C   0  0  0  0  0  0  0  0  0  0  0  0
  -30.9880  -14.5010   20.1870 C   0  0  0  0  0  0  0  0  0  0  0  0
  -30.6590  -12.3930   18.9330 C   0  0  0  0  0  2  0  0  0  0  0  0
  -29.6760  -12.6540   17.7700 C   0  0  0  0  0  2  0  0  0  0  0  0
  -28.2100  -12.5330   18.2380 C   0  0  0  0  0  2  0  0  0  0  0  0
  -27.9320  -13.3180   19.5470 C   0  0  0  0  0  3  0  0  0  0  0  0
  -29.0100  -12.9970   20.6050 C   0  0  0  0  0  2  0  0  0  0  0  0
  -30.3250  -13.3230   20.0220 N   0  0  0  0  0  0  0  0  0  0  0  0
  -32.0890  -14.7250   19.6720 O   0  0  0  0  0  0  0  0  0  0  0  0
  -30.2740  -15.4280   20.8600 N   0  0  0  0  0  0  0  0  0  0  0  0
  -29.3920  -15.0690   21.1930 H   0  0  0  0  0  0  0  0  0  0  0  0
  -25.5580  -13.9600   20.3110 C   0  0  0  0  0  0  0  0  0  0  0  0
  -24.4890  -13.2010   20.7060 C   0  0  0  0  0  0  0  0  0  0  0  0
  -24.9300  -11.8430   20.6590 C   0  0  0  0  0  0  0  0  0  0  0  0
  -26.5840  -13.0650   20.0530 N   0  0  0  0  0  0  0  0  0  0  0  0
  -26.2110  -11.7860   20.3170 N   0  0  0  0  0  0  0  0  0  0  0  0
  -24.1930  -10.5900   20.8620 C   0  0  0  0  0  0  0  0  0  0  0  0
  -24.5930   -9.6500   21.8390 C   0  0  0  0  0  3  0  0  0  0  0  0
  -23.8580   -8.4590   22.0270 C   0  0  0  0  0  3  0  0  0  0  0  0
  -22.7120   -8.2010   21.2390 C   0  0  0  0  0  0  0  0  0  0  0  0
  -22.3320   -9.1300   20.2550 C   0  0  0  0  0  3  0  0  0  0  0  0
  -23.0660  -10.3110   20.0640 C   0  0  0  0  0  3  0  0  0  0  0  0
  -21.9520   -7.0600   21.3360 O   0  0  0  0  0  0  0  0  0  0  0  0
  -21.7950   -6.3980   22.5270 C   0  0  0  0  0  0  0  0  0  0  0  0
  -21.2320   -7.0260   23.6590 C   0  0  0  0  0  3  0  0  0  0  0  0
  -21.0250   -6.2890   24.8420 C   0  0  0  0  0  3  0  0  0  0  0  0
  -21.3680   -4.9240   24.8930 C   0  0  0  0  0  0  0  0  0  0  0  0
  -21.9230   -4.2970   23.7640 C   0  0  0  0  0  3  0  0  0  0  0  0
  -22.1330   -5.0310   22.5830 C   0  0  0  0  0  0  0  0  0  0  0  0
  -22.6480   -4.4150   21.4920 F   0  0  0  0  0  0  0  0  0  0  0  0
  -21.1620   -4.2140   26.0260 F   0  0  0  0  0  0  0  0  0  0  0  0
  -23.1050  -13.6940   21.0150 C   0  0  0  0  0  0  0  0  0  0  0  0
  -22.3910  -13.0050   21.8990 N   0  0  0  0  0  0  0  0  0  0  0  0
  -22.6660  -14.7270   20.5090 O   0  0  0  0  0  0  0  0  0  0  0  0
  -22.7600  -12.1710   22.3300 H   0  0  0  0  0  0  0  0  0  0  0  0
  -21.4630  -13.3180   22.1470 H   0  0  0  0  0  0  0  0  0  0  0  0
  -25.7380  -15.3280   20.1310 N   0  0  0  0  0  0  0  0  0  0  0  0
  -24.9790  -15.9920   20.2420 H   0  0  0  0  0  0  0  0  0  0  0  0
  -26.5710  -15.7450   19.7340 H   0  0  0  0  0  0  0  0  0  0  0  0
  -30.3470  -23.5430   21.4160 C   0  0  0  0  0  2  0  0  0  0  0  0
  -30.1170  -24.7950   20.5120 C   0  0  0  0  0  2  0  0  0  0  0  0
  -28.6670  -25.3050   20.3550 C   0  0  0  0  0  2  0  0  0  0  0  0
  -28.6980  -26.7210   20.1100 O   0  0  0  0  0  0  0  0  0  0  0  0
  -24.6970  -31.7540   23.1720 C   0  0  0  0  0  0  0  0  0  0  0  0
  -27.4940  -27.3950   20.1090 C   0  0  0  0  0  0  0  0  0  0  0  0
  -23.5470  -30.3310   21.5080 C   0  0  0  0  0  3  0  0  0  0  0  0
  -25.0570  -28.8340   20.0990 C   0  0  0  0  0  0  0  0  0  0  0  0
  -26.0640  -30.7570   21.3400 C   0  0  0  0  0  2  0  0  0  0  0  0
  -26.1940  -29.3920   20.6960 C   0  0  0  0  0  0  0  0  0  0  0  0
  -27.4170  -28.6810   20.6920 C   0  0  0  0  0  3  0  0  0  0  0  0
  -26.3350  -26.8460   19.5120 C   0  0  0  0  0  3  0  0  0  0  0  0
  -25.1220  -27.5600   19.5060 C   0  0  0  0  0  3  0  0  0  0  0  0
  -23.7920  -29.6620   20.1300 C   0  0  0  0  0  2  0  0  0  0  0  0
  -24.7870  -30.9610   22.0660 N   0  0  0  0  0  0  0  0  0  0  0  0
  -23.6040  -31.9970   23.7010 O   0  0  0  0  0  0  0  0  0  0  0  0
  -22.9090  -29.2890   22.4560 C   0  0  0  0  0  0  0  0  0  0  0  0
  -21.5940  -29.0690   22.3040 N   0  0  0  0  0  0  0  0  0  0  0  0
  -23.5960  -28.6830   23.2820 O   0  0  0  0  0  0  0  0  0  0  0  0
  -21.1010  -29.6120   21.6090 H   0  0  0  0  0  0  0  0  0  0  0  0
  -18.2490  -27.7720   22.7270 C   0  0  0  0  0  0  0  0  0  0  0  0
  -20.7910  -28.1060   23.0560 C   0  0  0  0  0  3  0  0  0  0  0  0
  -20.9490  -26.6790   22.4820 C   0  0  0  0  0  2  0  0  0  0  0  0
  -19.8800  -26.3250   21.4440 C   0  0  0  0  0  2  0  0  0  0  0  0
  -18.4810  -26.4280   22.0570 C   0  0  0  0  0  2  0  0  0  0  0  0
  -19.3340  -28.5660   23.1830 C   0  0  0  0  0  0  0  0  0  0  0  0
  -19.0650  -29.8220   23.7670 C   0  0  0  0  0  3  0  0  0  0  0  0
  -17.7440  -30.2870   23.9020 C   0  0  0  0  0  3  0  0  0  0  0  0
  -16.6720  -29.4890   23.4650 C   0  0  0  0  0  3  0  0  0  0  0  0
  -16.9250  -28.2330   22.8840 C   0  0  0  0  0  3  0  0  0  0  0  0
  -25.9600  -32.4130   23.8100 C   0  0  0  0  0  3  0  0  0  0  0  0
  -25.6100  -33.7970   24.1540 N   0  0  0  0  0  0  0  0  0  0  0  0
  -25.9140  -34.8670   23.4060 C   0  0  0  0  0  0  0  0  0  0  0  0
  -26.5890  -34.7940   22.3770 O   0  0  0  0  0  0  0  0  0  0  0  0
  -25.0050  -33.9250   24.9530 H   0  0  0  0  0  0  0  0  0  0  0  0
  -24.1280  -36.6050   23.0730 C   0  0  0  0  0  1  0  0  0  0  0  0
  -25.3840  -36.2360   23.8760 C   0  0  0  0  0  3  0  0  0  0  0  0
  -27.4910  -37.1840   24.7100 C   0  0  0  0  0  1  0  0  0  0  0  0
  -26.3840  -37.3210   23.7680 N   0  0  0  0  0  0  0  0  0  0  0  0
  -25.9490  -38.2260   23.9230 H   0  0  0  0  0  0  0  0  0  0  0  0
  -26.4900  -31.6390   25.0800 C   0  0  1  0  0  0  0  0  0  0  0  0
  -25.3960  -31.3520   26.1330 C   0  0  0  0  0  1  0  0  0  0  0  0
  -27.1160  -30.2860   24.6670 C   0  0  0  0  0  1  0  0  0  0  0  0
  -27.6090  -32.4580   25.7650 C   0  0  0  0  0  1  0  0  0  0  0  0
  1  2  1  0
  2 49  1  0
  2  4  1  0
  2  3  1  6
  5  9  1  0
  6  9  2  0
  7  5  2  0
  8  6  1  0
  9  4  1  0
 10  8  2  0
 10  7  1  0
 11 19  1  0
 12 17  1  0
 13 14  1  0
 13 12  1  0
 15 14  1  0
 15 24  1  0
 15 16  1  0
 17 11  1  0
 17 16  1  0
 18 11  2  0
 19 10  1  0
 19 20  1  0
 21 22  2  0
 22 41  1  0
 23 22  1  0
 23 26  1  0
 24 21  1  0
 24 25  1  0
 25 23  2  0
 26 27  1  0
 27 28  2  0
 29 32  1  0
 29 28  1  0
 30 29  2  0
 31 30  1  0
 31 26  2  0
 32 33  1  0
 33 38  2  0
 33 34  1  0
 34 35  2  0
 35 36  1  0
 36 40  1  0
 37 36  2  0
 38 37  1  0
 39 38  1  0
 41 42  1  0
 42 45  1  0
 42 44  1  0
 43 41  2  0
 46 47  1  0
 46 21  1  0
 48 46  1  0
 50 49  1  0
 51 50  1  0
 52 51  1  0
 53 64  2  0
 54 52  1  0
 54 59  1  0
 55 63  1  0
 55 65  1  0
 56 62  1  0
 56 58  1  0
 57 63  1  0
 58 57  1  0
 59 58  2  0
 60 54  2  0
 61 60  1  0
 61 56  2  0
 62 55  1  0
 63 53  1  0
 65 67  2  0
 66 65  1  0
 68 66  1  0
 69 78  2  0
 69 74  1  0
 70 66  1  0
 70 74  1  0
 71 70  1  0
 72 73  1  0
 72 71  1  0
 73 69  1  0
 74 75  2  0
 75 76  1  0
 77 76  2  0
 78 77  1  0
 79 53  1  0
 79 80  1  0
 79 89  1  0
 80 83  1  0
 81 85  1  0
 81 80  1  0
 82 81  2  0
 85 84  1  0
 87 85  1  0
 87 88  1  0
 87 86  1  0
 89 92  1  1
 89 90  1  0
 91 89  1  0
M  ISO  4  11 100  19 100  51 101  52 101
M  END
>  <TORSDO>  (31) 
F 21

>  <SCORE>  (31) 
-12.816

>  <name>  (31) 
30

>  <ligand_id>  (31) 
30

>  <original_smiles>  (31) 
[H]c1c([H])c([H])c2c(c1[H])C([H])([H])C([H])([H])C([H])([H])C2([H])N([H])C(=O)C1([H])N(C(=O)C([H])(N([H])C(=O)C([H])(N([H])C([H])([H])[H])C([H])([H])[H])C(C([H])([H])[H])(C([H])([H])[H])C([H])([H])[H])C([H])([H])c2c([H])c(OC([H])([H])C([H])([H])C([H])([H])[N+]([H])(C([H])([H])[H])C([H])([H])c3c([H])c([H])c(N([H])C(=O)N4C([H])([H])C([H])([H])C([H])([H])C([H])(n5nc(-c6c([H])c([H])c(Oc7c([H])c([H])c(F)c([H])c7F)c([H])c6[H])c(C(=O)N([H])[H])c5N([H])[H])C4([H])[H])c([H])c3[H])c([H])c([H])c2C1([H])[H]

>  <smiles>  (31) 
[H]c1c([H])c([H])c2c(c1[H])C([H])([H])C([H])([H])C([H])([H])C2([H])N([H])C(=O)C1([H])N(C(=O)C([H])(N([H])C(=O)C([H])(N([H])C([H])([H])[H])C([H])([H])[H])C(C([H])([H])[H])(C([H])([H])[H])C([H])([H])[H])C([H])([H])c2c([H])c(OC([H])([H])C([H])([H])C([H])([H])[N+]([H])(C([H])([H])[H])C([H])([H])c3c([H])c([H])c(N([H])C(=O)N4C([H])([H])C([H])([H])C([H])([H])C([H])(n5nc(-c6c([H])c([H])c(Oc7c([H])c([H])c(F)c([H])c7F)c([H])c6[H])c(C(=O)N([H])[H])c5N([H])[H])C4([H])[H])c([H])c3[H])c([H])c([H])c2C1([H])[H]

$$$$
31:0:0
     RDKit          3D

 93101  0  0  1  0  0  0  0  0999 V2000
  -31.5110  -19.0210   18.4510 C   0  0  0  0  0  2  0  0  0  0  0  0
  -30.2760  -19.5450   18.4280 C   0  0  0  0  0  3  0  0  0  0  0  0
  -31.7320  -18.0080   19.5470 C   0  0  0  0  0  2  0  0  0  0  0  0
  -29.4110  -19.0710   19.6030 C   0  0  0  0  0  3  0  0  0  0  0  0
  -30.2750  -17.6170   19.8500 C   0  0  0  0  0  3  0  0  0  0  0  0
  -30.6210  -14.9110   20.0910 C   0  0  0  0  0  0  0  0  0  0  0  0
  -30.3630  -12.6450   18.9700 C   0  0  0  0  0  2  0  0  0  0  0  0
  -29.3510  -12.6910   17.8030 C   0  0  0  0  0  2  0  0  0  0  0  0
  -27.9110  -12.4800   18.3080 C   0  0  0  0  0  2  0  0  0  0  0  0
  -27.6060  -13.3150   19.5800 C   0  0  0  0  0  3  0  0  0  0  0  0
  -28.7340  -13.1960   20.6260 C   0  0  0  0  0  2  0  0  0  0  0  0
  -29.9610  -13.6780   19.9750 N   0  0  0  0  0  0  0  0  0  0  0  0
  -31.7780  -14.9150   19.6640 O   0  0  0  0  0  0  0  0  0  0  0  0
  -29.0380  -16.2470   21.5220 C   0  0  0  0  0  1  0  0  0  0  0  0
  -29.9540  -16.1580   20.3880 N   0  0  0  0  0  0  0  0  0  0  0  0
  -25.2660  -13.8770   20.4480 C   0  0  0  0  0  0  0  0  0  0  0  0
  -24.2230  -13.0940   20.8580 C   0  0  0  0  0  0  0  0  0  0  0  0
  -24.6860  -11.7440   20.7740 C   0  0  0  0  0  0  0  0  0  0  0  0
  -26.2960  -13.0060   20.1380 N   0  0  0  0  0  0  0  0  0  0  0  0
  -25.9590  -11.7160   20.3990 N   0  0  0  0  0  0  0  0  0  0  0  0
  -23.9680  -10.4790   20.9740 C   0  0  0  0  0  0  0  0  0  0  0  0
  -24.4200   -9.5110   21.8990 C   0  0  0  0  0  3  0  0  0  0  0  0
  -23.7000   -8.3120   22.0900 C   0  0  0  0  0  3  0  0  0  0  0  0
  -22.5130   -8.0730   21.3570 C   0  0  0  0  0  0  0  0  0  0  0  0
  -22.0800   -9.0290   20.4220 C   0  0  0  0  0  3  0  0  0  0  0  0
  -22.8000  -10.2200   20.2290 C   0  0  0  0  0  3  0  0  0  0  0  0
  -21.7630   -6.9260   21.4570 O   0  0  0  0  0  0  0  0  0  0  0  0
  -21.7110   -6.2000   22.6200 C   0  0  0  0  0  0  0  0  0  0  0  0
  -21.2460   -6.7620   23.8290 C   0  0  0  0  0  3  0  0  0  0  0  0
  -21.1420   -5.9610   24.9830 C   0  0  0  0  0  3  0  0  0  0  0  0
  -21.4940   -4.5990   24.9300 C   0  0  0  0  0  0  0  0  0  0  0  0
  -21.9530   -4.0370   23.7260 C   0  0  0  0  0  3  0  0  0  0  0  0
  -22.0580   -4.8350   22.5740 C   0  0  0  0  0  0  0  0  0  0  0  0
  -22.4800   -4.2840   21.4110 F   0  0  0  0  0  0  0  0  0  0  0  0
  -21.3880   -3.8270   26.0370 F   0  0  0  0  0  0  0  0  0  0  0  0
  -22.8430  -13.5670   21.2090 C   0  0  0  0  0  0  0  0  0  0  0  0
  -22.1560  -12.8550   22.0940 N   0  0  0  0  0  0  0  0  0  0  0  0
  -22.3840  -14.6060   20.7350 O   0  0  0  0  0  0  0  0  0  0  0  0
  -22.5400  -12.0190   22.5080 H   0  0  0  0  0  0  0  0  0  0  0  0
  -21.2310  -13.1590   22.3660 H   0  0  0  0  0  0  0  0  0  0  0  0
  -25.4100  -15.2520   20.2850 N   0  0  0  0  0  0  0  0  0  0  0  0
  -24.6440  -15.8930   20.4550 H   0  0  0  0  0  0  0  0  0  0  0  0
  -26.2320  -15.7080   19.9100 H   0  0  0  0  0  0  0  0  0  0  0  0
  -30.2450  -21.9570   16.8370 C   0  0  0  0  0  1  0  0  0  0  0  0
  -30.4170  -19.5330   15.7610 O   0  0  0  0  0  0  0  0  0  0  0  0
  -28.2070  -20.1850   16.8250 O   0  0  0  0  0  0  0  0  0  0  0  0
  -29.6810  -20.2240   16.8370 S   0  0  1  0  0  0  0  0  0  0  0  0
  -29.3520  -20.3390   20.5140 N   0  0  0  0  0  0  0  0  0  0  0  0
  -29.0960  -20.0570   21.4590 H   0  0  0  0  0  0  0  0  0  0  0  0
  -28.5490  -21.6310   20.1370 C   0  0  0  0  0  2  0  0  0  0  0  0
  -28.9200  -23.2340   20.5260 C   0  0  0  0  0  3  0  0  0  0  0  0
  -27.9590  -24.5780   20.1630 C   0  0  0  0  0  3  0  0  0  0  0  0
  -28.2510  -26.0980   20.3580 O   0  0  0  0  0  0  0  0  0  0  0  0
  -24.6150  -31.8420   23.1880 C   0  0  0  0  0  0  0  0  0  0  0  0
  -27.2120  -27.0940   20.2440 C   0  0  0  0  0  0  0  0  0  0  0  0
  -23.4370  -30.4470   21.5320 C   0  0  0  0  0  3  0  0  0  0  0  0
  -24.9000  -28.8580   20.1410 C   0  0  0  0  0  0  0  0  0  0  0  0
  -25.9950  -30.6960   21.4150 C   0  0  0  0  0  2  0  0  0  0  0  0
  -26.0700  -29.3000   20.7720 C   0  0  0  0  0  0  0  0  0  0  0  0
  -27.2280  -28.4350   20.8040 C   0  0  0  0  0  3  0  0  0  0  0  0
  -26.0190  -26.7550   19.5680 C   0  0  0  0  0  3  0  0  0  0  0  0
  -24.8900  -27.6000   19.5210 C   0  0  0  0  0  3  0  0  0  0  0  0
  -23.6780  -29.7630   20.1610 C   0  0  0  0  0  2  0  0  0  0  0  0
  -24.7010  -31.0160   22.1000 N   0  0  0  0  0  0  0  0  0  0  0  0
  -23.5210  -32.1380   23.6910 O   0  0  0  0  0  0  0  0  0  0  0  0
  -22.7310  -29.4500   22.4860 C   0  0  0  0  0  0  0  0  0  0  0  0
  -21.4020  -29.3070   22.3500 N   0  0  0  0  0  0  0  0  0  0  0  0
  -23.3850  -28.8070   23.3120 O   0  0  0  0  0  0  0  0  0  0  0  0
  -20.9330  -29.8760   21.6580 H   0  0  0  0  0  0  0  0  0  0  0  0
  -17.9840  -28.2210   22.8700 C   0  0  0  0  0  0  0  0  0  0  0  0
  -20.5540  -28.3860   23.1120 C   0  0  0  0  0  3  0  0  0  0  0  0
  -20.5970  -26.9620   22.5090 C   0  0  0  0  0  2  0  0  0  0  0  0
  -19.4730  -26.6990   21.5020 C   0  0  0  0  0  2  0  0  0  0  0  0
  -18.1050  -26.8810   22.1640 C   0  0  0  0  0  2  0  0  0  0  0  0
  -19.1350  -28.9350   23.3000 C   0  0  0  0  0  0  0  0  0  0  0  0
  -18.9660  -30.1900   23.9220 C   0  0  0  0  0  3  0  0  0  0  0  0
  -17.6820  -30.7330   24.1150 C   0  0  0  0  0  3  0  0  0  0  0  0
  -16.5460  -30.0160   23.6980 C   0  0  0  0  0  3  0  0  0  0  0  0
  -16.6990  -28.7610   23.0830 C   0  0  0  0  0  3  0  0  0  0  0  0
  -25.8860  -32.4700   23.8370 C   0  0  0  0  0  3  0  0  0  0  0  0
  -25.5740  -33.8700   24.1660 N   0  0  0  0  0  0  0  0  0  0  0  0
  -25.9090  -34.9260   23.4140 C   0  0  0  0  0  0  0  0  0  0  0  0
  -26.5810  -34.8250   22.3830 O   0  0  0  0  0  0  0  0  0  0  0  0
  -24.9800  -34.0230   24.9670 H   0  0  0  0  0  0  0  0  0  0  0  0
  -24.1840  -36.7250   23.0680 C   0  0  0  0  0  1  0  0  0  0  0  0
  -25.4260  -36.3150   23.8750 C   0  0  0  0  0  3  0  0  0  0  0  0
  -27.5580  -37.2020   24.7110 C   0  0  0  0  0  1  0  0  0  0  0  0
  -26.4600  -37.3680   23.7620 N   0  0  0  0  0  0  0  0  0  0  0  0
  -26.0530  -38.2880   23.9040 H   0  0  0  0  0  0  0  0  0  0  0  0
  -26.3710  -31.6980   25.1260 C   0  0  1  0  0  0  0  0  0  0  0  0
  -25.2540  -31.4650   26.1700 C   0  0  0  0  0  1  0  0  0  0  0  0
  -26.9580  -30.3170   24.7510 C   0  0  0  0  0  1  0  0  0  0  0  0
  -27.5080  -32.4890   25.8130 C   0  0  0  0  0  1  0  0  0  0  0  0
  1  3  1  0
  2 47  1  0
  2  1  1  0
  2  4  1  0
  3  5  1  0
  4  5  1  0
  4 48  1  0
  5 15  1  0
  6 15  1  0
  7 12  1  0
  8  9  1  0
  8  7  1  0
 10  9  1  0
 10 19  1  0
 10 11  1  0
 12  6  1  0
 12 11  1  0
 13  6  2  0
 15 14  1  0
 16 17  2  0
 17 36  1  0
 18 17  1  0
 18 21  1  0
 19 20  1  0
 19 16  1  0
 20 18  2  0
 21 22  1  0
 22 23  2  0
 24 27  1  0
 24 23  1  0
 25 24  2  0
 26 25  1  0
 26 21  2  0
 27 28  1  0
 28 29  1  0
 29 30  2  0
 31 30  1  0
 31 35  1  0
 32 31  2  0
 33 28  2  0
 33 32  1  0
 34 33  1  0
 36 37  1  0
 37 40  1  0
 37 39  1  0
 38 36  2  0
 41 16  1  0
 41 42  1  0
 43 41  1  0
 45 47  2  0
 46 47  2  0
 47 44  1  1
 48 49  1  0
 50 48  1  0
 50 51  1  0
 52 53  1  0
 52 51  2  0
 54 65  2  0
 55 53  1  0
 55 60  1  0
 56 64  1  0
 56 66  1  0
 57 63  1  0
 57 59  1  0
 58 64  1  0
 59 60  2  0
 59 58  1  0
 61 55  2  0
 62 61  1  0
 62 57  2  0
 63 56  1  0
 64 54  1  0
 66 68  2  0
 67 66  1  0
 69 67  1  0
 70 79  2  0
 70 75  1  0
 71 67  1  0
 71 75  1  0
 72 71  1  0
 73 74  1  0
 73 72  1  0
 74 70  1  0
 75 76  2  0
 76 77  1  0
 78 77  2  0
 79 78  1  0
 80 54  1  0
 80 81  1  0
 80 90  1  0
 81 84  1  0
 82 86  1  0
 82 81  1  0
 83 82  2  0
 86 85  1  0
 88 86  1  0
 88 89  1  0
 88 87  1  0
 90 93  1  1
 90 91  1  0
 92 90  1  0
M  ISO  4   6 100  15 100  52 101  53 101
M  END
>  <TORSDO>  (32) 
F 21

>  <SCORE>  (32) 
-13.248

>  <name>  (32) 
31

>  <ligand_id>  (32) 
31

>  <original_smiles>  (32) 
[H]C1=C(S(=O)(=O)C([H])([H])[H])C([H])(N([H])C([H])([H])C([H])([H])C([H])([H])Oc2c([H])c([H])c3c(c2[H])C([H])([H])N(C(=O)C([H])(N([H])C(=O)C([H])(N([H])C([H])([H])[H])C([H])([H])[H])C(C([H])([H])[H])(C([H])([H])[H])C([H])([H])[H])C([H])(C(=O)N([H])C2([H])c4c([H])c([H])c([H])c([H])c4C([H])([H])C([H])([H])C2([H])[H])C3([H])[H])C([H])(N(C(=O)N2C([H])([H])C([H])([H])C([H])([H])C([H])(n3nc(-c4c([H])c([H])c(Oc5c([H])c([H])c(F)c([H])c5F)c([H])c4[H])c(C(=O)N([H])[H])c3N([H])[H])C2([H])[H])C([H])([H])[H])C1([H])[H]

>  <smiles>  (32) 
[H]C1=C(S(=O)(=O)C([H])([H])[H])C([H])(N([H])C([H])([H])C([H])([H])C([H])([H])Oc2c([H])c([H])c3c(c2[H])C([H])([H])N(C(=O)C([H])(N([H])C(=O)C([H])(N([H])C([H])([H])[H])C([H])([H])[H])C(C([H])([H])[H])(C([H])([H])[H])C([H])([H])[H])C([H])(C(=O)N([H])C2([H])c4c([H])c([H])c([H])c([H])c4C([H])([H])C([H])([H])C2([H])[H])C3([H])[H])C([H])(N(C(=O)N2C([H])([H])C([H])([H])C([H])([H])C([H])(n3nc(-c4c([H])c([H])c(Oc5c([H])c([H])c(F)c([H])c5F)c([H])c4[H])c(C(=O)N([H])[H])c3N([H])[H])C2([H])[H])C([H])([H])[H])C1([H])[H]

$$$$
32:0:0
     RDKit          3D

 95103  0  0  1  0  0  0  0  0999 V2000
  -28.1950  -21.5500   22.2380 C   0  0  0  0  0  3  0  0  0  0  0  0
  -28.6810  -20.4270   21.5420 C   0  0  0  0  0  3  0  0  0  0  0  0
  -28.6370  -22.8420   21.8970 C   0  0  0  0  0  3  0  0  0  0  0  0
  -30.0670  -21.8880   20.1690 C   0  0  0  0  0  3  0  0  0  0  0  0
  -29.6250  -20.5760   20.4960 C   0  0  0  0  0  0  0  0  0  0  0  0
  -29.5780  -23.0220   20.8620 C   0  0  0  0  0  0  0  0  0  0  0  0
  -30.5280  -18.2820   20.3320 C   0  0  0  0  0  0  0  0  0  0  0  0
  -30.1010  -19.5630   18.2760 C   0  0  0  0  0  1  0  0  0  0  0  0
  -30.0870  -19.4370   19.7430 N   0  0  0  0  0  0  0  0  0  0  0  0
  -30.6150  -18.1350   21.5560 O   0  0  0  0  0  0  0  0  0  0  0  0
  -30.9640  -17.0960   19.4470 C   0  0  0  0  0  2  0  0  0  0  0  0
  -31.6340  -14.7330   19.8440 C   0  0  0  0  0  0  0  0  0  0  0  0
  -31.3090  -12.4740   18.9510 C   0  0  0  0  0  2  0  0  0  0  0  0
  -30.3320  -12.5850   17.7620 C   0  0  0  0  0  2  0  0  0  0  0  0
  -28.8650  -12.5260   18.2360 C   0  0  0  0  0  2  0  0  0  0  0  0
  -28.5780  -13.4710   19.4330 C   0  0  0  0  0  3  0  0  0  0  0  0
  -29.6640  -13.3230   20.5260 C   0  0  0  0  0  2  0  0  0  0  0  0
  -30.9790  -13.5470   19.8980 N   0  0  0  0  0  0  0  0  0  0  0  0
  -32.7520  -14.8710   19.3360 O   0  0  0  0  0  0  0  0  0  0  0  0
  -30.8650  -15.7910   20.1200 N   0  0  0  0  0  0  0  0  0  0  0  0
  -29.9960  -15.6090   20.5990 H   0  0  0  0  0  0  0  0  0  0  0  0
  -26.2540  -14.2040   20.2650 C   0  0  0  0  0  0  0  0  0  0  0  0
  -25.1600  -13.4890   20.6730 C   0  0  0  0  0  0  0  0  0  0  0  0
  -25.5370  -12.1120   20.5900 C   0  0  0  0  0  0  0  0  0  0  0  0
  -27.2340  -13.2690   19.9670 N   0  0  0  0  0  0  0  0  0  0  0  0
  -26.8070  -12.0040   20.2160 N   0  0  0  0  0  0  0  0  0  0  0  0
  -24.7460  -10.8910   20.7890 C   0  0  0  0  0  0  0  0  0  0  0  0
  -25.0870   -9.9440   21.7800 C   0  0  0  0  0  3  0  0  0  0  0  0
  -24.3030   -8.7860   21.9630 C   0  0  0  0  0  3  0  0  0  0  0  0
  -23.1610   -8.5670   21.1560 C   0  0  0  0  0  0  0  0  0  0  0  0
  -22.8380   -9.5010   20.1570 C   0  0  0  0  0  3  0  0  0  0  0  0
  -23.6240  -10.6520   19.9710 C   0  0  0  0  0  3  0  0  0  0  0  0
  -22.3550   -7.4590   21.2470 O   0  0  0  0  0  0  0  0  0  0  0  0
  -22.0980   -6.8520   22.4510 C   0  0  0  0  0  0  0  0  0  0  0  0
  -21.4900   -7.5470   23.5190 C   0  0  0  0  0  3  0  0  0  0  0  0
  -21.1790   -6.8680   24.7120 C   0  0  0  0  0  3  0  0  0  0  0  0
  -21.4650   -5.4950   24.8380 C   0  0  0  0  0  0  0  0  0  0  0  0
  -22.0660   -4.8010   23.7730 C   0  0  0  0  0  3  0  0  0  0  0  0
  -22.3780   -5.4780   22.5820 C   0  0  0  0  0  0  0  0  0  0  0  0
  -22.9370   -4.7990   21.5500 F   0  0  0  0  0  0  0  0  0  0  0  0
  -21.1600   -4.8390   25.9830 F   0  0  0  0  0  0  0  0  0  0  0  0
  -23.8090  -14.0420   21.0240 C   0  0  0  0  0  0  0  0  0  0  0  0
  -23.0900  -13.3770   21.9230 N   0  0  0  0  0  0  0  0  0  0  0  0
  -23.4020  -15.0960   20.5390 O   0  0  0  0  0  0  0  0  0  0  0  0
  -23.4310  -12.5240   22.3410 H   0  0  0  0  0  0  0  0  0  0  0  0
  -22.1840  -13.7300   22.2000 H   0  0  0  0  0  0  0  0  0  0  0  0
  -26.4920  -15.5680   20.1070 N   0  0  0  0  0  0  0  0  0  0  0  0
  -25.7730  -16.2650   20.2700 H   0  0  0  0  0  0  0  0  0  0  0  0
  -27.3350  -15.9560   19.7030 H   0  0  0  0  0  0  0  0  0  0  0  0
  -30.5120  -25.0800   21.6620 C   0  0  0  0  0  1  0  0  0  0  0  0
  -30.0270  -24.3100   20.5160 N   0  0  0  0  0  0  0  0  0  0  0  0
  -29.1050  -24.9760   19.5820 C   0  0  0  0  0  2  0  0  0  0  0  0
  -29.3940  -26.4790   19.3290 C   0  0  0  0  0  3  0  0  0  0  0  0
  -30.6700  -26.6390   18.8930 F   0  0  0  0  0  0  0  0  0  0  0  0
  -28.5490  -26.9340   18.3690 O   0  0  0  0  0  0  0  0  0  0  0  0
  -24.6320  -30.9290   22.8360 C   0  0  0  0  0  0  0  0  0  0  0  0
  -27.3400  -27.4700   18.7370 C   0  0  0  0  0  0  0  0  0  0  0  0
  -23.3880  -29.7030   21.0820 C   0  0  0  0  0  3  0  0  0  0  0  0
  -24.8190  -28.6170   19.2710 C   0  0  0  0  0  0  0  0  0  0  0  0
  -25.8190  -30.4000   20.7120 C   0  0  0  0  0  2  0  0  0  0  0  0
  -25.9750  -29.1760   19.8340 C   0  0  0  0  0  0  0  0  0  0  0  0
  -27.2410  -28.6050   19.5740 C   0  0  0  0  0  3  0  0  0  0  0  0
  -26.1720  -26.9180   18.1760 C   0  0  0  0  0  3  0  0  0  0  0  0
  -24.9110  -27.4830   18.4470 C   0  0  0  0  0  3  0  0  0  0  0  0
  -23.5070  -29.2950   19.5900 C   0  0  0  0  0  2  0  0  0  0  0  0
  -24.6370  -30.3490   21.6020 N   0  0  0  0  0  0  0  0  0  0  0  0
  -23.5980  -30.9690   23.5180 O   0  0  0  0  0  0  0  0  0  0  0  0
  -22.9610  -28.4610   21.8940 C   0  0  0  0  0  0  0  0  0  0  0  0
  -21.6720  -28.0950   21.7900 N   0  0  0  0  0  0  0  0  0  0  0  0
  -23.7820  -27.8350   22.5710 O   0  0  0  0  0  0  0  0  0  0  0  0
  -21.0640  -28.6670   21.2230 H   0  0  0  0  0  0  0  0  0  0  0  0
  -18.5730  -26.2750   22.1410 C   0  0  0  0  0  0  0  0  0  0  0  0
  -21.0550  -26.9330   22.4280 C   0  0  0  0  0  3  0  0  0  0  0  0
  -21.3830  -25.6350   21.6580 C   0  0  0  0  0  2  0  0  0  0  0  0
  -20.3220  -25.2640   20.6170 C   0  0  0  0  0  2  0  0  0  0  0  0
  -18.9560  -25.0800   21.2840 C   0  0  0  0  0  2  0  0  0  0  0  0
  -19.5560  -27.1550   22.6630 C   0  0  0  0  0  0  0  0  0  0  0  0
  -19.1450  -28.2720   23.4230 C   0  0  0  0  0  3  0  0  0  0  0  0
  -17.7790  -28.5140   23.6640 C   0  0  0  0  0  3  0  0  0  0  0  0
  -16.8110  -27.6320   23.1550 C   0  0  0  0  0  3  0  0  0  0  0  0
  -17.2070  -26.5130   22.4010 C   0  0  0  0  0  3  0  0  0  0  0  0
  -25.9130  -31.5860   23.4400 C   0  0  0  0  0  3  0  0  0  0  0  0
  -25.5280  -32.9000   23.9700 N   0  0  0  0  0  0  0  0  0  0  0  0
  -25.7410  -34.0650   23.3450 C   0  0  0  0  0  0  0  0  0  0  0  0
  -26.3550  -34.1490   22.2760 O   0  0  0  0  0  0  0  0  0  0  0  0
  -24.9660  -32.9020   24.8090 H   0  0  0  0  0  0  0  0  0  0  0  0
  -23.8740  -35.7510   23.3110 C   0  0  0  0  0  1  0  0  0  0  0  0
  -25.1820  -35.3390   24.0080 C   0  0  0  0  0  3  0  0  0  0  0  0
  -27.2870  -36.2660   24.8620 C   0  0  0  0  0  1  0  0  0  0  0  0
  -26.1300  -36.4740   23.9960 N   0  0  0  0  0  0  0  0  0  0  0  0
  -25.6660  -37.3320   24.2810 H   0  0  0  0  0  0  0  0  0  0  0  0
  -26.5980  -30.7090   24.5580 C   0  0  1  0  0  0  0  0  0  0  0  0
  -25.6220  -30.2420   25.6610 C   0  0  0  0  0  1  0  0  0  0  0  0
  -27.2530  -29.4510   23.9390 C   0  0  0  0  0  1  0  0  0  0  0  0
  -27.7330  -31.5130   25.2340 C   0  0  0  0  0  1  0  0  0  0  0  0
  2  1  2  0
  3  1  1  0
  4  5  2  0
  4  6  1  0
  5  2  1  0
  6  3  2  0
  7 10  2  0
  8  9  1  0
  9  7  1  0
  9  5  1  0
 11 20  1  0
 11  7  1  0
 12 18  1  0
 12 20  1  0
 13 18  1  0
 14 15  1  0
 14 13  1  0
 16 15  1  0
 16 25  1  0
 16 17  1  0
 18 17  1  0
 19 12  2  0
 20 21  1  0
 22 23  2  0
 23 42  1  0
 24 23  1  0
 24 27  1  0
 25 26  1  0
 25 22  1  0
 26 24  2  0
 27 28  1  0
 28 29  2  0
 30 33  1  0
 30 29  1  0
 31 30  2  0
 32 31  1  0
 32 27  2  0
 33 34  1  0
 34 39  2  0
 34 35  1  0
 35 36  2  0
 36 37  1  0
 37 41  1  0
 38 37  2  0
 39 38  1  0
 40 39  1  0
 42 43  1  0
 43 46  1  0
 43 45  1  0
 44 42  2  0
 47 22  1  0
 47 48  1  0
 49 47  1  0
 51  6  1  0
 51 50  1  0
 52 51  1  0
 53 54  1  0
 53 52  1  0
 55 57  1  0
 55 53  1  0
 56 67  2  0
 57 62  1  0
 58 66  1  0
 58 68  1  0
 59 65  1  0
 59 61  1  0
 60 66  1  0
 61 60  1  0
 62 61  2  0
 63 64  1  0
 63 57  2  0
 64 59  2  0
 65 58  1  0
 66 56  1  0
 68 70  2  0
 69 68  1  0
 71 69  1  0
 72 81  2  0
 72 77  1  0
 73 69  1  0
 73 77  1  0
 74 73  1  0
 75 76  1  0
 75 74  1  0
 76 72  1  0
 77 78  2  0
 78 79  1  0
 80 79  2  0
 81 80  1  0
 82 56  1  0
 82 83  1  0
 82 92  1  0
 83 86  1  0
 84 83  1  0
 84 88  1  0
 85 84  2  0
 88 87  1  0
 90 88  1  0
 90 91  1  0
 90 89  1  0
 92 95  1  1
 92 93  1  0
 94 92  1  0
M  ISO  4  12 100  20 100  53 101  55 101
M  END
>  <TORSDO>  (33) 
F 21

>  <SCORE>  (33) 
-8.995

>  <name>  (33) 
32

>  <ligand_id>  (33) 
32

>  <original_smiles>  (33) 
[H]c1c([H])c(N(C(=O)C([H])([H])N([H])C(=O)N2C([H])([H])C([H])([H])C([H])([H])C([H])(n3nc(-c4c([H])c([H])c(Oc5c([H])c([H])c(F)c([H])c5F)c([H])c4[H])c(C(=O)N([H])[H])c3N([H])[H])C2([H])[H])C([H])([H])[H])c([H])c(N(C([H])([H])[H])C([H])([H])C([H])(F)Oc2c([H])c([H])c3c(c2[H])C([H])([H])N(C(=O)C([H])(N([H])C(=O)C([H])(N([H])C([H])([H])[H])C([H])([H])[H])C(C([H])([H])[H])(C([H])([H])[H])C([H])([H])[H])C([H])(C(=O)N([H])C2([H])c4c([H])c([H])c([H])c([H])c4C([H])([H])C([H])([H])C2([H])[H])C3([H])[H])c1[H]

>  <smiles>  (33) 
[H]c1c([H])c(N(C(=O)C([H])([H])N([H])C(=O)N2C([H])([H])C([H])([H])C([H])([H])C([H])(n3nc(-c4c([H])c([H])c(Oc5c([H])c([H])c(F)c([H])c5F)c([H])c4[H])c(C(=O)N([H])[H])c3N([H])[H])C2([H])[H])C([H])([H])[H])c([H])c(N(C([H])([H])[H])C([H])([H])C([H])(F)Oc2c([H])c([H])c3c(c2[H])C([H])([H])N(C(=O)C([H])(N([H])C(=O)C([H])(N([H])C([H])([H])[H])C([H])([H])[H])C(C([H])([H])[H])(C([H])([H])[H])C([H])([H])[H])C([H])(C(=O)N([H])C2([H])c4c([H])c([H])c([H])c([H])c4C([H])([H])C([H])([H])C2([H])[H])C3([H])[H])c1[H]

$$$$
33:0:0
     RDKit          3D

 90 98  0  0  1  0  0  0  0  0999 V2000
  -31.5410  -21.9910   19.8470 C   0  0  0  0  0  1  0  0  0  0  0  0
  -30.1780  -21.4790   20.0070 N   0  0  0  0  0  0  0  0  0  0  0  0
  -29.1340  -17.9190   20.9180 C   0  0  0  0  0  3  0  0  0  0  0  0
  -31.0270  -17.7790   19.4590 C   0  0  0  0  0  3  0  0  0  0  0  0
  -29.1010  -19.3390   20.7700 C   0  0  0  0  0  3  0  0  0  0  0  0
  -31.0060  -19.2010   19.3290 C   0  0  0  0  0  3  0  0  0  0  0  0
  -30.1230  -17.0880   20.3100 C   0  0  0  0  0  0  0  0  0  0  0  0
  -30.0720  -20.0380   20.0120 C   0  0  0  0  0  0  0  0  0  0  0  0
  -30.7290  -14.6240   19.8800 C   0  0  0  0  0  0  0  0  0  0  0  0
  -30.3120  -12.4670   18.6880 C   0  0  0  0  0  2  0  0  0  0  0  0
  -29.2710  -12.6550   17.5640 C   0  0  0  0  0  2  0  0  0  0  0  0
  -27.8390  -12.4950   18.1110 C   0  0  0  0  0  2  0  0  0  0  0  0
  -27.6070  -13.3180   19.4040 C   0  0  0  0  0  3  0  0  0  0  0  0
  -28.7470  -13.0910   20.4130 C   0  0  0  0  0  2  0  0  0  0  0  0
  -30.0170  -13.4480   19.7570 N   0  0  0  0  0  0  0  0  0  0  0  0
  -31.7900  -14.7650   19.2620 O   0  0  0  0  0  0  0  0  0  0  0  0
  -30.1970  -15.3910   22.1050 C   0  0  0  0  0  1  0  0  0  0  0  0
  -30.2200  -15.6520   20.6570 N   0  0  0  0  0  0  0  0  0  0  0  0
  -25.2940  -13.9310   20.3420 C   0  0  0  0  0  0  0  0  0  0  0  0
  -24.2510  -13.1640   20.7840 C   0  0  0  0  0  0  0  0  0  0  0  0
  -24.6870  -11.8070   20.6830 C   0  0  0  0  0  0  0  0  0  0  0  0
  -26.3000  -13.0430   19.9960 N   0  0  0  0  0  0  0  0  0  0  0  0
  -25.9450  -11.7590   20.2600 N   0  0  0  0  0  0  0  0  0  0  0  0
  -23.9610  -10.5500   20.9050 C   0  0  0  0  0  0  0  0  0  0  0  0
  -24.4250   -9.5780   21.8200 C   0  0  0  0  0  3  0  0  0  0  0  0
  -23.6970   -8.3870   22.0310 C   0  0  0  0  0  3  0  0  0  0  0  0
  -22.4920   -8.1580   21.3270 C   0  0  0  0  0  0  0  0  0  0  0  0
  -22.0450   -9.1180   20.4020 C   0  0  0  0  0  3  0  0  0  0  0  0
  -22.7730  -10.3000   20.1880 C   0  0  0  0  0  3  0  0  0  0  0  0
  -21.7320   -7.0190   21.4480 O   0  0  0  0  0  0  0  0  0  0  0  0
  -21.6920   -6.3000   22.6160 C   0  0  0  0  0  0  0  0  0  0  0  0
  -21.2840   -6.8830   23.8370 C   0  0  0  0  0  3  0  0  0  0  0  0
  -21.1910   -6.0900   24.9990 C   0  0  0  0  0  3  0  0  0  0  0  0
  -21.4980   -4.7180   24.9410 C   0  0  0  0  0  0  0  0  0  0  0  0
  -21.9010   -4.1350   23.7270 C   0  0  0  0  0  3  0  0  0  0  0  0
  -21.9950   -4.9240   22.5670 C   0  0  0  0  0  0  0  0  0  0  0  0
  -22.3620   -4.3530   21.3950 F   0  0  0  0  0  0  0  0  0  0  0  0
  -21.4010   -3.9560   26.0550 F   0  0  0  0  0  0  0  0  0  0  0  0
  -22.8880  -13.6530   21.1840 C   0  0  0  0  0  0  0  0  0  0  0  0
  -22.2380  -12.9640   22.1150 N   0  0  0  0  0  0  0  0  0  0  0  0
  -22.4120  -14.6810   20.7060 O   0  0  0  0  0  0  0  0  0  0  0  0
  -22.6400  -12.1340   22.5240 H   0  0  0  0  0  0  0  0  0  0  0  0
  -21.3270  -13.2730   22.4240 H   0  0  0  0  0  0  0  0  0  0  0  0
  -25.4650  -15.3040   20.1870 N   0  0  0  0  0  0  0  0  0  0  0  0
  -24.7210  -15.9660   20.3740 H   0  0  0  0  0  0  0  0  0  0  0  0
  -26.2970  -15.7390   19.8080 H   0  0  0  0  0  0  0  0  0  0  0  0
  -29.0220  -22.4290   19.8620 C   0  0  0  0  0  2  0  0  0  0  0  0
  -29.3100  -23.9930   20.0560 C   0  0  0  0  0  3  0  0  0  0  0  0
  -28.1060  -24.9980   19.8230 C   0  0  0  0  0  3  0  0  0  0  0  0
  -28.3070  -26.4580   19.9820 O   0  0  0  0  0  0  0  0  0  0  0  0
  -24.4830  -31.7240   23.1020 C   0  0  0  0  0  0  0  0  0  0  0  0
  -27.1680  -27.2800   19.9530 C   0  0  0  0  0  0  0  0  0  0  0  0
  -23.2990  -30.3400   21.4360 C   0  0  0  0  0  3  0  0  0  0  0  0
  -24.7730  -28.8480   19.9800 C   0  0  0  0  0  0  0  0  0  0  0  0
  -25.8340  -30.7080   21.2570 C   0  0  0  0  0  2  0  0  0  0  0  0
  -25.9360  -29.3470   20.5790 C   0  0  0  0  0  0  0  0  0  0  0  0
  -27.1370  -28.5770   20.5530 C   0  0  0  0  0  3  0  0  0  0  0  0
  -25.9750  -26.8330   19.3350 C   0  0  0  0  0  3  0  0  0  0  0  0
  -24.7950  -27.5960   19.3480 C   0  0  0  0  0  3  0  0  0  0  0  0
  -23.5230  -29.6990   20.0430 C   0  0  0  0  0  2  0  0  0  0  0  0
  -24.5570  -30.9400   21.9890 N   0  0  0  0  0  0  0  0  0  0  0  0
  -23.3950  -31.9740   23.6430 O   0  0  0  0  0  0  0  0  0  0  0  0
  -22.6560  -29.2920   22.3760 C   0  0  0  0  0  0  0  0  0  0  0  0
  -21.3330  -29.0970   22.2480 N   0  0  0  0  0  0  0  0  0  0  0  0
  -23.3470  -28.6570   23.1770 O   0  0  0  0  0  0  0  0  0  0  0  0
  -20.8370  -29.6620   21.5730 H   0  0  0  0  0  0  0  0  0  0  0  0
  -17.9700  -27.8650   22.7460 C   0  0  0  0  0  0  0  0  0  0  0  0
  -20.5280  -28.1340   23.0000 C   0  0  0  0  0  3  0  0  0  0  0  0
  -20.6350  -26.7200   22.3850 C   0  0  0  0  0  2  0  0  0  0  0  0
  -19.5250  -26.4170   21.3730 C   0  0  0  0  0  2  0  0  0  0  0  0
  -18.1480  -26.5350   22.0340 C   0  0  0  0  0  2  0  0  0  0  0  0
  -19.0870  -28.6230   23.1860 C   0  0  0  0  0  0  0  0  0  0  0  0
  -18.8640  -29.8680   23.8130 C   0  0  0  0  0  3  0  0  0  0  0  0
  -17.5580  -30.3560   24.0040 C   0  0  0  0  0  3  0  0  0  0  0  0
  -16.4550  -29.5940   23.5810 C   0  0  0  0  0  3  0  0  0  0  0  0
  -16.6610  -28.3510   22.9580 C   0  0  0  0  0  3  0  0  0  0  0  0
  -25.7540  -32.3660   23.7360 C   0  0  0  0  0  3  0  0  0  0  0  0
  -26.2790  -31.5830   25.0010 C   0  0  1  0  0  0  0  0  0  0  0  0
  -25.1870  -31.3140   26.0620 C   0  0  0  0  0  1  0  0  0  0  0  0
  -26.8820  -30.2190   24.5900 C   0  0  0  0  0  1  0  0  0  0  0  0
  -27.4160  -32.3830   25.6780 C   0  0  0  0  0  1  0  0  0  0  0  0
  -25.4250  -33.7540   24.0870 N   0  0  0  0  0  0  0  0  0  0  0  0
  -25.7330  -34.8230   23.3410 C   0  0  0  0  0  0  0  0  0  0  0  0
  -26.3980  -34.7450   22.3030 O   0  0  0  0  0  0  0  0  0  0  0  0
  -24.8340  -33.8870   24.8970 H   0  0  0  0  0  0  0  0  0  0  0  0
  -23.9690  -36.5890   23.0290 C   0  0  0  0  0  1  0  0  0  0  0  0
  -25.2260  -36.1970   23.8230 C   0  0  0  0  0  3  0  0  0  0  0  0
  -27.3530  -37.1090   24.6470 C   0  0  0  0  0  1  0  0  0  0  0  0
  -26.2390  -37.2690   23.7140 N   0  0  0  0  0  0  0  0  0  0  0  0
  -25.8190  -38.1800   23.8770 H   0  0  0  0  0  0  0  0  0  0  0  0
  1  2  1  0
  2  8  1  0
  4  7  1  0
  5  3  1  0
  6  4  2  0
  6  8  1  0
  7 18  1  0
  7  3  2  0
  8  5  2  0
  9 18  1  0
 10 15  1  0
 11 12  1  0
 11 10  1  0
 13 12  1  0
 13 22  1  0
 13 14  1  0
 15  9  1  0
 15 14  1  0
 16  9  2  0
 18 17  1  0
 19 20  2  0
 20 39  1  0
 21 20  1  0
 21 24  1  0
 22 23  1  0
 22 19  1  0
 23 21  2  0
 24 25  1  0
 25 26  2  0
 27 30  1  0
 27 26  1  0
 28 27  2  0
 29 28  1  0
 29 24  2  0
 30 31  1  0
 31 32  1  0
 32 33  2  0
 34 33  1  0
 34 38  1  0
 35 34  2  0
 36 31  2  0
 36 35  1  0
 37 36  1  0
 39 40  1  0
 40 43  1  0
 40 42  1  0
 41 39  2  0
 44 19  1  0
 44 45  1  0
 46 44  1  0
 47  2  1  0
 47 48  1  0
 49 50  1  0
 49 48  2  0
 51 62  2  0
 52 50  1  0
 52 57  1  0
 53 61  1  0
 53 63  1  0
 54 60  1  0
 54 56  1  0
 55 61  1  0
 56 55  1  0
 57 56  2  0
 58 59  1  0
 58 52  2  0
 59 54  2  0
 60 53  1  0
 61 51  1  0
 63 65  2  0
 64 63  1  0
 66 64  1  0
 67 76  2  0
 67 72  1  0
 68 64  1  0
 68 72  1  0
 69 68  1  0
 70 71  1  0
 70 69  1  0
 71 67  1  0
 72 73  2  0
 73 74  1  0
 75 74  2  0
 76 75  1  0
 77 51  1  0
 77 82  1  0
 77 78  1  0
 78 81  1  1
 78 79  1  0
 80 78  1  0
 82 85  1  0
 83 87  1  0
 83 82  1  0
 84 83  2  0
 87 86  1  0
 89 87  1  0
 89 90  1  0
 89 88  1  0
M  ISO  4   9 100  18 100  49 101  50 101
M  END
>  <TORSDO>  (34) 
F 20

>  <SCORE>  (34) 
-12.667

>  <name>  (34) 
33

>  <ligand_id>  (34) 
33

>  <original_smiles>  (34) 
[H]c1c([H])c([H])c2c(c1[H])C([H])([H])C([H])([H])C([H])([H])C2([H])N([H])C(=O)C1([H])N(C(=O)C([H])(N([H])C(=O)C([H])(N([H])C([H])([H])[H])C([H])([H])[H])C(C([H])([H])[H])(C([H])([H])[H])C([H])([H])[H])C([H])([H])c2c([H])c(OC([H])([H])C([H])([H])C([H])([H])N(c3c([H])c([H])c(N(C(=O)N4C([H])([H])C([H])([H])C([H])([H])C([H])(n5nc(-c6c([H])c([H])c(Oc7c([H])c([H])c(F)c([H])c7F)c([H])c6[H])c(C(=O)N([H])[H])c5N([H])[H])C4([H])[H])C([H])([H])[H])c([H])c3[H])C([H])([H])[H])c([H])c([H])c2C1([H])[H]

>  <smiles>  (34) 
[H]c1c([H])c([H])c2c(c1[H])C([H])([H])C([H])([H])C([H])([H])C2([H])N([H])C(=O)C1([H])N(C(=O)C([H])(N([H])C(=O)C([H])(N([H])C([H])([H])[H])C([H])([H])[H])C(C([H])([H])[H])(C([H])([H])[H])C([H])([H])[H])C([H])([H])c2c([H])c(OC([H])([H])C([H])([H])C([H])([H])N(c3c([H])c([H])c(N(C(=O)N4C([H])([H])C([H])([H])C([H])([H])C([H])(n5nc(-c6c([H])c([H])c(Oc7c([H])c([H])c(F)c([H])c7F)c([H])c6[H])c(C(=O)N([H])[H])c5N([H])[H])C4([H])[H])C([H])([H])[H])c([H])c3[H])C([H])([H])[H])c([H])c([H])c2C1([H])[H]

$$$$
34:0:0
     RDKit          3D

 89 97  0  0  1  0  0  0  0  0999 V2000
  -29.5190  -21.8710   22.0410 C   0  0  0  0  0  1  0  0  0  0  0  0
  -28.9860  -21.8120   20.6820 N   0  0  0  0  0  0  0  0  0  0  0  0
  -29.5300  -19.1580   17.9960 C   0  0  0  0  0  3  0  0  0  0  0  0
  -29.7500  -17.9150   18.6420 C   0  0  0  0  0  3  0  0  0  0  0  0
  -29.2330  -20.3610   18.6850 C   0  0  0  0  0  3  0  0  0  0  0  0
  -29.3650  -19.0740   20.7310 C   0  0  0  0  0  3  0  0  0  0  0  0
  -29.6620  -17.7640   20.0410 C   0  0  0  0  0  0  0  0  0  0  0  0
  -29.1560  -20.4290   20.0900 C   0  0  0  0  0  0  0  0  0  0  0  0
  -30.4660  -15.1050   20.2180 C   0  0  0  0  0  0  0  0  0  0  0  0
  -30.3700  -12.7290   19.2930 C   0  0  0  0  0  2  0  0  0  0  0  0
  -29.4240  -12.6470   18.0690 C   0  0  0  0  0  2  0  0  0  0  0  0
  -27.9750  -12.4160   18.5250 C   0  0  0  0  0  2  0  0  0  0  0  0
  -27.5700  -13.3490   19.6960 C   0  0  0  0  0  3  0  0  0  0  0  0
  -28.6340  -13.3810   20.8160 C   0  0  0  0  0  2  0  0  0  0  0  0
  -29.8940  -13.8230   20.2020 N   0  0  0  0  0  0  0  0  0  0  0  0
  -31.6410  -15.1670   19.8350 O   0  0  0  0  0  0  0  0  0  0  0  0
  -29.7340  -16.2960   20.5750 N   0  0  0  0  0  0  0  0  0  0  0  0
  -28.9440  -16.0650   21.1620 H   0  0  0  0  0  0  0  0  0  0  0  0
  -25.1970  -13.9150   20.4560 C   0  0  0  0  0  0  0  0  0  0  0  0
  -24.1390  -13.1370   20.8340 C   0  0  0  0  0  0  0  0  0  0  0  0
  -24.6070  -11.7870   20.7990 C   0  0  0  0  0  0  0  0  0  0  0  0
  -26.2400  -13.0420   20.2060 N   0  0  0  0  0  0  0  0  0  0  0  0
  -25.8960  -11.7560   20.4760 N   0  0  0  0  0  0  0  0  0  0  0  0
  -23.8860  -10.5230   20.9920 C   0  0  0  0  0  0  0  0  0  0  0  0
  -24.3330   -9.5520   21.9150 C   0  0  0  0  0  3  0  0  0  0  0  0
  -23.6110   -8.3530   22.0990 C   0  0  0  0  0  3  0  0  0  0  0  0
  -22.4270   -8.1180   21.3610 C   0  0  0  0  0  0  0  0  0  0  0  0
  -21.9990   -9.0790   20.4260 C   0  0  0  0  0  3  0  0  0  0  0  0
  -22.7230  -10.2680   20.2410 C   0  0  0  0  0  3  0  0  0  0  0  0
  -21.6740   -6.9730   21.4560 O   0  0  0  0  0  0  0  0  0  0  0  0
  -21.6480   -6.2200   22.6030 C   0  0  0  0  0  0  0  0  0  0  0  0
  -21.2480   -6.7650   23.8430 C   0  0  0  0  0  3  0  0  0  0  0  0
  -21.1700   -5.9400   24.9830 C   0  0  0  0  0  3  0  0  0  0  0  0
  -21.4800   -4.5710   24.8840 C   0  0  0  0  0  0  0  0  0  0  0  0
  -21.8710   -4.0240   23.6480 C   0  0  0  0  0  3  0  0  0  0  0  0
  -21.9510   -4.8470   22.5110 C   0  0  0  0  0  0  0  0  0  0  0  0
  -22.3090   -4.3100   21.3190 F   0  0  0  0  0  0  0  0  0  0  0  0
  -21.3960   -3.7750   25.9770 F   0  0  0  0  0  0  0  0  0  0  0  0
  -22.7420  -13.6100   21.1130 C   0  0  0  0  0  0  0  0  0  0  0  0
  -22.0220  -12.9110   21.9840 N   0  0  0  0  0  0  0  0  0  0  0  0
  -22.3000  -14.6360   20.5990 O   0  0  0  0  0  0  0  0  0  0  0  0
  -22.3920  -12.0810   22.4200 H   0  0  0  0  0  0  0  0  0  0  0  0
  -21.0860  -13.2120   22.2150 H   0  0  0  0  0  0  0  0  0  0  0  0
  -25.3560  -15.2880   20.2810 N   0  0  0  0  0  0  0  0  0  0  0  0
  -24.5890  -15.9390   20.4120 H   0  0  0  0  0  0  0  0  0  0  0  0
  -26.1960  -15.7310   19.9320 H   0  0  0  0  0  0  0  0  0  0  0  0
  -28.0580  -23.0570   20.3100 C   0  0  0  0  0  2  0  0  0  0  0  0
  -28.4680  -24.6760   19.8530 C   0  0  0  0  0  2  0  0  0  0  0  0
  -28.2640  -26.1500   20.4070 O   0  0  0  0  0  0  0  0  0  0  0  0
  -24.6360  -31.9140   23.2320 C   0  0  0  0  0  0  0  0  0  0  0  0
  -27.2040  -27.1330   20.2380 C   0  0  0  0  0  0  0  0  0  0  0  0
  -23.4310  -30.5050   21.6050 C   0  0  0  0  0  3  0  0  0  0  0  0
  -24.8800  -28.9090   20.1810 C   0  0  0  0  0  0  0  0  0  0  0  0
  -25.9850  -30.7590   21.4360 C   0  0  0  0  0  2  0  0  0  0  0  0
  -26.0570  -29.3550   20.7910 C   0  0  0  0  0  0  0  0  0  0  0  0
  -27.2120  -28.4800   20.8030 C   0  0  0  0  0  3  0  0  0  0  0  0
  -26.0050  -26.8000   19.5720 C   0  0  0  0  0  3  0  0  0  0  0  0
  -24.8700  -27.6500   19.5520 C   0  0  0  0  0  3  0  0  0  0  0  0
  -23.6510  -29.8080   20.2320 C   0  0  0  0  0  2  0  0  0  0  0  0
  -24.7040  -31.0830   22.1450 N   0  0  0  0  0  0  0  0  0  0  0  0
  -23.5520  -32.2030   23.7610 O   0  0  0  0  0  0  0  0  0  0  0  0
  -22.7530  -29.5120   22.5820 C   0  0  0  0  0  0  0  0  0  0  0  0
  -21.4250  -29.3440   22.4650 N   0  0  0  0  0  0  0  0  0  0  0  0
  -23.4280  -28.8940   23.4090 O   0  0  0  0  0  0  0  0  0  0  0  0
  -20.9380  -29.8950   21.7730 H   0  0  0  0  0  0  0  0  0  0  0  0
  -18.0450  -28.1360   22.9770 C   0  0  0  0  0  0  0  0  0  0  0  0
  -20.6040  -28.4110   23.2450 C   0  0  0  0  0  3  0  0  0  0  0  0
  -20.7120  -26.9740   22.6860 C   0  0  0  0  0  2  0  0  0  0  0  0
  -19.6130  -26.6370   21.6730 C   0  0  0  0  0  2  0  0  0  0  0  0
  -18.2290  -26.7810   22.3130 C   0  0  0  0  0  2  0  0  0  0  0  0
  -19.1600  -28.9070   23.3990 C   0  0  0  0  0  0  0  0  0  0  0  0
  -18.9340  -30.1740   23.9810 C   0  0  0  0  0  3  0  0  0  0  0  0
  -17.6260  -30.6700   24.1430 C   0  0  0  0  0  3  0  0  0  0  0  0
  -16.5270  -29.8940   23.7360 C   0  0  0  0  0  3  0  0  0  0  0  0
  -16.7360  -28.6290   23.1600 C   0  0  0  0  0  3  0  0  0  0  0  0
  -25.9140  -32.5560   23.8530 C   0  0  0  0  0  3  0  0  0  0  0  0
  -26.4320  -31.7930   25.1350 C   0  0  1  0  0  0  0  0  0  0  0  0
  -25.3400  -31.5650   26.2080 C   0  0  0  0  0  1  0  0  0  0  0  0
  -27.0140  -30.4100   24.7580 C   0  0  0  0  0  1  0  0  0  0  0  0
  -27.5830  -32.5930   25.7900 C   0  0  0  0  0  1  0  0  0  0  0  0
  -25.5980  -33.9540   24.1860 N   0  0  0  0  0  0  0  0  0  0  0  0
  -25.9250  -35.0140   23.4360 C   0  0  0  0  0  0  0  0  0  0  0  0
  -26.5880  -34.9170   22.3990 O   0  0  0  0  0  0  0  0  0  0  0  0
  -24.9980  -34.1030   24.9840 H   0  0  0  0  0  0  0  0  0  0  0  0
  -24.1890  -36.8110   23.1180 C   0  0  0  0  0  1  0  0  0  0  0  0
  -25.4440  -36.4010   23.9050 C   0  0  0  0  0  3  0  0  0  0  0  0
  -27.5910  -37.2910   24.7010 C   0  0  0  0  0  1  0  0  0  0  0  0
  -26.4710  -37.4590   23.7800 N   0  0  0  0  0  0  0  0  0  0  0  0
  -26.0640  -38.3760   23.9410 H   0  0  0  0  0  0  0  0  0  0  0  0
  2  1  1  0
  3  4  2  0
  3  5  1  0
  4  7  1  0
  5  8  2  0
  7 17  1  0
  7  6  2  0
  8  2  1  0
  8  6  1  0
  9 17  1  0
 10 15  1  0
 11 12  1  0
 11 10  1  0
 13 12  1  0
 13 22  1  0
 13 14  1  0
 15  9  1  0
 15 14  1  0
 16  9  2  0
 17 18  1  0
 19 20  2  0
 20 39  1  0
 21 20  1  0
 21 24  1  0
 22 19  1  0
 22 23  1  0
 23 21  2  0
 24 25  1  0
 25 26  2  0
 27 30  1  0
 27 26  1  0
 28 27  2  0
 29 28  1  0
 29 24  2  0
 30 31  1  0
 31 32  1  0
 32 33  2  0
 34 33  1  0
 34 38  1  0
 35 34  2  0
 36 31  2  0
 36 35  1  0
 37 36  1  0
 39 40  1  0
 40 43  1  0
 40 42  1  0
 41 39  2  0
 44 45  1  0
 44 19  1  0
 46 44  1  0
 47  2  1  0
 48 47  1  0
 48 49  1  0
 50 61  2  0
 51 49  1  0
 51 56  1  0
 52 60  1  0
 52 62  1  0
 53 59  1  0
 53 55  1  0
 54 60  1  0
 55 56  2  0
 55 54  1  0
 57 51  2  0
 58 57  1  0
 58 53  2  0
 59 52  1  0
 60 50  1  0
 62 64  2  0
 63 62  1  0
 65 63  1  0
 66 75  2  0
 66 71  1  0
 67 63  1  0
 67 71  1  0
 68 67  1  0
 69 70  1  0
 69 68  1  0
 70 66  1  0
 71 72  2  0
 72 73  1  0
 74 73  2  0
 75 74  1  0
 76 50  1  0
 76 81  1  0
 76 77  1  0
 77 80  1  1
 77 78  1  0
 79 77  1  0
 81 84  1  0
 82 86  1  0
 82 81  1  0
 83 82  2  0
 86 85  1  0
 88 86  1  0
 88 89  1  0
 88 87  1  0
M  ISO  4   9 100  17 100  48 101  49 101
M  END
>  <TORSDO>  (35) 
F 19

>  <SCORE>  (35) 
-15.118

>  <name>  (35) 
34

>  <ligand_id>  (35) 
34

>  <original_smiles>  (35) 
[H]c1c([H])c(N([H])C(=O)N2C([H])([H])C([H])([H])C([H])([H])C([H])(n3nc(-c4c([H])c([H])c(Oc5c([H])c([H])c(F)c([H])c5F)c([H])c4[H])c(C(=O)N([H])[H])c3N([H])[H])C2([H])[H])c([H])c(N(C([H])([H])[H])C([H])([H])C([H])([H])Oc2c([H])c([H])c3c(c2[H])C([H])([H])N(C(=O)C([H])(N([H])C(=O)C([H])(N([H])C([H])([H])[H])C([H])([H])[H])C(C([H])([H])[H])(C([H])([H])[H])C([H])([H])[H])C([H])(C(=O)N([H])C2([H])c4c([H])c([H])c([H])c([H])c4C([H])([H])C([H])([H])C2([H])[H])C3([H])[H])c1[H]

>  <smiles>  (35) 
[H]c1c([H])c(N([H])C(=O)N2C([H])([H])C([H])([H])C([H])([H])C([H])(n3nc(-c4c([H])c([H])c(Oc5c([H])c([H])c(F)c([H])c5F)c([H])c4[H])c(C(=O)N([H])[H])c3N([H])[H])C2([H])[H])c([H])c(N(C([H])([H])[H])C([H])([H])C([H])([H])Oc2c([H])c([H])c3c(c2[H])C([H])([H])N(C(=O)C([H])(N([H])C(=O)C([H])(N([H])C([H])([H])[H])C([H])([H])[H])C(C([H])([H])[H])(C([H])([H])[H])C([H])([H])[H])C([H])(C(=O)N([H])C2([H])c4c([H])c([H])c([H])c([H])c4C([H])([H])C([H])([H])C2([H])[H])C3([H])[H])c1[H]

$$$$
35:0:0
     RDKit          3D

 92100  0  0  1  0  0  0  0  0999 V2000
  -29.7740  -18.4800   19.8970 C   0  0  0  0  0  3  0  0  0  0  0  0
  -29.9750  -19.8820   19.8590 C   0  0  0  0  0  3  0  0  0  0  0  0
  -30.5030  -19.8620   22.2230 C   0  0  0  0  0  3  0  0  0  0  0  0
  -29.9160  -17.7550   21.1030 C   0  0  0  0  0  0  0  0  0  0  0  0
  -30.3490  -20.5930   21.0230 C   0  0  0  0  0  0  0  0  0  0  0  0
  -30.2750  -18.4690   22.2700 C   0  0  0  0  0  0  0  0  0  0  0  0
  -30.3950  -17.8190   23.4530 F   0  0  0  0  0  0  0  0  0  0  0  0
  -31.9930  -22.3060   21.3920 C   0  0  0  0  0  1  0  0  0  0  0  0
  -30.6160  -21.9850   21.0180 N   0  0  0  0  0  0  0  0  0  0  0  0
  -29.9120  -22.8600   20.0640 C   0  0  0  0  0  2  0  0  0  0  0  0
  -29.8220  -24.3490   20.5210 C   0  0  0  0  0  2  0  0  0  0  0  0
  -28.8560  -25.2090   19.6660 C   0  0  0  0  0  2  0  0  0  0  0  0
  -28.8230  -26.5980   20.0710 O   0  0  0  0  0  0  0  0  0  0  0  0
  -24.7810  -31.5770   23.1850 C   0  0  0  0  0  0  0  0  0  0  0  0
  -27.6260  -27.2980   20.0210 C   0  0  0  0  0  0  0  0  0  0  0  0
  -23.6530  -30.1840   21.4830 C   0  0  0  0  0  3  0  0  0  0  0  0
  -25.1820  -28.7460   20.0320 C   0  0  0  0  0  0  0  0  0  0  0  0
  -26.1700  -30.6290   21.3420 C   0  0  0  0  0  2  0  0  0  0  0  0
  -26.3120  -29.2810   20.6610 C   0  0  0  0  0  0  0  0  0  0  0  0
  -27.5340  -28.5630   20.6550 C   0  0  0  0  0  3  0  0  0  0  0  0
  -26.4750  -26.8010   19.3610 C   0  0  0  0  0  3  0  0  0  0  0  0
  -25.2600  -27.5070   19.3810 C   0  0  0  0  0  3  0  0  0  0  0  0
  -23.9090  -29.5600   20.0860 C   0  0  0  0  0  2  0  0  0  0  0  0
  -24.8850  -30.8110   22.0620 N   0  0  0  0  0  0  0  0  0  0  0  0
  -23.6820  -31.7960   23.7130 O   0  0  0  0  0  0  0  0  0  0  0  0
  -23.0250  -29.1100   22.4010 C   0  0  0  0  0  0  0  0  0  0  0  0
  -21.7090  -28.8830   22.2460 N   0  0  0  0  0  0  0  0  0  0  0  0
  -23.7170  -28.4840   23.2080 O   0  0  0  0  0  0  0  0  0  0  0  0
  -21.2110  -29.4460   21.5710 H   0  0  0  0  0  0  0  0  0  0  0  0
  -18.3730  -27.5540   22.6510 C   0  0  0  0  0  0  0  0  0  0  0  0
  -20.9150  -27.8940   22.9740 C   0  0  0  0  0  3  0  0  0  0  0  0
  -21.0780  -26.4850   22.3570 C   0  0  0  0  0  2  0  0  0  0  0  0
  -20.0050  -26.1540   21.3140 C   0  0  0  0  0  2  0  0  0  0  0  0
  -18.6090  -26.2310   21.9380 C   0  0  0  0  0  2  0  0  0  0  0  0
  -19.4570  -28.3410   23.1220 C   0  0  0  0  0  0  0  0  0  0  0  0
  -19.1830  -29.5780   23.7450 C   0  0  0  0  0  3  0  0  0  0  0  0
  -17.8600  -30.0290   23.9030 C   0  0  0  0  0  3  0  0  0  0  0  0
  -16.7900  -29.2380   23.4480 C   0  0  0  0  0  3  0  0  0  0  0  0
  -17.0470  -28.0030   22.8280 C   0  0  0  0  0  3  0  0  0  0  0  0
  -26.0340  -32.2350   23.8430 C   0  0  0  0  0  3  0  0  0  0  0  0
  -25.6830  -33.6240   24.1680 N   0  0  0  0  0  0  0  0  0  0  0  0
  -25.9920  -34.6840   23.4080 C   0  0  0  0  0  0  0  0  0  0  0  0
  -26.6730  -34.5980   22.3830 O   0  0  0  0  0  0  0  0  0  0  0  0
  -25.0760  -33.7630   24.9620 H   0  0  0  0  0  0  0  0  0  0  0  0
  -24.2040  -36.4180   23.0460 C   0  0  0  0  0  1  0  0  0  0  0  0
  -25.4600  -36.0590   23.8560 C   0  0  0  0  0  3  0  0  0  0  0  0
  -27.5680  -37.0170   24.6750 C   0  0  0  0  0  1  0  0  0  0  0  0
  -26.4580  -37.1440   23.7350 N   0  0  0  0  0  0  0  0  0  0  0  0
  -26.0230  -38.0520   23.8780 H   0  0  0  0  0  0  0  0  0  0  0  0
  -26.5340  -31.4710   25.1300 C   0  0  1  0  0  0  0  0  0  0  0  0
  -25.4200  -31.2030   26.1680 C   0  0  0  0  0  1  0  0  0  0  0  0
  -27.1580  -30.1090   24.7470 C   0  0  0  0  0  1  0  0  0  0  0  0
  -27.6500  -32.2880   25.8240 C   0  0  0  0  0  1  0  0  0  0  0  0
  -29.6090  -16.2430   21.1550 C   0  0  0  0  0  2  0  0  0  0  0  0
  -31.0840  -14.4730   20.2070 C   0  0  0  0  0  0  0  0  0  0  0  0
  -30.5900  -12.4330   18.8900 C   0  0  0  0  0  2  0  0  0  0  0  0
  -29.5940  -12.7320   17.7540 C   0  0  0  0  0  2  0  0  0  0  0  0
  -28.1450  -12.6000   18.2580 C   0  0  0  0  0  2  0  0  0  0  0  0
  -27.9060  -13.3770   19.5770 C   0  0  0  0  0  3  0  0  0  0  0  0
  -29.0090  -13.0690   20.6150 C   0  0  0  0  0  2  0  0  0  0  0  0
  -30.3140  -13.3640   20.0020 N   0  0  0  0  0  0  0  0  0  0  0  0
  -32.1340  -14.6580   19.5820 O   0  0  0  0  0  0  0  0  0  0  0  0
  -31.8150  -15.6890   22.1660 C   0  0  0  0  0  1  0  0  0  0  0  0
  -30.7520  -15.2990   21.2340 N   0  0  0  0  0  0  0  0  0  0  0  0
  -25.5640  -14.0330   20.4110 C   0  0  0  0  0  0  0  0  0  0  0  0
  -24.4940  -13.2800   20.8140 C   0  0  0  0  0  0  0  0  0  0  0  0
  -24.9170  -11.9180   20.7340 C   0  0  0  0  0  0  0  0  0  0  0  0
  -26.5720  -13.1280   20.1140 N   0  0  0  0  0  0  0  0  0  0  0  0
  -26.1900  -11.8510   20.3650 N   0  0  0  0  0  0  0  0  0  0  0  0
  -24.1690  -10.6700   20.9300 C   0  0  0  0  0  0  0  0  0  0  0  0
  -24.5800   -9.7030   21.8730 C   0  0  0  0  0  3  0  0  0  0  0  0
  -23.8340   -8.5190   22.0570 C   0  0  0  0  0  3  0  0  0  0  0  0
  -22.6620   -8.2950   21.2950 C   0  0  0  0  0  0  0  0  0  0  0  0
  -22.2690   -9.2500   20.3410 C   0  0  0  0  0  3  0  0  0  0  0  0
  -23.0160  -10.4260   20.1560 C   0  0  0  0  0  3  0  0  0  0  0  0
  -21.8880   -7.1630   21.3880 O   0  0  0  0  0  0  0  0  0  0  0  0
  -21.7580   -6.4740   22.5660 C   0  0  0  0  0  0  0  0  0  0  0  0
  -21.2730   -7.0920   23.7400 C   0  0  0  0  0  3  0  0  0  0  0  0
  -21.0890   -6.3310   24.9110 C   0  0  0  0  0  3  0  0  0  0  0  0
  -21.3800   -4.9530   24.9090 C   0  0  0  0  0  0  0  0  0  0  0  0
  -21.8570   -4.3360   23.7410 C   0  0  0  0  0  3  0  0  0  0  0  0
  -22.0430   -5.0940   22.5710 C   0  0  0  0  0  0  0  0  0  0  0  0
  -22.4830   -4.4900   21.4410 F   0  0  0  0  0  0  0  0  0  0  0  0
  -21.1960   -4.2200   26.0320 F   0  0  0  0  0  0  0  0  0  0  0  0
  -23.1240  -13.7870   21.1600 C   0  0  0  0  0  0  0  0  0  0  0  0
  -22.4250  -13.1000   22.0560 N   0  0  0  0  0  0  0  0  0  0  0  0
  -22.6840  -14.8260   20.6700 O   0  0  0  0  0  0  0  0  0  0  0  0
  -22.7950  -12.2570   22.4700 H   0  0  0  0  0  0  0  0  0  0  0  0
  -21.5080  -13.4210   22.3310 H   0  0  0  0  0  0  0  0  0  0  0  0
  -25.7560  -15.4010   20.2530 N   0  0  0  0  0  0  0  0  0  0  0  0
  -25.0050  -16.0690   20.4020 H   0  0  0  0  0  0  0  0  0  0  0  0
  -26.5900  -15.8260   19.8690 H   0  0  0  0  0  0  0  0  0  0  0  0
  1  4  1  0
  2  1  2  0
  2  5  1  0
  3  6  1  0
  4 54  1  0
  4  6  2  0
  5  3  2  0
  6  7  1  0
  9  5  1  0
  9  8  1  0
 10 11  1  0
 10  9  1  0
 12 13  1  0
 12 11  1  0
 14 25  2  0
 15 13  1  0
 15 20  1  0
 16 24  1  0
 16 26  1  0
 17 23  1  0
 17 19  1  0
 18 24  1  0
 19 18  1  0
 20 19  2  0
 21 22  1  0
 21 15  2  0
 22 17  2  0
 23 16  1  0
 24 14  1  0
 26 28  2  0
 27 26  1  0
 29 27  1  0
 30 39  2  0
 30 35  1  0
 31 27  1  0
 31 35  1  0
 32 31  1  0
 33 34  1  0
 33 32  1  0
 34 30  1  0
 35 36  2  0
 36 37  1  0
 38 37  2  0
 39 38  1  0
 40 14  1  0
 40 41  1  0
 40 50  1  0
 41 44  1  0
 42 46  1  0
 42 41  1  0
 43 42  2  0
 46 45  1  0
 48 46  1  0
 48 49  1  0
 48 47  1  0
 50 53  1  1
 50 51  1  0
 52 50  1  0
 54 64  1  0
 55 64  1  0
 56 61  1  0
 57 58  1  0
 57 56  1  0
 59 58  1  0
 59 68  1  0
 59 60  1  0
 61 55  1  0
 61 60  1  0
 62 55  2  0
 64 63  1  0
 65 66  2  0
 66 85  1  0
 67 66  1  0
 67 70  1  0
 68 69  1  0
 68 65  1  0
 69 67  2  0
 70 71  1  0
 71 72  2  0
 73 76  1  0
 73 72  1  0
 74 73  2  0
 75 74  1  0
 75 70  2  0
 76 77  1  0
 77 82  2  0
 77 78  1  0
 78 79  2  0
 80 79  1  0
 80 84  1  0
 81 80  2  0
 82 81  1  0
 83 82  1  0
 85 86  1  0
 86 89  1  0
 86 88  1  0
 87 85  2  0
 90 91  1  0
 90 65  1  0
 92 90  1  0
M  ISO  4  12 101  13 101  55 100  64 100
M  END
>  <TORSDO>  (36) 
F 21

>  <SCORE>  (36) 
-10.914

>  <name>  (36) 
35

>  <ligand_id>  (36) 
35

>  <original_smiles>  (36) 
[H]c1c([H])c([H])c2c(c1[H])C([H])([H])C([H])([H])C([H])([H])C2([H])N([H])C(=O)C1([H])N(C(=O)C([H])(N([H])C(=O)C([H])(N([H])C([H])([H])[H])C([H])([H])[H])C(C([H])([H])[H])(C([H])([H])[H])C([H])([H])[H])C([H])([H])c2c([H])c(OC([H])([H])C([H])([H])C([H])([H])N(c3c([H])c([H])c(C([H])([H])N(C(=O)N4C([H])([H])C([H])([H])C([H])([H])C([H])(n5nc(-c6c([H])c([H])c(Oc7c([H])c([H])c(F)c([H])c7F)c([H])c6[H])c(C(=O)N([H])[H])c5N([H])[H])C4([H])[H])C([H])([H])[H])c(F)c3[H])C([H])([H])[H])c([H])c([H])c2C1([H])[H]

>  <smiles>  (36) 
[H]c1c([H])c([H])c2c(c1[H])C([H])([H])C([H])([H])C([H])([H])C2([H])N([H])C(=O)C1([H])N(C(=O)C([H])(N([H])C(=O)C([H])(N([H])C([H])([H])[H])C([H])([H])[H])C(C([H])([H])[H])(C([H])([H])[H])C([H])([H])[H])C([H])([H])c2c([H])c(OC([H])([H])C([H])([H])C([H])([H])N(c3c([H])c([H])c(C([H])([H])N(C(=O)N4C([H])([H])C([H])([H])C([H])([H])C([H])(n5nc(-c6c([H])c([H])c(Oc7c([H])c([H])c(F)c([H])c7F)c([H])c6[H])c(C(=O)N([H])[H])c5N([H])[H])C4([H])[H])C([H])([H])[H])c(F)c3[H])C([H])([H])[H])c([H])c([H])c2C1([H])[H]

$$$$
36:0:0
     RDKit          3D

 88 96  0  0  1  0  0  0  0  0999 V2000
  -29.5580  -20.0390   21.2950 C   0  0  0  0  0  3  0  0  0  0  0  0
  -29.3880  -19.6380   18.9930 C   0  0  0  0  0  3  0  0  0  0  0  0
  -29.8610  -18.6300   21.4890 C   0  0  0  0  0  3  0  0  0  0  0  0
  -29.7130  -18.2280   19.1810 C   0  0  0  0  0  3  0  0  0  0  0  0
  -29.2650  -20.6370   20.0300 C   0  0  0  0  0  0  0  0  0  0  0  0
  -29.9530  -17.6180   20.4560 C   0  0  0  0  0  0  0  0  0  0  0  0
  -30.7240  -15.0350   20.0230 C   0  0  0  0  0  0  0  0  0  0  0  0
  -30.5030  -12.7460   18.9420 C   0  0  0  0  0  2  0  0  0  0  0  0
  -29.4910  -12.7630   17.7720 C   0  0  0  0  0  2  0  0  0  0  0  0
  -28.0570  -12.5340   18.2820 C   0  0  0  0  0  2  0  0  0  0  0  0
  -27.7340  -13.4050   19.5210 C   0  0  0  0  0  3  0  0  0  0  0  0
  -28.8520  -13.3390   20.5780 C   0  0  0  0  0  2  0  0  0  0  0  0
  -30.1020  -13.7850   19.9380 N   0  0  0  0  0  0  0  0  0  0  0  0
  -31.8120  -15.1640   19.4490 O   0  0  0  0  0  0  0  0  0  0  0  0
  -30.2010  -15.8230   22.2070 C   0  0  0  0  0  1  0  0  0  0  0  0
  -30.1630  -16.1160   20.7630 N   0  0  0  0  0  0  0  0  0  0  0  0
  -25.4070  -13.9580   20.4370 C   0  0  0  0  0  0  0  0  0  0  0  0
  -24.3660  -13.1700   20.8470 C   0  0  0  0  0  0  0  0  0  0  0  0
  -24.8250  -11.8210   20.7330 C   0  0  0  0  0  0  0  0  0  0  0  0
  -26.4280  -13.0890   20.0910 N   0  0  0  0  0  0  0  0  0  0  0  0
  -26.0920  -11.7960   20.3350 N   0  0  0  0  0  0  0  0  0  0  0  0
  -24.1110  -10.5520   20.9230 C   0  0  0  0  0  0  0  0  0  0  0  0
  -24.5430   -9.5910   21.8640 C   0  0  0  0  0  3  0  0  0  0  0  0
  -23.8270   -8.3880   22.0400 C   0  0  0  0  0  3  0  0  0  0  0  0
  -22.6620   -8.1360   21.2760 C   0  0  0  0  0  0  0  0  0  0  0  0
  -22.2490   -9.0860   20.3250 C   0  0  0  0  0  3  0  0  0  0  0  0
  -22.9660  -10.2810   20.1470 C   0  0  0  0  0  3  0  0  0  0  0  0
  -21.9170   -6.9850   21.3600 O   0  0  0  0  0  0  0  0  0  0  0  0
  -21.7770   -6.3040   22.5440 C   0  0  0  0  0  0  0  0  0  0  0  0
  -21.2340   -6.9160   23.6950 C   0  0  0  0  0  3  0  0  0  0  0  0
  -21.0420   -6.1600   24.8690 C   0  0  0  0  0  3  0  0  0  0  0  0
  -21.3840   -4.7950   24.8930 C   0  0  0  0  0  0  0  0  0  0  0  0
  -21.9190   -4.1830   23.7460 C   0  0  0  0  0  3  0  0  0  0  0  0
  -22.1120   -4.9360   22.5750 C   0  0  0  0  0  0  0  0  0  0  0  0
  -22.6080   -4.3360   21.4660 F   0  0  0  0  0  0  0  0  0  0  0  0
  -21.1940   -4.0680   26.0190 F   0  0  0  0  0  0  0  0  0  0  0  0
  -22.9920  -13.6350   21.2310 C   0  0  0  0  0  0  0  0  0  0  0  0
  -22.3250  -12.9100   22.1210 N   0  0  0  0  0  0  0  0  0  0  0  0
  -22.5220  -14.6780   20.7770 O   0  0  0  0  0  0  0  0  0  0  0  0
  -22.7190  -12.0650   22.5070 H   0  0  0  0  0  0  0  0  0  0  0  0
  -21.4070  -13.2050   22.4220 H   0  0  0  0  0  0  0  0  0  0  0  0
  -25.5670  -15.3340   20.3050 N   0  0  0  0  0  0  0  0  0  0  0  0
  -24.8180  -15.9930   20.4940 H   0  0  0  0  0  0  0  0  0  0  0  0
  -26.4150  -15.7810   19.9800 H   0  0  0  0  0  0  0  0  0  0  0  0
  -28.8040  -22.1440   19.7280 C   0  0  0  0  0  3  0  0  0  0  0  0
  -28.7310  -23.4080   20.3640 C   0  0  0  0  0  3  0  0  0  0  0  0
  -28.0030  -24.7780   19.8230 C   0  0  0  0  0  2  0  0  0  0  0  0
  -28.2430  -26.2450   20.2830 O   0  0  0  0  0  0  0  0  0  0  0  0
  -24.6060  -31.9410   23.2270 C   0  0  0  0  0  0  0  0  0  0  0  0
  -27.1930  -27.2340   20.1940 C   0  0  0  0  0  0  0  0  0  0  0  0
  -23.4010  -30.5250   21.6100 C   0  0  0  0  0  3  0  0  0  0  0  0
  -24.8500  -28.9600   20.1790 C   0  0  0  0  0  0  0  0  0  0  0  0
  -25.9530  -30.8080   21.4230 C   0  0  0  0  0  2  0  0  0  0  0  0
  -26.0310  -29.4160   20.7770 C   0  0  0  0  0  0  0  0  0  0  0  0
  -27.2010  -28.5660   20.7760 C   0  0  0  0  0  3  0  0  0  0  0  0
  -25.9870  -26.8930   19.5350 C   0  0  0  0  0  3  0  0  0  0  0  0
  -24.8410  -27.7130   19.5440 C   0  0  0  0  0  3  0  0  0  0  0  0
  -23.6140  -29.8430   20.2340 C   0  0  0  0  0  2  0  0  0  0  0  0
  -24.6730  -31.1140   22.1410 N   0  0  0  0  0  0  0  0  0  0  0  0
  -23.5240  -32.2210   23.7630 O   0  0  0  0  0  0  0  0  0  0  0  0
  -22.7400  -29.5160   22.5850 C   0  0  0  0  0  0  0  0  0  0  0  0
  -21.4170  -29.3160   22.4560 N   0  0  0  0  0  0  0  0  0  0  0  0
  -23.4220  -28.9180   23.4210 O   0  0  0  0  0  0  0  0  0  0  0  0
  -20.9230  -29.8490   21.7540 H   0  0  0  0  0  0  0  0  0  0  0  0
  -18.0620  -28.0430   22.9550 C   0  0  0  0  0  0  0  0  0  0  0  0
  -20.6120  -28.3770   23.2410 C   0  0  0  0  0  3  0  0  0  0  0  0
  -20.7540  -26.9350   22.7020 C   0  0  0  0  0  2  0  0  0  0  0  0
  -19.6720  -26.5610   21.6840 C   0  0  0  0  0  2  0  0  0  0  0  0
  -18.2800  -26.6850   22.3100 C   0  0  0  0  0  2  0  0  0  0  0  0
  -19.1570  -28.8450   23.3760 C   0  0  0  0  0  0  0  0  0  0  0  0
  -18.8990  -30.1140   23.9400 C   0  0  0  0  0  3  0  0  0  0  0  0
  -17.5800  -30.5830   24.0840 C   0  0  0  0  0  3  0  0  0  0  0  0
  -16.5000  -29.7800   23.6800 C   0  0  0  0  0  3  0  0  0  0  0  0
  -16.7420  -28.5110   23.1220 C   0  0  0  0  0  3  0  0  0  0  0  0
  -25.8860  -32.5920   23.8330 C   0  0  0  0  0  3  0  0  0  0  0  0
  -25.5710  -33.9960   24.1420 N   0  0  0  0  0  0  0  0  0  0  0  0
  -25.8760  -35.0390   23.3590 C   0  0  0  0  0  0  0  0  0  0  0  0
  -26.5220  -34.9220   22.3140 O   0  0  0  0  0  0  0  0  0  0  0  0
  -24.9940  -34.1600   24.9540 H   0  0  0  0  0  0  0  0  0  0  0  0
  -24.1140  -36.8050   23.0310 C   0  0  0  0  0  1  0  0  0  0  0  0
  -25.3880  -36.4320   23.8040 C   0  0  0  0  0  3  0  0  0  0  0  0
  -27.5400  -37.3560   24.5420 C   0  0  0  0  0  1  0  0  0  0  0  0
  -26.4030  -37.4950   23.6360 N   0  0  0  0  0  0  0  0  0  0  0  0
  -25.9900  -38.4110   23.7890 H   0  0  0  0  0  0  0  0  0  0  0  0
  -26.4080  -31.8510   25.1270 C   0  0  1  0  0  0  0  0  0  0  0  0
  -25.3140  -31.6210   26.1950 C   0  0  0  0  0  1  0  0  0  0  0  0
  -27.0110  -30.4740   24.7680 C   0  0  0  0  0  1  0  0  0  0  0  0
  -27.5440  -32.6740   25.7790 C   0  0  0  0  0  1  0  0  0  0  0  0
  1  3  1  0
  2  4  2  0
  2  5  1  0
  4  6  1  0
  5  1  2  0
  6 16  1  0
  6  3  2  0
  7 16  1  0
  8 13  1  0
  9 10  1  0
  9  8  1  0
 11 10  1  0
 11 20  1  0
 11 12  1  0
 13  7  1  0
 13 12  1  0
 14  7  2  0
 16 15  1  0
 17 18  2  0
 18 37  1  0
 19 18  1  0
 19 22  1  0
 20 21  1  0
 20 17  1  0
 21 19  2  0
 22 23  1  0
 23 24  2  0
 25 28  1  0
 25 24  1  0
 26 25  2  0
 27 26  1  0
 27 22  2  0
 28 29  1  0
 29 34  2  0
 29 30  1  0
 30 31  2  0
 31 32  1  0
 32 36  1  0
 33 32  2  0
 34 33  1  0
 35 34  1  0
 37 38  1  0
 38 41  1  0
 38 40  1  0
 39 37  2  0
 42 17  1  0
 42 43  1  0
 44 42  1  0
 45  5  1  0
 45 46  2  0
 47 48  1  0
 47 46  1  0
 49 60  2  0
 50 48  1  0
 50 55  1  0
 51 59  1  0
 51 61  1  0
 52 58  1  0
 52 54  1  0
 53 59  1  0
 54 53  1  0
 55 54  2  0
 56 57  1  0
 56 50  2  0
 57 52  2  0
 58 51  1  0
 59 49  1  0
 61 63  2  0
 62 61  1  0
 64 62  1  0
 65 74  2  0
 65 70  1  0
 66 62  1  0
 66 70  1  0
 67 66  1  0
 68 69  1  0
 68 67  1  0
 69 65  1  0
 70 71  2  0
 71 72  1  0
 73 72  2  0
 74 73  1  0
 75 49  1  0
 75 76  1  0
 75 85  1  0
 76 79  1  0
 77 81  1  0
 77 76  1  0
 78 77  2  0
 81 80  1  0
 83 84  1  0
 83 81  1  0
 83 82  1  0
 85 88  1  1
 85 86  1  0
 87 85  1  0
M  ISO  4   7 100  16 100  47 101  48 101
M  END
>  <TORSDO>  (37) 
F 18

>  <SCORE>  (37) 
-13.481

>  <name>  (37) 
36

>  <ligand_id>  (37) 
36

>  <original_smiles>  (37) 
[H]C(=C([H])C([H])([H])Oc1c([H])c([H])c2c(c1[H])C([H])([H])N(C(=O)C([H])(N([H])C(=O)C([H])(N([H])C([H])([H])[H])C([H])([H])[H])C(C([H])([H])[H])(C([H])([H])[H])C([H])([H])[H])C([H])(C(=O)N([H])C1([H])c3c([H])c([H])c([H])c([H])c3C([H])([H])C([H])([H])C1([H])[H])C2([H])[H])c1c([H])c([H])c(N(C(=O)N2C([H])([H])C([H])([H])C([H])([H])C([H])(n3nc(-c4c([H])c([H])c(Oc5c([H])c([H])c(F)c([H])c5F)c([H])c4[H])c(C(=O)N([H])[H])c3N([H])[H])C2([H])[H])C([H])([H])[H])c([H])c1[H]

>  <smiles>  (37) 
[H]C(=C([H])C([H])([H])Oc1c([H])c([H])c2c(c1[H])C([H])([H])N(C(=O)C([H])(N([H])C(=O)C([H])(N([H])C([H])([H])[H])C([H])([H])[H])C(C([H])([H])[H])(C([H])([H])[H])C([H])([H])[H])C([H])(C(=O)N([H])C1([H])c3c([H])c([H])c([H])c([H])c3C([H])([H])C([H])([H])C1([H])[H])C2([H])[H])c1c([H])c([H])c(N(C(=O)N2C([H])([H])C([H])([H])C([H])([H])C([H])(n3nc(-c4c([H])c([H])c(Oc5c([H])c([H])c(F)c([H])c5F)c([H])c4[H])c(C(=O)N([H])[H])c3N([H])[H])C2([H])[H])C([H])([H])[H])c([H])c1[H]

$$$$
37:0:0
     RDKit          3D

100109  0  0  1  0  0  0  0  0999 V2000
  -31.1820  -18.7910   18.3740 C   0  0  0  0  0  3  0  0  0  0  0  0
  -30.1420  -18.3930   20.9430 C   0  0  0  0  0  3  0  0  0  0  0  0
  -30.9950  -17.4750   18.8430 C   0  0  0  0  0  0  0  0  0  0  0  0
  -30.5310  -17.2440   20.1750 C   0  0  0  0  0  0  0  0  0  0  0  0
  -30.2770  -19.7360   20.4460 C   0  0  0  0  0  0  0  0  0  0  0  0
  -30.8500  -19.9020   19.1610 C   0  0  0  0  0  0  0  0  0  0  0  0
  -31.0950  -21.1390   18.6610 F   0  0  0  0  0  0  0  0  0  0  0  0
  -31.0700  -14.7720   20.3950 C   0  0  0  0  0  0  0  0  0  0  0  0
  -30.7340  -12.6090   19.2040 C   0  0  0  0  0  2  0  0  0  0  0  0
  -29.8030  -12.7750   17.9790 C   0  0  0  0  0  2  0  0  0  0  0  0
  -28.3130  -12.7440   18.3860 C   0  0  0  0  0  2  0  0  0  0  0  0
  -27.9900  -13.5560   19.6770 C   0  0  0  0  0  3  0  0  0  0  0  0
  -29.0420  -13.2960   20.7790 C   0  0  0  0  0  2  0  0  0  0  0  0
  -30.3680  -13.6080   20.2310 N   0  0  0  0  0  0  0  0  0  0  0  0
  -32.2490  -14.8750   20.0360 O   0  0  0  0  0  0  0  0  0  0  0  0
  -30.3460  -15.8920   20.6970 N   0  0  0  0  0  0  0  0  0  0  0  0
  -29.4430  -15.7150   21.1060 H   0  0  0  0  0  0  0  0  0  0  0  0
  -25.5930  -14.1810   20.3930 C   0  0  0  0  0  0  0  0  0  0  0  0
  -24.5160  -13.4150   20.7430 C   0  0  0  0  0  0  0  0  0  0  0  0
  -24.9650  -12.0600   20.7220 C   0  0  0  0  0  0  0  0  0  0  0  0
  -26.6330  -13.2920   20.1590 N   0  0  0  0  0  0  0  0  0  0  0  0
  -26.2590  -12.0110   20.4230 N   0  0  0  0  0  0  0  0  0  0  0  0
  -24.2250  -10.8060   20.9110 C   0  0  0  0  0  0  0  0  0  0  0  0
  -24.6160   -9.8640   21.8880 C   0  0  0  0  0  3  0  0  0  0  0  0
  -23.8830   -8.6720   22.0710 C   0  0  0  0  0  3  0  0  0  0  0  0
  -22.7420   -8.4130   21.2740 C   0  0  0  0  0  0  0  0  0  0  0  0
  -22.3700   -9.3420   20.2860 C   0  0  0  0  0  3  0  0  0  0  0  0
  -23.1040  -10.5260   20.1020 C   0  0  0  0  0  3  0  0  0  0  0  0
  -21.9880   -7.2680   21.3550 O   0  0  0  0  0  0  0  0  0  0  0  0
  -21.8320   -6.5900   22.5350 C   0  0  0  0  0  0  0  0  0  0  0  0
  -21.3080   -7.2130   23.6890 C   0  0  0  0  0  3  0  0  0  0  0  0
  -21.1010   -6.4600   24.8620 C   0  0  0  0  0  3  0  0  0  0  0  0
  -21.4100   -5.0880   24.8800 C   0  0  0  0  0  0  0  0  0  0  0  0
  -21.9270   -4.4640   23.7300 C   0  0  0  0  0  3  0  0  0  0  0  0
  -22.1330   -5.2140   22.5600 C   0  0  0  0  0  0  0  0  0  0  0  0
  -22.6100   -4.6040   21.4470 F   0  0  0  0  0  0  0  0  0  0  0  0
  -21.2000   -4.3630   26.0030 F   0  0  0  0  0  0  0  0  0  0  0  0
  -23.1200  -13.9030   20.9980 C   0  0  0  0  0  0  0  0  0  0  0  0
  -22.3900  -13.2320   21.8810 N   0  0  0  0  0  0  0  0  0  0  0  0
  -22.6870  -14.9130   20.4490 O   0  0  0  0  0  0  0  0  0  0  0  0
  -22.7520  -12.4130   22.3470 H   0  0  0  0  0  0  0  0  0  0  0  0
  -21.4550  -13.5510   22.0910 H   0  0  0  0  0  0  0  0  0  0  0  0
  -25.7690  -15.5540   20.2350 N   0  0  0  0  0  0  0  0  0  0  0  0
  -25.0110  -16.2160   20.3740 H   0  0  0  0  0  0  0  0  0  0  0  0
  -26.6430  -16.0070   20.0050 H   0  0  0  0  0  0  0  0  0  0  0  0
  -29.1320  -21.9180   20.6080 C   0  0  0  0  0  0  0  0  0  0  0  0
  -30.3280  -21.0120   22.6000 C   0  0  0  0  0  1  0  0  0  0  0  0
  -29.8940  -20.9260   21.1960 N   0  0  0  0  0  0  0  0  0  0  0  0
  -28.4390  -21.6670   19.6160 O   0  0  0  0  0  0  0  0  0  0  0  0
  -29.1340  -23.2680   21.2140 C   0  0  0  0  0  3  0  0  0  0  0  0
  -28.4930  -24.3130   20.6110 C   0  0  0  0  0  3  0  0  0  0  0  0
  -28.3080  -25.7340   21.1690 C   0  0  0  0  0  2  0  0  0  0  0  0
  -28.2230  -26.7710   20.1650 O   0  0  0  0  0  0  0  0  0  0  0  0
  -24.5750  -32.0510   23.3120 C   0  0  0  0  0  0  0  0  0  0  0  0
  -27.0750  -27.5400   20.2050 C   0  0  0  0  0  0  0  0  0  0  0  0
  -23.3020  -30.6430   21.7270 C   0  0  0  0  0  3  0  0  0  0  0  0
  -24.6970  -29.0770   20.2730 C   0  0  0  0  0  0  0  0  0  0  0  0
  -25.8250  -30.9770   21.4430 C   0  0  0  0  0  2  0  0  0  0  0  0
  -25.8800  -29.5990   20.8130 C   0  0  0  0  0  0  0  0  0  0  0  0
  -27.0750  -28.8400   20.7660 C   0  0  0  0  0  3  0  0  0  0  0  0
  -25.8750  -27.0340   19.6650 C   0  0  0  0  0  3  0  0  0  0  0  0
  -24.6890  -27.7940   19.6970 C   0  0  0  0  0  3  0  0  0  0  0  0
  -23.4630  -29.9480   20.3500 C   0  0  0  0  0  2  0  0  0  0  0  0
  -24.5870  -31.2410   22.2160 N   0  0  0  0  0  0  0  0  0  0  0  0
  -23.5150  -32.3350   23.8860 O   0  0  0  0  0  0  0  0  0  0  0  0
  -22.6740  -29.6390   22.7190 C   0  0  0  0  0  0  0  0  0  0  0  0
  -21.3740  -29.3520   22.5370 N   0  0  0  0  0  0  0  0  0  0  0  0
  -23.3550  -29.1140   23.6040 O   0  0  0  0  0  0  0  0  0  0  0  0
  -20.8880  -29.8250   21.7880 H   0  0  0  0  0  0  0  0  0  0  0  0
  -18.0930  -27.8720   22.8780 C   0  0  0  0  0  0  0  0  0  0  0  0
  -20.5810  -28.4100   23.3270 C   0  0  0  0  0  3  0  0  0  0  0  0
  -20.8690  -26.9520   22.9010 C   0  0  0  0  0  2  0  0  0  0  0  0
  -19.8960  -26.4310   21.8380 C   0  0  0  0  0  2  0  0  0  0  0  0
  -18.4550  -26.4930   22.3490 C   0  0  0  0  0  2  0  0  0  0  0  0
  -19.0920  -28.7790   23.3200 C   0  0  0  0  0  0  0  0  0  0  0  0
  -18.7050  -30.0610   23.7660 C   0  0  0  0  0  3  0  0  0  0  0  0
  -17.3510  -30.4410   23.7790 C   0  0  0  0  0  3  0  0  0  0  0  0
  -16.3650  -29.5330   23.3590 C   0  0  0  0  0  3  0  0  0  0  0  0
  -16.7340  -28.2520   22.9140 C   0  0  0  0  0  3  0  0  0  0  0  0
  -25.8860  -32.6780   23.8820 C   0  0  0  0  0  3  0  0  0  0  0  0
  -25.5990  -34.0790   24.2220 N   0  0  0  0  0  0  0  0  0  0  0  0
  -25.9130  -35.1290   23.4510 C   0  0  0  0  0  0  0  0  0  0  0  0
  -26.5470  -35.0210   22.3970 O   0  0  0  0  0  0  0  0  0  0  0  0
  -25.0400  -34.2390   25.0450 H   0  0  0  0  0  0  0  0  0  0  0  0
  -24.1790  -36.9260   23.1570 C   0  0  0  0  0  1  0  0  0  0  0  0
  -25.4510  -36.5200   23.9220 C   0  0  0  0  0  3  0  0  0  0  0  0
  -27.6190  -37.3960   24.6660 C   0  0  0  0  0  1  0  0  0  0  0  0
  -26.4820  -37.5690   23.7670 N   0  0  0  0  0  0  0  0  0  0  0  0
  -26.0860  -38.4900   23.9350 H   0  0  0  0  0  0  0  0  0  0  0  0
  -26.4540  -31.9060   25.1340 C   0  0  1  0  0  0  0  0  0  0  0  0
  -25.3930  -31.6300   26.2240 C   0  0  0  0  0  1  0  0  0  0  0  0
  -27.0610  -30.5470   24.7110 C   0  0  0  0  0  1  0  0  0  0  0  0
  -27.6010  -32.7210   25.7790 C   0  0  0  0  0  1  0  0  0  0  0  0
  -31.2740  -16.3230   17.8850 C   0  0  0  0  0  2  0  0  0  0  0  0
  -33.1920  -15.9830   16.3600 C   0  0  0  0  0  0  0  0  0  0  0  0
  -33.4510  -16.1210   14.8690 C   0  0  0  0  0  2  0  0  0  0  0  0
  -32.1760  -16.7920   14.3490 C   0  0  0  0  0  2  0  0  0  0  0  0
  -31.4390  -17.3100   15.5880 C   0  0  0  0  0  2  0  0  0  0  0  0
  -32.0740  -16.6290   16.7090 N   0  0  0  0  0  0  0  0  0  0  0  0
  -33.8940  -15.2910   17.1000 O   0  0  0  0  0  0  0  0  0  0  0  0
  1  3  2  0
  1  6  1  0
  3  4  1  0
  4 16  1  0
  4  2  2  0
  5  2  1  0
  5 48  1  0
  6  5  2  0
  7  6  1  0
  8 16  1  0
  9 14  1  0
 10 11  1  0
 10  9  1  0
 12 11  1  0
 12 21  1  0
 12 13  1  0
 14  8  1  0
 14 13  1  0
 15  8  2  0
 16 17  1  0
 18 19  2  0
 19 38  1  0
 20 19  1  0
 20 23  1  0
 21 18  1  0
 21 22  1  0
 22 20  2  0
 23 24  1  0
 24 25  2  0
 26 29  1  0
 26 25  1  0
 27 26  2  0
 28 27  1  0
 28 23  2  0
 29 30  1  0
 30 35  2  0
 30 31  1  0
 31 32  2  0
 32 33  1  0
 33 37  1  0
 34 33  2  0
 35 34  1  0
 36 35  1  0
 38 39  1  0
 39 42  1  0
 39 41  1  0
 40 38  2  0
 43 44  1  0
 43 18  1  0
 45 43  1  0
 46 48  1  0
 46 50  1  0
 48 47  1  0
 49 46  2  0
 51 52  1  0
 51 50  2  0
 53 55  1  0
 53 52  1  0
 54 65  2  0
 55 60  1  0
 56 64  1  0
 56 66  1  0
 57 63  1  0
 57 59  1  0
 58 64  1  0
 59 58  1  0
 60 59  2  0
 61 62  1  0
 61 55  2  0
 62 57  2  0
 63 56  1  0
 64 54  1  0
 66 68  2  0
 67 66  1  0
 69 67  1  0
 70 79  2  0
 70 75  1  0
 71 67  1  0
 72 71  1  0
 73 74  1  0
 73 72  1  0
 74 70  1  0
 75 71  1  0
 75 76  2  0
 76 77  1  0
 78 77  2  0
 79 78  1  0
 80 54  1  0
 80 81  1  0
 80 90  1  0
 81 84  1  0
 82 86  1  0
 82 81  1  0
 83 82  2  0
 86 85  1  0
 88 86  1  0
 88 89  1  0
 88 87  1  0
 90 93  1  1
 90 91  1  0
 92 90  1  0
 94  3  1  0
 95 99  1  0
 95100  2  0
 96 95  1  0
 97 96  1  0
 97 98  1  0
 98 99  1  0
 99 94  1  0
M  ISO  4   8 100  16 100  52 101  53 101
M  END
>  <TORSDO>  (38) 
F 21

>  <SCORE>  (38) 
-13.292

>  <name>  (38) 
37

>  <ligand_id>  (38) 
37

>  <original_smiles>  (38) 
[H]C(C(=O)N(c1c([H])c(N([H])C(=O)N2C([H])([H])C([H])([H])C([H])([H])C([H])(n3nc(-c4c([H])c([H])c(Oc5c([H])c([H])c(F)c([H])c5F)c([H])c4[H])c(C(=O)N([H])[H])c3N([H])[H])C2([H])[H])c(C([H])([H])N2C(=O)C([H])([H])C([H])([H])C2([H])[H])c([H])c1F)C([H])([H])[H])=C([H])C([H])([H])Oc1c([H])c([H])c2c(c1[H])C([H])([H])N(C(=O)C([H])(N([H])C(=O)C([H])(N([H])C([H])([H])[H])C([H])([H])[H])C(C([H])([H])[H])(C([H])([H])[H])C([H])([H])[H])C([H])(C(=O)N([H])C1([H])c3c([H])c([H])c([H])c([H])c3C([H])([H])C([H])([H])C1([H])[H])C2([H])[H]

>  <smiles>  (38) 
[H]C(C(=O)N(c1c([H])c(N([H])C(=O)N2C([H])([H])C([H])([H])C([H])([H])C([H])(n3nc(-c4c([H])c([H])c(Oc5c([H])c([H])c(F)c([H])c5F)c([H])c4[H])c(C(=O)N([H])[H])c3N([H])[H])C2([H])[H])c(C([H])([H])N2C(=O)C([H])([H])C([H])([H])C2([H])[H])c([H])c1F)C([H])([H])[H])=C([H])C([H])([H])Oc1c([H])c([H])c2c(c1[H])C([H])([H])N(C(=O)C([H])(N([H])C(=O)C([H])(N([H])C([H])([H])[H])C([H])([H])[H])C(C([H])([H])[H])(C([H])([H])[H])C([H])([H])[H])C([H])(C(=O)N([H])C1([H])c3c([H])c([H])c([H])c([H])c3C([H])([H])C([H])([H])C1([H])[H])C2([H])[H]

$$$$
38:0:0
     RDKit          3D

 95103  0  0  1  0  0  0  0  0999 V2000
  -29.0010  -21.8990   19.1710 N   0  0  1  0  0  4  0  0  0  0  0  0
  -28.1840  -21.4010   19.4930 H   0  0  0  0  0  0  0  0  0  0  0  0
  -27.9350  -21.4190   16.9330 C   0  0  0  0  0  1  0  0  0  0  0  0
  -29.8380  -23.1080   17.0880 C   0  0  0  0  0  1  0  0  0  0  0  0
  -28.6420  -22.4550   17.8250 C   0  0  0  0  0  3  0  0  0  0  0  0
  -30.1100  -20.8790   19.0990 C   0  0  0  0  0  2  0  0  0  0  0  0
  -30.3310  -19.1720   20.9970 C   0  0  0  0  0  3  0  0  0  0  0  0
  -30.4210  -17.8340   21.4470 C   0  0  0  0  0  3  0  0  0  0  0  0
  -29.5400  -17.0550   19.3330 C   0  0  0  0  0  3  0  0  0  0  0  0
  -29.8890  -19.4720   19.6910 C   0  0  0  0  0  0  0  0  0  0  0  0
  -30.0820  -16.7380   20.6070 C   0  0  0  0  0  0  0  0  0  0  0  0
  -29.4570  -18.3930   18.8790 C   0  0  0  0  0  0  0  0  0  0  0  0
  -29.0200  -18.6250   17.6210 F   0  0  0  0  0  0  0  0  0  0  0  0
  -30.7860  -14.4310   20.1670 C   0  0  0  0  0  0  0  0  0  0  0  0
  -30.3530  -12.3510   18.9020 C   0  0  0  0  0  2  0  0  0  0  0  0
  -29.3510  -12.6250   17.7660 C   0  0  0  0  0  2  0  0  0  0  0  0
  -27.9040  -12.4770   18.2710 C   0  0  0  0  0  2  0  0  0  0  0  0
  -27.6470  -13.2530   19.5930 C   0  0  0  0  0  3  0  0  0  0  0  0
  -28.7600  -12.9790   20.6260 C   0  0  0  0  0  2  0  0  0  0  0  0
  -30.0570  -13.2890   19.9980 N   0  0  0  0  0  0  0  0  0  0  0  0
  -31.8310  -14.6410   19.5410 O   0  0  0  0  0  0  0  0  0  0  0  0
  -30.6860  -15.1160   22.4290 C   0  0  0  0  0  1  0  0  0  0  0  0
  -30.3090  -15.3640   21.0310 N   0  0  0  0  0  0  0  0  0  0  0  0
  -25.2880  -13.8420   20.4270 C   0  0  0  0  0  0  0  0  0  0  0  0
  -24.2390  -13.0640   20.8390 C   0  0  0  0  0  0  0  0  0  0  0  0
  -24.6960  -11.7130   20.7670 C   0  0  0  0  0  0  0  0  0  0  0  0
  -26.3200  -12.9650   20.1350 N   0  0  0  0  0  0  0  0  0  0  0  0
  -25.9710  -11.6780   20.3970 N   0  0  0  0  0  0  0  0  0  0  0  0
  -23.9790  -10.4480   20.9750 C   0  0  0  0  0  0  0  0  0  0  0  0
  -24.4330   -9.4850   21.9040 C   0  0  0  0  0  3  0  0  0  0  0  0
  -23.7170   -8.2840   22.0960 C   0  0  0  0  0  3  0  0  0  0  0  0
  -22.5310   -8.0390   21.3640 C   0  0  0  0  0  0  0  0  0  0  0  0
  -22.0960   -8.9900   20.4260 C   0  0  0  0  0  3  0  0  0  0  0  0
  -22.8130  -10.1830   20.2300 C   0  0  0  0  0  3  0  0  0  0  0  0
  -21.7810   -6.8920   21.4680 O   0  0  0  0  0  0  0  0  0  0  0  0
  -21.7240   -6.1730   22.6360 C   0  0  0  0  0  0  0  0  0  0  0  0
  -21.2960   -6.7570   23.8490 C   0  0  0  0  0  3  0  0  0  0  0  0
  -21.1870   -5.9640   25.0090 C   0  0  0  0  0  3  0  0  0  0  0  0
  -21.4930   -4.5900   24.9560 C   0  0  0  0  0  0  0  0  0  0  0  0
  -21.9150   -4.0090   23.7460 C   0  0  0  0  0  3  0  0  0  0  0  0
  -22.0260   -4.7970   22.5890 C   0  0  0  0  0  0  0  0  0  0  0  0
  -22.4100   -4.2290   21.4200 F   0  0  0  0  0  0  0  0  0  0  0  0
  -21.3820   -3.8270   26.0660 F   0  0  0  0  0  0  0  0  0  0  0  0
  -22.8570  -13.5370   21.1880 C   0  0  0  0  0  0  0  0  0  0  0  0
  -22.1770  -12.8400   22.0910 N   0  0  0  0  0  0  0  0  0  0  0  0
  -22.3890  -14.5590   20.6900 O   0  0  0  0  0  0  0  0  0  0  0  0
  -22.5650  -12.0150   22.5230 H   0  0  0  0  0  0  0  0  0  0  0  0
  -21.2490  -13.1450   22.3540 H   0  0  0  0  0  0  0  0  0  0  0  0
  -25.4480  -15.2150   20.2590 N   0  0  0  0  0  0  0  0  0  0  0  0
  -24.6970  -15.8800   20.4100 H   0  0  0  0  0  0  0  0  0  0  0  0
  -26.2980  -15.6490   19.9220 H   0  0  0  0  0  0  0  0  0  0  0  0
  -29.2780  -22.9600   20.2090 C   0  0  0  0  0  2  0  0  0  0  0  0
  -28.2990  -24.1870   20.3470 C   0  0  0  0  0  2  0  0  0  0  0  0
  -28.6430  -25.4610   19.5100 C   0  0  0  0  0  2  0  0  0  0  0  0
  -28.4700  -26.7170   20.1970 O   0  0  0  0  0  0  0  0  0  0  0  0
  -24.6210  -31.8690   23.2540 C   0  0  0  0  0  0  0  0  0  0  0  0
  -27.2740  -27.4120   20.1700 C   0  0  0  0  0  0  0  0  0  0  0  0
  -23.4190  -30.4640   21.6120 C   0  0  0  0  0  3  0  0  0  0  0  0
  -24.8730  -28.9250   20.1860 C   0  0  0  0  0  0  0  0  0  0  0  0
  -25.9450  -30.8210   21.4160 C   0  0  0  0  0  2  0  0  0  0  0  0
  -26.0290  -29.4480   20.7750 C   0  0  0  0  0  0  0  0  0  0  0  0
  -27.2280  -28.6980   20.7640 C   0  0  0  0  0  3  0  0  0  0  0  0
  -26.0930  -26.9010   19.5830 C   0  0  0  0  0  3  0  0  0  0  0  0
  -24.8990  -27.6520   19.5910 C   0  0  0  0  0  3  0  0  0  0  0  0
  -23.6290  -29.7840   20.2330 C   0  0  0  0  0  2  0  0  0  0  0  0
  -24.6800  -31.0670   22.1520 N   0  0  0  0  0  0  0  0  0  0  0  0
  -23.5390  -32.1390   23.7920 O   0  0  0  0  0  0  0  0  0  0  0  0
  -22.7690  -29.4420   22.5730 C   0  0  0  0  0  0  0  0  0  0  0  0
  -21.4440  -29.2610   22.4480 N   0  0  0  0  0  0  0  0  0  0  0  0
  -23.4540  -28.8170   23.3870 O   0  0  0  0  0  0  0  0  0  0  0  0
  -20.9550  -29.8180   21.7620 H   0  0  0  0  0  0  0  0  0  0  0  0
  -18.0690  -28.0700   22.9490 C   0  0  0  0  0  0  0  0  0  0  0  0
  -20.6290  -28.3230   23.2170 C   0  0  0  0  0  3  0  0  0  0  0  0
  -20.7280  -26.8940   22.6370 C   0  0  0  0  0  2  0  0  0  0  0  0
  -19.6220  -26.5760   21.6240 C   0  0  0  0  0  2  0  0  0  0  0  0
  -18.2410  -26.7220   22.2700 C   0  0  0  0  0  2  0  0  0  0  0  0
  -19.1900  -28.8280   23.3790 C   0  0  0  0  0  0  0  0  0  0  0  0
  -18.9750  -30.0910   23.9740 C   0  0  0  0  0  3  0  0  0  0  0  0
  -17.6720  -30.5950   24.1420 C   0  0  0  0  0  3  0  0  0  0  0  0
  -16.5650  -29.8340   23.7270 C   0  0  0  0  0  3  0  0  0  0  0  0
  -16.7650  -28.5730   23.1390 C   0  0  0  0  0  3  0  0  0  0  0  0
  -25.9060  -32.5040   23.8740 C   0  0  0  0  0  3  0  0  0  0  0  0
  -25.5920  -33.8980   24.2120 N   0  0  0  0  0  0  0  0  0  0  0  0
  -25.9190  -34.9550   23.4580 C   0  0  0  0  0  0  0  0  0  0  0  0
  -26.5880  -34.8590   22.4240 O   0  0  0  0  0  0  0  0  0  0  0  0
  -24.9990  -34.0470   25.0160 H   0  0  0  0  0  0  0  0  0  0  0  0
  -24.1810  -36.7390   23.1120 C   0  0  0  0  0  1  0  0  0  0  0  0
  -25.4260  -36.3390   23.9200 C   0  0  0  0  0  3  0  0  0  0  0  0
  -27.5600  -37.2270   24.7490 C   0  0  0  0  0  1  0  0  0  0  0  0
  -26.4540  -37.3970   23.8100 N   0  0  0  0  0  0  0  0  0  0  0  0
  -26.0450  -38.3150   23.9640 H   0  0  0  0  0  0  0  0  0  0  0  0
  -26.4330  -31.7280   25.1430 C   0  0  1  0  0  0  0  0  0  0  0  0
  -25.3450  -31.4790   26.2150 C   0  0  0  0  0  1  0  0  0  0  0  0
  -27.0210  -30.3550   24.7390 C   0  0  0  0  0  1  0  0  0  0  0  0
  -27.5820  -32.5240   25.8040 C   0  0  0  0  0  1  0  0  0  0  0  0
  1  2  1  1
  1 52  1  0
  3  5  1  0
  4  5  1  0
  5  1  1  0
  6  1  1  0
  6 10  1  0
  7  8  1  0
  9 11  1  0
 10  7  2  0
 11 23  1  0
 11  8  2  0
 12  9  2  0
 12 10  1  0
 13 12  1  0
 14 23  1  0
 15 20  1  0
 16 17  1  0
 16 15  1  0
 18 17  1  0
 18 27  1  0
 18 19  1  0
 20 14  1  0
 20 19  1  0
 21 14  2  0
 23 22  1  0
 24 25  2  0
 25 44  1  0
 26 25  1  0
 26 29  1  0
 27 28  1  0
 27 24  1  0
 28 26  2  0
 29 30  1  0
 30 31  2  0
 32 35  1  0
 32 31  1  0
 33 32  2  0
 34 33  1  0
 34 29  2  0
 35 36  1  0
 36 37  1  0
 37 38  2  0
 39 38  1  0
 39 43  1  0
 40 39  2  0
 41 36  2  0
 41 40  1  0
 42 41  1  0
 44 45  1  0
 45 48  1  0
 45 47  1  0
 46 44  2  0
 49 50  1  0
 49 24  1  0
 51 49  1  0
 52 53  1  0
 54 55  1  0
 54 53  1  0
 56 67  2  0
 57 55  1  0
 57 62  1  0
 58 66  1  0
 58 68  1  0
 59 65  1  0
 59 61  1  0
 60 66  1  0
 61 60  1  0
 62 61  2  0
 63 64  1  0
 63 57  2  0
 64 59  2  0
 65 58  1  0
 66 56  1  0
 68 70  2  0
 69 68  1  0
 71 69  1  0
 72 81  2  0
 72 77  1  0
 73 69  1  0
 73 77  1  0
 74 73  1  0
 75 76  1  0
 75 74  1  0
 76 72  1  0
 77 78  2  0
 78 79  1  0
 80 79  2  0
 81 80  1  0
 82 56  1  0
 82 83  1  0
 82 92  1  0
 83 86  1  0
 84 88  1  0
 84 83  1  0
 85 84  2  0
 88 87  1  0
 90 88  1  0
 90 91  1  0
 90 89  1  0
 92 95  1  1
 92 93  1  0
 94 92  1  0
M  ISO  4  14 100  23 100  54 101  55 101
M  END
>  <TORSDO>  (39) 
F 22

>  <SCORE>  (39) 
-12.025

>  <name>  (39) 
38

>  <ligand_id>  (39) 
38

>  <original_smiles>  (39) 
[H]c1c([H])c([H])c2c(c1[H])C([H])([H])C([H])([H])C([H])([H])C2([H])N([H])C(=O)C1([H])N(C(=O)C([H])(N([H])C(=O)C([H])(N([H])C([H])([H])[H])C([H])([H])[H])C(C([H])([H])[H])(C([H])([H])[H])C([H])([H])[H])C([H])([H])c2c([H])c(OC([H])([H])C([H])([H])C([H])([H])[N+]([H])(C([H])([H])c3c([H])c([H])c(N(C(=O)N4C([H])([H])C([H])([H])C([H])([H])C([H])(n5nc(-c6c([H])c([H])c(Oc7c([H])c([H])c(F)c([H])c7F)c([H])c6[H])c(C(=O)N([H])[H])c5N([H])[H])C4([H])[H])C([H])([H])[H])c([H])c3F)C([H])(C([H])([H])[H])C([H])([H])[H])c([H])c([H])c2C1([H])[H]

>  <smiles>  (39) 
[H]c1c([H])c([H])c2c(c1[H])C([H])([H])C([H])([H])C([H])([H])C2([H])N([H])C(=O)C1([H])N(C(=O)C([H])(N([H])C(=O)C([H])(N([H])C([H])([H])[H])C([H])([H])[H])C(C([H])([H])[H])(C([H])([H])[H])C([H])([H])[H])C([H])([H])c2c([H])c(OC([H])([H])C([H])([H])C([H])([H])[N+]([H])(C([H])([H])c3c([H])c([H])c(N(C(=O)N4C([H])([H])C([H])([H])C([H])([H])C([H])(n5nc(-c6c([H])c([H])c(Oc7c([H])c([H])c(F)c([H])c7F)c([H])c6[H])c(C(=O)N([H])[H])c5N([H])[H])C4([H])[H])C([H])([H])[H])c([H])c3F)C([H])(C([H])([H])[H])C([H])([H])[H])c([H])c([H])c2C1([H])[H]

$$$$
39:0:0
     RDKit          3D

 93101  0  0  1  0  0  0  0  0999 V2000
  -28.8720  -21.6660   21.7940 C   0  0  0  0  0  1  0  0  0  0  0  0
  -29.2140  -21.9290   20.3720 N   0  0  1  0  0  4  0  0  0  0  0  0
  -30.1570  -22.2870   20.3510 H   0  0  0  0  0  0  0  0  0  0  0  0
  -29.2290  -20.6800   19.5400 C   0  0  0  0  0  2  0  0  0  0  0  0
  -29.6610  -18.1840   20.0280 C   0  0  0  0  0  3  0  0  0  0  0  0
  -31.4720  -19.7780   20.3920 C   0  0  0  0  0  3  0  0  0  0  0  0
  -31.8470  -17.3930   20.7680 C   0  0  0  0  0  3  0  0  0  0  0  0
  -30.1320  -19.5270   20.0200 C   0  0  0  0  0  0  0  0  0  0  0  0
  -30.5240  -17.1070   20.3660 C   0  0  0  0  0  0  0  0  0  0  0  0
  -32.3150  -18.7220   20.7870 C   0  0  0  0  0  0  0  0  0  0  0  0
  -33.9330  -19.0580   21.2840 Cl  0  0  0  0  0  0  0  0  0  0  0  0
  -30.7720  -14.6980   19.8740 C   0  0  0  0  0  0  0  0  0  0  0  0
  -30.5080  -12.4140   18.9700 C   0  0  0  0  0  2  0  0  0  0  0  0
  -29.4930  -12.4300   17.8100 C   0  0  0  0  0  2  0  0  0  0  0  0
  -28.0580  -12.2650   18.3450 C   0  0  0  0  0  2  0  0  0  0  0  0
  -27.7400  -13.2240   19.5220 C   0  0  0  0  0  3  0  0  0  0  0  0
  -28.8650  -13.1970   20.5820 C   0  0  0  0  0  2  0  0  0  0  0  0
  -30.1360  -13.4940   19.8990 N   0  0  0  0  0  0  0  0  0  0  0  0
  -31.8680  -14.8560   19.3270 O   0  0  0  0  0  0  0  0  0  0  0  0
  -30.0640  -15.7540   20.3260 N   0  0  0  0  0  0  0  0  0  0  0  0
  -29.1050  -15.5750   20.5860 H   0  0  0  0  0  0  0  0  0  0  0  0
  -25.4260  -13.8130   20.4800 C   0  0  0  0  0  0  0  0  0  0  0  0
  -24.3850  -13.0320   20.9070 C   0  0  0  0  0  0  0  0  0  0  0  0
  -24.8220  -11.6810   20.7620 C   0  0  0  0  0  0  0  0  0  0  0  0
  -26.4340  -12.9360   20.1100 N   0  0  0  0  0  0  0  0  0  0  0  0
  -26.0780  -11.6450   20.3340 N   0  0  0  0  0  0  0  0  0  0  0  0
  -24.0950  -10.4180   20.9500 C   0  0  0  0  0  0  0  0  0  0  0  0
  -24.5320   -9.4460   21.8760 C   0  0  0  0  0  3  0  0  0  0  0  0
  -23.8080   -8.2470   22.0520 C   0  0  0  0  0  3  0  0  0  0  0  0
  -22.6330   -8.0110   21.3010 C   0  0  0  0  0  0  0  0  0  0  0  0
  -22.2150   -8.9710   20.3620 C   0  0  0  0  0  3  0  0  0  0  0  0
  -22.9390  -10.1620   20.1840 C   0  0  0  0  0  3  0  0  0  0  0  0
  -21.8790   -6.8650   21.3850 O   0  0  0  0  0  0  0  0  0  0  0  0
  -21.7480   -6.1760   22.5640 C   0  0  0  0  0  0  0  0  0  0  0  0
  -21.2030   -6.7750   23.7210 C   0  0  0  0  0  3  0  0  0  0  0  0
  -21.0220   -6.0100   24.8900 C   0  0  0  0  0  3  0  0  0  0  0  0
  -21.3780   -4.6480   24.9040 C   0  0  0  0  0  0  0  0  0  0  0  0
  -21.9170   -4.0490   23.7520 C   0  0  0  0  0  3  0  0  0  0  0  0
  -22.1000   -4.8110   22.5840 C   0  0  0  0  0  0  0  0  0  0  0  0
  -22.6000   -4.2240   21.4710 F   0  0  0  0  0  0  0  0  0  0  0  0
  -21.1980   -3.9100   26.0260 F   0  0  0  0  0  0  0  0  0  0  0  0
  -23.0270  -13.5080   21.3340 C   0  0  0  0  0  0  0  0  0  0  0  0
  -22.3730  -12.7700   22.2240 N   0  0  0  0  0  0  0  0  0  0  0  0
  -22.5590  -14.5660   20.9150 O   0  0  0  0  0  0  0  0  0  0  0  0
  -22.7700  -11.9140   22.5810 H   0  0  0  0  0  0  0  0  0  0  0  0
  -21.4640  -13.0640   22.5530 H   0  0  0  0  0  0  0  0  0  0  0  0
  -25.5930  -15.1890   20.3590 N   0  0  0  0  0  0  0  0  0  0  0  0
  -24.8380  -15.8380   20.5510 H   0  0  0  0  0  0  0  0  0  0  0  0
  -26.4020  -15.6340   19.9430 H   0  0  0  0  0  0  0  0  0  0  0  0
  -28.3340  -22.9870   19.7740 C   0  0  0  0  0  2  0  0  0  0  0  0
  -28.6970  -24.4700   20.1160 C   0  0  0  0  0  2  0  0  0  0  0  0
  -27.6660  -25.4610   19.5150 C   0  0  0  0  0  2  0  0  0  0  0  0
  -27.8650  -26.8580   19.8500 O   0  0  0  0  0  0  0  0  0  0  0  0
  -24.6090  -32.0720   23.4980 C   0  0  0  0  0  0  0  0  0  0  0  0
  -26.7450  -27.6760   19.9450 C   0  0  0  0  0  0  0  0  0  0  0  0
  -23.2020  -30.8330   21.8890 C   0  0  0  0  0  3  0  0  0  0  0  0
  -24.4490  -29.3260   20.2550 C   0  0  0  0  0  0  0  0  0  0  0  0
  -25.7240  -31.0710   21.5020 C   0  0  0  0  0  2  0  0  0  0  0  0
  -25.6810  -29.7390   20.7750 C   0  0  0  0  0  0  0  0  0  0  0  0
  -26.8280  -28.9200   20.6230 C   0  0  0  0  0  3  0  0  0  0  0  0
  -25.4910  -27.3090   19.3930 C   0  0  0  0  0  3  0  0  0  0  0  0
  -24.3510  -28.1120   19.5600 C   0  0  0  0  0  3  0  0  0  0  0  0
  -23.2620  -30.2370   20.4600 C   0  0  0  0  0  2  0  0  0  0  0  0
  -24.5360  -31.3360   22.3520 N   0  0  0  0  0  0  0  0  0  0  0  0
  -23.5910  -32.3620   24.1400 O   0  0  0  0  0  0  0  0  0  0  0  0
  -22.5790  -29.7840   22.8380 C   0  0  0  0  0  0  0  0  0  0  0  0
  -21.2760  -29.5080   22.6560 N   0  0  0  0  0  0  0  0  0  0  0  0
  -23.2650  -29.2210   23.6950 O   0  0  0  0  0  0  0  0  0  0  0  0
  -20.7800  -30.0190   21.9390 H   0  0  0  0  0  0  0  0  0  0  0  0
  -18.0390  -27.9140   22.8700 C   0  0  0  0  0  0  0  0  0  0  0  0
  -20.4920  -28.5290   23.4090 C   0  0  0  0  0  3  0  0  0  0  0  0
  -20.8410  -27.0860   22.9770 C   0  0  0  0  0  2  0  0  0  0  0  0
  -19.9230  -26.5460   21.8760 C   0  0  0  0  0  2  0  0  0  0  0  0
  -18.4640  -26.5540   22.3420 C   0  0  0  0  0  2  0  0  0  0  0  0
  -18.9940  -28.8480   23.3550 C   0  0  0  0  0  0  0  0  0  0  0  0
  -18.5490  -30.1130   23.8000 C   0  0  0  0  0  3  0  0  0  0  0  0
  -17.1830  -30.4480   23.7680 C   0  0  0  0  0  3  0  0  0  0  0  0
  -16.2420  -29.5140   23.3010 C   0  0  0  0  0  3  0  0  0  0  0  0
  -16.6700  -28.2490   22.8580 C   0  0  0  0  0  3  0  0  0  0  0  0
  -25.9700  -32.6030   24.0430 C   0  0  0  0  0  3  0  0  0  0  0  0
  -25.7830  -34.0140   24.4060 N   0  0  0  0  0  0  0  0  0  0  0  0
  -26.1420  -35.0510   23.6380 C   0  0  0  0  0  0  0  0  0  0  0  0
  -26.7390  -34.9160   22.5660 O   0  0  0  0  0  0  0  0  0  0  0  0
  -25.2510  -34.2000   25.2440 H   0  0  0  0  0  0  0  0  0  0  0  0
  -24.5280  -36.9650   23.4040 C   0  0  0  0  0  1  0  0  0  0  0  0
  -25.7810  -36.4630   24.1390 C   0  0  0  0  0  3  0  0  0  0  0  0
  -28.0130  -37.1870   24.8620 C   0  0  0  0  0  1  0  0  0  0  0  0
  -26.8780  -37.4420   23.9780 N   0  0  0  0  0  0  0  0  0  0  0  0
  -26.5470  -38.3860   24.1530 H   0  0  0  0  0  0  0  0  0  0  0  0
  -26.5140  -31.7770   25.2730 C   0  0  1  0  0  0  0  0  0  0  0  0
  -25.4690  -31.5700   26.3930 C   0  0  0  0  0  1  0  0  0  0  0  0
  -27.0050  -30.3830   24.8210 C   0  0  0  0  0  1  0  0  0  0  0  0
  -27.7390  -32.4990   25.8860 C   0  0  0  0  0  1  0  0  0  0  0  0
  2  1  1  0
  2  3  1  1
  4  8  1  0
  4  2  1  0
  5  9  1  0
  6 10  2  0
  7 10  1  0
  8  5  2  0
  8  6  1  0
  9  7  2  0
 10 11  1  0
 12 18  1  0
 12 20  1  0
 13 18  1  0
 14 15  1  0
 14 13  1  0
 16 15  1  0
 16 25  1  0
 16 17  1  0
 18 17  1  0
 19 12  2  0
 20  9  1  0
 20 21  1  0
 22 23  2  0
 23 42  1  0
 24 23  1  0
 24 27  1  0
 25 26  1  0
 25 22  1  0
 26 24  2  0
 27 28  1  0
 28 29  2  0
 30 33  1  0
 30 29  1  0
 31 30  2  0
 32 31  1  0
 32 27  2  0
 33 34  1  0
 34 39  2  0
 34 35  1  0
 35 36  2  0
 36 37  1  0
 37 41  1  0
 38 37  2  0
 39 38  1  0
 40 39  1  0
 42 43  1  0
 43 46  1  0
 43 45  1  0
 44 42  2  0
 47 22  1  0
 47 48  1  0
 49 47  1  0
 50 51  1  0
 50  2  1  0
 52 53  1  0
 52 51  1  0
 53 55  1  0
 54 65  2  0
 55 60  1  0
 56 64  1  0
 56 66  1  0
 57 63  1  0
 57 59  1  0
 58 64  1  0
 59 58  1  0
 60 59  2  0
 61 62  1  0
 61 55  2  0
 62 57  2  0
 63 56  1  0
 64 54  1  0
 66 68  2  0
 67 66  1  0
 69 67  1  0
 70 75  1  0
 71 67  1  0
 72 71  1  0
 73 74  1  0
 73 72  1  0
 74 70  1  0
 75 71  1  0
 75 76  2  0
 77 76  1  0
 78 77  2  0
 79 70  2  0
 79 78  1  0
 80 54  1  0
 80 81  1  0
 80 90  1  0
 81 84  1  0
 82 86  1  0
 82 81  1  0
 83 82  2  0
 86 85  1  0
 88 86  1  0
 88 89  1  0
 88 87  1  0
 90 93  1  1
 90 91  1  0
 92 90  1  0
M  ISO  4  12 100  20 100  52 101  53 101
M  END
>  <TORSDO>  (40) 
F 21

>  <SCORE>  (40) 
-12.860

>  <name>  (40) 
39

>  <ligand_id>  (40) 
39

>  <original_smiles>  (40) 
[H]c1c([H])c([H])c2c(c1[H])C([H])([H])C([H])([H])C([H])([H])C2([H])N([H])C(=O)C1([H])N(C(=O)C([H])(N([H])C(=O)C([H])(N([H])C([H])([H])[H])C([H])([H])[H])C(C([H])([H])[H])(C([H])([H])[H])C([H])([H])[H])C([H])([H])c2c([H])c(OC([H])([H])C([H])([H])C([H])([H])[N+]([H])(C([H])([H])[H])C([H])([H])c3c([H])c(Cl)c([H])c(N([H])C(=O)N4C([H])([H])C([H])([H])C([H])([H])C([H])(n5nc(-c6c([H])c([H])c(Oc7c([H])c([H])c(F)c([H])c7F)c([H])c6[H])c(C(=O)N([H])[H])c5N([H])[H])C4([H])[H])c3[H])c([H])c([H])c2C1([H])[H]

>  <smiles>  (40) 
[H]c1c([H])c([H])c2c(c1[H])C([H])([H])C([H])([H])C([H])([H])C2([H])N([H])C(=O)C1([H])N(C(=O)C([H])(N([H])C(=O)C([H])(N([H])C([H])([H])[H])C([H])([H])[H])C(C([H])([H])[H])(C([H])([H])[H])C([H])([H])[H])C([H])([H])c2c([H])c(OC([H])([H])C([H])([H])C([H])([H])[N+]([H])(C([H])([H])[H])C([H])([H])c3c([H])c(Cl)c([H])c(N([H])C(=O)N4C([H])([H])C([H])([H])C([H])([H])C([H])(n5nc(-c6c([H])c([H])c(Oc7c([H])c([H])c(F)c([H])c7F)c([H])c6[H])c(C(=O)N([H])[H])c5N([H])[H])C4([H])[H])c3[H])c([H])c([H])c2C1([H])[H]

$$$$
40:0:0
     RDKit          3D

 91 99  0  0  1  0  0  0  0  0999 V2000
  -28.1370  -22.3490   22.5800 C   0  0  0  0  0  1  0  0  0  0  0  0
  -29.0540  -22.2430   21.4440 N   0  0  0  0  0  0  0  0  0  0  0  0
  -30.6790  -18.9020   21.9470 C   0  0  0  0  0  3  0  0  0  0  0  0
  -29.8280  -18.9990   19.6790 C   0  0  0  0  0  3  0  0  0  0  0  0
  -30.1830  -20.2010   22.1870 C   0  0  0  0  0  3  0  0  0  0  0  0
  -29.3550  -20.3090   19.9130 C   0  0  0  0  0  3  0  0  0  0  0  0
  -30.4990  -18.2780   20.6950 C   0  0  0  0  0  0  0  0  0  0  0  0
  -29.5190  -20.9340   21.1740 C   0  0  0  0  0  0  0  0  0  0  0  0
  -31.1680  -16.9330   20.3840 C   0  0  0  0  0  2  0  0  0  0  0  0
  -30.8420  -14.5460   19.9580 C   0  0  0  0  0  0  0  0  0  0  0  0
  -30.3640  -12.3860   18.8480 C   0  0  0  0  0  2  0  0  0  0  0  0
  -29.3640  -12.5690   17.6880 C   0  0  0  0  0  2  0  0  0  0  0  0
  -27.9250  -12.3920   18.2000 C   0  0  0  0  0  2  0  0  0  0  0  0
  -27.6530  -13.2570   19.4570 C   0  0  0  0  0  3  0  0  0  0  0  0
  -28.7720  -13.0880   20.5060 C   0  0  0  0  0  2  0  0  0  0  0  0
  -30.0690  -13.4120   19.8750 N   0  0  0  0  0  0  0  0  0  0  0  0
  -31.8670  -14.6330   19.2680 O   0  0  0  0  0  0  0  0  0  0  0  0
  -29.8750  -15.5920   22.0130 C   0  0  0  0  0  1  0  0  0  0  0  0
  -30.4420  -15.6540   20.6600 N   0  0  0  0  0  0  0  0  0  0  0  0
  -25.3240  -13.8590   20.3650 C   0  0  0  0  0  0  0  0  0  0  0  0
  -24.2840  -13.0830   20.7990 C   0  0  0  0  0  0  0  0  0  0  0  0
  -24.7340  -11.7310   20.7070 C   0  0  0  0  0  0  0  0  0  0  0  0
  -26.3400  -12.9770   20.0310 N   0  0  0  0  0  0  0  0  0  0  0  0
  -25.9950  -11.6910   20.2940 N   0  0  0  0  0  0  0  0  0  0  0  0
  -24.0200  -10.4680   20.9300 C   0  0  0  0  0  0  0  0  0  0  0  0
  -24.4760   -9.5190   21.8700 C   0  0  0  0  0  3  0  0  0  0  0  0
  -23.7610   -8.3220   22.0820 C   0  0  0  0  0  3  0  0  0  0  0  0
  -22.5760   -8.0650   21.3530 C   0  0  0  0  0  0  0  0  0  0  0  0
  -22.1380   -9.0050   20.4030 C   0  0  0  0  0  3  0  0  0  0  0  0
  -22.8530  -10.1940   20.1910 C   0  0  0  0  0  3  0  0  0  0  0  0
  -21.8320   -6.9150   21.4700 O   0  0  0  0  0  0  0  0  0  0  0  0
  -21.7440   -6.2320   22.6560 C   0  0  0  0  0  0  0  0  0  0  0  0
  -21.2720   -6.8450   23.8380 C   0  0  0  0  0  3  0  0  0  0  0  0
  -21.1330   -6.0870   25.0160 C   0  0  0  0  0  3  0  0  0  0  0  0
  -21.4570   -4.7180   25.0170 C   0  0  0  0  0  0  0  0  0  0  0  0
  -21.9230   -4.1040   23.8400 C   0  0  0  0  0  3  0  0  0  0  0  0
  -22.0640   -4.8600   22.6640 C   0  0  0  0  0  0  0  0  0  0  0  0
  -22.4940   -4.2590   21.5270 F   0  0  0  0  0  0  0  0  0  0  0  0
  -21.3160   -3.9870   26.1470 F   0  0  0  0  0  0  0  0  0  0  0  0
  -22.9170  -13.5640   21.1920 C   0  0  0  0  0  0  0  0  0  0  0  0
  -22.2650  -12.8700   22.1190 N   0  0  0  0  0  0  0  0  0  0  0  0
  -22.4370  -14.5890   20.7100 O   0  0  0  0  0  0  0  0  0  0  0  0
  -22.6650  -12.0410   22.5300 H   0  0  0  0  0  0  0  0  0  0  0  0
  -21.3520  -13.1760   22.4220 H   0  0  0  0  0  0  0  0  0  0  0  0
  -25.4800  -15.2320   20.2090 N   0  0  0  0  0  0  0  0  0  0  0  0
  -24.7280  -15.8830   20.4090 H   0  0  0  0  0  0  0  0  0  0  0  0
  -26.3240  -15.6890   19.8850 H   0  0  0  0  0  0  0  0  0  0  0  0
  -28.9170  -23.1870   20.3270 C   0  0  0  0  0  2  0  0  0  0  0  0
  -28.7330  -24.6650   20.7560 C   0  0  0  0  0  2  0  0  0  0  0  0
  -28.6730  -25.6020   19.5350 C   0  0  0  0  0  2  0  0  0  0  0  0
  -28.5220  -26.9680   19.9240 O   0  0  0  0  0  0  0  0  0  0  0  0
  -24.6430  -31.9220   23.1970 C   0  0  0  0  0  0  0  0  0  0  0  0
  -27.2880  -27.5890   19.9660 C   0  0  0  0  0  0  0  0  0  0  0  0
  -23.4100  -30.5260   21.5620 C   0  0  0  0  0  3  0  0  0  0  0  0
  -24.8530  -29.0380   20.0760 C   0  0  0  0  0  0  0  0  0  0  0  0
  -25.9230  -30.9390   21.3000 C   0  0  0  0  0  2  0  0  0  0  0  0
  -26.0160  -29.5800   20.6330 C   0  0  0  0  0  0  0  0  0  0  0  0
  -27.2310  -28.8660   20.5710 C   0  0  0  0  0  3  0  0  0  0  0  0
  -26.0990  -27.0480   19.4210 C   0  0  0  0  0  3  0  0  0  0  0  0
  -24.8890  -27.7710   19.4700 C   0  0  0  0  0  3  0  0  0  0  0  0
  -23.5950  -29.8710   20.1650 C   0  0  0  0  0  2  0  0  0  0  0  0
  -24.6770  -31.1470   22.0760 N   0  0  0  0  0  0  0  0  0  0  0  0
  -23.5730  -32.1610   23.7750 O   0  0  0  0  0  0  0  0  0  0  0  0
  -22.8050  -29.4770   22.5230 C   0  0  0  0  0  0  0  0  0  0  0  0
  -21.4880  -29.2440   22.4020 N   0  0  0  0  0  0  0  0  0  0  0  0
  -23.5150  -28.8730   23.3320 O   0  0  0  0  0  0  0  0  0  0  0  0
  -20.9740  -29.7750   21.7130 H   0  0  0  0  0  0  0  0  0  0  0  0
  -18.1710  -27.8950   22.8690 C   0  0  0  0  0  0  0  0  0  0  0  0
  -20.7090  -28.2750   23.1730 C   0  0  0  0  0  3  0  0  0  0  0  0
  -20.8890  -26.8480   22.6060 C   0  0  0  0  0  2  0  0  0  0  0  0
  -19.8190  -26.4650   21.5810 C   0  0  0  0  0  2  0  0  0  0  0  0
  -18.4240  -26.5500   22.2070 C   0  0  0  0  0  2  0  0  0  0  0  0
  -19.2450  -28.7120   23.3060 C   0  0  0  0  0  0  0  0  0  0  0  0
  -18.9600  -29.9710   23.8790 C   0  0  0  0  0  3  0  0  0  0  0  0
  -17.6310  -30.4110   24.0260 C   0  0  0  0  0  3  0  0  0  0  0  0
  -16.5700  -29.5920   23.6050 C   0  0  0  0  0  3  0  0  0  0  0  0
  -16.8400  -28.3350   23.0330 C   0  0  0  0  0  3  0  0  0  0  0  0
  -25.9380  -32.5580   23.7930 C   0  0  0  0  0  3  0  0  0  0  0  0
  -25.6320  -33.9540   24.1340 N   0  0  0  0  0  0  0  0  0  0  0  0
  -25.9370  -35.0090   23.3650 C   0  0  0  0  0  0  0  0  0  0  0  0
  -26.5810  -34.9120   22.3170 O   0  0  0  0  0  0  0  0  0  0  0  0
  -25.0620  -34.1050   24.9540 H   0  0  0  0  0  0  0  0  0  0  0  0
  -24.1780  -36.7740   23.0510 C   0  0  0  0  0  1  0  0  0  0  0  0
  -25.4440  -36.3910   23.8340 C   0  0  0  0  0  3  0  0  0  0  0  0
  -27.5860  -37.2930   24.6210 C   0  0  0  0  0  1  0  0  0  0  0  0
  -26.4630  -37.4550   23.7010 N   0  0  0  0  0  0  0  0  0  0  0  0
  -26.0510  -38.3700   23.8610 H   0  0  0  0  0  0  0  0  0  0  0  0
  -26.4920  -31.7840   25.0540 C   0  0  1  0  0  0  0  0  0  0  0  0
  -25.4220  -31.5090   26.1340 C   0  0  0  0  0  1  0  0  0  0  0  0
  -27.0960  -30.4250   24.6360 C   0  0  0  0  0  1  0  0  0  0  0  0
  -27.6370  -32.5920   25.7100 C   0  0  0  0  0  1  0  0  0  0  0  0
  2  1  1  0
  3  5  1  0
  4  6  2  0
  4  7  1  0
  6  8  1  0
  7  3  2  0
  8  2  1  0
  8  5  2  0
  9 19  1  0
  9  7  1  0
 10 19  1  0
 11 16  1  0
 12 13  1  0
 12 11  1  0
 14 13  1  0
 14 23  1  0
 14 15  1  0
 16 10  1  0
 16 15  1  0
 17 10  2  0
 19 18  1  0
 20 21  2  0
 21 40  1  0
 22 21  1  0
 22 25  1  0
 23 24  1  0
 23 20  1  0
 24 22  2  0
 25 26  1  0
 26 27  2  0
 28 31  1  0
 28 27  1  0
 29 28  2  0
 30 29  1  0
 30 25  2  0
 31 32  1  0
 32 37  2  0
 32 33  1  0
 33 34  2  0
 34 35  1  0
 35 39  1  0
 36 35  2  0
 37 36  1  0
 38 37  1  0
 40 41  1  0
 41 44  1  0
 41 43  1  0
 42 40  2  0
 45 20  1  0
 45 46  1  0
 47 45  1  0
 48 49  1  0
 48  2  1  0
 50 51  1  0
 50 49  1  0
 51 53  1  0
 52 63  2  0
 53 58  1  0
 54 62  1  0
 54 64  1  0
 55 61  1  0
 55 57  1  0
 56 62  1  0
 57 56  1  0
 58 57  2  0
 59 60  1  0
 59 53  2  0
 60 55  2  0
 61 54  1  0
 62 52  1  0
 64 66  2  0
 65 64  1  0
 67 65  1  0
 68 77  2  0
 68 73  1  0
 69 65  1  0
 69 73  1  0
 70 69  1  0
 71 72  1  0
 71 70  1  0
 72 68  1  0
 73 74  2  0
 74 75  1  0
 76 75  2  0
 77 76  1  0
 78 52  1  0
 78 79  1  0
 78 88  1  0
 79 82  1  0
 80 84  1  0
 80 79  1  0
 81 80  2  0
 84 83  1  0
 86 84  1  0
 86 87  1  0
 86 85  1  0
 88 91  1  1
 88 89  1  0
 90 88  1  0
M  ISO  4  10 100  19 100  50 101  51 101
M  END
>  <TORSDO>  (41) 
F 21

>  <SCORE>  (41) 
-11.894

>  <name>  (41) 
40

>  <ligand_id>  (41) 
40

>  <original_smiles>  (41) 
[H]c1c([H])c([H])c2c(c1[H])C([H])([H])C([H])([H])C([H])([H])C2([H])N([H])C(=O)C1([H])N(C(=O)C([H])(N([H])C(=O)C([H])(N([H])C([H])([H])[H])C([H])([H])[H])C(C([H])([H])[H])(C([H])([H])[H])C([H])([H])[H])C([H])([H])c2c([H])c(OC([H])([H])C([H])([H])C([H])([H])N(c3c([H])c([H])c(C([H])([H])N(C(=O)N4C([H])([H])C([H])([H])C([H])([H])C([H])(n5nc(-c6c([H])c([H])c(Oc7c([H])c([H])c(F)c([H])c7F)c([H])c6[H])c(C(=O)N([H])[H])c5N([H])[H])C4([H])[H])C([H])([H])[H])c([H])c3[H])C([H])([H])[H])c([H])c([H])c2C1([H])[H]

>  <smiles>  (41) 
[H]c1c([H])c([H])c2c(c1[H])C([H])([H])C([H])([H])C([H])([H])C2([H])N([H])C(=O)C1([H])N(C(=O)C([H])(N([H])C(=O)C([H])(N([H])C([H])([H])[H])C([H])([H])[H])C(C([H])([H])[H])(C([H])([H])[H])C([H])([H])[H])C([H])([H])c2c([H])c(OC([H])([H])C([H])([H])C([H])([H])N(c3c([H])c([H])c(C([H])([H])N(C(=O)N4C([H])([H])C([H])([H])C([H])([H])C([H])(n5nc(-c6c([H])c([H])c(Oc7c([H])c([H])c(F)c([H])c7F)c([H])c6[H])c(C(=O)N([H])[H])c5N([H])[H])C4([H])[H])C([H])([H])[H])c([H])c3[H])C([H])([H])[H])c([H])c([H])c2C1([H])[H]

$$$$
41:0:0
     RDKit          3D

 94103  0  0  1  0  0  0  0  0999 V2000
  -31.1360  -21.9510   21.6620 C   0  0  0  0  0  2  0  0  0  0  0  0
  -29.6670  -19.8670   21.6580 C   0  0  0  0  0  3  0  0  0  0  0  0
  -29.3980  -18.5370   21.2790 C   0  0  0  0  0  3  0  0  0  0  0  0
  -31.7130  -19.8300   20.3370 C   0  0  0  0  0  3  0  0  0  0  0  0
  -30.8320  -20.5240   21.1980 C   0  0  0  0  0  0  0  0  0  0  0  0
  -30.2840  -17.8430   20.4300 C   0  0  0  0  0  0  0  0  0  0  0  0
  -31.4380  -18.5020   19.9480 C   0  0  0  0  0  0  0  0  0  0  0  0
  -32.2860  -17.8620   19.1110 F   0  0  0  0  0  0  0  0  0  0  0  0
  -29.9740  -16.4000   20.0360 C   0  0  0  0  0  2  0  0  0  0  0  0
  -31.2980  -14.3560   20.0460 C   0  0  0  0  0  0  0  0  0  0  0  0
  -30.8580  -12.1870   18.9570 C   0  0  0  0  0  2  0  0  0  0  0  0
  -29.8910  -12.3750   17.7710 C   0  0  0  0  0  2  0  0  0  0  0  0
  -28.4250  -12.3240   18.2430 C   0  0  0  0  0  2  0  0  0  0  0  0
  -28.1580  -13.2380   19.4680 C   0  0  0  0  0  3  0  0  0  0  0  0
  -29.2260  -13.0110   20.5610 C   0  0  0  0  0  2  0  0  0  0  0  0
  -30.5520  -13.2230   19.9520 N   0  0  0  0  0  0  0  0  0  0  0  0
  -32.3900  -14.4960   19.4870 O   0  0  0  0  0  0  0  0  0  0  0  0
  -31.2830  -15.7130   22.0580 C   0  0  0  0  0  1  0  0  0  0  0  0
  -30.7350  -15.3580   20.7490 N   0  0  0  0  0  0  0  0  0  0  0  0
  -25.8260  -14.0070   20.2440 C   0  0  0  0  0  0  0  0  0  0  0  0
  -24.7220  -13.3060   20.6500 C   0  0  0  0  0  0  0  0  0  0  0  0
  -25.0920  -11.9270   20.6100 C   0  0  0  0  0  0  0  0  0  0  0  0
  -26.8040  -13.0580   19.9870 N   0  0  0  0  0  0  0  0  0  0  0  0
  -26.3660  -11.8030   20.2610 N   0  0  0  0  0  0  0  0  0  0  0  0
  -24.2930  -10.7150   20.8260 C   0  0  0  0  0  0  0  0  0  0  0  0
  -24.6730   -9.7390   21.7740 C   0  0  0  0  0  3  0  0  0  0  0  0
  -23.8770   -8.5910   21.9750 C   0  0  0  0  0  3  0  0  0  0  0  0
  -22.6890   -8.4100   21.2300 C   0  0  0  0  0  0  0  0  0  0  0  0
  -22.3290   -9.3730   20.2710 C   0  0  0  0  0  3  0  0  0  0  0  0
  -23.1220  -10.5130   20.0660 C   0  0  0  0  0  3  0  0  0  0  0  0
  -21.8680   -7.3140   21.3410 O   0  0  0  0  0  0  0  0  0  0  0  0
  -21.7530   -6.6170   22.5160 C   0  0  0  0  0  0  0  0  0  0  0  0
  -21.3430   -7.2410   23.7150 C   0  0  0  0  0  3  0  0  0  0  0  0
  -21.1710   -6.4740   24.8850 C   0  0  0  0  0  3  0  0  0  0  0  0
  -21.3980   -5.0850   24.8560 C   0  0  0  0  0  0  0  0  0  0  0  0
  -21.8020   -4.4620   23.6630 C   0  0  0  0  0  3  0  0  0  0  0  0
  -21.9760   -5.2250   22.4960 C   0  0  0  0  0  0  0  0  0  0  0  0
  -22.3440   -4.6170   21.3430 F   0  0  0  0  0  0  0  0  0  0  0  0
  -21.2250   -4.3470   25.9770 F   0  0  0  0  0  0  0  0  0  0  0  0
  -23.3680  -13.8730   20.9650 C   0  0  0  0  0  0  0  0  0  0  0  0
  -22.6280  -13.2330   21.8630 N   0  0  0  0  0  0  0  0  0  0  0  0
  -22.9760  -14.9190   20.4460 O   0  0  0  0  0  0  0  0  0  0  0  0
  -22.9580  -12.3870   22.3030 H   0  0  0  0  0  0  0  0  0  0  0  0
  -21.7200  -13.5950   22.1150 H   0  0  0  0  0  0  0  0  0  0  0  0
  -26.0730  -15.3620   20.0530 N   0  0  0  0  0  0  0  0  0  0  0  0
  -25.3490  -16.0640   20.1730 H   0  0  0  0  0  0  0  0  0  0  0  0
  -26.9300  -15.7410   19.6730 H   0  0  0  0  0  0  0  0  0  0  0  0
  -30.6620  -24.3620   21.1200 C   0  0  0  0  0  2  0  0  0  0  0  0
  -29.5580  -23.0170   20.0250 C   0  0  0  0  0  2  0  0  0  0  0  0
  -29.6580  -24.5460   19.9790 C   0  0  0  0  0  3  0  0  0  0  0  0
  -30.8840  -22.9930   20.6340 N   0  0  2  0  0  4  0  0  0  0  0  0
  -31.5950  -22.9790   19.9170 H   0  0  0  0  0  0  0  0  0  0  0  0
  -28.3540  -25.3270   20.1390 C   0  0  0  0  0  2  0  0  0  0  0  0
  -28.4870  -26.7510   20.0080 O   0  0  0  0  0  0  0  0  0  0  0  0
  -24.6050  -31.8300   23.1830 C   0  0  0  0  0  0  0  0  0  0  0  0
  -27.3020  -27.4670   20.0220 C   0  0  0  0  0  0  0  0  0  0  0  0
  -23.4170  -30.4430   21.5200 C   0  0  0  0  0  3  0  0  0  0  0  0
  -24.8880  -28.9520   20.0730 C   0  0  0  0  0  0  0  0  0  0  0  0
  -25.9430  -30.8330   21.3310 C   0  0  0  0  0  2  0  0  0  0  0  0
  -26.0450  -29.4760   20.6640 C   0  0  0  0  0  0  0  0  0  0  0  0
  -27.2560  -28.7440   20.6320 C   0  0  0  0  0  3  0  0  0  0  0  0
  -26.1200  -26.9670   19.4220 C   0  0  0  0  0  3  0  0  0  0  0  0
  -24.9210  -27.6960   19.4520 C   0  0  0  0  0  3  0  0  0  0  0  0
  -23.6350  -29.7920   20.1310 C   0  0  0  0  0  2  0  0  0  0  0  0
  -24.6730  -31.0480   22.0690 N   0  0  0  0  0  0  0  0  0  0  0  0
  -23.5180  -32.0810   23.7240 O   0  0  0  0  0  0  0  0  0  0  0  0
  -22.7790  -29.3950   22.4600 C   0  0  0  0  0  0  0  0  0  0  0  0
  -21.4560  -29.2010   22.3300 N   0  0  0  0  0  0  0  0  0  0  0  0
  -23.4700  -28.7610   23.2620 O   0  0  0  0  0  0  0  0  0  0  0  0
  -20.9580  -29.7620   21.6520 H   0  0  0  0  0  0  0  0  0  0  0  0
  -18.0940  -27.9720   22.8170 C   0  0  0  0  0  0  0  0  0  0  0  0
  -20.6500  -28.2430   23.0860 C   0  0  0  0  0  3  0  0  0  0  0  0
  -20.7600  -26.8240   22.4830 C   0  0  0  0  0  2  0  0  0  0  0  0
  -19.6580  -26.5120   21.4670 C   0  0  0  0  0  2  0  0  0  0  0  0
  -18.2760  -26.6370   22.1150 C   0  0  0  0  0  2  0  0  0  0  0  0
  -19.2080  -28.7330   23.2570 C   0  0  0  0  0  0  0  0  0  0  0  0
  -18.9820  -29.9850   23.8720 C   0  0  0  0  0  3  0  0  0  0  0  0
  -17.6740  -30.4740   24.0500 C   0  0  0  0  0  3  0  0  0  0  0  0
  -16.5740  -29.7100   23.6250 C   0  0  0  0  0  3  0  0  0  0  0  0
  -16.7840  -28.4600   23.0140 C   0  0  0  0  0  3  0  0  0  0  0  0
  -25.8820  -32.4670   23.8130 C   0  0  0  0  0  3  0  0  0  0  0  0
  -26.4020  -31.6920   25.0860 C   0  0  1  0  0  0  0  0  0  0  0  0
  -25.3070  -31.4330   26.1460 C   0  0  0  0  0  1  0  0  0  0  0  0
  -27.0040  -30.3230   24.6880 C   0  0  0  0  0  1  0  0  0  0  0  0
  -27.5400  -32.4970   25.7580 C   0  0  0  0  0  1  0  0  0  0  0  0
  -25.5600  -33.8600   24.1470 N   0  0  0  0  0  0  0  0  0  0  0  0
  -25.8990  -34.9190   23.4000 C   0  0  0  0  0  0  0  0  0  0  0  0
  -26.5860  -34.8290   22.3790 O   0  0  0  0  0  0  0  0  0  0  0  0
  -24.9490  -34.0070   24.9360 H   0  0  0  0  0  0  0  0  0  0  0  0
  -24.1720  -36.7090   23.0230 C   0  0  0  0  0  1  0  0  0  0  0  0
  -25.3960  -36.3020   23.8600 C   0  0  0  0  0  3  0  0  0  0  0  0
  -27.5080  -37.1840   24.7480 C   0  0  0  0  0  1  0  0  0  0  0  0
  -26.4280  -37.3590   23.7810 N   0  0  0  0  0  0  0  0  0  0  0  0
  -26.0160  -38.2760   23.9290 H   0  0  0  0  0  0  0  0  0  0  0  0
  3  2  1  0
  4  5  1  0
  5  2  2  0
  5  1  1  0
  6  3  2  0
  7  4  2  0
  7  6  1  0
  8  7  1  0
  9  6  1  0
  9 19  1  0
 10 19  1  0
 11 16  1  0
 12 13  1  0
 12 11  1  0
 14 13  1  0
 14 23  1  0
 14 15  1  0
 16 10  1  0
 16 15  1  0
 17 10  2  0
 19 18  1  0
 20 21  2  0
 21 40  1  0
 22 21  1  0
 22 25  1  0
 23 20  1  0
 23 24  1  0
 24 22  2  0
 25 26  1  0
 26 27  2  0
 28 31  1  0
 28 27  1  0
 29 28  2  0
 30 29  1  0
 30 25  2  0
 31 32  1  0
 32 33  1  0
 33 34  2  0
 35 34  1  0
 35 39  1  0
 36 35  2  0
 37 32  2  0
 37 36  1  0
 38 37  1  0
 40 41  1  0
 41 44  1  0
 41 43  1  0
 42 40  2  0
 45 46  1  0
 45 20  1  0
 47 45  1  0
 49 51  1  0
 50 49  1  0
 50 53  1  0
 50 48  1  0
 51 48  1  0
 51  1  1  0
 51 52  1  6
 54 56  1  0
 54 53  1  0
 55 66  2  0
 56 61  1  0
 57 65  1  0
 57 67  1  0
 58 64  1  0
 58 60  1  0
 59 65  1  0
 60 59  1  0
 61 60  2  0
 62 63  1  0
 62 56  2  0
 63 58  2  0
 64 57  1  0
 65 55  1  0
 67 69  2  0
 68 67  1  0
 70 68  1  0
 71 80  2  0
 71 76  1  0
 72 68  1  0
 72 76  1  0
 73 72  1  0
 74 75  1  0
 74 73  1  0
 75 71  1  0
 76 77  2  0
 77 78  1  0
 79 78  2  0
 80 79  1  0
 81 55  1  0
 81 86  1  0
 81 82  1  0
 82 85  1  1
 82 83  1  0
 84 82  1  0
 86 89  1  0
 87 91  1  0
 87 86  1  0
 88 87  2  0
 91 90  1  0
 93 91  1  0
 93 94  1  0
 93 92  1  0
M  ISO  4  10 100  19 100  53 101  54 101
M  END
>  <TORSDO>  (42) 
F 20

>  <SCORE>  (42) 
-12.867

>  <name>  (42) 
41

>  <ligand_id>  (42) 
41

>  <original_smiles>  (42) 
[H]c1c([H])c([H])c2c(c1[H])C([H])([H])C([H])([H])C([H])([H])C2([H])N([H])C(=O)C1([H])N(C(=O)C([H])(N([H])C(=O)C([H])(N([H])C([H])([H])[H])C([H])([H])[H])C(C([H])([H])[H])(C([H])([H])[H])C([H])([H])[H])C([H])([H])c2c([H])c(OC([H])([H])C3([H])C([H])([H])[N+]([H])(C([H])([H])c4c([H])c([H])c(C([H])([H])N(C(=O)N5C([H])([H])C([H])([H])C([H])([H])C([H])(n6nc(-c7c([H])c([H])c(Oc8c([H])c([H])c(F)c([H])c8F)c([H])c7[H])c(C(=O)N([H])[H])c6N([H])[H])C5([H])[H])C([H])([H])[H])c(F)c4[H])C3([H])[H])c([H])c([H])c2C1([H])[H]

>  <smiles>  (42) 
[H]c1c([H])c([H])c2c(c1[H])C([H])([H])C([H])([H])C([H])([H])C2([H])N([H])C(=O)C1([H])N(C(=O)C([H])(N([H])C(=O)C([H])(N([H])C([H])([H])[H])C([H])([H])[H])C(C([H])([H])[H])(C([H])([H])[H])C([H])([H])[H])C([H])([H])c2c([H])c(OC([H])([H])C3([H])C([H])([H])[N+]([H])(C([H])([H])c4c([H])c([H])c(C([H])([H])N(C(=O)N5C([H])([H])C([H])([H])C([H])([H])C([H])(n6nc(-c7c([H])c([H])c(Oc8c([H])c([H])c(F)c([H])c8F)c([H])c7[H])c(C(=O)N([H])[H])c6N([H])[H])C5([H])[H])C([H])([H])[H])c(F)c4[H])C3([H])[H])c([H])c([H])c2C1([H])[H]

$$$$
42:0:0
     RDKit          3D

 96105  0  0  1  0  0  0  0  0999 V2000
  -29.0560  -22.6340   20.3350 C   0  0  0  0  0  0  0  0  0  0  0  0
  -30.9510  -23.5160   22.3320 C   0  0  0  0  0  2  0  0  0  0  0  0
  -29.8130  -24.4750   21.9790 C   0  0  0  0  0  2  0  0  0  0  0  0
  -30.4870  -22.0490   22.2540 C   0  0  0  0  0  2  0  0  0  0  0  0
  -29.2810  -24.1910   20.5650 C   0  0  0  0  0  3  0  0  0  0  0  0
  -29.8220  -21.6720   20.9880 N   0  0  0  0  0  0  0  0  0  0  0  0
  -28.1720  -22.3110   19.5370 O   0  0  0  0  0  0  0  0  0  0  0  0
  -29.6020  -19.8430   19.2650 C   0  0  0  0  0  3  0  0  0  0  0  0
  -29.6890  -18.4940   18.8470 C   0  0  0  0  0  3  0  0  0  0  0  0
  -30.3890  -19.1910   21.4270 C   0  0  0  0  0  3  0  0  0  0  0  0
  -29.9120  -20.2480   20.5800 C   0  0  0  0  0  0  0  0  0  0  0  0
  -30.0800  -17.4130   19.6990 C   0  0  0  0  0  0  0  0  0  0  0  0
  -30.4830  -17.8130   21.0070 C   0  0  0  0  0  0  0  0  0  0  0  0
  -30.6910  -14.9000   19.6000 C   0  0  0  0  0  0  0  0  0  0  0  0
  -30.4010  -12.5730   18.7530 C   0  0  0  0  0  2  0  0  0  0  0  0
  -29.3600  -12.4910   17.6120 C   0  0  0  0  0  2  0  0  0  0  0  0
  -27.9040  -12.5010   18.1410 C   0  0  0  0  0  2  0  0  0  0  0  0
  -27.6450  -13.4250   19.3710 C   0  0  0  0  0  3  0  0  0  0  0  0
  -28.8040  -13.3860   20.3870 C   0  0  0  0  0  2  0  0  0  0  0  0
  -30.0370  -13.6890   19.6470 N   0  0  0  0  0  0  0  0  0  0  0  0
  -31.9080  -14.9300   19.3900 O   0  0  0  0  0  0  0  0  0  0  0  0
  -29.3890  -15.9550   17.8550 C   0  0  0  0  0  1  0  0  0  0  0  0
  -29.9350  -16.0100   19.2290 N   0  0  0  0  0  0  0  0  0  0  0  0
  -25.3670  -14.0810   20.3460 C   0  0  0  0  0  0  0  0  0  0  0  0
  -24.3050  -13.3340   20.7770 C   0  0  0  0  0  0  0  0  0  0  0  0
  -24.7090  -11.9700   20.6580 C   0  0  0  0  0  0  0  0  0  0  0  0
  -26.3490  -13.1710   19.9880 N   0  0  0  0  0  0  0  0  0  0  0  0
  -25.9660  -11.8950   20.2410 N   0  0  0  0  0  0  0  0  0  0  0  0
  -23.9550  -10.7270   20.8570 C   0  0  0  0  0  0  0  0  0  0  0  0
  -24.3940   -9.7390   21.7650 C   0  0  0  0  0  3  0  0  0  0  0  0
  -23.6440   -8.5600   21.9540 C   0  0  0  0  0  3  0  0  0  0  0  0
  -22.4400   -8.3600   21.2370 C   0  0  0  0  0  0  0  0  0  0  0  0
  -22.0210   -9.3380   20.3170 C   0  0  0  0  0  3  0  0  0  0  0  0
  -22.7710  -10.5100   20.1240 C   0  0  0  0  0  3  0  0  0  0  0  0
  -21.6580   -7.2360   21.3390 O   0  0  0  0  0  0  0  0  0  0  0  0
  -21.5630   -6.5340   22.5140 C   0  0  0  0  0  0  0  0  0  0  0  0
  -21.1360   -7.1410   23.7150 C   0  0  0  0  0  3  0  0  0  0  0  0
  -20.9880   -6.3610   24.8810 C   0  0  0  0  0  3  0  0  0  0  0  0
  -21.2570   -4.9810   24.8450 C   0  0  0  0  0  0  0  0  0  0  0  0
  -21.6770   -4.3750   23.6480 C   0  0  0  0  0  3  0  0  0  0  0  0
  -21.8270   -5.1500   22.4850 C   0  0  0  0  0  0  0  0  0  0  0  0
  -22.2100   -4.5580   21.3290 F   0  0  0  0  0  0  0  0  0  0  0  0
  -21.1060   -4.2310   25.9620 F   0  0  0  0  0  0  0  0  0  0  0  0
  -22.9560  -13.8520   21.1860 C   0  0  0  0  0  0  0  0  0  0  0  0
  -22.2900  -13.1590   22.1020 N   0  0  0  0  0  0  0  0  0  0  0  0
  -22.5060  -14.9020   20.7280 O   0  0  0  0  0  0  0  0  0  0  0  0
  -22.6630  -12.3030   22.4840 H   0  0  0  0  0  0  0  0  0  0  0  0
  -21.3890  -13.4860   22.4260 H   0  0  0  0  0  0  0  0  0  0  0  0
  -25.5710  -15.4510   20.2040 N   0  0  0  0  0  0  0  0  0  0  0  0
  -24.8490  -16.1350   20.4030 H   0  0  0  0  0  0  0  0  0  0  0  0
  -26.4260  -15.8620   19.8480 H   0  0  0  0  0  0  0  0  0  0  0  0
  -29.9590  -16.2690   22.7770 C   0  0  0  0  0  1  0  0  0  0  0  0
  -32.2550  -17.1900   22.4890 C   0  0  0  0  0  1  0  0  0  0  0  0
  -30.9710  -16.8380   21.8920 N   0  0  0  0  0  0  0  0  0  0  0  0
  -28.0580  -25.1430   20.2050 C   0  0  0  0  0  2  0  0  0  0  0  0
  -28.2450  -26.6100   20.2340 O   0  0  0  0  0  0  0  0  0  0  0  0
  -24.4960  -31.9520   23.2100 C   0  0  0  0  0  0  0  0  0  0  0  0
  -27.1020  -27.4170   20.1600 C   0  0  0  0  0  0  0  0  0  0  0  0
  -23.2650  -30.5140   21.6210 C   0  0  0  0  0  3  0  0  0  0  0  0
  -24.6990  -28.9680   20.1740 C   0  0  0  0  0  0  0  0  0  0  0  0
  -25.7870  -30.8780   21.3560 C   0  0  0  0  0  2  0  0  0  0  0  0
  -25.8720  -29.4940   20.7300 C   0  0  0  0  0  0  0  0  0  0  0  0
  -27.0740  -28.7310   20.7120 C   0  0  0  0  0  3  0  0  0  0  0  0
  -25.9070  -26.9410   19.5670 C   0  0  0  0  0  3  0  0  0  0  0  0
  -24.7170  -27.6960   19.5830 C   0  0  0  0  0  3  0  0  0  0  0  0
  -23.4470  -29.8190   20.2460 C   0  0  0  0  0  2  0  0  0  0  0  0
  -24.5370  -31.1340   22.1190 N   0  0  0  0  0  0  0  0  0  0  0  0
  -23.4250  -32.2200   23.7730 O   0  0  0  0  0  0  0  0  0  0  0  0
  -22.6490  -29.5030   22.6150 C   0  0  0  0  0  0  0  0  0  0  0  0
  -21.3310  -29.2690   22.4940 N   0  0  0  0  0  0  0  0  0  0  0  0
  -23.3530  -28.9290   23.4500 O   0  0  0  0  0  0  0  0  0  0  0  0
  -20.8210  -29.7850   21.7910 H   0  0  0  0  0  0  0  0  0  0  0  0
  -18.0160  -27.9120   22.9890 C   0  0  0  0  0  0  0  0  0  0  0  0
  -20.5510  -28.3240   23.2920 C   0  0  0  0  0  3  0  0  0  0  0  0
  -20.7420  -26.8760   22.7850 C   0  0  0  0  0  2  0  0  0  0  0  0
  -19.6790  -26.4470   21.7700 C   0  0  0  0  0  2  0  0  0  0  0  0
  -18.2790  -26.5460   22.3800 C   0  0  0  0  0  2  0  0  0  0  0  0
  -19.0830  -28.7540   23.4030 C   0  0  0  0  0  0  0  0  0  0  0  0
  -18.7830  -30.0290   23.9310 C   0  0  0  0  0  3  0  0  0  0  0  0
  -17.4500  -30.4630   24.0520 C   0  0  0  0  0  3  0  0  0  0  0  0
  -16.3970  -29.6200   23.6550 C   0  0  0  0  0  3  0  0  0  0  0  0
  -16.6820  -28.3480   23.1260 C   0  0  0  0  0  3  0  0  0  0  0  0
  -25.7900  -32.6060   23.7890 C   0  0  0  0  0  3  0  0  0  0  0  0
  -26.3510  -31.8560   25.0580 C   0  0  1  0  0  0  0  0  0  0  0  0
  -25.2890  -31.6100   26.1560 C   0  0  0  0  0  1  0  0  0  0  0  0
  -26.9490  -30.4840   24.6630 C   0  0  0  0  0  1  0  0  0  0  0  0
  -27.5030  -32.6770   25.6850 C   0  0  0  0  0  1  0  0  0  0  0  0
  -25.4700  -34.0040   24.1140 N   0  0  0  0  0  0  0  0  0  0  0  0
  -25.7480  -35.0530   23.3280 C   0  0  0  0  0  0  0  0  0  0  0  0
  -26.3740  -34.9460   22.2700 O   0  0  0  0  0  0  0  0  0  0  0  0
  -24.9080  -34.1600   24.9380 H   0  0  0  0  0  0  0  0  0  0  0  0
  -23.9640  -36.8020   23.0470 C   0  0  0  0  0  1  0  0  0  0  0  0
  -25.2580  -36.4390   23.7920 C   0  0  0  0  0  3  0  0  0  0  0  0
  -27.4160  -37.3830   24.4840 C   0  0  0  0  0  1  0  0  0  0  0  0
  -26.2570  -37.5110   23.6040 N   0  0  0  0  0  0  0  0  0  0  0  0
  -25.8410  -38.4240   23.7570 H   0  0  0  0  0  0  0  0  0  0  0  0
  1  5  1  0
  1  6  1  0
  3  2  1  0
  4  2  1  0
  5 55  1  0
  5  3  1  0
  6  4  1  0
  7  1  2  0
  8 11  1  0
  9  8  2  0
  9 12  1  0
 11  6  1  0
 11 10  2  0
 12 13  2  0
 13 10  1  0
 13 54  1  0
 14 20  1  0
 15 20  1  0
 16 17  1  0
 16 15  1  0
 18 17  1  0
 18 27  1  0
 18 19  1  0
 20 19  1  0
 21 14  2  0
 22 23  1  0
 23 14  1  0
 23 12  1  0
 24 25  2  0
 25 44  1  0
 26 25  1  0
 26 29  1  0
 27 28  1  0
 27 24  1  0
 28 26  2  0
 29 30  1  0
 30 31  2  0
 32 35  1  0
 32 31  1  0
 33 32  2  0
 34 33  1  0
 34 29  2  0
 35 36  1  0
 36 37  1  0
 37 38  2  0
 39 38  1  0
 39 43  1  0
 40 39  2  0
 41 36  2  0
 41 40  1  0
 42 41  1  0
 44 45  1  0
 45 48  1  0
 45 47  1  0
 46 44  2  0
 49 24  1  0
 49 50  1  0
 51 49  1  0
 54 53  1  0
 54 52  1  0
 55 56  1  0
 57 68  2  0
 58 56  1  0
 58 63  1  0
 59 67  1  0
 59 69  1  0
 60 66  1  0
 60 62  1  0
 61 67  1  0
 62 61  1  0
 63 62  2  0
 64 65  1  0
 64 58  2  0
 65 60  2  0
 66 59  1  0
 67 57  1  0
 69 71  2  0
 70 69  1  0
 72 70  1  0
 73 82  2  0
 73 78  1  0
 74 70  1  0
 74 78  1  0
 75 74  1  0
 76 77  1  0
 76 75  1  0
 77 73  1  0
 78 79  2  0
 79 80  1  0
 81 80  2  0
 82 81  1  0
 83 57  1  0
 83 88  1  0
 83 84  1  0
 84 87  1  1
 84 85  1  0
 86 84  1  0
 88 91  1  0
 89 93  1  0
 89 88  1  0
 90 89  2  0
 93 92  1  0
 95 96  1  0
 95 93  1  0
 95 94  1  0
M  ISO  4  14 100  23 100  55 101  56 101
M  END
>  <TORSDO>  (43) 
F 19

>  <SCORE>  (43) 
-8.538

>  <name>  (43) 
42

>  <ligand_id>  (43) 
42

>  <original_smiles>  (43) 
[H]c1c([H])c([H])c2c(c1[H])C([H])([H])C([H])([H])C([H])([H])C2([H])N([H])C(=O)C1([H])N(C(=O)C([H])(N([H])C(=O)C([H])(N([H])C([H])([H])[H])C([H])([H])[H])C(C([H])([H])[H])(C([H])([H])[H])C([H])([H])[H])C([H])([H])c2c([H])c(OC([H])([H])C3([H])C(=O)N(c4c([H])c([H])c(N(C(=O)N5C([H])([H])C([H])([H])C([H])([H])C([H])(n6nc(-c7c([H])c([H])c(Oc8c([H])c([H])c(F)c([H])c8F)c([H])c7[H])c(C(=O)N([H])[H])c6N([H])[H])C5([H])[H])C([H])([H])[H])c(N(C([H])([H])[H])C([H])([H])[H])c4[H])C([H])([H])C([H])([H])C3([H])[H])c([H])c([H])c2C1([H])[H]

>  <smiles>  (43) 
[H]c1c([H])c([H])c2c(c1[H])C([H])([H])C([H])([H])C([H])([H])C2([H])N([H])C(=O)C1([H])N(C(=O)C([H])(N([H])C(=O)C([H])(N([H])C([H])([H])[H])C([H])([H])[H])C(C([H])([H])[H])(C([H])([H])[H])C([H])([H])[H])C([H])([H])c2c([H])c(OC([H])([H])C3([H])C(=O)N(c4c([H])c([H])c(N(C(=O)N5C([H])([H])C([H])([H])C([H])([H])C([H])(n6nc(-c7c([H])c([H])c(Oc8c([H])c([H])c(F)c([H])c8F)c([H])c7[H])c(C(=O)N([H])[H])c6N([H])[H])C5([H])[H])C([H])([H])[H])c(N(C([H])([H])[H])C([H])([H])[H])c4[H])C([H])([H])C([H])([H])C3([H])[H])c([H])c([H])c2C1([H])[H]

$$$$
43:0:0
     RDKit          3D

 99107  0  0  1  0  0  0  0  0999 V2000
  -30.5020  -22.2640   19.1160 C   0  0  0  0  0  3  0  0  0  0  0  0
  -30.1630  -20.9760   19.5590 C   0  0  0  0  0  3  0  0  0  0  0  0
  -32.7670  -21.9450   19.9210 C   0  0  0  0  0  3  0  0  0  0  0  0
  -31.8200  -22.7660   19.2560 C   0  0  0  0  0  0  0  0  0  0  0  0
  -31.1330  -20.1470   20.1500 C   0  0  0  0  0  0  0  0  0  0  0  0
  -32.4290  -20.6550   20.3790 C   0  0  0  0  0  0  0  0  0  0  0  0
  -33.3530  -19.9180   21.0430 F   0  0  0  0  0  0  0  0  0  0  0  0
  -31.1950  -17.7550   19.7840 C   0  0  0  0  0  0  0  0  0  0  0  0
  -30.7510  -18.8220   20.4680 N   0  0  0  0  0  0  0  0  0  0  0  0
  -32.3790  -17.5890   19.4880 O   0  0  0  0  0  0  0  0  0  0  0  0
  -29.7890  -18.7200   20.7520 H   0  0  0  0  0  0  0  0  0  0  0  0
  -30.1340  -16.7090   19.3450 C   0  0  0  0  0  3  0  0  0  0  0  0
  -30.5100  -14.6770   20.6440 C   0  0  0  0  0  0  0  0  0  0  0  0
  -30.2510  -12.5730   19.4210 C   0  0  0  0  0  2  0  0  0  0  0  0
  -29.2660  -12.8300   18.2640 C   0  0  0  0  0  2  0  0  0  0  0  0
  -27.8070  -12.6130   18.7270 C   0  0  0  0  0  2  0  0  0  0  0  0
  -27.4830  -13.3230   20.0730 C   0  0  0  0  0  3  0  0  0  0  0  0
  -28.5950  -13.0800   21.1160 C   0  0  0  0  0  2  0  0  0  0  0  0
  -29.8650  -13.4870   20.5030 N   0  0  0  0  0  0  0  0  0  0  0  0
  -31.7160  -14.7800   20.4100 O   0  0  0  0  0  0  0  0  0  0  0  0
  -28.9770  -16.3320   21.5780 C   0  0  0  0  0  1  0  0  0  0  0  0
  -29.7250  -15.7750   20.4430 N   0  0  0  0  0  0  0  0  0  0  0  0
  -25.0880  -13.8060   20.8760 C   0  0  0  0  0  0  0  0  0  0  0  0
  -24.0520  -12.9720   21.2030 C   0  0  0  0  0  0  0  0  0  0  0  0
  -24.5590  -11.6440   21.0640 C   0  0  0  0  0  0  0  0  0  0  0  0
  -26.1560  -12.9770   20.5650 N   0  0  0  0  0  0  0  0  0  0  0  0
  -25.8420  -11.6690   20.7330 N   0  0  0  0  0  0  0  0  0  0  0  0
  -23.8850  -10.3460   21.1720 C   0  0  0  0  0  0  0  0  0  0  0  0
  -24.3350   -9.3540   22.0690 C   0  0  0  0  0  3  0  0  0  0  0  0
  -23.6570   -8.1190   22.1680 C   0  0  0  0  0  3  0  0  0  0  0  0
  -22.5160   -7.8700   21.3690 C   0  0  0  0  0  0  0  0  0  0  0  0
  -22.0870   -8.8540   20.4600 C   0  0  0  0  0  3  0  0  0  0  0  0
  -22.7670  -10.0790   20.3580 C   0  0  0  0  0  3  0  0  0  0  0  0
  -21.8110   -6.6910   21.3810 O   0  0  0  0  0  0  0  0  0  0  0  0
  -21.7090   -5.9260   22.5150 C   0  0  0  0  0  0  0  0  0  0  0  0
  -21.1340   -6.4260   23.7050 C   0  0  0  0  0  3  0  0  0  0  0  0
  -20.9870   -5.5840   24.8240 C   0  0  0  0  0  3  0  0  0  0  0  0
  -21.4050   -4.2410   24.7530 C   0  0  0  0  0  0  0  0  0  0  0  0
  -21.9730   -3.7400   23.5690 C   0  0  0  0  0  3  0  0  0  0  0  0
  -22.1210   -4.5790   22.4510 C   0  0  0  0  0  0  0  0  0  0  0  0
  -22.6470   -4.0860   21.3040 F   0  0  0  0  0  0  0  0  0  0  0  0
  -21.2600   -3.4270   25.8250 F   0  0  0  0  0  0  0  0  0  0  0  0
  -22.6440  -13.3780   21.5370 C   0  0  0  0  0  0  0  0  0  0  0  0
  -21.9650  -12.6000   22.3730 N   0  0  0  0  0  0  0  0  0  0  0  0
  -22.1550  -14.4170   21.0950 O   0  0  0  0  0  0  0  0  0  0  0  0
  -22.3710  -11.7590   22.7560 H   0  0  0  0  0  0  0  0  0  0  0  0
  -21.0250  -12.8510   22.6450 H   0  0  0  0  0  0  0  0  0  0  0  0
  -25.2010  -15.1890   20.8020 N   0  0  0  0  0  0  0  0  0  0  0  0
  -24.4230  -15.8110   20.9920 H   0  0  0  0  0  0  0  0  0  0  0  0
  -26.0490  -15.6770   20.5420 H   0  0  0  0  0  0  0  0  0  0  0  0
  -27.6250  -16.6910   18.5430 C   0  0  0  0  0  1  0  0  0  0  0  0
  -29.3430  -17.9410   17.2260 C   0  0  0  0  0  1  0  0  0  0  0  0
  -28.9440  -17.4670   18.6410 C   0  0  0  0  0  3  0  0  0  0  0  0
  -33.5330  -24.5450   18.9370 C   0  0  0  0  0  1  0  0  0  0  0  0
  -32.1720  -24.0430   18.7450 N   0  0  0  0  0  0  0  0  0  0  0  0
  -31.1380  -24.9790   18.2880 C   0  0  0  0  0  2  0  0  0  0  0  0
  -30.4910  -25.7370   19.4620 C   0  0  0  0  0  2  0  0  0  0  0  0
  -29.1090  -26.3300   19.1440 C   0  0  0  0  0  2  0  0  0  0  0  0
  -28.7030  -27.0790   20.2860 O   0  0  0  0  0  0  0  0  0  0  0  0
  -24.6170  -32.0060   23.3490 C   0  0  0  0  0  0  0  0  0  0  0  0
  -27.4840  -27.7160   20.2530 C   0  0  0  0  0  0  0  0  0  0  0  0
  -23.4950  -30.5930   21.6550 C   0  0  0  0  0  3  0  0  0  0  0  0
  -25.0290  -29.1160   20.2500 C   0  0  0  0  0  0  0  0  0  0  0  0
  -26.0100  -31.0270   21.5320 C   0  0  0  0  0  2  0  0  0  0  0  0
  -26.1490  -29.6680   20.8790 C   0  0  0  0  0  0  0  0  0  0  0  0
  -27.3720  -28.9670   20.8940 C   0  0  0  0  0  3  0  0  0  0  0  0
  -26.3420  -27.1600   19.6300 C   0  0  0  0  0  3  0  0  0  0  0  0
  -25.1160  -27.8550   19.6320 C   0  0  0  0  0  3  0  0  0  0  0  0
  -23.7580  -29.9350   20.2730 C   0  0  0  0  0  2  0  0  0  0  0  0
  -24.7230  -31.2240   22.2370 N   0  0  0  0  0  0  0  0  0  0  0  0
  -23.5160  -32.2430   23.8630 O   0  0  0  0  0  0  0  0  0  0  0  0
  -22.8490  -29.5420   22.5860 C   0  0  0  0  0  0  0  0  0  0  0  0
  -21.5300  -29.3370   22.4320 N   0  0  0  0  0  0  0  0  0  0  0  0
  -23.5300  -28.9140   23.4000 O   0  0  0  0  0  0  0  0  0  0  0  0
  -21.0410  -29.8980   21.7470 H   0  0  0  0  0  0  0  0  0  0  0  0
  -18.1670  -28.0980   22.8680 C   0  0  0  0  0  0  0  0  0  0  0  0
  -20.7180  -28.3700   23.1690 C   0  0  0  0  0  3  0  0  0  0  0  0
  -20.8400  -26.9570   22.5520 C   0  0  0  0  0  2  0  0  0  0  0  0
  -19.7490  -26.6540   21.5220 C   0  0  0  0  0  2  0  0  0  0  0  0
  -18.3610  -26.7690   22.1580 C   0  0  0  0  0  2  0  0  0  0  0  0
  -19.2740  -28.8560   23.3300 C   0  0  0  0  0  0  0  0  0  0  0  0
  -19.0410  -30.1010   23.9530 C   0  0  0  0  0  3  0  0  0  0  0  0
  -17.7300  -30.5880   24.1210 C   0  0  0  0  0  3  0  0  0  0  0  0
  -16.6360  -29.8250   23.6780 C   0  0  0  0  0  3  0  0  0  0  0  0
  -16.8550  -28.5820   23.0580 C   0  0  0  0  0  3  0  0  0  0  0  0
  -25.8710  -32.6630   24.0080 C   0  0  0  0  0  3  0  0  0  0  0  0
  -25.5320  -34.0610   24.3070 N   0  0  0  0  0  0  0  0  0  0  0  0
  -25.8880  -35.1070   23.5510 C   0  0  0  0  0  0  0  0  0  0  0  0
  -26.6080  -35.0000   22.5540 O   0  0  0  0  0  0  0  0  0  0  0  0
  -24.8990  -34.2180   25.0770 H   0  0  0  0  0  0  0  0  0  0  0  0
  -24.1660  -36.8780   23.0810 C   0  0  0  0  0  1  0  0  0  0  0  0
  -25.3620  -36.4950   23.9670 C   0  0  0  0  0  3  0  0  0  0  0  0
  -27.4360  -37.4080   24.9100 C   0  0  0  0  0  1  0  0  0  0  0  0
  -26.3880  -37.5570   23.9030 N   0  0  0  0  0  0  0  0  0  0  0  0
  -25.9660  -38.4740   24.0190 H   0  0  0  0  0  0  0  0  0  0  0  0
  -26.3530  -31.9150   25.3120 C   0  0  1  0  0  0  0  0  0  0  0  0
  -25.2240  -31.6670   26.3380 C   0  0  0  0  0  1  0  0  0  0  0  0
  -26.9760  -30.5440   24.9560 C   0  0  0  0  0  1  0  0  0  0  0  0
  -27.4610  -32.7370   26.0100 C   0  0  0  0  0  1  0  0  0  0  0  0
  1  4  2  0
  1  2  1  0
  2  5  2  0
  3  6  2  0
  4  3  1  0
  5  6  1  0
  5  9  1  0
  6  7  1  0
  8  9  1  0
  9 11  1  0
 10  8  2  0
 12 53  1  0
 12  8  1  0
 12 22  1  0
 14 19  1  0
 15 16  1  0
 15 14  1  0
 17 16  1  0
 17 26  1  0
 17 18  1  0
 19 13  1  0
 19 18  1  0
 20 13  2  0
 22 13  1  0
 22 21  1  0
 23 24  2  0
 24 43  1  0
 25 28  1  0
 25 24  1  0
 26 27  1  0
 26 23  1  0
 27 25  2  0
 28 29  1  0
 29 30  2  0
 31 34  1  0
 31 30  1  0
 32 31  2  0
 33 32  1  0
 33 28  2  0
 34 35  1  0
 35 36  1  0
 36 37  2  0
 38 37  1  0
 38 42  1  0
 39 38  2  0
 40 35  2  0
 40 39  1  0
 41 40  1  0
 43 44  1  0
 44 47  1  0
 44 46  1  0
 45 43  2  0
 48 23  1  0
 48 49  1  0
 50 48  1  0
 51 53  1  0
 52 53  1  0
 55 54  1  0
 55  4  1  0
 56 55  1  0
 56 57  1  0
 58 57  1  0
 58 59  1  0
 60 71  2  0
 61 59  1  0
 61 66  1  0
 62 70  1  0
 62 72  1  0
 63 69  1  0
 63 65  1  0
 64 70  1  0
 65 66  2  0
 65 64  1  0
 67 68  1  0
 67 61  2  0
 68 63  2  0
 69 62  1  0
 70 60  1  0
 72 74  2  0
 73 72  1  0
 75 73  1  0
 76 85  2  0
 76 81  1  0
 77 73  1  0
 77 81  1  0
 78 77  1  0
 79 80  1  0
 79 78  1  0
 80 76  1  0
 81 82  2  0
 82 83  1  0
 84 83  2  0
 85 84  1  0
 86 60  1  0
 86 87  1  0
 86 96  1  0
 87 90  1  0
 88 92  1  0
 88 87  1  0
 89 88  2  0
 92 91  1  0
 94 92  1  0
 94 95  1  0
 94 93  1  0
 96 99  1  1
 96 97  1  0
 98 96  1  0
M  ISO  4  13 100  22 100  58 101  59 101
M  END
>  <TORSDO>  (44) 
F 23

>  <SCORE>  (44) 
-11.681

>  <name>  (44) 
43

>  <ligand_id>  (44) 
43

>  <original_smiles>  (44) 
[H]c1c([H])c([H])c2c(c1[H])C([H])([H])C([H])([H])C([H])([H])C2([H])N([H])C(=O)C1([H])N(C(=O)C([H])(N([H])C(=O)C([H])(N([H])C([H])([H])[H])C([H])([H])[H])C(C([H])([H])[H])(C([H])([H])[H])C([H])([H])[H])C([H])([H])c2c([H])c(OC([H])([H])C([H])([H])C([H])([H])N(c3c([H])c([H])c(N([H])C(=O)C([H])(N(C(=O)N4C([H])([H])C([H])([H])C([H])([H])C([H])(n5nc(-c6c([H])c([H])c(Oc7c([H])c([H])c(F)c([H])c7F)c([H])c6[H])c(C(=O)N([H])[H])c5N([H])[H])C4([H])[H])C([H])([H])[H])C([H])(C([H])([H])[H])C([H])([H])[H])c(F)c3[H])C([H])([H])[H])c([H])c([H])c2C1([H])[H]

>  <smiles>  (44) 
[H]c1c([H])c([H])c2c(c1[H])C([H])([H])C([H])([H])C([H])([H])C2([H])N([H])C(=O)C1([H])N(C(=O)C([H])(N([H])C(=O)C([H])(N([H])C([H])([H])[H])C([H])([H])[H])C(C([H])([H])[H])(C([H])([H])[H])C([H])([H])[H])C([H])([H])c2c([H])c(OC([H])([H])C([H])([H])C([H])([H])N(c3c([H])c([H])c(N([H])C(=O)C([H])(N(C(=O)N4C([H])([H])C([H])([H])C([H])([H])C([H])(n5nc(-c6c([H])c([H])c(Oc7c([H])c([H])c(F)c([H])c7F)c([H])c6[H])c(C(=O)N([H])[H])c5N([H])[H])C4([H])[H])C([H])([H])[H])C([H])(C([H])([H])[H])C([H])([H])[H])c(F)c3[H])C([H])([H])[H])c([H])c([H])c2C1([H])[H]

$$$$
44:0:0
     RDKit          3D

 94102  0  0  1  0  0  0  0  0999 V2000
  -29.4400  -20.3410   19.2810 C   0  0  0  0  0  0  0  0  0  0  0  0
  -29.0480  -21.6420   19.3960 N   0  0  0  0  0  0  0  0  0  0  0  0
  -29.4020  -19.8700   18.1430 O   0  0  0  0  0  0  0  0  0  0  0  0
  -28.7400  -21.9780   18.4930 H   0  0  0  0  0  0  0  0  0  0  0  0
  -29.5640  -17.9780   20.2220 C   0  0  0  0  0  3  0  0  0  0  0  0
  -31.1180  -18.7440   22.4010 C   0  0  0  0  0  3  0  0  0  0  0  0
  -29.8490  -19.3730   20.3950 C   0  0  0  0  0  0  0  0  0  0  0  0
  -30.0700  -16.9660   21.0920 C   0  0  0  0  0  0  0  0  0  0  0  0
  -30.6510  -19.7330   21.5050 C   0  0  0  0  0  0  0  0  0  0  0  0
  -30.8390  -17.3760   22.2020 C   0  0  0  0  0  0  0  0  0  0  0  0
  -31.0290  -21.0150   21.7160 F   0  0  0  0  0  0  0  0  0  0  0  0
  -31.3050  -16.4580   23.0840 F   0  0  0  0  0  0  0  0  0  0  0  0
  -30.5100  -14.5800   20.4070 C   0  0  0  0  0  0  0  0  0  0  0  0
  -30.2730  -12.4240   19.1920 C   0  0  0  0  0  2  0  0  0  0  0  0
  -29.2960  -12.6090   18.0060 C   0  0  0  0  0  2  0  0  0  0  0  0
  -27.8310  -12.4330   18.4600 C   0  0  0  0  0  2  0  0  0  0  0  0
  -27.5020  -13.2340   19.7500 C   0  0  0  0  0  3  0  0  0  0  0  0
  -28.5840  -12.9990   20.8290 C   0  0  0  0  0  2  0  0  0  0  0  0
  -29.8840  -13.3760   20.2500 N   0  0  0  0  0  0  0  0  0  0  0  0
  -31.6390  -14.7960   19.9530 O   0  0  0  0  0  0  0  0  0  0  0  0
  -29.7370  -15.5750   20.9170 N   0  0  0  0  0  0  0  0  0  0  0  0
  -28.8070  -15.3040   21.1930 H   0  0  0  0  0  0  0  0  0  0  0  0
  -25.1080  -13.8020   20.5020 C   0  0  0  0  0  0  0  0  0  0  0  0
  -24.0570  -13.0120   20.8830 C   0  0  0  0  0  0  0  0  0  0  0  0
  -24.5380  -11.6680   20.8390 C   0  0  0  0  0  0  0  0  0  0  0  0
  -26.1610  -12.9370   20.2480 N   0  0  0  0  0  0  0  0  0  0  0  0
  -25.8230  -11.6470   20.5090 N   0  0  0  0  0  0  0  0  0  0  0  0
  -23.8360  -10.3950   21.0390 C   0  0  0  0  0  0  0  0  0  0  0  0
  -24.3010   -9.4280   21.9610 C   0  0  0  0  0  3  0  0  0  0  0  0
  -23.5960   -8.2200   22.1460 C   0  0  0  0  0  3  0  0  0  0  0  0
  -22.4110   -7.9700   21.4140 C   0  0  0  0  0  0  0  0  0  0  0  0
  -21.9660   -8.9230   20.4810 C   0  0  0  0  0  3  0  0  0  0  0  0
  -22.6720  -10.1230   20.2930 C   0  0  0  0  0  3  0  0  0  0  0  0
  -21.6760   -6.8150   21.5120 O   0  0  0  0  0  0  0  0  0  0  0  0
  -21.6770   -6.0580   22.6540 C   0  0  0  0  0  0  0  0  0  0  0  0
  -21.2880   -6.5920   23.9020 C   0  0  0  0  0  3  0  0  0  0  0  0
  -21.2350   -5.7600   25.0390 C   0  0  0  0  0  3  0  0  0  0  0  0
  -21.5590   -4.3950   24.9290 C   0  0  0  0  0  0  0  0  0  0  0  0
  -21.9390   -3.8590   23.6860 C   0  0  0  0  0  3  0  0  0  0  0  0
  -21.9950   -4.6880   22.5510 C   0  0  0  0  0  0  0  0  0  0  0  0
  -22.3450   -4.1630   21.3540 F   0  0  0  0  0  0  0  0  0  0  0  0
  -21.4980   -3.5950   26.0200 F   0  0  0  0  0  0  0  0  0  0  0  0
  -22.6570  -13.4700   21.1760 C   0  0  0  0  0  0  0  0  0  0  0  0
  -21.9510  -12.7630   22.0520 N   0  0  0  0  0  0  0  0  0  0  0  0
  -22.1970  -14.4890   20.6620 O   0  0  0  0  0  0  0  0  0  0  0  0
  -22.3380  -11.9410   22.4920 H   0  0  0  0  0  0  0  0  0  0  0  0
  -21.0110  -13.0520   22.2870 H   0  0  0  0  0  0  0  0  0  0  0  0
  -25.2500  -15.1780   20.3290 N   0  0  0  0  0  0  0  0  0  0  0  0
  -24.4750  -15.8170   20.4580 H   0  0  0  0  0  0  0  0  0  0  0  0
  -26.0740  -15.6280   19.9520 H   0  0  0  0  0  0  0  0  0  0  0  0
  -28.9810  -22.7090   20.4230 C   0  0  0  0  0  2  0  0  0  0  0  0
  -28.5370  -24.0880   19.7870 C   0  0  0  0  0  2  0  0  0  0  0  0
  -28.3150  -25.3040   20.7550 C   0  0  0  0  0  2  0  0  0  0  0  0
  -28.3540  -26.6340   20.1530 O   0  0  0  0  0  0  0  0  0  0  0  0
  -24.5820  -31.8960   23.2400 C   0  0  0  0  0  0  0  0  0  0  0  0
  -27.1970  -27.3980   20.1740 C   0  0  0  0  0  0  0  0  0  0  0  0
  -23.3640  -30.4930   21.6060 C   0  0  0  0  0  3  0  0  0  0  0  0
  -24.8110  -28.9430   20.1800 C   0  0  0  0  0  0  0  0  0  0  0  0
  -25.8950  -30.8380   21.3990 C   0  0  0  0  0  2  0  0  0  0  0  0
  -25.9780  -29.4610   20.7570 C   0  0  0  0  0  0  0  0  0  0  0  0
  -27.1770  -28.7030   20.7370 C   0  0  0  0  0  3  0  0  0  0  0  0
  -26.0130  -26.9020   19.5900 C   0  0  0  0  0  3  0  0  0  0  0  0
  -24.8280  -27.6660   19.5880 C   0  0  0  0  0  3  0  0  0  0  0  0
  -23.5690  -29.8080   20.2280 C   0  0  0  0  0  2  0  0  0  0  0  0
  -24.6310  -31.0920   22.1400 N   0  0  0  0  0  0  0  0  0  0  0  0
  -23.5030  -32.1740   23.7830 O   0  0  0  0  0  0  0  0  0  0  0  0
  -22.7110  -29.4790   22.5720 C   0  0  0  0  0  0  0  0  0  0  0  0
  -21.3860  -29.2990   22.4500 N   0  0  0  0  0  0  0  0  0  0  0  0
  -23.3950  -28.8560   23.3880 O   0  0  0  0  0  0  0  0  0  0  0  0
  -20.8950  -29.8540   21.7630 H   0  0  0  0  0  0  0  0  0  0  0  0
  -18.0120  -28.1070   22.9500 C   0  0  0  0  0  0  0  0  0  0  0  0
  -20.5690  -28.3640   23.2240 C   0  0  0  0  0  3  0  0  0  0  0  0
  -20.6710  -26.9320   22.6510 C   0  0  0  0  0  2  0  0  0  0  0  0
  -19.5710  -26.6080   21.6340 C   0  0  0  0  0  2  0  0  0  0  0  0
  -18.1880  -26.7580   22.2750 C   0  0  0  0  0  2  0  0  0  0  0  0
  -19.1300  -28.8700   23.3800 C   0  0  0  0  0  0  0  0  0  0  0  0
  -18.9110  -30.1330   23.9670 C   0  0  0  0  0  3  0  0  0  0  0  0
  -17.6060  -30.6360   24.1300 C   0  0  0  0  0  3  0  0  0  0  0  0
  -16.5020  -29.8700   23.7170 C   0  0  0  0  0  3  0  0  0  0  0  0
  -16.7060  -28.6080   23.1330 C   0  0  0  0  0  3  0  0  0  0  0  0
  -25.8710  -32.5220   23.8570 C   0  0  0  0  0  3  0  0  0  0  0  0
  -26.3930  -31.7500   25.1290 C   0  0  1  0  0  0  0  0  0  0  0  0
  -25.3060  -31.5170   26.2060 C   0  0  0  0  0  1  0  0  0  0  0  0
  -26.9690  -30.3690   24.7330 C   0  0  0  0  0  1  0  0  0  0  0  0
  -27.5520  -32.5390   25.7850 C   0  0  0  0  0  1  0  0  0  0  0  0
  -25.5710  -33.9200   24.1870 N   0  0  0  0  0  0  0  0  0  0  0  0
  -25.9080  -34.9720   23.4280 C   0  0  0  0  0  0  0  0  0  0  0  0
  -26.5750  -34.8640   22.3960 O   0  0  0  0  0  0  0  0  0  0  0  0
  -24.9820  -34.0800   24.9920 H   0  0  0  0  0  0  0  0  0  0  0  0
  -24.1890  -36.7730   23.0740 C   0  0  0  0  0  1  0  0  0  0  0  0
  -25.4280  -36.3630   23.8870 C   0  0  0  0  0  3  0  0  0  0  0  0
  -27.5690  -37.2360   24.7160 C   0  0  0  0  0  1  0  0  0  0  0  0
  -26.4670  -37.4100   23.7730 N   0  0  0  0  0  0  0  0  0  0  0  0
  -26.0670  -38.3330   23.9200 H   0  0  0  0  0  0  0  0  0  0  0  0
  1  2  1  0
  1  7  1  0
  2 51  1  0
  3  1  2  0
  4  2  1  0
  5  7  2  0
  5  8  1  0
  7  9  1  0
  8 10  2  0
  9 11  1  0
  9  6  2  0
 10  6  1  0
 10 12  1  0
 13 21  1  0
 14 19  1  0
 15 16  1  0
 15 14  1  0
 17 16  1  0
 17 26  1  0
 17 18  1  0
 19 13  1  0
 19 18  1  0
 20 13  2  0
 21  8  1  0
 21 22  1  0
 23 24  2  0
 24 43  1  0
 25 24  1  0
 25 28  1  0
 26 23  1  0
 26 27  1  0
 27 25  2  0
 28 29  1  0
 29 30  2  0
 31 34  1  0
 31 30  1  0
 32 31  2  0
 33 32  1  0
 33 28  2  0
 34 35  1  0
 35 36  1  0
 36 37  2  0
 38 37  1  0
 38 42  1  0
 39 38  2  0
 40 35  2  0
 40 39  1  0
 41 40  1  0
 43 44  1  0
 44 47  1  0
 44 46  1  0
 45 43  2  0
 48 49  1  0
 48 23  1  0
 50 48  1  0
 52 51  1  0
 52 53  1  0
 54 56  1  0
 54 53  1  0
 55 66  2  0
 56 61  1  0
 57 65  1  0
 57 67  1  0
 58 64  1  0
 58 60  1  0
 59 65  1  0
 60 59  1  0
 61 60  2  0
 62 56  2  0
 63 62  1  0
 63 58  2  0
 64 57  1  0
 65 55  1  0
 67 69  2  0
 68 67  1  0
 70 68  1  0
 71 80  2  0
 71 76  1  0
 72 68  1  0
 72 76  1  0
 73 72  1  0
 74 75  1  0
 74 73  1  0
 75 71  1  0
 76 77  2  0
 77 78  1  0
 79 78  2  0
 80 79  1  0
 81 55  1  0
 81 86  1  0
 81 82  1  0
 82 85  1  1
 82 83  1  0
 84 82  1  0
 86 89  1  0
 87 91  1  0
 87 86  1  0
 88 87  2  0
 91 90  1  0
 93 91  1  0
 93 94  1  0
 93 92  1  0
M  ISO  4  13 100  21 100  53 101  54 101
M  END
>  <TORSDO>  (45) 
F 20

>  <SCORE>  (45) 
-13.846

>  <name>  (45) 
44

>  <ligand_id>  (45) 
44

>  <original_smiles>  (45) 
[H]c1c([H])c([H])c2c(c1[H])C([H])([H])C([H])([H])C([H])([H])C2([H])N([H])C(=O)C1([H])N(C(=O)C([H])(N([H])C(=O)C([H])(N([H])C([H])([H])[H])C([H])([H])[H])C(C([H])([H])[H])(C([H])([H])[H])C([H])([H])[H])C([H])([H])c2c([H])c(OC([H])([H])C([H])([H])C([H])([H])N([H])C(=O)c3c([H])c(N([H])C(=O)N4C([H])([H])C([H])([H])C([H])([H])C([H])(n5nc(-c6c([H])c([H])c(Oc7c([H])c([H])c(F)c([H])c7F)c([H])c6[H])c(C(=O)N([H])[H])c5N([H])[H])C4([H])[H])c(F)c([H])c3F)c([H])c([H])c2C1([H])[H]

>  <smiles>  (45) 
[H]c1c([H])c([H])c2c(c1[H])C([H])([H])C([H])([H])C([H])([H])C2([H])N([H])C(=O)C1([H])N(C(=O)C([H])(N([H])C(=O)C([H])(N([H])C([H])([H])[H])C([H])([H])[H])C(C([H])([H])[H])(C([H])([H])[H])C([H])([H])[H])C([H])([H])c2c([H])c(OC([H])([H])C([H])([H])C([H])([H])N([H])C(=O)c3c([H])c(N([H])C(=O)N4C([H])([H])C([H])([H])C([H])([H])C([H])(n5nc(-c6c([H])c([H])c(Oc7c([H])c([H])c(F)c([H])c7F)c([H])c6[H])c(C(=O)N([H])[H])c5N([H])[H])C4([H])[H])c(F)c([H])c3F)c([H])c([H])c2C1([H])[H]

$$$$
45:0:0
     RDKit          3D

101109  0  0  1  0  0  0  0  0999 V2000
  -29.9180  -21.5450   24.0700 C   0  0  0  0  0  1  0  0  0  0  0  0
  -31.4420  -22.3780   22.3700 C   0  0  0  0  0  1  0  0  0  0  0  0
  -30.5230  -21.1710   22.6940 C   0  0  2  0  0  0  0  0  0  0  0  0
  -29.3770  -21.0550   21.6500 C   0  0  0  0  0  0  0  0  0  0  0  0
  -29.6460  -20.8140   20.3570 N   0  0  0  0  0  0  0  0  0  0  0  0
  -28.2060  -21.0830   22.0270 O   0  0  0  0  0  0  0  0  0  0  0  0
  -29.0030  -20.1380   19.9730 H   0  0  0  0  0  0  0  0  0  0  0  0
  -29.7850  -21.9060   19.4000 C   0  0  0  0  0  2  0  0  0  0  0  0
  -28.4970  -22.7570   19.3490 C   0  0  0  0  0  2  0  0  0  0  0  0
  -28.7510  -24.2640   19.5040 C   0  0  0  0  0  2  0  0  0  0  0  0
  -27.4690  -25.0660   19.2730 C   0  0  0  0  0  2  0  0  0  0  0  0
  -27.7030  -26.4610   19.4480 O   0  0  0  0  0  0  0  0  0  0  0  0
  -24.4740  -31.6650   23.0460 C   0  0  0  0  0  0  0  0  0  0  0  0
  -26.5920  -27.2740   19.5280 C   0  0  0  0  0  0  0  0  0  0  0  0
  -23.0950  -30.5120   21.3540 C   0  0  0  0  0  3  0  0  0  0  0  0
  -24.3480  -28.9810   19.7560 C   0  0  0  0  0  0  0  0  0  0  0  0
  -25.6360  -30.6590   21.0850 C   0  0  0  0  0  2  0  0  0  0  0  0
  -25.5690  -29.3450   20.3370 C   0  0  0  0  0  0  0  0  0  0  0  0
  -26.6960  -28.5010   20.2200 C   0  0  0  0  0  3  0  0  0  0  0  0
  -25.3490  -26.9280   18.9410 C   0  0  0  0  0  3  0  0  0  0  0  0
  -24.2330  -27.7700   19.0590 C   0  0  0  0  0  3  0  0  0  0  0  0
  -23.1940  -29.9420   19.9150 C   0  0  0  0  0  2  0  0  0  0  0  0
  -24.4240  -30.9520   21.8860 N   0  0  0  0  0  0  0  0  0  0  0  0
  -23.4420  -31.9880   23.6480 O   0  0  0  0  0  0  0  0  0  0  0  0
  -22.3840  -29.4730   22.2500 C   0  0  0  0  0  0  0  0  0  0  0  0
  -21.0430  -29.4430   22.1810 N   0  0  0  0  0  0  0  0  0  0  0  0
  -23.0320  -28.7020   22.9640 O   0  0  0  0  0  0  0  0  0  0  0  0
  -20.5870  -30.0980   21.5610 H   0  0  0  0  0  0  0  0  0  0  0  0
  -17.5820  -28.5940   22.7830 C   0  0  0  0  0  0  0  0  0  0  0  0
  -20.1630  -28.5320   22.9120 C   0  0  0  0  0  3  0  0  0  0  0  0
  -20.0650  -27.1630   22.2020 C   0  0  0  0  0  2  0  0  0  0  0  0
  -18.8790  -27.0700   21.2360 C   0  0  0  0  0  2  0  0  0  0  0  0
  -17.5600  -27.3060   21.9780 C   0  0  0  0  0  2  0  0  0  0  0  0
  -18.8040  -29.1800   23.2070 C   0  0  0  0  0  0  0  0  0  0  0  0
  -18.7710  -30.3990   23.9180 C   0  0  0  0  0  3  0  0  0  0  0  0
  -17.5450  -31.0260   24.2090 C   0  0  0  0  0  3  0  0  0  0  0  0
  -16.3360  -30.4310   23.8050 C   0  0  0  0  0  3  0  0  0  0  0  0
  -16.3560  -29.2180   23.0950 C   0  0  0  0  0  3  0  0  0  0  0  0
  -25.8300  -32.1300   23.6580 C   0  0  0  0  0  3  0  0  0  0  0  0
  -26.3590  -31.1670   24.7890 C   0  0  1  0  0  0  0  0  0  0  0  0
  -25.3160  -30.8550   25.8880 C   0  0  0  0  0  1  0  0  0  0  0  0
  -26.8190  -29.8210   24.1810 C   0  0  0  0  0  1  0  0  0  0  0  0
  -27.5970  -31.7930   25.4720 C   0  0  0  0  0  1  0  0  0  0  0  0
  -25.6370  -33.4880   24.1790 N   0  0  0  0  0  0  0  0  0  0  0  0
  -26.0220  -34.6060   23.5460 C   0  0  0  0  0  0  0  0  0  0  0  0
  -26.6510  -34.5930   22.4840 O   0  0  0  0  0  0  0  0  0  0  0  0
  -25.0730  -33.5780   25.0120 H   0  0  0  0  0  0  0  0  0  0  0  0
  -24.4270  -36.5490   23.4750 C   0  0  0  0  0  1  0  0  0  0  0  0
  -25.6490  -35.9520   24.1930 C   0  0  0  0  0  3  0  0  0  0  0  0
  -27.8500  -36.5750   25.0870 C   0  0  0  0  0  1  0  0  0  0  0  0
  -26.7570  -36.9340   24.1860 N   0  0  0  0  0  0  0  0  0  0  0  0
  -26.4230  -37.8580   24.4460 H   0  0  0  0  0  0  0  0  0  0  0  0
  -31.2700  -19.8850   22.7750 N   0  0  0  0  0  0  0  0  0  0  0  0
  -33.9630  -19.3630   20.2820 C   0  0  0  0  0  3  0  0  0  0  0  0
  -33.5040  -18.2200   19.6040 C   0  0  0  0  0  3  0  0  0  0  0  0
  -33.1920  -19.9480   21.2950 C   0  0  0  0  0  3  0  0  0  0  0  0
  -31.4600  -18.2830   20.9160 C   0  0  0  0  0  3  0  0  0  0  0  0
  -32.2240  -17.6730   19.8810 C   0  0  0  0  0  0  0  0  0  0  0  0
  -31.9460  -19.3930   21.6440 C   0  0  0  0  0  0  0  0  0  0  0  0
  -32.3890  -15.4010   18.9530 C   0  0  0  0  0  0  0  0  0  0  0  0
  -32.1960  -12.9780   18.5860 C   0  0  0  0  0  2  0  0  0  0  0  0
  -31.2410  -12.7170   17.4090 C   0  0  0  0  0  2  0  0  0  0  0  0
  -29.7950  -12.5940   17.9200 C   0  0  0  0  0  2  0  0  0  0  0  0
  -29.3850  -13.7550   18.8610 C   0  0  0  0  0  3  0  0  0  0  0  0
  -30.4700  -14.0600   19.9230 C   0  0  0  0  0  2  0  0  0  0  0  0
  -31.7620  -14.2240   19.2350 N   0  0  0  0  0  0  0  0  0  0  0  0
  -33.4860  -15.4430   18.3910 O   0  0  0  0  0  0  0  0  0  0  0  0
  -30.6900  -16.8670   18.1020 C   0  0  0  0  0  1  0  0  0  0  0  0
  -31.6910  -16.5550   19.1350 N   0  0  0  0  0  0  0  0  0  0  0  0
  -27.0340  -14.4330   19.6410 C   0  0  0  0  0  0  0  0  0  0  0  0
  -25.9980  -13.7030   20.1650 C   0  0  0  0  0  0  0  0  0  0  0  0
  -26.4760  -12.3630   20.2710 C   0  0  0  0  0  0  0  0  0  0  0  0
  -28.0730  -13.5320   19.4560 N   0  0  0  0  0  0  0  0  0  0  0  0
  -27.7470  -12.2910   19.8950 N   0  0  0  0  0  0  0  0  0  0  0  0
  -25.7780  -11.1280   20.6510 C   0  0  0  0  0  0  0  0  0  0  0  0
  -25.8720  -10.6000   21.9570 C   0  0  0  0  0  3  0  0  0  0  0  0
  -25.1760   -9.4210   22.3030 C   0  0  0  0  0  3  0  0  0  0  0  0
  -24.3710   -8.7640   21.3400 C   0  0  0  0  0  0  0  0  0  0  0  0
  -24.3020   -9.2820   20.0350 C   0  0  0  0  0  3  0  0  0  0  0  0
  -25.0010  -10.4510   19.6910 C   0  0  0  0  0  3  0  0  0  0  0  0
  -23.6800   -7.6010   21.5810 O   0  0  0  0  0  0  0  0  0  0  0  0
  -22.8310   -7.4770   22.6520 C   0  0  0  0  0  0  0  0  0  0  0  0
  -21.8050   -8.4130   22.9010 C   0  0  0  0  0  3  0  0  0  0  0  0
  -20.9100   -8.2100   23.9700 C   0  0  0  0  0  3  0  0  0  0  0  0
  -21.0350   -7.0670   24.7850 C   0  0  0  0  0  0  0  0  0  0  0  0
  -22.0510   -6.1300   24.5330 C   0  0  0  0  0  3  0  0  0  0  0  0
  -22.9460   -6.3330   23.4680 C   0  0  0  0  0  0  0  0  0  0  0  0
  -23.9110   -5.4170   23.2160 F   0  0  0  0  0  0  0  0  0  0  0  0
  -20.1710   -6.8650   25.8070 F   0  0  0  0  0  0  0  0  0  0  0  0
  -24.6140  -14.2090   20.4600 C   0  0  0  0  0  0  0  0  0  0  0  0
  -24.0470  -13.8130   21.5960 N   0  0  0  0  0  0  0  0  0  0  0  0
  -24.0460  -14.9970   19.7090 O   0  0  0  0  0  0  0  0  0  0  0  0
  -24.5180  -13.1790   22.2210 H   0  0  0  0  0  0  0  0  0  0  0  0
  -23.1270  -14.1500   21.8360 H   0  0  0  0  0  0  0  0  0  0  0  0
  -27.1670  -15.7680   19.2870 N   0  0  0  0  0  0  0  0  0  0  0  0
  -26.3960  -16.4240   19.3620 H   0  0  0  0  0  0  0  0  0  0  0  0
  -27.9900  -16.1750   18.8600 H   0  0  0  0  0  0  0  0  0  0  0  0
  -31.6430  -19.1640   24.0100 C   0  0  0  0  0  2  0  0  0  0  0  0
  -29.8550  -18.3500   25.6770 C   0  0  0  0  0  1  0  0  0  0  0  0
  -29.9560  -17.2220   23.3950 C   0  0  0  0  0  1  0  0  0  0  0  0
  -30.7420  -17.9800   24.4810 C   0  0  0  0  0  3  0  0  0  0  0  0
  3  2  1  6
  3 53  1  0
  3  1  1  0
  4  6  2  0
  4  3  1  0
  5  4  1  0
  7  5  1  0
  8  5  1  0
  9  8  1  0
  9 10  1  0
 11 12  1  0
 11 10  1  0
 12 14  1  0
 13 24  2  0
 14 19  1  0
 15 23  1  0
 15 25  1  0
 16 22  1  0
 16 18  1  0
 17 23  1  0
 18 17  1  0
 19 18  2  0
 20 21  1  0
 20 14  2  0
 21 16  2  0
 22 15  1  0
 23 13  1  0
 25 27  2  0
 26 25  1  0
 28 26  1  0
 29 38  2  0
 29 34  1  0
 30 26  1  0
 30 34  1  0
 31 30  1  0
 32 33  1  0
 32 31  1  0
 33 29  1  0
 34 35  2  0
 35 36  1  0
 37 36  2  0
 38 37  1  0
 39 13  1  0
 39 44  1  0
 39 40  1  0
 40 43  1  1
 40 41  1  0
 42 40  1  0
 44 47  1  0
 45 44  1  0
 45 49  1  0
 46 45  2  0
 49 48  1  0
 51 49  1  0
 51 52  1  0
 51 50  1  0
 53 98  1  0
 54 56  1  0
 55 58  1  0
 55 54  2  0
 56 59  2  0
 57 59  1  0
 58 57  2  0
 59 53  1  0
 60 69  1  0
 60 66  1  0
 61 66  1  0
 62 63  1  0
 62 61  1  0
 64 63  1  0
 64 73  1  0
 64 65  1  0
 66 65  1  0
 67 60  2  0
 68 69  1  0
 69 58  1  0
 70 71  2  0
 71 72  1  0
 71 90  1  0
 72 75  1  0
 73 70  1  0
 73 74  1  0
 74 72  2  0
 75 76  1  0
 76 77  2  0
 78 81  1  0
 78 77  1  0
 79 78  2  0
 80 79  1  0
 80 75  2  0
 81 82  1  0
 82 83  2  0
 82 87  1  0
 83 84  1  0
 84 85  2  0
 85 89  1  0
 86 85  1  0
 87 86  2  0
 88 87  1  0
 90 91  1  0
 91 94  1  0
 91 93  1  0
 92 90  2  0
 95 96  1  0
 95 70  1  0
 97 95  1  0
 98101  1  0
100101  1  0
101 99  1  0
M  ISO  4  11 101  12 101  60 100  69 100
M  END
>  <TORSDO>  (46) 
F 25

>  <SCORE>  (46) 
-2.054

>  <name>  (46) 
45

>  <ligand_id>  (46) 
45

>  <original_smiles>  (46) 
[H]c1c([H])c(N(C(=O)N2C([H])([H])C([H])([H])C([H])([H])C([H])(n3nc(-c4c([H])c([H])c(Oc5c([H])c([H])c(F)c([H])c5F)c([H])c4[H])c(C(=O)N([H])[H])c3N([H])[H])C2([H])[H])C([H])([H])[H])c([H])c(N(C([H])([H])C([H])(C([H])([H])[H])C([H])([H])[H])C(C(=O)N([H])C([H])([H])C([H])([H])C([H])([H])C([H])([H])Oc2c([H])c([H])c3c(c2[H])C([H])([H])N(C(=O)C([H])(N([H])C(=O)C([H])(N([H])C([H])([H])[H])C([H])([H])[H])C(C([H])([H])[H])(C([H])([H])[H])C([H])([H])[H])C([H])(C(=O)N([H])C2([H])c4c([H])c([H])c([H])c([H])c4C([H])([H])C([H])([H])C2([H])[H])C3([H])[H])(C([H])([H])[H])C([H])([H])[H])c1[H]

>  <smiles>  (46) 
[H]c1c([H])c(N(C(=O)N2C([H])([H])C([H])([H])C([H])([H])C([H])(n3nc(-c4c([H])c([H])c(Oc5c([H])c([H])c(F)c([H])c5F)c([H])c4[H])c(C(=O)N([H])[H])c3N([H])[H])C2([H])[H])C([H])([H])[H])c([H])c(N(C([H])([H])C([H])(C([H])([H])[H])C([H])([H])[H])C(C(=O)N([H])C([H])([H])C([H])([H])C([H])([H])C([H])([H])Oc2c([H])c([H])c3c(c2[H])C([H])([H])N(C(=O)C([H])(N([H])C(=O)C([H])(N([H])C([H])([H])[H])C([H])([H])[H])C(C([H])([H])[H])(C([H])([H])[H])C([H])([H])[H])C([H])(C(=O)N([H])C2([H])c4c([H])c([H])c([H])c([H])c4C([H])([H])C([H])([H])C2([H])[H])C3([H])[H])(C([H])([H])[H])C([H])([H])[H])c1[H]

$$$$
46:0:0
     RDKit          3D

 92101  0  0  1  0  0  0  0  0999 V2000
  -30.4420  -23.8520   20.3320 C   0  0  0  0  0  2  0  0  0  0  0  0
  -30.8900  -22.3960   20.0620 C   0  0  0  0  0  2  0  0  0  0  0  0
  -28.5250  -22.4310   20.3760 C   0  0  0  0  0  2  0  0  0  0  0  0
  -28.9510  -23.9030   19.9780 C   0  0  0  0  0  3  0  0  0  0  0  0
  -29.7100  -21.5480   20.2210 N   0  0  0  0  0  0  0  0  0  0  0  0
  -28.6380  -19.3140   20.6040 C   0  0  0  0  0  3  0  0  0  0  0  0
  -28.6870  -17.8900   20.6850 C   0  0  0  0  0  3  0  0  0  0  0  0
  -31.0290  -17.9240   20.1680 C   0  0  0  0  0  3  0  0  0  0  0  0
  -29.7790  -20.1020   20.3000 C   0  0  0  0  0  0  0  0  0  0  0  0
  -29.8800  -17.1470   20.4650 C   0  0  0  0  0  0  0  0  0  0  0  0
  -30.9840  -19.3500   20.0840 C   0  0  0  0  0  0  0  0  0  0  0  0
  -32.1440  -19.9830   19.7840 F   0  0  0  0  0  0  0  0  0  0  0  0
  -30.6320  -14.6730   20.0980 C   0  0  0  0  0  0  0  0  0  0  0  0
  -30.3890  -12.4690   18.9650 C   0  0  0  0  0  2  0  0  0  0  0  0
  -29.3840  -12.6400   17.8020 C   0  0  0  0  0  2  0  0  0  0  0  0
  -27.9330  -12.4660   18.2950 C   0  0  0  0  0  2  0  0  0  0  0  0
  -27.6390  -13.2820   19.5820 C   0  0  0  0  0  3  0  0  0  0  0  0
  -28.7480  -13.0770   20.6380 C   0  0  0  0  0  2  0  0  0  0  0  0
  -30.0300  -13.4440   20.0150 N   0  0  0  0  0  0  0  0  0  0  0  0
  -31.7630  -14.8660   19.6380 O   0  0  0  0  0  0  0  0  0  0  0  0
  -29.8360  -15.6850   20.5710 N   0  0  0  0  0  0  0  0  0  0  0  0
  -28.9670  -15.3260   20.9370 H   0  0  0  0  0  0  0  0  0  0  0  0
  -25.2780  -13.8640   20.4110 C   0  0  0  0  0  0  0  0  0  0  0  0
  -24.2300  -13.0830   20.8200 C   0  0  0  0  0  0  0  0  0  0  0  0
  -24.6940  -11.7340   20.7490 C   0  0  0  0  0  0  0  0  0  0  0  0
  -26.3130  -12.9900   20.1180 N   0  0  0  0  0  0  0  0  0  0  0  0
  -25.9690  -11.7030   20.3800 N   0  0  0  0  0  0  0  0  0  0  0  0
  -23.9800  -10.4670   20.9540 C   0  0  0  0  0  0  0  0  0  0  0  0
  -24.4360   -9.5050   21.8840 C   0  0  0  0  0  3  0  0  0  0  0  0
  -23.7250   -8.3010   22.0760 C   0  0  0  0  0  3  0  0  0  0  0  0
  -22.5440   -8.0510   21.3390 C   0  0  0  0  0  0  0  0  0  0  0  0
  -22.1060   -9.0000   20.3990 C   0  0  0  0  0  3  0  0  0  0  0  0
  -22.8180  -10.1960   20.2050 C   0  0  0  0  0  3  0  0  0  0  0  0
  -21.8010   -6.9000   21.4430 O   0  0  0  0  0  0  0  0  0  0  0  0
  -21.7460   -6.1800   22.6090 C   0  0  0  0  0  0  0  0  0  0  0  0
  -21.2920   -6.7540   23.8180 C   0  0  0  0  0  3  0  0  0  0  0  0
  -21.1860   -5.9590   24.9770 C   0  0  0  0  0  3  0  0  0  0  0  0
  -21.5240   -4.5930   24.9290 C   0  0  0  0  0  0  0  0  0  0  0  0
  -21.9700   -4.0200   23.7250 C   0  0  0  0  0  3  0  0  0  0  0  0
  -22.0780   -4.8110   22.5680 C   0  0  0  0  0  0  0  0  0  0  0  0
  -22.4890   -4.2490   21.4060 F   0  0  0  0  0  0  0  0  0  0  0  0
  -21.4160   -3.8270   26.0400 F   0  0  0  0  0  0  0  0  0  0  0  0
  -22.8450  -13.5520   21.1640 C   0  0  0  0  0  0  0  0  0  0  0  0
  -22.1580  -12.8400   22.0490 N   0  0  0  0  0  0  0  0  0  0  0  0
  -22.3820  -14.5840   20.6810 O   0  0  0  0  0  0  0  0  0  0  0  0
  -22.5480  -12.0050   22.4620 H   0  0  0  0  0  0  0  0  0  0  0  0
  -21.2310  -13.1340   22.3210 H   0  0  0  0  0  0  0  0  0  0  0  0
  -25.4290  -15.2380   20.2440 N   0  0  0  0  0  0  0  0  0  0  0  0
  -24.6560  -15.8810   20.3750 H   0  0  0  0  0  0  0  0  0  0  0  0
  -26.2410  -15.6730   19.8270 H   0  0  0  0  0  0  0  0  0  0  0  0
  -28.1380  -25.1210   20.6120 C   0  0  0  0  0  2  0  0  0  0  0  0
  -28.3530  -26.5060   20.1300 O   0  0  0  0  0  0  0  0  0  0  0  0
  -24.6110  -31.8700   23.1850 C   0  0  0  0  0  0  0  0  0  0  0  0
  -27.2360  -27.3500   20.1090 C   0  0  0  0  0  0  0  0  0  0  0  0
  -23.4070  -30.4750   21.5410 C   0  0  0  0  0  3  0  0  0  0  0  0
  -24.8620  -28.9370   20.1050 C   0  0  0  0  0  0  0  0  0  0  0  0
  -25.9420  -30.8080   21.3500 C   0  0  0  0  0  2  0  0  0  0  0  0
  -26.0290  -29.4340   20.7010 C   0  0  0  0  0  0  0  0  0  0  0  0
  -27.2210  -28.6510   20.6930 C   0  0  0  0  0  3  0  0  0  0  0  0
  -26.0540  -26.9050   19.4770 C   0  0  0  0  0  3  0  0  0  0  0  0
  -24.8750  -27.6780   19.4830 C   0  0  0  0  0  3  0  0  0  0  0  0
  -23.6190  -29.8040   20.1580 C   0  0  0  0  0  2  0  0  0  0  0  0
  -24.6720  -31.0680   22.0820 N   0  0  0  0  0  0  0  0  0  0  0  0
  -23.5300  -32.1410   23.7250 O   0  0  0  0  0  0  0  0  0  0  0  0
  -22.7530  -29.4500   22.4980 C   0  0  0  0  0  0  0  0  0  0  0  0
  -21.4240  -29.2790   22.3820 N   0  0  0  0  0  0  0  0  0  0  0  0
  -23.4380  -28.8140   23.3010 O   0  0  0  0  0  0  0  0  0  0  0  0
  -20.9320  -29.8400   21.7010 H   0  0  0  0  0  0  0  0  0  0  0  0
  -18.0460  -28.1050   22.9190 C   0  0  0  0  0  0  0  0  0  0  0  0
  -20.6100  -28.3400   23.1530 C   0  0  0  0  0  3  0  0  0  0  0  0
  -20.6920  -26.9150   22.5570 C   0  0  0  0  0  2  0  0  0  0  0  0
  -19.5730  -26.6140   21.5550 C   0  0  0  0  0  2  0  0  0  0  0  0
  -18.2020  -26.7630   22.2220 C   0  0  0  0  0  2  0  0  0  0  0  0
  -19.1780  -28.8510   23.3420 C   0  0  0  0  0  0  0  0  0  0  0  0
  -18.9790  -30.1080   23.9530 C   0  0  0  0  0  3  0  0  0  0  0  0
  -17.6810  -30.6190   24.1430 C   0  0  0  0  0  3  0  0  0  0  0  0
  -16.5630  -29.8690   23.7350 C   0  0  0  0  0  3  0  0  0  0  0  0
  -16.7470  -28.6130   23.1300 C   0  0  0  0  0  3  0  0  0  0  0  0
  -25.8950  -32.5020   23.8050 C   0  0  0  0  0  3  0  0  0  0  0  0
  -25.5830  -33.8980   24.1440 N   0  0  0  0  0  0  0  0  0  0  0  0
  -25.9090  -34.9560   23.3900 C   0  0  0  0  0  0  0  0  0  0  0  0
  -26.5740  -34.8590   22.3550 O   0  0  0  0  0  0  0  0  0  0  0  0
  -24.9920  -34.0450   24.9490 H   0  0  0  0  0  0  0  0  0  0  0  0
  -24.1750  -36.7480   23.0430 C   0  0  0  0  0  1  0  0  0  0  0  0
  -25.4160  -36.3400   23.8550 C   0  0  0  0  0  3  0  0  0  0  0  0
  -27.5480  -37.2240   24.6950 C   0  0  0  0  0  1  0  0  0  0  0  0
  -26.4470  -37.3960   23.7510 N   0  0  0  0  0  0  0  0  0  0  0  0
  -26.0380  -38.3140   23.9040 H   0  0  0  0  0  0  0  0  0  0  0  0
  -26.4190  -31.7250   25.0750 C   0  0  1  0  0  0  0  0  0  0  0  0
  -25.3290  -31.4770   26.1450 C   0  0  0  0  0  1  0  0  0  0  0  0
  -27.0050  -30.3510   24.6770 C   0  0  0  0  0  1  0  0  0  0  0  0
  -27.5700  -32.5190   25.7360 C   0  0  0  0  0  1  0  0  0  0  0  0
  2  5  1  0
  2  1  1  0
  4  1  1  0
  4  3  1  0
  4 51  1  0
  5  9  1  0
  5  3  1  0
  6  7  1  0
  8 10  1  0
  9  6  2  0
 10 21  1  0
 10  7  2  0
 11  8  2  0
 11  9  1  0
 12 11  1  0
 13 21  1  0
 14 19  1  0
 15 16  1  0
 15 14  1  0
 17 16  1  0
 17 26  1  0
 17 18  1  0
 19 13  1  0
 19 18  1  0
 20 13  2  0
 21 22  1  0
 23 24  2  0
 24 43  1  0
 25 24  1  0
 25 28  1  0
 26 27  1  0
 26 23  1  0
 27 25  2  0
 28 29  1  0
 29 30  2  0
 31 34  1  0
 31 30  1  0
 32 31  2  0
 33 32  1  0
 33 28  2  0
 34 35  1  0
 35 36  1  0
 36 37  2  0
 38 37  1  0
 38 42  1  0
 39 38  2  0
 40 35  2  0
 40 39  1  0
 41 40  1  0
 43 44  1  0
 44 47  1  0
 44 46  1  0
 45 43  2  0
 48 49  1  0
 48 23  1  0
 50 48  1  0
 52 51  1  0
 53 64  2  0
 54 52  1  0
 54 59  1  0
 55 63  1  0
 55 65  1  0
 56 62  1  0
 56 58  1  0
 57 63  1  0
 58 57  1  0
 59 58  2  0
 60 61  1  0
 60 54  2  0
 61 56  2  0
 62 55  1  0
 63 53  1  0
 65 67  2  0
 66 65  1  0
 68 66  1  0
 69 78  2  0
 69 74  1  0
 70 66  1  0
 70 74  1  0
 71 70  1  0
 72 73  1  0
 72 71  1  0
 73 69  1  0
 74 75  2  0
 75 76  1  0
 77 76  2  0
 78 77  1  0
 79 53  1  0
 79 80  1  0
 79 89  1  0
 80 83  1  0
 81 85  1  0
 81 80  1  0
 82 81  2  0
 85 84  1  0
 87 85  1  0
 87 88  1  0
 87 86  1  0
 89 92  1  1
 89 90  1  0
 91 89  1  0
M  ISO  4  13 100  21 100  51 101  52 101
M  END
>  <TORSDO>  (47) 
F 18

>  <SCORE>  (47) 
-14.634

>  <name>  (47) 
46

>  <ligand_id>  (47) 
46

>  <original_smiles>  (47) 
[H]c1c([H])c([H])c2c(c1[H])C([H])([H])C([H])([H])C([H])([H])C2([H])N([H])C(=O)C1([H])N(C(=O)C([H])(N([H])C(=O)C([H])(N([H])C([H])([H])[H])C([H])([H])[H])C(C([H])([H])[H])(C([H])([H])[H])C([H])([H])[H])C([H])([H])c2c([H])c(OC([H])([H])C3([H])C([H])([H])N(c4c([H])c([H])c(N([H])C(=O)N5C([H])([H])C([H])([H])C([H])([H])C([H])(n6nc(-c7c([H])c([H])c(Oc8c([H])c([H])c(F)c([H])c8F)c([H])c7[H])c(C(=O)N([H])[H])c6N([H])[H])C5([H])[H])c([H])c4F)C([H])([H])C3([H])[H])c([H])c([H])c2C1([H])[H]

>  <smiles>  (47) 
[H]c1c([H])c([H])c2c(c1[H])C([H])([H])C([H])([H])C([H])([H])C2([H])N([H])C(=O)C1([H])N(C(=O)C([H])(N([H])C(=O)C([H])(N([H])C([H])([H])[H])C([H])([H])[H])C(C([H])([H])[H])(C([H])([H])[H])C([H])([H])[H])C([H])([H])c2c([H])c(OC([H])([H])C3([H])C([H])([H])N(c4c([H])c([H])c(N([H])C(=O)N5C([H])([H])C([H])([H])C([H])([H])C([H])(n6nc(-c7c([H])c([H])c(Oc8c([H])c([H])c(F)c([H])c8F)c([H])c7[H])c(C(=O)N([H])[H])c6N([H])[H])C5([H])[H])c([H])c4F)C([H])([H])C3([H])[H])c([H])c([H])c2C1([H])[H]

$$$$
47:0:0
     RDKit          3D

 95103  0  0  1  0  0  0  0  0999 V2000
  -29.1880  -22.4680   20.1530 C   0  0  0  0  0  0  0  0  0  0  0  0
  -29.5060  -21.4160   19.2940 N   0  0  0  0  0  0  0  0  0  0  0  0
  -29.2110  -22.3150   21.3770 O   0  0  0  0  0  0  0  0  0  0  0  0
  -31.0320  -17.8500   19.2390 C   0  0  0  0  0  3  0  0  0  0  0  0
  -30.8020  -19.2400   19.0010 C   0  0  0  0  0  3  0  0  0  0  0  0
  -29.3080  -17.8900   20.8930 C   0  0  0  0  0  3  0  0  0  0  0  0
  -30.2970  -17.1160   20.2070 C   0  0  0  0  0  0  0  0  0  0  0  0
  -29.8060  -20.0110   19.6820 C   0  0  0  0  0  0  0  0  0  0  0  0
  -29.0580  -19.2750   20.6420 C   0  0  0  0  0  0  0  0  0  0  0  0
  -28.0370  -19.8700   21.3050 F   0  0  0  0  0  0  0  0  0  0  0  0
  -31.0360  -14.6840   19.7400 C   0  0  0  0  0  0  0  0  0  0  0  0
  -30.6080  -12.5350   18.5300 C   0  0  0  0  0  2  0  0  0  0  0  0
  -29.5250  -12.7320   17.4460 C   0  0  0  0  0  2  0  0  0  0  0  0
  -28.1100  -12.5710   18.0350 C   0  0  0  0  0  2  0  0  0  0  0  0
  -27.9260  -13.3650   19.3540 C   0  0  0  0  0  3  0  0  0  0  0  0
  -29.1000  -13.1110   20.3170 C   0  0  0  0  0  2  0  0  0  0  0  0
  -30.3420  -13.4970   19.6250 N   0  0  0  0  0  0  0  0  0  0  0  0
  -32.0720  -14.8570   19.0890 O   0  0  0  0  0  0  0  0  0  0  0  0
  -30.5740  -15.4070   21.9980 C   0  0  0  0  0  1  0  0  0  0  0  0
  -30.5300  -15.6900   20.5530 N   0  0  0  0  0  0  0  0  0  0  0  0
  -25.6670  -13.9700   20.4200 C   0  0  0  0  0  0  0  0  0  0  0  0
  -24.6260  -13.2000   20.8620 C   0  0  0  0  0  0  0  0  0  0  0  0
  -25.0280  -11.8430   20.6670 C   0  0  0  0  0  0  0  0  0  0  0  0
  -26.6390  -13.0820   19.9840 N   0  0  0  0  0  0  0  0  0  0  0  0
  -26.2660  -11.7920   20.1910 N   0  0  0  0  0  0  0  0  0  0  0  0
  -24.2830  -10.5900   20.8510 C   0  0  0  0  0  0  0  0  0  0  0  0
  -24.7320   -9.5870   21.7380 C   0  0  0  0  0  3  0  0  0  0  0  0
  -23.9880   -8.4000   21.9120 C   0  0  0  0  0  3  0  0  0  0  0  0
  -22.7810   -8.2080   21.2000 C   0  0  0  0  0  0  0  0  0  0  0  0
  -22.3490   -9.2010   20.3030 C   0  0  0  0  0  3  0  0  0  0  0  0
  -23.0930  -10.3790   20.1270 C   0  0  0  0  0  3  0  0  0  0  0  0
  -22.0050   -7.0770   21.2870 O   0  0  0  0  0  0  0  0  0  0  0  0
  -21.8930   -6.3680   22.4560 C   0  0  0  0  0  0  0  0  0  0  0  0
  -21.4180   -6.9630   23.6450 C   0  0  0  0  0  3  0  0  0  0  0  0
  -21.2520   -6.1810   24.8050 C   0  0  0  0  0  3  0  0  0  0  0  0
  -21.5530   -4.8060   24.7780 C   0  0  0  0  0  0  0  0  0  0  0  0
  -22.0220   -4.2110   23.5930 C   0  0  0  0  0  3  0  0  0  0  0  0
  -22.1900   -4.9900   22.4350 C   0  0  0  0  0  0  0  0  0  0  0  0
  -22.6210   -4.4070   21.2910 F   0  0  0  0  0  0  0  0  0  0  0  0
  -21.3870   -4.0530   25.8910 F   0  0  0  0  0  0  0  0  0  0  0  0
  -23.2950  -13.6930   21.3490 C   0  0  0  0  0  0  0  0  0  0  0  0
  -22.6650  -12.9600   22.2590 N   0  0  0  0  0  0  0  0  0  0  0  0
  -22.8270  -14.7610   20.9560 O   0  0  0  0  0  0  0  0  0  0  0  0
  -23.0600  -12.0950   22.5970 H   0  0  0  0  0  0  0  0  0  0  0  0
  -21.7770  -13.2700   22.6270 H   0  0  0  0  0  0  0  0  0  0  0  0
  -25.8610  -15.3450   20.3320 N   0  0  0  0  0  0  0  0  0  0  0  0
  -25.1440  -16.0100   20.5980 H   0  0  0  0  0  0  0  0  0  0  0  0
  -26.6910  -15.7850   19.9570 H   0  0  0  0  0  0  0  0  0  0  0  0
  -28.8400  -23.9330   19.6170 C   0  0  0  0  0  3  0  0  0  0  0  0
  -28.3500  -25.0710   20.6190 C   0  0  0  0  0  3  0  0  0  0  0  0
  -28.4510  -26.4930   20.2090 O   0  0  0  0  0  0  0  0  0  0  0  0
  -24.4240  -31.7290   23.1200 C   0  0  0  0  0  0  0  0  0  0  0  0
  -27.2870  -27.2670   20.1740 C   0  0  0  0  0  0  0  0  0  0  0  0
  -23.3120  -30.2640   21.4690 C   0  0  0  0  0  3  0  0  0  0  0  0
  -24.8560  -28.7590   20.0910 C   0  0  0  0  0  0  0  0  0  0  0  0
  -25.8370  -30.6930   21.3320 C   0  0  0  0  0  2  0  0  0  0  0  0
  -25.9880  -29.3140   20.7020 C   0  0  0  0  0  0  0  0  0  0  0  0
  -27.2100  -28.5810   20.7270 C   0  0  0  0  0  3  0  0  0  0  0  0
  -26.1350  -26.7540   19.5460 C   0  0  0  0  0  3  0  0  0  0  0  0
  -24.9310  -27.4860   19.5010 C   0  0  0  0  0  3  0  0  0  0  0  0
  -23.5820  -29.5810   20.1030 C   0  0  0  0  0  2  0  0  0  0  0  0
  -24.5410  -30.9140   22.0310 N   0  0  0  0  0  0  0  0  0  0  0  0
  -23.3200  -31.9660   23.6310 O   0  0  0  0  0  0  0  0  0  0  0  0
  -22.6720  -29.2330   22.4280 C   0  0  0  0  0  0  0  0  0  0  0  0
  -21.3550  -29.0100   22.2830 N   0  0  0  0  0  0  0  0  0  0  0  0
  -23.3600  -28.6330   23.2570 O   0  0  0  0  0  0  0  0  0  0  0  0
  -20.8580  -29.5480   21.5870 H   0  0  0  0  0  0  0  0  0  0  0  0
  -18.0110  -27.7130   22.7520 C   0  0  0  0  0  0  0  0  0  0  0  0
  -20.5570  -28.0510   23.0490 C   0  0  0  0  0  3  0  0  0  0  0  0
  -20.7090  -26.6210   22.4790 C   0  0  0  0  0  2  0  0  0  0  0  0
  -19.6290  -26.2610   21.4540 C   0  0  0  0  0  2  0  0  0  0  0  0
  -18.2350  -26.3670   22.0820 C   0  0  0  0  0  2  0  0  0  0  0  0
  -19.1020  -28.5090   23.1910 C   0  0  0  0  0  0  0  0  0  0  0  0
  -18.8390  -29.7670   23.7760 C   0  0  0  0  0  3  0  0  0  0  0  0
  -17.5180  -30.2300   23.9280 C   0  0  0  0  0  3  0  0  0  0  0  0
  -16.4410  -29.4310   23.5060 C   0  0  0  0  0  3  0  0  0  0  0  0
  -16.6890  -28.1740   22.9240 C   0  0  0  0  0  3  0  0  0  0  0  0
  -25.6680  -32.4190   23.7610 C   0  0  0  0  0  3  0  0  0  0  0  0
  -25.2990  -33.8090   24.0630 N   0  0  0  0  0  0  0  0  0  0  0  0
  -25.6050  -34.8630   23.2940 C   0  0  0  0  0  0  0  0  0  0  0  0
  -26.2970  -34.7690   22.2760 O   0  0  0  0  0  0  0  0  0  0  0  0
  -24.6850  -33.9520   24.8520 H   0  0  0  0  0  0  0  0  0  0  0  0
  -23.8130  -36.5790   22.8830 C   0  0  0  0  0  1  0  0  0  0  0  0
  -25.0570  -36.2380   23.7190 C   0  0  0  0  0  3  0  0  0  0  0  0
  -27.1410  -37.2200   24.5690 C   0  0  0  0  0  1  0  0  0  0  0  0
  -26.0500  -37.3290   23.6050 N   0  0  0  0  0  0  0  0  0  0  0  0
  -25.6050  -38.2340   23.7290 H   0  0  0  0  0  0  0  0  0  0  0  0
  -26.1830  -31.6870   25.0620 C   0  0  1  0  0  0  0  0  0  0  0  0
  -25.0720  -31.4170   26.1040 C   0  0  0  0  0  1  0  0  0  0  0  0
  -26.8350  -30.3310   24.7070 C   0  0  0  0  0  1  0  0  0  0  0  0
  -27.2810  -32.5390   25.7410 C   0  0  0  0  0  1  0  0  0  0  0  0
  -29.5960  -21.6880   17.8400 C   0  0  0  0  0  2  0  0  0  0  0  0
  -27.1930  -20.9850   17.2610 C   0  0  0  0  0  1  0  0  0  0  0  0
  -29.0040  -20.9080   15.5010 C   0  0  0  0  0  1  0  0  0  0  0  0
  -28.6920  -20.7570   16.9960 C   0  0  0  0  0  3  0  0  0  0  0  0
  1  3  2  0
  2  8  1  0
  2  1  1  0
  4  7  1  0
  5  4  2  0
  5  8  1  0
  7 20  1  0
  7  6  2  0
  8  9  2  0
  9  6  1  0
  9 10  1  0
 11 20  1  0
 12 17  1  0
 13 14  1  0
 13 12  1  0
 15 14  1  0
 15 24  1  0
 15 16  1  0
 17 11  1  0
 17 16  1  0
 18 11  2  0
 20 19  1  0
 21 22  2  0
 22 41  1  0
 23 26  1  0
 23 22  1  0
 24 25  1  0
 24 21  1  0
 25 23  2  0
 26 27  1  0
 27 28  2  0
 29 32  1  0
 29 28  1  0
 30 29  2  0
 31 30  1  0
 31 26  2  0
 32 33  1  0
 33 34  1  0
 34 35  2  0
 36 35  1  0
 36 40  1  0
 37 36  2  0
 38 33  2  0
 38 37  1  0
 39 38  1  0
 41 42  1  0
 42 44  1  0
 42 45  1  0
 43 41  2  0
 46 21  1  0
 46 47  1  0
 48 46  1  0
 49  1  1  0
 49 50  2  0
 51 50  1  0
 52 63  2  0
 53 51  1  0
 53 58  1  0
 54 62  1  0
 54 64  1  0
 55 61  1  0
 55 57  1  0
 56 62  1  0
 57 58  2  0
 57 56  1  0
 59 53  2  0
 60 59  1  0
 60 55  2  0
 61 54  1  0
 62 52  1  0
 64 66  2  0
 65 64  1  0
 67 65  1  0
 68 77  2  0
 68 73  1  0
 69 65  1  0
 69 73  1  0
 70 69  1  0
 71 72  1  0
 71 70  1  0
 72 68  1  0
 73 74  2  0
 74 75  1  0
 76 75  2  0
 77 76  1  0
 78 52  1  0
 78 79  1  0
 78 88  1  0
 79 82  1  0
 80 84  1  0
 80 79  1  0
 81 80  2  0
 84 83  1  0
 86 84  1  0
 86 87  1  0
 86 85  1  0
 88 91  1  1
 88 89  1  0
 90 88  1  0
 92  2  1  0
 94 95  1  0
 95 93  1  0
 95 92  1  0
M  ISO  4  11 100  20 100  50 101  51 101
M  END
>  <TORSDO>  (48) 
F 21

>  <SCORE>  (48) 
-11.407

>  <name>  (48) 
47

>  <ligand_id>  (48) 
47

>  <original_smiles>  (48) 
[H]c1c([H])c([H])c2c(c1[H])C([H])([H])C([H])([H])C([H])([H])C2([H])N([H])C(=O)C1([H])N(C(=O)C([H])(N([H])C(=O)C([H])(N([H])C([H])([H])[H])C([H])([H])[H])C(C([H])([H])[H])(C([H])([H])[H])C([H])([H])[H])C([H])([H])c2c([H])c(OC([H])([H])C([H])([H])C(=O)N(c3c([H])c([H])c(N(C(=O)N4C([H])([H])C([H])([H])C([H])([H])C([H])(n5nc(-c6c([H])c([H])c(Oc7c([H])c([H])c(F)c([H])c7F)c([H])c6[H])c(C(=O)N([H])[H])c5N([H])[H])C4([H])[H])C([H])([H])[H])c([H])c3F)C([H])([H])C([H])(C([H])([H])[H])C([H])([H])[H])c([H])c([H])c2C1([H])[H]

>  <smiles>  (48) 
[H]c1c([H])c([H])c2c(c1[H])C([H])([H])C([H])([H])C([H])([H])C2([H])N([H])C(=O)C1([H])N(C(=O)C([H])(N([H])C(=O)C([H])(N([H])C([H])([H])[H])C([H])([H])[H])C(C([H])([H])[H])(C([H])([H])[H])C([H])([H])[H])C([H])([H])c2c([H])c(OC([H])([H])C([H])([H])C(=O)N(c3c([H])c([H])c(N(C(=O)N4C([H])([H])C([H])([H])C([H])([H])C([H])(n5nc(-c6c([H])c([H])c(Oc7c([H])c([H])c(F)c([H])c7F)c([H])c6[H])c(C(=O)N([H])[H])c5N([H])[H])C4([H])[H])C([H])([H])[H])c([H])c3F)C([H])([H])C([H])(C([H])([H])[H])C([H])([H])[H])c([H])c([H])c2C1([H])[H]

$$$$
48:0:0
     RDKit          3D

 90 98  0  0  1  0  0  0  0  0999 V2000
  -29.5990  -19.5720   19.0110 C   0  0  0  0  0  3  0  0  0  0  0  0
  -30.0300  -19.3160   21.3510 C   0  0  0  0  0  3  0  0  0  0  0  0
  -29.3770  -20.9740   19.1890 C   0  0  0  0  0  3  0  0  0  0  0  0
  -29.8290  -20.7220   21.5250 C   0  0  0  0  0  3  0  0  0  0  0  0
  -29.9540  -18.6920   20.0740 C   0  0  0  0  0  0  0  0  0  0  0  0
  -29.5190  -21.6090   20.4500 C   0  0  0  0  0  0  0  0  0  0  0  0
  -30.2280  -23.5770   21.7420 C   0  0  0  0  0  1  0  0  0  0  0  0
  -29.4630  -23.0460   20.6140 N   0  0  0  0  0  0  0  0  0  0  0  0
  -28.3550  -23.9280   20.1190 C   0  0  0  0  0  2  0  0  0  0  0  0
  -28.7370  -25.3420   19.4730 C   0  0  0  0  0  2  0  0  0  0  0  0
  -28.5380  -26.6310   20.1650 O   0  0  0  0  0  0  0  0  0  0  0  0
  -24.5970  -31.8690   23.1080 C   0  0  0  0  0  0  0  0  0  0  0  0
  -27.3680  -27.3940   20.0720 C   0  0  0  0  0  0  0  0  0  0  0  0
  -23.4470  -30.4430   21.4490 C   0  0  0  0  0  3  0  0  0  0  0  0
  -24.9550  -28.9280   20.0360 C   0  0  0  0  0  0  0  0  0  0  0  0
  -25.9760  -30.8290   21.2930 C   0  0  0  0  0  2  0  0  0  0  0  0
  -26.0970  -29.4530   20.6500 C   0  0  0  0  0  0  0  0  0  0  0  0
  -27.3020  -28.6930   20.6620 C   0  0  0  0  0  3  0  0  0  0  0  0
  -26.2000  -26.9110   19.4440 C   0  0  0  0  0  3  0  0  0  0  0  0
  -25.0060  -27.6630   19.4260 C   0  0  0  0  0  3  0  0  0  0  0  0
  -23.6940  -29.7700   20.0700 C   0  0  0  0  0  2  0  0  0  0  0  0
  -24.6910  -31.0640   22.0080 N   0  0  0  0  0  0  0  0  0  0  0  0
  -23.5020  -32.1190   23.6300 O   0  0  0  0  0  0  0  0  0  0  0  0
  -22.7990  -29.4100   22.4000 C   0  0  0  0  0  0  0  0  0  0  0  0
  -21.4760  -29.2130   22.2650 N   0  0  0  0  0  0  0  0  0  0  0  0
  -23.4830  -28.7890   23.2180 O   0  0  0  0  0  0  0  0  0  0  0  0
  -20.9820  -29.7660   21.5780 H   0  0  0  0  0  0  0  0  0  0  0  0
  -18.1140  -27.9700   22.7470 C   0  0  0  0  0  0  0  0  0  0  0  0
  -20.6680  -28.2560   23.0230 C   0  0  0  0  0  3  0  0  0  0  0  0
  -20.7890  -26.8330   22.4320 C   0  0  0  0  0  2  0  0  0  0  0  0
  -19.6920  -26.5090   21.4130 C   0  0  0  0  0  2  0  0  0  0  0  0
  -18.3070  -26.6310   22.0570 C   0  0  0  0  0  2  0  0  0  0  0  0
  -19.2220  -28.7410   23.1870 C   0  0  0  0  0  0  0  0  0  0  0  0
  -18.9890  -29.9950   23.7950 C   0  0  0  0  0  3  0  0  0  0  0  0
  -17.6780  -30.4790   23.9630 C   0  0  0  0  0  3  0  0  0  0  0  0
  -16.5840  -29.7050   23.5380 C   0  0  0  0  0  3  0  0  0  0  0  0
  -16.8020  -28.4530   22.9370 C   0  0  0  0  0  3  0  0  0  0  0  0
  -25.8570  -32.5280   23.7490 C   0  0  0  0  0  3  0  0  0  0  0  0
  -26.3950  -31.7490   25.0110 C   0  0  1  0  0  0  0  0  0  0  0  0
  -25.3070  -31.4510   26.0680 C   0  0  0  0  0  1  0  0  0  0  0  0
  -27.0290  -30.4020   24.5930 C   0  0  0  0  0  1  0  0  0  0  0  0
  -27.5130  -32.5690   25.6970 C   0  0  0  0  0  1  0  0  0  0  0  0
  -25.5020  -33.9090   24.1080 N   0  0  0  0  0  0  0  0  0  0  0  0
  -25.8020  -34.9880   23.3720 C   0  0  0  0  0  0  0  0  0  0  0  0
  -26.4750  -34.9280   22.3390 O   0  0  0  0  0  0  0  0  0  0  0  0
  -24.9030  -34.0290   24.9110 H   0  0  0  0  0  0  0  0  0  0  0  0
  -24.0220  -36.7360   23.0450 C   0  0  0  0  0  1  0  0  0  0  0  0
  -25.2680  -36.3500   23.8580 C   0  0  0  0  0  3  0  0  0  0  0  0
  -27.3640  -37.2820   24.7330 C   0  0  0  0  0  1  0  0  0  0  0  0
  -26.2690  -37.4350   23.7790 N   0  0  0  0  0  0  0  0  0  0  0  0
  -25.8330  -38.3400   23.9410 H   0  0  0  0  0  0  0  0  0  0  0  0
  -30.2780  -17.1690   19.7390 C   0  0  0  0  0  2  0  0  0  0  0  0
  -30.9480  -14.7400   20.0390 C   0  0  0  0  0  0  0  0  0  0  0  0
  -30.6090  -12.5430   18.9060 C   0  0  0  0  0  2  0  0  0  0  0  0
  -29.6090  -12.7010   17.7390 C   0  0  0  0  0  2  0  0  0  0  0  0
  -28.1610  -12.5380   18.2380 C   0  0  0  0  0  2  0  0  0  0  0  0
  -27.8750  -13.3810   19.5090 C   0  0  0  0  0  3  0  0  0  0  0  0
  -28.9820  -13.1950   20.5650 C   0  0  0  0  0  2  0  0  0  0  0  0
  -30.2660  -13.5470   19.9390 N   0  0  0  0  0  0  0  0  0  0  0  0
  -32.0450  -14.8680   19.4850 O   0  0  0  0  0  0  0  0  0  0  0  0
  -30.0870  -15.9640   21.9770 C   0  0  0  0  0  1  0  0  0  0  0  0
  -30.2860  -15.8580   20.5220 N   0  0  0  0  0  0  0  0  0  0  0  0
  -25.5390  -13.9900   20.3820 C   0  0  0  0  0  0  0  0  0  0  0  0
  -24.4840  -13.2200   20.7890 C   0  0  0  0  0  0  0  0  0  0  0  0
  -24.9230  -11.8640   20.6950 C   0  0  0  0  0  0  0  0  0  0  0  0
  -26.5530  -13.1010   20.0610 N   0  0  0  0  0  0  0  0  0  0  0  0
  -26.1940  -11.8160   20.3110 N   0  0  0  0  0  0  0  0  0  0  0  0
  -24.1910  -10.6060   20.8920 C   0  0  0  0  0  0  0  0  0  0  0  0
  -24.5970   -9.6580   21.8560 C   0  0  0  0  0  3  0  0  0  0  0  0
  -23.8660   -8.4640   22.0400 C   0  0  0  0  0  3  0  0  0  0  0  0
  -22.7130   -8.2120   21.2580 C   0  0  0  0  0  0  0  0  0  0  0  0
  -22.3250   -9.1500   20.2850 C   0  0  0  0  0  3  0  0  0  0  0  0
  -23.0580  -10.3330   20.1000 C   0  0  0  0  0  3  0  0  0  0  0  0
  -21.9560   -7.0690   21.3490 O   0  0  0  0  0  0  0  0  0  0  0  0
  -21.7890   -6.4090   22.5400 C   0  0  0  0  0  0  0  0  0  0  0  0
  -21.2060   -7.0340   23.6640 C   0  0  0  0  0  3  0  0  0  0  0  0
  -20.9900   -6.2980   24.8450 C   0  0  0  0  0  3  0  0  0  0  0  0
  -21.3430   -4.9360   24.9020 C   0  0  0  0  0  0  0  0  0  0  0  0
  -21.9170   -4.3090   23.7810 C   0  0  0  0  0  3  0  0  0  0  0  0
  -22.1360   -5.0430   22.6030 C   0  0  0  0  0  0  0  0  0  0  0  0
  -22.6690   -4.4290   21.5190 F   0  0  0  0  0  0  0  0  0  0  0  0
  -21.1280   -4.2270   26.0340 F   0  0  0  0  0  0  0  0  0  0  0  0
  -23.1090  -13.7070   21.1510 C   0  0  0  0  0  0  0  0  0  0  0  0
  -22.4250  -13.0000   22.0420 N   0  0  0  0  0  0  0  0  0  0  0  0
  -22.6550  -14.7480   20.6790 O   0  0  0  0  0  0  0  0  0  0  0  0
  -22.8080  -12.1580   22.4450 H   0  0  0  0  0  0  0  0  0  0  0  0
  -21.5070  -13.3100   22.3290 H   0  0  0  0  0  0  0  0  0  0  0  0
  -25.7140  -15.3620   20.2380 N   0  0  0  0  0  0  0  0  0  0  0  0
  -24.9740  -16.0270   20.4310 H   0  0  0  0  0  0  0  0  0  0  0  0
  -26.5630  -15.8020   19.9030 H   0  0  0  0  0  0  0  0  0  0  0  0
  1  3  2  0
  1  5  1  0
  2  4  1  0
  3  6  1  0
  5  2  2  0
  6  8  1  0
  6  4  2  0
  8  7  1  0
  9  8  1  0
 10  9  1  0
 10 11  1  0
 12 23  2  0
 13 11  1  0
 13 18  1  0
 14 22  1  0
 14 24  1  0
 15 21  1  0
 15 17  1  0
 16 22  1  0
 17 18  2  0
 17 16  1  0
 19 13  2  0
 20 19  1  0
 20 15  2  0
 21 14  1  0
 22 12  1  0
 24 26  2  0
 25 24  1  0
 27 25  1  0
 28 37  2  0
 28 33  1  0
 29 25  1  0
 29 33  1  0
 30 29  1  0
 31 32  1  0
 31 30  1  0
 32 28  1  0
 33 34  2  0
 34 35  1  0
 36 35  2  0
 37 36  1  0
 38 12  1  0
 38 43  1  0
 38 39  1  0
 39 42  1  1
 39 40  1  0
 41 39  1  0
 43 46  1  0
 44 48  1  0
 44 43  1  0
 45 44  2  0
 48 47  1  0
 50 48  1  0
 50 51  1  0
 50 49  1  0
 52  5  1  0
 52 62  1  0
 53 62  1  0
 54 59  1  0
 55 56  1  0
 55 54  1  0
 57 56  1  0
 57 66  1  0
 57 58  1  0
 59 53  1  0
 59 58  1  0
 60 53  2  0
 62 61  1  0
 63 64  2  0
 64 83  1  0
 65 64  1  0
 65 68  1  0
 66 67  1  0
 66 63  1  0
 67 65  2  0
 68 69  1  0
 69 70  2  0
 71 74  1  0
 71 70  1  0
 72 71  2  0
 73 72  1  0
 73 68  2  0
 74 75  1  0
 75 80  2  0
 75 76  1  0
 76 77  2  0
 77 78  1  0
 78 82  1  0
 79 78  2  0
 80 79  1  0
 81 80  1  0
 83 84  1  0
 84 87  1  0
 84 86  1  0
 85 83  2  0
 88 63  1  0
 88 89  1  0
 90 88  1  0
M  ISO  4  10 101  11 101  53 100  62 100
M  END
>  <TORSDO>  (49) 
F 20

>  <SCORE>  (49) 
-13.269

>  <name>  (49) 
48

>  <ligand_id>  (49) 
48

>  <original_smiles>  (49) 
[H]c1c([H])c([H])c2c(c1[H])C([H])([H])C([H])([H])C([H])([H])C2([H])N([H])C(=O)C1([H])N(C(=O)C([H])(N([H])C(=O)C([H])(N([H])C([H])([H])[H])C([H])([H])[H])C(C([H])([H])[H])(C([H])([H])[H])C([H])([H])[H])C([H])([H])c2c([H])c(OC([H])([H])C([H])([H])N(c3c([H])c([H])c(C([H])([H])N(C(=O)N4C([H])([H])C([H])([H])C([H])([H])C([H])(n5nc(-c6c([H])c([H])c(Oc7c([H])c([H])c(F)c([H])c7F)c([H])c6[H])c(C(=O)N([H])[H])c5N([H])[H])C4([H])[H])C([H])([H])[H])c([H])c3[H])C([H])([H])[H])c([H])c([H])c2C1([H])[H]

>  <smiles>  (49) 
[H]c1c([H])c([H])c2c(c1[H])C([H])([H])C([H])([H])C([H])([H])C2([H])N([H])C(=O)C1([H])N(C(=O)C([H])(N([H])C(=O)C([H])(N([H])C([H])([H])[H])C([H])([H])[H])C(C([H])([H])[H])(C([H])([H])[H])C([H])([H])[H])C([H])([H])c2c([H])c(OC([H])([H])C([H])([H])N(c3c([H])c([H])c(C([H])([H])N(C(=O)N4C([H])([H])C([H])([H])C([H])([H])C([H])(n5nc(-c6c([H])c([H])c(Oc7c([H])c([H])c(F)c([H])c7F)c([H])c6[H])c(C(=O)N([H])[H])c5N([H])[H])C4([H])[H])C([H])([H])[H])c([H])c3[H])C([H])([H])[H])c([H])c([H])c2C1([H])[H]

$$$$
49:0:0
     RDKit          3D

 95104  0  0  1  0  0  0  0  0999 V2000
  -29.2090  -23.2390   21.9450 C   0  0  0  0  0  3  0  0  0  0  0  0
  -29.7500  -21.9380   21.7670 C   0  0  0  0  0  3  0  0  0  0  0  0
  -28.8120  -23.4200   19.5740 C   0  0  0  0  0  3  0  0  0  0  0  0
  -28.7560  -24.0240   20.8530 C   0  0  0  0  0  0  0  0  0  0  0  0
  -29.8610  -21.3520   20.4840 C   0  0  0  0  0  0  0  0  0  0  0  0
  -29.3620  -22.1160   19.3900 C   0  0  0  0  0  0  0  0  0  0  0  0
  -29.4660  -21.6250   18.1310 F   0  0  0  0  0  0  0  0  0  0  0  0
  -28.0860  -25.4040   21.1310 C   0  0  0  0  0  2  0  0  0  0  0  0
  -28.3560  -26.5660   20.2800 O   0  0  0  0  0  0  0  0  0  0  0  0
  -24.6080  -31.9170   23.2680 C   0  0  0  0  0  0  0  0  0  0  0  0
  -27.2680  -27.4310   20.2110 C   0  0  0  0  0  0  0  0  0  0  0  0
  -23.4190  -30.5110   21.6220 C   0  0  0  0  0  3  0  0  0  0  0  0
  -24.8870  -28.9850   20.1920 C   0  0  0  0  0  0  0  0  0  0  0  0
  -25.9510  -30.8670   21.4410 C   0  0  0  0  0  2  0  0  0  0  0  0
  -26.0470  -29.4950   20.7930 C   0  0  0  0  0  0  0  0  0  0  0  0
  -27.2450  -28.7270   20.7970 C   0  0  0  0  0  3  0  0  0  0  0  0
  -26.0970  -26.9640   19.5800 C   0  0  0  0  0  3  0  0  0  0  0  0
  -24.9120  -27.7220   19.5770 C   0  0  0  0  0  3  0  0  0  0  0  0
  -23.6390  -29.8400   20.2400 C   0  0  0  0  0  2  0  0  0  0  0  0
  -24.6770  -31.1150   22.1670 N   0  0  0  0  0  0  0  0  0  0  0  0
  -23.5220  -32.1820   23.8030 O   0  0  0  0  0  0  0  0  0  0  0  0
  -22.7660  -29.4850   22.5780 C   0  0  0  0  0  0  0  0  0  0  0  0
  -21.4410  -29.2990   22.4490 N   0  0  0  0  0  0  0  0  0  0  0  0
  -23.4490  -28.8600   23.3930 O   0  0  0  0  0  0  0  0  0  0  0  0
  -20.9500  -29.8540   21.7620 H   0  0  0  0  0  0  0  0  0  0  0  0
  -18.0680  -28.0950   22.9460 C   0  0  0  0  0  0  0  0  0  0  0  0
  -20.6260  -28.3560   23.2160 C   0  0  0  0  0  3  0  0  0  0  0  0
  -20.7290  -26.9280   22.6340 C   0  0  0  0  0  2  0  0  0  0  0  0
  -19.6270  -26.6090   21.6180 C   0  0  0  0  0  2  0  0  0  0  0  0
  -18.2450  -26.7500   22.2620 C   0  0  0  0  0  2  0  0  0  0  0  0
  -19.1860  -28.8560   23.3790 C   0  0  0  0  0  0  0  0  0  0  0  0
  -18.9650  -30.1170   23.9760 C   0  0  0  0  0  3  0  0  0  0  0  0
  -17.6600  -30.6150   24.1470 C   0  0  0  0  0  3  0  0  0  0  0  0
  -16.5560  -29.8500   23.7320 C   0  0  0  0  0  3  0  0  0  0  0  0
  -16.7620  -28.5930   23.1360 C   0  0  0  0  0  3  0  0  0  0  0  0
  -25.8870  -32.5570   23.8950 C   0  0  0  0  0  3  0  0  0  0  0  0
  -26.3940  -31.7970   25.1820 C   0  0  1  0  0  0  0  0  0  0  0  0
  -25.2950  -31.5680   26.2430 C   0  0  0  0  0  1  0  0  0  0  0  0
  -26.9810  -30.4160   24.8060 C   0  0  0  0  0  1  0  0  0  0  0  0
  -27.5410  -32.5980   25.8420 C   0  0  0  0  0  1  0  0  0  0  0  0
  -25.5730  -33.9560   24.2100 N   0  0  0  0  0  0  0  0  0  0  0  0
  -25.9090  -35.0020   23.4430 C   0  0  0  0  0  0  0  0  0  0  0  0
  -26.5860  -34.8900   22.4180 O   0  0  0  0  0  0  0  0  0  0  0  0
  -24.9770  -34.1190   25.0080 H   0  0  0  0  0  0  0  0  0  0  0  0
  -24.1850  -36.7910   23.0520 C   0  0  0  0  0  1  0  0  0  0  0  0
  -25.4160  -36.3940   23.8830 C   0  0  0  0  0  3  0  0  0  0  0  0
  -27.5410  -37.2850   24.7310 C   0  0  0  0  0  1  0  0  0  0  0  0
  -26.4510  -37.4460   23.7740 N   0  0  0  0  0  0  0  0  0  0  0  0
  -26.0430  -38.3680   23.9080 H   0  0  0  0  0  0  0  0  0  0  0  0
  -30.7250  -20.2320   20.2810 N   0  0  0  0  0  0  0  0  0  0  0  0
  -30.6610  -14.6610   20.2210 C   0  0  0  0  0  0  0  0  0  0  0  0
  -30.3250  -12.4630   19.1340 C   0  0  0  0  0  2  0  0  0  0  0  0
  -29.3620  -12.6300   17.9420 C   0  0  0  0  0  2  0  0  0  0  0  0
  -27.9040  -12.4710   18.4120 C   0  0  0  0  0  2  0  0  0  0  0  0
  -27.5800  -13.3240   19.6680 C   0  0  0  0  0  3  0  0  0  0  0  0
  -28.6690  -13.1870   20.7560 C   0  0  0  0  0  2  0  0  0  0  0  0
  -29.9620  -13.4870   20.1320 N   0  0  0  0  0  0  0  0  0  0  0  0
  -31.8320  -14.7350   19.8410 O   0  0  0  0  0  0  0  0  0  0  0  0
  -29.3840  -18.1780   19.4400 C   0  0  0  0  0  2  0  0  0  0  0  0
  -30.1960  -18.1380   21.7350 C   0  0  0  0  0  2  0  0  0  0  0  0
  -29.5650  -16.6300   19.2900 C   0  0  0  0  0  2  0  0  0  0  0  0
  -30.3660  -16.5810   21.7140 C   0  0  0  0  0  2  0  0  0  0  0  0
  -30.4520  -18.7610   20.3580 C   0  0  0  0  0  3  0  0  0  0  0  0
  -29.9690  -15.8220   20.4870 N   0  0  0  0  0  0  0  0  0  0  0  0
  -25.2090  -13.9180   20.4560 C   0  0  0  0  0  0  0  0  0  0  0  0
  -24.1520  -13.1420   20.8430 C   0  0  0  0  0  0  0  0  0  0  0  0
  -24.6130  -11.7910   20.7920 C   0  0  0  0  0  0  0  0  0  0  0  0
  -26.2480  -13.0390   20.1880 N   0  0  0  0  0  0  0  0  0  0  0  0
  -25.8960  -11.7550   20.4530 N   0  0  0  0  0  0  0  0  0  0  0  0
  -23.8940  -10.5270   20.9890 C   0  0  0  0  0  0  0  0  0  0  0  0
  -24.3380   -9.5590   21.9180 C   0  0  0  0  0  3  0  0  0  0  0  0
  -23.6170   -8.3600   22.1030 C   0  0  0  0  0  3  0  0  0  0  0  0
  -22.4370   -8.1190   21.3600 C   0  0  0  0  0  0  0  0  0  0  0  0
  -22.0110   -9.0750   20.4210 C   0  0  0  0  0  3  0  0  0  0  0  0
  -22.7330  -10.2660   20.2340 C   0  0  0  0  0  3  0  0  0  0  0  0
  -21.6880   -6.9710   21.4530 O   0  0  0  0  0  0  0  0  0  0  0  0
  -21.6370   -6.2380   22.6120 C   0  0  0  0  0  0  0  0  0  0  0  0
  -21.1920   -6.7990   23.8290 C   0  0  0  0  0  3  0  0  0  0  0  0
  -21.0880   -5.9920   24.9800 C   0  0  0  0  0  3  0  0  0  0  0  0
  -21.4200   -4.6250   24.9150 C   0  0  0  0  0  0  0  0  0  0  0  0
  -21.8590   -4.0650   23.7030 C   0  0  0  0  0  3  0  0  0  0  0  0
  -21.9640   -4.8680   22.5550 C   0  0  0  0  0  0  0  0  0  0  0  0
  -22.3680   -4.3190   21.3830 F   0  0  0  0  0  0  0  0  0  0  0  0
  -21.3140   -3.8480   26.0180 F   0  0  0  0  0  0  0  0  0  0  0  0
  -22.7600  -13.6170   21.1500 C   0  0  0  0  0  0  0  0  0  0  0  0
  -22.0520  -12.9170   22.0290 N   0  0  0  0  0  0  0  0  0  0  0  0
  -22.3110  -14.6450   20.6470 O   0  0  0  0  0  0  0  0  0  0  0  0
  -22.4290  -12.0880   22.4640 H   0  0  0  0  0  0  0  0  0  0  0  0
  -21.1200  -13.2200   22.2760 H   0  0  0  0  0  0  0  0  0  0  0  0
  -25.3710  -15.2900   20.2880 N   0  0  0  0  0  0  0  0  0  0  0  0
  -24.6130  -15.9470   20.4380 H   0  0  0  0  0  0  0  0  0  0  0  0
  -26.2290  -15.7360   19.9860 H   0  0  0  0  0  0  0  0  0  0  0  0
  -32.7550  -20.2800   18.8390 C   0  0  0  0  0  1  0  0  0  0  0  0
  -32.9680  -20.2090   21.3810 C   0  0  0  0  0  1  0  0  0  0  0  0
  -32.1240  -20.6730   20.1830 C   0  0  0  0  0  3  0  0  0  0  0  0
  2  1  1  0
  3  4  1  0
  4  8  1  0
  4  1  2  0
  5  2  2  0
  6  3  2  0
  6  5  1  0
  7  6  1  0
  9  8  1  0
 10 21  2  0
 11  9  1  0
 11 16  1  0
 12 20  1  0
 12 22  1  0
 13 19  1  0
 13 15  1  0
 14 20  1  0
 15 16  2  0
 15 14  1  0
 17 11  2  0
 18 17  1  0
 18 13  2  0
 19 12  1  0
 20 10  1  0
 22 24  2  0
 23 22  1  0
 25 23  1  0
 26 35  2  0
 26 31  1  0
 27 23  1  0
 27 31  1  0
 28 27  1  0
 29 30  1  0
 29 28  1  0
 30 26  1  0
 31 32  2  0
 32 33  1  0
 34 33  2  0
 35 34  1  0
 36 10  1  0
 36 41  1  0
 36 37  1  0
 37 40  1  1
 37 38  1  0
 39 37  1  0
 41 44  1  0
 42 46  1  0
 42 41  1  0
 43 42  2  0
 46 45  1  0
 48 46  1  0
 48 49  1  0
 48 47  1  0
 50  5  1  0
 51 64  1  0
 52 57  1  0
 53 54  1  0
 53 52  1  0
 55 54  1  0
 55 68  1  0
 55 56  1  0
 57 51  1  0
 57 56  1  0
 58 51  2  0
 59 63  1  0
 61 59  1  0
 61 64  1  0
 62 60  1  0
 63 50  1  0
 63 60  1  0
 64 62  1  0
 65 66  2  0
 66 85  1  0
 67 66  1  0
 67 70  1  0
 68 69  1  0
 68 65  1  0
 69 67  2  0
 70 71  1  0
 71 72  2  0
 73 76  1  0
 73 72  1  0
 74 73  2  0
 75 74  1  0
 75 70  2  0
 76 77  1  0
 77 78  1  0
 78 79  2  0
 80 79  1  0
 80 84  1  0
 81 80  2  0
 82 77  2  0
 82 81  1  0
 83 82  1  0
 85 86  1  0
 86 89  1  0
 86 88  1  0
 87 85  2  0
 90 91  1  0
 90 65  1  0
 92 90  1  0
 93 95  1  0
 95 50  1  0
 95 94  1  0
M  ISO  4   8 101   9 101  51 100  64 100
M  END
>  <TORSDO>  (50) 
F 19

>  <SCORE>  (50) 
-14.651

>  <name>  (50) 
49

>  <ligand_id>  (50) 
49

>  <original_smiles>  (50) 
[H]c1c([H])c([H])c2c(c1[H])C([H])([H])C([H])([H])C([H])([H])C2([H])N([H])C(=O)C1([H])N(C(=O)C([H])(N([H])C(=O)C([H])(N([H])C([H])([H])[H])C([H])([H])[H])C(C([H])([H])[H])(C([H])([H])[H])C([H])([H])[H])C([H])([H])c2c([H])c(OC([H])([H])c3c([H])c([H])c(N(C([H])(C([H])([H])[H])C([H])([H])[H])C4([H])C([H])([H])C([H])([H])N(C(=O)N5C([H])([H])C([H])([H])C([H])([H])C([H])(n6nc(-c7c([H])c([H])c(Oc8c([H])c([H])c(F)c([H])c8F)c([H])c7[H])c(C(=O)N([H])[H])c6N([H])[H])C5([H])[H])C([H])([H])C4([H])[H])c(F)c3[H])c([H])c([H])c2C1([H])[H]

>  <smiles>  (50) 
[H]c1c([H])c([H])c2c(c1[H])C([H])([H])C([H])([H])C([H])([H])C2([H])N([H])C(=O)C1([H])N(C(=O)C([H])(N([H])C(=O)C([H])(N([H])C([H])([H])[H])C([H])([H])[H])C(C([H])([H])[H])(C([H])([H])[H])C([H])([H])[H])C([H])([H])c2c([H])c(OC([H])([H])c3c([H])c([H])c(N(C([H])(C([H])([H])[H])C([H])([H])[H])C4([H])C([H])([H])C([H])([H])N(C(=O)N5C([H])([H])C([H])([H])C([H])([H])C([H])(n6nc(-c7c([H])c([H])c(Oc8c([H])c([H])c(F)c([H])c8F)c([H])c7[H])c(C(=O)N([H])[H])c6N([H])[H])C5([H])[H])C([H])([H])C4([H])[H])c(F)c3[H])c([H])c([H])c2C1([H])[H]

$$$$
50:0:0
     RDKit          3D

 94102  0  0  1  0  0  0  0  0999 V2000
  -28.8700  -20.6470   22.2000 C   0  0  0  0  0  3  0  0  0  0  0  0
  -30.6070  -21.1200   20.5600 C   0  0  0  0  0  3  0  0  0  0  0  0
  -28.8900  -21.9980   22.6070 C   0  0  0  0  0  3  0  0  0  0  0  0
  -30.6330  -22.4660   20.9750 C   0  0  0  0  0  3  0  0  0  0  0  0
  -29.7460  -20.1930   21.1900 C   0  0  0  0  0  0  0  0  0  0  0  0
  -29.7860  -22.9120   22.0090 C   0  0  0  0  0  0  0  0  0  0  0  0
  -30.1030  -24.2650   23.9190 C   0  0  0  0  0  1  0  0  0  0  0  0
  -29.9270  -24.2300   22.4700 N   0  0  0  0  0  0  0  0  0  0  0  0
  -28.9940  -25.2310   21.9510 C   0  0  0  0  0  2  0  0  0  0  0  0
  -28.9540  -25.3730   20.4140 C   0  0  0  0  0  2  0  0  0  0  0  0
  -28.5250  -26.7960   20.0000 C   0  0  0  0  0  2  0  0  0  0  0  0
  -27.5370  -26.7870   18.9640 O   0  0  0  0  0  0  0  0  0  0  0  0
  -24.4040  -31.7410   23.0170 C   0  0  0  0  0  0  0  0  0  0  0  0
  -26.4480  -27.6030   19.1800 C   0  0  0  0  0  0  0  0  0  0  0  0
  -22.9360  -30.5690   21.4030 C   0  0  0  0  0  3  0  0  0  0  0  0
  -24.1290  -29.1520   19.6480 C   0  0  0  0  0  0  0  0  0  0  0  0
  -25.4250  -30.8750   20.9180 C   0  0  0  0  0  2  0  0  0  0  0  0
  -25.3680  -29.5830   20.1340 C   0  0  0  0  0  0  0  0  0  0  0  0
  -26.5290  -28.8200   19.8990 C   0  0  0  0  0  3  0  0  0  0  0  0
  -25.1970  -27.1930   18.6750 C   0  0  0  0  0  3  0  0  0  0  0  0
  -24.0360  -27.9550   18.9110 C   0  0  0  0  0  3  0  0  0  0  0  0
  -22.9360  -30.0320   19.9450 C   0  0  0  0  0  2  0  0  0  0  0  0
  -24.2800  -31.0690   21.8380 N   0  0  0  0  0  0  0  0  0  0  0  0
  -23.4130  -31.9880   23.7180 O   0  0  0  0  0  0  0  0  0  0  0  0
  -22.3600  -29.4750   22.3290 C   0  0  0  0  0  0  0  0  0  0  0  0
  -21.0310  -29.2900   22.2770 N   0  0  0  0  0  0  0  0  0  0  0  0
  -23.1010  -28.7990   23.0470 O   0  0  0  0  0  0  0  0  0  0  0  0
  -20.4930  -29.8940   21.6700 H   0  0  0  0  0  0  0  0  0  0  0  0
  -17.7180  -27.9500   22.8140 C   0  0  0  0  0  0  0  0  0  0  0  0
  -20.2720  -28.2890   23.0260 C   0  0  0  0  0  3  0  0  0  0  0  0
  -20.4080  -26.8900   22.3810 C   0  0  0  0  0  2  0  0  0  0  0  0
  -19.2880  -26.5720   21.3850 C   0  0  0  0  0  2  0  0  0  0  0  0
  -17.9220  -26.6390   22.0740 C   0  0  0  0  0  2  0  0  0  0  0  0
  -18.8220  -28.7320   23.2470 C   0  0  0  0  0  0  0  0  0  0  0  0
  -18.5790  -29.9580   23.9030 C   0  0  0  0  0  3  0  0  0  0  0  0
  -17.2650  -30.4090   24.1230 C   0  0  0  0  0  3  0  0  0  0  0  0
  -16.1750  -29.6230   23.7080 C   0  0  0  0  0  3  0  0  0  0  0  0
  -16.4020  -28.3940   23.0620 C   0  0  0  0  0  3  0  0  0  0  0  0
  -25.7880  -32.2500   23.5290 C   0  0  0  0  0  3  0  0  0  0  0  0
  -25.5990  -33.6180   24.0270 N   0  0  0  0  0  0  0  0  0  0  0  0
  -25.9390  -34.7250   23.3540 C   0  0  0  0  0  0  0  0  0  0  0  0
  -26.5150  -34.6960   22.2640 O   0  0  0  0  0  0  0  0  0  0  0  0
  -25.0870  -33.7200   24.8910 H   0  0  0  0  0  0  0  0  0  0  0  0
  -24.3220  -36.6470   23.3140 C   0  0  0  0  0  1  0  0  0  0  0  0
  -25.5810  -36.0810   23.9890 C   0  0  0  0  0  3  0  0  0  0  0  0
  -27.8190  -36.7330   24.7630 C   0  0  0  0  0  1  0  0  0  0  0  0
  -26.6770  -37.0720   23.9170 N   0  0  0  0  0  0  0  0  0  0  0  0
  -26.3480  -37.9950   24.1890 H   0  0  0  0  0  0  0  0  0  0  0  0
  -26.4170  -31.3290   24.6460 C   0  0  1  0  0  0  0  0  0  0  0  0
  -25.4510  -31.0190   25.8140 C   0  0  0  0  0  1  0  0  0  0  0  0
  -26.8730  -29.9810   24.0420 C   0  0  0  0  0  1  0  0  0  0  0  0
  -27.6790  -32.0050   25.2340 C   0  0  0  0  0  1  0  0  0  0  0  0
  -29.7690  -18.7210   20.7660 C   0  0  0  0  0  2  0  0  0  0  0  0
  -31.6590  -18.4540   22.4060 C   0  0  0  0  0  1  0  0  0  0  0  0
  -30.5570  -17.8030   21.6490 N   0  0  2  0  0  4  0  0  0  0  0  0
  -29.9190  -17.4790   22.3620 H   0  0  0  0  0  0  0  0  0  0  0  0
  -31.0490  -16.5980   20.9180 C   0  0  0  0  0  2  0  0  0  0  0  0
  -30.0090  -15.4530   20.7980 C   0  0  0  0  0  2  0  0  0  0  0  0
  -30.4150  -14.3660   19.7800 C   0  0  0  0  0  0  0  0  0  0  0  0
  -30.0550  -12.1570   18.7290 C   0  0  0  0  0  2  0  0  0  0  0  0
  -28.9800  -12.2220   17.6290 C   0  0  0  0  0  2  0  0  0  0  0  0
  -27.5790  -12.0200   18.2350 C   0  0  0  0  0  2  0  0  0  0  0  0
  -27.3250  -12.9400   19.4570 C   0  0  0  0  0  3  0  0  0  0  0  0
  -28.5000  -12.8780   20.4580 C   0  0  0  0  0  2  0  0  0  0  0  0
  -29.7450  -13.1840   19.7350 N   0  0  0  0  0  0  0  0  0  0  0  0
  -31.3480  -14.6080   19.0080 O   0  0  0  0  0  0  0  0  0  0  0  0
  -25.0390  -13.4900   20.5080 C   0  0  0  0  0  0  0  0  0  0  0  0
  -24.0350  -12.6910   20.9840 C   0  0  0  0  0  0  0  0  0  0  0  0
  -24.4950  -11.3470   20.8320 C   0  0  0  0  0  0  0  0  0  0  0  0
  -26.0480  -12.6320   20.0990 N   0  0  0  0  0  0  0  0  0  0  0  0
  -25.7320  -11.3360   20.3480 N   0  0  0  0  0  0  0  0  0  0  0  0
  -23.8080  -10.0690   21.0630 C   0  0  0  0  0  0  0  0  0  0  0  0
  -24.2830   -9.1370   22.0130 C   0  0  0  0  0  3  0  0  0  0  0  0
  -23.5970   -7.9230   22.2290 C   0  0  0  0  0  3  0  0  0  0  0  0
  -22.4230   -7.6310   21.4960 C   0  0  0  0  0  0  0  0  0  0  0  0
  -21.9680   -8.5520   20.5350 C   0  0  0  0  0  3  0  0  0  0  0  0
  -22.6550   -9.7580   20.3180 C   0  0  0  0  0  3  0  0  0  0  0  0
  -21.7040   -6.4660   21.6210 O   0  0  0  0  0  0  0  0  0  0  0  0
  -21.5830   -5.8210   22.8250 C   0  0  0  0  0  0  0  0  0  0  0  0
  -20.9860   -6.4400   23.9460 C   0  0  0  0  0  3  0  0  0  0  0  0
  -20.8180   -5.7160   25.1430 C   0  0  0  0  0  3  0  0  0  0  0  0
  -21.2380   -4.3750   25.2210 C   0  0  0  0  0  0  0  0  0  0  0  0
  -21.8280   -3.7560   24.1040 C   0  0  0  0  0  3  0  0  0  0  0  0
  -21.9980   -4.4770   22.9110 C   0  0  0  0  0  0  0  0  0  0  0  0
  -22.5470   -3.8690   21.8320 F   0  0  0  0  0  0  0  0  0  0  0  0
  -21.0710   -3.6780   26.3690 F   0  0  0  0  0  0  0  0  0  0  0  0
  -22.6860  -13.1390   21.4670 C   0  0  0  0  0  0  0  0  0  0  0  0
  -22.0850  -12.3970   22.3910 N   0  0  0  0  0  0  0  0  0  0  0  0
  -22.1750  -14.1820   21.0600 O   0  0  0  0  0  0  0  0  0  0  0  0
  -22.5110  -11.5510   22.7400 H   0  0  0  0  0  0  0  0  0  0  0  0
  -21.1880  -12.6810   22.7580 H   0  0  0  0  0  0  0  0  0  0  0  0
  -25.1720  -14.8690   20.3710 N   0  0  0  0  0  0  0  0  0  0  0  0
  -24.4230  -15.5120   20.6070 H   0  0  0  0  0  0  0  0  0  0  0  0
  -25.9720  -15.3280   19.9540 H   0  0  0  0  0  0  0  0  0  0  0  0
  1  3  1  0
  2  4  2  0
  2  5  1  0
  4  6  1  0
  5  1  2  0
  6  8  1  0
  6  3  2  0
  8  7  1  0
  9  8  1  0
 10  9  1  0
 11 10  1  0
 12 14  1  0
 12 11  1  0
 13 24  2  0
 14 19  1  0
 15 23  1  0
 15 25  1  0
 16 22  1  0
 16 18  1  0
 17 23  1  0
 18 17  1  0
 19 18  2  0
 20 21  1  0
 20 14  2  0
 21 16  2  0
 22 15  1  0
 23 13  1  0
 25 27  2  0
 26 25  1  0
 28 26  1  0
 29 38  2  0
 29 34  1  0
 30 26  1  0
 30 34  1  0
 31 30  1  0
 32 33  1  0
 32 31  1  0
 33 29  1  0
 34 35  2  0
 35 36  1  0
 37 36  2  0
 38 37  1  0
 39 13  1  0
 39 40  1  0
 39 49  1  0
 40 43  1  0
 41 45  1  0
 41 40  1  0
 42 41  2  0
 45 44  1  0
 47 45  1  0
 47 48  1  0
 47 46  1  0
 49 52  1  1
 49 50  1  0
 51 49  1  0
 53  5  1  0
 53 55  1  0
 55 56  1  1
 55 54  1  0
 57 55  1  0
 58 57  1  0
 59 58  1  0
 60 65  1  0
 61 62  1  0
 61 60  1  0
 63 62  1  0
 63 70  1  0
 63 64  1  0
 65 59  1  0
 65 64  1  0
 66 59  2  0
 67 68  2  0
 68 87  1  0
 69 68  1  0
 69 72  1  0
 70 71  1  0
 70 67  1  0
 71 69  2  0
 72 73  1  0
 73 74  2  0
 75 78  1  0
 75 74  1  0
 76 75  2  0
 77 76  1  0
 77 72  2  0
 78 79  1  0
 79 84  2  0
 79 80  1  0
 80 81  2  0
 81 82  1  0
 82 86  1  0
 83 82  2  0
 84 83  1  0
 85 84  1  0
 87 88  1  0
 88 90  1  0
 88 91  1  0
 89 87  2  0
 92 67  1  0
 92 93  1  0
 94 92  1  0
M  ISO  4  11 101  12 101  58 100  59 100
M  END
>  <TORSDO>  (51) 
F 24

>  <SCORE>  (51) 
-9.198

>  <name>  (51) 
50

>  <ligand_id>  (51) 
50

>  <original_smiles>  (51) 
[H]c1c([H])c([H])c2c(c1[H])C([H])([H])C([H])([H])C([H])([H])C2([H])N([H])C(=O)C1([H])N(C(=O)C([H])(N([H])C(=O)C([H])(N([H])C([H])([H])[H])C([H])([H])[H])C(C([H])([H])[H])(C([H])([H])[H])C([H])([H])[H])C([H])([H])c2c([H])c(OC([H])([H])C([H])([H])C([H])([H])N(c3c([H])c([H])c(C([H])([H])[N+]([H])(C([H])([H])[H])C([H])([H])C([H])([H])C(=O)N4C([H])([H])C([H])([H])C([H])([H])C([H])(n5nc(-c6c([H])c([H])c(Oc7c([H])c([H])c(F)c([H])c7F)c([H])c6[H])c(C(=O)N([H])[H])c5N([H])[H])C4([H])[H])c([H])c3[H])C([H])([H])[H])c([H])c([H])c2C1([H])[H]

>  <smiles>  (51) 
[H]c1c([H])c([H])c2c(c1[H])C([H])([H])C([H])([H])C([H])([H])C2([H])N([H])C(=O)C1([H])N(C(=O)C([H])(N([H])C(=O)C([H])(N([H])C([H])([H])[H])C([H])([H])[H])C(C([H])([H])[H])(C([H])([H])[H])C([H])([H])[H])C([H])([H])c2c([H])c(OC([H])([H])C([H])([H])C([H])([H])N(c3c([H])c([H])c(C([H])([H])[N+]([H])(C([H])([H])[H])C([H])([H])C([H])([H])C(=O)N4C([H])([H])C([H])([H])C([H])([H])C([H])(n5nc(-c6c([H])c([H])c(Oc7c([H])c([H])c(F)c([H])c7F)c([H])c6[H])c(C(=O)N([H])[H])c5N([H])[H])C4([H])[H])c([H])c3[H])C([H])([H])[H])c([H])c([H])c2C1([H])[H]

$$$$
51:0:0
     RDKit          3D

 92100  0  0  1  0  0  0  0  0999 V2000
  -28.1500  -23.1600   20.8490 C   0  0  0  0  0  3  0  0  0  0  0  0
  -28.5300  -21.8100   21.1590 C   0  0  0  0  0  3  0  0  0  0  0  0
  -29.5780  -23.0900   18.9280 C   0  0  0  0  0  3  0  0  0  0  0  0
  -28.6970  -23.8590   19.7370 C   0  0  0  0  0  0  0  0  0  0  0  0
  -29.4670  -21.0660   20.3800 C   0  0  0  0  0  0  0  0  0  0  0  0
  -29.9540  -21.7480   19.2310 C   0  0  0  0  0  0  0  0  0  0  0  0
  -30.8320  -21.1290   18.4100 F   0  0  0  0  0  0  0  0  0  0  0  0
  -30.7170  -19.9400   22.1000 C   0  0  0  0  0  1  0  0  0  0  0  0
  -30.0310  -19.8010   20.8120 N   0  0  0  0  0  0  0  0  0  0  0  0
  -28.8300  -18.3240   19.1410 C   0  0  0  0  0  1  0  0  0  0  0  0
  -29.5240  -18.4170   20.5060 C   0  0  0  0  0  3  0  0  0  0  0  0
  -30.6180  -17.2530   20.6170 C   0  0  0  0  0  2  0  0  0  0  0  0
  -30.8720  -14.7280   20.1980 C   0  0  0  0  0  0  0  0  0  0  0  0
  -30.5850  -12.4930   19.1490 C   0  0  0  0  0  2  0  0  0  0  0  0
  -29.6110  -12.6380   17.9620 C   0  0  0  0  0  2  0  0  0  0  0  0
  -28.1570  -12.4690   18.4450 C   0  0  0  0  0  2  0  0  0  0  0  0
  -27.8390  -13.3520   19.6810 C   0  0  0  0  0  3  0  0  0  0  0  0
  -28.9270  -13.2010   20.7640 C   0  0  0  0  0  2  0  0  0  0  0  0
  -30.2190  -13.5250   20.1420 N   0  0  0  0  0  0  0  0  0  0  0  0
  -32.0160  -14.8560   19.7590 O   0  0  0  0  0  0  0  0  0  0  0  0
  -30.1500  -15.8220   20.5870 N   0  0  0  0  0  0  0  0  0  0  0  0
  -29.2220  -15.6440   20.9360 H   0  0  0  0  0  0  0  0  0  0  0  0
  -25.4820  -13.9660   20.4970 C   0  0  0  0  0  0  0  0  0  0  0  0
  -24.4210  -13.1950   20.8940 C   0  0  0  0  0  0  0  0  0  0  0  0
  -24.8650  -11.8390   20.8170 C   0  0  0  0  0  0  0  0  0  0  0  0
  -26.5050  -13.0760   20.2060 N   0  0  0  0  0  0  0  0  0  0  0  0
  -26.1420  -11.7930   20.4570 N   0  0  0  0  0  0  0  0  0  0  0  0
  -24.1290  -10.5820   21.0040 C   0  0  0  0  0  0  0  0  0  0  0  0
  -24.5600   -9.6050   21.9290 C   0  0  0  0  0  3  0  0  0  0  0  0
  -23.8260   -8.4120   22.1010 C   0  0  0  0  0  3  0  0  0  0  0  0
  -22.6480   -8.1880   21.3480 C   0  0  0  0  0  0  0  0  0  0  0  0
  -22.2360   -9.1530   20.4120 C   0  0  0  0  0  3  0  0  0  0  0  0
  -22.9700  -10.3400   20.2380 C   0  0  0  0  0  3  0  0  0  0  0  0
  -21.8850   -7.0490   21.4340 O   0  0  0  0  0  0  0  0  0  0  0  0
  -21.8050   -6.3220   22.5950 C   0  0  0  0  0  0  0  0  0  0  0  0
  -21.3100   -6.8830   23.7930 C   0  0  0  0  0  3  0  0  0  0  0  0
  -21.1800   -6.0820   24.9440 C   0  0  0  0  0  3  0  0  0  0  0  0
  -21.5340   -4.7200   24.8990 C   0  0  0  0  0  0  0  0  0  0  0  0
  -22.0210   -4.1570   23.7050 C   0  0  0  0  0  3  0  0  0  0  0  0
  -22.1530   -4.9560   22.5570 C   0  0  0  0  0  0  0  0  0  0  0  0
  -22.6030   -4.4040   21.4040 F   0  0  0  0  0  0  0  0  0  0  0  0
  -21.4010   -3.9480   26.0030 F   0  0  0  0  0  0  0  0  0  0  0  0
  -23.0400  -13.6820   21.2300 C   0  0  0  0  0  0  0  0  0  0  0  0
  -22.3400  -12.9740   22.1100 N   0  0  0  0  0  0  0  0  0  0  0  0
  -22.5930  -14.7230   20.7510 O   0  0  0  0  0  0  0  0  0  0  0  0
  -22.7150  -12.1300   22.5160 H   0  0  0  0  0  0  0  0  0  0  0  0
  -21.4170  -13.2800   22.3860 H   0  0  0  0  0  0  0  0  0  0  0  0
  -25.6540  -15.3370   20.3320 N   0  0  0  0  0  0  0  0  0  0  0  0
  -24.8770  -15.9870   20.4090 H   0  0  0  0  0  0  0  0  0  0  0  0
  -26.4750  -15.7550   19.9150 H   0  0  0  0  0  0  0  0  0  0  0  0
  -28.2840  -25.3120   19.2530 C   0  0  0  0  0  2  0  0  0  0  0  0
  -28.1580  -26.4890   20.1530 O   0  0  0  0  0  0  0  0  0  0  0  0
  -24.5670  -31.9730   23.2090 C   0  0  0  0  0  0  0  0  0  0  0  0
  -27.0450  -27.3540   20.1010 C   0  0  0  0  0  0  0  0  0  0  0  0
  -23.3050  -30.5730   21.6170 C   0  0  0  0  0  3  0  0  0  0  0  0
  -24.6990  -29.0050   20.1540 C   0  0  0  0  0  0  0  0  0  0  0  0
  -25.8440  -30.8590   21.3630 C   0  0  0  0  0  2  0  0  0  0  0  0
  -25.8890  -29.4780   20.7190 C   0  0  0  0  0  0  0  0  0  0  0  0
  -27.0630  -28.6620   20.6840 C   0  0  0  0  0  3  0  0  0  0  0  0
  -25.8180  -26.9320   19.5380 C   0  0  0  0  0  3  0  0  0  0  0  0
  -24.6670  -27.7390   19.5560 C   0  0  0  0  0  3  0  0  0  0  0  0
  -23.4720  -29.8930   20.2350 C   0  0  0  0  0  2  0  0  0  0  0  0
  -24.5920  -31.1550   22.1160 N   0  0  0  0  0  0  0  0  0  0  0  0
  -23.5020  -32.2630   23.7740 O   0  0  0  0  0  0  0  0  0  0  0  0
  -22.6640  -29.5670   22.6030 C   0  0  0  0  0  0  0  0  0  0  0  0
  -21.3460  -29.3420   22.4700 N   0  0  0  0  0  0  0  0  0  0  0  0
  -23.3540  -28.9900   23.4490 O   0  0  0  0  0  0  0  0  0  0  0  0
  -20.8480  -29.8720   21.7690 H   0  0  0  0  0  0  0  0  0  0  0  0
  -18.0260  -27.9690   22.8950 C   0  0  0  0  0  0  0  0  0  0  0  0
  -20.5520  -28.3910   23.2520 C   0  0  0  0  0  3  0  0  0  0  0  0
  -20.7640  -26.9440   22.7460 C   0  0  0  0  0  2  0  0  0  0  0  0
  -19.7210  -26.5000   21.7170 C   0  0  0  0  0  2  0  0  0  0  0  0
  -18.3040  -26.5990   22.2970 C   0  0  0  0  0  2  0  0  0  0  0  0
  -19.0820  -28.8160   23.3270 C   0  0  0  0  0  0  0  0  0  0  0  0
  -18.7700  -30.0960   23.8360 C   0  0  0  0  0  3  0  0  0  0  0  0
  -17.4340  -30.5320   23.9200 C   0  0  0  0  0  3  0  0  0  0  0  0
  -16.3930  -29.6840   23.5070 C   0  0  0  0  0  3  0  0  0  0  0  0
  -16.6880  -28.4040   23.0010 C   0  0  0  0  0  3  0  0  0  0  0  0
  -25.8730  -32.5990   23.7870 C   0  0  0  0  0  3  0  0  0  0  0  0
  -26.4310  -31.8200   25.0410 C   0  0  1  0  0  0  0  0  0  0  0  0
  -25.3680  -31.5700   26.1360 C   0  0  0  0  0  1  0  0  0  0  0  0
  -27.0110  -30.4480   24.6250 C   0  0  0  0  0  1  0  0  0  0  0  0
  -27.5950  -32.6160   25.6760 C   0  0  0  0  0  1  0  0  0  0  0  0
  -25.5730  -33.9950   24.1400 N   0  0  0  0  0  0  0  0  0  0  0  0
  -25.8880  -35.0550   23.3850 C   0  0  0  0  0  0  0  0  0  0  0  0
  -26.5310  -34.9630   22.3360 O   0  0  0  0  0  0  0  0  0  0  0  0
  -24.9960  -34.1400   24.9540 H   0  0  0  0  0  0  0  0  0  0  0  0
  -24.1720  -36.8710   23.0750 C   0  0  0  0  0  1  0  0  0  0  0  0
  -25.4150  -36.4390   23.8700 C   0  0  0  0  0  3  0  0  0  0  0  0
  -27.5540  -37.3000   24.7130 C   0  0  0  0  0  1  0  0  0  0  0  0
  -26.4560  -37.4850   23.7700 N   0  0  0  0  0  0  0  0  0  0  0  0
  -26.0570  -38.4080   23.9240 H   0  0  0  0  0  0  0  0  0  0  0  0
  1  2  1  0
  3  6  2  0
  3  4  1  0
  4  1  2  0
  5  9  1  0
  5  2  2  0
  6  5  1  0
  7  6  1  0
  9  8  1  0
 11 10  1  0
 11 12  1  0
 11  9  1  0
 13 21  1  0
 14 19  1  0
 15 16  1  0
 15 14  1  0
 17 16  1  0
 17 26  1  0
 17 18  1  0
 19 13  1  0
 19 18  1  0
 20 13  2  0
 21 12  1  0
 21 22  1  0
 23 24  2  0
 24 43  1  0
 25 24  1  0
 25 28  1  0
 26 27  1  0
 26 23  1  0
 27 25  2  0
 28 29  1  0
 29 30  2  0
 31 34  1  0
 31 30  1  0
 32 31  2  0
 33 32  1  0
 33 28  2  0
 34 35  1  0
 35 36  1  0
 36 37  2  0
 38 37  1  0
 38 42  1  0
 39 38  2  0
 40 35  2  0
 40 39  1  0
 41 40  1  0
 43 44  1  0
 44 47  1  0
 44 46  1  0
 45 43  2  0
 48 49  1  0
 48 23  1  0
 50 48  1  0
 51  4  1  0
 51 52  1  0
 53 64  2  0
 54 52  1  0
 54 59  1  0
 55 63  1  0
 55 65  1  0
 56 62  1  0
 56 58  1  0
 57 63  1  0
 58 57  1  0
 59 58  2  0
 60 61  1  0
 60 54  2  0
 61 56  2  0
 62 55  1  0
 63 53  1  0
 65 67  2  0
 66 65  1  0
 68 66  1  0
 69 78  2  0
 69 74  1  0
 70 66  1  0
 70 74  1  0
 71 70  1  0
 72 73  1  0
 72 71  1  0
 73 69  1  0
 74 75  2  0
 75 76  1  0
 77 76  2  0
 78 77  1  0
 79 53  1  0
 79 84  1  0
 79 80  1  0
 80 83  1  1
 80 81  1  0
 82 80  1  0
 84 87  1  0
 85 89  1  0
 85 84  1  0
 86 85  2  0
 89 88  1  0
 91 89  1  0
 91 92  1  0
 91 90  1  0
M  ISO  4  13 100  21 100  51 101  52 101
M  END
>  <TORSDO>  (52) 
F 20

>  <SCORE>  (52) 
-13.822

>  <name>  (52) 
51

>  <ligand_id>  (52) 
51

>  <original_smiles>  (52) 
[H]c1c([H])c([H])c2c(c1[H])C([H])([H])C([H])([H])C([H])([H])C2([H])N([H])C(=O)C1([H])N(C(=O)C([H])(N([H])C(=O)C([H])(N([H])C([H])([H])[H])C([H])([H])[H])C(C([H])([H])[H])(C([H])([H])[H])C([H])([H])[H])C([H])([H])c2c([H])c(OC([H])([H])c3c([H])c([H])c(N(C([H])([H])[H])C([H])(C([H])([H])[H])C([H])([H])N([H])C(=O)N4C([H])([H])C([H])([H])C([H])([H])C([H])(n5nc(-c6c([H])c([H])c(Oc7c([H])c([H])c(F)c([H])c7F)c([H])c6[H])c(C(=O)N([H])[H])c5N([H])[H])C4([H])[H])c(F)c3[H])c([H])c([H])c2C1([H])[H]

>  <smiles>  (52) 
[H]c1c([H])c([H])c2c(c1[H])C([H])([H])C([H])([H])C([H])([H])C2([H])N([H])C(=O)C1([H])N(C(=O)C([H])(N([H])C(=O)C([H])(N([H])C([H])([H])[H])C([H])([H])[H])C(C([H])([H])[H])(C([H])([H])[H])C([H])([H])[H])C([H])([H])c2c([H])c(OC([H])([H])c3c([H])c([H])c(N(C([H])([H])[H])C([H])(C([H])([H])[H])C([H])([H])N([H])C(=O)N4C([H])([H])C([H])([H])C([H])([H])C([H])(n5nc(-c6c([H])c([H])c(Oc7c([H])c([H])c(F)c([H])c7F)c([H])c6[H])c(C(=O)N([H])[H])c5N([H])[H])C4([H])[H])c(F)c3[H])c([H])c([H])c2C1([H])[H]

$$$$
52:0:0
     RDKit          3D

 91 99  0  0  1  0  0  0  0  0999 V2000
  -30.3850  -18.1940   21.1560 C   0  0  0  0  0  3  0  0  0  0  0  0
  -30.0990  -19.5700   20.9030 C   0  0  0  0  0  3  0  0  0  0  0  0
  -30.4650  -19.1720   18.5780 C   0  0  0  0  0  3  0  0  0  0  0  0
  -30.6480  -17.2230   20.1340 C   0  0  0  0  0  0  0  0  0  0  0  0
  -30.1420  -20.1130   19.6000 C   0  0  0  0  0  0  0  0  0  0  0  0
  -30.6780  -17.7770   18.8180 C   0  0  0  0  0  0  0  0  0  0  0  0
  -30.9060  -16.9740   17.7500 F   0  0  0  0  0  0  0  0  0  0  0  0
  -31.2750  -14.8120   19.5430 C   0  0  0  0  0  0  0  0  0  0  0  0
  -30.8560  -12.6630   18.3230 C   0  0  0  0  0  2  0  0  0  0  0  0
  -29.7450  -12.8540   17.2690 C   0  0  0  0  0  2  0  0  0  0  0  0
  -28.3430  -12.6610   17.8860 C   0  0  0  0  0  2  0  0  0  0  0  0
  -28.1770  -13.4290   19.2230 C   0  0  0  0  0  3  0  0  0  0  0  0
  -29.3870  -13.1880   20.1460 C   0  0  0  0  0  2  0  0  0  0  0  0
  -30.6000  -13.6120   19.4300 N   0  0  0  0  0  0  0  0  0  0  0  0
  -32.2780  -15.0190   18.8500 O   0  0  0  0  0  0  0  0  0  0  0  0
  -30.8380  -15.7720   20.4450 N   0  0  0  0  0  0  0  0  0  0  0  0
  -25.9480  -13.9600   20.3870 C   0  0  0  0  0  0  0  0  0  0  0  0
  -24.9310  -13.1600   20.8360 C   0  0  0  0  0  0  0  0  0  0  0  0
  -25.3400  -11.8170   20.5730 C   0  0  0  0  0  0  0  0  0  0  0  0
  -26.9140  -13.1030   19.8840 N   0  0  0  0  0  0  0  0  0  0  0  0
  -26.5620  -11.8010   20.0520 N   0  0  0  0  0  0  0  0  0  0  0  0
  -24.6110  -10.5520   20.7340 C   0  0  0  0  0  0  0  0  0  0  0  0
  -25.0510   -9.5530   21.6310 C   0  0  0  0  0  3  0  0  0  0  0  0
  -24.3220   -8.3530   21.7820 C   0  0  0  0  0  3  0  0  0  0  0  0
  -23.1370   -8.1450   21.0360 C   0  0  0  0  0  0  0  0  0  0  0  0
  -22.7150   -9.1320   20.1270 C   0  0  0  0  0  3  0  0  0  0  0  0
  -23.4440  -10.3240   19.9750 C   0  0  0  0  0  3  0  0  0  0  0  0
  -22.3750   -7.0030   21.0980 O   0  0  0  0  0  0  0  0  0  0  0  0
  -22.1730   -6.3380   22.2810 C   0  0  0  0  0  0  0  0  0  0  0  0
  -21.5650   -6.9620   23.3930 C   0  0  0  0  0  3  0  0  0  0  0  0
  -21.3110   -6.2210   24.5640 C   0  0  0  0  0  3  0  0  0  0  0  0
  -21.6580   -4.8560   24.6240 C   0  0  0  0  0  0  0  0  0  0  0  0
  -22.2600   -4.2340   23.5170 C   0  0  0  0  0  3  0  0  0  0  0  0
  -22.5140   -4.9720   22.3480 C   0  0  0  0  0  0  0  0  0  0  0  0
  -23.0740   -4.3630   21.2760 F   0  0  0  0  0  0  0  0  0  0  0  0
  -21.4080   -4.1420   25.7450 F   0  0  0  0  0  0  0  0  0  0  0  0
  -23.6140  -13.6220   21.3880 C   0  0  0  0  0  0  0  0  0  0  0  0
  -23.0250  -12.8520   22.2990 N   0  0  0  0  0  0  0  0  0  0  0  0
  -23.1170  -14.6950   21.0490 O   0  0  0  0  0  0  0  0  0  0  0  0
  -23.4400  -11.9830   22.6000 H   0  0  0  0  0  0  0  0  0  0  0  0
  -22.1470  -13.1410   22.7060 H   0  0  0  0  0  0  0  0  0  0  0  0
  -26.1160  -15.3400   20.3460 N   0  0  0  0  0  0  0  0  0  0  0  0
  -25.3880  -15.9740   20.6610 H   0  0  0  0  0  0  0  0  0  0  0  0
  -26.9190  -15.8160   19.9550 H   0  0  0  0  0  0  0  0  0  0  0  0
  -29.9200  -15.6730   22.8510 C   0  0  0  0  0  1  0  0  0  0  0  0
  -31.0880  -15.4100   21.8660 C   0  0  0  0  0  2  0  0  0  0  0  0
  -29.9550  -21.4780   19.2700 O   0  0  0  0  0  0  0  0  0  0  0  0
  -29.2180  -22.4440   20.1040 C   0  0  0  0  0  3  0  0  0  0  0  0
  -29.3160  -23.9800   19.6360 C   0  0  0  0  0  3  0  0  0  0  0  0
  -28.4120  -25.0940   20.3430 C   0  0  0  0  0  2  0  0  0  0  0  0
  -28.6160  -26.5360   20.0140 O   0  0  0  0  0  0  0  0  0  0  0  0
  -24.6380  -31.6870   23.1490 C   0  0  0  0  0  0  0  0  0  0  0  0
  -27.4910  -27.3730   19.9760 C   0  0  0  0  0  0  0  0  0  0  0  0
  -23.5450  -30.3710   21.3660 C   0  0  0  0  0  3  0  0  0  0  0  0
  -25.0990  -28.9420   19.9180 C   0  0  0  0  0  0  0  0  0  0  0  0
  -26.0780  -30.7530   21.3270 C   0  0  0  0  0  2  0  0  0  0  0  0
  -26.2220  -29.4150   20.6100 C   0  0  0  0  0  0  0  0  0  0  0  0
  -27.4230  -28.6430   20.6300 C   0  0  0  0  0  3  0  0  0  0  0  0
  -26.3530  -26.9610   19.2490 C   0  0  0  0  0  3  0  0  0  0  0  0
  -25.1700  -27.7260   19.2220 C   0  0  0  0  0  3  0  0  0  0  0  0
  -23.8430  -29.7900   19.9570 C   0  0  0  0  0  2  0  0  0  0  0  0
  -24.7700  -30.9510   22.0060 N   0  0  0  0  0  0  0  0  0  0  0  0
  -23.5250  -31.9060   23.6480 O   0  0  0  0  0  0  0  0  0  0  0  0
  -22.8620  -29.2820   22.2300 C   0  0  0  0  0  0  0  0  0  0  0  0
  -21.5460  -29.0870   22.0320 N   0  0  0  0  0  0  0  0  0  0  0  0
  -23.5170  -28.6180   23.0390 O   0  0  0  0  0  0  0  0  0  0  0  0
  -21.0750  -29.6800   21.3640 H   0  0  0  0  0  0  0  0  0  0  0  0
  -18.1750  -27.8060   22.3130 C   0  0  0  0  0  0  0  0  0  0  0  0
  -20.7140  -28.0870   22.7060 C   0  0  0  0  0  3  0  0  0  0  0  0
  -20.8670  -26.6970   22.0460 C   0  0  0  0  0  2  0  0  0  0  0  0
  -19.8140  -26.4250   20.9670 C   0  0  0  0  0  2  0  0  0  0  0  0
  -18.4040  -26.5070   21.5600 C   0  0  0  0  0  2  0  0  0  0  0  0
  -19.2610  -28.5550   22.8400 C   0  0  0  0  0  0  0  0  0  0  0  0
  -18.9940  -29.7720   23.5030 C   0  0  0  0  0  3  0  0  0  0  0  0
  -17.6760  -30.2400   23.6480 C   0  0  0  0  0  3  0  0  0  0  0  0
  -16.6030  -29.4870   23.1380 C   0  0  0  0  0  3  0  0  0  0  0  0
  -16.8530  -28.2730   22.4750 C   0  0  0  0  0  3  0  0  0  0  0  0
  -25.8750  -32.3060   23.8700 C   0  0  0  0  0  3  0  0  0  0  0  0
  -25.5120  -33.6700   24.2800 N   0  0  0  0  0  0  0  0  0  0  0  0
  -25.8400  -34.7810   23.6070 C   0  0  0  0  0  0  0  0  0  0  0  0
  -26.5500  -34.7660   22.5970 O   0  0  0  0  0  0  0  0  0  0  0  0
  -24.8860  -33.7530   25.0670 H   0  0  0  0  0  0  0  0  0  0  0  0
  -24.0700  -36.5450   23.3140 C   0  0  0  0  0  1  0  0  0  0  0  0
  -25.2970  -36.1230   24.1380 C   0  0  0  0  0  3  0  0  0  0  0  0
  -27.3780  -37.0120   25.0930 C   0  0  0  0  0  1  0  0  0  0  0  0
  -26.2990  -37.2100   24.1280 N   0  0  0  0  0  0  0  0  0  0  0  0
  -25.8600  -38.1050   24.3240 H   0  0  0  0  0  0  0  0  0  0  0  0
  -26.3570  -31.4620   25.1140 C   0  0  1  0  0  0  0  0  0  0  0  0
  -25.2190  -31.0760   26.0850 C   0  0  0  0  0  1  0  0  0  0  0  0
  -27.0470  -30.1570   24.6540 C   0  0  0  0  0  1  0  0  0  0  0  0
  -27.4160  -32.2610   25.9090 C   0  0  0  0  0  1  0  0  0  0  0  0
  2  1  1  0
  3  6  2  0
  3  5  1  0
  4 16  1  0
  4  1  2  0
  5  2  2  0
  6  4  1  0
  7  6  1  0
  8 16  1  0
  9 14  1  0
 10 11  1  0
 10  9  1  0
 12 11  1  0
 12 20  1  0
 12 13  1  0
 14  8  1  0
 14 13  1  0
 15  8  2  0
 16 46  1  0
 17 18  2  0
 18 37  1  0
 19 22  1  0
 19 18  1  0
 20 21  1  0
 20 17  1  0
 21 19  2  0
 22 23  1  0
 23 24  2  0
 25 28  1  0
 25 24  1  0
 26 25  2  0
 27 26  1  0
 27 22  2  0
 28 29  1  0
 29 34  2  0
 29 30  1  0
 30 31  2  0
 31 32  1  0
 32 36  1  0
 33 32  2  0
 34 33  1  0
 35 34  1  0
 37 38  1  0
 38 40  1  0
 38 41  1  0
 39 37  2  0
 42 17  1  0
 42 43  1  0
 44 42  1  0
 46 45  1  0
 47  5  1  0
 47 48  1  0
 49 48  2  0
 49 50  1  0
 51 50  1  0
 52 63  2  0
 53 51  1  0
 53 58  1  0
 54 62  1  0
 54 64  1  0
 55 61  1  0
 55 57  1  0
 56 62  1  0
 57 58  2  0
 57 56  1  0
 59 53  2  0
 60 59  1  0
 60 55  2  0
 61 54  1  0
 62 52  1  0
 64 66  2  0
 65 64  1  0
 67 65  1  0
 68 77  2  0
 68 73  1  0
 69 65  1  0
 69 73  1  0
 70 69  1  0
 71 72  1  0
 71 70  1  0
 72 68  1  0
 73 74  2  0
 74 75  1  0
 76 75  2  0
 77 76  1  0
 78 52  1  0
 78 79  1  0
 78 88  1  0
 79 82  1  0
 80 84  1  0
 80 79  1  0
 81 80  2  0
 84 83  1  0
 86 84  1  0
 86 87  1  0
 86 85  1  0
 88 91  1  1
 88 89  1  0
 90 88  1  0
M  ISO  4   8 100  16 100  50 101  51 101
M  END
>  <TORSDO>  (53) 
F 21

>  <SCORE>  (53) 
-8.631

>  <name>  (53) 
52

>  <ligand_id>  (53) 
52

>  <original_smiles>  (53) 
[H]c1c([H])c([H])c2c(c1[H])C([H])([H])C([H])([H])C([H])([H])C2([H])N([H])C(=O)C1([H])N(C(=O)C([H])(N([H])C(=O)C([H])(N([H])C([H])([H])[H])C([H])([H])[H])C(C([H])([H])[H])(C([H])([H])[H])C([H])([H])[H])C([H])([H])c2c([H])c(OC([H])([H])C([H])([H])C([H])([H])Oc3c([H])c([H])c(N(C(=O)N4C([H])([H])C([H])([H])C([H])([H])C([H])(n5nc(-c6c([H])c([H])c(Oc7c([H])c([H])c(F)c([H])c7F)c([H])c6[H])c(C(=O)N([H])[H])c5N([H])[H])C4([H])[H])C([H])([H])C([H])([H])[H])c(F)c3[H])c([H])c([H])c2C1([H])[H]

>  <smiles>  (53) 
[H]c1c([H])c([H])c2c(c1[H])C([H])([H])C([H])([H])C([H])([H])C2([H])N([H])C(=O)C1([H])N(C(=O)C([H])(N([H])C(=O)C([H])(N([H])C([H])([H])[H])C([H])([H])[H])C(C([H])([H])[H])(C([H])([H])[H])C([H])([H])[H])C([H])([H])c2c([H])c(OC([H])([H])C([H])([H])C([H])([H])Oc3c([H])c([H])c(N(C(=O)N4C([H])([H])C([H])([H])C([H])([H])C([H])(n5nc(-c6c([H])c([H])c(Oc7c([H])c([H])c(F)c([H])c7F)c([H])c6[H])c(C(=O)N([H])[H])c5N([H])[H])C4([H])[H])C([H])([H])C([H])([H])[H])c(F)c3[H])c([H])c([H])c2C1([H])[H]

$$$$
53:0:0
     RDKit          3D

 94103  0  0  1  0  0  0  0  0999 V2000
  -30.9470  -23.3630   20.0440 C   0  0  0  0  0  3  0  0  0  0  0  0
  -29.7060  -22.8880   19.7890 C   0  0  0  0  0  0  0  0  0  0  0  0
  -31.3620  -24.8150   19.8510 C   0  0  0  0  0  2  0  0  0  0  0  0
  -30.6440  -25.5180   18.6730 C   0  0  0  0  0  2  0  0  0  0  0  0
  -29.3610  -24.8040   18.1900 C   0  0  0  0  0  2  0  0  0  0  0  0
  -28.6840  -23.9840   19.3050 C   0  0  0  0  0  3  0  0  0  0  0  0
  -30.3510  -20.5320   20.6700 C   0  0  0  0  0  3  0  0  0  0  0  0
  -28.6940  -20.6540   18.9370 C   0  0  0  0  0  3  0  0  0  0  0  0
  -30.3980  -19.1100   20.5520 C   0  0  0  0  0  3  0  0  0  0  0  0
  -28.7360  -19.2290   18.8270 C   0  0  0  0  0  3  0  0  0  0  0  0
  -29.5310  -21.3600   19.8410 C   0  0  0  0  0  0  0  0  0  0  0  0
  -29.6120  -18.4140   19.6010 C   0  0  0  0  0  0  0  0  0  0  0  0
  -29.7630  -16.8730   19.2700 C   0  0  0  0  0  2  0  0  0  0  0  0
  -30.8050  -14.6470   19.9010 C   0  0  0  0  0  0  0  0  0  0  0  0
  -30.4770  -12.4390   18.7900 C   0  0  0  0  0  2  0  0  0  0  0  0
  -29.4390  -12.5950   17.6540 C   0  0  0  0  0  2  0  0  0  0  0  0
  -27.9990  -12.4630   18.1930 C   0  0  0  0  0  2  0  0  0  0  0  0
  -27.7620  -13.3010   19.4780 C   0  0  0  0  0  3  0  0  0  0  0  0
  -28.8970  -13.0530   20.4920 C   0  0  0  0  0  2  0  0  0  0  0  0
  -30.1530  -13.4370   19.8360 N   0  0  0  0  0  0  0  0  0  0  0  0
  -31.9140  -14.7740   19.3690 O   0  0  0  0  0  0  0  0  0  0  0  0
  -30.0810  -15.7790   20.2680 N   0  0  0  0  0  0  0  0  0  0  0  0
  -25.4560  -13.9520   20.4030 C   0  0  0  0  0  0  0  0  0  0  0  0
  -24.3980  -13.2020   20.8350 C   0  0  0  0  0  0  0  0  0  0  0  0
  -24.8130  -11.8390   20.7320 C   0  0  0  0  0  0  0  0  0  0  0  0
  -26.4480  -13.0470   20.0590 N   0  0  0  0  0  0  0  0  0  0  0  0
  -26.0720  -11.7700   20.3160 N   0  0  0  0  0  0  0  0  0  0  0  0
  -24.0660  -10.5930   20.9450 C   0  0  0  0  0  0  0  0  0  0  0  0
  -24.5210   -9.6040   21.8470 C   0  0  0  0  0  3  0  0  0  0  0  0
  -23.7760   -8.4220   22.0460 C   0  0  0  0  0  3  0  0  0  0  0  0
  -22.5640   -8.2200   21.3430 C   0  0  0  0  0  0  0  0  0  0  0  0
  -22.1280   -9.1970   20.4320 C   0  0  0  0  0  3  0  0  0  0  0  0
  -22.8730  -10.3710   20.2310 C   0  0  0  0  0  3  0  0  0  0  0  0
  -21.7870   -7.0920   21.4540 O   0  0  0  0  0  0  0  0  0  0  0  0
  -21.7480   -6.3560   22.6120 C   0  0  0  0  0  0  0  0  0  0  0  0
  -21.3780   -6.9320   23.8470 C   0  0  0  0  0  3  0  0  0  0  0  0
  -21.2820   -6.1260   24.9980 C   0  0  0  0  0  3  0  0  0  0  0  0
  -21.5480   -4.7460   24.9170 C   0  0  0  0  0  0  0  0  0  0  0  0
  -21.9130   -4.1700   23.6870 C   0  0  0  0  0  3  0  0  0  0  0  0
  -22.0090   -4.9730   22.5380 C   0  0  0  0  0  0  0  0  0  0  0  0
  -22.3400   -4.4100   21.3500 F   0  0  0  0  0  0  0  0  0  0  0  0
  -21.4500   -3.9700   26.0210 F   0  0  0  0  0  0  0  0  0  0  0  0
  -23.0420  -13.7100   21.2320 C   0  0  0  0  0  0  0  0  0  0  0  0
  -22.3740  -13.0190   22.1480 N   0  0  0  0  0  0  0  0  0  0  0  0
  -22.5870  -14.7540   20.7660 O   0  0  0  0  0  0  0  0  0  0  0  0
  -22.7520  -12.1680   22.5380 H   0  0  0  0  0  0  0  0  0  0  0  0
  -21.4700  -13.3450   22.4610 H   0  0  0  0  0  0  0  0  0  0  0  0
  -25.6580  -15.3220   20.2510 N   0  0  0  0  0  0  0  0  0  0  0  0
  -24.9510  -16.0140   20.4710 H   0  0  0  0  0  0  0  0  0  0  0  0
  -26.5030  -15.7320   19.8770 H   0  0  0  0  0  0  0  0  0  0  0  0
  -30.9690  -16.0650   22.6220 C   0  0  0  0  0  1  0  0  0  0  0  0
  -29.7550  -16.0990   21.6750 C   0  0  0  0  0  2  0  0  0  0  0  0
  -28.1190  -25.0030   20.3920 C   0  0  0  0  0  2  0  0  0  0  0  0
  -28.3090  -26.4570   20.1780 O   0  0  0  0  0  0  0  0  0  0  0  0
  -24.6570  -31.8720   23.1670 C   0  0  0  0  0  0  0  0  0  0  0  0
  -27.1950  -27.2920   20.1280 C   0  0  0  0  0  0  0  0  0  0  0  0
  -23.4320  -30.4750   21.5380 C   0  0  0  0  0  3  0  0  0  0  0  0
  -24.8550  -28.9130   20.1020 C   0  0  0  0  0  0  0  0  0  0  0  0
  -25.9670  -30.7800   21.3320 C   0  0  0  0  0  2  0  0  0  0  0  0
  -26.0280  -29.3990   20.6940 C   0  0  0  0  0  0  0  0  0  0  0  0
  -27.2050  -28.5990   20.6950 C   0  0  0  0  0  3  0  0  0  0  0  0
  -26.0100  -26.8520   19.5030 C   0  0  0  0  0  3  0  0  0  0  0  0
  -24.8480  -27.6470   19.4930 C   0  0  0  0  0  3  0  0  0  0  0  0
  -23.6270  -29.7980   20.1560 C   0  0  0  0  0  2  0  0  0  0  0  0
  -24.7050  -31.0620   22.0690 N   0  0  0  0  0  0  0  0  0  0  0  0
  -23.5800  -32.1600   23.7070 O   0  0  0  0  0  0  0  0  0  0  0  0
  -22.7770  -29.4620   22.5060 C   0  0  0  0  0  0  0  0  0  0  0  0
  -21.4480  -29.3050   22.4030 N   0  0  0  0  0  0  0  0  0  0  0  0
  -23.4610  -28.8240   23.3090 O   0  0  0  0  0  0  0  0  0  0  0  0
  -20.9560  -29.8720   21.7260 H   0  0  0  0  0  0  0  0  0  0  0  0
  -18.0640  -28.1600   22.9620 C   0  0  0  0  0  0  0  0  0  0  0  0
  -20.6300  -28.3780   23.1870 C   0  0  0  0  0  3  0  0  0  0  0  0
  -20.6990  -26.9470   22.6060 C   0  0  0  0  0  2  0  0  0  0  0  0
  -19.5730  -26.6420   21.6110 C   0  0  0  0  0  2  0  0  0  0  0  0
  -18.2060  -26.8090   22.2800 C   0  0  0  0  0  2  0  0  0  0  0  0
  -19.2020  -28.9010   23.3730 C   0  0  0  0  0  0  0  0  0  0  0  0
  -19.0150  -30.1650   23.9740 C   0  0  0  0  0  3  0  0  0  0  0  0
  -17.7210  -30.6870   24.1680 C   0  0  0  0  0  3  0  0  0  0  0  0
  -16.5980  -29.9430   23.7680 C   0  0  0  0  0  3  0  0  0  0  0  0
  -16.7690  -28.6810   23.1730 C   0  0  0  0  0  3  0  0  0  0  0  0
  -25.9490  -32.4990   23.7760 C   0  0  0  0  0  3  0  0  0  0  0  0
  -26.4790  -31.7230   25.0430 C   0  0  1  0  0  0  0  0  0  0  0  0
  -25.3980  -31.4840   26.1230 C   0  0  0  0  0  1  0  0  0  0  0  0
  -27.0550  -30.3470   24.6360 C   0  0  0  0  0  1  0  0  0  0  0  0
  -27.6390  -32.5140   25.6930 C   0  0  0  0  0  1  0  0  0  0  0  0
  -25.6480  -33.8970   24.1190 N   0  0  0  0  0  0  0  0  0  0  0  0
  -25.9800  -34.9540   23.3660 C   0  0  0  0  0  0  0  0  0  0  0  0
  -26.6440  -34.8540   22.3300 O   0  0  0  0  0  0  0  0  0  0  0  0
  -25.0590  -34.0480   24.9250 H   0  0  0  0  0  0  0  0  0  0  0  0
  -24.2640  -36.7590   23.0240 C   0  0  0  0  0  1  0  0  0  0  0  0
  -25.5010  -36.3410   23.8360 C   0  0  0  0  0  3  0  0  0  0  0  0
  -27.6400  -37.1980   24.6820 C   0  0  0  0  0  1  0  0  0  0  0  0
  -26.5420  -37.3870   23.7370 N   0  0  0  0  0  0  0  0  0  0  0  0
  -26.1450  -38.3070   23.8980 H   0  0  0  0  0  0  0  0  0  0  0  0
  2 11  1  0
  2  1  2  0
  3  1  1  0
  4  3  1  0
  5  4  1  0
  5  6  1  0
  6  2  1  0
  6 53  1  0
  8 11  1  0
  9  7  1  0
 10  8  2  0
 10 12  1  0
 11  7  2  0
 12  9  2  0
 13 12  1  0
 13 22  1  0
 14 22  1  0
 15 20  1  0
 16 17  1  0
 16 15  1  0
 18 17  1  0
 18 26  1  0
 18 19  1  0
 20 14  1  0
 20 19  1  0
 21 14  2  0
 22 52  1  0
 23 24  2  0
 24 43  1  0
 25 24  1  0
 25 28  1  0
 26 27  1  0
 26 23  1  0
 27 25  2  0
 28 29  1  0
 29 30  2  0
 31 34  1  0
 31 30  1  0
 32 31  2  0
 33 32  1  0
 33 28  2  0
 34 35  1  0
 35 36  1  0
 36 37  2  0
 38 37  1  0
 38 42  1  0
 39 38  2  0
 40 35  2  0
 40 39  1  0
 41 40  1  0
 43 44  1  0
 44 47  1  0
 44 46  1  0
 45 43  2  0
 48 23  1  0
 48 49  1  0
 50 48  1  0
 52 51  1  0
 54 53  1  0
 55 66  2  0
 56 54  1  0
 56 61  1  0
 57 65  1  0
 57 67  1  0
 58 64  1  0
 58 60  1  0
 59 65  1  0
 60 61  2  0
 60 59  1  0
 62 56  2  0
 63 62  1  0
 63 58  2  0
 64 57  1  0
 65 55  1  0
 67 69  2  0
 68 67  1  0
 70 68  1  0
 71 80  2  0
 71 76  1  0
 72 68  1  0
 72 76  1  0
 73 72  1  0
 74 75  1  0
 74 73  1  0
 75 71  1  0
 76 77  2  0
 77 78  1  0
 79 78  2  0
 80 79  1  0
 81 55  1  0
 81 86  1  0
 81 82  1  0
 82 85  1  1
 82 83  1  0
 84 82  1  0
 86 89  1  0
 87 91  1  0
 87 86  1  0
 88 87  2  0
 91 90  1  0
 93 91  1  0
 93 94  1  0
 93 92  1  0
M  ISO  4  14 100  22 100  53 101  54 101
M  END
>  <TORSDO>  (54) 
F 20

>  <SCORE>  (54) 
-13.111

>  <name>  (54) 
53

>  <ligand_id>  (54) 
53

>  <original_smiles>  (54) 
[H]C1=C(c2c([H])c([H])c(C([H])([H])N(C(=O)N3C([H])([H])C([H])([H])C([H])([H])C([H])(n4nc(-c5c([H])c([H])c(Oc6c([H])c([H])c(F)c([H])c6F)c([H])c5[H])c(C(=O)N([H])[H])c4N([H])[H])C3([H])[H])C([H])([H])C([H])([H])[H])c([H])c2[H])C([H])(C([H])([H])Oc2c([H])c([H])c3c(c2[H])C([H])([H])N(C(=O)C([H])(N([H])C(=O)C([H])(N([H])C([H])([H])[H])C([H])([H])[H])C(C([H])([H])[H])(C([H])([H])[H])C([H])([H])[H])C([H])(C(=O)N([H])C2([H])c4c([H])c([H])c([H])c([H])c4C([H])([H])C([H])([H])C2([H])[H])C3([H])[H])C([H])([H])C([H])([H])C1([H])[H]

>  <smiles>  (54) 
[H]C1=C(c2c([H])c([H])c(C([H])([H])N(C(=O)N3C([H])([H])C([H])([H])C([H])([H])C([H])(n4nc(-c5c([H])c([H])c(Oc6c([H])c([H])c(F)c([H])c6F)c([H])c5[H])c(C(=O)N([H])[H])c4N([H])[H])C3([H])[H])C([H])([H])C([H])([H])[H])c([H])c2[H])C([H])(C([H])([H])Oc2c([H])c([H])c3c(c2[H])C([H])([H])N(C(=O)C([H])(N([H])C(=O)C([H])(N([H])C([H])([H])[H])C([H])([H])[H])C(C([H])([H])[H])(C([H])([H])[H])C([H])([H])[H])C([H])(C(=O)N([H])C2([H])c4c([H])c([H])c([H])c([H])c4C([H])([H])C([H])([H])C2([H])[H])C3([H])[H])C([H])([H])C([H])([H])C1([H])[H]

$$$$
54:0:0
     RDKit          3D

 91 99  0  0  1  0  0  0  0  0999 V2000
  -28.7070  -21.7800   21.5620 C   0  0  0  0  0  1  0  0  0  0  0  0
  -29.4340  -21.4440   20.3370 N   0  0  0  0  0  0  0  0  0  0  0  0
  -30.4410  -19.4290   19.0710 C   0  0  0  0  0  3  0  0  0  0  0  0
  -30.6960  -18.0100   18.9810 C   0  0  0  0  0  3  0  0  0  0  0  0
  -29.4870  -19.1040   21.2340 C   0  0  0  0  0  3  0  0  0  0  0  0
  -29.7950  -20.0350   20.1980 C   0  0  0  0  0  0  0  0  0  0  0  0
  -30.3240  -17.1050   20.0210 C   0  0  0  0  0  0  0  0  0  0  0  0
  -29.7330  -17.7100   21.1560 C   0  0  0  0  0  0  0  0  0  0  0  0
  -29.2620  -16.7250   22.5000 Cl  0  0  0  0  0  0  0  0  0  0  0  0
  -31.0630  -14.6460   19.3870 C   0  0  0  0  0  0  0  0  0  0  0  0
  -30.7220  -12.3900   18.3730 C   0  0  0  0  0  2  0  0  0  0  0  0
  -29.5600  -12.4800   17.3580 C   0  0  0  0  0  2  0  0  0  0  0  0
  -28.1930  -12.3070   18.0500 C   0  0  0  0  0  2  0  0  0  0  0  0
  -28.0590  -13.1590   19.3390 C   0  0  0  0  0  3  0  0  0  0  0  0
  -29.3130  -13.0120   20.2320 C   0  0  0  0  0  2  0  0  0  0  0  0
  -30.4860  -13.3980   19.4260 N   0  0  0  0  0  0  0  0  0  0  0  0
  -32.0890  -14.8590   18.7340 O   0  0  0  0  0  0  0  0  0  0  0  0
  -30.3680  -15.6330   20.0290 N   0  0  0  0  0  0  0  0  0  0  0  0
  -29.6680  -15.2430   20.6400 H   0  0  0  0  0  0  0  0  0  0  0  0
  -25.9230  -13.7290   20.6550 C   0  0  0  0  0  0  0  0  0  0  0  0
  -24.9030  -12.9490   21.1290 C   0  0  0  0  0  0  0  0  0  0  0  0
  -25.2400  -11.6040   20.7850 C   0  0  0  0  0  0  0  0  0  0  0  0
  -26.8240  -12.8580   20.0610 N   0  0  0  0  0  0  0  0  0  0  0  0
  -26.4290  -11.5660   20.1920 N   0  0  0  0  0  0  0  0  0  0  0  0
  -24.4740  -10.3590   20.9320 C   0  0  0  0  0  0  0  0  0  0  0  0
  -24.9120   -9.3180   21.7800 C   0  0  0  0  0  3  0  0  0  0  0  0
  -24.1500   -8.1380   21.9180 C   0  0  0  0  0  3  0  0  0  0  0  0
  -22.9330   -7.9930   21.2100 C   0  0  0  0  0  0  0  0  0  0  0  0
  -22.5130   -9.0220   20.3500 C   0  0  0  0  0  3  0  0  0  0  0  0
  -23.2760  -10.1940   20.2080 C   0  0  0  0  0  3  0  0  0  0  0  0
  -22.1370   -6.8740   21.2640 O   0  0  0  0  0  0  0  0  0  0  0  0
  -21.9670   -6.1680   22.4280 C   0  0  0  0  0  0  0  0  0  0  0  0
  -21.4610   -6.7730   23.5980 C   0  0  0  0  0  3  0  0  0  0  0  0
  -21.2360   -5.9970   24.7510 C   0  0  0  0  0  3  0  0  0  0  0  0
  -21.5040   -4.6150   24.7350 C   0  0  0  0  0  0  0  0  0  0  0  0
  -22.0030   -4.0090   23.5670 C   0  0  0  0  0  3  0  0  0  0  0  0
  -22.2300   -4.7830   22.4160 C   0  0  0  0  0  0  0  0  0  0  0  0
  -22.6890   -4.1900   21.2880 F   0  0  0  0  0  0  0  0  0  0  0  0
  -21.2810   -3.8660   25.8400 F   0  0  0  0  0  0  0  0  0  0  0  0
  -23.6370  -13.4310   21.7800 C   0  0  0  0  0  0  0  0  0  0  0  0
  -23.0920  -12.6560   22.7100 N   0  0  0  0  0  0  0  0  0  0  0  0
  -23.1510  -14.5270   21.5000 O   0  0  0  0  0  0  0  0  0  0  0  0
  -23.4980  -11.7630   22.9520 H   0  0  0  0  0  0  0  0  0  0  0  0
  -22.2550  -12.9590   23.1890 H   0  0  0  0  0  0  0  0  0  0  0  0
  -26.1570  -15.0990   20.6560 N   0  0  0  0  0  0  0  0  0  0  0  0
  -25.4960  -15.7690   21.0340 H   0  0  0  0  0  0  0  0  0  0  0  0
  -26.9540  -15.5370   20.2150 H   0  0  0  0  0  0  0  0  0  0  0  0
  -30.0060  -22.6190   19.5950 C   0  0  0  0  0  2  0  0  0  0  0  0
  -29.0530  -23.8600   19.1970 C   0  0  0  0  0  2  0  0  0  0  0  0
  -28.7700  -25.1020   20.1630 C   0  0  0  0  0  2  0  0  0  0  0  0
  -28.7290  -26.4820   19.6160 O   0  0  0  0  0  0  0  0  0  0  0  0
  -24.7160  -31.4380   23.0260 C   0  0  0  0  0  0  0  0  0  0  0  0
  -27.5470  -27.2300   19.6880 C   0  0  0  0  0  0  0  0  0  0  0  0
  -23.5770  -30.0930   21.2940 C   0  0  0  0  0  3  0  0  0  0  0  0
  -25.0980  -28.7060   19.7730 C   0  0  0  0  0  0  0  0  0  0  0  0
  -26.0920  -30.5490   21.1340 C   0  0  0  0  0  2  0  0  0  0  0  0
  -26.2410  -29.2230   20.3970 C   0  0  0  0  0  0  0  0  0  0  0  0
  -27.4700  -28.4990   20.3370 C   0  0  0  0  0  3  0  0  0  0  0  0
  -26.3770  -26.7500   19.0590 C   0  0  0  0  0  3  0  0  0  0  0  0
  -25.1680  -27.4780   19.0920 C   0  0  0  0  0  3  0  0  0  0  0  0
  -23.8210  -29.5180   19.8730 C   0  0  0  0  0  2  0  0  0  0  0  0
  -24.8120  -30.7090   21.8770 N   0  0  0  0  0  0  0  0  0  0  0  0
  -23.6230  -31.6310   23.5760 O   0  0  0  0  0  0  0  0  0  0  0  0
  -22.9640  -28.9860   22.1840 C   0  0  0  0  0  0  0  0  0  0  0  0
  -21.6560  -28.7230   22.0040 N   0  0  0  0  0  0  0  0  0  0  0  0
  -23.6600  -28.3670   22.9910 O   0  0  0  0  0  0  0  0  0  0  0  0
  -21.1510  -29.2800   21.3280 H   0  0  0  0  0  0  0  0  0  0  0  0
  -18.3690  -27.2450   22.3050 C   0  0  0  0  0  0  0  0  0  0  0  0
  -20.8840  -27.6930   22.7010 C   0  0  0  0  0  3  0  0  0  0  0  0
  -21.1260  -26.2990   22.0780 C   0  0  0  0  0  2  0  0  0  0  0  0
  -20.0970  -25.9350   21.0010 C   0  0  0  0  0  2  0  0  0  0  0  0
  -18.6810  -25.9420   21.5860 C   0  0  0  0  0  2  0  0  0  0  0  0
  -19.4040  -28.0750   22.8130 C   0  0  0  0  0  0  0  0  0  0  0  0
  -19.0610  -29.2930   23.4400 C   0  0  0  0  0  3  0  0  0  0  0  0
  -17.7150  -29.6840   23.5640 C   0  0  0  0  0  3  0  0  0  0  0  0
  -16.6930  -28.8500   23.0760 C   0  0  0  0  0  3  0  0  0  0  0  0
  -17.0210  -27.6320   22.4510 C   0  0  0  0  0  3  0  0  0  0  0  0
  -25.9720  -32.0830   23.6930 C   0  0  0  0  0  3  0  0  0  0  0  0
  -26.4910  -31.2790   24.9490 C   0  0  1  0  0  0  0  0  0  0  0  0
  -25.3800  -30.9390   25.9720 C   0  0  0  0  0  1  0  0  0  0  0  0
  -27.1530  -29.9530   24.5120 C   0  0  0  0  0  1  0  0  0  0  0  0
  -27.5830  -32.0980   25.6790 C   0  0  0  0  0  1  0  0  0  0  0  0
  -25.6170  -33.4580   24.0680 N   0  0  0  0  0  0  0  0  0  0  0  0
  -25.9320  -34.5460   23.3550 C   0  0  0  0  0  0  0  0  0  0  0  0
  -26.6220  -34.5010   22.3330 O   0  0  0  0  0  0  0  0  0  0  0  0
  -25.0020  -33.5640   24.8610 H   0  0  0  0  0  0  0  0  0  0  0  0
  -24.1590  -36.3020   23.0350 C   0  0  0  0  0  1  0  0  0  0  0  0
  -25.3970  -35.9020   23.8530 C   0  0  0  0  0  3  0  0  0  0  0  0
  -27.4840  -36.8190   24.7670 C   0  0  0  0  0  1  0  0  0  0  0  0
  -26.4010  -36.9870   23.8000 N   0  0  0  0  0  0  0  0  0  0  0  0
  -25.9650  -37.8880   23.9720 H   0  0  0  0  0  0  0  0  0  0  0  0
  2  1  1  0
  3  6  1  0
  4  3  2  0
  4  7  1  0
  6  2  1  0
  6  5  2  0
  7 18  1  0
  7  8  2  0
  8  5  1  0
  8  9  1  0
 10 16  1  0
 10 18  1  0
 11 16  1  0
 12 13  1  0
 12 11  1  0
 14 13  1  0
 14 23  1  0
 14 15  1  0
 16 15  1  0
 17 10  2  0
 18 19  1  0
 20 45  1  0
 20 21  2  0
 21 40  1  0
 22 25  1  0
 22 21  1  0
 23 24  1  0
 23 20  1  0
 24 22  2  0
 25 26  1  0
 26 27  2  0
 28 31  1  0
 28 27  1  0
 29 28  2  0
 30 29  1  0
 30 25  2  0
 31 32  1  0
 32 33  1  0
 33 34  2  0
 35 34  1  0
 35 39  1  0
 36 35  2  0
 37 32  2  0
 37 36  1  0
 38 37  1  0
 40 41  1  0
 41 43  1  0
 41 44  1  0
 42 40  2  0
 45 46  1  0
 47 45  1  0
 48  2  1  0
 49 48  1  0
 49 50  1  0
 51 53  1  0
 51 50  1  0
 52 63  2  0
 53 58  1  0
 54 62  1  0
 54 64  1  0
 55 61  1  0
 55 57  1  0
 56 62  1  0
 57 56  1  0
 58 57  2  0
 59 60  1  0
 59 53  2  0
 60 55  2  0
 61 54  1  0
 62 52  1  0
 64 66  2  0
 65 64  1  0
 67 65  1  0
 68 77  2  0
 68 73  1  0
 69 65  1  0
 69 73  1  0
 70 69  1  0
 71 72  1  0
 71 70  1  0
 72 68  1  0
 73 74  2  0
 74 75  1  0
 76 75  2  0
 77 76  1  0
 78 52  1  0
 78 83  1  0
 78 79  1  0
 79 82  1  1
 79 80  1  0
 81 79  1  0
 83 86  1  0
 84 88  1  0
 84 83  1  0
 85 84  2  0
 88 87  1  0
 90 88  1  0
 90 91  1  0
 90 89  1  0
M  ISO  4  10 100  18 100  50 101  51 101
M  END
>  <TORSDO>  (55) 
F 20

>  <SCORE>  (55) 
-9.116

>  <name>  (55) 
54

>  <ligand_id>  (55) 
54

>  <original_smiles>  (55) 
[H]c1c([H])c([H])c2c(c1[H])C([H])([H])C([H])([H])C([H])([H])C2([H])N([H])C(=O)C1([H])N(C(=O)C([H])(N([H])C(=O)C([H])(N([H])C([H])([H])[H])C([H])([H])[H])C(C([H])([H])[H])(C([H])([H])[H])C([H])([H])[H])C([H])([H])c2c([H])c(OC([H])([H])C([H])([H])C([H])([H])N(c3c([H])c([H])c(N([H])C(=O)N4C([H])([H])C([H])([H])C([H])([H])C([H])(n5nc(-c6c([H])c([H])c(Oc7c([H])c([H])c(F)c([H])c7F)c([H])c6[H])c(C(=O)N([H])[H])c5N([H])[H])C4([H])[H])c(Cl)c3[H])C([H])([H])[H])c([H])c([H])c2C1([H])[H]

>  <smiles>  (55) 
[H]c1c([H])c([H])c2c(c1[H])C([H])([H])C([H])([H])C([H])([H])C2([H])N([H])C(=O)C1([H])N(C(=O)C([H])(N([H])C(=O)C([H])(N([H])C([H])([H])[H])C([H])([H])[H])C(C([H])([H])[H])(C([H])([H])[H])C([H])([H])[H])C([H])([H])c2c([H])c(OC([H])([H])C([H])([H])C([H])([H])N(c3c([H])c([H])c(N([H])C(=O)N4C([H])([H])C([H])([H])C([H])([H])C([H])(n5nc(-c6c([H])c([H])c(Oc7c([H])c([H])c(F)c([H])c7F)c([H])c6[H])c(C(=O)N([H])[H])c5N([H])[H])C4([H])[H])c(Cl)c3[H])C([H])([H])[H])c([H])c([H])c2C1([H])[H]

$$$$
55:0:0
     RDKit          3D

 91 99  0  0  1  0  0  0  0  0999 V2000
  -29.1210  -21.8400   22.3300 C   0  0  0  0  0  1  0  0  0  0  0  0
  -29.6490  -21.6340   20.9790 N   0  0  0  0  0  0  0  0  0  0  0  0
  -29.3530  -17.7990   21.1020 C   0  0  0  0  0  3  0  0  0  0  0  0
  -29.1620  -19.1890   21.3660 C   0  0  0  0  0  3  0  0  0  0  0  0
  -30.9620  -18.3910   19.4250 C   0  0  0  0  0  3  0  0  0  0  0  0
  -30.7590  -19.7850   19.6690 C   0  0  0  0  0  0  0  0  0  0  0  0
  -30.2520  -17.3570   20.1080 C   0  0  0  0  0  0  0  0  0  0  0  0
  -29.8320  -20.2340   20.6540 C   0  0  0  0  0  0  0  0  0  0  0  0
  -31.5870  -20.7660   18.8530 C   0  0  0  0  0  1  0  0  0  0  0  0
  -30.9580  -14.8900   20.1580 C   0  0  0  0  0  0  0  0  0  0  0  0
  -30.7290  -12.5950   19.2460 C   0  0  0  0  0  2  0  0  0  0  0  0
  -29.7590  -12.5480   18.0420 C   0  0  0  0  0  2  0  0  0  0  0  0
  -28.2940  -12.4370   18.5110 C   0  0  0  0  0  2  0  0  0  0  0  0
  -27.9360  -13.3750   19.6970 C   0  0  0  0  0  3  0  0  0  0  0  0
  -29.0220  -13.3720   20.7910 C   0  0  0  0  0  2  0  0  0  0  0  0
  -30.3000  -13.6840   20.1410 N   0  0  0  0  0  0  0  0  0  0  0  0
  -32.1900  -14.9290   20.0900 O   0  0  0  0  0  0  0  0  0  0  0  0
  -30.0850  -15.8970   18.1690 C   0  0  0  0  0  1  0  0  0  0  0  0
  -30.2560  -15.9660   19.6310 N   0  0  0  0  0  0  0  0  0  0  0  0
  -25.5700  -13.9820   20.4870 C   0  0  0  0  0  0  0  0  0  0  0  0
  -24.5030  -13.2080   20.8620 C   0  0  0  0  0  0  0  0  0  0  0  0
  -24.9590  -11.8570   20.8060 C   0  0  0  0  0  0  0  0  0  0  0  0
  -26.6040  -13.0950   20.2240 N   0  0  0  0  0  0  0  0  0  0  0  0
  -26.2440  -11.8150   20.4820 N   0  0  0  0  0  0  0  0  0  0  0  0
  -24.2270  -10.5990   20.9850 C   0  0  0  0  0  0  0  0  0  0  0  0
  -24.6400   -9.6400   21.9330 C   0  0  0  0  0  3  0  0  0  0  0  0
  -23.9150   -8.4410   22.1000 C   0  0  0  0  0  3  0  0  0  0  0  0
  -22.7620   -8.1940   21.3170 C   0  0  0  0  0  0  0  0  0  0  0  0
  -22.3710   -9.1420   20.3550 C   0  0  0  0  0  3  0  0  0  0  0  0
  -23.0950  -10.3330   20.1880 C   0  0  0  0  0  3  0  0  0  0  0  0
  -22.0070   -7.0490   21.3920 O   0  0  0  0  0  0  0  0  0  0  0  0
  -21.8690   -6.3520   22.5650 C   0  0  0  0  0  0  0  0  0  0  0  0
  -21.2940   -6.9360   23.7150 C   0  0  0  0  0  3  0  0  0  0  0  0
  -21.1100   -6.1620   24.8780 C   0  0  0  0  0  3  0  0  0  0  0  0
  -21.4890   -4.8070   24.8910 C   0  0  0  0  0  0  0  0  0  0  0  0
  -22.0510   -4.2210   23.7440 C   0  0  0  0  0  3  0  0  0  0  0  0
  -22.2370   -4.9910   22.5830 C   0  0  0  0  0  0  0  0  0  0  0  0
  -22.7600   -4.4160   21.4720 F   0  0  0  0  0  0  0  0  0  0  0  0
  -21.3070   -4.0620   26.0070 F   0  0  0  0  0  0  0  0  0  0  0  0
  -23.1110  -13.6870   21.1600 C   0  0  0  0  0  0  0  0  0  0  0  0
  -22.4030  -12.9910   22.0430 N   0  0  0  0  0  0  0  0  0  0  0  0
  -22.6630  -14.7090   20.6450 O   0  0  0  0  0  0  0  0  0  0  0  0
  -22.7850  -12.1610   22.4720 H   0  0  0  0  0  0  0  0  0  0  0  0
  -21.4650  -13.2820   22.2780 H   0  0  0  0  0  0  0  0  0  0  0  0
  -25.7440  -15.3510   20.3280 N   0  0  0  0  0  0  0  0  0  0  0  0
  -24.9880  -16.0170   20.4560 H   0  0  0  0  0  0  0  0  0  0  0  0
  -26.6170  -15.7930   20.0680 H   0  0  0  0  0  0  0  0  0  0  0  0
  -29.1530  -22.6420   19.9870 C   0  0  0  0  0  2  0  0  0  0  0  0
  -29.5080  -24.1810   20.2450 C   0  0  0  0  0  3  0  0  0  0  0  0
  -28.4580  -25.2460   19.7240 C   0  0  0  0  0  3  0  0  0  0  0  0
  -28.5990  -26.6760   20.0720 O   0  0  0  0  0  0  0  0  0  0  0  0
  -24.6110  -31.8310   23.1650 C   0  0  0  0  0  0  0  0  0  0  0  0
  -27.4410  -27.4680   20.0260 C   0  0  0  0  0  0  0  0  0  0  0  0
  -23.4790  -30.4270   21.4780 C   0  0  0  0  0  3  0  0  0  0  0  0
  -25.0030  -28.9640   20.0400 C   0  0  0  0  0  0  0  0  0  0  0  0
  -26.0040  -30.8460   21.3360 C   0  0  0  0  0  2  0  0  0  0  0  0
  -26.1420  -29.4880   20.6650 C   0  0  0  0  0  0  0  0  0  0  0  0
  -27.3610  -28.7450   20.6560 C   0  0  0  0  0  3  0  0  0  0  0  0
  -26.2780  -27.0120   19.3610 C   0  0  0  0  0  3  0  0  0  0  0  0
  -25.0730  -27.7310   19.3800 C   0  0  0  0  0  3  0  0  0  0  0  0
  -23.7270  -29.7750   20.0930 C   0  0  0  0  0  2  0  0  0  0  0  0
  -24.7150  -31.0510   22.0490 N   0  0  0  0  0  0  0  0  0  0  0  0
  -23.5130  -32.0520   23.6990 O   0  0  0  0  0  0  0  0  0  0  0  0
  -22.8480  -29.3700   22.4090 C   0  0  0  0  0  0  0  0  0  0  0  0
  -21.5290  -29.1620   22.2730 N   0  0  0  0  0  0  0  0  0  0  0  0
  -23.5400  -28.7390   23.2120 O   0  0  0  0  0  0  0  0  0  0  0  0
  -21.0290  -29.7250   21.5980 H   0  0  0  0  0  0  0  0  0  0  0  0
  -18.1820  -27.8900   22.7420 C   0  0  0  0  0  0  0  0  0  0  0  0
  -20.7350  -28.1820   23.0140 C   0  0  0  0  0  3  0  0  0  0  0  0
  -20.8600  -26.7790   22.3790 C   0  0  0  0  0  2  0  0  0  0  0  0
  -19.7580  -26.4810   21.3580 C   0  0  0  0  0  2  0  0  0  0  0  0
  -18.3780  -26.5700   22.0140 C   0  0  0  0  0  2  0  0  0  0  0  0
  -19.2890  -28.6550   23.1970 C   0  0  0  0  0  0  0  0  0  0  0  0
  -19.0520  -29.8900   23.8370 C   0  0  0  0  0  3  0  0  0  0  0  0
  -17.7380  -30.3590   24.0330 C   0  0  0  0  0  3  0  0  0  0  0  0
  -16.6460  -29.5890   23.5970 C   0  0  0  0  0  3  0  0  0  0  0  0
  -16.8680  -28.3540   22.9580 C   0  0  0  0  0  3  0  0  0  0  0  0
  -25.8650  -32.4910   23.8150 C   0  0  0  0  0  3  0  0  0  0  0  0
  -26.3600  -31.7370   25.1110 C   0  0  1  0  0  0  0  0  0  0  0  0
  -25.2390  -31.4760   26.1460 C   0  0  0  0  0  1  0  0  0  0  0  0
  -26.9890  -30.3720   24.7460 C   0  0  0  0  0  1  0  0  0  0  0  0
  -27.4710  -32.5610   25.8010 C   0  0  0  0  0  1  0  0  0  0  0  0
  -25.5190  -33.8830   24.1280 N   0  0  0  0  0  0  0  0  0  0  0  0
  -25.8470  -34.9380   23.3700 C   0  0  0  0  0  0  0  0  0  0  0  0
  -26.5440  -34.8420   22.3570 O   0  0  0  0  0  0  0  0  0  0  0  0
  -24.8930  -34.0250   24.9070 H   0  0  0  0  0  0  0  0  0  0  0  0
  -24.1000  -36.6990   22.9500 C   0  0  0  0  0  1  0  0  0  0  0  0
  -25.3200  -36.3180   23.8040 C   0  0  0  0  0  3  0  0  0  0  0  0
  -27.3990  -37.2550   24.7130 C   0  0  0  0  0  1  0  0  0  0  0  0
  -26.3360  -37.3900   23.7200 N   0  0  0  0  0  0  0  0  0  0  0  0
  -25.9090  -38.3050   23.8310 H   0  0  0  0  0  0  0  0  0  0  0  0
  2  1  1  0
  3  4  1  0
  5  6  2  0
  5  7  1  0
  6  8  1  0
  7  3  2  0
  8  2  1  0
  8  4  2  0
  9  6  1  0
 11 16  1  0
 12 13  1  0
 12 11  1  0
 14 13  1  0
 14 23  1  0
 14 15  1  0
 16 10  1  0
 16 15  1  0
 17 10  2  0
 18 19  1  0
 19  7  1  0
 19 10  1  0
 20 21  2  0
 21 40  1  0
 22 21  1  0
 22 25  1  0
 23 24  1  0
 23 20  1  0
 24 22  2  0
 25 26  1  0
 26 27  2  0
 28 31  1  0
 28 27  1  0
 29 28  2  0
 30 29  1  0
 30 25  2  0
 31 32  1  0
 32 37  2  0
 32 33  1  0
 33 34  2  0
 34 35  1  0
 35 39  1  0
 36 35  2  0
 37 36  1  0
 38 37  1  0
 40 41  1  0
 41 44  1  0
 41 43  1  0
 42 40  2  0
 45 46  1  0
 45 20  1  0
 47 45  1  0
 48 49  1  0
 48  2  1  0
 50 51  1  0
 50 49  2  0
 52 63  2  0
 53 51  1  0
 53 58  1  0
 54 62  1  0
 54 64  1  0
 55 61  1  0
 55 57  1  0
 56 62  1  0
 57 56  1  0
 58 57  2  0
 59 60  1  0
 59 53  2  0
 60 55  2  0
 61 54  1  0
 62 52  1  0
 64 66  2  0
 65 64  1  0
 67 65  1  0
 68 77  2  0
 68 73  1  0
 69 65  1  0
 69 73  1  0
 70 69  1  0
 71 72  1  0
 71 70  1  0
 72 68  1  0
 73 74  2  0
 74 75  1  0
 76 75  2  0
 77 76  1  0
 78 52  1  0
 78 83  1  0
 78 79  1  0
 79 82  1  1
 79 80  1  0
 81 79  1  0
 83 86  1  0
 84 88  1  0
 84 83  1  0
 85 84  2  0
 88 87  1  0
 90 88  1  0
 90 91  1  0
 90 89  1  0
M  ISO  4  10 100  19 100  50 101  51 101
M  END
>  <TORSDO>  (56) 
F 20

>  <SCORE>  (56) 
-12.496

>  <name>  (56) 
55

>  <ligand_id>  (56) 
55

>  <original_smiles>  (56) 
[H]c1c([H])c([H])c2c(c1[H])C([H])([H])C([H])([H])C([H])([H])C2([H])N([H])C(=O)C1([H])N(C(=O)C([H])(N([H])C(=O)C([H])(N([H])C([H])([H])[H])C([H])([H])[H])C(C([H])([H])[H])(C([H])([H])[H])C([H])([H])[H])C([H])([H])c2c([H])c(OC([H])([H])C([H])([H])C([H])([H])N(c3c([H])c([H])c(N(C(=O)N4C([H])([H])C([H])([H])C([H])([H])C([H])(n5nc(-c6c([H])c([H])c(Oc7c([H])c([H])c(F)c([H])c7F)c([H])c6[H])c(C(=O)N([H])[H])c5N([H])[H])C4([H])[H])C([H])([H])[H])c([H])c3C([H])([H])[H])C([H])([H])[H])c([H])c([H])c2C1([H])[H]

>  <smiles>  (56) 
[H]c1c([H])c([H])c2c(c1[H])C([H])([H])C([H])([H])C([H])([H])C2([H])N([H])C(=O)C1([H])N(C(=O)C([H])(N([H])C(=O)C([H])(N([H])C([H])([H])[H])C([H])([H])[H])C(C([H])([H])[H])(C([H])([H])[H])C([H])([H])[H])C([H])([H])c2c([H])c(OC([H])([H])C([H])([H])C([H])([H])N(c3c([H])c([H])c(N(C(=O)N4C([H])([H])C([H])([H])C([H])([H])C([H])(n5nc(-c6c([H])c([H])c(Oc7c([H])c([H])c(F)c([H])c7F)c([H])c6[H])c(C(=O)N([H])[H])c5N([H])[H])C4([H])[H])C([H])([H])[H])c([H])c3C([H])([H])[H])C([H])([H])[H])c([H])c([H])c2C1([H])[H]

$$$$
56:0:0
     RDKit          3D

 90 98  0  0  1  0  0  0  0  0999 V2000
  -29.0080  -22.4850   19.7430 C   0  0  0  0  0  3  0  0  0  0  0  0
  -29.1230  -24.0210   21.6310 C   0  0  0  0  0  3  0  0  0  0  0  0
  -29.6310  -21.6280   21.9160 C   0  0  0  0  0  3  0  0  0  0  0  0
  -28.8800  -23.8410   20.2570 C   0  0  0  0  0  0  0  0  0  0  0  0
  -29.3760  -21.3320   20.5540 C   0  0  0  0  0  0  0  0  0  0  0  0
  -29.5010  -22.9330   22.4420 C   0  0  0  0  0  0  0  0  0  0  0  0
  -29.8080  -23.1960   24.1200 Cl  0  0  0  0  0  0  0  0  0  0  0  0
  -29.0390  -19.6870   18.7240 C   0  0  0  0  0  1  0  0  0  0  0  0
  -29.4930  -19.9510   20.0900 N   0  0  0  0  0  0  0  0  0  0  0  0
  -29.7680  -18.7990   21.0420 C   0  0  0  0  0  2  0  0  0  0  0  0
  -30.3880  -16.1580   20.4770 C   0  0  0  0  0  0  0  0  0  0  0  0
  -30.0790  -17.3560   20.6130 C   0  0  0  0  0  0  0  0  0  0  0  0
  -31.0360  -14.8110   20.2360 C   0  0  0  0  0  0  0  0  0  0  0  0
  -30.7260  -12.5560   19.2340 C   0  0  0  0  0  2  0  0  0  0  0  0
  -29.7980  -12.6790   18.0050 C   0  0  0  0  0  2  0  0  0  0  0  0
  -28.3270  -12.5360   18.4370 C   0  0  0  0  0  2  0  0  0  0  0  0
  -27.9740  -13.4360   19.6530 C   0  0  0  0  0  3  0  0  0  0  0  0
  -29.0290  -13.3280   20.7730 C   0  0  0  0  0  2  0  0  0  0  0  0
  -30.3400  -13.6230   20.1860 N   0  0  0  0  0  0  0  0  0  0  0  0
  -32.2210  -14.8300   19.8950 O   0  0  0  0  0  0  0  0  0  0  0  0
  -25.5990  -14.0740   20.3850 C   0  0  0  0  0  0  0  0  0  0  0  0
  -24.5200  -13.3210   20.7580 C   0  0  0  0  0  0  0  0  0  0  0  0
  -24.9590  -11.9620   20.7360 C   0  0  0  0  0  0  0  0  0  0  0  0
  -26.6270  -13.1750   20.1490 N   0  0  0  0  0  0  0  0  0  0  0  0
  -26.2490  -11.9010   20.4270 N   0  0  0  0  0  0  0  0  0  0  0  0
  -24.2110  -10.7120   20.9330 C   0  0  0  0  0  0  0  0  0  0  0  0
  -24.6110   -9.7530   21.8910 C   0  0  0  0  0  3  0  0  0  0  0  0
  -23.8640   -8.5700   22.0760 C   0  0  0  0  0  3  0  0  0  0  0  0
  -22.7030   -8.3350   21.3010 C   0  0  0  0  0  0  0  0  0  0  0  0
  -22.3220   -9.2810   20.3330 C   0  0  0  0  0  3  0  0  0  0  0  0
  -23.0690  -10.4570   20.1480 C   0  0  0  0  0  3  0  0  0  0  0  0
  -21.9340   -7.2010   21.3900 O   0  0  0  0  0  0  0  0  0  0  0  0
  -21.8280   -6.4940   22.5600 C   0  0  0  0  0  0  0  0  0  0  0  0
  -21.3660   -7.0910   23.7530 C   0  0  0  0  0  3  0  0  0  0  0  0
  -21.2080   -6.3120   24.9160 C   0  0  0  0  0  3  0  0  0  0  0  0
  -21.5000   -4.9350   24.8870 C   0  0  0  0  0  0  0  0  0  0  0  0
  -21.9550   -4.3370   23.6990 C   0  0  0  0  0  3  0  0  0  0  0  0
  -22.1150   -5.1130   22.5380 C   0  0  0  0  0  0  0  0  0  0  0  0
  -22.5350   -4.5290   21.3910 F   0  0  0  0  0  0  0  0  0  0  0  0
  -21.3390   -4.1820   26.0020 F   0  0  0  0  0  0  0  0  0  0  0  0
  -23.1290  -13.8240   21.0250 C   0  0  0  0  0  0  0  0  0  0  0  0
  -22.3920  -13.1540   21.9030 N   0  0  0  0  0  0  0  0  0  0  0  0
  -22.7070  -14.8460   20.4870 O   0  0  0  0  0  0  0  0  0  0  0  0
  -22.7450  -12.3270   22.3610 H   0  0  0  0  0  0  0  0  0  0  0  0
  -21.4600  -13.4760   22.1260 H   0  0  0  0  0  0  0  0  0  0  0  0
  -25.7910  -15.4400   20.2040 N   0  0  0  0  0  0  0  0  0  0  0  0
  -25.0390  -16.1110   20.3110 H   0  0  0  0  0  0  0  0  0  0  0  0
  -26.6550  -15.8570   19.8780 H   0  0  0  0  0  0  0  0  0  0  0  0
  -28.4610  -25.0900   19.3740 C   0  0  0  0  0  2  0  0  0  0  0  0
  -28.4080  -26.4760   19.9440 O   0  0  0  0  0  0  0  0  0  0  0  0
  -24.6680  -31.8030   23.1210 C   0  0  0  0  0  0  0  0  0  0  0  0
  -27.2650  -27.3060   19.9160 C   0  0  0  0  0  0  0  0  0  0  0  0
  -23.4470  -30.4220   21.4780 C   0  0  0  0  0  3  0  0  0  0  0  0
  -24.8850  -28.9190   19.9900 C   0  0  0  0  0  0  0  0  0  0  0  0
  -25.9810  -30.7690   21.2480 C   0  0  0  0  0  2  0  0  0  0  0  0
  -26.0630  -29.4020   20.5700 C   0  0  0  0  0  0  0  0  0  0  0  0
  -27.2510  -28.6090   20.5240 C   0  0  0  0  0  3  0  0  0  0  0  0
  -26.0530  -26.8790   19.3270 C   0  0  0  0  0  3  0  0  0  0  0  0
  -24.8850  -27.6650   19.3610 C   0  0  0  0  0  3  0  0  0  0  0  0
  -23.6400  -29.7760   20.0820 C   0  0  0  0  0  2  0  0  0  0  0  0
  -24.7180  -31.0160   22.0050 N   0  0  0  0  0  0  0  0  0  0  0  0
  -23.5930  -32.0560   23.6850 O   0  0  0  0  0  0  0  0  0  0  0  0
  -22.8170  -29.3780   22.4330 C   0  0  0  0  0  0  0  0  0  0  0  0
  -21.4990  -29.1540   22.3010 N   0  0  0  0  0  0  0  0  0  0  0  0
  -23.5140  -28.7750   23.2520 O   0  0  0  0  0  0  0  0  0  0  0  0
  -20.9960  -29.6910   21.6100 H   0  0  0  0  0  0  0  0  0  0  0  0
  -18.1790  -27.7840   22.7430 C   0  0  0  0  0  0  0  0  0  0  0  0
  -20.7130  -28.1850   23.0660 C   0  0  0  0  0  3  0  0  0  0  0  0
  -20.9040  -26.7530   22.5160 C   0  0  0  0  0  2  0  0  0  0  0  0
  -19.8470  -26.3580   21.4790 C   0  0  0  0  0  2  0  0  0  0  0  0
  -18.4430  -26.4380   22.0870 C   0  0  0  0  0  2  0  0  0  0  0  0
  -19.2450  -28.6110   23.1870 C   0  0  0  0  0  0  0  0  0  0  0  0
  -18.9450  -29.8660   23.7600 C   0  0  0  0  0  3  0  0  0  0  0  0
  -17.6120  -30.3000   23.8870 C   0  0  0  0  0  3  0  0  0  0  0  0
  -16.5600  -29.4720   23.4590 C   0  0  0  0  0  3  0  0  0  0  0  0
  -16.8440  -28.2140   22.8950 C   0  0  0  0  0  3  0  0  0  0  0  0
  -25.9550  -32.4420   23.7270 C   0  0  0  0  0  3  0  0  0  0  0  0
  -26.5130  -31.6500   24.9730 C   0  0  1  0  0  0  0  0  0  0  0  0
  -25.4520  -31.3740   26.0640 C   0  0  0  0  0  1  0  0  0  0  0  0
  -27.1060  -30.2890   24.5380 C   0  0  0  0  0  1  0  0  0  0  0  0
  -27.6710  -32.4430   25.6230 C   0  0  0  0  0  1  0  0  0  0  0  0
  -25.6300  -33.8260   24.1030 N   0  0  0  0  0  0  0  0  0  0  0  0
  -25.9200  -34.9050   23.3630 C   0  0  0  0  0  0  0  0  0  0  0  0
  -26.5610  -34.8400   22.3100 O   0  0  0  0  0  0  0  0  0  0  0  0
  -25.0600  -33.9480   24.9280 H   0  0  0  0  0  0  0  0  0  0  0  0
  -24.1470  -36.6720   23.1070 C   0  0  0  0  0  1  0  0  0  0  0  0
  -25.4210  -36.2730   23.8700 C   0  0  0  0  0  3  0  0  0  0  0  0
  -27.5660  -37.1790   24.6520 C   0  0  0  0  0  1  0  0  0  0  0  0
  -26.4310  -37.3480   23.7500 N   0  0  0  0  0  0  0  0  0  0  0  0
  -26.0140  -38.2550   23.9340 H   0  0  0  0  0  0  0  0  0  0  0  0
  1  4  2  0
  1  5  1  0
  2  6  2  0
  3  6  1  0
  4  2  1  0
  5  3  2  0
  6  7  1  0
  8  9  1  0
  9  5  1  0
  9 10  1  0
 11 12  3  0
 12 10  1  0
 13 11  1  0
 14 19  1  0
 15 16  1  0
 15 14  1  0
 17 16  1  0
 17 24  1  0
 17 18  1  0
 19 13  1  0
 19 18  1  0
 20 13  2  0
 21 22  2  0
 22 41  1  0
 23 22  1  0
 23 26  1  0
 24 21  1  0
 24 25  1  0
 25 23  2  0
 26 27  1  0
 27 28  2  0
 29 32  1  0
 29 28  1  0
 30 29  2  0
 31 30  1  0
 31 26  2  0
 32 33  1  0
 33 34  1  0
 34 35  2  0
 36 35  1  0
 36 40  1  0
 37 36  2  0
 38 33  2  0
 38 37  1  0
 39 38  1  0
 41 42  1  0
 42 45  1  0
 42 44  1  0
 43 41  2  0
 46 47  1  0
 46 21  1  0
 48 46  1  0
 49 50  1  0
 49  4  1  0
 51 62  2  0
 52 50  1  0
 52 57  1  0
 53 61  1  0
 53 63  1  0
 54 60  1  0
 54 56  1  0
 55 61  1  0
 56 55  1  0
 57 56  2  0
 58 59  1  0
 58 52  2  0
 59 54  2  0
 60 53  1  0
 61 51  1  0
 63 65  2  0
 64 63  1  0
 66 64  1  0
 67 76  2  0
 67 72  1  0
 68 64  1  0
 68 72  1  0
 69 68  1  0
 70 71  1  0
 70 69  1  0
 71 67  1  0
 72 73  2  0
 73 74  1  0
 75 74  2  0
 76 75  1  0
 77 51  1  0
 77 82  1  0
 77 78  1  0
 78 81  1  1
 78 79  1  0
 80 78  1  0
 82 85  1  0
 83 87  1  0
 83 82  1  0
 84 83  2  0
 87 86  1  0
 89 87  1  0
 89 90  1  0
 89 88  1  0
M  ISO  4  11 100  13 100  49 101  50 101
M  END
>  <TORSDO>  (57) 
F 20

>  <SCORE>  (57) 
-13.512

>  <name>  (57) 
56

>  <ligand_id>  (57) 
56

>  <original_smiles>  (57) 
[H]c1c([H])c([H])c2c(c1[H])C([H])([H])C([H])([H])C([H])([H])C2([H])N([H])C(=O)C1([H])N(C(=O)C([H])(N([H])C(=O)C([H])(N([H])C([H])([H])[H])C([H])([H])[H])C(C([H])([H])[H])(C([H])([H])[H])C([H])([H])[H])C([H])([H])c2c([H])c(OC([H])([H])c3c([H])c(Cl)c([H])c(N(C([H])([H])[H])C([H])([H])C#CC(=O)N4C([H])([H])C([H])([H])C([H])([H])C([H])(n5nc(-c6c([H])c([H])c(Oc7c([H])c([H])c(F)c([H])c7F)c([H])c6[H])c(C(=O)N([H])[H])c5N([H])[H])C4([H])[H])c3[H])c([H])c([H])c2C1([H])[H]

>  <smiles>  (57) 
[H]c1c([H])c([H])c2c(c1[H])C([H])([H])C([H])([H])C([H])([H])C2([H])N([H])C(=O)C1([H])N(C(=O)C([H])(N([H])C(=O)C([H])(N([H])C([H])([H])[H])C([H])([H])[H])C(C([H])([H])[H])(C([H])([H])[H])C([H])([H])[H])C([H])([H])c2c([H])c(OC([H])([H])c3c([H])c(Cl)c([H])c(N(C([H])([H])[H])C([H])([H])C#CC(=O)N4C([H])([H])C([H])([H])C([H])([H])C([H])(n5nc(-c6c([H])c([H])c(Oc7c([H])c([H])c(F)c([H])c7F)c([H])c6[H])c(C(=O)N([H])[H])c5N([H])[H])C4([H])[H])c3[H])c([H])c([H])c2C1([H])[H]

$$$$
57:0:0
     RDKit          3D

 93101  0  0  1  0  0  0  0  0999 V2000
  -28.4860  -21.9150   20.3190 C   0  0  0  0  0  2  0  0  0  0  0  0
  -27.4770  -19.6560   20.0620 C   0  0  0  0  0  1  0  0  0  0  0  0
  -28.4580  -20.4810   20.8090 N   0  0  1  0  0  4  0  0  0  0  0  0
  -28.0530  -20.5380   21.7310 H   0  0  0  0  0  0  0  0  0  0  0  0
  -29.7860  -19.8090   21.0560 C   0  0  0  0  0  2  0  0  0  0  0  0
  -30.2030  -17.1470   21.4390 C   0  0  0  0  0  3  0  0  0  0  0  0
  -30.1420  -17.8940   19.3440 C   0  0  0  0  0  3  0  0  0  0  0  0
  -29.9890  -18.3270   20.6290 C   0  0  0  0  0  0  0  0  0  0  0  0
  -30.5620  -16.0720   20.6410 C   0  0  0  0  0  0  0  0  0  0  0  0
  -30.9300  -15.8960   18.1050 C   0  0  0  0  0  1  0  0  0  0  0  0
  -30.5360  -16.5670   19.3320 N   0  0  0  0  0  0  0  0  0  0  0  0
  -31.2490  -14.7470   20.9430 C   0  0  0  0  0  0  0  0  0  0  0  0
  -31.0740  -12.3620   20.3380 C   0  0  0  0  0  2  0  0  0  0  0  0
  -30.3160  -12.2150   19.0030 C   0  0  0  0  0  2  0  0  0  0  0  0
  -28.7890  -12.2060   19.2250 C   0  0  0  0  0  2  0  0  0  0  0  0
  -28.2870  -13.2850   20.2260 C   0  0  0  0  0  3  0  0  0  0  0  0
  -29.1870  -13.3880   21.4720 C   0  0  0  0  0  2  0  0  0  0  0  0
  -30.5680  -13.5660   21.0200 N   0  0  0  0  0  0  0  0  0  0  0  0
  -32.4740  -14.7610   20.8190 O   0  0  0  0  0  0  0  0  0  0  0  0
  -25.8700  -14.0090   20.7050 C   0  0  0  0  0  0  0  0  0  0  0  0
  -24.7340  -13.2940   20.9700 C   0  0  0  0  0  0  0  0  0  0  0  0
  -25.1290  -11.9210   21.0000 C   0  0  0  0  0  0  0  0  0  0  0  0
  -26.8870  -13.0750   20.5850 N   0  0  0  0  0  0  0  0  0  0  0  0
  -26.4410  -11.8170   20.8280 N   0  0  0  0  0  0  0  0  0  0  0  0
  -24.3270  -10.6960   21.1250 C   0  0  0  0  0  0  0  0  0  0  0  0
  -24.6440   -9.7000   22.0750 C   0  0  0  0  0  3  0  0  0  0  0  0
  -23.8460   -8.5400   22.1890 C   0  0  0  0  0  3  0  0  0  0  0  0
  -22.7180   -8.3710   21.3520 C   0  0  0  0  0  0  0  0  0  0  0  0
  -22.4210   -9.3540   20.3920 C   0  0  0  0  0  3  0  0  0  0  0  0
  -23.2190  -10.5040   20.2760 C   0  0  0  0  0  3  0  0  0  0  0  0
  -21.9010   -7.2670   21.3730 O   0  0  0  0  0  0  0  0  0  0  0  0
  -21.7270   -6.5220   22.5130 C   0  0  0  0  0  0  0  0  0  0  0  0
  -21.2000   -7.0840   23.6960 C   0  0  0  0  0  3  0  0  0  0  0  0
  -20.9720   -6.2680   24.8230 C   0  0  0  0  0  3  0  0  0  0  0  0
  -21.2610   -4.8910   24.7650 C   0  0  0  0  0  0  0  0  0  0  0  0
  -21.7810   -4.3300   23.5870 C   0  0  0  0  0  3  0  0  0  0  0  0
  -22.0100   -5.1430   22.4630 C   0  0  0  0  0  0  0  0  0  0  0  0
  -22.4920   -4.5920   21.3220 F   0  0  0  0  0  0  0  0  0  0  0  0
  -21.0360   -4.1060   25.8450 F   0  0  0  0  0  0  0  0  0  0  0  0
  -23.3420  -13.8410   21.0910 C   0  0  0  0  0  0  0  0  0  0  0  0
  -22.5010  -13.2050   21.9000 N   0  0  0  0  0  0  0  0  0  0  0  0
  -23.0060  -14.8680   20.5030 O   0  0  0  0  0  0  0  0  0  0  0  0
  -22.7830  -12.3740   22.3970 H   0  0  0  0  0  0  0  0  0  0  0  0
  -21.5630  -13.5570   22.0250 H   0  0  0  0  0  0  0  0  0  0  0  0
  -26.1240  -15.3670   20.5340 N   0  0  0  0  0  0  0  0  0  0  0  0
  -25.3930  -16.0670   20.5660 H   0  0  0  0  0  0  0  0  0  0  0  0
  -27.0370  -15.7530   20.3290 H   0  0  0  0  0  0  0  0  0  0  0  0
  -29.0740  -22.9690   21.3240 C   0  0  0  0  0  2  0  0  0  0  0  0
  -29.3250  -25.1640   22.5030 C   0  0  0  0  0  1  0  0  0  0  0  0
  -27.0390  -24.4500   21.8160 C   0  0  0  0  0  1  0  0  0  0  0  0
  -28.5200  -24.4600   21.3860 C   0  0  2  0  0  0  0  0  0  0  0  0
  -28.6860  -25.3190   20.0770 C   0  0  0  0  0  2  0  0  0  0  0  0
  -28.6050  -26.7660   20.2660 O   0  0  0  0  0  0  0  0  0  0  0  0
  -24.5720  -31.8410   23.2730 C   0  0  0  0  0  0  0  0  0  0  0  0
  -27.4060  -27.4690   20.2120 C   0  0  0  0  0  0  0  0  0  0  0  0
  -23.4560  -30.4550   21.5560 C   0  0  0  0  0  3  0  0  0  0  0  0
  -24.9900  -28.9710   20.1530 C   0  0  0  0  0  0  0  0  0  0  0  0
  -25.9820  -30.8500   21.4660 C   0  0  0  0  0  2  0  0  0  0  0  0
  -26.1160  -29.4910   20.7990 C   0  0  0  0  0  0  0  0  0  0  0  0
  -27.3250  -28.7500   20.8200 C   0  0  0  0  0  3  0  0  0  0  0  0
  -26.2570  -26.9750   19.5530 C   0  0  0  0  0  3  0  0  0  0  0  0
  -25.0590  -27.7160   19.5240 C   0  0  0  0  0  3  0  0  0  0  0  0
  -23.7320  -29.8130   20.1700 C   0  0  0  0  0  2  0  0  0  0  0  0
  -24.6860  -31.0640   22.1570 N   0  0  0  0  0  0  0  0  0  0  0  0
  -23.4670  -32.0820   23.7780 O   0  0  0  0  0  0  0  0  0  0  0  0
  -22.7860  -29.4020   22.4700 C   0  0  0  0  0  0  0  0  0  0  0  0
  -21.4710  -29.2020   22.2910 N   0  0  0  0  0  0  0  0  0  0  0  0
  -23.4510  -28.7690   23.2930 O   0  0  0  0  0  0  0  0  0  0  0  0
  -20.9950  -29.7670   21.6010 H   0  0  0  0  0  0  0  0  0  0  0  0
  -18.0950  -27.9670   22.6690 C   0  0  0  0  0  0  0  0  0  0  0  0
  -20.6440  -28.2320   23.0100 C   0  0  0  0  0  3  0  0  0  0  0  0
  -20.7710  -26.8240   22.3860 C   0  0  0  0  0  2  0  0  0  0  0  0
  -19.6940  -26.5300   21.3350 C   0  0  0  0  0  2  0  0  0  0  0  0
  -18.2970  -26.6420   21.9520 C   0  0  0  0  0  2  0  0  0  0  0  0
  -19.1980  -28.7200   23.1530 C   0  0  0  0  0  0  0  0  0  0  0  0
  -18.9560  -29.9610   23.7810 C   0  0  0  0  0  3  0  0  0  0  0  0
  -17.6440  -30.4480   23.9340 C   0  0  0  0  0  3  0  0  0  0  0  0
  -16.5560  -29.6910   23.4680 C   0  0  0  0  0  3  0  0  0  0  0  0
  -16.7820  -28.4530   22.8410 C   0  0  0  0  0  3  0  0  0  0  0  0
  -25.8210  -32.4810   23.9540 C   0  0  0  0  0  3  0  0  0  0  0  0
  -25.5020  -33.8870   24.2330 N   0  0  0  0  0  0  0  0  0  0  0  0
  -25.8850  -34.9200   23.4690 C   0  0  0  0  0  0  0  0  0  0  0  0
  -26.6140  -34.7900   22.4820 O   0  0  0  0  0  0  0  0  0  0  0  0
  -24.8620  -34.0630   24.9920 H   0  0  0  0  0  0  0  0  0  0  0  0
  -24.1960  -36.7140   22.9640 C   0  0  0  0  0  1  0  0  0  0  0  0
  -25.3780  -36.3200   23.8640 C   0  0  0  0  0  3  0  0  0  0  0  0
  -27.4530  -37.2170   24.8190 C   0  0  0  0  0  1  0  0  0  0  0  0
  -26.4230  -37.3650   23.7960 N   0  0  0  0  0  0  0  0  0  0  0  0
  -26.0130  -38.2910   23.8900 H   0  0  0  0  0  0  0  0  0  0  0  0
  -26.2590  -31.7370   25.2750 C   0  0  1  0  0  0  0  0  0  0  0  0
  -25.1020  -31.5190   26.2790 C   0  0  0  0  0  1  0  0  0  0  0  0
  -26.8640  -30.3520   24.9470 C   0  0  0  0  0  1  0  0  0  0  0  0
  -27.3650  -32.5470   25.9930 C   0  0  0  0  0  1  0  0  0  0  0  0
  1  3  1  0
  1 48  1  0
  2  3  1  0
  3  5  1  0
  3  4  1  1
  7  8  2  0
  8  5  1  0
  8  6  1  0
  9 12  1  0
  9  6  2  0
 10 11  1  0
 11  7  1  0
 11  9  1  0
 12 18  1  0
 13 18  1  0
 14 15  1  0
 14 13  1  0
 16 15  1  0
 16 23  1  0
 16 17  1  0
 18 17  1  0
 19 12  2  0
 20 21  2  0
 21 22  1  0
 21 40  1  0
 22 25  1  0
 23 20  1  0
 23 24  1  0
 24 22  2  0
 25 26  1  0
 26 27  2  0
 28 31  1  0
 28 27  1  0
 29 28  2  0
 30 29  1  0
 30 25  2  0
 31 32  1  0
 32 33  1  0
 33 34  2  0
 35 34  1  0
 35 39  1  0
 36 35  2  0
 37 32  2  0
 37 36  1  0
 38 37  1  0
 40 41  1  0
 41 44  1  0
 41 43  1  0
 42 40  2  0
 45 46  1  0
 45 20  1  0
 47 45  1  0
 48 51  1  0
 51 50  1  1
 51 49  1  0
 52 53  1  0
 52 51  1  0
 54 65  2  0
 55 53  1  0
 55 60  1  0
 56 64  1  0
 56 66  1  0
 57 63  1  0
 57 59  1  0
 58 64  1  0
 59 60  2  0
 59 58  1  0
 61 55  2  0
 62 61  1  0
 62 57  2  0
 63 56  1  0
 64 54  1  0
 66 68  2  0
 67 66  1  0
 69 67  1  0
 70 79  2  0
 70 75  1  0
 71 67  1  0
 71 75  1  0
 72 71  1  0
 73 74  1  0
 73 72  1  0
 74 70  1  0
 75 76  2  0
 76 77  1  0
 78 77  2  0
 79 78  1  0
 80 54  1  0
 80 81  1  0
 80 90  1  0
 81 84  1  0
 82 86  1  0
 82 81  1  0
 83 82  2  0
 86 85  1  0
 88 86  1  0
 88 89  1  0
 88 87  1  0
 90 93  1  1
 90 91  1  0
 92 90  1  0
M  ISO  4   9 100  12 100  52 101  53 101
M  END
>  <TORSDO>  (58) 
F 22

>  <SCORE>  (58) 
-12.430

>  <name>  (58) 
57

>  <ligand_id>  (58) 
57

>  <original_smiles>  (58) 
[H]c1c([H])c([H])c2c(c1[H])C([H])([H])C([H])([H])C([H])([H])C2([H])N([H])C(=O)C1([H])N(C(=O)C([H])(N([H])C(=O)C([H])(N([H])C([H])([H])[H])C([H])([H])[H])C(C([H])([H])[H])(C([H])([H])[H])C([H])([H])[H])C([H])([H])c2c([H])c(OC([H])([H])C(C([H])([H])[H])(C([H])([H])[H])C([H])([H])C([H])([H])[N+]([H])(C([H])([H])[H])C([H])([H])c3c([H])c(C(=O)N4C([H])([H])C([H])([H])C([H])([H])C([H])(n5nc(-c6c([H])c([H])c(Oc7c([H])c([H])c(F)c([H])c7F)c([H])c6[H])c(C(=O)N([H])[H])c5N([H])[H])C4([H])[H])n(C([H])([H])[H])c3[H])c([H])c([H])c2C1([H])[H]

>  <smiles>  (58) 
[H]c1c([H])c([H])c2c(c1[H])C([H])([H])C([H])([H])C([H])([H])C2([H])N([H])C(=O)C1([H])N(C(=O)C([H])(N([H])C(=O)C([H])(N([H])C([H])([H])[H])C([H])([H])[H])C(C([H])([H])[H])(C([H])([H])[H])C([H])([H])[H])C([H])([H])c2c([H])c(OC([H])([H])C(C([H])([H])[H])(C([H])([H])[H])C([H])([H])C([H])([H])[N+]([H])(C([H])([H])[H])C([H])([H])c3c([H])c(C(=O)N4C([H])([H])C([H])([H])C([H])([H])C([H])(n5nc(-c6c([H])c([H])c(Oc7c([H])c([H])c(F)c([H])c7F)c([H])c6[H])c(C(=O)N([H])[H])c5N([H])[H])C4([H])[H])n(C([H])([H])[H])c3[H])c([H])c([H])c2C1([H])[H]

$$$$
58:0:0
     RDKit          3D

 92100  0  0  1  0  0  0  0  0999 V2000
  -30.0560  -18.6320   19.3280 C   0  0  0  0  0  3  0  0  0  0  0  0
  -30.3180  -20.0120   19.1690 C   0  0  0  0  0  3  0  0  0  0  0  0
  -29.8740  -18.9530   21.7220 C   0  0  0  0  0  3  0  0  0  0  0  0
  -29.8240  -18.0870   20.6090 C   0  0  0  0  0  0  0  0  0  0  0  0
  -30.1420  -20.3370   21.5740 C   0  0  0  0  0  0  0  0  0  0  0  0
  -30.3680  -20.8850   20.2790 C   0  0  0  0  0  0  0  0  0  0  0  0
  -30.1670  -21.1890   22.8340 C   0  0  0  0  0  1  0  0  0  0  0  0
  -31.8340  -22.7590   20.7440 C   0  0  0  0  0  1  0  0  0  0  0  0
  -30.6530  -22.2540   20.0470 N   0  0  0  0  0  0  0  0  0  0  0  0
  -29.4750  -23.1220   19.8900 C   0  0  0  0  0  2  0  0  0  0  0  0
  -29.7660  -24.6530   19.9230 C   0  0  0  0  0  2  0  0  0  0  0  0
  -28.5260  -25.5020   19.5590 C   0  0  0  0  0  2  0  0  0  0  0  0
  -28.6020  -26.8770   19.9900 O   0  0  0  0  0  0  0  0  0  0  0  0
  -24.5720  -31.7400   23.3150 C   0  0  0  0  0  0  0  0  0  0  0  0
  -27.4150  -27.5960   19.9830 C   0  0  0  0  0  0  0  0  0  0  0  0
  -23.4500  -30.4400   21.5380 C   0  0  0  0  0  3  0  0  0  0  0  0
  -24.9830  -29.0550   20.0430 C   0  0  0  0  0  0  0  0  0  0  0  0
  -25.9740  -30.8680   21.4450 C   0  0  0  0  0  2  0  0  0  0  0  0
  -26.1130  -29.5540   20.7030 C   0  0  0  0  0  0  0  0  0  0  0  0
  -27.3320  -28.8330   20.6680 C   0  0  0  0  0  3  0  0  0  0  0  0
  -26.2600  -27.1230   19.3140 C   0  0  0  0  0  3  0  0  0  0  0  0
  -25.0530  -27.8400   19.3460 C   0  0  0  0  0  3  0  0  0  0  0  0
  -23.7160  -29.8770   20.1180 C   0  0  0  0  0  2  0  0  0  0  0  0
  -24.6820  -31.0270   22.1590 N   0  0  0  0  0  0  0  0  0  0  0  0
  -23.4690  -31.9430   23.8410 O   0  0  0  0  0  0  0  0  0  0  0  0
  -22.8000  -29.3310   22.3970 C   0  0  0  0  0  0  0  0  0  0  0  0
  -21.4790  -29.1440   22.2350 N   0  0  0  0  0  0  0  0  0  0  0  0
  -23.4810  -28.6450   23.1640 O   0  0  0  0  0  0  0  0  0  0  0  0
  -20.9910  -29.7540   21.5950 H   0  0  0  0  0  0  0  0  0  0  0  0
  -18.1060  -27.9080   22.6190 C   0  0  0  0  0  0  0  0  0  0  0  0
  -20.6640  -28.1350   22.9090 C   0  0  0  0  0  3  0  0  0  0  0  0
  -20.7640  -26.7680   22.1920 C   0  0  0  0  0  2  0  0  0  0  0  0
  -19.6600  -26.5490   21.1540 C   0  0  0  0  0  2  0  0  0  0  0  0
  -18.2790  -26.6310   21.8120 C   0  0  0  0  0  2  0  0  0  0  0  0
  -19.2260  -28.6220   23.1200 C   0  0  0  0  0  0  0  0  0  0  0  0
  -19.0110  -29.8200   23.8350 C   0  0  0  0  0  3  0  0  0  0  0  0
  -17.7080  -30.3050   24.0510 C   0  0  0  0  0  3  0  0  0  0  0  0
  -16.6020  -29.5860   23.5670 C   0  0  0  0  0  3  0  0  0  0  0  0
  -16.8010  -28.3900   22.8560 C   0  0  0  0  0  3  0  0  0  0  0  0
  -25.8220  -32.3540   24.0200 C   0  0  0  0  0  3  0  0  0  0  0  0
  -25.5230  -33.7650   24.3000 N   0  0  0  0  0  0  0  0  0  0  0  0
  -25.8900  -34.7890   23.5180 C   0  0  0  0  0  0  0  0  0  0  0  0
  -26.5870  -34.6460   22.5100 O   0  0  0  0  0  0  0  0  0  0  0  0
  -24.9090  -33.9520   25.0800 H   0  0  0  0  0  0  0  0  0  0  0  0
  -24.1880  -36.5850   23.0700 C   0  0  0  0  0  1  0  0  0  0  0  0
  -25.4080  -36.1960   23.9200 C   0  0  0  0  0  3  0  0  0  0  0  0
  -27.5260  -37.0960   24.7760 C   0  0  0  0  0  1  0  0  0  0  0  0
  -26.4530  -37.2350   23.7940 N   0  0  0  0  0  0  0  0  0  0  0  0
  -26.0520  -38.1640   23.8920 H   0  0  0  0  0  0  0  0  0  0  0  0
  -26.2240  -31.5950   25.3440 C   0  0  1  0  0  0  0  0  0  0  0  0
  -25.0510  -31.4080   26.3350 C   0  0  0  0  0  1  0  0  0  0  0  0
  -26.7940  -30.1950   25.0170 C   0  0  0  0  0  1  0  0  0  0  0  0
  -27.3480  -32.3690   26.0710 C   0  0  0  0  0  1  0  0  0  0  0  0
  -29.4360  -16.6080   20.7820 C   0  0  0  0  0  2  0  0  0  0  0  0
  -30.9800  -14.7420   20.3440 C   0  0  0  0  0  0  0  0  0  0  0  0
  -30.6280  -12.5930   19.1680 C   0  0  0  0  0  2  0  0  0  0  0  0
  -29.6570  -12.7690   17.9840 C   0  0  0  0  0  2  0  0  0  0  0  0
  -28.1980  -12.6090   18.4490 C   0  0  0  0  0  2  0  0  0  0  0  0
  -27.8770  -13.4630   19.7040 C   0  0  0  0  0  3  0  0  0  0  0  0
  -28.9580  -13.2810   20.7940 C   0  0  0  0  0  2  0  0  0  0  0  0
  -30.2710  -13.5850   20.1960 N   0  0  0  0  0  0  0  0  0  0  0  0
  -32.0590  -14.9330   19.7740 O   0  0  0  0  0  0  0  0  0  0  0  0
  -31.3490  -16.1130   22.3050 C   0  0  0  0  0  1  0  0  0  0  0  0
  -30.4900  -15.6600   21.2090 N   0  0  0  0  0  0  0  0  0  0  0  0
  -25.5120  -14.0710   20.5110 C   0  0  0  0  0  0  0  0  0  0  0  0
  -24.4450  -13.2970   20.8780 C   0  0  0  0  0  0  0  0  0  0  0  0
  -24.8870  -11.9420   20.7780 C   0  0  0  0  0  0  0  0  0  0  0  0
  -26.5380  -13.1870   20.2130 N   0  0  0  0  0  0  0  0  0  0  0  0
  -26.1660  -11.9000   20.4300 N   0  0  0  0  0  0  0  0  0  0  0  0
  -24.1500  -10.6810   20.9360 C   0  0  0  0  0  0  0  0  0  0  0  0
  -24.5340   -9.7170   21.8930 C   0  0  0  0  0  3  0  0  0  0  0  0
  -23.8000   -8.5200   22.0380 C   0  0  0  0  0  3  0  0  0  0  0  0
  -22.6680   -8.2800   21.2240 C   0  0  0  0  0  0  0  0  0  0  0  0
  -22.3030   -9.2340   20.2570 C   0  0  0  0  0  3  0  0  0  0  0  0
  -23.0380  -10.4210   20.1100 C   0  0  0  0  0  3  0  0  0  0  0  0
  -21.9080   -7.1350   21.2770 O   0  0  0  0  0  0  0  0  0  0  0  0
  -21.6740   -6.4820   22.4600 C   0  0  0  0  0  0  0  0  0  0  0  0
  -21.0060   -7.1060   23.5360 C   0  0  0  0  0  3  0  0  0  0  0  0
  -20.7250   -6.3750   24.7080 C   0  0  0  0  0  3  0  0  0  0  0  0
  -21.1000   -5.0220   24.8010 C   0  0  0  0  0  0  0  0  0  0  0  0
  -21.7600   -4.3980   23.7290 C   0  0  0  0  0  3  0  0  0  0  0  0
  -22.0440   -5.1260   22.5600 C   0  0  0  0  0  0  0  0  0  0  0  0
  -22.6610   -4.5140   21.5210 F   0  0  0  0  0  0  0  0  0  0  0  0
  -20.8230   -4.3180   25.9240 F   0  0  0  0  0  0  0  0  0  0  0  0
  -23.0620  -13.7780   21.2120 C   0  0  0  0  0  0  0  0  0  0  0  0
  -22.3500  -13.0550   22.0690 N   0  0  0  0  0  0  0  0  0  0  0  0
  -22.6220  -14.8310   20.7500 O   0  0  0  0  0  0  0  0  0  0  0  0
  -22.7170  -12.2020   22.4640 H   0  0  0  0  0  0  0  0  0  0  0  0
  -21.4260  -13.3600   22.3370 H   0  0  0  0  0  0  0  0  0  0  0  0
  -25.6890  -15.4460   20.3840 N   0  0  0  0  0  0  0  0  0  0  0  0
  -24.9310  -16.1010   20.5380 H   0  0  0  0  0  0  0  0  0  0  0  0
  -26.5270  -15.8890   20.0320 H   0  0  0  0  0  0  0  0  0  0  0  0
  1  4  1  0
  2  1  2  0
  2  6  1  0
  4 54  1  0
  4  3  2  0
  5  3  1  0
  5  7  1  0
  6  5  2  0
  9  6  1  0
  9  8  1  0
 10 11  1  0
 10  9  1  0
 12 11  1  0
 12 13  1  0
 14 25  2  0
 15 13  1  0
 15 20  1  0
 16 24  1  0
 16 26  1  0
 17 23  1  0
 17 19  1  0
 18 24  1  0
 19 18  1  0
 20 19  2  0
 21 22  1  0
 21 15  2  0
 22 17  2  0
 23 16  1  0
 24 14  1  0
 26 28  2  0
 27 26  1  0
 29 27  1  0
 30 39  2  0
 30 35  1  0
 31 27  1  0
 31 35  1  0
 32 31  1  0
 33 34  1  0
 33 32  1  0
 34 30  1  0
 35 36  2  0
 36 37  1  0
 38 37  2  0
 39 38  1  0
 40 14  1  0
 40 41  1  0
 40 50  1  0
 41 44  1  0
 42 46  1  0
 42 41  1  0
 43 42  2  0
 46 45  1  0
 48 49  1  0
 48 46  1  0
 48 47  1  0
 50 53  1  1
 50 51  1  0
 52 50  1  0
 54 64  1  0
 55 64  1  0
 56 61  1  0
 57 58  1  0
 57 56  1  0
 59 58  1  0
 59 68  1  0
 59 60  1  0
 61 55  1  0
 61 60  1  0
 62 55  2  0
 64 63  1  0
 65 66  2  0
 66 85  1  0
 67 66  1  0
 67 70  1  0
 68 69  1  0
 68 65  1  0
 69 67  2  0
 70 71  1  0
 71 72  2  0
 73 76  1  0
 73 72  1  0
 74 73  2  0
 75 74  1  0
 75 70  2  0
 76 77  1  0
 77 82  2  0
 77 78  1  0
 78 79  2  0
 79 80  1  0
 80 84  1  0
 81 80  2  0
 82 81  1  0
 83 82  1  0
 85 86  1  0
 86 89  1  0
 86 88  1  0
 87 85  2  0
 90 65  1  0
 90 91  1  0
 92 90  1  0
M  ISO  4  12 101  13 101  55 100  64 100
M  END
>  <TORSDO>  (59) 
F 21

>  <SCORE>  (59) 
-12.247

>  <name>  (59) 
58

>  <ligand_id>  (59) 
58

>  <original_smiles>  (59) 
[H]c1c([H])c([H])c2c(c1[H])C([H])([H])C([H])([H])C([H])([H])C2([H])N([H])C(=O)C1([H])N(C(=O)C([H])(N([H])C(=O)C([H])(N([H])C([H])([H])[H])C([H])([H])[H])C(C([H])([H])[H])(C([H])([H])[H])C([H])([H])[H])C([H])([H])c2c([H])c(OC([H])([H])C([H])([H])C([H])([H])N(c3c([H])c([H])c(C([H])([H])N(C(=O)N4C([H])([H])C([H])([H])C([H])([H])C([H])(n5nc(-c6c([H])c([H])c(Oc7c([H])c([H])c(F)c([H])c7F)c([H])c6[H])c(C(=O)N([H])[H])c5N([H])[H])C4([H])[H])C([H])([H])[H])c([H])c3C([H])([H])[H])C([H])([H])[H])c([H])c([H])c2C1([H])[H]

>  <smiles>  (59) 
[H]c1c([H])c([H])c2c(c1[H])C([H])([H])C([H])([H])C([H])([H])C2([H])N([H])C(=O)C1([H])N(C(=O)C([H])(N([H])C(=O)C([H])(N([H])C([H])([H])[H])C([H])([H])[H])C(C([H])([H])[H])(C([H])([H])[H])C([H])([H])[H])C([H])([H])c2c([H])c(OC([H])([H])C([H])([H])C([H])([H])N(c3c([H])c([H])c(C([H])([H])N(C(=O)N4C([H])([H])C([H])([H])C([H])([H])C([H])(n5nc(-c6c([H])c([H])c(Oc7c([H])c([H])c(F)c([H])c7F)c([H])c6[H])c(C(=O)N([H])[H])c5N([H])[H])C4([H])[H])C([H])([H])[H])c([H])c3C([H])([H])[H])C([H])([H])[H])c([H])c([H])c2C1([H])[H]

$$$$
59:0:0
     RDKit          3D

 92100  0  0  1  0  0  0  0  0999 V2000
  -28.8240  -20.6310   18.3240 C   0  0  0  0  0  3  0  0  0  0  0  0
  -28.4690  -19.8790   17.1990 C   0  0  0  0  0  3  0  0  0  0  0  0
  -28.7730  -17.8660   18.4870 C   0  0  0  0  0  3  0  0  0  0  0  0
  -29.1260  -18.5720   19.6640 C   0  0  0  0  0  0  0  0  0  0  0  0
  -29.1040  -20.0730   19.6030 C   0  0  0  0  0  0  0  0  0  0  0  0
  -28.4240  -18.4900   17.2860 C   0  0  0  0  0  0  0  0  0  0  0  0
  -28.0550  -17.7490   16.2160 F   0  0  0  0  0  0  0  0  0  0  0  0
  -30.0520  -20.7870   21.7880 C   0  0  0  0  0  1  0  0  0  0  0  0
  -29.3340  -21.1400   20.5760 N   0  0  0  0  0  0  0  0  0  0  0  0
  -28.5200  -22.4510   20.6170 C   0  0  0  0  0  2  0  0  0  0  0  0
  -29.1850  -23.9390   20.4900 C   0  0  0  0  0  3  0  0  0  0  0  0
  -28.1800  -25.2050   20.2980 C   0  0  0  0  0  3  0  0  0  0  0  0
  -28.5180  -26.6850   20.3690 O   0  0  0  0  0  0  0  0  0  0  0  0
  -24.6880  -32.0750   23.4440 C   0  0  0  0  0  0  0  0  0  0  0  0
  -27.4380  -27.6080   20.2990 C   0  0  0  0  0  0  0  0  0  0  0  0
  -23.5540  -30.7070   21.7360 C   0  0  0  0  0  3  0  0  0  0  0  0
  -25.0660  -29.2440   20.2820 C   0  0  0  0  0  0  0  0  0  0  0  0
  -26.0980  -31.0600   21.6320 C   0  0  0  0  0  2  0  0  0  0  0  0
  -26.2180  -29.7050   20.9330 C   0  0  0  0  0  0  0  0  0  0  0  0
  -27.4050  -28.9000   20.9360 C   0  0  0  0  0  3  0  0  0  0  0  0
  -26.2640  -27.2390   19.6030 C   0  0  0  0  0  3  0  0  0  0  0  0
  -25.0980  -28.0220   19.6040 C   0  0  0  0  0  3  0  0  0  0  0  0
  -23.8150  -30.0970   20.3360 C   0  0  0  0  0  2  0  0  0  0  0  0
  -24.7980  -31.2970   22.3270 N   0  0  0  0  0  0  0  0  0  0  0  0
  -23.5880  -32.3150   23.9610 O   0  0  0  0  0  0  0  0  0  0  0  0
  -22.8930  -29.6400   22.6430 C   0  0  0  0  0  0  0  0  0  0  0  0
  -21.5870  -29.3980   22.4440 N   0  0  0  0  0  0  0  0  0  0  0  0
  -23.5590  -29.0370   23.4890 O   0  0  0  0  0  0  0  0  0  0  0  0
  -21.1100  -29.9350   21.7350 H   0  0  0  0  0  0  0  0  0  0  0  0
  -18.2600  -28.0000   22.7270 C   0  0  0  0  0  0  0  0  0  0  0  0
  -20.7760  -28.4100   23.1600 C   0  0  0  0  0  3  0  0  0  0  0  0
  -21.0030  -26.9910   22.5890 C   0  0  0  0  0  2  0  0  0  0  0  0
  -19.9870  -26.6090   21.5070 C   0  0  0  0  0  2  0  0  0  0  0  0
  -18.5590  -26.6670   22.0610 C   0  0  0  0  0  2  0  0  0  0  0  0
  -19.3030  -28.8240   23.2290 C   0  0  0  0  0  0  0  0  0  0  0  0
  -18.9730  -30.0670   23.8100 C   0  0  0  0  0  3  0  0  0  0  0  0
  -17.6340  -30.4910   23.8940 C   0  0  0  0  0  3  0  0  0  0  0  0
  -16.6040  -29.6650   23.4160 C   0  0  0  0  0  3  0  0  0  0  0  0
  -16.9170  -28.4220   22.8380 C   0  0  0  0  0  3  0  0  0  0  0  0
  -25.9420  -32.7180   24.1130 C   0  0  0  0  0  3  0  0  0  0  0  0
  -25.6100  -34.1160   24.4280 N   0  0  0  0  0  0  0  0  0  0  0  0
  -25.9420  -35.1680   23.6690 C   0  0  0  0  0  0  0  0  0  0  0  0
  -26.6280  -35.0640   22.6470 O   0  0  0  0  0  0  0  0  0  0  0  0
  -25.0080  -34.2710   25.2220 H   0  0  0  0  0  0  0  0  0  0  0  0
  -24.1880  -36.9310   23.2920 C   0  0  0  0  0  1  0  0  0  0  0  0
  -25.4310  -36.5540   24.1110 C   0  0  0  0  0  3  0  0  0  0  0  0
  -27.5410  -37.4870   24.9480 C   0  0  0  0  0  1  0  0  0  0  0  0
  -26.4480  -37.6220   23.9900 N   0  0  0  0  0  0  0  0  0  0  0  0
  -26.0270  -38.5380   24.1180 H   0  0  0  0  0  0  0  0  0  0  0  0
  -26.4130  -31.9550   25.4120 C   0  0  1  0  0  0  0  0  0  0  0  0
  -25.2720  -31.6680   26.4130 C   0  0  0  0  0  1  0  0  0  0  0  0
  -27.0680  -30.6010   25.0500 C   0  0  0  0  0  1  0  0  0  0  0  0
  -27.5010  -32.7800   26.1380 C   0  0  0  0  0  1  0  0  0  0  0  0
  -29.3800  -17.4690   20.7920 C   0  0  0  0  0  2  0  0  0  0  0  0
  -30.9420  -15.2440   20.1680 C   0  0  0  0  0  0  0  0  0  0  0  0
  -30.5340  -13.0040   19.1240 C   0  0  0  0  0  2  0  0  0  0  0  0
  -29.5760  -13.0870   17.9220 C   0  0  0  0  0  2  0  0  0  0  0  0
  -28.1380  -12.8710   18.4080 C   0  0  0  0  0  2  0  0  0  0  0  0
  -27.8020  -13.7330   19.6510 C   0  0  0  0  0  3  0  0  0  0  0  0
  -28.9050  -13.7350   20.7350 C   0  0  0  0  0  2  0  0  0  0  0  0
  -30.1620  -14.0980   20.0760 N   0  0  0  0  0  0  0  0  0  0  0  0
  -32.0920  -15.1240   19.7340 O   0  0  0  0  0  0  0  0  0  0  0  0
  -31.7630  -17.4250   20.8620 C   0  0  0  0  0  1  0  0  0  0  0  0
  -30.5940  -16.5360   20.6570 N   0  0  0  0  0  0  0  0  0  0  0  0
  -25.4560  -14.2420   20.5100 C   0  0  0  0  0  0  0  0  0  0  0  0
  -24.4170  -13.4360   20.8880 C   0  0  0  0  0  0  0  0  0  0  0  0
  -24.8960  -12.0950   20.7810 C   0  0  0  0  0  0  0  0  0  0  0  0
  -26.4960  -13.3890   20.1950 N   0  0  0  0  0  0  0  0  0  0  0  0
  -26.1740  -12.0880   20.4220 N   0  0  0  0  0  0  0  0  0  0  0  0
  -24.1910  -10.8160   20.9460 C   0  0  0  0  0  0  0  0  0  0  0  0
  -24.6130   -9.8520   21.8890 C   0  0  0  0  0  3  0  0  0  0  0  0
  -23.9040   -8.6410   22.0420 C   0  0  0  0  0  3  0  0  0  0  0  0
  -22.7600   -8.3830   21.2490 C   0  0  0  0  0  0  0  0  0  0  0  0
  -22.3580   -9.3330   20.2940 C   0  0  0  0  0  3  0  0  0  0  0  0
  -23.0670  -10.5370   20.1410 C   0  0  0  0  0  3  0  0  0  0  0  0
  -22.0260   -7.2240   21.3140 O   0  0  0  0  0  0  0  0  0  0  0  0
  -21.8810   -6.5260   22.4860 C   0  0  0  0  0  0  0  0  0  0  0  0
  -21.2700   -7.0990   23.6230 C   0  0  0  0  0  3  0  0  0  0  0  0
  -21.0780   -6.3240   24.7840 C   0  0  0  0  0  3  0  0  0  0  0  0
  -21.4860   -4.9770   24.8090 C   0  0  0  0  0  0  0  0  0  0  0  0
  -22.0890   -4.4030   23.6750 C   0  0  0  0  0  3  0  0  0  0  0  0
  -22.2830   -5.1760   22.5170 C   0  0  0  0  0  0  0  0  0  0  0  0
  -22.8440   -4.6120   21.4210 F   0  0  0  0  0  0  0  0  0  0  0  0
  -21.2930   -4.2310   25.9210 F   0  0  0  0  0  0  0  0  0  0  0  0
  -23.0280  -13.8830   21.2350 C   0  0  0  0  0  0  0  0  0  0  0  0
  -22.3580  -13.1520   22.1180 N   0  0  0  0  0  0  0  0  0  0  0  0
  -22.5510  -14.9120   20.7580 O   0  0  0  0  0  0  0  0  0  0  0  0
  -22.7660  -12.3180   22.5160 H   0  0  0  0  0  0  0  0  0  0  0  0
  -21.4270  -13.4250   22.4010 H   0  0  0  0  0  0  0  0  0  0  0  0
  -25.5990  -15.6200   20.3800 N   0  0  0  0  0  0  0  0  0  0  0  0
  -24.8250  -16.2570   20.5310 H   0  0  0  0  0  0  0  0  0  0  0  0
  -26.4190  -16.0740   20.0010 H   0  0  0  0  0  0  0  0  0  0  0  0
  1  5  1  0
  2  6  1  0
  2  1  2  0
  3  4  1  0
  4 54  1  0
  5  4  2  0
  5  9  1  0
  6  3  2  0
  7  6  1  0
  9 10  1  0
  9  8  1  0
 11 10  1  0
 12 13  1  0
 12 11  2  0
 14 25  2  0
 15 13  1  0
 15 20  1  0
 16 24  1  0
 16 26  1  0
 17 23  1  0
 17 19  1  0
 18 24  1  0
 19 20  2  0
 19 18  1  0
 21 22  1  0
 21 15  2  0
 22 17  2  0
 23 16  1  0
 24 14  1  0
 26 28  2  0
 27 26  1  0
 29 27  1  0
 30 39  2  0
 30 35  1  0
 31 27  1  0
 31 35  1  0
 32 31  1  0
 33 34  1  0
 33 32  1  0
 34 30  1  0
 35 36  2  0
 36 37  1  0
 38 37  2  0
 39 38  1  0
 40 14  1  0
 40 41  1  0
 40 50  1  0
 41 44  1  0
 42 46  1  0
 42 41  1  0
 43 42  2  0
 46 45  1  0
 48 46  1  0
 48 49  1  0
 48 47  1  0
 50 53  1  1
 50 51  1  0
 52 50  1  0
 55 64  1  0
 56 61  1  0
 57 58  1  0
 57 56  1  0
 59 58  1  0
 59 68  1  0
 59 60  1  0
 61 55  1  0
 61 60  1  0
 62 55  2  0
 64 54  1  0
 64 63  1  0
 65 66  2  0
 66 85  1  0
 67 66  1  0
 67 70  1  0
 68 69  1  0
 68 65  1  0
 69 67  2  0
 70 71  1  0
 71 72  2  0
 73 76  1  0
 73 72  1  0
 74 73  2  0
 75 74  1  0
 75 70  2  0
 76 77  1  0
 77 82  2  0
 77 78  1  0
 78 79  2  0
 79 80  1  0
 80 84  1  0
 81 80  2  0
 82 81  1  0
 83 82  1  0
 85 86  1  0
 86 89  1  0
 86 88  1  0
 87 85  2  0
 90 65  1  0
 90 91  1  0
 92 90  1  0
M  ISO  4  12 101  13 101  55 100  64 100
M  END
>  <TORSDO>  (60) 
F 21

>  <SCORE>  (60) 
-12.859

>  <name>  (60) 
59

>  <ligand_id>  (60) 
59

>  <original_smiles>  (60) 
[H]c1c([H])c([H])c2c(c1[H])C([H])([H])C([H])([H])C([H])([H])C2([H])N([H])C(=O)C1([H])N(C(=O)C([H])(N([H])C(=O)C([H])(N([H])C([H])([H])[H])C([H])([H])[H])C(C([H])([H])[H])(C([H])([H])[H])C([H])([H])[H])C([H])([H])c2c([H])c(OC([H])([H])C([H])([H])C([H])([H])N(c3c([H])c([H])c(F)c([H])c3C([H])([H])N(C(=O)N3C([H])([H])C([H])([H])C([H])([H])C([H])(n4nc(-c5c([H])c([H])c(Oc6c([H])c([H])c(F)c([H])c6F)c([H])c5[H])c(C(=O)N([H])[H])c4N([H])[H])C3([H])[H])C([H])([H])[H])C([H])([H])[H])c([H])c([H])c2C1([H])[H]

>  <smiles>  (60) 
[H]c1c([H])c([H])c2c(c1[H])C([H])([H])C([H])([H])C([H])([H])C2([H])N([H])C(=O)C1([H])N(C(=O)C([H])(N([H])C(=O)C([H])(N([H])C([H])([H])[H])C([H])([H])[H])C(C([H])([H])[H])(C([H])([H])[H])C([H])([H])[H])C([H])([H])c2c([H])c(OC([H])([H])C([H])([H])C([H])([H])N(c3c([H])c([H])c(F)c([H])c3C([H])([H])N(C(=O)N3C([H])([H])C([H])([H])C([H])([H])C([H])(n4nc(-c5c([H])c([H])c(Oc6c([H])c([H])c(F)c([H])c6F)c([H])c5[H])c(C(=O)N([H])[H])c4N([H])[H])C3([H])[H])C([H])([H])[H])C([H])([H])[H])c([H])c([H])c2C1([H])[H]

$$$$
60:0:0
     RDKit          3D

 92100  0  0  1  0  0  0  0  0999 V2000
  -28.8330  -22.5080   19.9720 C   0  0  0  0  0  0  0  0  0  0  0  0
  -29.5940  -21.5400   20.5650 N   0  0  0  0  0  0  0  0  0  0  0  0
  -27.8430  -22.2310   19.2910 O   0  0  0  0  0  0  0  0  0  0  0  0
  -30.3490  -21.9060   21.1290 H   0  0  0  0  0  0  0  0  0  0  0  0
  -28.8950  -17.8890   19.5560 C   0  0  0  0  0  3  0  0  0  0  0  0
  -28.7600  -19.3020   19.6350 C   0  0  0  0  0  3  0  0  0  0  0  0
  -30.6010  -17.9220   21.2570 C   0  0  0  0  0  3  0  0  0  0  0  0
  -29.8530  -17.1580   20.3230 C   0  0  0  0  0  0  0  0  0  0  0  0
  -29.5720  -20.0770   20.5070 C   0  0  0  0  0  0  0  0  0  0  0  0
  -30.4610  -19.3410   21.3450 C   0  0  0  0  0  0  0  0  0  0  0  0
  -31.4520  -20.1900   22.4790 Cl  0  0  0  0  0  0  0  0  0  0  0  0
  -30.7570  -14.7710   20.7010 C   0  0  0  0  0  0  0  0  0  0  0  0
  -30.6020  -12.4440   19.8710 C   0  0  0  0  0  2  0  0  0  0  0  0
  -29.7380  -12.3800   18.5900 C   0  0  0  0  0  2  0  0  0  0  0  0
  -28.2370  -12.3060   18.9200 C   0  0  0  0  0  2  0  0  0  0  0  0
  -27.7830  -13.2820   20.0380 C   0  0  0  0  0  3  0  0  0  0  0  0
  -28.7690  -13.2890   21.2260 C   0  0  0  0  0  2  0  0  0  0  0  0
  -30.1030  -13.5660   20.6840 N   0  0  0  0  0  0  0  0  0  0  0  0
  -31.9880  -14.8120   20.7490 O   0  0  0  0  0  0  0  0  0  0  0  0
  -30.4660  -15.6810   18.5170 C   0  0  0  0  0  1  0  0  0  0  0  0
  -30.1430  -15.7640   19.9600 N   0  0  0  0  0  0  0  0  0  0  0  0
  -25.3530  -13.8970   20.6060 C   0  0  0  0  0  0  0  0  0  0  0  0
  -24.2600  -13.1280   20.9180 C   0  0  0  0  0  0  0  0  0  0  0  0
  -24.7250  -11.7800   20.9550 C   0  0  0  0  0  0  0  0  0  0  0  0
  -26.4090  -13.0130   20.4610 N   0  0  0  0  0  0  0  0  0  0  0  0
  -26.0350  -11.7380   20.7410 N   0  0  0  0  0  0  0  0  0  0  0  0
  -23.9900  -10.5170   21.1230 C   0  0  0  0  0  0  0  0  0  0  0  0
  -24.3700   -9.5590   22.0870 C   0  0  0  0  0  3  0  0  0  0  0  0
  -23.6340   -8.3650   22.2450 C   0  0  0  0  0  3  0  0  0  0  0  0
  -22.4990   -8.1210   21.4370 C   0  0  0  0  0  0  0  0  0  0  0  0
  -22.1340   -9.0660   20.4620 C   0  0  0  0  0  3  0  0  0  0  0  0
  -22.8740  -10.2510   20.3030 C   0  0  0  0  0  3  0  0  0  0  0  0
  -21.7420   -6.9770   21.5020 O   0  0  0  0  0  0  0  0  0  0  0  0
  -21.6480   -6.2380   22.6520 C   0  0  0  0  0  0  0  0  0  0  0  0
  -21.1760   -6.7980   23.8590 C   0  0  0  0  0  3  0  0  0  0  0  0
  -21.0270   -5.9880   25.0010 C   0  0  0  0  0  3  0  0  0  0  0  0
  -21.3400   -4.6160   24.9370 C   0  0  0  0  0  0  0  0  0  0  0  0
  -21.8020   -4.0550   23.7330 C   0  0  0  0  0  3  0  0  0  0  0  0
  -21.9500   -4.8630   22.5930 C   0  0  0  0  0  0  0  0  0  0  0  0
  -22.3760   -4.3130   21.4300 F   0  0  0  0  0  0  0  0  0  0  0  0
  -21.1880   -3.8330   26.0310 F   0  0  0  0  0  0  0  0  0  0  0  0
  -22.8460  -13.6080   21.0740 C   0  0  0  0  0  0  0  0  0  0  0  0
  -22.0570  -12.9300   21.9020 N   0  0  0  0  0  0  0  0  0  0  0  0
  -22.4450  -14.6180   20.4990 O   0  0  0  0  0  0  0  0  0  0  0  0
  -22.3880  -12.1070   22.3850 H   0  0  0  0  0  0  0  0  0  0  0  0
  -21.1070  -13.2390   22.0540 H   0  0  0  0  0  0  0  0  0  0  0  0
  -25.5340  -15.2580   20.4000 N   0  0  0  0  0  0  0  0  0  0  0  0
  -24.7780  -15.9350   20.4340 H   0  0  0  0  0  0  0  0  0  0  0  0
  -26.4190  -15.6750   20.1430 H   0  0  0  0  0  0  0  0  0  0  0  0
  -29.2180  -24.0270   20.1690 C   0  0  0  0  0  3  0  0  0  0  0  0
  -28.0630  -25.0810   19.9220 C   0  0  0  0  0  3  0  0  0  0  0  0
  -28.3020  -26.5300   20.0930 O   0  0  0  0  0  0  0  0  0  0  0  0
  -24.5230  -31.8800   23.1370 C   0  0  0  0  0  0  0  0  0  0  0  0
  -27.1750  -27.3650   20.0550 C   0  0  0  0  0  0  0  0  0  0  0  0
  -23.3330  -30.4680   21.5040 C   0  0  0  0  0  3  0  0  0  0  0  0
  -24.7920  -28.9430   20.0730 C   0  0  0  0  0  0  0  0  0  0  0  0
  -25.8680  -30.8170   21.3120 C   0  0  0  0  0  2  0  0  0  0  0  0
  -25.9600  -29.4420   20.6660 C   0  0  0  0  0  0  0  0  0  0  0  0
  -27.1570  -28.6650   20.6480 C   0  0  0  0  0  3  0  0  0  0  0  0
  -25.9770  -26.9200   19.4430 C   0  0  0  0  0  3  0  0  0  0  0  0
  -24.8000  -27.6830   19.4590 C   0  0  0  0  0  3  0  0  0  0  0  0
  -23.5490  -29.8010   20.1230 C   0  0  0  0  0  2  0  0  0  0  0  0
  -24.5940  -31.0710   22.0410 N   0  0  0  0  0  0  0  0  0  0  0  0
  -23.4370  -32.1470   23.6720 O   0  0  0  0  0  0  0  0  0  0  0  0
  -22.6860  -29.4390   22.4620 C   0  0  0  0  0  0  0  0  0  0  0  0
  -21.3560  -29.2720   22.3580 N   0  0  0  0  0  0  0  0  0  0  0  0
  -23.3760  -28.7980   23.2580 O   0  0  0  0  0  0  0  0  0  0  0  0
  -20.8600  -29.8410   21.6850 H   0  0  0  0  0  0  0  0  0  0  0  0
  -17.9780  -28.1030   22.9190 C   0  0  0  0  0  0  0  0  0  0  0  0
  -20.5450  -28.3320   23.1330 C   0  0  0  0  0  3  0  0  0  0  0  0
  -20.6170  -26.9070   22.5360 C   0  0  0  0  0  2  0  0  0  0  0  0
  -19.4880  -26.6090   21.5440 C   0  0  0  0  0  2  0  0  0  0  0  0
  -18.1240  -26.7610   22.2220 C   0  0  0  0  0  2  0  0  0  0  0  0
  -19.1140  -28.8470   23.3330 C   0  0  0  0  0  0  0  0  0  0  0  0
  -18.9230  -30.1030   23.9480 C   0  0  0  0  0  3  0  0  0  0  0  0
  -17.6290  -30.6180   24.1480 C   0  0  0  0  0  3  0  0  0  0  0  0
  -16.5070  -29.8700   23.7490 C   0  0  0  0  0  3  0  0  0  0  0  0
  -16.6830  -28.6130   23.1430 C   0  0  0  0  0  3  0  0  0  0  0  0
  -25.8000  -32.5260   23.7570 C   0  0  0  0  0  3  0  0  0  0  0  0
  -26.3420  -31.7450   25.0180 C   0  0  1  0  0  0  0  0  0  0  0  0
  -25.2650  -31.4740   26.0930 C   0  0  0  0  0  1  0  0  0  0  0  0
  -26.9420  -30.3830   24.5990 C   0  0  0  0  0  1  0  0  0  0  0  0
  -27.4860  -32.5490   25.6800 C   0  0  0  0  0  1  0  0  0  0  0  0
  -25.4700  -33.9140   24.1090 N   0  0  0  0  0  0  0  0  0  0  0  0
  -25.7940  -34.9830   23.3710 C   0  0  0  0  0  0  0  0  0  0  0  0
  -26.4730  -34.9060   22.3440 O   0  0  0  0  0  0  0  0  0  0  0  0
  -24.8730  -34.0490   24.9120 H   0  0  0  0  0  0  0  0  0  0  0  0
  -24.0610  -36.7690   23.0120 C   0  0  0  0  0  1  0  0  0  0  0  0
  -25.2840  -36.3560   23.8460 C   0  0  0  0  0  3  0  0  0  0  0  0
  -27.3890  -37.2370   24.7510 C   0  0  0  0  0  1  0  0  0  0  0  0
  -26.3090  -37.4170   23.7840 N   0  0  0  0  0  0  0  0  0  0  0  0
  -25.8940  -38.3320   23.9400 H   0  0  0  0  0  0  0  0  0  0  0  0
  1 50  1  0
  1  2  1  0
  2  4  1  0
  3  1  2  0
  5  6  2  0
  5  8  1  0
  6  9  1  0
  7 10  1  0
  8  7  2  0
  9  2  1  0
  9 10  2  0
 10 11  1  0
 12 19  2  0
 13 18  1  0
 14 15  1  0
 14 13  1  0
 16 15  1  0
 16 25  1  0
 16 17  1  0
 18 12  1  0
 18 17  1  0
 20 21  1  0
 21  8  1  0
 21 12  1  0
 22 23  2  0
 23 24  1  0
 23 42  1  0
 24 27  1  0
 25 22  1  0
 25 26  1  0
 26 24  2  0
 27 28  1  0
 28 29  2  0
 30 33  1  0
 30 29  1  0
 31 30  2  0
 32 31  1  0
 32 27  2  0
 33 34  1  0
 34 35  1  0
 35 36  2  0
 37 36  1  0
 37 41  1  0
 38 37  2  0
 39 34  2  0
 39 38  1  0
 40 39  1  0
 42 43  1  0
 43 46  1  0
 43 45  1  0
 44 42  2  0
 47 48  1  0
 47 22  1  0
 49 47  1  0
 51 52  1  0
 51 50  2  0
 53 64  2  0
 54 52  1  0
 54 59  1  0
 55 63  1  0
 55 65  1  0
 56 62  1  0
 56 58  1  0
 57 63  1  0
 58 57  1  0
 59 58  2  0
 60 61  1  0
 60 54  2  0
 61 56  2  0
 62 55  1  0
 63 53  1  0
 65 67  2  0
 66 65  1  0
 68 66  1  0
 69 78  2  0
 69 74  1  0
 70 66  1  0
 70 74  1  0
 71 70  1  0
 72 73  1  0
 72 71  1  0
 73 69  1  0
 74 75  2  0
 75 76  1  0
 77 76  2  0
 78 77  1  0
 79 53  1  0
 79 84  1  0
 79 80  1  0
 80 83  1  1
 80 81  1  0
 82 80  1  0
 84 87  1  0
 85 89  1  0
 85 84  1  0
 86 85  2  0
 89 88  1  0
 91 89  1  0
 91 92  1  0
 91 90  1  0
M  ISO  4  12 100  21 100  51 101  52 101
M  END
>  <TORSDO>  (61) 
F 19

>  <SCORE>  (61) 
-14.111

>  <name>  (61) 
60

>  <ligand_id>  (61) 
60

>  <original_smiles>  (61) 
[H]c1c([H])c([H])c2c(c1[H])C([H])([H])C([H])([H])C([H])([H])C2([H])N([H])C(=O)C1([H])N(C(=O)C([H])(N([H])C(=O)C([H])(N([H])C([H])([H])[H])C([H])([H])[H])C(C([H])([H])[H])(C([H])([H])[H])C([H])([H])[H])C([H])([H])c2c([H])c(OC([H])([H])C([H])([H])C(=O)N([H])c3c([H])c([H])c(N(C(=O)N4C([H])([H])C([H])([H])C([H])([H])C([H])(n5nc(-c6c([H])c([H])c(Oc7c([H])c([H])c(F)c([H])c7F)c([H])c6[H])c(C(=O)N([H])[H])c5N([H])[H])C4([H])[H])C([H])([H])[H])c([H])c3Cl)c([H])c([H])c2C1([H])[H]

>  <smiles>  (61) 
[H]c1c([H])c([H])c2c(c1[H])C([H])([H])C([H])([H])C([H])([H])C2([H])N([H])C(=O)C1([H])N(C(=O)C([H])(N([H])C(=O)C([H])(N([H])C([H])([H])[H])C([H])([H])[H])C(C([H])([H])[H])(C([H])([H])[H])C([H])([H])[H])C([H])([H])c2c([H])c(OC([H])([H])C([H])([H])C(=O)N([H])c3c([H])c([H])c(N(C(=O)N4C([H])([H])C([H])([H])C([H])([H])C([H])(n5nc(-c6c([H])c([H])c(Oc7c([H])c([H])c(F)c([H])c7F)c([H])c6[H])c(C(=O)N([H])[H])c5N([H])[H])C4([H])[H])C([H])([H])[H])c([H])c3Cl)c([H])c([H])c2C1([H])[H]

$$$$
61:0:0
     RDKit          3D

 91 99  0  0  1  0  0  0  0  0999 V2000
  -26.9660  -20.9840   20.6080 C   0  0  0  0  0  1  0  0  0  0  0  0
  -28.4280  -21.0000   20.6480 N   0  0  0  0  0  0  0  0  0  0  0  0
  -29.1030  -17.3140   20.9780 C   0  0  0  0  0  3  0  0  0  0  0  0
  -31.0800  -18.3900   20.0710 C   0  0  0  0  0  3  0  0  0  0  0  0
  -28.4900  -18.5770   21.1150 C   0  0  0  0  0  3  0  0  0  0  0  0
  -30.4650  -19.6550   20.2130 C   0  0  0  0  0  3  0  0  0  0  0  0
  -30.3710  -17.2010   20.3770 C   0  0  0  0  0  0  0  0  0  0  0  0
  -29.1300  -19.7660   20.6780 C   0  0  0  0  0  0  0  0  0  0  0  0
  -31.4330  -14.9590   20.3100 C   0  0  0  0  0  0  0  0  0  0  0  0
  -31.1900  -12.6440   19.5120 C   0  0  0  0  0  2  0  0  0  0  0  0
  -30.3050  -12.6120   18.2490 C   0  0  0  0  0  2  0  0  0  0  0  0
  -28.8060  -12.5960   18.6160 C   0  0  0  0  0  2  0  0  0  0  0  0
  -28.4060  -13.5950   19.7400 C   0  0  0  0  0  3  0  0  0  0  0  0
  -29.4190  -13.5650   20.9070 C   0  0  0  0  0  2  0  0  0  0  0  0
  -30.7550  -13.7770   20.3390 N   0  0  0  0  0  0  0  0  0  0  0  0
  -32.6620  -15.0010   20.2140 O   0  0  0  0  0  0  0  0  0  0  0  0
  -30.9600  -16.1700   18.2900 C   0  0  0  0  0  1  0  0  0  0  0  0
  -30.7290  -15.9740   19.7350 N   0  0  0  0  0  0  0  0  0  0  0  0
  -26.0030  -14.2660   20.3750 C   0  0  0  0  0  0  0  0  0  0  0  0
  -24.9080  -13.5240   20.7280 C   0  0  0  0  0  0  0  0  0  0  0  0
  -25.3380  -12.1630   20.7280 C   0  0  0  0  0  0  0  0  0  0  0  0
  -27.0360  -13.3590   20.1930 N   0  0  0  0  0  0  0  0  0  0  0  0
  -26.6380  -12.0900   20.4690 N   0  0  0  0  0  0  0  0  0  0  0  0
  -24.5750  -10.9200   20.9040 C   0  0  0  0  0  0  0  0  0  0  0  0
  -24.8670  -10.0170   21.9500 C   0  0  0  0  0  3  0  0  0  0  0  0
  -24.1060   -8.8400   22.1120 C   0  0  0  0  0  3  0  0  0  0  0  0
  -23.0410   -8.5550   21.2250 C   0  0  0  0  0  0  0  0  0  0  0  0
  -22.7700   -9.4450   20.1710 C   0  0  0  0  0  3  0  0  0  0  0  0
  -23.5310  -10.6160   20.0070 C   0  0  0  0  0  3  0  0  0  0  0  0
  -22.2650   -7.4220   21.2890 O   0  0  0  0  0  0  0  0  0  0  0  0
  -21.9420   -6.8390   22.4880 C   0  0  0  0  0  0  0  0  0  0  0  0
  -21.2440   -7.5410   23.4940 C   0  0  0  0  0  3  0  0  0  0  0  0
  -20.8680   -6.8810   24.6800 C   0  0  0  0  0  3  0  0  0  0  0  0
  -21.1830   -5.5210   24.8620 C   0  0  0  0  0  0  0  0  0  0  0  0
  -21.8770   -4.8200   23.8600 C   0  0  0  0  0  3  0  0  0  0  0  0
  -22.2520   -5.4770   22.6750 C   0  0  0  0  0  0  0  0  0  0  0  0
  -22.8980   -4.7890   21.7030 F   0  0  0  0  0  0  0  0  0  0  0  0
  -20.8160   -4.8870   26.0000 F   0  0  0  0  0  0  0  0  0  0  0  0
  -23.5130  -14.0380   20.9440 C   0  0  0  0  0  0  0  0  0  0  0  0
  -22.7460  -13.3780   21.8050 N   0  0  0  0  0  0  0  0  0  0  0  0
  -23.1140  -15.0580   20.3830 O   0  0  0  0  0  0  0  0  0  0  0  0
  -23.0850  -12.5540   22.2810 H   0  0  0  0  0  0  0  0  0  0  0  0
  -21.8070  -13.6960   21.9910 H   0  0  0  0  0  0  0  0  0  0  0  0
  -26.1920  -15.6260   20.1620 N   0  0  0  0  0  0  0  0  0  0  0  0
  -25.4130  -16.2750   20.1950 H   0  0  0  0  0  0  0  0  0  0  0  0
  -27.0170  -16.0280   19.7390 H   0  0  0  0  0  0  0  0  0  0  0  0
  -29.0850  -22.3060   20.7680 C   0  0  0  0  0  2  0  0  0  0  0  0
  -28.7550  -23.2880   19.6100 C   0  0  0  0  0  2  0  0  0  0  0  0
  -28.5820  -24.7590   20.0670 C   0  0  0  0  0  2  0  0  0  0  0  0
  -28.4840  -25.7830   18.9110 C   0  0  0  0  0  2  0  0  0  0  0  0
  -28.4010  -27.1340   19.3900 O   0  0  0  0  0  0  0  0  0  0  0  0
  -24.7310  -31.8690   23.2160 C   0  0  0  0  0  0  0  0  0  0  0  0
  -27.1940  -27.7970   19.5210 C   0  0  0  0  0  0  0  0  0  0  0  0
  -23.4310  -30.6720   21.4870 C   0  0  0  0  0  3  0  0  0  0  0  0
  -24.8030  -29.2970   19.8280 C   0  0  0  0  0  0  0  0  0  0  0  0
  -25.9500  -31.0400   21.2050 C   0  0  0  0  0  2  0  0  0  0  0  0
  -25.9920  -29.7520   20.4100 C   0  0  0  0  0  0  0  0  0  0  0  0
  -27.1830  -29.0110   20.2490 C   0  0  0  0  0  3  0  0  0  0  0  0
  -25.9760  -27.3430   18.9580 C   0  0  0  0  0  3  0  0  0  0  0  0
  -24.7910  -28.0920   19.1020 C   0  0  0  0  0  3  0  0  0  0  0  0
  -23.5680  -30.1490   20.0310 C   0  0  0  0  0  2  0  0  0  0  0  0
  -24.7260  -31.2010   22.0290 N   0  0  0  0  0  0  0  0  0  0  0  0
  -23.6800  -32.0820   23.8370 O   0  0  0  0  0  0  0  0  0  0  0  0
  -22.8160  -29.5500   22.3540 C   0  0  0  0  0  0  0  0  0  0  0  0
  -21.4870  -29.3820   22.2580 N   0  0  0  0  0  0  0  0  0  0  0  0
  -23.5290  -28.8380   23.0660 O   0  0  0  0  0  0  0  0  0  0  0  0
  -20.9720  -30.0120   21.6590 H   0  0  0  0  0  0  0  0  0  0  0  0
  -18.1400  -28.1030   22.7130 C   0  0  0  0  0  0  0  0  0  0  0  0
  -20.7000  -28.3620   22.9520 C   0  0  0  0  0  3  0  0  0  0  0  0
  -20.8020  -26.9970   22.2360 C   0  0  0  0  0  2  0  0  0  0  0  0
  -19.6810  -26.7610   21.2170 C   0  0  0  0  0  2  0  0  0  0  0  0
  -18.3130  -26.8290   21.9030 C   0  0  0  0  0  2  0  0  0  0  0  0
  -19.2620  -28.8300   23.1920 C   0  0  0  0  0  0  0  0  0  0  0  0
  -19.0440  -30.0290   23.9070 C   0  0  0  0  0  3  0  0  0  0  0  0
  -17.7400  -30.4960   24.1510 C   0  0  0  0  0  3  0  0  0  0  0  0
  -16.6330  -29.7640   23.6890 C   0  0  0  0  0  3  0  0  0  0  0  0
  -16.8350  -28.5710   22.9750 C   0  0  0  0  0  3  0  0  0  0  0  0
  -26.0520  -32.4190   23.8430 C   0  0  0  0  0  3  0  0  0  0  0  0
  -25.7700  -33.7630   24.3640 N   0  0  0  0  0  0  0  0  0  0  0  0
  -26.0940  -34.9040   23.7400 C   0  0  0  0  0  0  0  0  0  0  0  0
  -26.7320  -34.9320   22.6850 O   0  0  0  0  0  0  0  0  0  0  0  0
  -25.2040  -33.8170   25.1970 H   0  0  0  0  0  0  0  0  0  0  0  0
  -24.3870  -36.7480   23.6680 C   0  0  0  0  0  1  0  0  0  0  0  0
  -25.6380  -36.2230   24.3920 C   0  0  0  0  0  3  0  0  0  0  0  0
  -27.7940  -36.9640   25.2980 C   0  0  0  0  0  1  0  0  0  0  0  0
  -26.6830  -37.2680   24.4010 N   0  0  0  0  0  0  0  0  0  0  0  0
  -26.2930  -38.1660   24.6720 H   0  0  0  0  0  0  0  0  0  0  0  0
  -26.6370  -31.4910   24.9780 C   0  0  1  0  0  0  0  0  0  0  0  0
  -25.6050  -31.1210   26.0690 C   0  0  0  0  0  1  0  0  0  0  0  0
  -27.1820  -30.1760   24.3780 C   0  0  0  0  0  1  0  0  0  0  0  0
  -27.8320  -32.1920   25.6660 C   0  0  0  0  0  1  0  0  0  0  0  0
  1  2  1  0
  2  8  1  0
  2 47  1  0
  3  5  1  0
  4  6  2  0
  4  7  1  0
  6  8  1  0
  7  3  2  0
  8  5  2  0
  9 15  1  0
 10 15  1  0
 11 12  1  0
 11 10  1  0
 13 12  1  0
 13 22  1  0
 13 14  1  0
 15 14  1  0
 16  9  2  0
 17 18  1  0
 18  9  1  0
 18  7  1  0
 19 20  2  0
 20 39  1  0
 21 20  1  0
 21 24  1  0
 22 19  1  0
 22 23  1  0
 23 21  2  0
 24 25  1  0
 25 26  2  0
 27 30  1  0
 27 26  1  0
 28 27  2  0
 29 28  1  0
 29 24  2  0
 30 31  1  0
 31 36  2  0
 31 32  1  0
 32 33  2  0
 33 34  1  0
 34 38  1  0
 35 34  2  0
 36 35  1  0
 37 36  1  0
 39 40  1  0
 40 43  1  0
 40 42  1  0
 41 39  2  0
 44 45  1  0
 44 19  1  0
 46 44  1  0
 48 49  1  0
 48 47  1  0
 50 51  1  0
 50 49  1  0
 51 53  1  0
 52 63  2  0
 53 58  1  0
 54 62  1  0
 54 64  1  0
 55 61  1  0
 55 57  1  0
 56 62  1  0
 57 56  1  0
 58 57  2  0
 59 60  1  0
 59 53  2  0
 60 55  2  0
 61 54  1  0
 62 52  1  0
 64 66  2  0
 65 64  1  0
 67 65  1  0
 68 77  2  0
 68 73  1  0
 69 65  1  0
 69 73  1  0
 70 69  1  0
 71 72  1  0
 71 70  1  0
 72 68  1  0
 73 74  2  0
 74 75  1  0
 76 75  2  0
 77 76  1  0
 78 52  1  0
 78 79  1  0
 78 88  1  0
 79 82  1  0
 80 79  1  0
 80 84  1  0
 81 80  2  0
 84 83  1  0
 84 86  1  0
 86 87  1  0
 86 85  1  0
 88 91  1  1
 88 89  1  0
 90 88  1  0
M  ISO  4   9 100  18 100  50 101  51 101
M  END
>  <TORSDO>  (62) 
F 21

>  <SCORE>  (62) 
-10.252

>  <name>  (62) 
61

>  <ligand_id>  (62) 
61

>  <original_smiles>  (62) 
[H]c1c([H])c([H])c2c(c1[H])C([H])([H])C([H])([H])C([H])([H])C2([H])N([H])C(=O)C1([H])N(C(=O)C([H])(N([H])C(=O)C([H])(N([H])C([H])([H])[H])C([H])([H])[H])C(C([H])([H])[H])(C([H])([H])[H])C([H])([H])[H])C([H])([H])c2c([H])c(OC([H])([H])C([H])([H])C([H])([H])C([H])([H])N(c3c([H])c([H])c(N(C(=O)N4C([H])([H])C([H])([H])C([H])([H])C([H])(n5nc(-c6c([H])c([H])c(Oc7c([H])c([H])c(F)c([H])c7F)c([H])c6[H])c(C(=O)N([H])[H])c5N([H])[H])C4([H])[H])C([H])([H])[H])c([H])c3[H])C([H])([H])[H])c([H])c([H])c2C1([H])[H]

>  <smiles>  (62) 
[H]c1c([H])c([H])c2c(c1[H])C([H])([H])C([H])([H])C([H])([H])C2([H])N([H])C(=O)C1([H])N(C(=O)C([H])(N([H])C(=O)C([H])(N([H])C([H])([H])[H])C([H])([H])[H])C(C([H])([H])[H])(C([H])([H])[H])C([H])([H])[H])C([H])([H])c2c([H])c(OC([H])([H])C([H])([H])C([H])([H])C([H])([H])N(c3c([H])c([H])c(N(C(=O)N4C([H])([H])C([H])([H])C([H])([H])C([H])(n5nc(-c6c([H])c([H])c(Oc7c([H])c([H])c(F)c([H])c7F)c([H])c6[H])c(C(=O)N([H])[H])c5N([H])[H])C4([H])[H])C([H])([H])[H])c([H])c3[H])C([H])([H])[H])c([H])c([H])c2C1([H])[H]

$$$$
62:0:0
     RDKit          3D

 95104  0  0  1  0  0  0  0  0999 V2000
  -32.1710  -22.2620   19.5420 C   0  0  0  0  0  1  0  0  0  0  0  0
  -30.9780  -21.8900   20.3000 N   0  0  0  0  0  0  0  0  0  0  0  0
  -29.6280  -18.6410   21.6020 C   0  0  0  0  0  3  0  0  0  0  0  0
  -29.9940  -20.0010   21.5180 C   0  0  0  0  0  3  0  0  0  0  0  0
  -30.9420  -19.6130   19.3200 C   0  0  0  0  0  3  0  0  0  0  0  0
  -29.8990  -17.7550   20.5370 C   0  0  0  0  0  0  0  0  0  0  0  0
  -30.6440  -20.5140   20.3720 C   0  0  0  0  0  0  0  0  0  0  0  0
  -30.5670  -18.2540   19.3960 C   0  0  0  0  0  0  0  0  0  0  0  0
  -30.8260  -17.4290   18.3530 F   0  0  0  0  0  0  0  0  0  0  0  0
  -29.4200  -16.2990   20.6020 C   0  0  0  0  0  2  0  0  0  0  0  0
  -30.8350  -14.3700   20.0830 C   0  0  0  0  0  0  0  0  0  0  0  0
  -30.3670  -12.2370   18.9250 C   0  0  0  0  0  2  0  0  0  0  0  0
  -29.3610  -12.4390   17.7750 C   0  0  0  0  0  2  0  0  0  0  0  0
  -27.9180  -12.3130   18.2950 C   0  0  0  0  0  2  0  0  0  0  0  0
  -27.6630  -13.1820   19.5540 C   0  0  0  0  0  3  0  0  0  0  0  0
  -28.7790  -12.9820   20.6060 C   0  0  0  0  0  2  0  0  0  0  0  0
  -30.0790  -13.2420   19.9610 N   0  0  0  0  0  0  0  0  0  0  0  0
  -31.8930  -14.5280   19.4660 O   0  0  0  0  0  0  0  0  0  0  0  0
  -31.3650  -15.7230   22.0220 C   0  0  0  0  0  1  0  0  0  0  0  0
  -30.4240  -15.2890   20.9860 N   0  0  0  0  0  0  0  0  0  0  0  0
  -25.3410  -13.8490   20.4380 C   0  0  0  0  0  0  0  0  0  0  0  0
  -24.2720  -13.1020   20.8550 C   0  0  0  0  0  0  0  0  0  0  0  0
  -24.6840  -11.7380   20.7570 C   0  0  0  0  0  0  0  0  0  0  0  0
  -26.3370  -12.9400   20.1160 N   0  0  0  0  0  0  0  0  0  0  0  0
  -25.9490  -11.6640   20.3650 N   0  0  0  0  0  0  0  0  0  0  0  0
  -23.9280  -10.4950   20.9600 C   0  0  0  0  0  0  0  0  0  0  0  0
  -24.3590   -9.5110   21.8780 C   0  0  0  0  0  3  0  0  0  0  0  0
  -23.6060   -8.3320   22.0690 C   0  0  0  0  0  3  0  0  0  0  0  0
  -22.4090   -8.1290   21.3420 C   0  0  0  0  0  0  0  0  0  0  0  0
  -21.9970   -9.1010   20.4130 C   0  0  0  0  0  3  0  0  0  0  0  0
  -22.7500  -10.2710   20.2210 C   0  0  0  0  0  3  0  0  0  0  0  0
  -21.6260   -7.0050   21.4430 O   0  0  0  0  0  0  0  0  0  0  0  0
  -21.5600   -6.2760   22.6030 C   0  0  0  0  0  0  0  0  0  0  0  0
  -21.1420   -6.8520   23.8220 C   0  0  0  0  0  3  0  0  0  0  0  0
  -21.0210   -6.0510   24.9750 C   0  0  0  0  0  3  0  0  0  0  0  0
  -21.3090   -4.6750   24.9110 C   0  0  0  0  0  0  0  0  0  0  0  0
  -21.7210   -4.0980   23.6960 C   0  0  0  0  0  3  0  0  0  0  0  0
  -21.8430   -4.8970   22.5450 C   0  0  0  0  0  0  0  0  0  0  0  0
  -22.2190   -4.3320   21.3730 F   0  0  0  0  0  0  0  0  0  0  0  0
  -21.1870   -3.9030   26.0160 F   0  0  0  0  0  0  0  0  0  0  0  0
  -22.9130  -13.6170   21.2300 C   0  0  0  0  0  0  0  0  0  0  0  0
  -22.2160  -12.9160   22.1170 N   0  0  0  0  0  0  0  0  0  0  0  0
  -22.4800  -14.6730   20.7720 O   0  0  0  0  0  0  0  0  0  0  0  0
  -22.5800  -12.0600   22.5090 H   0  0  0  0  0  0  0  0  0  0  0  0
  -21.3060  -13.2410   22.4120 H   0  0  0  0  0  0  0  0  0  0  0  0
  -25.5420  -15.2180   20.2860 N   0  0  0  0  0  0  0  0  0  0  0  0
  -24.8060  -15.8930   20.4620 H   0  0  0  0  0  0  0  0  0  0  0  0
  -26.3800  -15.6380   19.9060 H   0  0  0  0  0  0  0  0  0  0  0  0
  -29.3530  -23.4180   19.1680 C   0  0  0  0  0  2  0  0  0  0  0  0
  -30.2980  -24.0670   21.3660 C   0  0  0  0  0  2  0  0  0  0  0  0
  -28.0690  -24.2320   19.4030 C   0  0  0  0  0  2  0  0  0  0  0  0
  -29.0540  -24.9000   21.7330 C   0  0  0  0  0  2  0  0  0  0  0  0
  -29.8950  -22.8650   20.4930 C   0  0  0  0  0  3  0  0  0  0  0  0
  -28.1300  -25.2830   20.5480 C   0  0  0  0  0  3  0  0  0  0  0  0
  -28.3610  -26.6310   20.0850 O   0  0  0  0  0  0  0  0  0  0  0  0
  -24.5880  -31.8230   23.1700 C   0  0  0  0  0  0  0  0  0  0  0  0
  -27.2200  -27.4110   20.0380 C   0  0  0  0  0  0  0  0  0  0  0  0
  -23.3770  -30.4370   21.5200 C   0  0  0  0  0  3  0  0  0  0  0  0
  -24.8260  -28.9240   20.0710 C   0  0  0  0  0  0  0  0  0  0  0  0
  -25.9030  -30.8000   21.3170 C   0  0  0  0  0  2  0  0  0  0  0  0
  -25.9890  -29.4390   20.6570 C   0  0  0  0  0  0  0  0  0  0  0  0
  -27.1920  -28.6930   20.6340 C   0  0  0  0  0  3  0  0  0  0  0  0
  -26.0380  -26.9190   19.4350 C   0  0  0  0  0  3  0  0  0  0  0  0
  -24.8460  -27.6630   19.4550 C   0  0  0  0  0  3  0  0  0  0  0  0
  -23.5820  -29.7780   20.1320 C   0  0  0  0  0  2  0  0  0  0  0  0
  -24.6410  -31.0330   22.0610 N   0  0  0  0  0  0  0  0  0  0  0  0
  -23.5080  -32.0900   23.7160 O   0  0  0  0  0  0  0  0  0  0  0  0
  -22.7300  -29.4040   22.4710 C   0  0  0  0  0  0  0  0  0  0  0  0
  -21.4030  -29.2360   22.3610 N   0  0  0  0  0  0  0  0  0  0  0  0
  -23.4200  -28.7580   23.2650 O   0  0  0  0  0  0  0  0  0  0  0  0
  -20.9070  -29.8080   21.6910 H   0  0  0  0  0  0  0  0  0  0  0  0
  -18.0220  -28.0770   22.8970 C   0  0  0  0  0  0  0  0  0  0  0  0
  -20.5880  -28.2940   23.1280 C   0  0  0  0  0  3  0  0  0  0  0  0
  -20.6600  -26.8730   22.5230 C   0  0  0  0  0  2  0  0  0  0  0  0
  -19.5370  -26.5850   21.5220 C   0  0  0  0  0  2  0  0  0  0  0  0
  -18.1680  -26.7380   22.1930 C   0  0  0  0  0  2  0  0  0  0  0  0
  -19.1590  -28.8150   23.3210 C   0  0  0  0  0  0  0  0  0  0  0  0
  -18.9690  -30.0700   23.9380 C   0  0  0  0  0  3  0  0  0  0  0  0
  -17.6750  -30.5870   24.1350 C   0  0  0  0  0  3  0  0  0  0  0  0
  -16.5530  -29.8450   23.7270 C   0  0  0  0  0  3  0  0  0  0  0  0
  -16.7280  -28.5910   23.1140 C   0  0  0  0  0  3  0  0  0  0  0  0
  -25.8760  -32.4500   23.7890 C   0  0  0  0  0  3  0  0  0  0  0  0
  -26.4040  -31.6640   25.0500 C   0  0  1  0  0  0  0  0  0  0  0  0
  -25.3210  -31.4100   26.1240 C   0  0  0  0  0  1  0  0  0  0  0  0
  -26.9860  -30.2930   24.6350 C   0  0  0  0  0  1  0  0  0  0  0  0
  -27.5590  -32.4510   25.7130 C   0  0  0  0  0  1  0  0  0  0  0  0
  -25.5670  -33.8440   24.1360 N   0  0  0  0  0  0  0  0  0  0  0  0
  -25.8980  -34.9050   23.3880 C   0  0  0  0  0  0  0  0  0  0  0  0
  -26.5680  -34.8140   22.3550 O   0  0  0  0  0  0  0  0  0  0  0  0
  -24.9770  -33.9900   24.9430 H   0  0  0  0  0  0  0  0  0  0  0  0
  -24.1770  -36.7030   23.0380 C   0  0  0  0  0  1  0  0  0  0  0  0
  -25.4060  -36.2870   23.8590 C   0  0  0  0  0  3  0  0  0  0  0  0
  -27.5340  -37.1550   24.7280 C   0  0  0  0  0  1  0  0  0  0  0  0
  -26.4420  -37.3400   23.7760 N   0  0  0  0  0  0  0  0  0  0  0  0
  -26.0360  -38.2580   23.9360 H   0  0  0  0  0  0  0  0  0  0  0  0
  1  2  1  0
  2  7  1  0
  4  3  1  0
  5  8  2  0
  5  7  1  0
  6 10  1  0
  6  3  2  0
  7  4  2  0
  8  6  1  0
  9  8  1  0
 10 20  1  0
 11 20  1  0
 12 17  1  0
 13 14  1  0
 13 12  1  0
 15 14  1  0
 15 24  1  0
 15 16  1  0
 17 11  1  0
 17 16  1  0
 18 11  2  0
 20 19  1  0
 21 22  2  0
 22 41  1  0
 23 22  1  0
 23 26  1  0
 24 25  1  0
 24 21  1  0
 25 23  2  0
 26 27  1  0
 27 28  2  0
 29 32  1  0
 29 28  1  0
 30 29  2  0
 31 30  1  0
 31 26  2  0
 32 33  1  0
 33 34  1  0
 34 35  2  0
 36 35  1  0
 36 40  1  0
 37 36  2  0
 38 33  2  0
 38 37  1  0
 39 38  1  0
 41 42  1  0
 42 45  1  0
 42 44  1  0
 43 41  2  0
 46 21  1  0
 46 47  1  0
 48 46  1  0
 49 51  1  0
 49 53  1  0
 50 52  1  0
 51 54  1  0
 53  2  1  0
 53 50  1  0
 54 55  1  0
 54 52  1  0
 56 67  2  0
 57 55  1  0
 57 62  1  0
 58 66  1  0
 58 68  1  0
 59 65  1  0
 59 61  1  0
 60 66  1  0
 61 60  1  0
 62 61  2  0
 63 64  1  0
 63 57  2  0
 64 59  2  0
 65 58  1  0
 66 56  1  0
 68 70  2  0
 69 68  1  0
 71 69  1  0
 72 81  2  0
 72 77  1  0
 73 69  1  0
 73 77  1  0
 74 73  1  0
 75 76  1  0
 75 74  1  0
 76 72  1  0
 77 78  2  0
 78 79  1  0
 80 79  2  0
 81 80  1  0
 82 56  1  0
 82 87  1  0
 82 83  1  0
 83 86  1  1
 83 84  1  0
 85 83  1  0
 87 90  1  0
 88 92  1  0
 88 87  1  0
 89 88  2  0
 92 91  1  0
 94 92  1  0
 94 95  1  0
 94 93  1  0
M  ISO  4  11 100  20 100  54 101  55 101
M  END
>  <TORSDO>  (63) 
F 19

>  <SCORE>  (63) 
-13.573

>  <name>  (63) 
62

>  <ligand_id>  (63) 
62

>  <original_smiles>  (63) 
[H]c1c([H])c([H])c2c(c1[H])C([H])([H])C([H])([H])C([H])([H])C2([H])N([H])C(=O)C1([H])N(C(=O)C([H])(N([H])C(=O)C([H])(N([H])C([H])([H])[H])C([H])([H])[H])C(C([H])([H])[H])(C([H])([H])[H])C([H])([H])[H])C([H])([H])c2c([H])c(OC3([H])C([H])([H])C([H])([H])C([H])(N(c4c([H])c([H])c(C([H])([H])N(C(=O)N5C([H])([H])C([H])([H])C([H])([H])C([H])(n6nc(-c7c([H])c([H])c(Oc8c([H])c([H])c(F)c([H])c8F)c([H])c7[H])c(C(=O)N([H])[H])c6N([H])[H])C5([H])[H])C([H])([H])[H])c(F)c4[H])C([H])([H])[H])C([H])([H])C3([H])[H])c([H])c([H])c2C1([H])[H]

>  <smiles>  (63) 
[H]c1c([H])c([H])c2c(c1[H])C([H])([H])C([H])([H])C([H])([H])C2([H])N([H])C(=O)C1([H])N(C(=O)C([H])(N([H])C(=O)C([H])(N([H])C([H])([H])[H])C([H])([H])[H])C(C([H])([H])[H])(C([H])([H])[H])C([H])([H])[H])C([H])([H])c2c([H])c(OC3([H])C([H])([H])C([H])([H])C([H])(N(c4c([H])c([H])c(C([H])([H])N(C(=O)N5C([H])([H])C([H])([H])C([H])([H])C([H])(n6nc(-c7c([H])c([H])c(Oc8c([H])c([H])c(F)c([H])c8F)c([H])c7[H])c(C(=O)N([H])[H])c6N([H])[H])C5([H])[H])C([H])([H])[H])c(F)c4[H])C([H])([H])[H])C([H])([H])C3([H])[H])c([H])c([H])c2C1([H])[H]

$$$$
63:0:0
     RDKit          3D

 92101  0  0  1  0  0  0  0  0999 V2000
  -29.0530  -22.5550   20.6650 C   0  0  0  0  0  0  0  0  0  0  0  0
  -27.3110  -23.2550   19.1930 C   0  0  0  0  0  2  0  0  0  0  0  0
  -27.4900  -21.7250   19.2040 C   0  0  0  0  0  2  0  0  0  0  0  0
  -28.5220  -23.8370   19.9200 C   0  0  0  0  0  3  0  0  0  0  0  0
  -28.5320  -21.3830   20.1810 N   0  0  0  0  0  0  0  0  0  0  0  0
  -29.8720  -22.6390   21.5860 O   0  0  0  0  0  0  0  0  0  0  0  0
  -30.0900  -19.4950   21.0530 C   0  0  0  0  0  3  0  0  0  0  0  0
  -28.0530  -18.9300   19.9230 C   0  0  0  0  0  3  0  0  0  0  0  0
  -30.4560  -18.1030   21.0880 C   0  0  0  0  0  3  0  0  0  0  0  0
  -28.4090  -17.5560   19.9630 C   0  0  0  0  0  3  0  0  0  0  0  0
  -28.8940  -19.9630   20.4210 C   0  0  0  0  0  0  0  0  0  0  0  0
  -29.6380  -17.0950   20.4990 C   0  0  0  0  0  0  0  0  0  0  0  0
  -30.7370  -14.7500   20.8220 C   0  0  0  0  0  0  0  0  0  0  0  0
  -30.6250  -12.4200   19.9670 C   0  0  0  0  0  2  0  0  0  0  0  0
  -29.7820  -12.3630   18.6720 C   0  0  0  0  0  2  0  0  0  0  0  0
  -28.2740  -12.2820   18.9800 C   0  0  0  0  0  2  0  0  0  0  0  0
  -27.8050  -13.2420   20.1100 C   0  0  0  0  0  3  0  0  0  0  0  0
  -28.7730  -13.2320   21.3100 C   0  0  0  0  0  2  0  0  0  0  0  0
  -30.1110  -13.5300   20.7910 N   0  0  0  0  0  0  0  0  0  0  0  0
  -31.9690  -14.8140   20.8520 O   0  0  0  0  0  0  0  0  0  0  0  0
  -30.3270  -15.7050   18.6650 C   0  0  0  0  0  1  0  0  0  0  0  0
  -30.0710  -15.7440   20.1190 N   0  0  0  0  0  0  0  0  0  0  0  0
  -25.3650  -13.8490   20.6300 C   0  0  0  0  0  0  0  0  0  0  0  0
  -24.2730  -13.0800   20.9280 C   0  0  0  0  0  0  0  0  0  0  0  0
  -24.7410  -11.7320   20.9800 C   0  0  0  0  0  0  0  0  0  0  0  0
  -26.4280  -12.9680   20.5090 N   0  0  0  0  0  0  0  0  0  0  0  0
  -26.0540  -11.6920   20.7880 N   0  0  0  0  0  0  0  0  0  0  0  0
  -24.0080  -10.4700   21.1430 C   0  0  0  0  0  0  0  0  0  0  0  0
  -24.3830   -9.5180   22.1150 C   0  0  0  0  0  3  0  0  0  0  0  0
  -23.6490   -8.3210   22.2650 C   0  0  0  0  0  3  0  0  0  0  0  0
  -22.5260   -8.0690   21.4420 C   0  0  0  0  0  0  0  0  0  0  0  0
  -22.1720   -9.0090   20.4600 C   0  0  0  0  0  3  0  0  0  0  0  0
  -22.9070  -10.1980   20.3070 C   0  0  0  0  0  3  0  0  0  0  0  0
  -21.7700   -6.9240   21.5000 O   0  0  0  0  0  0  0  0  0  0  0  0
  -21.6660   -6.1870   22.6530 C   0  0  0  0  0  0  0  0  0  0  0  0
  -21.1780   -6.7470   23.8540 C   0  0  0  0  0  3  0  0  0  0  0  0
  -21.0230   -5.9360   24.9970 C   0  0  0  0  0  3  0  0  0  0  0  0
  -21.3440   -4.5680   24.9380 C   0  0  0  0  0  0  0  0  0  0  0  0
  -21.8250   -4.0070   23.7420 C   0  0  0  0  0  3  0  0  0  0  0  0
  -21.9830   -4.8140   22.6010 C   0  0  0  0  0  0  0  0  0  0  0  0
  -22.4260   -4.2650   21.4450 F   0  0  0  0  0  0  0  0  0  0  0  0
  -21.1880   -3.7870   26.0330 F   0  0  0  0  0  0  0  0  0  0  0  0
  -22.8550  -13.5550   21.0620 C   0  0  0  0  0  0  0  0  0  0  0  0
  -22.0580  -12.8820   21.8830 N   0  0  0  0  0  0  0  0  0  0  0  0
  -22.4600  -14.5610   20.4740 O   0  0  0  0  0  0  0  0  0  0  0  0
  -22.3890  -12.0690   22.3830 H   0  0  0  0  0  0  0  0  0  0  0  0
  -21.1030  -13.1830   22.0150 H   0  0  0  0  0  0  0  0  0  0  0  0
  -25.5410  -15.2150   20.4320 N   0  0  0  0  0  0  0  0  0  0  0  0
  -24.7730  -15.8740   20.4810 H   0  0  0  0  0  0  0  0  0  0  0  0
  -26.4310  -15.6540   20.2400 H   0  0  0  0  0  0  0  0  0  0  0  0
  -28.2220  -25.1870   20.7190 C   0  0  0  0  0  2  0  0  0  0  0  0
  -28.2900  -26.4930   20.0230 O   0  0  0  0  0  0  0  0  0  0  0  0
  -24.5930  -31.8520   23.1330 C   0  0  0  0  0  0  0  0  0  0  0  0
  -27.1620  -27.3180   20.0390 C   0  0  0  0  0  0  0  0  0  0  0  0
  -23.3640  -30.4600   21.5030 C   0  0  0  0  0  3  0  0  0  0  0  0
  -24.7940  -28.9100   20.0570 C   0  0  0  0  0  0  0  0  0  0  0  0
  -25.8970  -30.7870   21.2810 C   0  0  0  0  0  2  0  0  0  0  0  0
  -25.9690  -29.4090   20.6340 C   0  0  0  0  0  0  0  0  0  0  0  0
  -27.1590  -28.6260   20.6100 C   0  0  0  0  0  3  0  0  0  0  0  0
  -25.9680  -26.8610   19.4450 C   0  0  0  0  0  3  0  0  0  0  0  0
  -24.7950  -27.6410   19.4520 C   0  0  0  0  0  3  0  0  0  0  0  0
  -23.5570  -29.7840   20.1200 C   0  0  0  0  0  2  0  0  0  0  0  0
  -24.6370  -31.0510   22.0300 N   0  0  0  0  0  0  0  0  0  0  0  0
  -23.5180  -32.1280   23.6850 O   0  0  0  0  0  0  0  0  0  0  0  0
  -22.7150  -29.4430   22.4710 C   0  0  0  0  0  0  0  0  0  0  0  0
  -21.3850  -29.2760   22.3680 N   0  0  0  0  0  0  0  0  0  0  0  0
  -23.4050  -28.8070   23.2710 O   0  0  0  0  0  0  0  0  0  0  0  0
  -20.8870  -29.8420   21.6950 H   0  0  0  0  0  0  0  0  0  0  0  0
  -18.0080  -28.1080   22.9290 C   0  0  0  0  0  0  0  0  0  0  0  0
  -20.5740  -28.3380   23.1470 C   0  0  0  0  0  3  0  0  0  0  0  0
  -20.6490  -26.9120   22.5550 C   0  0  0  0  0  2  0  0  0  0  0  0
  -19.5220  -26.6110   21.5620 C   0  0  0  0  0  2  0  0  0  0  0  0
  -18.1560  -26.7640   22.2370 C   0  0  0  0  0  2  0  0  0  0  0  0
  -19.1430  -28.8550   23.3420 C   0  0  0  0  0  0  0  0  0  0  0  0
  -18.9510  -30.1140   23.9510 C   0  0  0  0  0  3  0  0  0  0  0  0
  -17.6550  -30.6270   24.1500 C   0  0  0  0  0  3  0  0  0  0  0  0
  -16.5340  -29.8770   23.7530 C   0  0  0  0  0  3  0  0  0  0  0  0
  -16.7120  -28.6200   23.1480 C   0  0  0  0  0  3  0  0  0  0  0  0
  -25.8870  -32.4810   23.7400 C   0  0  0  0  0  3  0  0  0  0  0  0
  -25.5780  -33.8710   24.1040 N   0  0  0  0  0  0  0  0  0  0  0  0
  -25.9090  -34.9410   23.3680 C   0  0  0  0  0  0  0  0  0  0  0  0
  -26.5760  -34.8610   22.3330 O   0  0  0  0  0  0  0  0  0  0  0  0
  -24.9870  -34.0070   24.9100 H   0  0  0  0  0  0  0  0  0  0  0  0
  -24.1930  -36.7510   23.0460 C   0  0  0  0  0  1  0  0  0  0  0  0
  -25.4230  -36.3180   23.8590 C   0  0  0  0  0  3  0  0  0  0  0  0
  -27.5530  -37.1710   24.7370 C   0  0  0  0  0  1  0  0  0  0  0  0
  -26.4620  -37.3700   23.7860 N   0  0  0  0  0  0  0  0  0  0  0  0
  -26.0590  -38.2870   23.9520 H   0  0  0  0  0  0  0  0  0  0  0  0
  -26.4330  -31.6880   24.9910 C   0  0  1  0  0  0  0  0  0  0  0  0
  -25.3650  -31.4300   26.0790 C   0  0  0  0  0  1  0  0  0  0  0  0
  -27.0100  -30.3190   24.5620 C   0  0  0  0  0  1  0  0  0  0  0  0
  -27.5960  -32.4730   25.6420 C   0  0  0  0  0  1  0  0  0  0  0  0
  1  6  2  0
  2  3  1  0
  2  4  1  0
  3  5  1  0
  4  1  1  0
  4 51  1  0
  5 11  1  0
  5  1  1  0
  7  9  1  0
  8 10  2  0
  8 11  1  0
 10 12  1  0
 11  7  2  0
 12  9  2  0
 13 20  2  0
 14 19  1  0
 15 16  1  0
 15 14  1  0
 17 16  1  0
 17 26  1  0
 17 18  1  0
 19 13  1  0
 19 18  1  0
 21 22  1  0
 22 12  1  0
 22 13  1  0
 23 24  2  0
 24 25  1  0
 24 43  1  0
 25 28  1  0
 26 23  1  0
 26 27  1  0
 27 25  2  0
 28 29  1  0
 29 30  2  0
 31 34  1  0
 31 30  1  0
 32 31  2  0
 33 32  1  0
 33 28  2  0
 34 35  1  0
 35 36  1  0
 36 37  2  0
 38 37  1  0
 38 42  1  0
 39 38  2  0
 40 35  2  0
 40 39  1  0
 41 40  1  0
 43 44  1  0
 44 47  1  0
 44 46  1  0
 45 43  2  0
 48 49  1  0
 48 23  1  0
 50 48  1  0
 52 54  1  0
 52 51  1  0
 53 64  2  0
 54 59  1  0
 55 63  1  0
 55 65  1  0
 56 62  1  0
 56 58  1  0
 57 63  1  0
 58 57  1  0
 59 58  2  0
 60 61  1  0
 60 54  2  0
 61 56  2  0
 62 55  1  0
 63 53  1  0
 65 67  2  0
 66 65  1  0
 68 66  1  0
 69 78  2  0
 69 74  1  0
 70 66  1  0
 70 74  1  0
 71 70  1  0
 72 73  1  0
 72 71  1  0
 73 69  1  0
 74 75  2  0
 75 76  1  0
 77 76  2  0
 78 77  1  0
 79 53  1  0
 79 80  1  0
 79 89  1  0
 80 83  1  0
 81 85  1  0
 81 80  1  0
 82 81  2  0
 85 84  1  0
 87 85  1  0
 87 88  1  0
 87 86  1  0
 89 92  1  1
 89 90  1  0
 91 89  1  0
M  ISO  4  13 100  22 100  51 101  52 101
M  END
>  <TORSDO>  (64) 
F 18

>  <SCORE>  (64) 
-14.611

>  <name>  (64) 
63

>  <ligand_id>  (64) 
63

>  <original_smiles>  (64) 
[H]c1c([H])c([H])c2c(c1[H])C([H])([H])C([H])([H])C([H])([H])C2([H])N([H])C(=O)C1([H])N(C(=O)C([H])(N([H])C(=O)C([H])(N([H])C([H])([H])[H])C([H])([H])[H])C(C([H])([H])[H])(C([H])([H])[H])C([H])([H])[H])C([H])([H])c2c([H])c(OC([H])([H])C3([H])C(=O)N(c4c([H])c([H])c(N(C(=O)N5C([H])([H])C([H])([H])C([H])([H])C([H])(n6nc(-c7c([H])c([H])c(Oc8c([H])c([H])c(F)c([H])c8F)c([H])c7[H])c(C(=O)N([H])[H])c6N([H])[H])C5([H])[H])C([H])([H])[H])c([H])c4[H])C([H])([H])C3([H])[H])c([H])c([H])c2C1([H])[H]

>  <smiles>  (64) 
[H]c1c([H])c([H])c2c(c1[H])C([H])([H])C([H])([H])C([H])([H])C2([H])N([H])C(=O)C1([H])N(C(=O)C([H])(N([H])C(=O)C([H])(N([H])C([H])([H])[H])C([H])([H])[H])C(C([H])([H])[H])(C([H])([H])[H])C([H])([H])[H])C([H])([H])c2c([H])c(OC([H])([H])C3([H])C(=O)N(c4c([H])c([H])c(N(C(=O)N5C([H])([H])C([H])([H])C([H])([H])C([H])(n6nc(-c7c([H])c([H])c(Oc8c([H])c([H])c(F)c([H])c8F)c([H])c7[H])c(C(=O)N([H])[H])c6N([H])[H])C5([H])[H])C([H])([H])[H])c([H])c4[H])C([H])([H])C3([H])[H])c([H])c([H])c2C1([H])[H]

$$$$
64:0:0
     RDKit          3D

 89 97  0  0  1  0  0  0  0  0999 V2000
  -27.0710  -22.0550   21.1510 C   0  0  0  0  0  1  0  0  0  0  0  0
  -28.4390  -22.0570   20.6200 N   0  0  0  0  0  0  0  0  0  0  0  0
  -28.5270  -18.1960   20.1060 C   0  0  0  0  0  3  0  0  0  0  0  0
  -30.6120  -18.7220   21.0650 C   0  0  0  0  0  3  0  0  0  0  0  0
  -28.1660  -19.5890   20.1110 C   0  0  0  0  0  3  0  0  0  0  0  0
  -30.2380  -20.1420   21.0740 C   0  0  0  0  0  3  0  0  0  0  0  0
  -29.7680  -17.6610   20.5700 C   0  0  0  0  0  0  0  0  0  0  0  0
  -28.9830  -20.6660   20.5890 C   0  0  0  0  0  0  0  0  0  0  0  0
  -30.7910  -15.1150   20.8520 C   0  0  0  0  0  0  0  0  0  0  0  0
  -30.7740  -12.7200   20.0250 C   0  0  0  0  0  2  0  0  0  0  0  0
  -29.9560  -12.5710   18.7200 C   0  0  0  0  0  2  0  0  0  0  0  0
  -28.4490  -12.4270   19.0100 C   0  0  0  0  0  2  0  0  0  0  0  0
  -27.9330  -13.3860   20.1180 C   0  0  0  0  0  3  0  0  0  0  0  0
  -28.8880  -13.4590   21.3250 C   0  0  0  0  0  2  0  0  0  0  0  0
  -30.2000  -13.8550   20.7950 N   0  0  0  0  0  0  0  0  0  0  0  0
  -32.0260  -15.1540   20.8830 O   0  0  0  0  0  0  0  0  0  0  0  0
  -30.1420  -16.0560   18.7680 C   0  0  0  0  0  1  0  0  0  0  0  0
  -30.1030  -16.2040   20.2360 N   0  0  0  0  0  0  0  0  0  0  0  0
  -25.4900  -13.9590   20.6170 C   0  0  0  0  0  0  0  0  0  0  0  0
  -24.4010  -13.1800   20.9010 C   0  0  0  0  0  0  0  0  0  0  0  0
  -24.8790  -11.8360   20.9520 C   0  0  0  0  0  0  0  0  0  0  0  0
  -26.5590  -13.0880   20.5050 N   0  0  0  0  0  0  0  0  0  0  0  0
  -26.1940  -11.8070   20.7740 N   0  0  0  0  0  0  0  0  0  0  0  0
  -24.1490  -10.5690   21.1050 C   0  0  0  0  0  0  0  0  0  0  0  0
  -24.5170   -9.6200   22.0860 C   0  0  0  0  0  3  0  0  0  0  0  0
  -23.7890   -8.4200   22.2290 C   0  0  0  0  0  3  0  0  0  0  0  0
  -22.6800   -8.1570   21.3890 C   0  0  0  0  0  0  0  0  0  0  0  0
  -22.3320   -9.0950   20.4030 C   0  0  0  0  0  3  0  0  0  0  0  0
  -23.0590  -10.2880   20.2580 C   0  0  0  0  0  3  0  0  0  0  0  0
  -21.9310   -7.0070   21.4360 O   0  0  0  0  0  0  0  0  0  0  0  0
  -21.8040   -6.2780   22.5900 C   0  0  0  0  0  0  0  0  0  0  0  0
  -21.2700   -6.8380   23.7700 C   0  0  0  0  0  3  0  0  0  0  0  0
  -21.0960   -6.0340   24.9140 C   0  0  0  0  0  3  0  0  0  0  0  0
  -21.4420   -4.6700   24.8770 C   0  0  0  0  0  0  0  0  0  0  0  0
  -21.9670   -4.1090   23.7000 C   0  0  0  0  0  3  0  0  0  0  0  0
  -22.1450   -4.9120   22.5590 C   0  0  0  0  0  0  0  0  0  0  0  0
  -22.6310   -4.3610   21.4210 F   0  0  0  0  0  0  0  0  0  0  0  0
  -21.2670   -3.8960   25.9740 F   0  0  0  0  0  0  0  0  0  0  0  0
  -22.9790  -13.6450   21.0200 C   0  0  0  0  0  0  0  0  0  0  0  0
  -22.1850  -12.9740   21.8470 N   0  0  0  0  0  0  0  0  0  0  0  0
  -22.5780  -14.6380   20.4150 O   0  0  0  0  0  0  0  0  0  0  0  0
  -22.5210  -12.1700   22.3580 H   0  0  0  0  0  0  0  0  0  0  0  0
  -21.2270  -13.2700   21.9730 H   0  0  0  0  0  0  0  0  0  0  0  0
  -25.6580  -15.3270   20.4190 N   0  0  0  0  0  0  0  0  0  0  0  0
  -24.8880  -15.9850   20.4500 H   0  0  0  0  0  0  0  0  0  0  0  0
  -26.5440  -15.7630   20.2020 H   0  0  0  0  0  0  0  0  0  0  0  0
  -29.0340  -23.4950   20.5820 C   0  0  0  0  0  3  0  0  0  0  0  0
  -28.0630  -24.8160   20.1820 C   0  0  0  0  0  3  0  0  0  0  0  0
  -28.3470  -26.3360   20.3020 O   0  0  0  0  0  0  0  0  0  0  0  0
  -24.6410  -31.9590   23.2380 C   0  0  0  0  0  0  0  0  0  0  0  0
  -27.2780  -27.2940   20.2200 C   0  0  0  0  0  0  0  0  0  0  0  0
  -23.4560  -30.5480   21.6030 C   0  0  0  0  0  3  0  0  0  0  0  0
  -24.9240  -28.9960   20.1770 C   0  0  0  0  0  0  0  0  0  0  0  0
  -26.0050  -30.8530   21.4330 C   0  0  0  0  0  2  0  0  0  0  0  0
  -26.0970  -29.4640   20.7830 C   0  0  0  0  0  0  0  0  0  0  0  0
  -27.2750  -28.6300   20.7860 C   0  0  0  0  0  3  0  0  0  0  0  0
  -26.0780  -26.9250   19.5700 C   0  0  0  0  0  3  0  0  0  0  0  0
  -24.9280  -27.7400   19.5540 C   0  0  0  0  0  3  0  0  0  0  0  0
  -23.6830  -29.8720   20.2240 C   0  0  0  0  0  2  0  0  0  0  0  0
  -24.7200  -31.1410   22.1470 N   0  0  0  0  0  0  0  0  0  0  0  0
  -23.5520  -32.2310   23.7670 O   0  0  0  0  0  0  0  0  0  0  0  0
  -22.7920  -29.5320   22.5650 C   0  0  0  0  0  0  0  0  0  0  0  0
  -21.4650  -29.3480   22.4410 N   0  0  0  0  0  0  0  0  0  0  0  0
  -23.4720  -28.9140   23.3890 O   0  0  0  0  0  0  0  0  0  0  0  0
  -20.9730  -29.8960   21.7490 H   0  0  0  0  0  0  0  0  0  0  0  0
  -18.0960  -28.1240   22.9610 C   0  0  0  0  0  0  0  0  0  0  0  0
  -20.6540  -28.4040   23.2150 C   0  0  0  0  0  3  0  0  0  0  0  0
  -20.7630  -26.9720   22.6420 C   0  0  0  0  0  2  0  0  0  0  0  0
  -19.6590  -26.6430   21.6320 C   0  0  0  0  0  2  0  0  0  0  0  0
  -18.2790  -26.7780   22.2810 C   0  0  0  0  0  2  0  0  0  0  0  0
  -19.2110  -28.8950   23.3860 C   0  0  0  0  0  0  0  0  0  0  0  0
  -18.9860  -30.1530   23.9830 C   0  0  0  0  0  3  0  0  0  0  0  0
  -17.6780  -30.6440   24.1570 C   0  0  0  0  0  3  0  0  0  0  0  0
  -16.5770  -29.8720   23.7470 C   0  0  0  0  0  3  0  0  0  0  0  0
  -16.7860  -28.6130   23.1570 C   0  0  0  0  0  3  0  0  0  0  0  0
  -25.9130  -32.6090   23.8620 C   0  0  0  0  0  3  0  0  0  0  0  0
  -26.4230  -31.8590   25.1550 C   0  0  1  0  0  0  0  0  0  0  0  0
  -25.3200  -31.6210   26.2130 C   0  0  0  0  0  1  0  0  0  0  0  0
  -27.0250  -30.4810   24.7930 C   0  0  0  0  0  1  0  0  0  0  0  0
  -27.5600  -32.6730   25.8170 C   0  0  0  0  0  1  0  0  0  0  0  0
  -25.5880  -34.0090   24.1760 N   0  0  0  0  0  0  0  0  0  0  0  0
  -25.9220  -35.0610   23.4160 C   0  0  0  0  0  0  0  0  0  0  0  0
  -26.6030  -34.9540   22.3930 O   0  0  0  0  0  0  0  0  0  0  0  0
  -24.9800  -34.1630   24.9680 H   0  0  0  0  0  0  0  0  0  0  0  0
  -24.1970  -36.8520   23.0280 C   0  0  0  0  0  1  0  0  0  0  0  0
  -25.4240  -36.4500   23.8610 C   0  0  0  0  0  3  0  0  0  0  0  0
  -27.5400  -37.3480   24.7260 C   0  0  0  0  0  1  0  0  0  0  0  0
  -26.4560  -37.5070   23.7610 N   0  0  0  0  0  0  0  0  0  0  0  0
  -26.0430  -38.4270   23.8940 H   0  0  0  0  0  0  0  0  0  0  0  0
  2  1  1  0
  3  5  2  0
  3  7  1  0
  4  6  1  0
  5  8  1  0
  7  4  2  0
  8  2  1  0
  8  6  2  0
  9 16  2  0
 10 15  1  0
 11 12  1  0
 11 10  1  0
 13 12  1  0
 13 22  1  0
 13 14  1  0
 15  9  1  0
 15 14  1  0
 17 18  1  0
 18  7  1  0
 18  9  1  0
 19 20  2  0
 20 21  1  0
 20 39  1  0
 21 24  1  0
 22 19  1  0
 22 23  1  0
 23 21  2  0
 24 25  1  0
 25 26  2  0
 27 30  1  0
 27 26  1  0
 28 27  2  0
 29 28  1  0
 29 24  2  0
 30 31  1  0
 31 32  1  0
 32 33  2  0
 34 33  1  0
 34 38  1  0
 35 34  2  0
 36 31  2  0
 36 35  1  0
 37 36  1  0
 39 40  1  0
 40 43  1  0
 40 42  1  0
 41 39  2  0
 44 45  1  0
 44 19  1  0
 46 44  1  0
 47  2  1  0
 48 49  1  0
 48 47  2  0
 50 61  2  0
 51 49  1  0
 51 56  1  0
 52 60  1  0
 52 62  1  0
 53 59  1  0
 53 55  1  0
 54 60  1  0
 55 56  2  0
 55 54  1  0
 57 51  2  0
 58 57  1  0
 58 53  2  0
 59 52  1  0
 60 50  1  0
 62 64  2  0
 63 62  1  0
 65 63  1  0
 66 75  2  0
 66 71  1  0
 67 63  1  0
 67 71  1  0
 68 67  1  0
 69 70  1  0
 69 68  1  0
 70 66  1  0
 71 72  2  0
 72 73  1  0
 74 73  2  0
 75 74  1  0
 76 50  1  0
 76 81  1  0
 76 77  1  0
 77 80  1  1
 77 78  1  0
 79 77  1  0
 81 84  1  0
 82 86  1  0
 82 81  1  0
 83 82  2  0
 86 85  1  0
 88 86  1  0
 88 89  1  0
 88 87  1  0
M  ISO  4   9 100  18 100  48 101  49 101
M  END
>  <TORSDO>  (65) 
F 19

>  <SCORE>  (65) 
-13.686

>  <name>  (65) 
64

>  <ligand_id>  (65) 
64

>  <original_smiles>  (65) 
[H]c1c([H])c([H])c2c(c1[H])C([H])([H])C([H])([H])C([H])([H])C2([H])N([H])C(=O)C1([H])N(C(=O)C([H])(N([H])C(=O)C([H])(N([H])C([H])([H])[H])C([H])([H])[H])C(C([H])([H])[H])(C([H])([H])[H])C([H])([H])[H])C([H])([H])c2c([H])c(OC([H])([H])C([H])([H])N(c3c([H])c([H])c(N(C(=O)N4C([H])([H])C([H])([H])C([H])([H])C([H])(n5nc(-c6c([H])c([H])c(Oc7c([H])c([H])c(F)c([H])c7F)c([H])c6[H])c(C(=O)N([H])[H])c5N([H])[H])C4([H])[H])C([H])([H])[H])c([H])c3[H])C([H])([H])[H])c([H])c([H])c2C1([H])[H]

>  <smiles>  (65) 
[H]c1c([H])c([H])c2c(c1[H])C([H])([H])C([H])([H])C([H])([H])C2([H])N([H])C(=O)C1([H])N(C(=O)C([H])(N([H])C(=O)C([H])(N([H])C([H])([H])[H])C([H])([H])[H])C(C([H])([H])[H])(C([H])([H])[H])C([H])([H])[H])C([H])([H])c2c([H])c(OC([H])([H])C([H])([H])N(c3c([H])c([H])c(N(C(=O)N4C([H])([H])C([H])([H])C([H])([H])C([H])(n5nc(-c6c([H])c([H])c(Oc7c([H])c([H])c(F)c([H])c7F)c([H])c6[H])c(C(=O)N([H])[H])c5N([H])[H])C4([H])[H])C([H])([H])[H])c([H])c3[H])C([H])([H])[H])c([H])c([H])c2C1([H])[H]

$$$$
65:0:0
     RDKit          3D

 94102  0  0  1  0  0  0  0  0999 V2000
  -29.6830  -22.8610   20.4880 C   0  0  0  0  0  0  0  0  0  0  0  0
  -29.7810  -21.7640   19.6470 N   0  0  0  0  0  0  0  0  0  0  0  0
  -30.6370  -23.1560   21.2200 O   0  0  0  0  0  0  0  0  0  0  0  0
  -29.9190  -19.2950   18.9930 C   0  0  0  0  0  3  0  0  0  0  0  0
  -30.3670  -18.3390   21.5100 C   0  0  0  0  0  3  0  0  0  0  0  0
  -29.9760  -20.3110   20.0070 C   0  0  0  0  0  0  0  0  0  0  0  0
  -30.3650  -17.3340   20.4830 C   0  0  0  0  0  0  0  0  0  0  0  0
  -30.1770  -19.7470   21.3080 C   0  0  0  0  0  0  0  0  0  0  0  0
  -30.1100  -17.8860   19.1930 C   0  0  0  0  0  0  0  0  0  0  0  0
  -30.1870  -20.7040   22.7510 Cl  0  0  0  0  0  0  0  0  0  0  0  0
  -29.9430  -16.8870   17.7950 Cl  0  0  0  0  0  0  0  0  0  0  0  0
  -31.0280  -14.8390   20.0280 C   0  0  0  0  0  0  0  0  0  0  0  0
  -30.6520  -12.6180   18.9200 C   0  0  0  0  0  2  0  0  0  0  0  0
  -29.6530  -12.8030   17.7630 C   0  0  0  0  0  2  0  0  0  0  0  0
  -28.2210  -12.5840   18.2800 C   0  0  0  0  0  2  0  0  0  0  0  0
  -27.9330  -13.4160   19.5600 C   0  0  0  0  0  3  0  0  0  0  0  0
  -29.0670  -13.2810   20.6000 C   0  0  0  0  0  2  0  0  0  0  0  0
  -30.3390  -13.6390   19.9490 N   0  0  0  0  0  0  0  0  0  0  0  0
  -32.0940  -14.9750   19.4240 O   0  0  0  0  0  0  0  0  0  0  0  0
  -30.7460  -15.5830   22.2500 C   0  0  0  0  0  1  0  0  0  0  0  0
  -30.5470  -15.8750   20.8220 N   0  0  0  0  0  0  0  0  0  0  0  0
  -25.6010  -13.9610   20.4840 C   0  0  0  0  0  0  0  0  0  0  0  0
  -24.5610  -13.1590   20.8860 C   0  0  0  0  0  0  0  0  0  0  0  0
  -25.0200  -11.8160   20.7580 C   0  0  0  0  0  0  0  0  0  0  0  0
  -26.6250  -13.0970   20.1280 N   0  0  0  0  0  0  0  0  0  0  0  0
  -26.2860  -11.8010   20.3570 N   0  0  0  0  0  0  0  0  0  0  0  0
  -24.3080  -10.5430   20.9400 C   0  0  0  0  0  0  0  0  0  0  0  0
  -24.7340   -9.5860   21.8900 C   0  0  0  0  0  3  0  0  0  0  0  0
  -24.0200   -8.3820   22.0650 C   0  0  0  0  0  3  0  0  0  0  0  0
  -22.8680   -8.1210   21.2880 C   0  0  0  0  0  0  0  0  0  0  0  0
  -22.4540   -9.0670   20.3340 C   0  0  0  0  0  3  0  0  0  0  0  0
  -23.1660  -10.2640   20.1590 C   0  0  0  0  0  3  0  0  0  0  0  0
  -22.1320   -6.9610   21.3620 O   0  0  0  0  0  0  0  0  0  0  0  0
  -21.9760   -6.2810   22.5430 C   0  0  0  0  0  0  0  0  0  0  0  0
  -21.4080   -6.8910   23.6820 C   0  0  0  0  0  3  0  0  0  0  0  0
  -21.2090   -6.1420   24.8580 C   0  0  0  0  0  3  0  0  0  0  0  0
  -21.5580   -4.7780   24.8950 C   0  0  0  0  0  0  0  0  0  0  0  0
  -22.1110   -4.1650   23.7580 C   0  0  0  0  0  3  0  0  0  0  0  0
  -22.3170   -4.9140   22.5850 C   0  0  0  0  0  0  0  0  0  0  0  0
  -22.8380   -4.3140   21.4880 F   0  0  0  0  0  0  0  0  0  0  0  0
  -21.3560   -4.0560   26.0220 F   0  0  0  0  0  0  0  0  0  0  0  0
  -23.1920  -13.6240   21.2810 C   0  0  0  0  0  0  0  0  0  0  0  0
  -22.5360  -12.8940   22.1810 N   0  0  0  0  0  0  0  0  0  0  0  0
  -22.7090  -14.6550   20.8290 O   0  0  0  0  0  0  0  0  0  0  0  0
  -22.9450  -12.0570   22.5610 H   0  0  0  0  0  0  0  0  0  0  0  0
  -21.6200  -13.1800   22.4870 H   0  0  0  0  0  0  0  0  0  0  0  0
  -25.7420  -15.3380   20.3780 N   0  0  0  0  0  0  0  0  0  0  0  0
  -24.9680  -15.9700   20.5680 H   0  0  0  0  0  0  0  0  0  0  0  0
  -26.5740  -15.8140   20.0460 H   0  0  0  0  0  0  0  0  0  0  0  0
  -29.3860  -22.8340   17.3350 C   0  0  0  0  0  1  0  0  0  0  0  0
  -30.3670  -22.2180   18.3520 C   0  0  0  0  0  2  0  0  0  0  0  0
  -28.4610  -23.8890   20.4330 C   0  0  0  0  0  2  0  0  0  0  0  0
  -28.5600  -25.2830   19.6040 C   0  0  0  0  0  2  0  0  0  0  0  0
  -28.4160  -26.6200   20.2250 O   0  0  0  0  0  0  0  0  0  0  0  0
  -24.7250  -31.9520   23.3110 C   0  0  0  0  0  0  0  0  0  0  0  0
  -27.2660  -27.4240   20.1450 C   0  0  0  0  0  0  0  0  0  0  0  0
  -23.5030  -30.5940   21.6630 C   0  0  0  0  0  3  0  0  0  0  0  0
  -24.9290  -29.0860   20.1640 C   0  0  0  0  0  0  0  0  0  0  0  0
  -26.0440  -30.8960   21.4650 C   0  0  0  0  0  2  0  0  0  0  0  0
  -26.0960  -29.5320   20.7850 C   0  0  0  0  0  0  0  0  0  0  0  0
  -27.2610  -28.7100   20.7770 C   0  0  0  0  0  3  0  0  0  0  0  0
  -26.0720  -27.0260   19.4960 C   0  0  0  0  0  3  0  0  0  0  0  0
  -24.9220  -27.8490   19.4940 C   0  0  0  0  0  3  0  0  0  0  0  0
  -23.6970  -29.9680   20.2570 C   0  0  0  0  0  2  0  0  0  0  0  0
  -24.7780  -31.1590   22.2030 N   0  0  0  0  0  0  0  0  0  0  0  0
  -23.6480  -32.2240   23.8550 O   0  0  0  0  0  0  0  0  0  0  0  0
  -22.8530  -29.5450   22.5970 C   0  0  0  0  0  0  0  0  0  0  0  0
  -21.5340  -29.3350   22.4430 N   0  0  0  0  0  0  0  0  0  0  0  0
  -23.5310  -28.9330   23.4280 O   0  0  0  0  0  0  0  0  0  0  0  0
  -21.0490  -29.8670   21.7320 H   0  0  0  0  0  0  0  0  0  0  0  0
  -18.1790  -28.0560   22.8730 C   0  0  0  0  0  0  0  0  0  0  0  0
  -20.7210  -28.3840   23.2050 C   0  0  0  0  0  3  0  0  0  0  0  0
  -20.8790  -26.9540   22.6390 C   0  0  0  0  0  2  0  0  0  0  0  0
  -19.8090  -26.5960   21.6050 C   0  0  0  0  0  2  0  0  0  0  0  0
  -18.4070  -26.7080   22.2110 C   0  0  0  0  0  2  0  0  0  0  0  0
  -19.2650  -28.8500   23.3230 C   0  0  0  0  0  0  0  0  0  0  0  0
  -18.9980  -30.1100   23.9010 C   0  0  0  0  0  3  0  0  0  0  0  0
  -17.6760  -30.5770   24.0310 C   0  0  0  0  0  3  0  0  0  0  0  0
  -16.6040  -29.7810   23.5950 C   0  0  0  0  0  3  0  0  0  0  0  0
  -16.8550  -28.5200   23.0250 C   0  0  0  0  0  3  0  0  0  0  0  0
  -26.0090  -32.5710   23.9310 C   0  0  0  0  0  3  0  0  0  0  0  0
  -26.5270  -31.7920   25.2040 C   0  0  1  0  0  0  0  0  0  0  0  0
  -25.4300  -31.5280   26.2640 C   0  0  0  0  0  1  0  0  0  0  0  0
  -27.1160  -30.4230   24.8030 C   0  0  0  0  0  1  0  0  0  0  0  0
  -27.6880  -32.5810   25.8590 C   0  0  0  0  0  1  0  0  0  0  0  0
  -25.7060  -33.9730   24.2650 N   0  0  0  0  0  0  0  0  0  0  0  0
  -26.0580  -35.0260   23.5150 C   0  0  0  0  0  0  0  0  0  0  0  0
  -26.7390  -34.9180   22.4920 O   0  0  0  0  0  0  0  0  0  0  0  0
  -25.0960  -34.1320   25.0530 H   0  0  0  0  0  0  0  0  0  0  0  0
  -24.3570  -36.8390   23.1380 C   0  0  0  0  0  1  0  0  0  0  0  0
  -25.5770  -36.4170   23.9730 C   0  0  0  0  0  3  0  0  0  0  0  0
  -27.6980  -37.2610   24.8620 C   0  0  0  0  0  1  0  0  0  0  0  0
  -26.6220  -37.4580   23.8940 N   0  0  0  0  0  0  0  0  0  0  0  0
  -26.2260  -38.3810   24.0510 H   0  0  0  0  0  0  0  0  0  0  0  0
  1  3  2  0
  2  6  1  0
  2  1  1  0
  4  9  2  0
  4  6  1  0
  6  8  2  0
  7 21  1  0
  7  5  2  0
  8  5  1  0
  8 10  1  0
  9  7  1  0
 11  9  1  0
 12 21  1  0
 13 18  1  0
 14 15  1  0
 14 13  1  0
 16 15  1  0
 16 25  1  0
 16 17  1  0
 18 12  1  0
 18 17  1  0
 19 12  2  0
 21 20  1  0
 22 23  2  0
 23 42  1  0
 24 23  1  0
 24 27  1  0
 25 26  1  0
 25 22  1  0
 26 24  2  0
 27 28  1  0
 28 29  2  0
 30 33  1  0
 30 29  1  0
 31 30  2  0
 32 31  1  0
 32 27  2  0
 33 34  1  0
 34 39  2  0
 34 35  1  0
 35 36  2  0
 36 37  1  0
 37 41  1  0
 38 37  2  0
 39 38  1  0
 40 39  1  0
 42 43  1  0
 43 46  1  0
 43 45  1  0
 44 42  2  0
 47 22  1  0
 47 48  1  0
 49 47  1  0
 50 51  1  0
 51  2  1  0
 52  1  1  0
 53 54  1  0
 53 52  1  0
 55 66  2  0
 56 54  1  0
 56 61  1  0
 57 65  1  0
 57 67  1  0
 58 64  1  0
 58 60  1  0
 59 65  1  0
 60 59  1  0
 61 60  2  0
 62 56  2  0
 63 62  1  0
 63 58  2  0
 64 57  1  0
 65 55  1  0
 67 69  2  0
 68 67  1  0
 70 68  1  0
 71 80  2  0
 71 76  1  0
 72 68  1  0
 72 76  1  0
 73 72  1  0
 74 75  1  0
 74 73  1  0
 75 71  1  0
 76 77  2  0
 77 78  1  0
 79 78  2  0
 80 79  1  0
 81 55  1  0
 81 86  1  0
 81 82  1  0
 82 85  1  1
 82 83  1  0
 84 82  1  0
 86 89  1  0
 87 91  1  0
 87 86  1  0
 88 87  2  0
 91 90  1  0
 93 91  1  0
 93 94  1  0
 93 92  1  0
M  ISO  4  12 100  21 100  53 101  54 101
M  END
>  <TORSDO>  (66) 
F 20

>  <SCORE>  (66) 
-12.507

>  <name>  (66) 
65

>  <ligand_id>  (66) 
65

>  <original_smiles>  (66) 
[H]c1c([H])c([H])c2c(c1[H])C([H])([H])C([H])([H])C([H])([H])C2([H])N([H])C(=O)C1([H])N(C(=O)C([H])(N([H])C(=O)C([H])(N([H])C([H])([H])[H])C([H])([H])[H])C(C([H])([H])[H])(C([H])([H])[H])C([H])([H])[H])C([H])([H])c2c([H])c(OC([H])([H])C([H])([H])C(=O)N(c3c([H])c(Cl)c(N(C(=O)N4C([H])([H])C([H])([H])C([H])([H])C([H])(n5nc(-c6c([H])c([H])c(Oc7c([H])c([H])c(F)c([H])c7F)c([H])c6[H])c(C(=O)N([H])[H])c5N([H])[H])C4([H])[H])C([H])([H])[H])c([H])c3Cl)C([H])([H])C([H])([H])[H])c([H])c([H])c2C1([H])[H]

>  <smiles>  (66) 
[H]c1c([H])c([H])c2c(c1[H])C([H])([H])C([H])([H])C([H])([H])C2([H])N([H])C(=O)C1([H])N(C(=O)C([H])(N([H])C(=O)C([H])(N([H])C([H])([H])[H])C([H])([H])[H])C(C([H])([H])[H])(C([H])([H])[H])C([H])([H])[H])C([H])([H])c2c([H])c(OC([H])([H])C([H])([H])C(=O)N(c3c([H])c(Cl)c(N(C(=O)N4C([H])([H])C([H])([H])C([H])([H])C([H])(n5nc(-c6c([H])c([H])c(Oc7c([H])c([H])c(F)c([H])c7F)c([H])c6[H])c(C(=O)N([H])[H])c5N([H])[H])C4([H])[H])C([H])([H])[H])c([H])c3Cl)C([H])([H])C([H])([H])[H])c([H])c([H])c2C1([H])[H]

$$$$
66:0:0
     RDKit          3D

 93101  0  0  1  0  0  0  0  0999 V2000
  -26.9960  -22.6020   21.5740 C   0  0  0  0  0  1  0  0  0  0  0  0
  -28.0000  -22.5350   20.5050 N   0  0  0  0  0  0  0  0  0  0  0  0
  -30.0930  -19.4990   19.6690 C   0  0  0  0  0  3  0  0  0  0  0  0
  -30.3100  -19.9830   22.0240 C   0  0  0  0  0  3  0  0  0  0  0  0
  -29.2680  -20.6300   19.5140 C   0  0  0  0  0  3  0  0  0  0  0  0
  -29.4790  -21.1090   21.8680 C   0  0  0  0  0  3  0  0  0  0  0  0
  -30.6200  -19.1350   20.9320 C   0  0  0  0  0  0  0  0  0  0  0  0
  -28.9070  -21.4450   20.6160 C   0  0  0  0  0  0  0  0  0  0  0  0
  -31.9670  -17.6830   22.4350 C   0  0  0  0  0  1  0  0  0  0  0  0
  -31.4390  -17.9880   21.1050 N   0  0  0  0  0  0  0  0  0  0  0  0
  -31.6060  -16.9710   20.0540 C   0  0  0  0  0  2  0  0  0  0  0  0
  -30.7290  -15.7140   20.2730 C   0  0  0  0  0  2  0  0  0  0  0  0
  -31.1990  -14.4830   19.4670 C   0  0  0  0  0  0  0  0  0  0  0  0
  -30.8640  -12.1340   18.7610 C   0  0  0  0  0  2  0  0  0  0  0  0
  -29.8360  -12.0320   17.6190 C   0  0  0  0  0  2  0  0  0  0  0  0
  -28.4030  -11.9560   18.1790 C   0  0  0  0  0  2  0  0  0  0  0  0
  -28.1160  -13.0590   19.2320 C   0  0  0  0  0  3  0  0  0  0  0  0
  -29.2450  -13.1250   20.2840 C   0  0  0  0  0  2  0  0  0  0  0  0
  -30.5240  -13.3090   19.5780 N   0  0  0  0  0  0  0  0  0  0  0  0
  -32.1790  -14.6030   18.7230 O   0  0  0  0  0  0  0  0  0  0  0  0
  -25.8750  -13.8240   20.2450 C   0  0  0  0  0  0  0  0  0  0  0  0
  -24.7920  -13.1230   20.7030 C   0  0  0  0  0  0  0  0  0  0  0  0
  -25.1240  -11.7420   20.5560 C   0  0  0  0  0  0  0  0  0  0  0  0
  -26.8060  -12.8740   19.8530 N   0  0  0  0  0  0  0  0  0  0  0  0
  -26.3620  -11.6130   20.0930 N   0  0  0  0  0  0  0  0  0  0  0  0
  -24.3160  -10.5350   20.7740 C   0  0  0  0  0  0  0  0  0  0  0  0
  -24.7060   -9.5430   21.7010 C   0  0  0  0  0  3  0  0  0  0  0  0
  -23.9020   -8.4010   21.9070 C   0  0  0  0  0  3  0  0  0  0  0  0
  -22.6950   -8.2430   21.1860 C   0  0  0  0  0  0  0  0  0  0  0  0
  -22.3240   -9.2220   20.2470 C   0  0  0  0  0  3  0  0  0  0  0  0
  -23.1260  -10.3560   20.0400 C   0  0  0  0  0  3  0  0  0  0  0  0
  -21.8660   -7.1540   21.3010 O   0  0  0  0  0  0  0  0  0  0  0  0
  -21.6990   -6.4980   22.4950 C   0  0  0  0  0  0  0  0  0  0  0  0
  -21.2380   -7.1630   23.6520 C   0  0  0  0  0  3  0  0  0  0  0  0
  -21.0160   -6.4380   24.8400 C   0  0  0  0  0  3  0  0  0  0  0  0
  -21.2440   -5.0490   24.8700 C   0  0  0  0  0  0  0  0  0  0  0  0
  -21.6970   -4.3850   23.7170 C   0  0  0  0  0  3  0  0  0  0  0  0
  -21.9210   -5.1070   22.5330 C   0  0  0  0  0  0  0  0  0  0  0  0
  -22.3390   -4.4570   21.4180 F   0  0  0  0  0  0  0  0  0  0  0  0
  -21.0220   -4.3500   26.0070 F   0  0  0  0  0  0  0  0  0  0  0  0
  -23.4830  -13.6980   21.1630 C   0  0  0  0  0  0  0  0  0  0  0  0
  -22.8070  -13.0210   22.0860 N   0  0  0  0  0  0  0  0  0  0  0  0
  -23.0750  -14.7790   20.7410 O   0  0  0  0  0  0  0  0  0  0  0  0
  -23.1520  -12.1440   22.4470 H   0  0  0  0  0  0  0  0  0  0  0  0
  -21.9330  -13.3860   22.4360 H   0  0  0  0  0  0  0  0  0  0  0  0
  -26.1400  -15.1840   20.1090 N   0  0  0  0  0  0  0  0  0  0  0  0
  -25.4560  -15.8970   20.3410 H   0  0  0  0  0  0  0  0  0  0  0  0
  -26.9910  -15.5650   19.7150 H   0  0  0  0  0  0  0  0  0  0  0  0
  -26.5190  -22.2150   18.5330 C   0  0  0  0  0  1  0  0  0  0  0  0
  -27.6480  -23.0530   19.1690 C   0  0  0  0  0  3  0  0  0  0  0  0
  -27.2170  -24.5430   19.1530 C   0  0  0  0  0  2  0  0  0  0  0  0
  -28.1580  -25.5810   19.8020 C   0  0  0  0  0  2  0  0  0  0  0  0
  -28.0510  -26.9070   19.2510 O   0  0  0  0  0  0  0  0  0  0  0  0
  -24.6790  -31.6740   23.3420 C   0  0  0  0  0  0  0  0  0  0  0  0
  -26.8970  -27.6220   19.4870 C   0  0  0  0  0  0  0  0  0  0  0  0
  -23.2900  -30.5300   21.6450 C   0  0  0  0  0  3  0  0  0  0  0  0
  -24.5620  -29.1650   19.9130 C   0  0  0  0  0  0  0  0  0  0  0  0
  -25.8000  -30.8530   21.2740 C   0  0  0  0  0  2  0  0  0  0  0  0
  -25.7840  -29.5750   20.4630 C   0  0  0  0  0  0  0  0  0  0  0  0
  -26.9520  -28.8090   20.2530 C   0  0  0  0  0  3  0  0  0  0  0  0
  -25.6640  -27.2520   18.9060 C   0  0  0  0  0  3  0  0  0  0  0  0
  -24.4970  -28.0010   19.1330 C   0  0  0  0  0  3  0  0  0  0  0  0
  -23.3580  -30.0380   20.1760 C   0  0  0  0  0  2  0  0  0  0  0  0
  -24.6130  -31.0260   22.1450 N   0  0  0  0  0  0  0  0  0  0  0  0
  -23.6570  -31.8970   24.0050 O   0  0  0  0  0  0  0  0  0  0  0  0
  -22.6890  -29.4020   22.5150 C   0  0  0  0  0  0  0  0  0  0  0  0
  -21.3780  -29.1610   22.3580 N   0  0  0  0  0  0  0  0  0  0  0  0
  -23.4000  -28.7520   23.2860 O   0  0  0  0  0  0  0  0  0  0  0  0
  -20.8630  -29.7450   21.7130 H   0  0  0  0  0  0  0  0  0  0  0  0
  -18.1120  -27.6320   22.5730 C   0  0  0  0  0  0  0  0  0  0  0  0
  -20.6050  -28.1260   23.0440 C   0  0  0  0  0  3  0  0  0  0  0  0
  -20.8890  -26.7300   22.4440 C   0  0  0  0  0  2  0  0  0  0  0  0
  -19.9010  -26.3330   21.3430 C   0  0  0  0  0  2  0  0  0  0  0  0
  -18.4680  -26.3270   21.8840 C   0  0  0  0  0  2  0  0  0  0  0  0
  -19.1160  -28.4850   23.1030 C   0  0  0  0  0  0  0  0  0  0  0  0
  -18.7330  -29.7050   23.7020 C   0  0  0  0  0  3  0  0  0  0  0  0
  -17.3760  -30.0760   23.7780 C   0  0  0  0  0  3  0  0  0  0  0  0
  -16.3850  -29.2200   23.2660 C   0  0  0  0  0  3  0  0  0  0  0  0
  -16.7530  -28.0000   22.6710 C   0  0  0  0  0  3  0  0  0  0  0  0
  -26.0350  -32.1850   23.9210 C   0  0  0  0  0  3  0  0  0  0  0  0
  -25.8300  -33.5710   24.3610 N   0  0  0  0  0  0  0  0  0  0  0  0
  -26.1880  -34.6530   23.6570 C   0  0  0  0  0  0  0  0  0  0  0  0
  -26.7980  -34.5840   22.5860 O   0  0  0  0  0  0  0  0  0  0  0  0
  -25.2870  -33.7040   25.2010 H   0  0  0  0  0  0  0  0  0  0  0  0
  -24.5560  -36.5610   23.5140 C   0  0  0  0  0  1  0  0  0  0  0  0
  -25.8090  -36.0310   24.2310 C   0  0  0  0  0  3  0  0  0  0  0  0
  -28.0320  -36.7300   25.0040 C   0  0  0  0  0  1  0  0  0  0  0  0
  -26.8970  -37.0280   24.1350 N   0  0  0  0  0  0  0  0  0  0  0  0
  -26.5540  -37.9560   24.3700 H   0  0  0  0  0  0  0  0  0  0  0  0
  -26.5810  -31.2950   25.1040 C   0  0  1  0  0  0  0  0  0  0  0  0
  -25.5410  -31.0350   26.2170 C   0  0  0  0  0  1  0  0  0  0  0  0
  -27.0610  -29.9220   24.5780 C   0  0  0  0  0  1  0  0  0  0  0  0
  -27.8120  -31.9760   25.7480 C   0  0  0  0  0  1  0  0  0  0  0  0
  2  8  1  0
  2  1  1  0
  3  7  1  0
  5  3  2  0
  5  8  1  0
  6  4  1  0
  7 10  1  0
  7  4  2  0
  8  6  2  0
 10  9  1  0
 11 12  1  0
 11 10  1  0
 13 19  1  0
 13 12  1  0
 14 19  1  0
 15 16  1  0
 15 14  1  0
 17 16  1  0
 17 24  1  0
 17 18  1  0
 19 18  1  0
 20 13  2  0
 21 22  2  0
 22 41  1  0
 23 22  1  0
 23 26  1  0
 24 25  1  0
 24 21  1  0
 25 23  2  0
 26 27  1  0
 27 28  2  0
 29 32  1  0
 29 28  1  0
 30 29  2  0
 31 30  1  0
 31 26  2  0
 32 33  1  0
 33 38  2  0
 33 34  1  0
 34 35  2  0
 35 36  1  0
 36 40  1  0
 37 36  2  0
 38 37  1  0
 39 38  1  0
 41 42  1  0
 42 45  1  0
 42 44  1  0
 43 41  2  0
 46 21  1  0
 46 47  1  0
 48 46  1  0
 50 49  1  0
 50  2  1  0
 51 50  1  0
 51 52  1  0
 53 55  1  0
 53 52  1  0
 54 65  2  0
 55 60  1  0
 56 64  1  0
 56 66  1  0
 57 63  1  0
 57 59  1  0
 58 64  1  0
 59 58  1  0
 60 59  2  0
 61 62  1  0
 61 55  2  0
 62 57  2  0
 63 56  1  0
 64 54  1  0
 66 68  2  0
 67 66  1  0
 69 67  1  0
 70 79  2  0
 70 75  1  0
 71 67  1  0
 71 75  1  0
 72 71  1  0
 73 74  1  0
 73 72  1  0
 74 70  1  0
 75 76  2  0
 76 77  1  0
 78 77  2  0
 79 78  1  0
 80 54  1  0
 80 81  1  0
 80 90  1  0
 81 84  1  0
 82 86  1  0
 82 81  1  0
 83 82  2  0
 86 85  1  0
 88 86  1  0
 88 89  1  0
 88 87  1  0
 90 93  1  1
 90 91  1  0
 92 90  1  0
M  ISO  4  12 100  13 100  52 101  53 101
M  END
>  <TORSDO>  (67) 
F 23

>  <SCORE>  (67) 
-10.564

>  <name>  (67) 
66

>  <ligand_id>  (67) 
66

>  <original_smiles>  (67) 
[H]c1c([H])c([H])c2c(c1[H])C([H])([H])C([H])([H])C([H])([H])C2([H])N([H])C(=O)C1([H])N(C(=O)C([H])(N([H])C(=O)C([H])(N([H])C([H])([H])[H])C([H])([H])[H])C(C([H])([H])[H])(C([H])([H])[H])C([H])([H])[H])C([H])([H])c2c([H])c(OC([H])([H])C([H])([H])C([H])(N(c3c([H])c([H])c(N(C([H])([H])[H])C([H])([H])C([H])([H])C(=O)N4C([H])([H])C([H])([H])C([H])([H])C([H])(n5nc(-c6c([H])c([H])c(Oc7c([H])c([H])c(F)c([H])c7F)c([H])c6[H])c(C(=O)N([H])[H])c5N([H])[H])C4([H])[H])c([H])c3[H])C([H])([H])[H])C([H])([H])[H])c([H])c([H])c2C1([H])[H]

>  <smiles>  (67) 
[H]c1c([H])c([H])c2c(c1[H])C([H])([H])C([H])([H])C([H])([H])C2([H])N([H])C(=O)C1([H])N(C(=O)C([H])(N([H])C(=O)C([H])(N([H])C([H])([H])[H])C([H])([H])[H])C(C([H])([H])[H])(C([H])([H])[H])C([H])([H])[H])C([H])([H])c2c([H])c(OC([H])([H])C([H])([H])C([H])(N(c3c([H])c([H])c(N(C([H])([H])[H])C([H])([H])C([H])([H])C(=O)N4C([H])([H])C([H])([H])C([H])([H])C([H])(n5nc(-c6c([H])c([H])c(Oc7c([H])c([H])c(F)c([H])c7F)c([H])c6[H])c(C(=O)N([H])[H])c5N([H])[H])C4([H])[H])c([H])c3[H])C([H])([H])[H])C([H])([H])[H])c([H])c([H])c2C1([H])[H]

$$$$
67:0:0
     RDKit          3D

 94102  0  0  1  0  0  0  0  0999 V2000
  -29.5250  -21.5400   19.0810 C   0  0  0  0  0  2  0  0  0  0  0  0
  -28.9950  -18.4730   21.3500 C   0  0  0  0  0  3  0  0  0  0  0  0
  -29.0710  -19.8030   20.8850 C   0  0  0  0  0  3  0  0  0  0  0  0
  -29.8590  -17.6820   19.2230 C   0  0  0  0  0  3  0  0  0  0  0  0
  -29.3790  -17.3980   20.5190 C   0  0  0  0  0  0  0  0  0  0  0  0
  -29.5260  -20.0870   19.5790 C   0  0  0  0  0  0  0  0  0  0  0  0
  -29.9350  -19.0090   18.7510 C   0  0  0  0  0  0  0  0  0  0  0  0
  -30.5240  -19.2650   17.1470 Cl  0  0  0  0  0  0  0  0  0  0  0  0
  -29.2000  -15.9560   21.0000 C   0  0  0  0  0  2  0  0  0  0  0  0
  -30.6910  -14.2680   19.9300 C   0  0  0  0  0  0  0  0  0  0  0  0
  -30.2300  -12.1530   18.7310 C   0  0  0  0  0  2  0  0  0  0  0  0
  -29.1980  -12.3580   17.6050 C   0  0  0  0  0  2  0  0  0  0  0  0
  -27.7640  -12.2130   18.1500 C   0  0  0  0  0  2  0  0  0  0  0  0
  -27.5330  -13.0580   19.4280 C   0  0  0  0  0  3  0  0  0  0  0  0
  -28.6680  -12.8230   20.4540 C   0  0  0  0  0  2  0  0  0  0  0  0
  -29.9500  -13.1290   19.8000 N   0  0  0  0  0  0  0  0  0  0  0  0
  -31.7000  -14.4670   19.2430 O   0  0  0  0  0  0  0  0  0  0  0  0
  -31.5090  -15.6650   21.7380 C   0  0  0  0  0  1  0  0  0  0  0  0
  -30.4000  -15.1000   20.9620 N   0  0  0  0  0  0  0  0  0  0  0  0
  -25.1970  -13.7020   20.2990 C   0  0  0  0  0  0  0  0  0  0  0  0
  -24.1560  -12.9440   20.7610 C   0  0  0  0  0  0  0  0  0  0  0  0
  -24.6060  -11.5880   20.7200 C   0  0  0  0  0  0  0  0  0  0  0  0
  -26.2170  -12.8080   20.0080 N   0  0  0  0  0  0  0  0  0  0  0  0
  -25.8690  -11.5330   20.3180 N   0  0  0  0  0  0  0  0  0  0  0  0
  -23.8900  -10.3340   20.9850 C   0  0  0  0  0  0  0  0  0  0  0  0
  -24.3630   -9.3990   21.9310 C   0  0  0  0  0  3  0  0  0  0  0  0
  -23.6480   -8.2090   22.1790 C   0  0  0  0  0  3  0  0  0  0  0  0
  -22.4460   -7.9440   21.4810 C   0  0  0  0  0  0  0  0  0  0  0  0
  -21.9930   -8.8680   20.5230 C   0  0  0  0  0  3  0  0  0  0  0  0
  -22.7080  -10.0510   20.2730 C   0  0  0  0  0  3  0  0  0  0  0  0
  -21.6980   -6.8040   21.6390 O   0  0  0  0  0  0  0  0  0  0  0  0
  -21.6750   -6.1180   22.8270 C   0  0  0  0  0  0  0  0  0  0  0  0
  -21.2790   -6.7320   24.0340 C   0  0  0  0  0  3  0  0  0  0  0  0
  -21.2020   -5.9720   25.2190 C   0  0  0  0  0  3  0  0  0  0  0  0
  -21.5130   -4.5990   25.1970 C   0  0  0  0  0  0  0  0  0  0  0  0
  -21.9030   -3.9840   23.9940 C   0  0  0  0  0  3  0  0  0  0  0  0
  -21.9800   -4.7420   22.8110 C   0  0  0  0  0  0  0  0  0  0  0  0
  -22.3360   -4.1400   21.6510 F   0  0  0  0  0  0  0  0  0  0  0  0
  -21.4320   -3.8670   26.3330 F   0  0  0  0  0  0  0  0  0  0  0  0
  -22.7850  -13.4340   21.1280 C   0  0  0  0  0  0  0  0  0  0  0  0
  -22.1230  -12.7630   22.0630 N   0  0  0  0  0  0  0  0  0  0  0  0
  -22.3110  -14.4470   20.6150 O   0  0  0  0  0  0  0  0  0  0  0  0
  -22.5200  -11.9420   22.4960 H   0  0  0  0  0  0  0  0  0  0  0  0
  -21.2070  -13.0750   22.3510 H   0  0  0  0  0  0  0  0  0  0  0  0
  -25.3560  -15.0680   20.0820 N   0  0  0  0  0  0  0  0  0  0  0  0
  -24.5970  -15.7250   20.2300 H   0  0  0  0  0  0  0  0  0  0  0  0
  -26.1650  -15.4930   19.6500 H   0  0  0  0  0  0  0  0  0  0  0  0
  -30.0960  -23.7030   20.2480 C   0  0  0  0  0  0  0  0  0  0  0  0
  -31.8190  -22.0120   19.9050 C   0  0  0  0  0  1  0  0  0  0  0  0
  -30.4230  -22.4590   19.8070 N   0  0  0  0  0  0  0  0  0  0  0  0
  -30.9570  -24.4680   20.6980 O   0  0  0  0  0  0  0  0  0  0  0  0
  -28.6280  -24.1760   20.2230 C   0  0  0  0  0  2  0  0  0  0  0  0
  -28.3370  -25.4790   21.0110 C   0  0  0  0  0  2  0  0  0  0  0  0
  -28.4610  -26.6790   20.2290 O   0  0  0  0  0  0  0  0  0  0  0  0
  -24.6210  -31.8600   23.2220 C   0  0  0  0  0  0  0  0  0  0  0  0
  -27.3080  -27.4260   20.1880 C   0  0  0  0  0  0  0  0  0  0  0  0
  -23.4330  -30.4470   21.5750 C   0  0  0  0  0  3  0  0  0  0  0  0
  -24.9060  -28.9090   20.1690 C   0  0  0  0  0  0  0  0  0  0  0  0
  -25.9580  -30.8180   21.3960 C   0  0  0  0  0  2  0  0  0  0  0  0
  -26.0570  -29.4470   20.7620 C   0  0  0  0  0  0  0  0  0  0  0  0
  -27.2650  -28.7140   20.7650 C   0  0  0  0  0  3  0  0  0  0  0  0
  -26.1460  -26.8970   19.5890 C   0  0  0  0  0  3  0  0  0  0  0  0
  -24.9450  -27.6330   19.5790 C   0  0  0  0  0  3  0  0  0  0  0  0
  -23.6560  -29.7590   20.2020 C   0  0  0  0  0  2  0  0  0  0  0  0
  -24.6890  -31.0570   22.1230 N   0  0  0  0  0  0  0  0  0  0  0  0
  -23.5340  -32.1300   23.7530 O   0  0  0  0  0  0  0  0  0  0  0  0
  -22.7780  -29.4290   22.5350 C   0  0  0  0  0  0  0  0  0  0  0  0
  -21.4520  -29.2540   22.4050 N   0  0  0  0  0  0  0  0  0  0  0  0
  -23.4570  -28.7990   23.3500 O   0  0  0  0  0  0  0  0  0  0  0  0
  -20.9660  -29.8140   21.7190 H   0  0  0  0  0  0  0  0  0  0  0  0
  -18.0690  -28.0890   22.9040 C   0  0  0  0  0  0  0  0  0  0  0  0
  -20.6290  -28.3210   23.1730 C   0  0  0  0  0  3  0  0  0  0  0  0
  -20.7170  -26.8920   22.5900 C   0  0  0  0  0  2  0  0  0  0  0  0
  -19.6100  -26.5850   21.5760 C   0  0  0  0  0  2  0  0  0  0  0  0
  -18.2300  -26.7420   22.2220 C   0  0  0  0  0  2  0  0  0  0  0  0
  -19.1950  -28.8380   23.3360 C   0  0  0  0  0  0  0  0  0  0  0  0
  -18.9900  -30.1030   23.9310 C   0  0  0  0  0  3  0  0  0  0  0  0
  -17.6910  -30.6170   24.1010 C   0  0  0  0  0  3  0  0  0  0  0  0
  -16.5780  -29.8630   23.6860 C   0  0  0  0  0  3  0  0  0  0  0  0
  -16.7680  -28.6020   23.0930 C   0  0  0  0  0  3  0  0  0  0  0  0
  -25.9000  -32.4960   23.8520 C   0  0  0  0  0  3  0  0  0  0  0  0
  -25.5830  -33.8920   24.1830 N   0  0  0  0  0  0  0  0  0  0  0  0
  -25.9130  -34.9460   23.4260 C   0  0  0  0  0  0  0  0  0  0  0  0
  -26.5880  -34.8480   22.3970 O   0  0  0  0  0  0  0  0  0  0  0  0
  -24.9840  -34.0430   24.9820 H   0  0  0  0  0  0  0  0  0  0  0  0
  -24.1720  -36.7270   23.0670 C   0  0  0  0  0  1  0  0  0  0  0  0
  -25.4150  -36.3310   23.8810 C   0  0  0  0  0  3  0  0  0  0  0  0
  -27.5420  -37.2280   24.7170 C   0  0  0  0  0  1  0  0  0  0  0  0
  -26.4400  -37.3920   23.7720 N   0  0  0  0  0  0  0  0  0  0  0  0
  -26.0270  -38.3080   23.9230 H   0  0  0  0  0  0  0  0  0  0  0  0
  -26.4170  -31.7240   25.1270 C   0  0  1  0  0  0  0  0  0  0  0  0
  -25.3210  -31.4750   26.1890 C   0  0  0  0  0  1  0  0  0  0  0  0
  -27.0120  -30.3540   24.7290 C   0  0  0  0  0  1  0  0  0  0  0  0
  -27.5590  -32.5240   25.7970 C   0  0  0  0  0  1  0  0  0  0  0  0
  1  6  1  0
  1 50  1  0
  3  2  1  0
  4  5  1  0
  5  9  1  0
  5  2  2  0
  6  3  2  0
  7  4  2  0
  7  6  1  0
  8  7  1  0
 10 19  1  0
 11 16  1  0
 12 13  1  0
 12 11  1  0
 14 13  1  0
 14 23  1  0
 14 15  1  0
 16 10  1  0
 16 15  1  0
 17 10  2  0
 19  9  1  0
 19 18  1  0
 20 21  2  0
 21 40  1  0
 22 21  1  0
 22 25  1  0
 23 20  1  0
 23 24  1  0
 24 22  2  0
 25 26  1  0
 26 27  2  0
 28 31  1  0
 28 27  1  0
 29 28  2  0
 30 29  1  0
 30 25  2  0
 31 32  1  0
 32 33  1  0
 33 34  2  0
 35 34  1  0
 35 39  1  0
 36 35  2  0
 37 32  2  0
 37 36  1  0
 38 37  1  0
 40 41  1  0
 41 44  1  0
 41 43  1  0
 42 40  2  0
 45 46  1  0
 45 20  1  0
 47 45  1  0
 48 51  2  0
 50 49  1  0
 50 48  1  0
 52 48  1  0
 52 53  1  0
 54 53  1  0
 55 66  2  0
 56 54  1  0
 56 61  1  0
 57 65  1  0
 57 67  1  0
 58 64  1  0
 58 60  1  0
 59 65  1  0
 60 61  2  0
 60 59  1  0
 62 56  2  0
 63 62  1  0
 63 58  2  0
 64 57  1  0
 65 55  1  0
 67 69  2  0
 68 67  1  0
 70 68  1  0
 71 80  2  0
 71 76  1  0
 72 68  1  0
 72 76  1  0
 73 72  1  0
 74 75  1  0
 74 73  1  0
 75 71  1  0
 76 77  2  0
 77 78  1  0
 79 78  2  0
 80 79  1  0
 81 55  1  0
 81 82  1  0
 81 91  1  0
 82 85  1  0
 83 87  1  0
 83 82  1  0
 84 83  2  0
 87 86  1  0
 89 87  1  0
 89 90  1  0
 89 88  1  0
 91 94  1  1
 91 92  1  0
 93 91  1  0
M  ISO  4  10 100  19 100  53 101  54 101
M  END
>  <TORSDO>  (68) 
F 21

>  <SCORE>  (68) 
-12.469

>  <name>  (68) 
67

>  <ligand_id>  (68) 
67

>  <original_smiles>  (68) 
[H]c1c([H])c([H])c2c(c1[H])C([H])([H])C([H])([H])C([H])([H])C2([H])N([H])C(=O)C1([H])N(C(=O)C([H])(N([H])C(=O)C([H])(N([H])C([H])([H])[H])C([H])([H])[H])C(C([H])([H])[H])(C([H])([H])[H])C([H])([H])[H])C([H])([H])c2c([H])c(OC([H])([H])C([H])([H])C(=O)N(C([H])([H])[H])C([H])([H])c3c([H])c([H])c(C([H])([H])N(C(=O)N4C([H])([H])C([H])([H])C([H])([H])C([H])(n5nc(-c6c([H])c([H])c(Oc7c([H])c([H])c(F)c([H])c7F)c([H])c6[H])c(C(=O)N([H])[H])c5N([H])[H])C4([H])[H])C([H])([H])[H])c([H])c3Cl)c([H])c([H])c2C1([H])[H]

>  <smiles>  (68) 
[H]c1c([H])c([H])c2c(c1[H])C([H])([H])C([H])([H])C([H])([H])C2([H])N([H])C(=O)C1([H])N(C(=O)C([H])(N([H])C(=O)C([H])(N([H])C([H])([H])[H])C([H])([H])[H])C(C([H])([H])[H])(C([H])([H])[H])C([H])([H])[H])C([H])([H])c2c([H])c(OC([H])([H])C([H])([H])C(=O)N(C([H])([H])[H])C([H])([H])c3c([H])c([H])c(C([H])([H])N(C(=O)N4C([H])([H])C([H])([H])C([H])([H])C([H])(n5nc(-c6c([H])c([H])c(Oc7c([H])c([H])c(F)c([H])c7F)c([H])c6[H])c(C(=O)N([H])[H])c5N([H])[H])C4([H])[H])C([H])([H])[H])c([H])c3Cl)c([H])c([H])c2C1([H])[H]

$$$$
68:0:0
     RDKit          3D

 94103  0  0  1  0  0  0  0  0999 V2000
  -29.1290  -18.8510   20.9400 C   0  0  0  0  0  3  0  0  0  0  0  0
  -28.9420  -20.2310   20.7000 C   0  0  0  0  0  3  0  0  0  0  0  0
  -28.3360  -18.3620   18.6890 C   0  0  0  0  0  3  0  0  0  0  0  0
  -28.8390  -17.9010   19.9220 C   0  0  0  0  0  0  0  0  0  0  0  0
  -28.4280  -20.6830   19.4630 C   0  0  0  0  0  0  0  0  0  0  0  0
  -28.1390  -19.7310   18.4550 C   0  0  0  0  0  0  0  0  0  0  0  0
  -27.6720  -20.1210   17.2450 F   0  0  0  0  0  0  0  0  0  0  0  0
  -26.5980  -23.8440   19.0980 C   0  0  0  0  0  2  0  0  0  0  0  0
  -26.7740  -22.3470   18.8510 C   0  0  0  0  0  2  0  0  0  0  0  0
  -28.7120  -23.1400   19.9750 C   0  0  0  0  0  2  0  0  0  0  0  0
  -28.0150  -24.3820   19.4000 C   0  0  0  0  0  3  0  0  0  0  0  0
  -28.1520  -22.0420   19.2040 N   0  0  0  0  0  0  0  0  0  0  0  0
  -28.1130  -25.6010   20.3460 C   0  0  0  0  0  2  0  0  0  0  0  0
  -28.1540  -26.8560   19.6580 O   0  0  0  0  0  0  0  0  0  0  0  0
  -24.5140  -31.8980   23.1010 C   0  0  0  0  0  0  0  0  0  0  0  0
  -27.0020  -27.5920   19.7420 C   0  0  0  0  0  0  0  0  0  0  0  0
  -23.2340  -30.5670   21.4550 C   0  0  0  0  0  3  0  0  0  0  0  0
  -24.6210  -29.0900   19.9150 C   0  0  0  0  0  0  0  0  0  0  0  0
  -25.7530  -30.9270   21.1740 C   0  0  0  0  0  2  0  0  0  0  0  0
  -25.8040  -29.5850   20.4780 C   0  0  0  0  0  0  0  0  0  0  0  0
  -27.0000  -28.8410   20.3940 C   0  0  0  0  0  3  0  0  0  0  0  0
  -25.8050  -27.1150   19.1680 C   0  0  0  0  0  3  0  0  0  0  0  0
  -24.6140  -27.8480   19.2610 C   0  0  0  0  0  3  0  0  0  0  0  0
  -23.3840  -29.9460   20.0420 C   0  0  0  0  0  2  0  0  0  0  0  0
  -24.5190  -31.1430   21.9670 N   0  0  0  0  0  0  0  0  0  0  0  0
  -23.4560  -32.1520   23.6950 O   0  0  0  0  0  0  0  0  0  0  0  0
  -22.6220  -29.5060   22.3970 C   0  0  0  0  0  0  0  0  0  0  0  0
  -21.2990  -29.3030   22.2890 N   0  0  0  0  0  0  0  0  0  0  0  0
  -23.3350  -28.8700   23.1790 O   0  0  0  0  0  0  0  0  0  0  0  0
  -20.7860  -29.8690   21.6260 H   0  0  0  0  0  0  0  0  0  0  0  0
  -17.9530  -28.0560   22.8260 C   0  0  0  0  0  0  0  0  0  0  0  0
  -20.5120  -28.3340   23.0510 C   0  0  0  0  0  3  0  0  0  0  0  0
  -20.6180  -26.9210   22.4310 C   0  0  0  0  0  2  0  0  0  0  0  0
  -19.4970  -26.6160   21.4310 C   0  0  0  0  0  2  0  0  0  0  0  0
  -18.1300  -26.7280   22.1090 C   0  0  0  0  0  2  0  0  0  0  0  0
  -19.0740  -28.8180   23.2530 C   0  0  0  0  0  0  0  0  0  0  0  0
  -18.8540  -30.0640   23.8810 C   0  0  0  0  0  3  0  0  0  0  0  0
  -17.5470  -30.5450   24.0880 C   0  0  0  0  0  3  0  0  0  0  0  0
  -16.4430  -29.7790   23.6760 C   0  0  0  0  0  3  0  0  0  0  0  0
  -16.6480  -28.5360   23.0510 C   0  0  0  0  0  3  0  0  0  0  0  0
  -25.8290  -32.4990   23.6880 C   0  0  0  0  0  3  0  0  0  0  0  0
  -26.4050  -31.6720   24.9010 C   0  0  1  0  0  0  0  0  0  0  0  0
  -25.3550  -31.3490   25.9880 C   0  0  0  0  0  1  0  0  0  0  0  0
  -27.0040  -30.3310   24.4140 C   0  0  0  0  0  1  0  0  0  0  0  0
  -27.5550  -32.4580   25.5740 C   0  0  0  0  0  1  0  0  0  0  0  0
  -25.5370  -33.8830   24.0850 N   0  0  0  0  0  0  0  0  0  0  0  0
  -25.8360  -34.9640   23.3530 C   0  0  0  0  0  0  0  0  0  0  0  0
  -26.4590  -34.9020   22.2890 O   0  0  0  0  0  0  0  0  0  0  0  0
  -24.9810  -34.0040   24.9190 H   0  0  0  0  0  0  0  0  0  0  0  0
  -24.1020  -36.7740   23.1370 C   0  0  0  0  0  1  0  0  0  0  0  0
  -25.3700  -36.3320   23.8840 C   0  0  0  0  0  3  0  0  0  0  0  0
  -27.5320  -37.1840   24.6820 C   0  0  0  0  0  1  0  0  0  0  0  0
  -26.4020  -37.3860   23.7780 N   0  0  0  0  0  0  0  0  0  0  0  0
  -26.0020  -38.3010   23.9710 H   0  0  0  0  0  0  0  0  0  0  0  0
  -28.9920  -16.3870   20.0600 C   0  0  0  0  0  2  0  0  0  0  0  0
  -30.5760  -14.5900   19.7330 C   0  0  0  0  0  0  0  0  0  0  0  0
  -30.1020  -12.4970   18.5020 C   0  0  0  0  0  2  0  0  0  0  0  0
  -29.0110  -12.7110   17.4360 C   0  0  0  0  0  2  0  0  0  0  0  0
  -27.6060  -12.5440   18.0470 C   0  0  0  0  0  2  0  0  0  0  0  0
  -27.4250  -13.3350   19.3670 C   0  0  0  0  0  3  0  0  0  0  0  0
  -28.6170  -13.1060   20.3240 C   0  0  0  0  0  2  0  0  0  0  0  0
  -29.8620  -13.4390   19.6070 N   0  0  0  0  0  0  0  0  0  0  0  0
  -31.5800  -14.8300   19.0550 O   0  0  0  0  0  0  0  0  0  0  0  0
  -30.0710  -15.5250   20.5870 N   0  0  0  0  0  0  0  0  0  0  0  0
  -25.1550  -13.8880   20.4470 C   0  0  0  0  0  0  0  0  0  0  0  0
  -24.1510  -13.0880   20.9250 C   0  0  0  0  0  0  0  0  0  0  0  0
  -24.5970  -11.7420   20.7450 C   0  0  0  0  0  0  0  0  0  0  0  0
  -26.1520  -13.0270   20.0110 N   0  0  0  0  0  0  0  0  0  0  0  0
  -25.8270  -11.7290   20.2450 N   0  0  0  0  0  0  0  0  0  0  0  0
  -23.9030  -10.4680   20.9670 C   0  0  0  0  0  0  0  0  0  0  0  0
  -24.4000   -9.5020   21.8730 C   0  0  0  0  0  3  0  0  0  0  0  0
  -23.7060   -8.2910   22.0770 C   0  0  0  0  0  3  0  0  0  0  0  0
  -22.5010   -8.0360   21.3750 C   0  0  0  0  0  0  0  0  0  0  0  0
  -22.0240   -8.9890   20.4600 C   0  0  0  0  0  3  0  0  0  0  0  0
  -22.7200  -10.1920   20.2550 C   0  0  0  0  0  3  0  0  0  0  0  0
  -21.7750   -6.8750   21.4930 O   0  0  0  0  0  0  0  0  0  0  0  0
  -21.7270   -6.1710   22.6690 C   0  0  0  0  0  0  0  0  0  0  0  0
  -21.2100   -6.7360   23.8540 C   0  0  0  0  0  3  0  0  0  0  0  0
  -21.1180   -5.9560   25.0240 C   0  0  0  0  0  3  0  0  0  0  0  0
  -21.5280   -4.6110   25.0080 C   0  0  0  0  0  0  0  0  0  0  0  0
  -22.0400   -4.0430   23.8280 C   0  0  0  0  0  3  0  0  0  0  0  0
  -22.1350   -4.8200   22.6600 C   0  0  0  0  0  0  0  0  0  0  0  0
  -22.6100   -4.2650   21.5180 F   0  0  0  0  0  0  0  0  0  0  0  0
  -21.4320   -3.8570   26.1280 F   0  0  0  0  0  0  0  0  0  0  0  0
  -22.8100  -13.5390   21.4300 C   0  0  0  0  0  0  0  0  0  0  0  0
  -22.2120  -12.7800   22.3400 N   0  0  0  0  0  0  0  0  0  0  0  0
  -22.3060  -14.5970   21.0530 O   0  0  0  0  0  0  0  0  0  0  0  0
  -22.6330  -11.9210   22.6650 H   0  0  0  0  0  0  0  0  0  0  0  0
  -21.3170  -13.0560   22.7170 H   0  0  0  0  0  0  0  0  0  0  0  0
  -25.2970  -15.2680   20.3380 N   0  0  0  0  0  0  0  0  0  0  0  0
  -24.5600  -15.9070   20.6150 H   0  0  0  0  0  0  0  0  0  0  0  0
  -26.0950  -15.7370   19.9310 H   0  0  0  0  0  0  0  0  0  0  0  0
  -31.8080  -16.9690   21.7310 C   0  0  0  0  0  1  0  0  0  0  0  0
  -30.7230  -15.8870   21.8660 C   0  0  0  0  0  2  0  0  0  0  0  0
  2  1  1  0
  3  4  1  0
  4 55  1  0
  4  1  2  0
  5  2  2  0
  6  3  2  0
  6  5  1  0
  7  6  1  0
  8 11  1  0
  9  8  1  0
  9 12  1  0
 11 10  1  0
 11 13  1  0
 12  5  1  0
 12 10  1  0
 14 16  1  0
 14 13  1  0
 15 26  2  0
 16 21  1  0
 17 25  1  0
 17 27  1  0
 18 24  1  0
 18 20  1  0
 19 25  1  0
 20 19  1  0
 21 20  2  0
 22 23  1  0
 22 16  2  0
 23 18  2  0
 24 17  1  0
 25 15  1  0
 27 29  2  0
 28 27  1  0
 30 28  1  0
 31 40  2  0
 31 36  1  0
 32 28  1  0
 32 36  1  0
 33 32  1  0
 34 35  1  0
 34 33  1  0
 35 31  1  0
 36 37  2  0
 37 38  1  0
 39 38  2  0
 40 39  1  0
 41 15  1  0
 41 46  1  0
 41 42  1  0
 42 45  1  1
 42 43  1  0
 44 42  1  0
 46 49  1  0
 47 51  1  0
 47 46  1  0
 48 47  2  0
 51 50  1  0
 53 51  1  0
 53 54  1  0
 53 52  1  0
 55 64  1  0
 56 64  1  0
 57 62  1  0
 58 59  1  0
 58 57  1  0
 60 59  1  0
 60 68  1  0
 60 61  1  0
 62 56  1  0
 62 61  1  0
 63 56  2  0
 64 94  1  0
 65 66  2  0
 66 85  1  0
 67 66  1  0
 67 70  1  0
 68 69  1  0
 68 65  1  0
 69 67  2  0
 70 71  1  0
 71 72  2  0
 73 76  1  0
 73 72  1  0
 74 73  2  0
 75 74  1  0
 75 70  2  0
 76 77  1  0
 77 78  1  0
 78 79  2  0
 80 79  1  0
 80 84  1  0
 81 80  2  0
 82 77  2  0
 82 81  1  0
 83 82  1  0
 85 86  1  0
 86 88  1  0
 86 89  1  0
 87 85  2  0
 90 65  1  0
 90 91  1  0
 92 90  1  0
 93 94  1  0
M  ISO  4  13 101  14 101  56 100  64 100
M  END
>  <TORSDO>  (69) 
F 20

>  <SCORE>  (69) 
-12.744

>  <name>  (69) 
68

>  <ligand_id>  (69) 
68

>  <original_smiles>  (69) 
[H]c1c([H])c([H])c2c(c1[H])C([H])([H])C([H])([H])C([H])([H])C2([H])N([H])C(=O)C1([H])N(C(=O)C([H])(N([H])C(=O)C([H])(N([H])C([H])([H])[H])C([H])([H])[H])C(C([H])([H])[H])(C([H])([H])[H])C([H])([H])[H])C([H])([H])c2c([H])c(OC([H])([H])C3([H])C([H])([H])N(c4c([H])c([H])c(C([H])([H])N(C(=O)N5C([H])([H])C([H])([H])C([H])([H])C([H])(n6nc(-c7c([H])c([H])c(Oc8c([H])c([H])c(F)c([H])c8F)c([H])c7[H])c(C(=O)N([H])[H])c6N([H])[H])C5([H])[H])C([H])([H])C([H])([H])[H])c([H])c4F)C([H])([H])C3([H])[H])c([H])c([H])c2C1([H])[H]

>  <smiles>  (69) 
[H]c1c([H])c([H])c2c(c1[H])C([H])([H])C([H])([H])C([H])([H])C2([H])N([H])C(=O)C1([H])N(C(=O)C([H])(N([H])C(=O)C([H])(N([H])C([H])([H])[H])C([H])([H])[H])C(C([H])([H])[H])(C([H])([H])[H])C([H])([H])[H])C([H])([H])c2c([H])c(OC([H])([H])C3([H])C([H])([H])N(c4c([H])c([H])c(C([H])([H])N(C(=O)N5C([H])([H])C([H])([H])C([H])([H])C([H])(n6nc(-c7c([H])c([H])c(Oc8c([H])c([H])c(F)c([H])c8F)c([H])c7[H])c(C(=O)N([H])[H])c6N([H])[H])C5([H])[H])C([H])([H])C([H])([H])[H])c([H])c4F)C([H])([H])C3([H])[H])c([H])c([H])c2C1([H])[H]

$$$$
69:0:0
     RDKit          3D

 96104  0  0  1  0  0  0  0  0999 V2000
  -28.8710  -19.4930   20.0570 C   0  0  0  0  0  3  0  0  0  0  0  0
  -29.4110  -20.6980   19.6320 C   0  0  0  0  0  3  0  0  0  0  0  0
  -27.4400  -19.0650   19.7750 C   0  0  0  0  0  1  0  0  0  0  0  0
  -30.8980  -20.9940   19.8310 C   0  0  0  0  0  1  0  0  0  0  0  0
  -30.6830  -16.7140   22.2350 C   0  0  0  0  0  3  0  0  0  0  0  0
  -31.1400  -17.5800   23.2440 C   0  0  0  0  0  3  0  0  0  0  0  0
  -30.0210  -19.4000   22.1350 C   0  0  0  0  0  3  0  0  0  0  0  0
  -29.6020  -18.5890   21.0470 C   0  0  0  0  0  0  0  0  0  0  0  0
  -29.8920  -17.1500   21.1320 C   0  0  0  0  0  0  0  0  0  0  0  0
  -30.7880  -18.9290   23.2010 C   0  0  0  0  0  0  0  0  0  0  0  0
  -31.2780  -20.0120   24.4500 Cl  0  0  0  0  0  0  0  0  0  0  0  0
  -30.0900  -14.9610   19.8460 C   0  0  0  0  0  0  0  0  0  0  0  0
  -29.9110  -12.6510   18.8890 C   0  0  0  0  0  2  0  0  0  0  0  0
  -28.8720  -12.5980   17.7530 C   0  0  0  0  0  2  0  0  0  0  0  0
  -27.4650  -12.3340   18.3220 C   0  0  0  0  0  2  0  0  0  0  0  0
  -27.1260  -13.2680   19.5150 C   0  0  0  0  0  3  0  0  0  0  0  0
  -28.2780  -13.3250   20.5420 C   0  0  0  0  0  2  0  0  0  0  0  0
  -29.4910  -13.7250   19.8190 N   0  0  0  0  0  0  0  0  0  0  0  0
  -31.1940  -15.1260   19.3200 O   0  0  0  0  0  0  0  0  0  0  0  0
  -29.3760  -16.0490   20.3090 N   0  0  0  0  0  0  0  0  0  0  0  0
  -28.3780  -15.9170   20.3530 H   0  0  0  0  0  0  0  0  0  0  0  0
  -24.8260  -13.7390   20.5510 C   0  0  0  0  0  0  0  0  0  0  0  0
  -23.8330  -12.9070   20.9970 C   0  0  0  0  0  0  0  0  0  0  0  0
  -24.3230  -11.5770   20.8220 C   0  0  0  0  0  0  0  0  0  0  0  0
  -25.8550  -12.9080   20.1380 N   0  0  0  0  0  0  0  0  0  0  0  0
  -25.5660  -11.6000   20.3590 N   0  0  0  0  0  0  0  0  0  0  0  0
  -23.6540  -10.2820   21.0110 C   0  0  0  0  0  0  0  0  0  0  0  0
  -24.1810   -9.2960   21.8740 C   0  0  0  0  0  3  0  0  0  0  0  0
  -23.5070   -8.0690   22.0580 C   0  0  0  0  0  3  0  0  0  0  0  0
  -22.2910   -7.8190   21.3780 C   0  0  0  0  0  0  0  0  0  0  0  0
  -21.7830   -8.7930   20.5010 C   0  0  0  0  0  3  0  0  0  0  0  0
  -22.4580  -10.0120   20.3150 C   0  0  0  0  0  3  0  0  0  0  0  0
  -21.5830   -6.6460   21.4730 O   0  0  0  0  0  0  0  0  0  0  0  0
  -21.5990   -5.8860   22.6150 C   0  0  0  0  0  0  0  0  0  0  0  0
  -21.1620   -6.3960   23.8560 C   0  0  0  0  0  3  0  0  0  0  0  0
  -21.1300   -5.5590   24.9890 C   0  0  0  0  0  3  0  0  0  0  0  0
  -21.5250   -4.2120   24.8820 C   0  0  0  0  0  0  0  0  0  0  0  0
  -21.9550   -3.7000   23.6450 C   0  0  0  0  0  3  0  0  0  0  0  0
  -21.9890   -4.5340   22.5140 C   0  0  0  0  0  0  0  0  0  0  0  0
  -22.3830   -4.0300   21.3190 F   0  0  0  0  0  0  0  0  0  0  0  0
  -21.4870   -3.4050   25.9690 F   0  0  0  0  0  0  0  0  0  0  0  0
  -22.4670  -13.3210   21.4650 C   0  0  0  0  0  0  0  0  0  0  0  0
  -21.8830  -12.5660   22.3890 N   0  0  0  0  0  0  0  0  0  0  0  0
  -21.9320  -14.3460   21.0480 O   0  0  0  0  0  0  0  0  0  0  0  0
  -22.3340  -11.7370   22.7450 H   0  0  0  0  0  0  0  0  0  0  0  0
  -20.9730  -12.8220   22.7440 H   0  0  0  0  0  0  0  0  0  0  0  0
  -24.9270  -15.1220   20.4420 N   0  0  0  0  0  0  0  0  0  0  0  0
  -24.1460  -15.7300   20.6640 H   0  0  0  0  0  0  0  0  0  0  0  0
  -25.6930  -15.6090   19.9960 H   0  0  0  0  0  0  0  0  0  0  0  0
  -28.7100  -21.7960   18.8910 C   0  0  0  0  0  0  0  0  0  0  0  0
  -27.6850  -22.7410   20.9480 C   0  0  0  0  0  1  0  0  0  0  0  0
  -28.3100  -22.8930   19.6240 N   0  0  0  0  0  0  0  0  0  0  0  0
  -28.7290  -21.8660   17.6610 O   0  0  0  0  0  0  0  0  0  0  0  0
  -28.5960  -24.3300   19.2210 C   0  0  0  0  0  3  0  0  0  0  0  0
  -27.3860  -25.2820   18.8290 C   0  0  0  0  0  3  0  0  0  0  0  0
  -27.6370  -26.7470   18.7610 O   0  0  0  0  0  0  0  0  0  0  0  0
  -24.3200  -31.5790   22.9240 C   0  0  0  0  0  0  0  0  0  0  0  0
  -26.5320  -27.5910   18.9300 C   0  0  0  0  0  0  0  0  0  0  0  0
  -22.9250  -30.4340   21.2390 C   0  0  0  0  0  3  0  0  0  0  0  0
  -24.1870  -29.1550   19.4140 C   0  0  0  0  0  0  0  0  0  0  0  0
  -25.4180  -30.8170   20.8030 C   0  0  0  0  0  2  0  0  0  0  0  0
  -25.4170  -29.5590   19.9500 C   0  0  0  0  0  0  0  0  0  0  0  0
  -26.5910  -28.7940   19.6970 C   0  0  0  0  0  3  0  0  0  0  0  0
  -25.2780  -27.2370   18.3810 C   0  0  0  0  0  3  0  0  0  0  0  0
  -24.1200  -28.0020   18.6170 C   0  0  0  0  0  3  0  0  0  0  0  0
  -22.9670  -29.9880   19.7500 C   0  0  0  0  0  2  0  0  0  0  0  0
  -24.2470  -30.9540   21.7140 N   0  0  0  0  0  0  0  0  0  0  0  0
  -23.3080  -31.7550   23.6200 O   0  0  0  0  0  0  0  0  0  0  0  0
  -22.3830  -29.2670   22.1000 C   0  0  0  0  0  0  0  0  0  0  0  0
  -21.0590  -29.0480   22.0630 N   0  0  0  0  0  0  0  0  0  0  0  0
  -23.1510  -28.5640   22.7620 O   0  0  0  0  0  0  0  0  0  0  0  0
  -20.4920  -29.6680   21.4990 H   0  0  0  0  0  0  0  0  0  0  0  0
  -17.7840  -27.6270   22.6420 C   0  0  0  0  0  0  0  0  0  0  0  0
  -20.3430  -27.9770   22.7590 C   0  0  0  0  0  3  0  0  0  0  0  0
  -20.4570  -26.6440   21.9850 C   0  0  0  0  0  2  0  0  0  0  0  0
  -19.2920  -26.4020   21.0220 C   0  0  0  0  0  2  0  0  0  0  0  0
  -17.9610  -26.3900   21.7780 C   0  0  0  0  0  2  0  0  0  0  0  0
  -18.9020  -28.3810   23.0890 C   0  0  0  0  0  0  0  0  0  0  0  0
  -18.6800  -29.5420   23.8610 C   0  0  0  0  0  3  0  0  0  0  0  0
  -17.3740  -29.9490   24.1910 C   0  0  0  0  0  3  0  0  0  0  0  0
  -16.2720  -29.1880   23.7630 C   0  0  0  0  0  3  0  0  0  0  0  0
  -16.4780  -28.0280   22.9940 C   0  0  0  0  0  3  0  0  0  0  0  0
  -25.6700  -32.1310   23.4830 C   0  0  0  0  0  3  0  0  0  0  0  0
  -26.2790  -31.2380   24.6320 C   0  0  1  0  0  0  0  0  0  0  0  0
  -25.2830  -30.9260   25.7750 C   0  0  0  0  0  1  0  0  0  0  0  0
  -26.7780  -29.8910   24.0640 C   0  0  0  0  0  1  0  0  0  0  0  0
  -27.5080  -31.9430   25.2530 C   0  0  0  0  0  1  0  0  0  0  0  0
  -25.4310  -33.4970   23.9710 N   0  0  0  0  0  0  0  0  0  0  0  0
  -25.7160  -34.6140   23.2880 C   0  0  0  0  0  0  0  0  0  0  0  0
  -26.2870  -34.5970   22.1940 O   0  0  0  0  0  0  0  0  0  0  0  0
  -24.9210  -33.5810   24.8390 H   0  0  0  0  0  0  0  0  0  0  0  0
  -24.0090  -36.4630   23.2690 C   0  0  0  0  0  1  0  0  0  0  0  0
  -25.3090  -35.9630   23.9170 C   0  0  0  0  0  3  0  0  0  0  0  0
  -27.5280  -36.7330   24.6310 C   0  0  0  0  0  1  0  0  0  0  0  0
  -26.3530  -37.0040   23.8050 N   0  0  0  0  0  0  0  0  0  0  0  0
  -25.9870  -37.9140   24.0690 H   0  0  0  0  0  0  0  0  0  0  0  0
  1  3  1  0
  1  8  1  0
  2  4  1  0
  2  1  1  0
  5  6  1  0
  7 10  1  0
  8  9  1  0
  8  7  2  0
  9  5  2  0
 10  6  2  0
 10 11  1  0
 12 20  1  0
 13 18  1  0
 14 15  1  0
 14 13  1  0
 16 15  1  0
 16 25  1  0
 16 17  1  0
 18 12  1  0
 18 17  1  0
 19 12  2  0
 20 21  1  0
 20  9  1  0
 22 23  2  0
 23 42  1  0
 24 23  1  0
 24 27  1  0
 25 26  1  0
 25 22  1  0
 26 24  2  0
 27 28  1  0
 28 29  2  0
 30 33  1  0
 30 29  1  0
 31 30  2  0
 32 31  1  0
 32 27  2  0
 33 34  1  0
 34 35  1  0
 35 36  2  0
 37 36  1  0
 37 41  1  0
 38 37  2  0
 39 34  2  0
 39 38  1  0
 40 39  1  0
 42 43  1  0
 43 46  1  0
 43 45  1  0
 44 42  2  0
 47 22  1  0
 47 48  1  0
 49 47  1  0
 50 52  1  0
 50  2  1  0
 52 51  1  0
 53 50  2  0
 54 52  1  0
 55 54  2  0
 56 55  1  0
 56 58  1  0
 57 68  2  0
 58 63  1  0
 59 67  1  0
 59 69  1  0
 60 66  1  0
 60 62  1  0
 61 67  1  0
 62 61  1  0
 63 62  2  0
 64 65  1  0
 64 58  2  0
 65 60  2  0
 66 59  1  0
 67 57  1  0
 69 71  2  0
 70 69  1  0
 72 70  1  0
 73 82  2  0
 73 78  1  0
 74 70  1  0
 74 78  1  0
 75 74  1  0
 76 77  1  0
 76 75  1  0
 77 73  1  0
 78 79  2  0
 79 80  1  0
 81 80  2  0
 82 81  1  0
 83 57  1  0
 83 88  1  0
 83 84  1  0
 84 87  1  1
 84 85  1  0
 86 84  1  0
 88 91  1  0
 89 93  1  0
 89 88  1  0
 90 89  2  0
 93 92  1  0
 95 93  1  0
 95 96  1  0
 95 94  1  0
M  ISO  4  12 100  20 100  55 101  56 101
M  END
>  <TORSDO>  (70) 
F 20

>  <SCORE>  (70) 
-10.781

>  <name>  (70) 
69

>  <ligand_id>  (70) 
69

>  <original_smiles>  (70) 
[H]c1c([H])c([H])c2c(c1[H])C([H])([H])C([H])([H])C([H])([H])C2([H])N([H])C(=O)C1([H])N(C(=O)C([H])(N([H])C(=O)C([H])(N([H])C([H])([H])[H])C([H])([H])[H])C(C([H])([H])[H])(C([H])([H])[H])C([H])([H])[H])C([H])([H])c2c([H])c(OC([H])([H])C([H])([H])N(C(=O)C(=C(c3c([H])c(Cl)c([H])c([H])c3N([H])C(=O)N3C([H])([H])C([H])([H])C([H])([H])C([H])(n4nc(-c5c([H])c([H])c(Oc6c([H])c([H])c(F)c([H])c6F)c([H])c5[H])c(C(=O)N([H])[H])c4N([H])[H])C3([H])[H])C([H])([H])[H])C([H])([H])[H])C([H])([H])[H])c([H])c([H])c2C1([H])[H]

>  <smiles>  (70) 
[H]c1c([H])c([H])c2c(c1[H])C([H])([H])C([H])([H])C([H])([H])C2([H])N([H])C(=O)C1([H])N(C(=O)C([H])(N([H])C(=O)C([H])(N([H])C([H])([H])[H])C([H])([H])[H])C(C([H])([H])[H])(C([H])([H])[H])C([H])([H])[H])C([H])([H])c2c([H])c(OC([H])([H])C([H])([H])N(C(=O)C(=C(c3c([H])c(Cl)c([H])c([H])c3N([H])C(=O)N3C([H])([H])C([H])([H])C([H])([H])C([H])(n4nc(-c5c([H])c([H])c(Oc6c([H])c([H])c(F)c([H])c6F)c([H])c5[H])c(C(=O)N([H])[H])c4N([H])[H])C3([H])[H])C([H])([H])[H])C([H])([H])[H])C([H])([H])[H])c([H])c([H])c2C1([H])[H]

$$$$
70:0:0
     RDKit          3D

 95103  0  0  1  0  0  0  0  0999 V2000
  -29.3170  -22.9920   21.7140 C   0  0  0  0  0  0  0  0  0  0  0  0
  -28.5880  -21.9140   21.3820 N   0  0  0  0  0  0  0  0  0  0  0  0
  -30.2640  -22.9550   22.5030 O   0  0  0  0  0  0  0  0  0  0  0  0
  -27.6830  -22.1140   20.9790 H   0  0  0  0  0  0  0  0  0  0  0  0
  -30.8540  -18.9660   20.7670 C   0  0  0  0  0  3  0  0  0  0  0  0
  -28.5390  -18.3330   20.3550 C   0  0  0  0  0  3  0  0  0  0  0  0
  -30.4310  -20.2380   21.1940 C   0  0  0  0  0  3  0  0  0  0  0  0
  -28.1160  -19.6130   20.7690 C   0  0  0  0  0  3  0  0  0  0  0  0
  -29.9130  -18.0220   20.3150 C   0  0  0  0  0  0  0  0  0  0  0  0
  -29.0580  -20.5880   21.1610 C   0  0  0  0  0  0  0  0  0  0  0  0
  -30.3870  -16.7070   19.7100 C   0  0  0  0  0  2  0  0  0  0  0  0
  -31.3080  -14.5230   20.1420 C   0  0  0  0  0  0  0  0  0  0  0  0
  -30.8550  -12.4170   18.9440 C   0  0  0  0  0  2  0  0  0  0  0  0
  -29.8930  -12.6980   17.7740 C   0  0  0  0  0  2  0  0  0  0  0  0
  -28.4250  -12.6300   18.2470 C   0  0  0  0  0  2  0  0  0  0  0  0
  -28.1670  -13.4550   19.5370 C   0  0  0  0  0  3  0  0  0  0  0  0
  -29.2400  -13.1520   20.6050 C   0  0  0  0  0  2  0  0  0  0  0  0
  -30.5630  -13.3930   20.0030 N   0  0  0  0  0  0  0  0  0  0  0  0
  -32.4160  -14.6680   19.6110 O   0  0  0  0  0  0  0  0  0  0  0  0
  -30.7080  -15.8770   22.0700 C   0  0  0  0  0  1  0  0  0  0  0  0
  -30.6420  -15.5860   20.6350 N   0  0  0  0  0  0  0  0  0  0  0  0
  -25.8250  -14.1710   20.3360 C   0  0  0  0  0  0  0  0  0  0  0  0
  -24.7300  -13.4480   20.7190 C   0  0  0  0  0  0  0  0  0  0  0  0
  -25.1170  -12.0740   20.6350 C   0  0  0  0  0  0  0  0  0  0  0  0
  -26.8150  -13.2420   20.0490 N   0  0  0  0  0  0  0  0  0  0  0  0
  -26.3920  -11.9750   20.2840 N   0  0  0  0  0  0  0  0  0  0  0  0
  -24.3320  -10.8460   20.8120 C   0  0  0  0  0  0  0  0  0  0  0  0
  -24.7190   -9.8480   21.7340 C   0  0  0  0  0  3  0  0  0  0  0  0
  -23.9380   -8.6850   21.9000 C   0  0  0  0  0  3  0  0  0  0  0  0
  -22.7530   -8.5110   21.1440 C   0  0  0  0  0  0  0  0  0  0  0  0
  -22.3860   -9.4960   20.2110 C   0  0  0  0  0  3  0  0  0  0  0  0
  -23.1680  -10.6510   20.0430 C   0  0  0  0  0  3  0  0  0  0  0  0
  -21.9460   -7.4040   21.2200 O   0  0  0  0  0  0  0  0  0  0  0  0
  -21.8220   -6.6820   22.3790 C   0  0  0  0  0  0  0  0  0  0  0  0
  -21.4010   -7.2790   23.5880 C   0  0  0  0  0  3  0  0  0  0  0  0
  -21.2200   -6.4870   24.7390 C   0  0  0  0  0  3  0  0  0  0  0  0
  -21.4480   -5.0980   24.6820 C   0  0  0  0  0  0  0  0  0  0  0  0
  -21.8610   -4.5020   23.4780 C   0  0  0  0  0  3  0  0  0  0  0  0
  -22.0450   -5.2910   22.3300 C   0  0  0  0  0  0  0  0  0  0  0  0
  -22.4220   -4.7080   21.1660 F   0  0  0  0  0  0  0  0  0  0  0  0
  -21.2680   -4.3340   25.7850 F   0  0  0  0  0  0  0  0  0  0  0  0
  -23.3690  -13.9880   21.0510 C   0  0  0  0  0  0  0  0  0  0  0  0
  -22.6400  -13.3110   21.9290 N   0  0  0  0  0  0  0  0  0  0  0  0
  -22.9650  -15.0440   20.5650 O   0  0  0  0  0  0  0  0  0  0  0  0
  -22.9810  -12.4540   22.3390 H   0  0  0  0  0  0  0  0  0  0  0  0
  -21.7260  -13.6540   22.1940 H   0  0  0  0  0  0  0  0  0  0  0  0
  -26.0580  -15.5350   20.1880 N   0  0  0  0  0  0  0  0  0  0  0  0
  -25.3290  -16.2270   20.3300 H   0  0  0  0  0  0  0  0  0  0  0  0
  -26.9160  -15.9300   19.8280 H   0  0  0  0  0  0  0  0  0  0  0  0
  -28.8980  -24.3390   21.1070 C   0  0  0  0  0  2  0  0  0  0  0  0
  -30.5210  -23.9090   19.1400 C   0  0  0  0  0  1  0  0  0  0  0  0
  -28.0470  -23.6890   18.7880 C   0  0  0  0  0  1  0  0  0  0  0  0
  -29.1350  -24.4710   19.5620 C   0  0  1  0  0  0  0  0  0  0  0  0
  -29.1070  -25.9670   19.1120 C   0  0  0  0  0  2  0  0  0  0  0  0
  -28.6880  -26.8800   20.1190 O   0  0  0  0  0  0  0  0  0  0  0  0
  -24.6180  -31.7990   23.1220 C   0  0  0  0  0  0  0  0  0  0  0  0
  -27.4660  -27.5030   20.0440 C   0  0  0  0  0  0  0  0  0  0  0  0
  -23.4830  -30.3760   21.4410 C   0  0  0  0  0  3  0  0  0  0  0  0
  -25.0100  -28.8970   20.0270 C   0  0  0  0  0  0  0  0  0  0  0  0
  -25.9910  -30.8230   21.2900 C   0  0  0  0  0  2  0  0  0  0  0  0
  -26.1290  -29.4610   20.6460 C   0  0  0  0  0  0  0  0  0  0  0  0
  -27.3530  -28.7640   20.6660 C   0  0  0  0  0  3  0  0  0  0  0  0
  -26.3320  -26.9430   19.4140 C   0  0  0  0  0  3  0  0  0  0  0  0
  -25.1040  -27.6340   19.4090 C   0  0  0  0  0  3  0  0  0  0  0  0
  -23.7370  -29.7110   20.0580 C   0  0  0  0  0  2  0  0  0  0  0  0
  -24.7140  -31.0140   22.0100 N   0  0  0  0  0  0  0  0  0  0  0  0
  -23.5230  -32.0330   23.6480 O   0  0  0  0  0  0  0  0  0  0  0  0
  -22.8460  -29.3280   22.3840 C   0  0  0  0  0  0  0  0  0  0  0  0
  -21.5270  -29.1200   22.2440 N   0  0  0  0  0  0  0  0  0  0  0  0
  -23.5370  -28.7060   23.1950 O   0  0  0  0  0  0  0  0  0  0  0  0
  -21.0280  -29.6820   21.5680 H   0  0  0  0  0  0  0  0  0  0  0  0
  -18.1740  -27.8610   22.7060 C   0  0  0  0  0  0  0  0  0  0  0  0
  -20.7260  -28.1520   22.9930 C   0  0  0  0  0  3  0  0  0  0  0  0
  -20.8530  -26.7340   22.3880 C   0  0  0  0  0  2  0  0  0  0  0  0
  -19.7600  -26.4170   21.3620 C   0  0  0  0  0  2  0  0  0  0  0  0
  -18.3740  -26.5270   22.0050 C   0  0  0  0  0  2  0  0  0  0  0  0
  -19.2800  -28.6300   23.1570 C   0  0  0  0  0  0  0  0  0  0  0  0
  -19.0410  -29.8770   23.7740 C   0  0  0  0  0  3  0  0  0  0  0  0
  -17.7290  -30.3580   23.9400 C   0  0  0  0  0  3  0  0  0  0  0  0
  -16.6380  -29.5870   23.5070 C   0  0  0  0  0  3  0  0  0  0  0  0
  -16.8620  -28.3370   22.8980 C   0  0  0  0  0  3  0  0  0  0  0  0
  -25.8780  -32.4600   23.7680 C   0  0  0  0  0  3  0  0  0  0  0  0
  -25.5200  -33.8400   24.1230 N   0  0  0  0  0  0  0  0  0  0  0  0
  -25.8360  -34.9190   23.3970 C   0  0  0  0  0  0  0  0  0  0  0  0
  -26.5320  -34.8620   22.3800 O   0  0  0  0  0  0  0  0  0  0  0  0
  -24.9130  -33.9580   24.9220 H   0  0  0  0  0  0  0  0  0  0  0  0
  -24.0740  -36.6750   23.0230 C   0  0  0  0  0  1  0  0  0  0  0  0
  -25.2940  -36.2810   23.8730 C   0  0  0  0  0  3  0  0  0  0  0  0
  -27.3710  -37.1980   24.8070 C   0  0  0  0  0  1  0  0  0  0  0  0
  -26.2990  -37.3650   23.8280 N   0  0  0  0  0  0  0  0  0  0  0  0
  -25.8630  -38.2690   23.9900 H   0  0  0  0  0  0  0  0  0  0  0  0
  -26.4130  -31.6790   25.0310 C   0  0  1  0  0  0  0  0  0  0  0  0
  -25.3210  -31.3690   26.0800 C   0  0  0  0  0  1  0  0  0  0  0  0
  -27.0510  -30.3350   24.6100 C   0  0  0  0  0  1  0  0  0  0  0  0
  -27.5240  -32.5000   25.7280 C   0  0  0  0  0  1  0  0  0  0  0  0
  1  3  2  0
  2  1  1  0
  4  2  1  0
  5  7  1  0
  6  8  2  0
  8 10  1  0
  9  6  1  0
  9  5  2  0
 10  7  2  0
 10  2  1  0
 11  9  1  0
 11 21  1  0
 12 21  1  0
 13 18  1  0
 14 15  1  0
 14 13  1  0
 16 15  1  0
 16 25  1  0
 16 17  1  0
 18 12  1  0
 18 17  1  0
 19 12  2  0
 21 20  1  0
 22 23  2  0
 23 42  1  0
 24 23  1  0
 24 27  1  0
 25 26  1  0
 25 22  1  0
 26 24  2  0
 27 28  1  0
 28 29  2  0
 30 33  1  0
 30 29  1  0
 31 30  2  0
 32 31  1  0
 32 27  2  0
 33 34  1  0
 34 35  1  0
 35 36  2  0
 37 36  1  0
 37 41  1  0
 38 37  2  0
 39 34  2  0
 39 38  1  0
 40 39  1  0
 42 43  1  0
 43 46  1  0
 43 45  1  0
 44 42  2  0
 47 48  1  0
 47 22  1  0
 49 47  1  0
 50  1  1  0
 53 51  1  1
 52 53  1  0
 53 50  1  0
 54 53  1  0
 54 55  1  0
 56 67  2  0
 57 55  1  0
 57 62  1  0
 58 66  1  0
 58 68  1  0
 59 65  1  0
 59 61  1  0
 60 66  1  0
 61 62  2  0
 61 60  1  0
 63 57  2  0
 64 63  1  0
 64 59  2  0
 65 58  1  0
 66 56  1  0
 68 70  2  0
 69 68  1  0
 71 69  1  0
 72 81  2  0
 72 77  1  0
 73 69  1  0
 73 77  1  0
 74 73  1  0
 75 76  1  0
 75 74  1  0
 76 72  1  0
 77 78  2  0
 78 79  1  0
 80 79  2  0
 81 80  1  0
 82 56  1  0
 82 83  1  0
 82 92  1  0
 83 86  1  0
 84 88  1  0
 84 83  1  0
 85 84  2  0
 88 87  1  0
 90 88  1  0
 90 91  1  0
 90 89  1  0
 92 95  1  1
 92 93  1  0
 94 92  1  0
M  ISO  4  12 100  21 100  54 101  55 101
M  END
>  <TORSDO>  (71) 
F 21

>  <SCORE>  (71) 
-13.115

>  <name>  (71) 
70

>  <ligand_id>  (71) 
70

>  <original_smiles>  (71) 
[H]c1c([H])c([H])c2c(c1[H])C([H])([H])C([H])([H])C([H])([H])C2([H])N([H])C(=O)C1([H])N(C(=O)C([H])(N([H])C(=O)C([H])(N([H])C([H])([H])[H])C([H])([H])[H])C(C([H])([H])[H])(C([H])([H])[H])C([H])([H])[H])C([H])([H])c2c([H])c(OC([H])([H])C(C([H])([H])[H])(C([H])([H])[H])C([H])([H])C(=O)N([H])c3c([H])c([H])c(C([H])([H])N(C(=O)N4C([H])([H])C([H])([H])C([H])([H])C([H])(n5nc(-c6c([H])c([H])c(Oc7c([H])c([H])c(F)c([H])c7F)c([H])c6[H])c(C(=O)N([H])[H])c5N([H])[H])C4([H])[H])C([H])([H])[H])c([H])c3[H])c([H])c([H])c2C1([H])[H]

>  <smiles>  (71) 
[H]c1c([H])c([H])c2c(c1[H])C([H])([H])C([H])([H])C([H])([H])C2([H])N([H])C(=O)C1([H])N(C(=O)C([H])(N([H])C(=O)C([H])(N([H])C([H])([H])[H])C([H])([H])[H])C(C([H])([H])[H])(C([H])([H])[H])C([H])([H])[H])C([H])([H])c2c([H])c(OC([H])([H])C(C([H])([H])[H])(C([H])([H])[H])C([H])([H])C(=O)N([H])c3c([H])c([H])c(C([H])([H])N(C(=O)N4C([H])([H])C([H])([H])C([H])([H])C([H])(n5nc(-c6c([H])c([H])c(Oc7c([H])c([H])c(F)c([H])c7F)c([H])c6[H])c(C(=O)N([H])[H])c5N([H])[H])C4([H])[H])C([H])([H])[H])c([H])c3[H])c([H])c([H])c2C1([H])[H]

$$$$
71:0:0
     RDKit          3D

 91 99  0  0  1  0  0  0  0  0999 V2000
  -28.1370  -22.3490   22.5800 C   0  0  0  0  0  1  0  0  0  0  0  0
  -29.0540  -22.2430   21.4440 N   0  0  0  0  0  0  0  0  0  0  0  0
  -30.6790  -18.9020   21.9470 C   0  0  0  0  0  3  0  0  0  0  0  0
  -29.8280  -18.9990   19.6790 C   0  0  0  0  0  3  0  0  0  0  0  0
  -30.1830  -20.2010   22.1870 C   0  0  0  0  0  3  0  0  0  0  0  0
  -29.3550  -20.3090   19.9130 C   0  0  0  0  0  3  0  0  0  0  0  0
  -30.4990  -18.2780   20.6950 C   0  0  0  0  0  0  0  0  0  0  0  0
  -29.5190  -20.9340   21.1740 C   0  0  0  0  0  0  0  0  0  0  0  0
  -31.1680  -16.9330   20.3840 C   0  0  0  0  0  2  0  0  0  0  0  0
  -30.8420  -14.5460   19.9580 C   0  0  0  0  0  0  0  0  0  0  0  0
  -30.3640  -12.3860   18.8480 C   0  0  0  0  0  2  0  0  0  0  0  0
  -29.3640  -12.5690   17.6880 C   0  0  0  0  0  2  0  0  0  0  0  0
  -27.9250  -12.3920   18.2000 C   0  0  0  0  0  2  0  0  0  0  0  0
  -27.6530  -13.2570   19.4570 C   0  0  0  0  0  3  0  0  0  0  0  0
  -28.7720  -13.0880   20.5060 C   0  0  0  0  0  2  0  0  0  0  0  0
  -30.0690  -13.4120   19.8750 N   0  0  0  0  0  0  0  0  0  0  0  0
  -31.8670  -14.6330   19.2680 O   0  0  0  0  0  0  0  0  0  0  0  0
  -29.8750  -15.5920   22.0130 C   0  0  0  0  0  1  0  0  0  0  0  0
  -30.4420  -15.6540   20.6600 N   0  0  0  0  0  0  0  0  0  0  0  0
  -25.3240  -13.8590   20.3650 C   0  0  0  0  0  0  0  0  0  0  0  0
  -24.2840  -13.0830   20.7990 C   0  0  0  0  0  0  0  0  0  0  0  0
  -24.7340  -11.7310   20.7070 C   0  0  0  0  0  0  0  0  0  0  0  0
  -26.3400  -12.9770   20.0310 N   0  0  0  0  0  0  0  0  0  0  0  0
  -25.9950  -11.6910   20.2940 N   0  0  0  0  0  0  0  0  0  0  0  0
  -24.0200  -10.4680   20.9300 C   0  0  0  0  0  0  0  0  0  0  0  0
  -24.4760   -9.5190   21.8700 C   0  0  0  0  0  3  0  0  0  0  0  0
  -23.7610   -8.3220   22.0820 C   0  0  0  0  0  3  0  0  0  0  0  0
  -22.5760   -8.0650   21.3530 C   0  0  0  0  0  0  0  0  0  0  0  0
  -22.1380   -9.0050   20.4030 C   0  0  0  0  0  3  0  0  0  0  0  0
  -22.8530  -10.1940   20.1910 C   0  0  0  0  0  3  0  0  0  0  0  0
  -21.8320   -6.9150   21.4700 O   0  0  0  0  0  0  0  0  0  0  0  0
  -21.7440   -6.2320   22.6560 C   0  0  0  0  0  0  0  0  0  0  0  0
  -21.2720   -6.8450   23.8380 C   0  0  0  0  0  3  0  0  0  0  0  0
  -21.1330   -6.0870   25.0160 C   0  0  0  0  0  3  0  0  0  0  0  0
  -21.4570   -4.7180   25.0170 C   0  0  0  0  0  0  0  0  0  0  0  0
  -21.9230   -4.1040   23.8400 C   0  0  0  0  0  3  0  0  0  0  0  0
  -22.0640   -4.8600   22.6640 C   0  0  0  0  0  0  0  0  0  0  0  0
  -22.4940   -4.2590   21.5270 F   0  0  0  0  0  0  0  0  0  0  0  0
  -21.3160   -3.9870   26.1470 F   0  0  0  0  0  0  0  0  0  0  0  0
  -22.9170  -13.5640   21.1920 C   0  0  0  0  0  0  0  0  0  0  0  0
  -22.2650  -12.8700   22.1190 N   0  0  0  0  0  0  0  0  0  0  0  0
  -22.4370  -14.5890   20.7100 O   0  0  0  0  0  0  0  0  0  0  0  0
  -22.6650  -12.0410   22.5300 H   0  0  0  0  0  0  0  0  0  0  0  0
  -21.3520  -13.1760   22.4220 H   0  0  0  0  0  0  0  0  0  0  0  0
  -25.4800  -15.2320   20.2090 N   0  0  0  0  0  0  0  0  0  0  0  0
  -24.7280  -15.8830   20.4090 H   0  0  0  0  0  0  0  0  0  0  0  0
  -26.3240  -15.6890   19.8850 H   0  0  0  0  0  0  0  0  0  0  0  0
  -28.9170  -23.1870   20.3270 C   0  0  0  0  0  2  0  0  0  0  0  0
  -28.7330  -24.6650   20.7560 C   0  0  0  0  0  2  0  0  0  0  0  0
  -28.6730  -25.6020   19.5350 C   0  0  0  0  0  2  0  0  0  0  0  0
  -28.5220  -26.9680   19.9240 O   0  0  0  0  0  0  0  0  0  0  0  0
  -24.6430  -31.9220   23.1970 C   0  0  0  0  0  0  0  0  0  0  0  0
  -27.2880  -27.5890   19.9660 C   0  0  0  0  0  0  0  0  0  0  0  0
  -23.4100  -30.5260   21.5620 C   0  0  0  0  0  3  0  0  0  0  0  0
  -24.8530  -29.0380   20.0760 C   0  0  0  0  0  0  0  0  0  0  0  0
  -25.9230  -30.9390   21.3000 C   0  0  0  0  0  2  0  0  0  0  0  0
  -26.0160  -29.5800   20.6330 C   0  0  0  0  0  0  0  0  0  0  0  0
  -27.2310  -28.8660   20.5710 C   0  0  0  0  0  3  0  0  0  0  0  0
  -26.0990  -27.0480   19.4210 C   0  0  0  0  0  3  0  0  0  0  0  0
  -24.8890  -27.7710   19.4700 C   0  0  0  0  0  3  0  0  0  0  0  0
  -23.5950  -29.8710   20.1650 C   0  0  0  0  0  2  0  0  0  0  0  0
  -24.6770  -31.1470   22.0760 N   0  0  0  0  0  0  0  0  0  0  0  0
  -23.5730  -32.1610   23.7750 O   0  0  0  0  0  0  0  0  0  0  0  0
  -22.8050  -29.4770   22.5230 C   0  0  0  0  0  0  0  0  0  0  0  0
  -21.4880  -29.2440   22.4020 N   0  0  0  0  0  0  0  0  0  0  0  0
  -23.5150  -28.8730   23.3320 O   0  0  0  0  0  0  0  0  0  0  0  0
  -20.9740  -29.7750   21.7130 H   0  0  0  0  0  0  0  0  0  0  0  0
  -18.1710  -27.8950   22.8690 C   0  0  0  0  0  0  0  0  0  0  0  0
  -20.7090  -28.2750   23.1730 C   0  0  0  0  0  3  0  0  0  0  0  0
  -20.8890  -26.8480   22.6060 C   0  0  0  0  0  2  0  0  0  0  0  0
  -19.8190  -26.4650   21.5810 C   0  0  0  0  0  2  0  0  0  0  0  0
  -18.4240  -26.5500   22.2070 C   0  0  0  0  0  2  0  0  0  0  0  0
  -19.2450  -28.7120   23.3060 C   0  0  0  0  0  0  0  0  0  0  0  0
  -18.9600  -29.9710   23.8790 C   0  0  0  0  0  3  0  0  0  0  0  0
  -17.6310  -30.4110   24.0260 C   0  0  0  0  0  3  0  0  0  0  0  0
  -16.5700  -29.5920   23.6050 C   0  0  0  0  0  3  0  0  0  0  0  0
  -16.8400  -28.3350   23.0330 C   0  0  0  0  0  3  0  0  0  0  0  0
  -25.9380  -32.5580   23.7930 C   0  0  0  0  0  3  0  0  0  0  0  0
  -25.6320  -33.9540   24.1340 N   0  0  0  0  0  0  0  0  0  0  0  0
  -25.9370  -35.0090   23.3650 C   0  0  0  0  0  0  0  0  0  0  0  0
  -26.5810  -34.9120   22.3170 O   0  0  0  0  0  0  0  0  0  0  0  0
  -25.0620  -34.1050   24.9540 H   0  0  0  0  0  0  0  0  0  0  0  0
  -24.1780  -36.7740   23.0510 C   0  0  0  0  0  1  0  0  0  0  0  0
  -25.4440  -36.3910   23.8340 C   0  0  0  0  0  3  0  0  0  0  0  0
  -27.5860  -37.2930   24.6210 C   0  0  0  0  0  1  0  0  0  0  0  0
  -26.4630  -37.4550   23.7010 N   0  0  0  0  0  0  0  0  0  0  0  0
  -26.0510  -38.3700   23.8610 H   0  0  0  0  0  0  0  0  0  0  0  0
  -26.4920  -31.7840   25.0540 C   0  0  1  0  0  0  0  0  0  0  0  0
  -25.4220  -31.5090   26.1340 C   0  0  0  0  0  1  0  0  0  0  0  0
  -27.0960  -30.4250   24.6360 C   0  0  0  0  0  1  0  0  0  0  0  0
  -27.6370  -32.5920   25.7100 C   0  0  0  0  0  1  0  0  0  0  0  0
  2  1  1  0
  3  5  1  0
  4  6  2  0
  4  7  1  0
  6  8  1  0
  7  3  2  0
  8  2  1  0
  8  5  2  0
  9 19  1  0
  9  7  1  0
 10 19  1  0
 11 16  1  0
 12 13  1  0
 12 11  1  0
 14 13  1  0
 14 23  1  0
 14 15  1  0
 16 10  1  0
 16 15  1  0
 17 10  2  0
 19 18  1  0
 20 21  2  0
 21 40  1  0
 22 21  1  0
 22 25  1  0
 23 24  1  0
 23 20  1  0
 24 22  2  0
 25 26  1  0
 26 27  2  0
 28 31  1  0
 28 27  1  0
 29 28  2  0
 30 29  1  0
 30 25  2  0
 31 32  1  0
 32 37  2  0
 32 33  1  0
 33 34  2  0
 34 35  1  0
 35 39  1  0
 36 35  2  0
 37 36  1  0
 38 37  1  0
 40 41  1  0
 41 44  1  0
 41 43  1  0
 42 40  2  0
 45 20  1  0
 45 46  1  0
 47 45  1  0
 48 49  1  0
 48  2  1  0
 50 51  1  0
 50 49  1  0
 51 53  1  0
 52 63  2  0
 53 58  1  0
 54 62  1  0
 54 64  1  0
 55 61  1  0
 55 57  1  0
 56 62  1  0
 57 56  1  0
 58 57  2  0
 59 60  1  0
 59 53  2  0
 60 55  2  0
 61 54  1  0
 62 52  1  0
 64 66  2  0
 65 64  1  0
 67 65  1  0
 68 77  2  0
 68 73  1  0
 69 65  1  0
 69 73  1  0
 70 69  1  0
 71 72  1  0
 71 70  1  0
 72 68  1  0
 73 74  2  0
 74 75  1  0
 76 75  2  0
 77 76  1  0
 78 52  1  0
 78 79  1  0
 78 88  1  0
 79 82  1  0
 80 84  1  0
 80 79  1  0
 81 80  2  0
 84 83  1  0
 86 84  1  0
 86 87  1  0
 86 85  1  0
 88 91  1  1
 88 89  1  0
 90 88  1  0
M  ISO  4  10 100  19 100  50 101  51 101
M  END
>  <TORSDO>  (72) 
F 21

>  <SCORE>  (72) 
-11.894

>  <name>  (72) 
71

>  <ligand_id>  (72) 
71

>  <original_smiles>  (72) 
[H]c1c([H])c([H])c2c(c1[H])C([H])([H])C([H])([H])C([H])([H])C2([H])N([H])C(=O)C1([H])N(C(=O)C([H])(N([H])C(=O)C([H])(N([H])C([H])([H])[H])C([H])([H])[H])C(C([H])([H])[H])(C([H])([H])[H])C([H])([H])[H])C([H])([H])c2c([H])c(OC([H])([H])C([H])([H])C([H])([H])N(c3c([H])c([H])c(C([H])([H])N(C(=O)N4C([H])([H])C([H])([H])C([H])([H])C([H])(n5nc(-c6c([H])c([H])c(Oc7c([H])c([H])c(F)c([H])c7F)c([H])c6[H])c(C(=O)N([H])[H])c5N([H])[H])C4([H])[H])C([H])([H])[H])c([H])c3[H])C([H])([H])[H])c([H])c([H])c2C1([H])[H]

>  <smiles>  (72) 
[H]c1c([H])c([H])c2c(c1[H])C([H])([H])C([H])([H])C([H])([H])C2([H])N([H])C(=O)C1([H])N(C(=O)C([H])(N([H])C(=O)C([H])(N([H])C([H])([H])[H])C([H])([H])[H])C(C([H])([H])[H])(C([H])([H])[H])C([H])([H])[H])C([H])([H])c2c([H])c(OC([H])([H])C([H])([H])C([H])([H])N(c3c([H])c([H])c(C([H])([H])N(C(=O)N4C([H])([H])C([H])([H])C([H])([H])C([H])(n5nc(-c6c([H])c([H])c(Oc7c([H])c([H])c(F)c([H])c7F)c([H])c6[H])c(C(=O)N([H])[H])c5N([H])[H])C4([H])[H])C([H])([H])[H])c([H])c3[H])C([H])([H])[H])c([H])c([H])c2C1([H])[H]

$$$$
72:0:0
     RDKit          3D

 93102  0  0  1  0  0  0  0  0999 V2000
  -30.0010  -19.3730   19.5130 C   0  0  0  0  0  3  0  0  0  0  0  0
  -30.3000  -17.9590   19.5770 C   0  0  0  0  0  3  0  0  0  0  0  0
  -30.9570  -18.2140   21.8590 C   0  0  0  0  0  3  0  0  0  0  0  0
  -30.6480  -19.5980   21.8020 C   0  0  0  0  0  0  0  0  0  0  0  0
  -30.1400  -20.2400   20.6410 C   0  0  0  0  0  0  0  0  0  0  0  0
  -30.7870  -17.3210   20.7630 C   0  0  0  0  0  0  0  0  0  0  0  0
  -29.1450  -22.0410   21.9370 C   0  0  0  0  0  0  0  0  0  0  0  0
  -30.7840  -20.4390   23.0470 C   0  0  0  0  0  2  0  0  0  0  0  0
  -29.5160  -21.2780   23.2160 C   0  0  0  0  0  2  0  0  0  0  0  0
  -29.7030  -21.6670   20.7450 N   0  0  0  0  0  0  0  0  0  0  0  0
  -28.2840  -22.9190   22.0440 O   0  0  0  0  0  0  0  0  0  0  0  0
  -31.5240  -14.9400   20.0170 C   0  0  0  0  0  0  0  0  0  0  0  0
  -31.1220  -12.7400   18.8860 C   0  0  0  0  0  2  0  0  0  0  0  0
  -30.1260  -12.8880   17.7150 C   0  0  0  0  0  2  0  0  0  0  0  0
  -28.6730  -12.7780   18.2140 C   0  0  0  0  0  2  0  0  0  0  0  0
  -28.4080  -13.6650   19.4580 C   0  0  0  0  0  3  0  0  0  0  0  0
  -29.5040  -13.4720   20.5250 C   0  0  0  0  0  2  0  0  0  0  0  0
  -30.8060  -13.7680   19.9040 N   0  0  0  0  0  0  0  0  0  0  0  0
  -32.5590  -15.1060   19.3640 O   0  0  0  0  0  0  0  0  0  0  0  0
  -31.3560  -15.4320   22.3340 C   0  0  0  0  0  1  0  0  0  0  0  0
  -31.1140  -15.8770   20.9470 N   0  0  0  0  0  0  0  0  0  0  0  0
  -26.1220  -14.3760   20.3880 C   0  0  0  0  0  0  0  0  0  0  0  0
  -25.0200  -13.6550   20.7660 C   0  0  0  0  0  0  0  0  0  0  0  0
  -25.3690  -12.2800   20.5900 C   0  0  0  0  0  0  0  0  0  0  0  0
  -27.0740  -13.4430   20.0080 N   0  0  0  0  0  0  0  0  0  0  0  0
  -26.6290  -12.1720   20.1900 N   0  0  0  0  0  0  0  0  0  0  0  0
  -24.5570  -11.0650   20.7260 C   0  0  0  0  0  0  0  0  0  0  0  0
  -24.9350  -10.0150   21.5930 C   0  0  0  0  0  3  0  0  0  0  0  0
  -24.1260   -8.8650   21.7200 C   0  0  0  0  0  3  0  0  0  0  0  0
  -22.9260   -8.7560   20.9790 C   0  0  0  0  0  0  0  0  0  0  0  0
  -22.5650   -9.7940   20.1010 C   0  0  0  0  0  3  0  0  0  0  0  0
  -23.3740  -10.9340   19.9710 C   0  0  0  0  0  3  0  0  0  0  0  0
  -22.0910   -7.6650   21.0180 O   0  0  0  0  0  0  0  0  0  0  0  0
  -21.9270   -6.9240   22.1620 C   0  0  0  0  0  0  0  0  0  0  0  0
  -21.4850   -7.5060   23.3690 C   0  0  0  0  0  3  0  0  0  0  0  0
  -21.2640   -6.6960   24.5010 C   0  0  0  0  0  3  0  0  0  0  0  0
  -21.4760   -5.3070   24.4270 C   0  0  0  0  0  0  0  0  0  0  0  0
  -21.9130   -4.7250   23.2230 C   0  0  0  0  0  3  0  0  0  0  0  0
  -22.1350   -5.5310   22.0930 C   0  0  0  0  0  0  0  0  0  0  0  0
  -22.5350   -4.9630   20.9300 F   0  0  0  0  0  0  0  0  0  0  0  0
  -21.2570   -4.5270   25.5110 F   0  0  0  0  0  0  0  0  0  0  0  0
  -23.6870  -14.2100   21.1740 C   0  0  0  0  0  0  0  0  0  0  0  0
  -22.9800  -13.5170   22.0610 N   0  0  0  0  0  0  0  0  0  0  0  0
  -23.2830  -15.2900   20.7430 O   0  0  0  0  0  0  0  0  0  0  0  0
  -23.3200  -12.6400   22.4280 H   0  0  0  0  0  0  0  0  0  0  0  0
  -22.0870  -13.8680   22.3800 H   0  0  0  0  0  0  0  0  0  0  0  0
  -26.3870  -15.7410   20.3180 N   0  0  0  0  0  0  0  0  0  0  0  0
  -25.6930  -16.4430   20.5510 H   0  0  0  0  0  0  0  0  0  0  0  0
  -27.2630  -16.1390   20.0020 H   0  0  0  0  0  0  0  0  0  0  0  0
  -29.5580  -22.6630   19.6000 C   0  0  0  0  0  2  0  0  0  0  0  0
  -29.6270  -24.2590   19.9220 C   0  0  0  0  0  3  0  0  0  0  0  0
  -29.0420  -25.3170   18.8760 C   0  0  0  0  0  3  0  0  0  0  0  0
  -28.8560  -26.7410   19.2760 O   0  0  0  0  0  0  0  0  0  0  0  0
  -24.5970  -31.2940   22.9110 C   0  0  0  0  0  0  0  0  0  0  0  0
  -27.6120  -27.3990   19.3330 C   0  0  0  0  0  0  0  0  0  0  0  0
  -23.5020  -29.9210   21.1760 C   0  0  0  0  0  3  0  0  0  0  0  0
  -25.0650  -28.7030   19.5590 C   0  0  0  0  0  0  0  0  0  0  0  0
  -25.9750  -30.5650   20.9480 C   0  0  0  0  0  2  0  0  0  0  0  0
  -26.1900  -29.2740   20.1630 C   0  0  0  0  0  0  0  0  0  0  0  0
  -27.4610  -28.6360   20.0400 C   0  0  0  0  0  3  0  0  0  0  0  0
  -26.4490  -26.8730   18.7260 C   0  0  0  0  0  3  0  0  0  0  0  0
  -25.1970  -27.5090   18.8330 C   0  0  0  0  0  3  0  0  0  0  0  0
  -23.7350  -29.4090   19.7290 C   0  0  0  0  0  2  0  0  0  0  0  0
  -24.7100  -30.6080   21.7350 N   0  0  0  0  0  0  0  0  0  0  0  0
  -23.5110  -31.3830   23.5030 O   0  0  0  0  0  0  0  0  0  0  0  0
  -23.0050  -28.7440   22.0490 C   0  0  0  0  0  0  0  0  0  0  0  0
  -21.7420  -28.3310   21.8460 N   0  0  0  0  0  0  0  0  0  0  0  0
  -23.7550  -28.2090   22.8690 O   0  0  0  0  0  0  0  0  0  0  0  0
  -21.1860  -28.8250   21.1610 H   0  0  0  0  0  0  0  0  0  0  0  0
  -18.7070  -26.3650   21.9640 C   0  0  0  0  0  0  0  0  0  0  0  0
  -21.0850  -27.2130   22.5240 C   0  0  0  0  0  3  0  0  0  0  0  0
  -21.5860  -25.8560   21.9760 C   0  0  0  0  0  2  0  0  0  0  0  0
  -20.7140  -25.3030   20.8460 C   0  0  0  0  0  2  0  0  0  0  0  0
  -19.2730  -25.1080   21.3240 C   0  0  0  0  0  2  0  0  0  0  0  0
  -19.5580  -27.3610   22.5140 C   0  0  0  0  0  0  0  0  0  0  0  0
  -18.9840  -28.5250   23.0660 C   0  0  0  0  0  3  0  0  0  0  0  0
  -17.5880  -28.7040   23.0770 C   0  0  0  0  0  3  0  0  0  0  0  0
  -16.7480  -27.7090   22.5440 C   0  0  0  0  0  3  0  0  0  0  0  0
  -17.3080  -26.5420   21.9950 C   0  0  0  0  0  3  0  0  0  0  0  0
  -25.8190  -32.0160   23.5560 C   0  0  0  0  0  3  0  0  0  0  0  0
  -26.4320  -31.2280   24.7780 C   0  0  1  0  0  0  0  0  0  0  0  0
  -25.3870  -30.8300   25.8470 C   0  0  0  0  0  1  0  0  0  0  0  0
  -27.1320  -29.9350   24.3000 C   0  0  0  0  0  1  0  0  0  0  0  0
  -27.5160  -32.0900   25.4670 C   0  0  0  0  0  1  0  0  0  0  0  0
  -25.3740  -33.3540   23.9740 N   0  0  0  0  0  0  0  0  0  0  0  0
  -25.6360  -34.4870   23.3090 C   0  0  0  0  0  0  0  0  0  0  0  0
  -26.3440  -34.5210   22.3000 O   0  0  0  0  0  0  0  0  0  0  0  0
  -24.7410  -33.3940   24.7600 H   0  0  0  0  0  0  0  0  0  0  0  0
  -23.7620  -36.1430   23.0250 C   0  0  0  0  0  1  0  0  0  0  0  0
  -25.0120  -35.7900   23.8480 C   0  0  0  0  0  3  0  0  0  0  0  0
  -27.0350  -36.7940   24.8100 C   0  0  0  0  0  1  0  0  0  0  0  0
  -25.9490  -36.9350   23.8450 N   0  0  0  0  0  0  0  0  0  0  0  0
  -25.4580  -37.8020   24.0440 H   0  0  0  0  0  0  0  0  0  0  0  0
  1  2  2  0
  1  5  1  0
  2  6  1  0
  4  3  1  0
  4  8  1  0
  5 10  1  0
  5  4  2  0
  6 21  1  0
  6  3  2  0
  7 11  2  0
  7  9  1  0
  8  9  1  0
 10  7  1  0
 12 21  1  0
 13 18  1  0
 14 15  1  0
 14 13  1  0
 16 15  1  0
 16 25  1  0
 16 17  1  0
 18 12  1  0
 18 17  1  0
 19 12  2  0
 21 20  1  0
 22 23  2  0
 23 42  1  0
 24 27  1  0
 24 23  1  0
 25 26  1  0
 25 22  1  0
 26 24  2  0
 27 28  1  0
 28 29  2  0
 30 33  1  0
 30 29  1  0
 31 30  2  0
 32 31  1  0
 32 27  2  0
 33 34  1  0
 34 35  1  0
 35 36  2  0
 37 36  1  0
 37 41  1  0
 38 37  2  0
 39 34  2  0
 39 38  1  0
 40 39  1  0
 42 43  1  0
 43 46  1  0
 43 45  1  0
 44 42  2  0
 47 22  1  0
 47 48  1  0
 49 47  1  0
 50 51  1  0
 50 10  1  0
 52 53  1  0
 52 51  2  0
 53 55  1  0
 54 65  2  0
 55 60  1  0
 56 64  1  0
 56 66  1  0
 57 63  1  0
 57 59  1  0
 58 64  1  0
 59 58  1  0
 60 59  2  0
 61 62  1  0
 61 55  2  0
 62 57  2  0
 63 56  1  0
 64 54  1  0
 66 68  2  0
 67 66  1  0
 69 67  1  0
 70 79  2  0
 70 75  1  0
 71 67  1  0
 72 71  1  0
 73 74  1  0
 73 72  1  0
 74 70  1  0
 75 71  1  0
 75 76  2  0
 76 77  1  0
 78 77  2  0
 79 78  1  0
 80 54  1  0
 80 85  1  0
 80 81  1  0
 81 84  1  1
 81 82  1  0
 83 81  1  0
 85 88  1  0
 86 90  1  0
 86 85  1  0
 87 86  2  0
 90 89  1  0
 92 90  1  0
 92 93  1  0
 92 91  1  0
M  ISO  4  12 100  21 100  52 101  53 101
M  END
>  <TORSDO>  (73) 
F 19

>  <SCORE>  (73) 
-10.427

>  <name>  (73) 
72

>  <ligand_id>  (73) 
72

>  <original_smiles>  (73) 
[H]c1c([H])c([H])c2c(c1[H])C([H])([H])C([H])([H])C([H])([H])C2([H])N([H])C(=O)C1([H])N(C(=O)C([H])(N([H])C(=O)C([H])(N([H])C([H])([H])[H])C([H])([H])[H])C(C([H])([H])[H])(C([H])([H])[H])C([H])([H])[H])C([H])([H])c2c([H])c(OC([H])([H])C([H])([H])C([H])([H])N3C(=O)C([H])([H])C([H])([H])c4c([H])c(N(C(=O)N5C([H])([H])C([H])([H])C([H])([H])C([H])(n6nc(-c7c([H])c([H])c(Oc8c([H])c([H])c(F)c([H])c8F)c([H])c7[H])c(C(=O)N([H])[H])c6N([H])[H])C5([H])[H])C([H])([H])[H])c([H])c([H])c43)c([H])c([H])c2C1([H])[H]

>  <smiles>  (73) 
[H]c1c([H])c([H])c2c(c1[H])C([H])([H])C([H])([H])C([H])([H])C2([H])N([H])C(=O)C1([H])N(C(=O)C([H])(N([H])C(=O)C([H])(N([H])C([H])([H])[H])C([H])([H])[H])C(C([H])([H])[H])(C([H])([H])[H])C([H])([H])[H])C([H])([H])c2c([H])c(OC([H])([H])C([H])([H])C([H])([H])N3C(=O)C([H])([H])C([H])([H])c4c([H])c(N(C(=O)N5C([H])([H])C([H])([H])C([H])([H])C([H])(n6nc(-c7c([H])c([H])c(Oc8c([H])c([H])c(F)c([H])c8F)c([H])c7[H])c(C(=O)N([H])[H])c6N([H])[H])C5([H])[H])C([H])([H])[H])c([H])c([H])c43)c([H])c([H])c2C1([H])[H]

$$$$
73:0:0
     RDKit          3D

 94102  0  0  1  0  0  0  0  0999 V2000
  -29.3490  -22.8400   20.4210 C   0  0  0  0  0  0  0  0  0  0  0  0
  -30.2430  -21.9730   19.8420 N   0  0  0  0  0  0  0  0  0  0  0  0
  -28.3110  -22.4320   20.9540 O   0  0  0  0  0  0  0  0  0  0  0  0
  -29.9350  -18.3200   18.8520 C   0  0  0  0  0  3  0  0  0  0  0  0
  -30.0630  -19.7250   18.7740 C   0  0  0  0  0  3  0  0  0  0  0  0
  -30.0450  -19.8650   21.1930 C   0  0  0  0  0  3  0  0  0  0  0  0
  -29.8410  -17.6720   20.1020 C   0  0  0  0  0  0  0  0  0  0  0  0
  -30.1020  -20.5310   19.9400 C   0  0  0  0  0  0  0  0  0  0  0  0
  -29.9110  -18.4610   21.2750 C   0  0  0  0  0  0  0  0  0  0  0  0
  -29.8400  -17.8710   22.4920 F   0  0  0  0  0  0  0  0  0  0  0  0
  -29.5920  -16.1570   20.1780 C   0  0  0  0  0  2  0  0  0  0  0  0
  -31.0890  -14.3230   19.4400 C   0  0  0  0  0  0  0  0  0  0  0  0
  -30.6150  -12.0870   18.4870 C   0  0  0  0  0  2  0  0  0  0  0  0
  -29.5320  -12.1590   17.3940 C   0  0  0  0  0  2  0  0  0  0  0  0
  -28.1280  -12.0390   18.0150 C   0  0  0  0  0  2  0  0  0  0  0  0
  -27.9280  -13.0030   19.2100 C   0  0  0  0  0  3  0  0  0  0  0  0
  -29.1130  -12.9210   20.2010 C   0  0  0  0  0  2  0  0  0  0  0  0
  -30.3620  -13.1670   19.4580 N   0  0  0  0  0  0  0  0  0  0  0  0
  -32.0850  -14.4540   18.7210 O   0  0  0  0  0  0  0  0  0  0  0  0
  -31.8520  -15.8960   21.1270 C   0  0  0  0  0  1  0  0  0  0  0  0
  -30.7740  -15.2850   20.3440 N   0  0  0  0  0  0  0  0  0  0  0  0
  -25.7220  -13.7080   20.3300 C   0  0  0  0  0  0  0  0  0  0  0  0
  -24.6650  -12.9790   20.8040 C   0  0  0  0  0  0  0  0  0  0  0  0
  -25.0100  -11.6070   20.6020 C   0  0  0  0  0  0  0  0  0  0  0  0
  -26.6470  -12.7820   19.8750 N   0  0  0  0  0  0  0  0  0  0  0  0
  -26.2320  -11.5090   20.0950 N   0  0  0  0  0  0  0  0  0  0  0  0
  -24.2250  -10.3840   20.8070 C   0  0  0  0  0  0  0  0  0  0  0  0
  -24.6140   -9.4070   21.7510 C   0  0  0  0  0  3  0  0  0  0  0  0
  -23.8340   -8.2480   21.9420 C   0  0  0  0  0  3  0  0  0  0  0  0
  -22.6500   -8.0560   21.1900 C   0  0  0  0  0  0  0  0  0  0  0  0
  -22.2820   -9.0200   20.2350 C   0  0  0  0  0  3  0  0  0  0  0  0
  -23.0620  -10.1720   20.0420 C   0  0  0  0  0  3  0  0  0  0  0  0
  -21.8430   -6.9500   21.2910 O   0  0  0  0  0  0  0  0  0  0  0  0
  -21.6260   -6.3260   22.4930 C   0  0  0  0  0  0  0  0  0  0  0  0
  -21.0730   -7.0080   23.5980 C   0  0  0  0  0  3  0  0  0  0  0  0
  -20.8010   -6.3120   24.7930 C   0  0  0  0  0  3  0  0  0  0  0  0
  -21.0730   -4.9330   24.8820 C   0  0  0  0  0  0  0  0  0  0  0  0
  -21.6200   -4.2500   23.7810 C   0  0  0  0  0  3  0  0  0  0  0  0
  -21.8930   -4.9440   22.5890 C   0  0  0  0  0  0  0  0  0  0  0  0
  -22.4000   -4.2780   21.5240 F   0  0  0  0  0  0  0  0  0  0  0  0
  -20.8060   -4.2610   26.0260 F   0  0  0  0  0  0  0  0  0  0  0  0
  -23.3650  -13.5200   21.3260 C   0  0  0  0  0  0  0  0  0  0  0  0
  -22.7490  -12.8250   22.2760 N   0  0  0  0  0  0  0  0  0  0  0  0
  -22.9120  -14.5920   20.9270 O   0  0  0  0  0  0  0  0  0  0  0  0
  -23.1320  -11.9560   22.6170 H   0  0  0  0  0  0  0  0  0  0  0  0
  -21.8830  -13.1680   22.6670 H   0  0  0  0  0  0  0  0  0  0  0  0
  -25.9600  -15.0760   20.2280 N   0  0  0  0  0  0  0  0  0  0  0  0
  -25.2600  -15.7620   20.4890 H   0  0  0  0  0  0  0  0  0  0  0  0
  -26.7640  -15.4870   19.7710 H   0  0  0  0  0  0  0  0  0  0  0  0
  -30.9990  -22.9600   17.6450 C   0  0  0  0  0  1  0  0  0  0  0  0
  -31.3890  -22.4690   19.0560 C   0  0  0  0  0  2  0  0  0  0  0  0
  -29.5930  -24.3790   20.4470 C   0  0  0  0  0  2  0  0  0  0  0  0
  -28.3530  -25.2030   20.0160 C   0  0  0  0  0  2  0  0  0  0  0  0
  -28.4900  -26.6260   20.2150 O   0  0  0  0  0  0  0  0  0  0  0  0
  -24.5820  -31.7660   23.2400 C   0  0  0  0  0  0  0  0  0  0  0  0
  -27.3180  -27.3650   20.1630 C   0  0  0  0  0  0  0  0  0  0  0  0
  -23.4170  -30.3670   21.5690 C   0  0  0  0  0  3  0  0  0  0  0  0
  -24.9080  -28.8610   20.1510 C   0  0  0  0  0  0  0  0  0  0  0  0
  -25.9440  -30.7490   21.4150 C   0  0  0  0  0  2  0  0  0  0  0  0
  -26.0540  -29.3850   20.7600 C   0  0  0  0  0  0  0  0  0  0  0  0
  -27.2620  -28.6470   20.7610 C   0  0  0  0  0  3  0  0  0  0  0  0
  -26.1500  -26.8650   19.5390 C   0  0  0  0  0  3  0  0  0  0  0  0
  -24.9520  -27.6000   19.5370 C   0  0  0  0  0  3  0  0  0  0  0  0
  -23.6530  -29.7040   20.1860 C   0  0  0  0  0  2  0  0  0  0  0  0
  -24.6650  -30.9760   22.1330 N   0  0  0  0  0  0  0  0  0  0  0  0
  -23.4900  -32.0240   23.7640 O   0  0  0  0  0  0  0  0  0  0  0  0
  -22.7610  -29.3290   22.5100 C   0  0  0  0  0  0  0  0  0  0  0  0
  -21.4470  -29.1110   22.3380 N   0  0  0  0  0  0  0  0  0  0  0  0
  -23.4330  -28.7240   23.3490 O   0  0  0  0  0  0  0  0  0  0  0  0
  -20.9670  -29.6540   21.6340 H   0  0  0  0  0  0  0  0  0  0  0  0
  -18.0910  -27.8270   22.7190 C   0  0  0  0  0  0  0  0  0  0  0  0
  -20.6300  -28.1530   23.0810 C   0  0  0  0  0  3  0  0  0  0  0  0
  -20.7910  -26.7230   22.5150 C   0  0  0  0  0  2  0  0  0  0  0  0
  -19.7350  -26.3690   21.4630 C   0  0  0  0  0  2  0  0  0  0  0  0
  -18.3260  -26.4810   22.0540 C   0  0  0  0  0  2  0  0  0  0  0  0
  -19.1730  -28.6190   23.1860 C   0  0  0  0  0  0  0  0  0  0  0  0
  -18.9020  -29.8790   23.7630 C   0  0  0  0  0  3  0  0  0  0  0  0
  -17.5800  -30.3470   23.8790 C   0  0  0  0  0  3  0  0  0  0  0  0
  -16.5110  -29.5510   23.4310 C   0  0  0  0  0  3  0  0  0  0  0  0
  -16.7680  -28.2940   22.8560 C   0  0  0  0  0  3  0  0  0  0  0  0
  -25.8520  -32.4050   23.8850 C   0  0  0  0  0  3  0  0  0  0  0  0
  -25.5350  -33.8050   24.1930 N   0  0  0  0  0  0  0  0  0  0  0  0
  -25.8600  -34.8480   23.4160 C   0  0  0  0  0  0  0  0  0  0  0  0
  -26.5300  -34.7320   22.3860 O   0  0  0  0  0  0  0  0  0  0  0  0
  -24.9420  -33.9700   24.9930 H   0  0  0  0  0  0  0  0  0  0  0  0
  -24.1130  -36.6170   23.0360 C   0  0  0  0  0  1  0  0  0  0  0  0
  -25.3610  -36.2390   23.8500 C   0  0  0  0  0  3  0  0  0  0  0  0
  -27.4870  -37.1610   24.6600 C   0  0  0  0  0  1  0  0  0  0  0  0
  -26.3830  -37.2990   23.7130 N   0  0  0  0  0  0  0  0  0  0  0  0
  -25.9700  -38.2190   23.8400 H   0  0  0  0  0  0  0  0  0  0  0  0
  -26.3400  -31.6470   25.1790 C   0  0  1  0  0  0  0  0  0  0  0  0
  -25.2210  -31.4070   26.2190 C   0  0  0  0  0  1  0  0  0  0  0  0
  -26.9460  -30.2720   24.8110 C   0  0  0  0  0  1  0  0  0  0  0  0
  -27.4640  -32.4570   25.8680 C   0  0  0  0  0  1  0  0  0  0  0  0
  1 52  1  0
  1  3  2  0
  2  8  1  0
  2  1  1  0
  4  7  1  0
  5  4  2  0
  5  8  1  0
  6  9  1  0
  7 11  1  0
  7  9  2  0
  8  6  2  0
  9 10  1  0
 11 21  1  0
 12 18  1  0
 12 21  1  0
 13 18  1  0
 14 15  1  0
 14 13  1  0
 16 15  1  0
 16 25  1  0
 16 17  1  0
 18 17  1  0
 19 12  2  0
 21 20  1  0
 22 23  2  0
 23 42  1  0
 24 23  1  0
 24 27  1  0
 25 26  1  0
 25 22  1  0
 26 24  2  0
 27 28  1  0
 28 29  2  0
 30 33  1  0
 30 29  1  0
 31 30  2  0
 32 31  1  0
 32 27  2  0
 33 34  1  0
 34 39  2  0
 34 35  1  0
 35 36  2  0
 36 37  1  0
 37 41  1  0
 38 37  2  0
 39 38  1  0
 40 39  1  0
 42 43  1  0
 43 45  1  0
 43 46  1  0
 44 42  2  0
 47 22  1  0
 47 48  1  0
 49 47  1  0
 50 51  1  0
 51  2  1  0
 53 54  1  0
 53 52  1  0
 55 66  2  0
 56 54  1  0
 56 61  1  0
 57 65  1  0
 57 67  1  0
 58 64  1  0
 58 60  1  0
 59 65  1  0
 60 61  2  0
 60 59  1  0
 62 56  2  0
 63 62  1  0
 63 58  2  0
 64 57  1  0
 65 55  1  0
 67 69  2  0
 68 67  1  0
 70 68  1  0
 71 80  2  0
 71 76  1  0
 72 68  1  0
 72 76  1  0
 73 72  1  0
 74 75  1  0
 74 73  1  0
 75 71  1  0
 76 77  2  0
 77 78  1  0
 79 78  2  0
 80 79  1  0
 81 55  1  0
 81 82  1  0
 81 91  1  0
 82 85  1  0
 83 87  1  0
 83 82  1  0
 84 83  2  0
 87 86  1  0
 89 90  1  0
 89 87  1  0
 89 88  1  0
 91 94  1  1
 91 92  1  0
 93 91  1  0
M  ISO  4  12 100  21 100  53 101  54 101
M  END
>  <TORSDO>  (74) 
F 21

>  <SCORE>  (74) 
-11.959

>  <name>  (74) 
73

>  <ligand_id>  (74) 
73

>  <original_smiles>  (74) 
[H]c1c([H])c([H])c2c(c1[H])C([H])([H])C([H])([H])C([H])([H])C2([H])N([H])C(=O)C1([H])N(C(=O)C([H])(N([H])C(=O)C([H])(N([H])C([H])([H])[H])C([H])([H])[H])C(C([H])([H])[H])(C([H])([H])[H])C([H])([H])[H])C([H])([H])c2c([H])c(OC([H])([H])C([H])([H])C(=O)N(c3c([H])c([H])c(C([H])([H])N(C(=O)N4C([H])([H])C([H])([H])C([H])([H])C([H])(n5nc(-c6c([H])c([H])c(Oc7c([H])c([H])c(F)c([H])c7F)c([H])c6[H])c(C(=O)N([H])[H])c5N([H])[H])C4([H])[H])C([H])([H])[H])c(F)c3[H])C([H])([H])C([H])([H])[H])c([H])c([H])c2C1([H])[H]

>  <smiles>  (74) 
[H]c1c([H])c([H])c2c(c1[H])C([H])([H])C([H])([H])C([H])([H])C2([H])N([H])C(=O)C1([H])N(C(=O)C([H])(N([H])C(=O)C([H])(N([H])C([H])([H])[H])C([H])([H])[H])C(C([H])([H])[H])(C([H])([H])[H])C([H])([H])[H])C([H])([H])c2c([H])c(OC([H])([H])C([H])([H])C(=O)N(c3c([H])c([H])c(C([H])([H])N(C(=O)N4C([H])([H])C([H])([H])C([H])([H])C([H])(n5nc(-c6c([H])c([H])c(Oc7c([H])c([H])c(F)c([H])c7F)c([H])c6[H])c(C(=O)N([H])[H])c5N([H])[H])C4([H])[H])C([H])([H])[H])c(F)c3[H])C([H])([H])C([H])([H])[H])c([H])c([H])c2C1([H])[H]

$$$$
74:0:0
     RDKit          3D

 97105  0  0  1  0  0  0  0  0999 V2000
  -29.4770  -21.6520   19.4720 C   0  0  0  0  0  0  0  0  0  0  0  0
  -28.6680  -20.4160   17.5010 C   0  0  0  0  0  1  0  0  0  0  0  0
  -29.2550  -20.4680   18.8430 N   0  0  0  0  0  0  0  0  0  0  0  0
  -29.8480  -21.7280   20.6500 O   0  0  0  0  0  0  0  0  0  0  0  0
  -28.7570  -17.0660   20.3340 C   0  0  0  0  0  3  0  0  0  0  0  0
  -28.4940  -18.3460   19.8040 C   0  0  0  0  0  3  0  0  0  0  0  0
  -31.1460  -17.5150   20.2080 C   0  0  0  0  0  3  0  0  0  0  0  0
  -30.0840  -16.6330   20.5140 C   0  0  0  0  0  0  0  0  0  0  0  0
  -29.5550  -19.2160   19.4610 C   0  0  0  0  0  0  0  0  0  0  0  0
  -30.8920  -18.7910   19.6690 C   0  0  0  0  0  0  0  0  0  0  0  0
  -32.2420  -19.7700   19.2050 Cl  0  0  0  0  0  0  0  0  0  0  0  0
  -30.8340  -14.3880   20.1570 C   0  0  0  0  0  0  0  0  0  0  0  0
  -30.3630  -12.3320   18.8790 C   0  0  0  0  0  2  0  0  0  0  0  0
  -29.3560  -12.6130   17.7500 C   0  0  0  0  0  2  0  0  0  0  0  0
  -27.9110  -12.4670   18.2670 C   0  0  0  0  0  2  0  0  0  0  0  0
  -27.6660  -13.2570   19.5780 C   0  0  0  0  0  3  0  0  0  0  0  0
  -28.7810  -12.9770   20.6100 C   0  0  0  0  0  2  0  0  0  0  0  0
  -30.0810  -13.2690   19.9770 N   0  0  0  0  0  0  0  0  0  0  0  0
  -31.8800  -14.5950   19.5330 O   0  0  0  0  0  0  0  0  0  0  0  0
  -30.6880  -15.2130   22.4210 C   0  0  0  0  0  1  0  0  0  0  0  0
  -30.3450  -15.3220   21.0040 N   0  0  0  0  0  0  0  0  0  0  0  0
  -25.3150  -13.8590   20.4430 C   0  0  0  0  0  0  0  0  0  0  0  0
  -24.2690  -13.0850   20.8620 C   0  0  0  0  0  0  0  0  0  0  0  0
  -24.7170  -11.7320   20.7700 C   0  0  0  0  0  0  0  0  0  0  0  0
  -26.3400  -12.9790   20.1280 N   0  0  0  0  0  0  0  0  0  0  0  0
  -25.9850  -11.6940   20.3800 N   0  0  0  0  0  0  0  0  0  0  0  0
  -23.9960  -10.4690   20.9720 C   0  0  0  0  0  0  0  0  0  0  0  0
  -24.4560   -9.4930   21.8840 C   0  0  0  0  0  3  0  0  0  0  0  0
  -23.7340   -8.2940   22.0740 C   0  0  0  0  0  3  0  0  0  0  0  0
  -22.5390   -8.0640   21.3520 C   0  0  0  0  0  0  0  0  0  0  0  0
  -22.0990   -9.0280   20.4290 C   0  0  0  0  0  3  0  0  0  0  0  0
  -22.8210  -10.2180   20.2370 C   0  0  0  0  0  3  0  0  0  0  0  0
  -21.7870   -6.9170   21.4520 O   0  0  0  0  0  0  0  0  0  0  0  0
  -21.7470   -6.1830   22.6090 C   0  0  0  0  0  0  0  0  0  0  0  0
  -21.3450   -6.7500   23.8390 C   0  0  0  0  0  3  0  0  0  0  0  0
  -21.2500   -5.9400   24.9900 C   0  0  0  0  0  3  0  0  0  0  0  0
  -21.5490   -4.5660   24.9120 C   0  0  0  0  0  0  0  0  0  0  0  0
  -21.9450   -4.0000   23.6870 C   0  0  0  0  0  3  0  0  0  0  0  0
  -22.0410   -4.8060   22.5400 C   0  0  0  0  0  0  0  0  0  0  0  0
  -22.4030   -4.2510   21.3580 F   0  0  0  0  0  0  0  0  0  0  0  0
  -21.4510   -3.7870   26.0140 F   0  0  0  0  0  0  0  0  0  0  0  0
  -22.8930  -13.5630   21.2300 C   0  0  0  0  0  0  0  0  0  0  0  0
  -22.2200  -12.8600   22.1340 N   0  0  0  0  0  0  0  0  0  0  0  0
  -22.4260  -14.5970   20.7530 O   0  0  0  0  0  0  0  0  0  0  0  0
  -22.6120  -12.0260   22.5460 H   0  0  0  0  0  0  0  0  0  0  0  0
  -21.3000  -13.1620   22.4220 H   0  0  0  0  0  0  0  0  0  0  0  0
  -25.4700  -15.2320   20.2790 N   0  0  0  0  0  0  0  0  0  0  0  0
  -24.6970  -15.8730   20.4200 H   0  0  0  0  0  0  0  0  0  0  0  0
  -26.2600  -15.6610   19.8160 H   0  0  0  0  0  0  0  0  0  0  0  0
  -29.2740  -22.9660   18.7040 C   0  0  0  0  0  2  0  0  0  0  0  0
  -29.5880  -24.1160   19.5780 N   0  0  0  0  0  4  0  0  0  0  0  0
  -30.0350  -23.6950   20.3820 H   0  0  0  0  0  0  0  0  0  0  0  0
  -28.7330  -24.5390   19.8990 H   0  0  0  0  0  0  0  0  0  0  0  0
  -30.4690  -25.1490   18.9840 C   0  0  0  0  0  2  0  0  0  0  0  0
  -30.7440  -26.3130   19.9590 C   0  0  0  0  0  2  0  0  0  0  0  0
  -29.6340  -27.3750   20.0140 C   0  0  0  0  0  2  0  0  0  0  0  0
  -28.3840  -26.7240   20.2060 O   0  0  0  0  0  0  0  0  0  0  0  0
  -24.6100  -31.9650   23.2580 C   0  0  0  0  0  0  0  0  0  0  0  0
  -27.2570  -27.5110   20.2290 C   0  0  0  0  0  0  0  0  0  0  0  0
  -23.4020  -30.5580   21.6210 C   0  0  0  0  0  3  0  0  0  0  0  0
  -24.8540  -28.9980   20.2200 C   0  0  0  0  0  0  0  0  0  0  0  0
  -25.9260  -30.9110   21.4250 C   0  0  0  0  0  2  0  0  0  0  0  0
  -26.0080  -29.5350   20.8030 C   0  0  0  0  0  0  0  0  0  0  0  0
  -27.2130  -28.8010   20.8080 C   0  0  0  0  0  3  0  0  0  0  0  0
  -26.0820  -26.9740   19.6660 C   0  0  0  0  0  3  0  0  0  0  0  0
  -24.8830  -27.7130   19.6510 C   0  0  0  0  0  3  0  0  0  0  0  0
  -23.6130  -29.8600   20.2500 C   0  0  0  0  0  2  0  0  0  0  0  0
  -24.6640  -31.1580   22.1620 N   0  0  0  0  0  0  0  0  0  0  0  0
  -23.5300  -32.2490   23.7920 O   0  0  0  0  0  0  0  0  0  0  0  0
  -22.7400  -29.5500   22.5870 C   0  0  0  0  0  0  0  0  0  0  0  0
  -21.4130  -29.3850   22.4610 N   0  0  0  0  0  0  0  0  0  0  0  0
  -23.4170  -28.9180   23.4030 O   0  0  0  0  0  0  0  0  0  0  0  0
  -20.9300  -29.9470   21.7730 H   0  0  0  0  0  0  0  0  0  0  0  0
  -18.0200  -28.2570   22.9710 C   0  0  0  0  0  0  0  0  0  0  0  0
  -20.5830  -28.4640   23.2350 C   0  0  0  0  0  3  0  0  0  0  0  0
  -20.6550  -27.0310   22.6570 C   0  0  0  0  0  2  0  0  0  0  0  0
  -19.5440  -26.7320   21.6460 C   0  0  0  0  0  2  0  0  0  0  0  0
  -18.1670  -26.9040   22.2960 C   0  0  0  0  0  2  0  0  0  0  0  0
  -19.1560  -28.9970   23.3970 C   0  0  0  0  0  0  0  0  0  0  0  0
  -18.9650  -30.2660   23.9870 C   0  0  0  0  0  3  0  0  0  0  0  0
  -17.6720  -30.7940   24.1560 C   0  0  0  0  0  3  0  0  0  0  0  0
  -16.5510  -30.0510   23.7470 C   0  0  0  0  0  3  0  0  0  0  0  0
  -16.7260  -28.7850   23.1600 C   0  0  0  0  0  3  0  0  0  0  0  0
  -25.9010  -32.5900   23.8800 C   0  0  0  0  0  3  0  0  0  0  0  0
  -25.5940  -33.9850   24.2220 N   0  0  0  0  0  0  0  0  0  0  0  0
  -25.9410  -35.0440   23.4780 C   0  0  0  0  0  0  0  0  0  0  0  0
  -26.6230  -34.9480   22.4540 O   0  0  0  0  0  0  0  0  0  0  0  0
  -24.9880  -34.1330   25.0160 H   0  0  0  0  0  0  0  0  0  0  0  0
  -24.2320  -36.8500   23.1120 C   0  0  0  0  0  1  0  0  0  0  0  0
  -25.4530  -36.4290   23.9430 C   0  0  0  0  0  3  0  0  0  0  0  0
  -27.5780  -37.2850   24.8270 C   0  0  0  0  0  1  0  0  0  0  0  0
  -26.4950  -37.4750   23.8670 N   0  0  0  0  0  0  0  0  0  0  0  0
  -26.0920  -38.3960   24.0200 H   0  0  0  0  0  0  0  0  0  0  0  0
  -26.4260  -31.8040   25.1440 C   0  0  1  0  0  0  0  0  0  0  0  0
  -25.3380  -31.5480   26.2120 C   0  0  0  0  0  1  0  0  0  0  0  0
  -27.0140  -30.4350   24.7280 C   0  0  0  0  0  1  0  0  0  0  0  0
  -27.5750  -32.5960   25.8120 C   0  0  0  0  0  1  0  0  0  0  0  0
  1  4  2  0
  2  3  1  0
  3  9  1  0
  3  1  1  0
  5  8  1  0
  6  5  2  0
  7  8  2  0
  8 21  1  0
  9 10  2  0
  9  6  1  0
 10  7  1  0
 11 10  1  0
 12 21  1  0
 13 18  1  0
 14 15  1  0
 14 13  1  0
 16 15  1  0
 16 25  1  0
 16 17  1  0
 18 12  1  0
 18 17  1  0
 19 12  2  0
 21 20  1  0
 22 23  2  0
 23 42  1  0
 24 23  1  0
 24 27  1  0
 25 26  1  0
 25 22  1  0
 26 24  2  0
 27 28  1  0
 28 29  2  0
 30 33  1  0
 30 29  1  0
 31 30  2  0
 32 31  1  0
 32 27  2  0
 33 34  1  0
 34 35  1  0
 35 36  2  0
 37 36  1  0
 37 41  1  0
 38 37  2  0
 39 34  2  0
 39 38  1  0
 40 39  1  0
 42 43  1  0
 43 46  1  0
 43 45  1  0
 44 42  2  0
 47 48  1  0
 47 22  1  0
 49 47  1  0
 50  1  1  0
 50 51  1  0
 51 53  1  0
 51 52  1  0
 54 51  1  0
 54 55  1  0
 55 56  1  0
 56 57  1  0
 57 59  1  0
 58 69  2  0
 59 64  1  0
 60 68  1  0
 60 70  1  0
 61 67  1  0
 61 63  1  0
 62 68  1  0
 63 64  2  0
 63 62  1  0
 65 59  2  0
 66 65  1  0
 66 61  2  0
 67 60  1  0
 68 58  1  0
 70 72  2  0
 71 70  1  0
 73 71  1  0
 74 83  2  0
 74 79  1  0
 75 71  1  0
 75 79  1  0
 76 75  1  0
 77 78  1  0
 77 76  1  0
 78 74  1  0
 79 80  2  0
 80 81  1  0
 82 81  2  0
 83 82  1  0
 84 58  1  0
 84 85  1  0
 84 94  1  0
 85 88  1  0
 86 90  1  0
 86 85  1  0
 87 86  2  0
 90 89  1  0
 92 90  1  0
 92 93  1  0
 92 91  1  0
 94 97  1  1
 94 95  1  0
 96 94  1  0
M  ISO  4  12 100  21 100  56 101  57 101
M  END
>  <TORSDO>  (75) 
F 22

>  <SCORE>  (75) 
-12.549

>  <name>  (75) 
74

>  <ligand_id>  (75) 
74

>  <original_smiles>  (75) 
[H]c1c([H])c([H])c2c(c1[H])C([H])([H])C([H])([H])C([H])([H])C2([H])N([H])C(=O)C1([H])N(C(=O)C([H])(N([H])C(=O)C([H])(N([H])C([H])([H])[H])C([H])([H])[H])C(C([H])([H])[H])(C([H])([H])[H])C([H])([H])[H])C([H])([H])c2c([H])c(OC([H])([H])C([H])([H])C([H])([H])[N+]([H])([H])C([H])([H])C(=O)N(c3c([H])c([H])c(N(C(=O)N4C([H])([H])C([H])([H])C([H])([H])C([H])(n5nc(-c6c([H])c([H])c(Oc7c([H])c([H])c(F)c([H])c7F)c([H])c6[H])c(C(=O)N([H])[H])c5N([H])[H])C4([H])[H])C([H])([H])[H])c([H])c3Cl)C([H])([H])[H])c([H])c([H])c2C1([H])[H]

>  <smiles>  (75) 
[H]c1c([H])c([H])c2c(c1[H])C([H])([H])C([H])([H])C([H])([H])C2([H])N([H])C(=O)C1([H])N(C(=O)C([H])(N([H])C(=O)C([H])(N([H])C([H])([H])[H])C([H])([H])[H])C(C([H])([H])[H])(C([H])([H])[H])C([H])([H])[H])C([H])([H])c2c([H])c(OC([H])([H])C([H])([H])C([H])([H])[N+]([H])([H])C([H])([H])C(=O)N(c3c([H])c([H])c(N(C(=O)N4C([H])([H])C([H])([H])C([H])([H])C([H])(n5nc(-c6c([H])c([H])c(Oc7c([H])c([H])c(F)c([H])c7F)c([H])c6[H])c(C(=O)N([H])[H])c5N([H])[H])C4([H])[H])C([H])([H])[H])c([H])c3Cl)C([H])([H])[H])c([H])c([H])c2C1([H])[H]

$$$$
75:0:0
     RDKit          3D

 93101  0  0  1  0  0  0  0  0999 V2000
  -29.4640  -21.7060   22.6060 C   0  0  0  0  0  1  0  0  0  0  0  0
  -29.2480  -21.6560   21.1390 N   0  0  1  0  0  4  0  0  0  0  0  0
  -30.1540  -21.7970   20.7090 H   0  0  0  0  0  0  0  0  0  0  0  0
  -28.8460  -20.2870   20.6800 C   0  0  0  0  0  2  0  0  0  0  0  0
  -31.9760  -17.2480   20.7720 C   0  0  0  0  0  3  0  0  0  0  0  0
  -32.3020  -18.5910   20.5270 C   0  0  0  0  0  3  0  0  0  0  0  0
  -29.6310  -17.8580   21.0210 C   0  0  0  0  0  3  0  0  0  0  0  0
  -29.9500  -19.2190   20.7640 C   0  0  0  0  0  0  0  0  0  0  0  0
  -30.6300  -16.8540   20.9580 C   0  0  0  0  0  0  0  0  0  0  0  0
  -31.2920  -19.5640   20.4870 C   0  0  0  0  0  0  0  0  0  0  0  0
  -31.6150  -20.8400   20.1700 F   0  0  0  0  0  0  0  0  0  0  0  0
  -30.7740  -14.4950   20.2540 C   0  0  0  0  0  0  0  0  0  0  0  0
  -30.3810  -12.3550   19.1090 C   0  0  0  0  0  2  0  0  0  0  0  0
  -29.4150  -12.5810   17.9300 C   0  0  0  0  0  2  0  0  0  0  0  0
  -27.9570  -12.4400   18.4010 C   0  0  0  0  0  2  0  0  0  0  0  0
  -27.6580  -13.2760   19.6740 C   0  0  0  0  0  3  0  0  0  0  0  0
  -28.7430  -13.0710   20.7570 C   0  0  0  0  0  2  0  0  0  0  0  0
  -30.0580  -13.3430   20.1530 N   0  0  0  0  0  0  0  0  0  0  0  0
  -31.8190  -14.6620   19.6180 O   0  0  0  0  0  0  0  0  0  0  0  0
  -30.2650  -15.4730   21.0330 N   0  0  0  0  0  0  0  0  0  0  0  0
  -29.4070  -15.2500   21.5200 H   0  0  0  0  0  0  0  0  0  0  0  0
  -25.2830  -13.8720   20.4720 C   0  0  0  0  0  0  0  0  0  0  0  0
  -24.2280  -13.0960   20.8660 C   0  0  0  0  0  0  0  0  0  0  0  0
  -24.6850  -11.7440   20.7940 C   0  0  0  0  0  0  0  0  0  0  0  0
  -26.3200  -12.9960   20.1910 N   0  0  0  0  0  0  0  0  0  0  0  0
  -25.9640  -11.7090   20.4380 N   0  0  0  0  0  0  0  0  0  0  0  0
  -23.9630  -10.4790   20.9850 C   0  0  0  0  0  0  0  0  0  0  0  0
  -24.3950   -9.5140   21.9210 C   0  0  0  0  0  3  0  0  0  0  0  0
  -23.6740   -8.3140   22.0990 C   0  0  0  0  0  3  0  0  0  0  0  0
  -22.5030   -8.0690   21.3410 C   0  0  0  0  0  0  0  0  0  0  0  0
  -22.0900   -9.0220   20.3920 C   0  0  0  0  0  3  0  0  0  0  0  0
  -22.8130  -10.2130   20.2130 C   0  0  0  0  0  3  0  0  0  0  0  0
  -21.7540   -6.9220   21.4290 O   0  0  0  0  0  0  0  0  0  0  0  0
  -21.6660   -6.2040   22.5970 C   0  0  0  0  0  0  0  0  0  0  0  0
  -21.1820   -6.7830   23.7910 C   0  0  0  0  0  3  0  0  0  0  0  0
  -21.0460   -5.9920   24.9500 C   0  0  0  0  0  3  0  0  0  0  0  0
  -21.3820   -4.6260   24.9140 C   0  0  0  0  0  0  0  0  0  0  0  0
  -21.8590   -4.0490   23.7260 C   0  0  0  0  0  3  0  0  0  0  0  0
  -21.9980   -4.8360   22.5690 C   0  0  0  0  0  0  0  0  0  0  0  0
  -22.4380   -4.2700   21.4180 F   0  0  0  0  0  0  0  0  0  0  0  0
  -21.2440   -3.8630   26.0250 F   0  0  0  0  0  0  0  0  0  0  0  0
  -22.8420  -13.5690   21.1980 C   0  0  0  0  0  0  0  0  0  0  0  0
  -22.1410  -12.8530   22.0700 N   0  0  0  0  0  0  0  0  0  0  0  0
  -22.3910  -14.6090   20.7200 O   0  0  0  0  0  0  0  0  0  0  0  0
  -22.5160  -12.0120   22.4820 H   0  0  0  0  0  0  0  0  0  0  0  0
  -21.2110  -13.1520   22.3310 H   0  0  0  0  0  0  0  0  0  0  0  0
  -25.4470  -15.2470   20.3100 N   0  0  0  0  0  0  0  0  0  0  0  0
  -24.6880  -15.9030   20.4530 H   0  0  0  0  0  0  0  0  0  0  0  0
  -26.2830  -15.6830   19.9410 H   0  0  0  0  0  0  0  0  0  0  0  0
  -28.3600  -22.7450   20.6160 C   0  0  0  0  0  2  0  0  0  0  0  0
  -28.9110  -24.2040   20.7680 C   0  0  0  0  0  2  0  0  0  0  0  0
  -28.0440  -25.2350   20.0050 C   0  0  0  0  0  2  0  0  0  0  0  0
  -28.3190  -26.6510   20.2210 O   0  0  0  0  0  0  0  0  0  0  0  0
  -24.5830  -31.9330   23.2400 C   0  0  0  0  0  0  0  0  0  0  0  0
  -27.2120  -27.4860   20.1310 C   0  0  0  0  0  0  0  0  0  0  0  0
  -23.3890  -30.5630   21.5700 C   0  0  0  0  0  3  0  0  0  0  0  0
  -24.8480  -29.0560   20.1240 C   0  0  0  0  0  0  0  0  0  0  0  0
  -25.9250  -30.9050   21.4020 C   0  0  0  0  0  2  0  0  0  0  0  0
  -26.0100  -29.5450   20.7380 C   0  0  0  0  0  0  0  0  0  0  0  0
  -27.1960  -28.7680   20.7390 C   0  0  0  0  0  3  0  0  0  0  0  0
  -26.0380  -27.0590   19.4610 C   0  0  0  0  0  3  0  0  0  0  0  0
  -24.8600  -27.8150   19.4780 C   0  0  0  0  0  3  0  0  0  0  0  0
  -23.6100  -29.9210   20.1770 C   0  0  0  0  0  2  0  0  0  0  0  0
  -24.6510  -31.1470   22.1280 N   0  0  0  0  0  0  0  0  0  0  0  0
  -23.4970  -32.1950   23.7750 O   0  0  0  0  0  0  0  0  0  0  0  0
  -22.7310  -29.5200   22.5050 C   0  0  0  0  0  0  0  0  0  0  0  0
  -21.4090  -29.3290   22.3590 N   0  0  0  0  0  0  0  0  0  0  0  0
  -23.4080  -28.8870   23.3210 O   0  0  0  0  0  0  0  0  0  0  0  0
  -20.9170  -29.8970   21.6810 H   0  0  0  0  0  0  0  0  0  0  0  0
  -18.0360  -28.1060   22.8110 C   0  0  0  0  0  0  0  0  0  0  0  0
  -20.5900  -28.3750   23.1080 C   0  0  0  0  0  3  0  0  0  0  0  0
  -20.7050  -26.9490   22.5230 C   0  0  0  0  0  2  0  0  0  0  0  0
  -19.6160  -26.6310   21.4920 C   0  0  0  0  0  2  0  0  0  0  0  0
  -18.2260  -26.7650   22.1230 C   0  0  0  0  0  2  0  0  0  0  0  0
  -19.1470  -28.8690   23.2610 C   0  0  0  0  0  0  0  0  0  0  0  0
  -18.9150  -30.1250   23.8620 C   0  0  0  0  0  3  0  0  0  0  0  0
  -17.6060  -30.6210   24.0160 C   0  0  0  0  0  3  0  0  0  0  0  0
  -16.5110  -29.8570   23.5790 C   0  0  0  0  0  3  0  0  0  0  0  0
  -16.7250  -28.6000   22.9840 C   0  0  0  0  0  3  0  0  0  0  0  0
  -25.8650  -32.5560   23.8760 C   0  0  0  0  0  3  0  0  0  0  0  0
  -25.5570  -33.9530   24.2090 N   0  0  0  0  0  0  0  0  0  0  0  0
  -25.8820  -35.0050   23.4460 C   0  0  0  0  0  0  0  0  0  0  0  0
  -26.5440  -34.9020   22.4090 O   0  0  0  0  0  0  0  0  0  0  0  0
  -24.9780  -34.1090   25.0200 H   0  0  0  0  0  0  0  0  0  0  0  0
  -24.1410  -36.7870   23.1080 C   0  0  0  0  0  1  0  0  0  0  0  0
  -25.3960  -36.3930   23.9050 C   0  0  0  0  0  3  0  0  0  0  0  0
  -27.5390  -37.2890   24.7020 C   0  0  0  0  0  1  0  0  0  0  0  0
  -26.4210  -37.4510   23.7730 N   0  0  0  0  0  0  0  0  0  0  0  0
  -26.0120  -38.3700   23.9260 H   0  0  0  0  0  0  0  0  0  0  0  0
  -26.3680  -31.7750   25.1520 C   0  0  1  0  0  0  0  0  0  0  0  0
  -25.2620  -31.5220   26.2030 C   0  0  0  0  0  1  0  0  0  0  0  0
  -26.9680  -30.4060   24.7560 C   0  0  0  0  0  1  0  0  0  0  0  0
  -27.5040  -32.5700   25.8380 C   0  0  0  0  0  1  0  0  0  0  0  0
  2  1  1  0
  2  3  1  6
  4  8  1  0
  4  2  1  0
  5  9  1  0
  6  5  2  0
  8  7  1  0
  9  7  2  0
  9 20  1  0
 10  6  1  0
 10  8  2  0
 11 10  1  0
 12 20  1  0
 13 18  1  0
 14 15  1  0
 14 13  1  0
 16 15  1  0
 16 25  1  0
 16 17  1  0
 18 12  1  0
 18 17  1  0
 19 12  2  0
 20 21  1  0
 22 23  2  0
 23 42  1  0
 24 23  1  0
 24 27  1  0
 25 26  1  0
 25 22  1  0
 26 24  2  0
 27 28  1  0
 28 29  2  0
 30 33  1  0
 30 29  1  0
 31 30  2  0
 32 31  1  0
 32 27  2  0
 33 34  1  0
 34 35  1  0
 35 36  2  0
 37 36  1  0
 37 41  1  0
 38 37  2  0
 39 34  2  0
 39 38  1  0
 40 39  1  0
 42 43  1  0
 43 46  1  0
 43 45  1  0
 44 42  2  0
 47 48  1  0
 47 22  1  0
 49 47  1  0
 50 51  1  0
 50  2  1  0
 52 53  1  0
 52 51  1  0
 54 65  2  0
 55 53  1  0
 55 60  1  0
 56 64  1  0
 56 66  1  0
 57 63  1  0
 57 59  1  0
 58 64  1  0
 59 60  2  0
 59 58  1  0
 61 62  1  0
 61 55  2  0
 62 57  2  0
 63 56  1  0
 64 54  1  0
 66 68  2  0
 67 66  1  0
 69 67  1  0
 70 79  2  0
 70 75  1  0
 71 67  1  0
 71 75  1  0
 72 71  1  0
 73 74  1  0
 73 72  1  0
 74 70  1  0
 75 76  2  0
 76 77  1  0
 78 77  2  0
 79 78  1  0
 80 54  1  0
 80 81  1  0
 80 90  1  0
 81 84  1  0
 82 86  1  0
 82 81  1  0
 83 82  2  0
 86 85  1  0
 88 86  1  0
 88 89  1  0
 88 87  1  0
 90 93  1  1
 90 91  1  0
 92 90  1  0
M  ISO  4  12 100  20 100  52 101  53 101
M  END
>  <TORSDO>  (76) 
F 21

>  <SCORE>  (76) 
-13.832

>  <name>  (76) 
75

>  <ligand_id>  (76) 
75

>  <original_smiles>  (76) 
[H]c1c([H])c([H])c2c(c1[H])C([H])([H])C([H])([H])C([H])([H])C2([H])N([H])C(=O)C1([H])N(C(=O)C([H])(N([H])C(=O)C([H])(N([H])C([H])([H])[H])C([H])([H])[H])C(C([H])([H])[H])(C([H])([H])[H])C([H])([H])[H])C([H])([H])c2c([H])c(OC([H])([H])C([H])([H])C([H])([H])[N+]([H])(C([H])([H])[H])C([H])([H])c3c([H])c(N([H])C(=O)N4C([H])([H])C([H])([H])C([H])([H])C([H])(n5nc(-c6c([H])c([H])c(Oc7c([H])c([H])c(F)c([H])c7F)c([H])c6[H])c(C(=O)N([H])[H])c5N([H])[H])C4([H])[H])c([H])c([H])c3F)c([H])c([H])c2C1([H])[H]

>  <smiles>  (76) 
[H]c1c([H])c([H])c2c(c1[H])C([H])([H])C([H])([H])C([H])([H])C2([H])N([H])C(=O)C1([H])N(C(=O)C([H])(N([H])C(=O)C([H])(N([H])C([H])([H])[H])C([H])([H])[H])C(C([H])([H])[H])(C([H])([H])[H])C([H])([H])[H])C([H])([H])c2c([H])c(OC([H])([H])C([H])([H])C([H])([H])[N+]([H])(C([H])([H])[H])C([H])([H])c3c([H])c(N([H])C(=O)N4C([H])([H])C([H])([H])C([H])([H])C([H])(n5nc(-c6c([H])c([H])c(Oc7c([H])c([H])c(F)c([H])c7F)c([H])c6[H])c(C(=O)N([H])[H])c5N([H])[H])C4([H])[H])c([H])c([H])c3F)c([H])c([H])c2C1([H])[H]

$$$$
76:0:0
     RDKit          3D

 94102  0  0  1  0  0  0  0  0999 V2000
  -29.3380  -22.0150   19.5580 C   0  0  0  0  0  2  0  0  0  0  0  0
  -29.3860  -23.2640   18.7600 N   0  0  0  0  0  4  0  0  0  0  0  0
  -29.7210  -23.0570   17.8330 H   0  0  0  0  0  0  0  0  0  0  0  0
  -30.0390  -23.8970   19.1930 H   0  0  0  0  0  0  0  0  0  0  0  0
  -28.0610  -23.9230   18.6670 C   0  0  0  0  0  2  0  0  0  0  0  0
  -28.0490  -25.2670   17.9040 C   0  0  0  0  0  2  0  0  0  0  0  0
  -28.5990  -26.4810   18.6840 C   0  0  0  0  0  2  0  0  0  0  0  0
  -27.9720  -26.7100   19.9470 O   0  0  0  0  0  0  0  0  0  0  0  0
  -24.4620  -31.9390   23.2380 C   0  0  0  0  0  0  0  0  0  0  0  0
  -26.8350  -27.4820   19.9670 C   0  0  0  0  0  0  0  0  0  0  0  0
  -23.1370  -30.5910   21.6410 C   0  0  0  0  0  3  0  0  0  0  0  0
  -24.4760  -29.0270   20.1330 C   0  0  0  0  0  0  0  0  0  0  0  0
  -25.6580  -30.8810   21.3240 C   0  0  0  0  0  2  0  0  0  0  0  0
  -25.6730  -29.5160   20.6700 C   0  0  0  0  0  0  0  0  0  0  0  0
  -26.8540  -28.7450   20.5960 C   0  0  0  0  0  3  0  0  0  0  0  0
  -25.6200  -26.9920   19.4460 C   0  0  0  0  0  3  0  0  0  0  0  0
  -24.4420  -27.7590   19.5230 C   0  0  0  0  0  3  0  0  0  0  0  0
  -23.2580  -29.9160   20.2490 C   0  0  0  0  0  2  0  0  0  0  0  0
  -24.4410  -31.1500   22.1260 N   0  0  0  0  0  0  0  0  0  0  0  0
  -23.4170  -32.2390   23.8290 O   0  0  0  0  0  0  0  0  0  0  0  0
  -22.4990  -29.5830   22.6220 C   0  0  0  0  0  0  0  0  0  0  0  0
  -21.1790  -29.3770   22.4930 N   0  0  0  0  0  0  0  0  0  0  0  0
  -23.1900  -28.9860   23.4530 O   0  0  0  0  0  0  0  0  0  0  0  0
  -20.6820  -29.9090   21.7920 H   0  0  0  0  0  0  0  0  0  0  0  0
  -17.8440  -28.0560   22.9270 C   0  0  0  0  0  0  0  0  0  0  0  0
  -20.3750  -28.4420   23.2810 C   0  0  0  0  0  3  0  0  0  0  0  0
  -20.5620  -26.9910   22.7860 C   0  0  0  0  0  2  0  0  0  0  0  0
  -19.5170  -26.5670   21.7490 C   0  0  0  0  0  2  0  0  0  0  0  0
  -18.1060  -26.6830   22.3310 C   0  0  0  0  0  2  0  0  0  0  0  0
  -18.9100  -28.8880   23.3590 C   0  0  0  0  0  0  0  0  0  0  0  0
  -18.6150  -30.1700   23.8720 C   0  0  0  0  0  3  0  0  0  0  0  0
  -17.2840  -30.6210   23.9610 C   0  0  0  0  0  3  0  0  0  0  0  0
  -16.2320  -29.7870   23.5460 C   0  0  0  0  0  3  0  0  0  0  0  0
  -16.5120  -28.5080   23.0340 C   0  0  0  0  0  3  0  0  0  0  0  0
  -25.7950  -32.5220   23.8010 C   0  0  0  0  0  3  0  0  0  0  0  0
  -25.5490  -33.9260   24.1570 N   0  0  0  0  0  0  0  0  0  0  0  0
  -25.8860  -34.9730   23.3930 C   0  0  0  0  0  0  0  0  0  0  0  0
  -26.5100  -34.8580   22.3340 O   0  0  0  0  0  0  0  0  0  0  0  0
  -24.9990  -34.0930   24.9850 H   0  0  0  0  0  0  0  0  0  0  0  0
  -24.2010  -36.8210   23.1270 C   0  0  0  0  0  1  0  0  0  0  0  0
  -25.4640  -36.3730   23.8800 C   0  0  0  0  0  3  0  0  0  0  0  0
  -27.6620  -37.1800   24.6160 C   0  0  0  0  0  1  0  0  0  0  0  0
  -26.5230  -37.3940   23.7290 N   0  0  0  0  0  0  0  0  0  0  0  0
  -26.1550  -38.3260   23.8990 H   0  0  0  0  0  0  0  0  0  0  0  0
  -26.3510  -31.7200   25.0420 C   0  0  1  0  0  0  0  0  0  0  0  0
  -25.3000  -31.4870   26.1530 C   0  0  0  0  0  1  0  0  0  0  0  0
  -26.8900  -30.3390   24.6020 C   0  0  0  0  0  1  0  0  0  0  0  0
  -27.5460  -32.4810   25.6630 C   0  0  0  0  0  1  0  0  0  0  0  0
  -30.6880  -21.2710   19.6370 C   0  0  0  0  0  2  0  0  0  0  0  0
  -30.5850  -19.1270   22.8140 C   0  0  0  0  0  3  0  0  0  0  0  0
  -30.7010  -20.2280   21.9470 C   0  0  0  0  0  3  0  0  0  0  0  0
  -30.3850  -17.8370   22.2910 C   0  0  0  0  0  3  0  0  0  0  0  0
  -30.4330  -18.7430   20.0270 C   0  0  0  0  0  3  0  0  0  0  0  0
  -30.6120  -20.0480   20.5510 C   0  0  0  0  0  0  0  0  0  0  0  0
  -30.3130  -17.6310   20.8970 C   0  0  0  0  0  0  0  0  0  0  0  0
  -30.0420  -16.2250   20.3550 C   0  0  0  0  0  2  0  0  0  0  0  0
  -31.3020  -14.2490   19.7320 C   0  0  0  0  0  0  0  0  0  0  0  0
  -30.6230  -12.2280   18.4840 C   0  0  0  0  0  2  0  0  0  0  0  0
  -29.6020  -12.5740   17.3840 C   0  0  0  0  0  2  0  0  0  0  0  0
  -28.1690  -12.5530   17.9500 C   0  0  0  0  0  2  0  0  0  0  0  0
  -28.0330  -13.3680   19.2620 C   0  0  0  0  0  3  0  0  0  0  0  0
  -29.1580  -13.0040   20.2580 C   0  0  0  0  0  2  0  0  0  0  0  0
  -30.4550  -13.1920   19.5840 N   0  0  0  0  0  0  0  0  0  0  0  0
  -32.3390  -14.3670   19.0690 O   0  0  0  0  0  0  0  0  0  0  0  0
  -32.0500  -15.4690   21.6750 C   0  0  0  0  0  1  0  0  0  0  0  0
  -31.0040  -15.1500   20.6950 N   0  0  0  0  0  0  0  0  0  0  0  0
  -25.7820  -14.1720   20.2190 C   0  0  0  0  0  0  0  0  0  0  0  0
  -24.6780  -13.4910   20.6560 C   0  0  0  0  0  0  0  0  0  0  0  0
  -24.9930  -12.1040   20.5230 C   0  0  0  0  0  0  0  0  0  0  0  0
  -26.7070  -13.2050   19.8550 N   0  0  0  0  0  0  0  0  0  0  0  0
  -26.2380  -11.9530   20.0930 N   0  0  0  0  0  0  0  0  0  0  0  0
  -24.1590  -10.9110   20.7260 C   0  0  0  0  0  0  0  0  0  0  0  0
  -24.5460   -9.8840   21.6140 C   0  0  0  0  0  3  0  0  0  0  0  0
  -23.7190   -8.7560   21.8050 C   0  0  0  0  0  3  0  0  0  0  0  0
  -22.4900   -8.6500   21.1090 C   0  0  0  0  0  0  0  0  0  0  0  0
  -22.1210   -9.6650   20.2090 C   0  0  0  0  0  3  0  0  0  0  0  0
  -22.9470  -10.7850   20.0170 C   0  0  0  0  0  3  0  0  0  0  0  0
  -21.6340   -7.5810   21.2160 O   0  0  0  0  0  0  0  0  0  0  0  0
  -21.5440   -6.8430   22.3680 C   0  0  0  0  0  0  0  0  0  0  0  0
  -21.2210   -7.4350   23.6100 C   0  0  0  0  0  3  0  0  0  0  0  0
  -21.0700   -6.6290   24.7550 C   0  0  0  0  0  3  0  0  0  0  0  0
  -21.2330   -5.2330   24.6610 C   0  0  0  0  0  0  0  0  0  0  0  0
  -21.5490   -4.6420   23.4260 C   0  0  0  0  0  3  0  0  0  0  0  0
  -21.7010   -5.4450   22.2820 C   0  0  0  0  0  0  0  0  0  0  0  0
  -21.9850   -4.8690   21.0890 F   0  0  0  0  0  0  0  0  0  0  0  0
  -21.0800   -4.4580   25.7600 F   0  0  0  0  0  0  0  0  0  0  0  0
  -23.3680  -14.0890   21.0800 C   0  0  0  0  0  0  0  0  0  0  0  0
  -22.6650  -13.4380   22.0010 N   0  0  0  0  0  0  0  0  0  0  0  0
  -22.9820  -15.1670   20.6300 O   0  0  0  0  0  0  0  0  0  0  0  0
  -22.9900  -12.5650   22.3900 H   0  0  0  0  0  0  0  0  0  0  0  0
  -21.7880  -13.8220   22.3250 H   0  0  0  0  0  0  0  0  0  0  0  0
  -26.0650  -15.5280   20.0790 N   0  0  0  0  0  0  0  0  0  0  0  0
  -25.3690  -16.2380   20.2780 H   0  0  0  0  0  0  0  0  0  0  0  0
  -26.9080  -15.9040   19.6630 H   0  0  0  0  0  0  0  0  0  0  0  0
  1 49  1  0
  2  4  1  0
  2  1  1  0
  3  2  1  0
  5  2  1  0
  6  5  1  0
  6  7  1  0
  7  8  1  0
  8 10  1  0
  9 20  2  0
 10 15  1  0
 11 19  1  0
 11 21  1  0
 12 18  1  0
 12 14  1  0
 13 19  1  0
 14 13  1  0
 15 14  2  0
 16 17  1  0
 16 10  2  0
 17 12  2  0
 18 11  1  0
 19  9  1  0
 21 23  2  0
 22 21  1  0
 24 22  1  0
 25 34  2  0
 25 30  1  0
 26 22  1  0
 26 30  1  0
 27 26  1  0
 28 29  1  0
 28 27  1  0
 29 25  1  0
 30 31  2  0
 31 32  1  0
 33 32  2  0
 34 33  1  0
 35  9  1  0
 35 36  1  0
 35 45  1  0
 36 39  1  0
 37 41  1  0
 37 36  1  0
 38 37  2  0
 41 40  1  0
 43 41  1  0
 43 44  1  0
 43 42  1  0
 45 48  1  1
 45 46  1  0
 47 45  1  0
 49 54  1  0
 51 50  2  0
 52 50  1  0
 53 54  2  0
 53 55  1  0
 54 51  1  0
 55 52  2  0
 56 66  1  0
 56 55  1  0
 57 66  1  0
 58 63  1  0
 59 60  1  0
 59 58  1  0
 61 60  1  0
 61 70  1  0
 61 62  1  0
 63 57  1  0
 63 62  1  0
 64 57  2  0
 66 65  1  0
 67 68  2  0
 68 87  1  0
 69 68  1  0
 69 72  1  0
 70 71  1  0
 70 67  1  0
 71 69  2  0
 72 73  1  0
 73 74  2  0
 75 78  1  0
 75 74  1  0
 76 75  2  0
 77 76  1  0
 77 72  2  0
 78 79  1  0
 79 80  1  0
 80 81  2  0
 82 81  1  0
 82 86  1  0
 83 82  2  0
 84 79  2  0
 84 83  1  0
 85 84  1  0
 87 88  1  0
 88 91  1  0
 88 90  1  0
 89 87  2  0
 92 67  1  0
 92 93  1  0
 94 92  1  0
M  ISO  4   7 101   8 101  57 100  66 100
M  END
>  <TORSDO>  (77) 
F 23

>  <SCORE>  (77) 
-10.536

>  <name>  (77) 
76

>  <ligand_id>  (77) 
76

>  <original_smiles>  (77) 
[H]c1c([H])c([H])c2c(c1[H])C([H])([H])C([H])([H])C([H])([H])C2([H])N([H])C(=O)C1([H])N(C(=O)C([H])(N([H])C(=O)C([H])(N([H])C([H])([H])[H])C([H])([H])[H])C(C([H])([H])[H])(C([H])([H])[H])C([H])([H])[H])C([H])([H])c2c([H])c(OC([H])([H])C([H])([H])C([H])([H])[N+]([H])([H])C([H])([H])C([H])([H])c3c([H])c([H])c([H])c(C([H])([H])N(C(=O)N4C([H])([H])C([H])([H])C([H])([H])C([H])(n5nc(-c6c([H])c([H])c(Oc7c([H])c([H])c(F)c([H])c7F)c([H])c6[H])c(C(=O)N([H])[H])c5N([H])[H])C4([H])[H])C([H])([H])[H])c3[H])c([H])c([H])c2C1([H])[H]

>  <smiles>  (77) 
[H]c1c([H])c([H])c2c(c1[H])C([H])([H])C([H])([H])C([H])([H])C2([H])N([H])C(=O)C1([H])N(C(=O)C([H])(N([H])C(=O)C([H])(N([H])C([H])([H])[H])C([H])([H])[H])C(C([H])([H])[H])(C([H])([H])[H])C([H])([H])[H])C([H])([H])c2c([H])c(OC([H])([H])C([H])([H])C([H])([H])[N+]([H])([H])C([H])([H])C([H])([H])c3c([H])c([H])c([H])c(C([H])([H])N(C(=O)N4C([H])([H])C([H])([H])C([H])([H])C([H])(n5nc(-c6c([H])c([H])c(Oc7c([H])c([H])c(F)c([H])c7F)c([H])c6[H])c(C(=O)N([H])[H])c5N([H])[H])C4([H])[H])C([H])([H])[H])c3[H])c([H])c([H])c2C1([H])[H]

$$$$
77:0:0
     RDKit          3D

102111  0  0  1  0  0  0  0  0999 V2000
  -29.8070  -19.9670   19.2250 C   0  0  0  0  0  0  0  0  0  0  0  0
  -28.2480  -20.6120   17.5340 C   0  0  0  0  0  2  0  0  0  0  0  0
  -28.7530  -19.1800   17.3100 C   0  0  0  0  0  2  0  0  0  0  0  0
  -29.2530  -21.2160   18.5270 C   0  0  0  0  0  3  0  0  0  0  0  0
  -29.4980  -18.8670   18.5230 N   0  0  0  0  0  0  0  0  0  0  0  0
  -30.4430  -19.9990   20.2820 O   0  0  0  0  0  0  0  0  0  0  0  0
  -28.2270  -21.8490   20.7500 C   0  0  0  0  0  1  0  0  0  0  0  0
  -28.6640  -22.2870   19.3950 N   0  0  1  0  0  4  0  0  0  0  0  0
  -27.8160  -22.5430   18.9140 H   0  0  0  0  0  0  0  0  0  0  0  0
  -29.4850  -23.5340   19.3960 C   0  0  0  0  0  2  0  0  0  0  0  0
  -28.7970  -24.7530   20.0500 C   0  0  0  0  0  2  0  0  0  0  0  0
  -29.3440  -26.0910   19.5100 C   0  0  0  0  0  2  0  0  0  0  0  0
  -29.0240  -27.1970   20.3520 O   0  0  0  0  0  0  0  0  0  0  0  0
  -24.7070  -31.9920   23.2950 C   0  0  0  0  0  0  0  0  0  0  0  0
  -27.7980  -27.8220   20.2550 C   0  0  0  0  0  0  0  0  0  0  0  0
  -23.7130  -30.6440   21.4730 C   0  0  0  0  0  3  0  0  0  0  0  0
  -25.3470  -29.2300   20.1220 C   0  0  0  0  0  0  0  0  0  0  0  0
  -26.2280  -31.0930   21.5380 C   0  0  0  0  0  2  0  0  0  0  0  0
  -26.4210  -29.7600   20.8470 C   0  0  0  0  0  0  0  0  0  0  0  0
  -27.6410  -29.0570   20.9210 C   0  0  0  0  0  3  0  0  0  0  0  0
  -26.7050  -27.3010   19.5240 C   0  0  0  0  0  3  0  0  0  0  0  0
  -25.4820  -27.9960   19.4640 C   0  0  0  0  0  3  0  0  0  0  0  0
  -24.0750  -30.0450   20.0880 C   0  0  0  0  0  2  0  0  0  0  0  0
  -24.8950  -31.2550   22.1630 N   0  0  0  0  0  0  0  0  0  0  0  0
  -23.5710  -32.2020   23.7400 O   0  0  0  0  0  0  0  0  0  0  0  0
  -23.0110  -29.5530   22.3130 C   0  0  0  0  0  0  0  0  0  0  0  0
  -21.6910  -29.4050   22.1190 N   0  0  0  0  0  0  0  0  0  0  0  0
  -23.6540  -28.8470   23.0950 O   0  0  0  0  0  0  0  0  0  0  0  0
  -21.2360  -30.0290   21.4670 H   0  0  0  0  0  0  0  0  0  0  0  0
  -18.2530  -28.4000   22.5840 C   0  0  0  0  0  0  0  0  0  0  0  0
  -20.8310  -28.4190   22.7700 C   0  0  0  0  0  3  0  0  0  0  0  0
  -20.7960  -27.0950   21.9700 C   0  0  0  0  0  2  0  0  0  0  0  0
  -19.6350  -27.0240   20.9730 C   0  0  0  0  0  2  0  0  0  0  0  0
  -18.2950  -27.1670   21.6970 C   0  0  0  0  0  2  0  0  0  0  0  0
  -19.4450  -28.9960   23.0760 C   0  0  0  0  0  0  0  0  0  0  0  0
  -19.3520  -30.1620   23.8670 C   0  0  0  0  0  3  0  0  0  0  0  0
  -18.0990  -30.7280   24.1700 C   0  0  0  0  0  3  0  0  0  0  0  0
  -16.9220  -30.1240   23.6940 C   0  0  0  0  0  3  0  0  0  0  0  0
  -17.0000  -28.9610   22.9080 C   0  0  0  0  0  3  0  0  0  0  0  0
  -25.9070  -32.6260   24.0660 C   0  0  0  0  0  3  0  0  0  0  0  0
  -26.3160  -31.8140   25.3560 C   0  0  1  0  0  0  0  0  0  0  0  0
  -25.1220  -31.4490   26.2670 C   0  0  0  0  0  1  0  0  0  0  0  0
  -27.0320  -30.4990   24.9660 C   0  0  0  0  0  1  0  0  0  0  0  0
  -27.3270  -32.6330   26.1940 C   0  0  0  0  0  1  0  0  0  0  0  0
  -25.5300  -34.0020   24.4150 N   0  0  0  0  0  0  0  0  0  0  0  0
  -25.9210  -35.0910   23.7390 C   0  0  0  0  0  0  0  0  0  0  0  0
  -26.7050  -35.0450   22.7880 O   0  0  0  0  0  0  0  0  0  0  0  0
  -24.8450  -34.1110   25.1490 H   0  0  0  0  0  0  0  0  0  0  0  0
  -24.1880  -36.8510   23.2670 C   0  0  0  0  0  1  0  0  0  0  0  0
  -25.3490  -36.4490   24.1900 C   0  0  0  0  0  3  0  0  0  0  0  0
  -27.3620  -37.3520   25.2680 C   0  0  0  0  0  1  0  0  0  0  0  0
  -26.3570  -37.5310   24.2230 N   0  0  0  0  0  0  0  0  0  0  0  0
  -25.9120  -38.4330   24.3610 H   0  0  0  0  0  0  0  0  0  0  0  0
  -29.8080  -17.4780   18.8780 C   0  0  0  0  0  2  0  0  0  0  0  0
  -26.6020  -15.3530   20.9700 C   0  0  0  0  0  3  0  0  0  0  0  0
  -27.9160  -14.8570   21.0110 C   0  0  0  0  0  3  0  0  0  0  0  0
  -27.3560  -17.1890   19.5710 C   0  0  0  0  0  3  0  0  0  0  0  0
  -26.3090  -16.5170   20.2350 C   0  0  0  0  0  0  0  0  0  0  0  0
  -28.6870  -16.7000   19.5860 C   0  0  0  0  0  0  0  0  0  0  0  0
  -28.9560  -15.4920   20.2940 C   0  0  0  0  0  0  0  0  0  0  0  0
  -30.6300  -13.7080   19.8620 C   0  0  0  0  0  0  0  0  0  0  0  0
  -30.5370  -11.2410   19.9740 C   0  0  0  0  0  2  0  0  0  0  0  0
  -29.7660  -10.6110   18.7990 C   0  0  0  0  0  2  0  0  0  0  0  0
  -28.2580  -10.5470   19.1040 C   0  0  0  0  0  2  0  0  0  0  0  0
  -27.7050  -11.9000   19.6210 C   0  0  0  0  0  3  0  0  0  0  0  0
  -28.5960  -12.4360   20.7610 C   0  0  0  0  0  2  0  0  0  0  0  0
  -29.9740  -12.5750   20.2560 N   0  0  0  0  0  0  0  0  0  0  0  0
  -31.6570  -13.6510   19.1750 O   0  0  0  0  0  0  0  0  0  0  0  0
  -31.3240  -15.8360   20.7680 C   0  0  0  0  0  1  0  0  0  0  0  0
  -30.2530  -14.9050   20.3920 N   0  0  0  0  0  0  0  0  0  0  0  0
  -25.3000  -12.7310   20.0200 C   0  0  0  0  0  0  0  0  0  0  0  0
  -24.1700  -12.0890   20.4500 C   0  0  0  0  0  0  0  0  0  0  0  0
  -24.5570  -10.7380   20.7020 C   0  0  0  0  0  0  0  0  0  0  0  0
  -26.3090  -11.7810   20.0370 N   0  0  0  0  0  0  0  0  0  0  0  0
  -25.8600  -10.5850   20.4980 N   0  0  0  0  0  0  0  0  0  0  0  0
  -23.7520   -9.5670   21.0730 C   0  0  0  0  0  0  0  0  0  0  0  0
  -24.2330   -8.5990   21.9810 C   0  0  0  0  0  3  0  0  0  0  0  0
  -23.4350   -7.4900   22.3340 C   0  0  0  0  0  3  0  0  0  0  0  0
  -22.1390   -7.3440   21.7820 C   0  0  0  0  0  0  0  0  0  0  0  0
  -21.6750   -8.3000   20.8620 C   0  0  0  0  0  3  0  0  0  0  0  0
  -22.4740   -9.3990   20.5070 C   0  0  0  0  0  3  0  0  0  0  0  0
  -21.3020   -6.2880   22.0480 O   0  0  0  0  0  0  0  0  0  0  0  0
  -21.4680   -5.5010   23.1590 C   0  0  0  0  0  0  0  0  0  0  0  0
  -21.1430   -5.9600   24.4540 C   0  0  0  0  0  3  0  0  0  0  0  0
  -21.2630   -5.0940   25.5590 C   0  0  0  0  0  3  0  0  0  0  0  0
  -21.6980   -3.7690   25.3720 C   0  0  0  0  0  0  0  0  0  0  0  0
  -22.0180   -3.3080   24.0820 C   0  0  0  0  0  3  0  0  0  0  0  0
  -21.9000   -4.1700   22.9790 C   0  0  0  0  0  0  0  0  0  0  0  0
  -22.1890   -3.7150   21.7370 F   0  0  0  0  0  0  0  0  0  0  0  0
  -21.8060   -2.9340   26.4330 F   0  0  0  0  0  0  0  0  0  0  0  0
  -22.7870  -12.6700   20.5300 C   0  0  0  0  0  0  0  0  0  0  0  0
  -21.9930  -12.2250   21.4970 N   0  0  0  0  0  0  0  0  0  0  0  0
  -22.4200  -13.5580   19.7620 O   0  0  0  0  0  0  0  0  0  0  0  0
  -22.3000  -11.5120   22.1400 H   0  0  0  0  0  0  0  0  0  0  0  0
  -21.0620  -12.6060   21.5960 H   0  0  0  0  0  0  0  0  0  0  0  0
  -25.5490  -14.0320   19.6000 N   0  0  0  0  0  0  0  0  0  0  0  0
  -24.8150  -14.7260   19.5320 H   0  0  0  0  0  0  0  0  0  0  0  0
  -26.4500  -14.3630   19.2880 H   0  0  0  0  0  0  0  0  0  0  0  0
  -24.8830  -17.0480   20.1870 C   0  0  1  0  0  0  0  0  0  0  0  0
  -24.0190  -16.0500   19.9980 F   0  0  0  0  0  0  0  0  0  0  0  0
  -24.5950  -17.6460   21.3430 F   0  0  0  0  0  0  0  0  0  0  0  0
  -24.7230  -17.9320   19.2010 F   0  0  0  0  0  0  0  0  0  0  0  0
  1  6  2  0
  2  4  1  0
  3  2  1  0
  3  5  1  0
  4  1  1  0
  4  8  1  0
  5 54  1  0
  5  1  1  0
  8 10  1  0
  8  7  1  0
  8  9  1  6
 10 11  1  0
 12 11  1  0
 12 13  1  0
 14 25  2  0
 15 13  1  0
 15 20  1  0
 16 24  1  0
 16 26  1  0
 17 19  1  0
 18 24  1  0
 19 20  2  0
 19 18  1  0
 21 15  2  0
 22 21  1  0
 22 17  2  0
 23 17  1  0
 23 16  1  0
 24 14  1  0
 26 28  2  0
 27 26  1  0
 29 27  1  0
 30 39  2  0
 30 35  1  0
 31 27  1  0
 31 35  1  0
 32 31  1  0
 33 34  1  0
 33 32  1  0
 34 30  1  0
 35 36  2  0
 36 37  1  0
 38 37  2  0
 39 38  1  0
 40 14  1  0
 40 45  1  0
 40 41  1  0
 41 44  1  1
 41 42  1  0
 43 41  1  0
 45 48  1  0
 46 50  1  0
 46 45  1  0
 47 46  2  0
 50 49  1  0
 50 52  1  0
 52 53  1  0
 52 51  1  0
 54 59  1  0
 55 56  1  0
 57 59  2  0
 57 58  1  0
 58 55  2  0
 59 60  1  0
 60 70  1  0
 60 56  2  0
 61 67  1  0
 61 70  1  0
 62 67  1  0
 63 64  1  0
 63 62  1  0
 65 64  1  0
 65 74  1  0
 65 66  1  0
 67 66  1  0
 68 61  2  0
 70 69  1  0
 71 74  1  0
 71 72  2  0
 72 91  1  0
 72 73  1  0
 73 76  1  0
 74 75  1  0
 75 73  2  0
 76 77  1  0
 77 78  2  0
 79 82  1  0
 79 78  1  0
 80 79  2  0
 81 80  1  0
 81 76  2  0
 82 83  1  0
 83 84  1  0
 84 85  2  0
 86 85  1  0
 86 90  1  0
 87 86  2  0
 88 83  2  0
 88 87  1  0
 89 88  1  0
 91 92  1  0
 92 95  1  0
 92 94  1  0
 93 91  2  0
 96 71  1  0
 97 96  1  0
 98 96  1  0
 99 58  1  0
 99101  1  1
100 99  1  0
102 99  1  0
M  ISO  4  12 101  13 101  61 100  70 100
M  END
>  <TORSDO>  (78) 
F 23

>  <SCORE>  (78) 
-8.664

>  <name>  (78) 
77

>  <ligand_id>  (78) 
77

>  <original_smiles>  (78) 
[H]c1c([H])c([H])c2c(c1[H])C([H])([H])C([H])([H])C([H])([H])C2([H])N([H])C(=O)C1([H])N(C(=O)C([H])(N([H])C(=O)C([H])(N([H])C([H])([H])[H])C([H])([H])[H])C(C([H])([H])[H])(C([H])([H])[H])C([H])([H])[H])C([H])([H])c2c([H])c(OC([H])([H])C([H])([H])C([H])([H])[N+]([H])(C([H])([H])[H])C3([H])C(=O)N(C([H])([H])c4c([H])c(C(F)(F)F)c([H])c([H])c4N(C(=O)N4C([H])([H])C([H])([H])C([H])([H])C([H])(n5nc(-c6c([H])c([H])c(Oc7c([H])c([H])c(F)c([H])c7F)c([H])c6[H])c(C(=O)N([H])[H])c5N([H])[H])C4([H])[H])C([H])([H])[H])C([H])([H])C3([H])[H])c([H])c([H])c2C1([H])[H]

>  <smiles>  (78) 
[H]c1c([H])c([H])c2c(c1[H])C([H])([H])C([H])([H])C([H])([H])C2([H])N([H])C(=O)C1([H])N(C(=O)C([H])(N([H])C(=O)C([H])(N([H])C([H])([H])[H])C([H])([H])[H])C(C([H])([H])[H])(C([H])([H])[H])C([H])([H])[H])C([H])([H])c2c([H])c(OC([H])([H])C([H])([H])C([H])([H])[N+]([H])(C([H])([H])[H])C3([H])C(=O)N(C([H])([H])c4c([H])c(C(F)(F)F)c([H])c([H])c4N(C(=O)N4C([H])([H])C([H])([H])C([H])([H])C([H])(n5nc(-c6c([H])c([H])c(Oc7c([H])c([H])c(F)c([H])c7F)c([H])c6[H])c(C(=O)N([H])[H])c5N([H])[H])C4([H])[H])C([H])([H])[H])C([H])([H])C3([H])[H])c([H])c([H])c2C1([H])[H]

$$$$
78:0:0
     RDKit          3D

 98107  0  0  1  0  0  0  0  0999 V2000
  -30.4930  -19.2760   18.8590 C   0  0  0  0  0  3  0  0  0  0  0  0
  -30.7710  -17.8700   18.9500 C   0  0  0  0  0  3  0  0  0  0  0  0
  -30.1320  -17.9150   21.2550 C   0  0  0  0  0  3  0  0  0  0  0  0
  -29.8820  -19.3270   21.1960 C   0  0  0  0  0  0  0  0  0  0  0  0
  -30.0680  -20.0600   19.9740 C   0  0  0  0  0  0  0  0  0  0  0  0
  -30.6230  -17.1480   20.1670 C   0  0  0  0  0  0  0  0  0  0  0  0
  -31.4910  -14.8240   19.4840 C   0  0  0  0  0  0  0  0  0  0  0  0
  -30.9220  -12.7170   18.2650 C   0  0  0  0  0  2  0  0  0  0  0  0
  -29.7710  -12.9770   17.2700 C   0  0  0  0  0  2  0  0  0  0  0  0
  -28.4040  -12.8170   17.9610 C   0  0  0  0  0  2  0  0  0  0  0  0
  -28.3210  -13.6050   19.2900 C   0  0  0  0  0  3  0  0  0  0  0  0
  -29.5530  -13.3350   20.1710 C   0  0  0  0  0  2  0  0  0  0  0  0
  -30.7560  -13.6660   19.3910 N   0  0  0  0  0  0  0  0  0  0  0  0
  -32.4990  -14.9800   18.7900 O   0  0  0  0  0  0  0  0  0  0  0  0
  -31.1210  -15.7760   20.4180 N   0  0  0  0  0  0  0  0  0  0  0  0
  -26.2430  -14.2050   20.6730 C   0  0  0  0  0  0  0  0  0  0  0  0
  -25.1800  -13.4530   21.1010 C   0  0  0  0  0  0  0  0  0  0  0  0
  -25.4360  -12.1200   20.6610 C   0  0  0  0  0  0  0  0  0  0  0  0
  -27.0800  -13.3260   20.0030 N   0  0  0  0  0  0  0  0  0  0  0  0
  -26.6150  -12.0540   20.0550 N   0  0  0  0  0  0  0  0  0  0  0  0
  -24.5990  -10.9150   20.7200 C   0  0  0  0  0  0  0  0  0  0  0  0
  -25.0130   -9.7610   21.4180 C   0  0  0  0  0  3  0  0  0  0  0  0
  -24.1740   -8.6300   21.4910 C   0  0  0  0  0  3  0  0  0  0  0  0
  -22.9110   -8.6410   20.8510 C   0  0  0  0  0  0  0  0  0  0  0  0
  -22.5150   -9.7840   20.1360 C   0  0  0  0  0  3  0  0  0  0  0  0
  -23.3530  -10.9100   20.0670 C   0  0  0  0  0  3  0  0  0  0  0  0
  -22.0460   -7.5720   20.8390 O   0  0  0  0  0  0  0  0  0  0  0  0
  -21.9280   -6.7310   21.9160 C   0  0  0  0  0  0  0  0  0  0  0  0
  -21.5850   -7.2060   23.2010 C   0  0  0  0  0  3  0  0  0  0  0  0
  -21.3950   -6.2970   24.2610 C   0  0  0  0  0  3  0  0  0  0  0  0
  -21.5530   -4.9140   24.0390 C   0  0  0  0  0  0  0  0  0  0  0  0
  -21.8930   -4.4390   22.7630 C   0  0  0  0  0  3  0  0  0  0  0  0
  -22.0780   -5.3450   21.7030 C   0  0  0  0  0  0  0  0  0  0  0  0
  -22.3870   -4.8810   20.4670 F   0  0  0  0  0  0  0  0  0  0  0  0
  -21.3670   -4.0410   25.0560 F   0  0  0  0  0  0  0  0  0  0  0  0
  -23.9480  -13.9650   21.7840 C   0  0  0  0  0  0  0  0  0  0  0  0
  -23.3280  -13.1440   22.6280 N   0  0  0  0  0  0  0  0  0  0  0  0
  -23.5500  -15.1150   21.6060 O   0  0  0  0  0  0  0  0  0  0  0  0
  -23.6580  -12.2060   22.7890 H   0  0  0  0  0  0  0  0  0  0  0  0
  -22.5080  -13.4620   23.1200 H   0  0  0  0  0  0  0  0  0  0  0  0
  -26.5500  -15.5570   20.7850 N   0  0  0  0  0  0  0  0  0  0  0  0
  -25.8950  -16.2080   21.2040 H   0  0  0  0  0  0  0  0  0  0  0  0
  -27.3580  -16.0130   20.3820 H   0  0  0  0  0  0  0  0  0  0  0  0
  -31.1990  -14.7750   22.7470 C   0  0  0  0  0  1  0  0  0  0  0  0
  -31.8720  -15.6630   21.6860 C   0  0  0  0  0  2  0  0  0  0  0  0
  -30.5130  -22.6030   20.1000 C   0  0  0  0  0  0  0  0  0  0  0  0
  -28.5120  -23.4970   19.1360 C   0  0  0  0  0  3  0  0  0  0  0  0
  -28.4700  -21.9420   19.2460 C   0  0  0  0  0  3  0  0  0  0  0  0
  -29.9250  -23.9620   19.5550 C   0  0  0  0  0  3  0  0  0  0  0  0
  -29.7480  -21.5000   19.8150 N   0  0  0  0  0  0  0  0  0  0  0  0
  -31.5820  -22.5630   20.7160 O   0  0  0  0  0  0  0  0  0  0  0  0
  -30.0140  -25.2940   20.4730 C   0  0  0  0  0  2  0  0  0  0  0  0
  -29.9760  -26.6900   19.9230 O   0  0  0  0  0  0  0  0  0  0  0  0
  -25.2790  -31.0930   23.2770 C   0  0  0  0  0  0  0  0  0  0  0  0
  -28.7450  -27.3660   19.9390 C   0  0  0  0  0  0  0  0  0  0  0  0
  -24.3990  -29.6520   21.4770 C   0  0  0  0  0  3  0  0  0  0  0  0
  -26.1370  -28.5370   19.9750 C   0  0  0  0  0  0  0  0  0  0  0  0
  -26.8390  -30.4460   21.4170 C   0  0  0  0  0  2  0  0  0  0  0  0
  -27.1850  -29.1690   20.6590 C   0  0  0  0  0  0  0  0  0  0  0  0
  -28.4950  -28.5970   20.6280 C   0  0  0  0  0  3  0  0  0  0  0  0
  -27.6730  -26.7990   19.2270 C   0  0  0  0  0  3  0  0  0  0  0  0
  -26.3830  -27.3620   19.2480 C   0  0  0  0  0  3  0  0  0  0  0  0
  -24.7580  -29.1610   20.0510 C   0  0  0  0  0  2  0  0  0  0  0  0
  -25.5200  -30.4140   22.1150 N   0  0  0  0  0  0  0  0  0  0  0  0
  -24.1520  -31.1150   23.7940 O   0  0  0  0  0  0  0  0  0  0  0  0
  -23.9230  -28.4430   22.3210 C   0  0  0  0  0  0  0  0  0  0  0  0
  -22.7260  -27.9150   22.0090 N   0  0  0  0  0  0  0  0  0  0  0  0
  -24.6340  -27.9840   23.2180 O   0  0  0  0  0  0  0  0  0  0  0  0
  -22.2000  -28.3550   21.2670 H   0  0  0  0  0  0  0  0  0  0  0  0
  -19.8600  -25.7140   21.8900 C   0  0  0  0  0  0  0  0  0  0  0  0
  -22.1050  -26.7520   22.6440 C   0  0  0  0  0  3  0  0  0  0  0  0
  -22.7580  -25.4360   22.1580 C   0  0  0  0  0  2  0  0  0  0  0  0
  -22.0310  -24.8100   20.9630 C   0  0  0  0  0  2  0  0  0  0  0  0
  -20.5730  -24.5010   21.3150 C   0  0  0  0  0  2  0  0  0  0  0  0
  -20.5790  -26.7770   22.4990 C   0  0  0  0  0  0  0  0  0  0  0  0
  -19.8640  -27.8930   22.9850 C   0  0  0  0  0  3  0  0  0  0  0  0
  -18.4620  -27.9560   22.8770 C   0  0  0  0  0  3  0  0  0  0  0  0
  -17.7550  -26.8940   22.2870 C   0  0  0  0  0  3  0  0  0  0  0  0
  -18.4530  -25.7760   21.7960 C   0  0  0  0  0  3  0  0  0  0  0  0
  -26.4050  -31.8910   24.0010 C   0  0  0  0  0  3  0  0  0  0  0  0
  -25.8690  -33.2180   24.3320 N   0  0  0  0  0  0  0  0  0  0  0  0
  -26.0830  -34.3290   23.6110 C   0  0  0  0  0  0  0  0  0  0  0  0
  -26.8280  -34.3500   22.6270 O   0  0  0  0  0  0  0  0  0  0  0  0
  -25.2150  -33.2590   25.0970 H   0  0  0  0  0  0  0  0  0  0  0  0
  -24.1310  -35.8520   23.1630 C   0  0  0  0  0  1  0  0  0  0  0  0
  -25.3640  -35.6170   24.0530 C   0  0  0  0  0  3  0  0  0  0  0  0
  -27.2770  -36.7950   25.0420 C   0  0  0  0  0  1  0  0  0  0  0  0
  -26.2330  -36.8160   24.0240 N   0  0  0  0  0  0  0  0  0  0  0  0
  -25.6820  -37.6630   24.1470 H   0  0  0  0  0  0  0  0  0  0  0  0
  -26.9360  -31.1740   25.3040 C   0  0  1  0  0  0  0  0  0  0  0  0
  -25.8150  -30.7550   26.2860 C   0  0  0  0  0  1  0  0  0  0  0  0
  -27.7460  -29.9080   24.9420 C   0  0  0  0  0  1  0  0  0  0  0  0
  -27.9080  -32.1140   26.0560 C   0  0  0  0  0  1  0  0  0  0  0  0
  -29.4440  -20.0060   22.4990 C   0  0  0  0  0  2  0  0  0  0  0  0
  -31.6500  -21.1310   22.8260 C   0  0  0  0  0  1  0  0  0  0  0  0
  -30.1100  -20.8810   24.7090 C   0  0  0  0  0  1  0  0  0  0  0  0
  -30.5720  -20.3110   23.4230 N   0  0  1  0  0  4  0  0  0  0  0  0
  -30.9870  -19.4230   23.6670 H   0  0  0  0  0  0  0  0  0  0  0  0
  1  2  2  0
  1  5  1  0
  2  6  1  0
  4  3  1  0
  4 94  1  0
  5  4  2  0
  6 15  1  0
  6  3  2  0
  7 15  1  0
  8 13  1  0
  9 10  1  0
  9  8  1  0
 11 10  1  0
 11 19  1  0
 11 12  1  0
 13  7  1  0
 13 12  1  0
 14  7  2  0
 15 45  1  0
 16 41  1  0
 16 17  2  0
 17 36  1  0
 18 21  1  0
 18 17  1  0
 19 20  1  0
 19 16  1  0
 20 18  2  0
 21 22  1  0
 22 23  2  0
 24 23  1  0
 25 24  2  0
 26 25  1  0
 26 21  2  0
 27 24  1  0
 27 28  1  0
 28 29  1  0
 29 30  2  0
 31 30  1  0
 31 35  1  0
 32 31  2  0
 33 28  2  0
 33 32  1  0
 34 33  1  0
 36 37  1  0
 37 39  1  0
 37 40  1  0
 38 36  2  0
 41 42  1  0
 43 41  1  0
 45 44  1  0
 46 51  2  0
 47 48  2  0
 47 49  1  0
 48 50  1  0
 49 46  1  0
 49 52  1  0
 50  5  1  0
 50 46  1  0
 53 55  1  0
 53 52  1  0
 54 65  2  0
 55 60  1  0
 56 64  1  0
 56 66  1  0
 57 63  1  0
 57 59  1  0
 58 64  1  0
 59 58  1  0
 60 59  2  0
 61 62  1  0
 61 55  2  0
 62 57  2  0
 63 56  1  0
 64 54  1  0
 66 68  2  0
 67 66  1  0
 69 67  1  0
 70 75  1  0
 71 67  1  0
 72 71  1  0
 73 74  1  0
 73 72  1  0
 74 70  1  0
 75 71  1  0
 75 76  2  0
 77 76  1  0
 78 77  2  0
 79 70  2  0
 79 78  1  0
 80 54  1  0
 80 81  1  0
 80 90  1  0
 81 84  1  0
 82 86  1  0
 82 81  1  0
 83 82  2  0
 86 85  1  0
 88 86  1  0
 88 89  1  0
 88 87  1  0
 90 93  1  1
 90 91  1  0
 92 90  1  0
 94 97  1  0
 95 97  1  0
 97 98  1  1
 97 96  1  0
M  ISO  4   7 100  15 100  52 101  53 101
M  END
>  <TORSDO>  (79) 
F 21

>  <SCORE>  (79) 
-4.824

>  <name>  (79) 
78

>  <ligand_id>  (79) 
78

>  <original_smiles>  (79) 
[H]c1c([H])c([H])c2c(c1[H])C([H])([H])C([H])([H])C([H])([H])C2([H])N([H])C(=O)C1([H])N(C(=O)C([H])(N([H])C(=O)C([H])(N([H])C([H])([H])[H])C([H])([H])[H])C(C([H])([H])[H])(C([H])([H])[H])C([H])([H])[H])C([H])([H])c2c([H])c(OC([H])([H])C3([H])C(=O)N(c4c([H])c([H])c(N(C(=O)N5C([H])([H])C([H])([H])C([H])([H])C([H])(n6nc(-c7c([H])c([H])c(Oc8c([H])c([H])c(F)c([H])c8F)c([H])c7[H])c(C(=O)N([H])[H])c6N([H])[H])C5([H])[H])C([H])([H])C([H])([H])[H])c([H])c4C([H])([H])[N+]([H])(C([H])([H])[H])C([H])([H])[H])C([H])([H])C3([H])[H])c([H])c([H])c2C1([H])[H]

>  <smiles>  (79) 
[H]c1c([H])c([H])c2c(c1[H])C([H])([H])C([H])([H])C([H])([H])C2([H])N([H])C(=O)C1([H])N(C(=O)C([H])(N([H])C(=O)C([H])(N([H])C([H])([H])[H])C([H])([H])[H])C(C([H])([H])[H])(C([H])([H])[H])C([H])([H])[H])C([H])([H])c2c([H])c(OC([H])([H])C3([H])C(=O)N(c4c([H])c([H])c(N(C(=O)N5C([H])([H])C([H])([H])C([H])([H])C([H])(n6nc(-c7c([H])c([H])c(Oc8c([H])c([H])c(F)c([H])c8F)c([H])c7[H])c(C(=O)N([H])[H])c6N([H])[H])C5([H])[H])C([H])([H])C([H])([H])[H])c([H])c4C([H])([H])[N+]([H])(C([H])([H])[H])C([H])([H])[H])C([H])([H])C3([H])[H])c([H])c([H])c2C1([H])[H]

$$$$
79:0:0
     RDKit          3D

 92101  0  0  1  0  0  0  0  0999 V2000
  -27.1210  -23.4570   20.6500 C   0  0  0  0  0  2  0  0  0  0  0  0
  -27.3220  -22.0040   21.1290 C   0  0  0  0  0  2  0  0  0  0  0  0
  -29.4020  -22.7940   20.2630 C   0  0  0  0  0  2  0  0  0  0  0  0
  -28.5240  -24.0700   20.5900 C   0  0  0  0  0  3  0  0  0  0  0  0
  -28.6620  -21.5850   20.7070 N   0  0  0  0  0  0  0  0  0  0  0  0
  -28.1120  -19.1450   20.7460 C   0  0  0  0  0  3  0  0  0  0  0  0
  -28.4600  -17.7670   20.6640 C   0  0  0  0  0  3  0  0  0  0  0  0
  -30.4270  -19.7380   20.6440 C   0  0  0  0  0  3  0  0  0  0  0  0
  -29.0750  -20.1920   20.7010 C   0  0  0  0  0  0  0  0  0  0  0  0
  -29.7990  -17.3110   20.5600 C   0  0  0  0  0  0  0  0  0  0  0  0
  -30.7840  -18.3450   20.5820 C   0  0  0  0  0  0  0  0  0  0  0  0
  -32.0930  -18.0170   20.4660 F   0  0  0  0  0  0  0  0  0  0  0  0
  -30.8020  -14.9040   20.6410 C   0  0  0  0  0  0  0  0  0  0  0  0
  -30.7190  -12.5630   19.7870 C   0  0  0  0  0  2  0  0  0  0  0  0
  -29.8550  -12.4940   18.5080 C   0  0  0  0  0  2  0  0  0  0  0  0
  -28.3540  -12.3820   18.8490 C   0  0  0  0  0  2  0  0  0  0  0  0
  -27.8880  -13.3230   19.9940 C   0  0  0  0  0  3  0  0  0  0  0  0
  -28.8850  -13.3290   21.1720 C   0  0  0  0  0  2  0  0  0  0  0  0
  -30.2010  -13.6650   20.6220 N   0  0  0  0  0  0  0  0  0  0  0  0
  -32.0320  -14.9850   20.6050 O   0  0  0  0  0  0  0  0  0  0  0  0
  -29.9710  -15.8970   18.6140 C   0  0  0  0  0  1  0  0  0  0  0  0
  -30.0430  -15.9350   20.0890 N   0  0  0  0  0  0  0  0  0  0  0  0
  -25.4580  -13.9130   20.5550 C   0  0  0  0  0  0  0  0  0  0  0  0
  -24.3740  -13.1380   20.8690 C   0  0  0  0  0  0  0  0  0  0  0  0
  -24.8520  -11.7940   20.9010 C   0  0  0  0  0  0  0  0  0  0  0  0
  -26.5230  -13.0370   20.4140 N   0  0  0  0  0  0  0  0  0  0  0  0
  -26.1620  -11.7600   20.6860 N   0  0  0  0  0  0  0  0  0  0  0  0
  -24.1290  -10.5280   21.0650 C   0  0  0  0  0  0  0  0  0  0  0  0
  -24.5090   -9.5860   22.0440 C   0  0  0  0  0  3  0  0  0  0  0  0
  -23.7860   -8.3840   22.1970 C   0  0  0  0  0  3  0  0  0  0  0  0
  -22.6720   -8.1170   21.3680 C   0  0  0  0  0  0  0  0  0  0  0  0
  -22.3110   -9.0500   20.3800 C   0  0  0  0  0  3  0  0  0  0  0  0
  -23.0340  -10.2430   20.2250 C   0  0  0  0  0  3  0  0  0  0  0  0
  -21.9240   -6.9650   21.4280 O   0  0  0  0  0  0  0  0  0  0  0  0
  -21.7950   -6.2540   22.5950 C   0  0  0  0  0  0  0  0  0  0  0  0
  -21.2610   -6.8340   23.7650 C   0  0  0  0  0  3  0  0  0  0  0  0
  -21.0770   -6.0490   24.9200 C   0  0  0  0  0  3  0  0  0  0  0  0
  -21.4240   -4.6850   24.9070 C   0  0  0  0  0  0  0  0  0  0  0  0
  -21.9540   -4.1040   23.7420 C   0  0  0  0  0  3  0  0  0  0  0  0
  -22.1370   -4.8870   22.5880 C   0  0  0  0  0  0  0  0  0  0  0  0
  -22.6280   -4.3190   21.4600 F   0  0  0  0  0  0  0  0  0  0  0  0
  -21.2440   -3.9270   26.0150 F   0  0  0  0  0  0  0  0  0  0  0  0
  -22.9600  -13.6090   21.0290 C   0  0  0  0  0  0  0  0  0  0  0  0
  -22.1830  -12.9320   21.8660 N   0  0  0  0  0  0  0  0  0  0  0  0
  -22.5480  -14.6130   20.4490 O   0  0  0  0  0  0  0  0  0  0  0  0
  -22.5260  -12.1180   22.3560 H   0  0  0  0  0  0  0  0  0  0  0  0
  -21.2320  -13.2330   22.0250 H   0  0  0  0  0  0  0  0  0  0  0  0
  -25.6180  -15.2780   20.3520 N   0  0  0  0  0  0  0  0  0  0  0  0
  -24.8430  -15.9310   20.3940 H   0  0  0  0  0  0  0  0  0  0  0  0
  -26.4780  -15.6950   20.0210 H   0  0  0  0  0  0  0  0  0  0  0  0
  -28.6470  -25.3380   19.6330 C   0  0  0  0  0  2  0  0  0  0  0  0
  -28.4740  -26.6940   20.1670 O   0  0  0  0  0  0  0  0  0  0  0  0
  -24.6540  -31.9210   23.2060 C   0  0  0  0  0  0  0  0  0  0  0  0
  -27.2920  -27.4370   20.0990 C   0  0  0  0  0  0  0  0  0  0  0  0
  -23.4410  -30.5120   21.5730 C   0  0  0  0  0  3  0  0  0  0  0  0
  -24.8920  -28.9800   20.1220 C   0  0  0  0  0  0  0  0  0  0  0  0
  -25.9670  -30.8770   21.3500 C   0  0  0  0  0  2  0  0  0  0  0  0
  -26.0550  -29.5030   20.6990 C   0  0  0  0  0  0  0  0  0  0  0  0
  -27.2540  -28.7390   20.6770 C   0  0  0  0  0  3  0  0  0  0  0  0
  -26.1070  -26.9480   19.5080 C   0  0  0  0  0  3  0  0  0  0  0  0
  -24.9160  -27.7090   19.5180 C   0  0  0  0  0  3  0  0  0  0  0  0
  -23.6410  -29.8270   20.1930 C   0  0  0  0  0  2  0  0  0  0  0  0
  -24.7060  -31.1220   22.1000 N   0  0  0  0  0  0  0  0  0  0  0  0
  -23.5740  -32.1860   23.7560 O   0  0  0  0  0  0  0  0  0  0  0  0
  -22.8010  -29.4890   22.5420 C   0  0  0  0  0  0  0  0  0  0  0  0
  -21.4760  -29.3020   22.4300 N   0  0  0  0  0  0  0  0  0  0  0  0
  -23.4970  -28.8620   23.3460 O   0  0  0  0  0  0  0  0  0  0  0  0
  -20.9740  -29.8630   21.7560 H   0  0  0  0  0  0  0  0  0  0  0  0
  -18.1140  -28.0790   22.9520 C   0  0  0  0  0  0  0  0  0  0  0  0
  -20.6720  -28.3510   23.1990 C   0  0  0  0  0  3  0  0  0  0  0  0
  -20.7770  -26.9260   22.6080 C   0  0  0  0  0  2  0  0  0  0  0  0
  -19.6680  -26.6040   21.6030 C   0  0  0  0  0  2  0  0  0  0  0  0
  -18.2900  -26.7360   22.2620 C   0  0  0  0  0  2  0  0  0  0  0  0
  -19.2310  -28.8460   23.3740 C   0  0  0  0  0  0  0  0  0  0  0  0
  -19.0100  -30.1040   23.9740 C   0  0  0  0  0  3  0  0  0  0  0  0
  -17.7040  -30.5950   24.1580 C   0  0  0  0  0  3  0  0  0  0  0  0
  -16.6010  -29.8220   23.7560 C   0  0  0  0  0  3  0  0  0  0  0  0
  -16.8070  -28.5660   23.1580 C   0  0  0  0  0  3  0  0  0  0  0  0
  -25.9380  -32.5610   23.8220 C   0  0  0  0  0  3  0  0  0  0  0  0
  -25.6190  -33.9540   24.1680 N   0  0  0  0  0  0  0  0  0  0  0  0
  -25.9400  -35.0170   23.4150 C   0  0  0  0  0  0  0  0  0  0  0  0
  -26.6040  -34.9270   22.3790 O   0  0  0  0  0  0  0  0  0  0  0  0
  -25.0420  -34.0950   24.9850 H   0  0  0  0  0  0  0  0  0  0  0  0
  -24.2110  -36.8090   23.0730 C   0  0  0  0  0  1  0  0  0  0  0  0
  -25.4480  -36.3970   23.8870 C   0  0  0  0  0  3  0  0  0  0  0  0
  -27.5780  -37.2740   24.7430 C   0  0  0  0  0  1  0  0  0  0  0  0
  -26.4820  -37.4530   23.7960 N   0  0  0  0  0  0  0  0  0  0  0  0
  -26.0710  -38.3690   23.9560 H   0  0  0  0  0  0  0  0  0  0  0  0
  -26.4750  -31.7880   25.0910 C   0  0  1  0  0  0  0  0  0  0  0  0
  -25.3960  -31.5350   26.1730 C   0  0  0  0  0  1  0  0  0  0  0  0
  -27.0650  -30.4190   24.6830 C   0  0  0  0  0  1  0  0  0  0  0  0
  -27.6240  -32.5920   25.7450 C   0  0  0  0  0  1  0  0  0  0  0  0
  1  2  1  0
  3  4  1  0
  3  5  1  0
  4 51  1  0
  4  1  1  0
  5  2  1  0
  7  6  2  0
  8  9  2  0
  9  5  1  0
  9  6  1  0
 10 11  2  0
 10  7  1  0
 11  8  1  0
 12 11  1  0
 14 19  1  0
 15 16  1  0
 15 14  1  0
 17 16  1  0
 17 26  1  0
 17 18  1  0
 19 13  1  0
 19 18  1  0
 20 13  2  0
 21 22  1  0
 22 10  1  0
 22 13  1  0
 23 24  2  0
 24 25  1  0
 24 43  1  0
 25 28  1  0
 26 23  1  0
 26 27  1  0
 27 25  2  0
 28 29  1  0
 29 30  2  0
 31 34  1  0
 31 30  1  0
 32 31  2  0
 33 32  1  0
 33 28  2  0
 34 35  1  0
 35 36  1  0
 36 37  2  0
 38 37  1  0
 38 42  1  0
 39 38  2  0
 40 35  2  0
 40 39  1  0
 41 40  1  0
 43 44  1  0
 44 47  1  0
 44 46  1  0
 45 43  2  0
 48 49  1  0
 48 23  1  0
 50 48  1  0
 51 52  1  0
 53 64  2  0
 54 52  1  0
 54 59  1  0
 55 63  1  0
 55 65  1  0
 56 62  1  0
 56 58  1  0
 57 63  1  0
 58 57  1  0
 59 58  2  0
 60 61  1  0
 60 54  2  0
 61 56  2  0
 62 55  1  0
 63 53  1  0
 65 67  2  0
 66 65  1  0
 68 66  1  0
 69 78  2  0
 69 74  1  0
 70 66  1  0
 70 74  1  0
 71 70  1  0
 72 73  1  0
 72 71  1  0
 73 69  1  0
 74 75  2  0
 75 76  1  0
 77 76  2  0
 78 77  1  0
 79 53  1  0
 79 80  1  0
 79 89  1  0
 80 83  1  0
 81 85  1  0
 81 80  1  0
 82 81  2  0
 85 84  1  0
 87 85  1  0
 87 88  1  0
 87 86  1  0
 89 92  1  1
 89 90  1  0
 91 89  1  0
M  ISO  4  13 100  22 100  51 101  52 101
M  END
>  <TORSDO>  (80) 
F 18

>  <SCORE>  (80) 
-13.886

>  <name>  (80) 
79

>  <ligand_id>  (80) 
79

>  <original_smiles>  (80) 
[H]c1c([H])c([H])c2c(c1[H])C([H])([H])C([H])([H])C([H])([H])C2([H])N([H])C(=O)C1([H])N(C(=O)C([H])(N([H])C(=O)C([H])(N([H])C([H])([H])[H])C([H])([H])[H])C(C([H])([H])[H])(C([H])([H])[H])C([H])([H])[H])C([H])([H])c2c([H])c(OC([H])([H])C3([H])C([H])([H])N(c4c([H])c([H])c(N(C(=O)N5C([H])([H])C([H])([H])C([H])([H])C([H])(n6nc(-c7c([H])c([H])c(Oc8c([H])c([H])c(F)c([H])c8F)c([H])c7[H])c(C(=O)N([H])[H])c6N([H])[H])C5([H])[H])C([H])([H])[H])c(F)c4[H])C([H])([H])C3([H])[H])c([H])c([H])c2C1([H])[H]

>  <smiles>  (80) 
[H]c1c([H])c([H])c2c(c1[H])C([H])([H])C([H])([H])C([H])([H])C2([H])N([H])C(=O)C1([H])N(C(=O)C([H])(N([H])C(=O)C([H])(N([H])C([H])([H])[H])C([H])([H])[H])C(C([H])([H])[H])(C([H])([H])[H])C([H])([H])[H])C([H])([H])c2c([H])c(OC([H])([H])C3([H])C([H])([H])N(c4c([H])c([H])c(N(C(=O)N5C([H])([H])C([H])([H])C([H])([H])C([H])(n6nc(-c7c([H])c([H])c(Oc8c([H])c([H])c(F)c([H])c8F)c([H])c7[H])c(C(=O)N([H])[H])c6N([H])[H])C5([H])[H])C([H])([H])[H])c(F)c4[H])C([H])([H])C3([H])[H])c([H])c([H])c2C1([H])[H]

$$$$
80:0:0
     RDKit          3D

 93101  0  0  1  0  0  0  0  0999 V2000
  -30.1920  -21.7040   20.6340 C   0  0  0  0  0  2  0  0  0  0  0  0
  -29.0000  -17.9460   20.4640 C   0  0  0  0  0  3  0  0  0  0  0  0
  -31.4040  -17.9600   20.4620 C   0  0  0  0  0  3  0  0  0  0  0  0
  -28.9680  -19.3730   20.4320 C   0  0  0  0  0  0  0  0  0  0  0  0
  -30.1700  -20.1370   20.4380 C   0  0  0  0  0  0  0  0  0  0  0  0
  -30.2060  -17.1990   20.5000 C   0  0  0  0  0  0  0  0  0  0  0  0
  -31.3830  -19.3890   20.4340 C   0  0  0  0  0  0  0  0  0  0  0  0
  -27.6130  -20.0630   20.4290 C   0  0  0  0  0  1  0  0  0  0  0  0
  -32.5650  -20.0500   20.4380 F   0  0  0  0  0  0  0  0  0  0  0  0
  -30.8640  -14.7140   20.0730 C   0  0  0  0  0  0  0  0  0  0  0  0
  -30.5590  -12.5190   18.9480 C   0  0  0  0  0  2  0  0  0  0  0  0
  -29.5750  -12.7160   17.7730 C   0  0  0  0  0  2  0  0  0  0  0  0
  -28.1130  -12.5920   18.2480 C   0  0  0  0  0  2  0  0  0  0  0  0
  -27.8270  -13.4270   19.5240 C   0  0  0  0  0  3  0  0  0  0  0  0
  -28.9150  -13.1900   20.5950 C   0  0  0  0  0  2  0  0  0  0  0  0
  -30.2180  -13.5090   19.9870 N   0  0  0  0  0  0  0  0  0  0  0  0
  -31.9990  -14.8740   19.6120 O   0  0  0  0  0  0  0  0  0  0  0  0
  -30.1090  -15.7420   20.5650 N   0  0  0  0  0  0  0  0  0  0  0  0
  -29.2420  -15.4060   20.9580 H   0  0  0  0  0  0  0  0  0  0  0  0
  -25.4770  -14.0860   20.3350 C   0  0  0  0  0  0  0  0  0  0  0  0
  -24.3990  -13.3390   20.7260 C   0  0  0  0  0  0  0  0  0  0  0  0
  -24.8160  -11.9750   20.6460 C   0  0  0  0  0  0  0  0  0  0  0  0
  -26.4840  -13.1790   20.0450 N   0  0  0  0  0  0  0  0  0  0  0  0
  -26.0920  -11.9020   20.2890 N   0  0  0  0  0  0  0  0  0  0  0  0
  -24.0560  -10.7310   20.8300 C   0  0  0  0  0  0  0  0  0  0  0  0
  -24.4570   -9.7540   21.7680 C   0  0  0  0  0  3  0  0  0  0  0  0
  -23.7010   -8.5750   21.9400 C   0  0  0  0  0  3  0  0  0  0  0  0
  -22.5280   -8.3650   21.1760 C   0  0  0  0  0  0  0  0  0  0  0  0
  -22.1460   -9.3310   20.2300 C   0  0  0  0  0  3  0  0  0  0  0  0
  -22.9020  -10.5020   20.0550 C   0  0  0  0  0  3  0  0  0  0  0  0
  -21.7450   -7.2400   21.2590 O   0  0  0  0  0  0  0  0  0  0  0  0
  -21.6240   -6.5300   22.4260 C   0  0  0  0  0  0  0  0  0  0  0  0
  -21.1330   -7.1210   23.6100 C   0  0  0  0  0  3  0  0  0  0  0  0
  -20.9600   -6.3380   24.7700 C   0  0  0  0  0  3  0  0  0  0  0  0
  -21.2690   -4.9650   24.7450 C   0  0  0  0  0  0  0  0  0  0  0  0
  -21.7540   -4.3740   23.5650 C   0  0  0  0  0  3  0  0  0  0  0  0
  -21.9280   -5.1530   22.4080 C   0  0  0  0  0  0  0  0  0  0  0  0
  -22.3750   -4.5740   21.2680 F   0  0  0  0  0  0  0  0  0  0  0  0
  -21.0960   -4.2100   25.8550 F   0  0  0  0  0  0  0  0  0  0  0  0
  -23.0280  -13.8530   21.0600 C   0  0  0  0  0  0  0  0  0  0  0  0
  -22.3210  -13.1760   21.9590 N   0  0  0  0  0  0  0  0  0  0  0  0
  -22.5940  -14.8890   20.5580 O   0  0  0  0  0  0  0  0  0  0  0  0
  -22.6840  -12.3370   22.3860 H   0  0  0  0  0  0  0  0  0  0  0  0
  -21.4030  -13.5030   22.2230 H   0  0  0  0  0  0  0  0  0  0  0  0
  -25.6790  -15.4560   20.1820 N   0  0  0  0  0  0  0  0  0  0  0  0
  -24.9300  -16.1260   20.3100 H   0  0  0  0  0  0  0  0  0  0  0  0
  -26.5150  -15.8690   19.7880 H   0  0  0  0  0  0  0  0  0  0  0  0
  -29.8440  -22.3360   18.2630 C   0  0  0  0  0  1  0  0  0  0  0  0
  -29.4800  -22.6370   19.6700 N   0  0  2  0  0  4  0  0  0  0  0  0
  -28.5010  -22.4110   19.7600 H   0  0  0  0  0  0  0  0  0  0  0  0
  -29.6200  -24.1260   20.0060 C   0  0  0  0  0  3  0  0  0  0  0  0
  -28.4980  -25.1130   19.4630 C   0  0  0  0  0  3  0  0  0  0  0  0
  -28.6050  -26.5600   19.7570 O   0  0  0  0  0  0  0  0  0  0  0  0
  -24.5980  -31.6240   22.9590 C   0  0  0  0  0  0  0  0  0  0  0  0
  -27.4350  -27.3360   19.7270 C   0  0  0  0  0  0  0  0  0  0  0  0
  -23.4640  -30.2330   21.2630 C   0  0  0  0  0  3  0  0  0  0  0  0
  -24.9880  -28.8160   19.7800 C   0  0  0  0  0  0  0  0  0  0  0  0
  -25.9830  -30.6860   21.0950 C   0  0  0  0  0  2  0  0  0  0  0  0
  -26.1300  -29.3410   20.3970 C   0  0  0  0  0  0  0  0  0  0  0  0
  -27.3550  -28.6110   20.3650 C   0  0  0  0  0  3  0  0  0  0  0  0
  -26.2660  -26.8660   19.0810 C   0  0  0  0  0  3  0  0  0  0  0  0
  -25.0580  -27.5860   19.1130 C   0  0  0  0  0  3  0  0  0  0  0  0
  -23.7110  -29.6240   19.8570 C   0  0  0  0  0  2  0  0  0  0  0  0
  -24.7000  -30.8640   21.8300 N   0  0  0  0  0  0  0  0  0  0  0  0
  -23.5030  -31.8270   23.5030 O   0  0  0  0  0  0  0  0  0  0  0  0
  -22.8530  -29.1470   22.1810 C   0  0  0  0  0  0  0  0  0  0  0  0
  -21.5290  -28.9440   22.0770 N   0  0  0  0  0  0  0  0  0  0  0  0
  -23.5680  -28.4930   22.9450 O   0  0  0  0  0  0  0  0  0  0  0  0
  -21.0110  -29.5320   21.4380 H   0  0  0  0  0  0  0  0  0  0  0  0
  -18.1850  -27.6840   22.6360 C   0  0  0  0  0  0  0  0  0  0  0  0
  -20.7510  -27.9470   22.8140 C   0  0  0  0  0  3  0  0  0  0  0  0
  -20.8360  -26.5610   22.1340 C   0  0  0  0  0  2  0  0  0  0  0  0
  -19.6930  -26.2990   21.1490 C   0  0  0  0  0  2  0  0  0  0  0  0
  -18.3400  -26.3860   21.8610 C   0  0  0  0  0  2  0  0  0  0  0  0
  -19.3170  -28.4240   23.0700 C   0  0  0  0  0  0  0  0  0  0  0  0
  -19.1180  -29.6390   23.7580 C   0  0  0  0  0  3  0  0  0  0  0  0
  -17.8180  -30.1170   24.0160 C   0  0  0  0  0  3  0  0  0  0  0  0
  -16.7020  -29.3730   23.5990 C   0  0  0  0  0  3  0  0  0  0  0  0
  -16.8850  -28.1580   22.9140 C   0  0  0  0  0  3  0  0  0  0  0  0
  -25.8500  -32.2920   23.6070 C   0  0  0  0  0  3  0  0  0  0  0  0
  -26.4120  -31.4900   24.8440 C   0  0  1  0  0  0  0  0  0  0  0  0
  -25.3370  -31.1440   25.9020 C   0  0  0  0  0  1  0  0  0  0  0  0
  -27.0640  -30.1650   24.3840 C   0  0  0  0  0  1  0  0  0  0  0  0
  -27.5200  -32.3120   25.5430 C   0  0  0  0  0  1  0  0  0  0  0  0
  -25.4710  -33.6550   24.0050 N   0  0  0  0  0  0  0  0  0  0  0  0
  -25.7530  -34.7600   23.3030 C   0  0  0  0  0  0  0  0  0  0  0  0
  -26.4320  -34.7420   22.2730 O   0  0  0  0  0  0  0  0  0  0  0  0
  -24.8660  -33.7400   24.8080 H   0  0  0  0  0  0  0  0  0  0  0  0
  -23.9390  -36.4810   23.0260 C   0  0  0  0  0  1  0  0  0  0  0  0
  -25.1940  -36.0980   23.8270 C   0  0  0  0  0  3  0  0  0  0  0  0
  -27.2720  -37.0490   24.7230 C   0  0  0  0  0  1  0  0  0  0  0  0
  -26.1740  -37.2050   23.7740 N   0  0  0  0  0  0  0  0  0  0  0  0
  -25.7210  -38.0970   23.9560 H   0  0  0  0  0  0  0  0  0  0  0  0
  2  6  1  0
  3  6  2  0
  4  5  1  0
  4  2  2  0
  5  1  1  0
  6 18  1  0
  7  9  1  0
  7  5  2  0
  7  3  1  0
  8  4  1  0
 10 18  1  0
 11 16  1  0
 12 13  1  0
 12 11  1  0
 14 13  1  0
 14 23  1  0
 14 15  1  0
 16 10  1  0
 16 15  1  0
 17 10  2  0
 18 19  1  0
 20 21  2  0
 21 40  1  0
 22 21  1  0
 22 25  1  0
 23 24  1  0
 23 20  1  0
 24 22  2  0
 25 26  1  0
 26 27  2  0
 28 31  1  0
 28 27  1  0
 29 28  2  0
 30 29  1  0
 30 25  2  0
 31 32  1  0
 32 33  1  0
 33 34  2  0
 35 34  1  0
 35 39  1  0
 36 35  2  0
 37 32  2  0
 37 36  1  0
 38 37  1  0
 40 41  1  0
 41 44  1  0
 41 43  1  0
 42 40  2  0
 45 46  1  0
 45 20  1  0
 47 45  1  0
 48 49  1  0
 49 50  1  6
 49 51  1  0
 49  1  1  0
 52 53  1  0
 52 51  2  0
 54 65  2  0
 55 53  1  0
 55 60  1  0
 56 64  1  0
 56 66  1  0
 57 63  1  0
 57 59  1  0
 58 64  1  0
 59 58  1  0
 60 59  2  0
 61 62  1  0
 61 55  2  0
 62 57  2  0
 63 56  1  0
 64 54  1  0
 66 68  2  0
 67 66  1  0
 69 67  1  0
 70 79  2  0
 70 75  1  0
 71 67  1  0
 71 75  1  0
 72 71  1  0
 73 74  1  0
 73 72  1  0
 74 70  1  0
 75 76  2  0
 76 77  1  0
 78 77  2  0
 79 78  1  0
 80 54  1  0
 80 85  1  0
 80 81  1  0
 81 84  1  1
 81 82  1  0
 83 81  1  0
 85 88  1  0
 86 90  1  0
 86 85  1  0
 87 86  2  0
 90 89  1  0
 92 90  1  0
 92 93  1  0
 92 91  1  0
M  ISO  4  10 100  18 100  52 101  53 101
M  END
>  <TORSDO>  (81) 
F 20

>  <SCORE>  (81) 
-12.939

>  <name>  (81) 
80

>  <ligand_id>  (81) 
80

>  <original_smiles>  (81) 
[H]c1c([H])c([H])c2c(c1[H])C([H])([H])C([H])([H])C([H])([H])C2([H])N([H])C(=O)C1([H])N(C(=O)C([H])(N([H])C(=O)C([H])(N([H])C([H])([H])[H])C([H])([H])[H])C(C([H])([H])[H])(C([H])([H])[H])C([H])([H])[H])C([H])([H])c2c([H])c(OC([H])([H])C([H])([H])[N+]([H])(C([H])([H])[H])C([H])([H])c3c(F)c([H])c(N([H])C(=O)N4C([H])([H])C([H])([H])C([H])([H])C([H])(n5nc(-c6c([H])c([H])c(Oc7c([H])c([H])c(F)c([H])c7F)c([H])c6[H])c(C(=O)N([H])[H])c5N([H])[H])C4([H])[H])c([H])c3C([H])([H])[H])c([H])c([H])c2C1([H])[H]

>  <smiles>  (81) 
[H]c1c([H])c([H])c2c(c1[H])C([H])([H])C([H])([H])C([H])([H])C2([H])N([H])C(=O)C1([H])N(C(=O)C([H])(N([H])C(=O)C([H])(N([H])C([H])([H])[H])C([H])([H])[H])C(C([H])([H])[H])(C([H])([H])[H])C([H])([H])[H])C([H])([H])c2c([H])c(OC([H])([H])C([H])([H])[N+]([H])(C([H])([H])[H])C([H])([H])c3c(F)c([H])c(N([H])C(=O)N4C([H])([H])C([H])([H])C([H])([H])C([H])(n5nc(-c6c([H])c([H])c(Oc7c([H])c([H])c(F)c([H])c7F)c([H])c6[H])c(C(=O)N([H])[H])c5N([H])[H])C4([H])[H])c([H])c3C([H])([H])[H])c([H])c([H])c2C1([H])[H]

$$$$
81:0:0
     RDKit          3D

 92100  0  0  1  0  0  0  0  0999 V2000
  -30.3040  -21.3770   20.1220 N   0  0  0  0  0  0  0  0  0  0  0  0
  -30.9780  -17.6960   19.2310 C   0  0  0  0  0  3  0  0  0  0  0  0
  -29.2170  -17.8170   20.8450 C   0  0  0  0  0  3  0  0  0  0  0  0
  -31.0050  -19.1300   19.1840 C   0  0  0  0  0  3  0  0  0  0  0  0
  -29.2250  -19.2400   20.7810 C   0  0  0  0  0  3  0  0  0  0  0  0
  -30.1170  -16.9820   20.1150 C   0  0  0  0  0  0  0  0  0  0  0  0
  -30.1540  -19.9490   19.9890 C   0  0  0  0  0  0  0  0  0  0  0  0
  -30.6060  -14.4900   19.5870 C   0  0  0  0  0  0  0  0  0  0  0  0
  -30.1000  -12.3640   18.3660 C   0  0  0  0  0  2  0  0  0  0  0  0
  -29.0130  -12.6020   17.2960 C   0  0  0  0  0  2  0  0  0  0  0  0
  -27.5990  -12.4610   17.8970 C   0  0  0  0  0  2  0  0  0  0  0  0
  -27.4430  -13.2190   19.2410 C   0  0  0  0  0  3  0  0  0  0  0  0
  -28.6330  -12.9360   20.1780 C   0  0  0  0  0  2  0  0  0  0  0  0
  -29.8730  -13.3210   19.4750 N   0  0  0  0  0  0  0  0  0  0  0  0
  -31.6370  -14.6300   18.9230 O   0  0  0  0  0  0  0  0  0  0  0  0
  -30.0970  -15.2070   21.8330 C   0  0  0  0  0  1  0  0  0  0  0  0
  -30.1540  -15.5220   20.3980 N   0  0  0  0  0  0  0  0  0  0  0  0
  -25.1750  -13.8250   20.2890 C   0  0  0  0  0  0  0  0  0  0  0  0
  -24.1440  -13.0590   20.7550 C   0  0  0  0  0  0  0  0  0  0  0  0
  -24.5650  -11.7000   20.6110 C   0  0  0  0  0  0  0  0  0  0  0  0
  -26.1600  -12.9390   19.8850 N   0  0  0  0  0  0  0  0  0  0  0  0
  -25.8050  -11.6510   20.1370 N   0  0  0  0  0  0  0  0  0  0  0  0
  -23.8350  -10.4460   20.8400 C   0  0  0  0  0  0  0  0  0  0  0  0
  -24.3100   -9.4680   21.7430 C   0  0  0  0  0  3  0  0  0  0  0  0
  -23.5800   -8.2800   21.9610 C   0  0  0  0  0  3  0  0  0  0  0  0
  -22.3600   -8.0580   21.2780 C   0  0  0  0  0  0  0  0  0  0  0  0
  -21.9030   -9.0250   20.3650 C   0  0  0  0  0  3  0  0  0  0  0  0
  -22.6320  -10.2060   20.1450 C   0  0  0  0  0  3  0  0  0  0  0  0
  -21.6000   -6.9210   21.4050 O   0  0  0  0  0  0  0  0  0  0  0  0
  -21.5660   -6.2060   22.5750 C   0  0  0  0  0  0  0  0  0  0  0  0
  -21.1540   -6.7890   23.7930 C   0  0  0  0  0  3  0  0  0  0  0  0
  -21.0660   -6.0010   24.9580 C   0  0  0  0  0  3  0  0  0  0  0  0
  -21.3780   -4.6290   24.9050 C   0  0  0  0  0  0  0  0  0  0  0  0
  -21.7840   -4.0450   23.6900 C   0  0  0  0  0  3  0  0  0  0  0  0
  -21.8720   -4.8300   22.5290 C   0  0  0  0  0  0  0  0  0  0  0  0
  -22.2420   -4.2570   21.3580 F   0  0  0  0  0  0  0  0  0  0  0  0
  -21.2880   -3.8690   26.0210 F   0  0  0  0  0  0  0  0  0  0  0  0
  -22.8030  -13.5500   21.2210 C   0  0  0  0  0  0  0  0  0  0  0  0
  -22.1820  -12.8450   22.1580 N   0  0  0  0  0  0  0  0  0  0  0  0
  -22.3180  -14.5950   20.7860 O   0  0  0  0  0  0  0  0  0  0  0  0
  -22.5900  -12.0020   22.5340 H   0  0  0  0  0  0  0  0  0  0  0  0
  -21.2850  -13.1540   22.5050 H   0  0  0  0  0  0  0  0  0  0  0  0
  -25.3490  -15.2010   20.1530 N   0  0  0  0  0  0  0  0  0  0  0  0
  -24.6130  -15.8620   20.3760 H   0  0  0  0  0  0  0  0  0  0  0  0
  -26.1820  -15.6420   19.7850 H   0  0  0  0  0  0  0  0  0  0  0  0
  -31.6650  -21.8190   20.4630 C   0  0  0  0  0  2  0  0  0  0  0  0
  -33.6310  -21.4270   22.0840 C   0  0  0  0  0  1  0  0  0  0  0  0
  -32.1270  -21.2510   21.8200 C   0  0  0  0  0  2  0  0  0  0  0  0
  -29.3600  -22.3740   19.5100 C   0  0  0  0  0  2  0  0  0  0  0  0
  -29.2160  -23.7930   20.2480 C   0  0  0  0  0  3  0  0  0  0  0  0
  -28.2090  -24.8850   19.6730 C   0  0  0  0  0  3  0  0  0  0  0  0
  -28.3220  -26.2770   20.1790 O   0  0  0  0  0  0  0  0  0  0  0  0
  -24.5740  -31.6880   23.1860 C   0  0  0  0  0  0  0  0  0  0  0  0
  -27.2130  -27.1350   20.1070 C   0  0  0  0  0  0  0  0  0  0  0  0
  -23.3940  -30.3050   21.5170 C   0  0  0  0  0  3  0  0  0  0  0  0
  -24.8620  -28.7710   20.0910 C   0  0  0  0  0  0  0  0  0  0  0  0
  -25.9450  -30.5960   21.4040 C   0  0  0  0  0  2  0  0  0  0  0  0
  -26.0220  -29.2320   20.7260 C   0  0  0  0  0  0  0  0  0  0  0  0
  -27.1980  -28.4210   20.7330 C   0  0  0  0  0  3  0  0  0  0  0  0
  -26.0380  -26.7450   19.4240 C   0  0  0  0  0  3  0  0  0  0  0  0
  -24.8740  -27.5360   19.4280 C   0  0  0  0  0  3  0  0  0  0  0  0
  -23.6300  -29.6490   20.1340 C   0  0  0  0  0  2  0  0  0  0  0  0
  -24.6540  -30.8830   22.0870 N   0  0  0  0  0  0  0  0  0  0  0  0
  -23.4830  -31.9680   23.7020 O   0  0  0  0  0  0  0  0  0  0  0  0
  -22.7170  -29.2810   22.4590 C   0  0  0  0  0  0  0  0  0  0  0  0
  -21.3970  -29.0840   22.2900 N   0  0  0  0  0  0  0  0  0  0  0  0
  -23.3760  -28.6690   23.3040 O   0  0  0  0  0  0  0  0  0  0  0  0
  -20.9270  -29.6250   21.5780 H   0  0  0  0  0  0  0  0  0  0  0  0
  -18.0220  -27.8400   22.6740 C   0  0  0  0  0  0  0  0  0  0  0  0
  -20.5630  -28.1410   23.0390 C   0  0  0  0  0  3  0  0  0  0  0  0
  -20.7120  -26.7060   22.4810 C   0  0  0  0  0  2  0  0  0  0  0  0
  -19.6540  -26.3580   21.4290 C   0  0  0  0  0  2  0  0  0  0  0  0
  -18.2460  -26.4890   22.0170 C   0  0  0  0  0  2  0  0  0  0  0  0
  -19.1120  -28.6230   23.1400 C   0  0  0  0  0  0  0  0  0  0  0  0
  -18.8530  -29.8870   23.7110 C   0  0  0  0  0  3  0  0  0  0  0  0
  -17.5370  -30.3710   23.8220 C   0  0  0  0  0  3  0  0  0  0  0  0
  -16.4600  -29.5850   23.3780 C   0  0  0  0  0  3  0  0  0  0  0  0
  -16.7030  -28.3210   22.8070 C   0  0  0  0  0  3  0  0  0  0  0  0
  -25.8520  -32.3100   23.8270 C   0  0  0  0  0  3  0  0  0  0  0  0
  -25.5440  -33.7140   24.1360 N   0  0  0  0  0  0  0  0  0  0  0  0
  -25.8840  -34.7580   23.3670 C   0  0  0  0  0  0  0  0  0  0  0  0
  -26.5570  -34.6400   22.3390 O   0  0  0  0  0  0  0  0  0  0  0  0
  -24.9250  -33.8740   24.9170 H   0  0  0  0  0  0  0  0  0  0  0  0
  -24.1600  -36.5540   23.0010 C   0  0  0  0  0  1  0  0  0  0  0  0
  -25.4050  -36.1530   23.8080 C   0  0  0  0  0  3  0  0  0  0  0  0
  -27.5460  -37.0490   24.6160 C   0  0  0  0  0  1  0  0  0  0  0  0
  -26.4390  -37.2010   23.6730 N   0  0  0  0  0  0  0  0  0  0  0  0
  -26.0370  -38.1250   23.8040 H   0  0  0  0  0  0  0  0  0  0  0  0
  -26.3270  -31.5470   25.1240 C   0  0  1  0  0  0  0  0  0  0  0  0
  -25.1970  -31.3190   26.1580 C   0  0  0  0  0  1  0  0  0  0  0  0
  -26.9180  -30.1610   24.7720 C   0  0  0  0  0  1  0  0  0  0  0  0
  -27.4590  -32.3450   25.8120 C   0  0  0  0  0  1  0  0  0  0  0  0
  1 46  1  0
  2  6  1  0
  4  2  2  0
  4  7  1  0
  5  3  1  0
  6 17  1  0
  6  3  2  0
  7  1  1  0
  7  5  2  0
  8 17  1  0
  9 14  1  0
 10 11  1  0
 10  9  1  0
 12 11  1  0
 12 21  1  0
 12 13  1  0
 14  8  1  0
 14 13  1  0
 15  8  2  0
 17 16  1  0
 18 19  2  0
 19 38  1  0
 20 19  1  0
 20 23  1  0
 21 22  1  0
 21 18  1  0
 22 20  2  0
 23 24  1  0
 24 25  2  0
 26 29  1  0
 26 25  1  0
 27 26  2  0
 28 27  1  0
 28 23  2  0
 29 30  1  0
 30 31  1  0
 31 32  2  0
 33 32  1  0
 33 37  1  0
 34 33  2  0
 35 30  2  0
 35 34  1  0
 36 35  1  0
 38 39  1  0
 39 42  1  0
 39 41  1  0
 40 38  2  0
 43 18  1  0
 43 44  1  0
 45 43  1  0
 46 48  1  0
 48 47  1  0
 49  1  1  0
 49 50  1  0
 51 52  1  0
 51 50  2  0
 53 64  2  0
 54 52  1  0
 54 59  1  0
 55 63  1  0
 55 65  1  0
 56 62  1  0
 56 58  1  0
 57 63  1  0
 58 59  2  0
 58 57  1  0
 60 61  1  0
 60 54  2  0
 61 56  2  0
 62 55  1  0
 63 53  1  0
 65 67  2  0
 66 65  1  0
 68 66  1  0
 69 78  2  0
 69 74  1  0
 70 66  1  0
 70 74  1  0
 71 70  1  0
 72 73  1  0
 72 71  1  0
 73 69  1  0
 74 75  2  0
 75 76  1  0
 77 76  2  0
 78 77  1  0
 79 53  1  0
 79 80  1  0
 79 89  1  0
 80 83  1  0
 81 85  1  0
 81 80  1  0
 82 81  2  0
 85 84  1  0
 87 88  1  0
 87 85  1  0
 87 86  1  0
 89 92  1  1
 89 90  1  0
 91 89  1  0
M  ISO  4   8 100  17 100  51 101  52 101
M  END
>  <TORSDO>  (82) 
F 22

>  <SCORE>  (82) 
-11.371

>  <name>  (82) 
81

>  <ligand_id>  (82) 
81

>  <original_smiles>  (82) 
[H]c1c([H])c([H])c2c(c1[H])C([H])([H])C([H])([H])C([H])([H])C2([H])N([H])C(=O)C1([H])N(C(=O)C([H])(N([H])C(=O)C([H])(N([H])C([H])([H])[H])C([H])([H])[H])C(C([H])([H])[H])(C([H])([H])[H])C([H])([H])[H])C([H])([H])c2c([H])c(OC([H])([H])C([H])([H])C([H])([H])N(c3c([H])c([H])c(N(C(=O)N4C([H])([H])C([H])([H])C([H])([H])C([H])(n5nc(-c6c([H])c([H])c(Oc7c([H])c([H])c(F)c([H])c7F)c([H])c6[H])c(C(=O)N([H])[H])c5N([H])[H])C4([H])[H])C([H])([H])[H])c([H])c3[H])C([H])([H])C([H])([H])C([H])([H])[H])c([H])c([H])c2C1([H])[H]

>  <smiles>  (82) 
[H]c1c([H])c([H])c2c(c1[H])C([H])([H])C([H])([H])C([H])([H])C2([H])N([H])C(=O)C1([H])N(C(=O)C([H])(N([H])C(=O)C([H])(N([H])C([H])([H])[H])C([H])([H])[H])C(C([H])([H])[H])(C([H])([H])[H])C([H])([H])[H])C([H])([H])c2c([H])c(OC([H])([H])C([H])([H])C([H])([H])N(c3c([H])c([H])c(N(C(=O)N4C([H])([H])C([H])([H])C([H])([H])C([H])(n5nc(-c6c([H])c([H])c(Oc7c([H])c([H])c(F)c([H])c7F)c([H])c6[H])c(C(=O)N([H])[H])c5N([H])[H])C4([H])[H])C([H])([H])[H])c([H])c3[H])C([H])([H])C([H])([H])C([H])([H])[H])c([H])c([H])c2C1([H])[H]

$$$$
82:0:0
     RDKit          3D

 95103  0  0  1  0  0  0  0  0999 V2000
  -30.1240  -19.7900   22.3330 C   0  0  0  0  0  3  0  0  0  0  0  0
  -30.2350  -21.7470   20.3310 C   0  0  0  0  0  3  0  0  0  0  0  0
  -30.1010  -19.3910   20.9790 C   0  0  0  0  0  0  0  0  0  0  0  0
  -30.2110  -22.1630   21.6850 C   0  0  0  0  0  0  0  0  0  0  0  0
  -30.1700  -20.3820   19.9780 C   0  0  0  0  0  0  0  0  0  0  0  0
  -30.1820  -21.1510   22.6850 C   0  0  0  0  0  0  0  0  0  0  0  0
  -30.1560  -20.0290   18.6690 F   0  0  0  0  0  0  0  0  0  0  0  0
  -30.2170  -21.4640   24.0050 F   0  0  0  0  0  0  0  0  0  0  0  0
  -30.9000  -17.1030   20.9680 C   0  0  0  0  0  0  0  0  0  0  0  0
  -28.6320  -17.6070   20.1230 C   0  0  0  0  0  1  0  0  0  0  0  0
  -29.9370  -18.0100   20.6560 N   0  0  0  0  0  0  0  0  0  0  0  0
  -32.0850  -17.4310   21.1130 O   0  0  0  0  0  0  0  0  0  0  0  0
  -30.4920  -15.6460   21.2730 C   0  0  0  0  0  2  0  0  0  0  0  0
  -30.9670  -14.6520   20.1830 C   0  0  0  0  0  0  0  0  0  0  0  0
  -30.6580  -12.4650   19.0450 C   0  0  0  0  0  2  0  0  0  0  0  0
  -29.6490  -12.5680   17.8860 C   0  0  0  0  0  2  0  0  0  0  0  0
  -28.1990  -12.4250   18.3910 C   0  0  0  0  0  2  0  0  0  0  0  0
  -27.9060  -13.3270   19.6190 C   0  0  0  0  0  3  0  0  0  0  0  0
  -29.0080  -13.1400   20.6830 C   0  0  0  0  0  2  0  0  0  0  0  0
  -30.2990  -13.4700   20.0550 N   0  0  0  0  0  0  0  0  0  0  0  0
  -31.9540  -14.9110   19.4830 O   0  0  0  0  0  0  0  0  0  0  0  0
  -25.5690  -13.9710   20.4930 C   0  0  0  0  0  0  0  0  0  0  0  0
  -24.5030  -13.2100   20.8920 C   0  0  0  0  0  0  0  0  0  0  0  0
  -24.9210  -11.8500   20.7670 C   0  0  0  0  0  0  0  0  0  0  0  0
  -26.5740  -13.0730   20.1610 N   0  0  0  0  0  0  0  0  0  0  0  0
  -26.1870  -11.7900   20.3780 N   0  0  0  0  0  0  0  0  0  0  0  0
  -24.1700  -10.6000   20.9440 C   0  0  0  0  0  0  0  0  0  0  0  0
  -24.5680   -9.6260   21.8860 C   0  0  0  0  0  3  0  0  0  0  0  0
  -23.8200   -8.4410   22.0490 C   0  0  0  0  0  3  0  0  0  0  0  0
  -22.6600   -8.2210   21.2680 C   0  0  0  0  0  0  0  0  0  0  0  0
  -22.2810   -9.1840   20.3160 C   0  0  0  0  0  3  0  0  0  0  0  0
  -23.0290  -10.3610   20.1520 C   0  0  0  0  0  3  0  0  0  0  0  0
  -21.8850   -7.0890   21.3410 O   0  0  0  0  0  0  0  0  0  0  0  0
  -21.7400   -6.3890   22.5120 C   0  0  0  0  0  0  0  0  0  0  0  0
  -21.1750   -6.9770   23.6650 C   0  0  0  0  0  3  0  0  0  0  0  0
  -20.9800   -6.2040   24.8270 C   0  0  0  0  0  3  0  0  0  0  0  0
  -21.3400   -4.8430   24.8360 C   0  0  0  0  0  0  0  0  0  0  0  0
  -21.8980   -4.2540   23.6870 C   0  0  0  0  0  3  0  0  0  0  0  0
  -22.0950   -5.0250   22.5280 C   0  0  0  0  0  0  0  0  0  0  0  0
  -22.6130   -4.4480   21.4170 F   0  0  0  0  0  0  0  0  0  0  0  0
  -21.1450   -4.0970   25.9480 F   0  0  0  0  0  0  0  0  0  0  0  0
  -23.1390  -13.7100   21.2750 C   0  0  0  0  0  0  0  0  0  0  0  0
  -22.4490  -12.9970   22.1570 N   0  0  0  0  0  0  0  0  0  0  0  0
  -22.6970  -14.7680   20.8280 O   0  0  0  0  0  0  0  0  0  0  0  0
  -22.8200  -12.1400   22.5400 H   0  0  0  0  0  0  0  0  0  0  0  0
  -21.5380  -13.3150   22.4560 H   0  0  0  0  0  0  0  0  0  0  0  0
  -25.7590  -15.3440   20.3660 N   0  0  0  0  0  0  0  0  0  0  0  0
  -25.0100  -16.0050   20.5390 H   0  0  0  0  0  0  0  0  0  0  0  0
  -26.5810  -15.7730   19.9620 H   0  0  0  0  0  0  0  0  0  0  0  0
  -29.5670  -23.9800   23.2610 C   0  0  0  0  0  1  0  0  0  0  0  0
  -30.1940  -23.5450   22.0130 N   0  0  0  0  0  0  0  0  0  0  0  0
  -30.9380  -24.5120   21.2010 C   0  0  0  0  0  2  0  0  0  0  0  0
  -30.1040  -25.2020   20.1000 C   0  0  0  0  0  2  0  0  0  0  0  0
  -29.0430  -26.2040   20.5840 C   0  0  0  0  0  2  0  0  0  0  0  0
  -28.6470  -26.9850   19.4650 O   0  0  0  0  0  0  0  0  0  0  0  0
  -24.7430  -31.6880   23.1250 C   0  0  0  0  0  0  0  0  0  0  0  0
  -27.4550  -27.6390   19.6250 C   0  0  0  0  0  0  0  0  0  0  0  0
  -23.5310  -30.3520   21.4280 C   0  0  0  0  0  3  0  0  0  0  0  0
  -24.9940  -28.9910   19.8430 C   0  0  0  0  0  0  0  0  0  0  0  0
  -26.0240  -30.8500   21.1630 C   0  0  0  0  0  2  0  0  0  0  0  0
  -26.1460  -29.5330   20.4300 C   0  0  0  0  0  0  0  0  0  0  0  0
  -27.3800  -28.8590   20.3290 C   0  0  0  0  0  3  0  0  0  0  0  0
  -26.2950  -27.1010   19.0350 C   0  0  0  0  0  3  0  0  0  0  0  0
  -25.0610  -27.7710   19.1470 C   0  0  0  0  0  3  0  0  0  0  0  0
  -23.7130  -29.7790   19.9970 C   0  0  0  0  0  2  0  0  0  0  0  0
  -24.7850  -30.9750   21.9650 N   0  0  0  0  0  0  0  0  0  0  0  0
  -23.6740  -31.8700   23.7250 O   0  0  0  0  0  0  0  0  0  0  0  0
  -22.9670  -29.2360   22.3350 C   0  0  0  0  0  0  0  0  0  0  0  0
  -21.6530  -28.9870   22.2260 N   0  0  0  0  0  0  0  0  0  0  0  0
  -23.7070  -28.6000   23.0890 O   0  0  0  0  0  0  0  0  0  0  0  0
  -21.1140  -29.5610   21.5930 H   0  0  0  0  0  0  0  0  0  0  0  0
  -18.3690  -27.5540   22.6920 C   0  0  0  0  0  0  0  0  0  0  0  0
  -20.9100  -27.9560   22.9480 C   0  0  0  0  0  3  0  0  0  0  0  0
  -21.0930  -26.5700   22.2840 C   0  0  0  0  0  2  0  0  0  0  0  0
  -19.9950  -26.2390   21.2670 C   0  0  0  0  0  2  0  0  0  0  0  0
  -18.6170  -26.2610   21.9340 C   0  0  0  0  0  2  0  0  0  0  0  0
  -19.4450  -28.3590   23.1520 C   0  0  0  0  0  0  0  0  0  0  0  0
  -19.1590  -29.5710   23.8160 C   0  0  0  0  0  3  0  0  0  0  0  0
  -17.8300  -29.9810   24.0260 C   0  0  0  0  0  3  0  0  0  0  0  0
  -16.7680  -29.1710   23.5850 C   0  0  0  0  0  3  0  0  0  0  0  0
  -17.0380  -27.9600   22.9250 C   0  0  0  0  0  3  0  0  0  0  0  0
  -26.0280  -32.3290   23.7400 C   0  0  0  0  0  3  0  0  0  0  0  0
  -25.6950  -33.7080   24.1200 N   0  0  0  0  0  0  0  0  0  0  0  0
  -25.9920  -34.7900   23.3880 C   0  0  0  0  0  0  0  0  0  0  0  0
  -26.6460  -34.7350   22.3440 O   0  0  0  0  0  0  0  0  0  0  0  0
  -25.1140  -33.8240   24.9380 H   0  0  0  0  0  0  0  0  0  0  0  0
  -24.2230  -36.5560   23.1050 C   0  0  0  0  0  1  0  0  0  0  0  0
  -25.4780  -36.1510   23.8970 C   0  0  0  0  0  3  0  0  0  0  0  0
  -27.5960  -37.0510   24.7510 C   0  0  0  0  0  1  0  0  0  0  0  0
  -26.4850  -37.2310   23.8200 N   0  0  0  0  0  0  0  0  0  0  0  0
  -26.0580  -38.1330   24.0100 H   0  0  0  0  0  0  0  0  0  0  0  0
  -26.5910  -31.5290   24.9780 C   0  0  1  0  0  0  0  0  0  0  0  0
  -25.5270  -31.2280   26.0590 C   0  0  0  0  0  1  0  0  0  0  0  0
  -27.1980  -30.1810   24.5250 C   0  0  0  0  0  1  0  0  0  0  0  0
  -27.7340  -32.3290   25.6440 C   0  0  0  0  0  1  0  0  0  0  0  0
  1  6  1  0
  2  4  1  0
  3  1  2  0
  4 51  1  0
  4  6  2  0
  5  2  2  0
  5  3  1  0
  6  8  1  0
  7  5  1  0
  9 12  2  0
  9 13  1  0
 10 11  1  0
 11  9  1  0
 11  3  1  0
 14 13  1  0
 15 20  1  0
 16 17  1  0
 16 15  1  0
 18 17  1  0
 18 25  1  0
 18 19  1  0
 20 14  1  0
 20 19  1  0
 21 14  2  0
 22 23  2  0
 23 42  1  0
 24 23  1  0
 24 27  1  0
 25 26  1  0
 25 22  1  0
 26 24  2  0
 27 28  1  0
 28 29  2  0
 30 33  1  0
 30 29  1  0
 31 30  2  0
 32 31  1  0
 32 27  2  0
 33 34  1  0
 34 39  2  0
 34 35  1  0
 35 36  2  0
 36 37  1  0
 37 41  1  0
 38 37  2  0
 39 38  1  0
 40 39  1  0
 42 43  1  0
 43 46  1  0
 43 45  1  0
 44 42  2  0
 47 22  1  0
 47 48  1  0
 49 47  1  0
 51 50  1  0
 52 51  1  0
 53 54  1  0
 53 52  1  0
 55 57  1  0
 55 54  1  0
 56 67  2  0
 57 62  1  0
 58 66  1  0
 58 68  1  0
 59 65  1  0
 59 61  1  0
 60 66  1  0
 61 60  1  0
 62 61  2  0
 63 64  1  0
 63 57  2  0
 64 59  2  0
 65 58  1  0
 66 56  1  0
 68 70  2  0
 69 68  1  0
 71 69  1  0
 72 81  2  0
 72 77  1  0
 73 69  1  0
 73 77  1  0
 74 73  1  0
 75 76  1  0
 75 74  1  0
 76 72  1  0
 77 78  2  0
 78 79  1  0
 80 79  2  0
 81 80  1  0
 82 56  1  0
 82 83  1  0
 82 92  1  0
 83 86  1  0
 84 88  1  0
 84 83  1  0
 85 84  2  0
 88 87  1  0
 90 88  1  0
 90 91  1  0
 90 89  1  0
 92 95  1  1
 92 93  1  0
 94 92  1  0
M  ISO  4  13 100  14 100  54 101  55 101
M  END
>  <TORSDO>  (83) 
F 22

>  <SCORE>  (83) 
-12.302

>  <name>  (83) 
82

>  <ligand_id>  (83) 
82

>  <original_smiles>  (83) 
[H]c1c([H])c([H])c2c(c1[H])C([H])([H])C([H])([H])C([H])([H])C2([H])N([H])C(=O)C1([H])N(C(=O)C([H])(N([H])C(=O)C([H])(N([H])C([H])([H])[H])C([H])([H])[H])C(C([H])([H])[H])(C([H])([H])[H])C([H])([H])[H])C([H])([H])c2c([H])c(OC([H])([H])C([H])([H])C([H])([H])N(c3c([H])c(F)c(N(C(=O)C([H])([H])C(=O)N4C([H])([H])C([H])([H])C([H])([H])C([H])(n5nc(-c6c([H])c([H])c(Oc7c([H])c([H])c(F)c([H])c7F)c([H])c6[H])c(C(=O)N([H])[H])c5N([H])[H])C4([H])[H])C([H])([H])[H])c([H])c3F)C([H])([H])[H])c([H])c([H])c2C1([H])[H]

>  <smiles>  (83) 
[H]c1c([H])c([H])c2c(c1[H])C([H])([H])C([H])([H])C([H])([H])C2([H])N([H])C(=O)C1([H])N(C(=O)C([H])(N([H])C(=O)C([H])(N([H])C([H])([H])[H])C([H])([H])[H])C(C([H])([H])[H])(C([H])([H])[H])C([H])([H])[H])C([H])([H])c2c([H])c(OC([H])([H])C([H])([H])C([H])([H])N(c3c([H])c(F)c(N(C(=O)C([H])([H])C(=O)N4C([H])([H])C([H])([H])C([H])([H])C([H])(n5nc(-c6c([H])c([H])c(Oc7c([H])c([H])c(F)c([H])c7F)c([H])c6[H])c(C(=O)N([H])[H])c5N([H])[H])C4([H])[H])C([H])([H])[H])c([H])c3F)C([H])([H])[H])c([H])c([H])c2C1([H])[H]

$$$$
83:0:0
     RDKit          3D

 96105  0  0  1  0  0  0  0  0999 V2000
  -28.2820  -23.2340   18.9780 C   0  0  0  0  0  2  0  0  0  0  0  0
  -30.6270  -24.1340   19.2540 C   0  0  0  0  0  2  0  0  0  0  0  0
  -28.5070  -22.2660   20.1560 C   0  0  0  0  0  2  0  0  0  0  0  0
  -30.8640  -23.1700   20.4330 C   0  0  0  0  0  2  0  0  0  0  0  0
  -29.1400  -24.5150   19.0820 C   0  0  0  0  0  3  0  0  0  0  0  0
  -29.9980  -21.8960   20.3230 C   0  0  0  0  0  3  0  0  0  0  0  0
  -28.6400  -25.5000   20.1670 C   0  0  0  0  0  2  0  0  0  0  0  0
  -28.6510  -26.8470   19.6820 O   0  0  0  0  0  0  0  0  0  0  0  0
  -24.6700  -31.6620   23.0700 C   0  0  0  0  0  0  0  0  0  0  0  0
  -27.4490  -27.5140   19.7310 C   0  0  0  0  0  0  0  0  0  0  0  0
  -23.5040  -30.3260   21.3430 C   0  0  0  0  0  3  0  0  0  0  0  0
  -25.0040  -28.9230   19.8300 C   0  0  0  0  0  0  0  0  0  0  0  0
  -26.0150  -30.7800   21.1670 C   0  0  0  0  0  2  0  0  0  0  0  0
  -26.1430  -29.4540   20.4470 C   0  0  0  0  0  0  0  0  0  0  0  0
  -27.3700  -28.7590   20.3910 C   0  0  0  0  0  3  0  0  0  0  0  0
  -26.2960  -26.9920   19.1050 C   0  0  0  0  0  3  0  0  0  0  0  0
  -25.0730  -27.6900   19.1570 C   0  0  0  0  0  3  0  0  0  0  0  0
  -23.7320  -29.7360   19.9240 C   0  0  0  0  0  2  0  0  0  0  0  0
  -24.7470  -30.9340   21.9190 N   0  0  0  0  0  0  0  0  0  0  0  0
  -23.5820  -31.8680   23.6250 O   0  0  0  0  0  0  0  0  0  0  0  0
  -22.8860  -29.2290   22.2380 C   0  0  0  0  0  0  0  0  0  0  0  0
  -21.5610  -29.0460   22.1290 N   0  0  0  0  0  0  0  0  0  0  0  0
  -23.5940  -28.5480   22.9850 O   0  0  0  0  0  0  0  0  0  0  0  0
  -21.0500  -29.6510   21.5000 H   0  0  0  0  0  0  0  0  0  0  0  0
  -18.2080  -27.7900   22.6100 C   0  0  0  0  0  0  0  0  0  0  0  0
  -20.7680  -28.0470   22.8450 C   0  0  0  0  0  3  0  0  0  0  0  0
  -20.8680  -26.6640   22.1600 C   0  0  0  0  0  2  0  0  0  0  0  0
  -19.7450  -26.4110   21.1480 C   0  0  0  0  0  2  0  0  0  0  0  0
  -18.3770  -26.4960   21.8320 C   0  0  0  0  0  2  0  0  0  0  0  0
  -19.3300  -28.5270   23.0710 C   0  0  0  0  0  0  0  0  0  0  0  0
  -19.1190  -29.7410   23.7600 C   0  0  0  0  0  3  0  0  0  0  0  0
  -17.8150  -30.2200   23.9890 C   0  0  0  0  0  3  0  0  0  0  0  0
  -16.7060  -29.4800   23.5430 C   0  0  0  0  0  3  0  0  0  0  0  0
  -16.9040  -28.2660   22.8600 C   0  0  0  0  0  3  0  0  0  0  0  0
  -25.9380  -32.2900   23.7270 C   0  0  0  0  0  3  0  0  0  0  0  0
  -26.4460  -31.4900   24.9900 C   0  0  1  0  0  0  0  0  0  0  0  0
  -25.3440  -31.2290   26.0430 C   0  0  0  0  0  1  0  0  0  0  0  0
  -27.0300  -30.1210   24.5680 C   0  0  0  0  0  1  0  0  0  0  0  0
  -27.5910  -32.2680   25.6790 C   0  0  0  0  0  1  0  0  0  0  0  0
  -25.6080  -33.6760   24.0870 N   0  0  0  0  0  0  0  0  0  0  0  0
  -25.9460  -34.7490   23.3610 C   0  0  0  0  0  0  0  0  0  0  0  0
  -26.6390  -34.6790   22.3420 O   0  0  0  0  0  0  0  0  0  0  0  0
  -24.9950  -33.8040   24.8790 H   0  0  0  0  0  0  0  0  0  0  0  0
  -24.2040  -36.5300   23.0120 C   0  0  0  0  0  1  0  0  0  0  0  0
  -25.4320  -36.1200   23.8410 C   0  0  0  0  0  3  0  0  0  0  0  0
  -27.5370  -37.0080   24.7400 C   0  0  0  0  0  1  0  0  0  0  0  0
  -26.4540  -37.1870   23.7760 N   0  0  0  0  0  0  0  0  0  0  0  0
  -26.0340  -38.0980   23.9410 H   0  0  0  0  0  0  0  0  0  0  0  0
  -30.2130  -21.0030   21.4700 N   0  0  0  0  0  0  0  0  0  0  0  0
  -29.8540  -17.2860   21.7480 C   0  0  0  0  0  3  0  0  0  0  0  0
  -29.5900  -18.6620   21.8400 C   0  0  0  0  0  3  0  0  0  0  0  0
  -31.8600  -17.7540   20.4610 C   0  0  0  0  0  3  0  0  0  0  0  0
  -30.9910  -16.8170   21.0630 C   0  0  0  0  0  0  0  0  0  0  0  0
  -30.4660  -19.6200   21.2740 C   0  0  0  0  0  0  0  0  0  0  0  0
  -31.6050  -19.1400   20.5670 C   0  0  0  0  0  0  0  0  0  0  0  0
  -32.5000  -20.0020   20.0240 F   0  0  0  0  0  0  0  0  0  0  0  0
  -31.6710  -14.6560   20.0650 C   0  0  0  0  0  0  0  0  0  0  0  0
  -31.2260  -12.6080   18.7590 C   0  0  0  0  0  2  0  0  0  0  0  0
  -30.2520  -12.9190   17.6050 C   0  0  0  0  0  2  0  0  0  0  0  0
  -28.7860  -12.8490   18.0750 C   0  0  0  0  0  2  0  0  0  0  0  0
  -28.5420  -13.6470   19.3820 C   0  0  0  0  0  3  0  0  0  0  0  0
  -29.6020  -13.2710   20.4380 C   0  0  0  0  0  2  0  0  0  0  0  0
  -30.9410  -13.5280   19.8680 N   0  0  0  0  0  0  0  0  0  0  0  0
  -32.6890  -14.9360   19.4220 O   0  0  0  0  0  0  0  0  0  0  0  0
  -31.2080  -15.4160   21.0690 N   0  0  0  0  0  0  0  0  0  0  0  0
  -30.5430  -14.9030   21.6270 H   0  0  0  0  0  0  0  0  0  0  0  0
  -26.2000  -14.3850   20.1710 C   0  0  0  0  0  0  0  0  0  0  0  0
  -25.0970  -13.6690   20.5510 C   0  0  0  0  0  0  0  0  0  0  0  0
  -25.4730  -12.2920   20.4710 C   0  0  0  0  0  0  0  0  0  0  0  0
  -27.1830  -13.4480   19.8870 N   0  0  0  0  0  0  0  0  0  0  0  0
  -26.7480  -12.1840   20.1200 N   0  0  0  0  0  0  0  0  0  0  0  0
  -24.6800  -11.0710   20.6550 C   0  0  0  0  0  0  0  0  0  0  0  0
  -25.0350  -10.0980   21.6140 C   0  0  0  0  0  3  0  0  0  0  0  0
  -24.2450   -8.9390   21.7850 C   0  0  0  0  0  3  0  0  0  0  0  0
  -23.0880   -8.7470   20.9950 C   0  0  0  0  0  0  0  0  0  0  0  0
  -22.7510   -9.7090   20.0260 C   0  0  0  0  0  3  0  0  0  0  0  0
  -23.5400  -10.8590   19.8540 C   0  0  0  0  0  3  0  0  0  0  0  0
  -22.2790   -7.6390   21.0710 O   0  0  0  0  0  0  0  0  0  0  0  0
  -22.0240   -7.0150   22.2650 C   0  0  0  0  0  0  0  0  0  0  0  0
  -21.4670   -7.7060   23.3630 C   0  0  0  0  0  3  0  0  0  0  0  0
  -21.1550   -7.0110   24.5490 C   0  0  0  0  0  3  0  0  0  0  0  0
  -21.3890   -5.6260   24.6370 C   0  0  0  0  0  0  0  0  0  0  0  0
  -21.9390   -4.9350   23.5420 C   0  0  0  0  0  3  0  0  0  0  0  0
  -22.2530   -5.6280   22.3590 C   0  0  0  0  0  0  0  0  0  0  0  0
  -22.7620   -4.9530   21.3000 F   0  0  0  0  0  0  0  0  0  0  0  0
  -21.0830   -4.9560   25.7720 F   0  0  0  0  0  0  0  0  0  0  0  0
  -23.7390  -14.2210   20.8790 C   0  0  0  0  0  0  0  0  0  0  0  0
  -23.0220  -13.5820   21.7960 N   0  0  0  0  0  0  0  0  0  0  0  0
  -23.3250  -15.2550   20.3560 O   0  0  0  0  0  0  0  0  0  0  0  0
  -23.3690  -12.7440   22.2400 H   0  0  0  0  0  0  0  0  0  0  0  0
  -22.1130  -13.9360   22.0580 H   0  0  0  0  0  0  0  0  0  0  0  0
  -26.4460  -15.7470   20.0290 N   0  0  0  0  0  0  0  0  0  0  0  0
  -25.7340  -16.4500   20.2030 H   0  0  0  0  0  0  0  0  0  0  0  0
  -27.3220  -16.1430   19.7100 H   0  0  0  0  0  0  0  0  0  0  0  0
  -31.3010  -21.3440   23.7000 C   0  0  0  0  0  1  0  0  0  0  0  0
  -30.0400  -21.5070   22.8380 C   0  0  0  0  0  2  0  0  0  0  0  0
  1  5  1  0
  1  3  1  0
  2  4  1  0
  3  6  1  0
  5  2  1  0
  5  7  1  0
  6  4  1  0
  6 49  1  0
  8 10  1  0
  8  7  1  0
  9 20  2  0
 10 15  1  0
 11 19  1  0
 11 21  1  0
 12 18  1  0
 12 14  1  0
 13 19  1  0
 14 13  1  0
 15 14  2  0
 16 17  1  0
 16 10  2  0
 17 12  2  0
 18 11  1  0
 19  9  1  0
 21 23  2  0
 22 21  1  0
 24 22  1  0
 25 34  2  0
 25 30  1  0
 26 22  1  0
 26 30  1  0
 27 26  1  0
 28 29  1  0
 28 27  1  0
 29 25  1  0
 30 31  2  0
 31 32  1  0
 33 32  2  0
 34 33  1  0
 35  9  1  0
 35 40  1  0
 35 36  1  0
 36 39  1  1
 36 37  1  0
 38 36  1  0
 40 43  1  0
 41 45  1  0
 41 40  1  0
 42 41  2  0
 45 44  1  0
 47 45  1  0
 47 48  1  0
 47 46  1  0
 49 96  1  0
 50 51  1  0
 52 55  2  0
 52 53  1  0
 53 65  1  0
 53 50  2  0
 54 49  1  0
 54 51  2  0
 55 54  1  0
 56 55  1  0
 57 65  1  0
 58 63  1  0
 59 60  1  0
 59 58  1  0
 61 60  1  0
 61 70  1  0
 61 62  1  0
 63 57  1  0
 63 62  1  0
 64 57  2  0
 65 66  1  0
 67 68  2  0
 68 87  1  0
 69 68  1  0
 69 72  1  0
 70 71  1  0
 70 67  1  0
 71 69  2  0
 72 73  1  0
 73 74  2  0
 75 78  1  0
 75 74  1  0
 76 75  2  0
 77 76  1  0
 77 72  2  0
 78 79  1  0
 79 84  2  0
 79 80  1  0
 80 81  2  0
 81 82  1  0
 82 86  1  0
 83 82  2  0
 84 83  1  0
 85 84  1  0
 87 88  1  0
 88 91  1  0
 88 90  1  0
 89 87  2  0
 92 67  1  0
 92 93  1  0
 94 92  1  0
 96 95  1  0
M  ISO  4   7 101   8 101  57 100  65 100
M  END
>  <TORSDO>  (84) 
F 20

>  <SCORE>  (84) 
-11.805

>  <name>  (84) 
83

>  <ligand_id>  (84) 
83

>  <original_smiles>  (84) 
[H]c1c([H])c([H])c2c(c1[H])C([H])([H])C([H])([H])C([H])([H])C2([H])N([H])C(=O)C1([H])N(C(=O)C([H])(N([H])C(=O)C([H])(N([H])C([H])([H])[H])C([H])([H])[H])C(C([H])([H])[H])(C([H])([H])[H])C([H])([H])[H])C([H])([H])c2c([H])c(OC([H])([H])C3([H])C([H])([H])C([H])([H])C([H])(N(c4c([H])c([H])c(N([H])C(=O)N5C([H])([H])C([H])([H])C([H])([H])C([H])(n6nc(-c7c([H])c([H])c(Oc8c([H])c([H])c(F)c([H])c8F)c([H])c7[H])c(C(=O)N([H])[H])c6N([H])[H])C5([H])[H])c([H])c4F)C([H])([H])C([H])([H])[H])C([H])([H])C3([H])[H])c([H])c([H])c2C1([H])[H]

>  <smiles>  (84) 
[H]c1c([H])c([H])c2c(c1[H])C([H])([H])C([H])([H])C([H])([H])C2([H])N([H])C(=O)C1([H])N(C(=O)C([H])(N([H])C(=O)C([H])(N([H])C([H])([H])[H])C([H])([H])[H])C(C([H])([H])[H])(C([H])([H])[H])C([H])([H])[H])C([H])([H])c2c([H])c(OC([H])([H])C3([H])C([H])([H])C([H])([H])C([H])(N(c4c([H])c([H])c(N([H])C(=O)N5C([H])([H])C([H])([H])C([H])([H])C([H])(n6nc(-c7c([H])c([H])c(Oc8c([H])c([H])c(F)c([H])c8F)c([H])c7[H])c(C(=O)N([H])[H])c6N([H])[H])C5([H])[H])c([H])c4F)C([H])([H])C([H])([H])[H])C([H])([H])C3([H])[H])c([H])c([H])c2C1([H])[H]

$$$$
84:0:0
     RDKit          3D

 92101  0  0  1  0  0  0  0  0999 V2000
  -28.6090  -23.5370   18.9490 C   0  0  0  0  0  2  0  0  0  0  0  0
  -28.4740  -21.9980   18.8640 C   0  0  0  0  0  2  0  0  0  0  0  0
  -28.6120  -22.6380   21.1580 C   0  0  0  0  0  2  0  0  0  0  0  0
  -28.0740  -23.8900   20.3370 C   0  0  0  0  0  3  0  0  0  0  0  0
  -28.6700  -21.4860   20.2190 N   0  0  0  0  0  0  0  0  0  0  0  0
  -28.1770  -19.1050   19.7910 C   0  0  0  0  0  3  0  0  0  0  0  0
  -28.5040  -17.7210   19.8030 C   0  0  0  0  0  3  0  0  0  0  0  0
  -30.4280  -18.1660   21.1630 C   0  0  0  0  0  3  0  0  0  0  0  0
  -28.9720  -20.0860   20.4340 C   0  0  0  0  0  0  0  0  0  0  0  0
  -29.6650  -17.2020   20.4400 C   0  0  0  0  0  0  0  0  0  0  0  0
  -30.0870  -19.5670   21.1660 C   0  0  0  0  0  0  0  0  0  0  0  0
  -30.9070  -20.4300   21.8180 F   0  0  0  0  0  0  0  0  0  0  0  0
  -30.7680  -14.8340   20.7570 C   0  0  0  0  0  0  0  0  0  0  0  0
  -30.6760  -12.5030   19.8870 C   0  0  0  0  0  2  0  0  0  0  0  0
  -29.8160  -12.4290   18.6050 C   0  0  0  0  0  2  0  0  0  0  0  0
  -28.3100  -12.3430   18.9270 C   0  0  0  0  0  2  0  0  0  0  0  0
  -27.8490  -13.2900   20.0690 C   0  0  0  0  0  3  0  0  0  0  0  0
  -28.8310  -13.2850   21.2570 C   0  0  0  0  0  2  0  0  0  0  0  0
  -30.1570  -13.6050   20.7220 N   0  0  0  0  0  0  0  0  0  0  0  0
  -32.0010  -14.9070   20.7800 O   0  0  0  0  0  0  0  0  0  0  0  0
  -30.3140  -15.7670   18.6110 C   0  0  0  0  0  1  0  0  0  0  0  0
  -30.0870  -15.8330   20.0680 N   0  0  0  0  0  0  0  0  0  0  0  0
  -25.4120  -13.8760   20.6220 C   0  0  0  0  0  0  0  0  0  0  0  0
  -24.3280  -13.1000   20.9260 C   0  0  0  0  0  0  0  0  0  0  0  0
  -24.8050  -11.7540   20.9670 C   0  0  0  0  0  0  0  0  0  0  0  0
  -26.4790  -13.0030   20.4850 N   0  0  0  0  0  0  0  0  0  0  0  0
  -26.1150  -11.7240   20.7620 N   0  0  0  0  0  0  0  0  0  0  0  0
  -24.0800  -10.4880   21.1330 C   0  0  0  0  0  0  0  0  0  0  0  0
  -24.4710   -9.5320   22.0960 C   0  0  0  0  0  3  0  0  0  0  0  0
  -23.7440   -8.3310   22.2480 C   0  0  0  0  0  3  0  0  0  0  0  0
  -22.6140   -8.0770   21.4360 C   0  0  0  0  0  0  0  0  0  0  0  0
  -22.2440   -9.0220   20.4620 C   0  0  0  0  0  3  0  0  0  0  0  0
  -22.9700  -10.2130   20.3080 C   0  0  0  0  0  3  0  0  0  0  0  0
  -21.8630   -6.9270   21.4960 O   0  0  0  0  0  0  0  0  0  0  0  0
  -21.7760   -6.1840   22.6460 C   0  0  0  0  0  0  0  0  0  0  0  0
  -21.3170   -6.7410   23.8610 C   0  0  0  0  0  3  0  0  0  0  0  0
  -21.1760   -5.9240   25.0010 C   0  0  0  0  0  3  0  0  0  0  0  0
  -21.4860   -4.5530   24.9280 C   0  0  0  0  0  0  0  0  0  0  0  0
  -21.9390   -3.9970   23.7200 C   0  0  0  0  0  3  0  0  0  0  0  0
  -22.0810   -4.8090   22.5810 C   0  0  0  0  0  0  0  0  0  0  0  0
  -22.4970   -4.2630   21.4140 F   0  0  0  0  0  0  0  0  0  0  0  0
  -21.3450   -3.7670   26.0220 F   0  0  0  0  0  0  0  0  0  0  0  0
  -22.9090  -13.5680   21.0780 C   0  0  0  0  0  0  0  0  0  0  0  0
  -22.1260  -12.8850   21.9050 N   0  0  0  0  0  0  0  0  0  0  0  0
  -22.5020  -14.5740   20.4990 O   0  0  0  0  0  0  0  0  0  0  0  0
  -22.4660  -12.0690   22.3910 H   0  0  0  0  0  0  0  0  0  0  0  0
  -21.1740  -13.1860   22.0570 H   0  0  0  0  0  0  0  0  0  0  0  0
  -25.5840  -15.2440   20.4260 N   0  0  0  0  0  0  0  0  0  0  0  0
  -24.8230  -15.9100   20.4880 H   0  0  0  0  0  0  0  0  0  0  0  0
  -26.4730  -15.6780   20.2190 H   0  0  0  0  0  0  0  0  0  0  0  0
  -28.3860  -25.3590   20.8810 C   0  0  0  0  0  2  0  0  0  0  0  0
  -28.2950  -26.5660   20.0340 O   0  0  0  0  0  0  0  0  0  0  0  0
  -24.5550  -31.8890   23.1610 C   0  0  0  0  0  0  0  0  0  0  0  0
  -27.1550  -27.3670   20.0840 C   0  0  0  0  0  0  0  0  0  0  0  0
  -23.3380  -30.4860   21.5300 C   0  0  0  0  0  3  0  0  0  0  0  0
  -24.7800  -28.9410   20.0900 C   0  0  0  0  0  0  0  0  0  0  0  0
  -25.8680  -30.8290   21.3110 C   0  0  0  0  0  2  0  0  0  0  0  0
  -25.9500  -29.4490   20.6720 C   0  0  0  0  0  0  0  0  0  0  0  0
  -27.1440  -28.6740   20.6570 C   0  0  0  0  0  3  0  0  0  0  0  0
  -25.9720  -26.8990   19.4820 C   0  0  0  0  0  3  0  0  0  0  0  0
  -24.7930  -27.6720   19.4850 C   0  0  0  0  0  3  0  0  0  0  0  0
  -23.5360  -29.8040   20.1490 C   0  0  0  0  0  2  0  0  0  0  0  0
  -24.6080  -31.0860   22.0580 N   0  0  0  0  0  0  0  0  0  0  0  0
  -23.4790  -32.1620   23.7090 O   0  0  0  0  0  0  0  0  0  0  0  0
  -22.6940  -29.4670   22.4990 C   0  0  0  0  0  0  0  0  0  0  0  0
  -21.3670  -29.2890   22.3930 N   0  0  0  0  0  0  0  0  0  0  0  0
  -23.3880  -28.8360   23.3010 O   0  0  0  0  0  0  0  0  0  0  0  0
  -20.8680  -29.8520   21.7180 H   0  0  0  0  0  0  0  0  0  0  0  0
  -18.0000  -28.0900   22.9340 C   0  0  0  0  0  0  0  0  0  0  0  0
  -20.5610  -28.3470   23.1690 C   0  0  0  0  0  3  0  0  0  0  0  0
  -20.6540  -26.9190   22.5830 C   0  0  0  0  0  2  0  0  0  0  0  0
  -19.5380  -26.6010   21.5840 C   0  0  0  0  0  2  0  0  0  0  0  0
  -18.1650  -26.7440   22.2480 C   0  0  0  0  0  2  0  0  0  0  0  0
  -19.1240  -28.8490   23.3510 C   0  0  0  0  0  0  0  0  0  0  0  0
  -18.9150  -30.1090   23.9530 C   0  0  0  0  0  3  0  0  0  0  0  0
  -17.6130  -30.6100   24.1410 C   0  0  0  0  0  3  0  0  0  0  0  0
  -16.5020  -29.8470   23.7410 C   0  0  0  0  0  3  0  0  0  0  0  0
  -16.6960  -28.5890   23.1430 C   0  0  0  0  0  3  0  0  0  0  0  0
  -25.8440  -32.5240   23.7720 C   0  0  0  0  0  3  0  0  0  0  0  0
  -25.5280  -33.9150   24.1300 N   0  0  0  0  0  0  0  0  0  0  0  0
  -25.8460  -34.9830   23.3870 C   0  0  0  0  0  0  0  0  0  0  0  0
  -26.5100  -34.9040   22.3510 O   0  0  0  0  0  0  0  0  0  0  0  0
  -24.9430  -34.0520   24.9410 H   0  0  0  0  0  0  0  0  0  0  0  0
  -24.1100  -36.7760   23.0670 C   0  0  0  0  0  1  0  0  0  0  0  0
  -25.3510  -36.3610   23.8730 C   0  0  0  0  0  3  0  0  0  0  0  0
  -27.4840  -37.2330   24.7230 C   0  0  0  0  0  1  0  0  0  0  0  0
  -26.3800  -37.4190   23.7840 N   0  0  0  0  0  0  0  0  0  0  0  0
  -25.9710  -38.3340   23.9540 H   0  0  0  0  0  0  0  0  0  0  0  0
  -26.3880  -31.7390   25.0290 C   0  0  1  0  0  0  0  0  0  0  0  0
  -25.3130  -31.4810   26.1120 C   0  0  0  0  0  1  0  0  0  0  0  0
  -26.9740  -30.3720   24.6080 C   0  0  0  0  0  1  0  0  0  0  0  0
  -27.5430  -32.5340   25.6810 C   0  0  0  0  0  1  0  0  0  0  0  0
  1  4  1  0
  2  1  1  0
  2  5  1  0
  4 51  1  0
  4  3  1  0
  5  9  1  0
  5  3  1  0
  6  7  2  0
  6  9  1  0
  7 10  1  0
  8 11  1  0
  9 11  2  0
 10  8  2  0
 11 12  1  0
 13 20  2  0
 14 19  1  0
 15 16  1  0
 15 14  1  0
 17 16  1  0
 17 26  1  0
 17 18  1  0
 19 13  1  0
 19 18  1  0
 21 22  1  0
 22 10  1  0
 22 13  1  0
 23 24  2  0
 24 25  1  0
 24 43  1  0
 25 28  1  0
 26 23  1  0
 26 27  1  0
 27 25  2  0
 28 29  1  0
 29 30  2  0
 31 34  1  0
 31 30  1  0
 32 31  2  0
 33 32  1  0
 33 28  2  0
 34 35  1  0
 35 36  1  0
 36 37  2  0
 38 37  1  0
 38 42  1  0
 39 38  2  0
 40 35  2  0
 40 39  1  0
 41 40  1  0
 43 44  1  0
 44 47  1  0
 44 46  1  0
 45 43  2  0
 48 49  1  0
 48 23  1  0
 50 48  1  0
 52 54  1  0
 52 51  1  0
 53 64  2  0
 54 59  1  0
 55 63  1  0
 55 65  1  0
 56 62  1  0
 56 58  1  0
 57 63  1  0
 58 57  1  0
 59 58  2  0
 60 61  1  0
 60 54  2  0
 61 56  2  0
 62 55  1  0
 63 53  1  0
 65 67  2  0
 66 65  1  0
 68 66  1  0
 69 78  2  0
 69 74  1  0
 70 66  1  0
 70 74  1  0
 71 70  1  0
 72 73  1  0
 72 71  1  0
 73 69  1  0
 74 75  2  0
 75 76  1  0
 77 76  2  0
 78 77  1  0
 79 53  1  0
 79 80  1  0
 79 89  1  0
 80 83  1  0
 81 85  1  0
 81 80  1  0
 82 81  2  0
 85 84  1  0
 87 85  1  0
 87 88  1  0
 87 86  1  0
 89 92  1  1
 89 90  1  0
 91 89  1  0
M  ISO  4  13 100  22 100  51 101  52 101
M  END
>  <TORSDO>  (85) 
F 18

>  <SCORE>  (85) 
-14.593

>  <name>  (85) 
84

>  <ligand_id>  (85) 
84

>  <original_smiles>  (85) 
[H]c1c([H])c([H])c2c(c1[H])C([H])([H])C([H])([H])C([H])([H])C2([H])N([H])C(=O)C1([H])N(C(=O)C([H])(N([H])C(=O)C([H])(N([H])C([H])([H])[H])C([H])([H])[H])C(C([H])([H])[H])(C([H])([H])[H])C([H])([H])[H])C([H])([H])c2c([H])c(OC([H])([H])C3([H])C([H])([H])N(c4c([H])c([H])c(N(C(=O)N5C([H])([H])C([H])([H])C([H])([H])C([H])(n6nc(-c7c([H])c([H])c(Oc8c([H])c([H])c(F)c([H])c8F)c([H])c7[H])c(C(=O)N([H])[H])c6N([H])[H])C5([H])[H])C([H])([H])[H])c([H])c4F)C([H])([H])C3([H])[H])c([H])c([H])c2C1([H])[H]

>  <smiles>  (85) 
[H]c1c([H])c([H])c2c(c1[H])C([H])([H])C([H])([H])C([H])([H])C2([H])N([H])C(=O)C1([H])N(C(=O)C([H])(N([H])C(=O)C([H])(N([H])C([H])([H])[H])C([H])([H])[H])C(C([H])([H])[H])(C([H])([H])[H])C([H])([H])[H])C([H])([H])c2c([H])c(OC([H])([H])C3([H])C([H])([H])N(c4c([H])c([H])c(N(C(=O)N5C([H])([H])C([H])([H])C([H])([H])C([H])(n6nc(-c7c([H])c([H])c(Oc8c([H])c([H])c(F)c([H])c8F)c([H])c7[H])c(C(=O)N([H])[H])c6N([H])[H])C5([H])[H])C([H])([H])[H])c([H])c4F)C([H])([H])C3([H])[H])c([H])c([H])c2C1([H])[H]

$$$$
85:0:0
     RDKit          3D

 91 99  0  0  1  0  0  0  0  0999 V2000
  -28.1370  -22.3490   22.5800 C   0  0  0  0  0  1  0  0  0  0  0  0
  -29.0540  -22.2430   21.4440 N   0  0  0  0  0  0  0  0  0  0  0  0
  -30.6790  -18.9020   21.9470 C   0  0  0  0  0  3  0  0  0  0  0  0
  -29.8280  -18.9990   19.6790 C   0  0  0  0  0  3  0  0  0  0  0  0
  -30.1830  -20.2010   22.1870 C   0  0  0  0  0  3  0  0  0  0  0  0
  -29.3550  -20.3090   19.9130 C   0  0  0  0  0  3  0  0  0  0  0  0
  -30.4990  -18.2780   20.6950 C   0  0  0  0  0  0  0  0  0  0  0  0
  -29.5190  -20.9340   21.1740 C   0  0  0  0  0  0  0  0  0  0  0  0
  -31.1680  -16.9330   20.3840 C   0  0  0  0  0  2  0  0  0  0  0  0
  -30.8420  -14.5460   19.9580 C   0  0  0  0  0  0  0  0  0  0  0  0
  -30.3640  -12.3860   18.8480 C   0  0  0  0  0  2  0  0  0  0  0  0
  -29.3640  -12.5690   17.6880 C   0  0  0  0  0  2  0  0  0  0  0  0
  -27.9250  -12.3920   18.2000 C   0  0  0  0  0  2  0  0  0  0  0  0
  -27.6530  -13.2570   19.4570 C   0  0  0  0  0  3  0  0  0  0  0  0
  -28.7720  -13.0880   20.5060 C   0  0  0  0  0  2  0  0  0  0  0  0
  -30.0690  -13.4120   19.8750 N   0  0  0  0  0  0  0  0  0  0  0  0
  -31.8670  -14.6330   19.2680 O   0  0  0  0  0  0  0  0  0  0  0  0
  -29.8750  -15.5920   22.0130 C   0  0  0  0  0  1  0  0  0  0  0  0
  -30.4420  -15.6540   20.6600 N   0  0  0  0  0  0  0  0  0  0  0  0
  -25.3240  -13.8590   20.3650 C   0  0  0  0  0  0  0  0  0  0  0  0
  -24.2840  -13.0830   20.7990 C   0  0  0  0  0  0  0  0  0  0  0  0
  -24.7340  -11.7310   20.7070 C   0  0  0  0  0  0  0  0  0  0  0  0
  -26.3400  -12.9770   20.0310 N   0  0  0  0  0  0  0  0  0  0  0  0
  -25.9950  -11.6910   20.2940 N   0  0  0  0  0  0  0  0  0  0  0  0
  -24.0200  -10.4680   20.9300 C   0  0  0  0  0  0  0  0  0  0  0  0
  -24.4760   -9.5190   21.8700 C   0  0  0  0  0  3  0  0  0  0  0  0
  -23.7610   -8.3220   22.0820 C   0  0  0  0  0  3  0  0  0  0  0  0
  -22.5760   -8.0650   21.3530 C   0  0  0  0  0  0  0  0  0  0  0  0
  -22.1380   -9.0050   20.4030 C   0  0  0  0  0  3  0  0  0  0  0  0
  -22.8530  -10.1940   20.1910 C   0  0  0  0  0  3  0  0  0  0  0  0
  -21.8320   -6.9150   21.4700 O   0  0  0  0  0  0  0  0  0  0  0  0
  -21.7440   -6.2320   22.6560 C   0  0  0  0  0  0  0  0  0  0  0  0
  -21.2720   -6.8450   23.8380 C   0  0  0  0  0  3  0  0  0  0  0  0
  -21.1330   -6.0870   25.0160 C   0  0  0  0  0  3  0  0  0  0  0  0
  -21.4570   -4.7180   25.0170 C   0  0  0  0  0  0  0  0  0  0  0  0
  -21.9230   -4.1040   23.8400 C   0  0  0  0  0  3  0  0  0  0  0  0
  -22.0640   -4.8600   22.6640 C   0  0  0  0  0  0  0  0  0  0  0  0
  -22.4940   -4.2590   21.5270 F   0  0  0  0  0  0  0  0  0  0  0  0
  -21.3160   -3.9870   26.1470 F   0  0  0  0  0  0  0  0  0  0  0  0
  -22.9170  -13.5640   21.1920 C   0  0  0  0  0  0  0  0  0  0  0  0
  -22.2650  -12.8700   22.1190 N   0  0  0  0  0  0  0  0  0  0  0  0
  -22.4370  -14.5890   20.7100 O   0  0  0  0  0  0  0  0  0  0  0  0
  -22.6650  -12.0410   22.5300 H   0  0  0  0  0  0  0  0  0  0  0  0
  -21.3520  -13.1760   22.4220 H   0  0  0  0  0  0  0  0  0  0  0  0
  -25.4800  -15.2320   20.2090 N   0  0  0  0  0  0  0  0  0  0  0  0
  -24.7280  -15.8830   20.4090 H   0  0  0  0  0  0  0  0  0  0  0  0
  -26.3240  -15.6890   19.8850 H   0  0  0  0  0  0  0  0  0  0  0  0
  -28.9170  -23.1870   20.3270 C   0  0  0  0  0  2  0  0  0  0  0  0
  -28.7330  -24.6650   20.7560 C   0  0  0  0  0  2  0  0  0  0  0  0
  -28.6730  -25.6020   19.5350 C   0  0  0  0  0  2  0  0  0  0  0  0
  -28.5220  -26.9680   19.9240 O   0  0  0  0  0  0  0  0  0  0  0  0
  -24.6430  -31.9220   23.1970 C   0  0  0  0  0  0  0  0  0  0  0  0
  -27.2880  -27.5890   19.9660 C   0  0  0  0  0  0  0  0  0  0  0  0
  -23.4100  -30.5260   21.5620 C   0  0  0  0  0  3  0  0  0  0  0  0
  -24.8530  -29.0380   20.0760 C   0  0  0  0  0  0  0  0  0  0  0  0
  -25.9230  -30.9390   21.3000 C   0  0  0  0  0  2  0  0  0  0  0  0
  -26.0160  -29.5800   20.6330 C   0  0  0  0  0  0  0  0  0  0  0  0
  -27.2310  -28.8660   20.5710 C   0  0  0  0  0  3  0  0  0  0  0  0
  -26.0990  -27.0480   19.4210 C   0  0  0  0  0  3  0  0  0  0  0  0
  -24.8890  -27.7710   19.4700 C   0  0  0  0  0  3  0  0  0  0  0  0
  -23.5950  -29.8710   20.1650 C   0  0  0  0  0  2  0  0  0  0  0  0
  -24.6770  -31.1470   22.0760 N   0  0  0  0  0  0  0  0  0  0  0  0
  -23.5730  -32.1610   23.7750 O   0  0  0  0  0  0  0  0  0  0  0  0
  -22.8050  -29.4770   22.5230 C   0  0  0  0  0  0  0  0  0  0  0  0
  -21.4880  -29.2440   22.4020 N   0  0  0  0  0  0  0  0  0  0  0  0
  -23.5150  -28.8730   23.3320 O   0  0  0  0  0  0  0  0  0  0  0  0
  -20.9740  -29.7750   21.7130 H   0  0  0  0  0  0  0  0  0  0  0  0
  -18.1710  -27.8950   22.8690 C   0  0  0  0  0  0  0  0  0  0  0  0
  -20.7090  -28.2750   23.1730 C   0  0  0  0  0  3  0  0  0  0  0  0
  -20.8890  -26.8480   22.6060 C   0  0  0  0  0  2  0  0  0  0  0  0
  -19.8190  -26.4650   21.5810 C   0  0  0  0  0  2  0  0  0  0  0  0
  -18.4240  -26.5500   22.2070 C   0  0  0  0  0  2  0  0  0  0  0  0
  -19.2450  -28.7120   23.3060 C   0  0  0  0  0  0  0  0  0  0  0  0
  -18.9600  -29.9710   23.8790 C   0  0  0  0  0  3  0  0  0  0  0  0
  -17.6310  -30.4110   24.0260 C   0  0  0  0  0  3  0  0  0  0  0  0
  -16.5700  -29.5920   23.6050 C   0  0  0  0  0  3  0  0  0  0  0  0
  -16.8400  -28.3350   23.0330 C   0  0  0  0  0  3  0  0  0  0  0  0
  -25.9380  -32.5580   23.7930 C   0  0  0  0  0  3  0  0  0  0  0  0
  -25.6320  -33.9540   24.1340 N   0  0  0  0  0  0  0  0  0  0  0  0
  -25.9370  -35.0090   23.3650 C   0  0  0  0  0  0  0  0  0  0  0  0
  -26.5810  -34.9120   22.3170 O   0  0  0  0  0  0  0  0  0  0  0  0
  -25.0620  -34.1050   24.9540 H   0  0  0  0  0  0  0  0  0  0  0  0
  -24.1780  -36.7740   23.0510 C   0  0  0  0  0  1  0  0  0  0  0  0
  -25.4440  -36.3910   23.8340 C   0  0  0  0  0  3  0  0  0  0  0  0
  -27.5860  -37.2930   24.6210 C   0  0  0  0  0  1  0  0  0  0  0  0
  -26.4630  -37.4550   23.7010 N   0  0  0  0  0  0  0  0  0  0  0  0
  -26.0510  -38.3700   23.8610 H   0  0  0  0  0  0  0  0  0  0  0  0
  -26.4920  -31.7840   25.0540 C   0  0  1  0  0  0  0  0  0  0  0  0
  -25.4220  -31.5090   26.1340 C   0  0  0  0  0  1  0  0  0  0  0  0
  -27.0960  -30.4250   24.6360 C   0  0  0  0  0  1  0  0  0  0  0  0
  -27.6370  -32.5920   25.7100 C   0  0  0  0  0  1  0  0  0  0  0  0
  2  1  1  0
  3  5  1  0
  4  6  2  0
  4  7  1  0
  6  8  1  0
  7  3  2  0
  8  2  1  0
  8  5  2  0
  9 19  1  0
  9  7  1  0
 10 19  1  0
 11 16  1  0
 12 13  1  0
 12 11  1  0
 14 13  1  0
 14 23  1  0
 14 15  1  0
 16 10  1  0
 16 15  1  0
 17 10  2  0
 19 18  1  0
 20 21  2  0
 21 40  1  0
 22 21  1  0
 22 25  1  0
 23 24  1  0
 23 20  1  0
 24 22  2  0
 25 26  1  0
 26 27  2  0
 28 31  1  0
 28 27  1  0
 29 28  2  0
 30 29  1  0
 30 25  2  0
 31 32  1  0
 32 37  2  0
 32 33  1  0
 33 34  2  0
 34 35  1  0
 35 39  1  0
 36 35  2  0
 37 36  1  0
 38 37  1  0
 40 41  1  0
 41 44  1  0
 41 43  1  0
 42 40  2  0
 45 20  1  0
 45 46  1  0
 47 45  1  0
 48 49  1  0
 48  2  1  0
 50 51  1  0
 50 49  1  0
 51 53  1  0
 52 63  2  0
 53 58  1  0
 54 62  1  0
 54 64  1  0
 55 61  1  0
 55 57  1  0
 56 62  1  0
 57 56  1  0
 58 57  2  0
 59 60  1  0
 59 53  2  0
 60 55  2  0
 61 54  1  0
 62 52  1  0
 64 66  2  0
 65 64  1  0
 67 65  1  0
 68 77  2  0
 68 73  1  0
 69 65  1  0
 69 73  1  0
 70 69  1  0
 71 72  1  0
 71 70  1  0
 72 68  1  0
 73 74  2  0
 74 75  1  0
 76 75  2  0
 77 76  1  0
 78 52  1  0
 78 79  1  0
 78 88  1  0
 79 82  1  0
 80 84  1  0
 80 79  1  0
 81 80  2  0
 84 83  1  0
 86 84  1  0
 86 87  1  0
 86 85  1  0
 88 91  1  1
 88 89  1  0
 90 88  1  0
M  ISO  4  10 100  19 100  50 101  51 101
M  END
>  <TORSDO>  (86) 
F 21

>  <SCORE>  (86) 
-11.894

>  <name>  (86) 
85

>  <ligand_id>  (86) 
85

>  <original_smiles>  (86) 
[H]c1c([H])c([H])c2c(c1[H])C([H])([H])C([H])([H])C([H])([H])C2([H])N([H])C(=O)C1([H])N(C(=O)C([H])(N([H])C(=O)C([H])(N([H])C([H])([H])[H])C([H])([H])[H])C(C([H])([H])[H])(C([H])([H])[H])C([H])([H])[H])C([H])([H])c2c([H])c(OC([H])([H])C([H])([H])C([H])([H])N(c3c([H])c([H])c(C([H])([H])N(C(=O)N4C([H])([H])C([H])([H])C([H])([H])C([H])(n5nc(-c6c([H])c([H])c(Oc7c([H])c([H])c(F)c([H])c7F)c([H])c6[H])c(C(=O)N([H])[H])c5N([H])[H])C4([H])[H])C([H])([H])[H])c([H])c3[H])C([H])([H])[H])c([H])c([H])c2C1([H])[H]

>  <smiles>  (86) 
[H]c1c([H])c([H])c2c(c1[H])C([H])([H])C([H])([H])C([H])([H])C2([H])N([H])C(=O)C1([H])N(C(=O)C([H])(N([H])C(=O)C([H])(N([H])C([H])([H])[H])C([H])([H])[H])C(C([H])([H])[H])(C([H])([H])[H])C([H])([H])[H])C([H])([H])c2c([H])c(OC([H])([H])C([H])([H])C([H])([H])N(c3c([H])c([H])c(C([H])([H])N(C(=O)N4C([H])([H])C([H])([H])C([H])([H])C([H])(n5nc(-c6c([H])c([H])c(Oc7c([H])c([H])c(F)c([H])c7F)c([H])c6[H])c(C(=O)N([H])[H])c5N([H])[H])C4([H])[H])C([H])([H])[H])c([H])c3[H])C([H])([H])[H])c([H])c([H])c2C1([H])[H]

$$$$
86:0:0
     RDKit          3D

 94102  0  0  1  0  0  0  0  0999 V2000
  -28.8700  -20.6470   22.2000 C   0  0  0  0  0  3  0  0  0  0  0  0
  -30.6070  -21.1200   20.5600 C   0  0  0  0  0  3  0  0  0  0  0  0
  -28.8900  -21.9980   22.6070 C   0  0  0  0  0  3  0  0  0  0  0  0
  -30.6330  -22.4660   20.9750 C   0  0  0  0  0  3  0  0  0  0  0  0
  -29.7460  -20.1930   21.1900 C   0  0  0  0  0  0  0  0  0  0  0  0
  -29.7860  -22.9120   22.0090 C   0  0  0  0  0  0  0  0  0  0  0  0
  -30.1030  -24.2650   23.9190 C   0  0  0  0  0  1  0  0  0  0  0  0
  -29.9270  -24.2300   22.4700 N   0  0  0  0  0  0  0  0  0  0  0  0
  -28.9940  -25.2310   21.9510 C   0  0  0  0  0  2  0  0  0  0  0  0
  -28.9540  -25.3730   20.4140 C   0  0  0  0  0  2  0  0  0  0  0  0
  -28.5250  -26.7960   20.0000 C   0  0  0  0  0  2  0  0  0  0  0  0
  -27.5370  -26.7870   18.9640 O   0  0  0  0  0  0  0  0  0  0  0  0
  -24.4040  -31.7410   23.0170 C   0  0  0  0  0  0  0  0  0  0  0  0
  -26.4480  -27.6030   19.1800 C   0  0  0  0  0  0  0  0  0  0  0  0
  -22.9360  -30.5690   21.4030 C   0  0  0  0  0  3  0  0  0  0  0  0
  -24.1290  -29.1520   19.6480 C   0  0  0  0  0  0  0  0  0  0  0  0
  -25.4250  -30.8750   20.9180 C   0  0  0  0  0  2  0  0  0  0  0  0
  -25.3680  -29.5830   20.1340 C   0  0  0  0  0  0  0  0  0  0  0  0
  -26.5290  -28.8200   19.8990 C   0  0  0  0  0  3  0  0  0  0  0  0
  -25.1970  -27.1930   18.6750 C   0  0  0  0  0  3  0  0  0  0  0  0
  -24.0360  -27.9550   18.9110 C   0  0  0  0  0  3  0  0  0  0  0  0
  -22.9360  -30.0320   19.9450 C   0  0  0  0  0  2  0  0  0  0  0  0
  -24.2800  -31.0690   21.8380 N   0  0  0  0  0  0  0  0  0  0  0  0
  -23.4130  -31.9880   23.7180 O   0  0  0  0  0  0  0  0  0  0  0  0
  -22.3600  -29.4750   22.3290 C   0  0  0  0  0  0  0  0  0  0  0  0
  -21.0310  -29.2900   22.2770 N   0  0  0  0  0  0  0  0  0  0  0  0
  -23.1010  -28.7990   23.0470 O   0  0  0  0  0  0  0  0  0  0  0  0
  -20.4930  -29.8940   21.6700 H   0  0  0  0  0  0  0  0  0  0  0  0
  -17.7180  -27.9500   22.8140 C   0  0  0  0  0  0  0  0  0  0  0  0
  -20.2720  -28.2890   23.0260 C   0  0  0  0  0  3  0  0  0  0  0  0
  -20.4080  -26.8900   22.3810 C   0  0  0  0  0  2  0  0  0  0  0  0
  -19.2880  -26.5720   21.3850 C   0  0  0  0  0  2  0  0  0  0  0  0
  -17.9220  -26.6390   22.0740 C   0  0  0  0  0  2  0  0  0  0  0  0
  -18.8220  -28.7320   23.2470 C   0  0  0  0  0  0  0  0  0  0  0  0
  -18.5790  -29.9580   23.9030 C   0  0  0  0  0  3  0  0  0  0  0  0
  -17.2650  -30.4090   24.1230 C   0  0  0  0  0  3  0  0  0  0  0  0
  -16.1750  -29.6230   23.7080 C   0  0  0  0  0  3  0  0  0  0  0  0
  -16.4020  -28.3940   23.0620 C   0  0  0  0  0  3  0  0  0  0  0  0
  -25.7880  -32.2500   23.5290 C   0  0  0  0  0  3  0  0  0  0  0  0
  -25.5990  -33.6180   24.0270 N   0  0  0  0  0  0  0  0  0  0  0  0
  -25.9390  -34.7250   23.3540 C   0  0  0  0  0  0  0  0  0  0  0  0
  -26.5150  -34.6960   22.2640 O   0  0  0  0  0  0  0  0  0  0  0  0
  -25.0870  -33.7200   24.8910 H   0  0  0  0  0  0  0  0  0  0  0  0
  -24.3220  -36.6470   23.3140 C   0  0  0  0  0  1  0  0  0  0  0  0
  -25.5810  -36.0810   23.9890 C   0  0  0  0  0  3  0  0  0  0  0  0
  -27.8190  -36.7330   24.7630 C   0  0  0  0  0  1  0  0  0  0  0  0
  -26.6770  -37.0720   23.9170 N   0  0  0  0  0  0  0  0  0  0  0  0
  -26.3480  -37.9950   24.1890 H   0  0  0  0  0  0  0  0  0  0  0  0
  -26.4170  -31.3290   24.6460 C   0  0  1  0  0  0  0  0  0  0  0  0
  -25.4510  -31.0190   25.8140 C   0  0  0  0  0  1  0  0  0  0  0  0
  -26.8730  -29.9810   24.0420 C   0  0  0  0  0  1  0  0  0  0  0  0
  -27.6790  -32.0050   25.2340 C   0  0  0  0  0  1  0  0  0  0  0  0
  -29.7690  -18.7210   20.7660 C   0  0  0  0  0  2  0  0  0  0  0  0
  -31.6590  -18.4540   22.4060 C   0  0  0  0  0  1  0  0  0  0  0  0
  -30.5570  -17.8030   21.6490 N   0  0  2  0  0  4  0  0  0  0  0  0
  -29.9190  -17.4790   22.3620 H   0  0  0  0  0  0  0  0  0  0  0  0
  -31.0490  -16.5980   20.9180 C   0  0  0  0  0  2  0  0  0  0  0  0
  -30.0090  -15.4530   20.7980 C   0  0  0  0  0  2  0  0  0  0  0  0
  -30.4150  -14.3660   19.7800 C   0  0  0  0  0  0  0  0  0  0  0  0
  -30.0550  -12.1570   18.7290 C   0  0  0  0  0  2  0  0  0  0  0  0
  -28.9800  -12.2220   17.6290 C   0  0  0  0  0  2  0  0  0  0  0  0
  -27.5790  -12.0200   18.2350 C   0  0  0  0  0  2  0  0  0  0  0  0
  -27.3250  -12.9400   19.4570 C   0  0  0  0  0  3  0  0  0  0  0  0
  -28.5000  -12.8780   20.4580 C   0  0  0  0  0  2  0  0  0  0  0  0
  -29.7450  -13.1840   19.7350 N   0  0  0  0  0  0  0  0  0  0  0  0
  -31.3480  -14.6080   19.0080 O   0  0  0  0  0  0  0  0  0  0  0  0
  -25.0390  -13.4900   20.5080 C   0  0  0  0  0  0  0  0  0  0  0  0
  -24.0350  -12.6910   20.9840 C   0  0  0  0  0  0  0  0  0  0  0  0
  -24.4950  -11.3470   20.8320 C   0  0  0  0  0  0  0  0  0  0  0  0
  -26.0480  -12.6320   20.0990 N   0  0  0  0  0  0  0  0  0  0  0  0
  -25.7320  -11.3360   20.3480 N   0  0  0  0  0  0  0  0  0  0  0  0
  -23.8080  -10.0690   21.0630 C   0  0  0  0  0  0  0  0  0  0  0  0
  -24.2830   -9.1370   22.0130 C   0  0  0  0  0  3  0  0  0  0  0  0
  -23.5970   -7.9230   22.2290 C   0  0  0  0  0  3  0  0  0  0  0  0
  -22.4230   -7.6310   21.4960 C   0  0  0  0  0  0  0  0  0  0  0  0
  -21.9680   -8.5520   20.5350 C   0  0  0  0  0  3  0  0  0  0  0  0
  -22.6550   -9.7580   20.3180 C   0  0  0  0  0  3  0  0  0  0  0  0
  -21.7040   -6.4660   21.6210 O   0  0  0  0  0  0  0  0  0  0  0  0
  -21.5830   -5.8210   22.8250 C   0  0  0  0  0  0  0  0  0  0  0  0
  -20.9860   -6.4400   23.9460 C   0  0  0  0  0  3  0  0  0  0  0  0
  -20.8180   -5.7160   25.1430 C   0  0  0  0  0  3  0  0  0  0  0  0
  -21.2380   -4.3750   25.2210 C   0  0  0  0  0  0  0  0  0  0  0  0
  -21.8280   -3.7560   24.1040 C   0  0  0  0  0  3  0  0  0  0  0  0
  -21.9980   -4.4770   22.9110 C   0  0  0  0  0  0  0  0  0  0  0  0
  -22.5470   -3.8690   21.8320 F   0  0  0  0  0  0  0  0  0  0  0  0
  -21.0710   -3.6780   26.3690 F   0  0  0  0  0  0  0  0  0  0  0  0
  -22.6860  -13.1390   21.4670 C   0  0  0  0  0  0  0  0  0  0  0  0
  -22.0850  -12.3970   22.3910 N   0  0  0  0  0  0  0  0  0  0  0  0
  -22.1750  -14.1820   21.0600 O   0  0  0  0  0  0  0  0  0  0  0  0
  -22.5110  -11.5510   22.7400 H   0  0  0  0  0  0  0  0  0  0  0  0
  -21.1880  -12.6810   22.7580 H   0  0  0  0  0  0  0  0  0  0  0  0
  -25.1720  -14.8690   20.3710 N   0  0  0  0  0  0  0  0  0  0  0  0
  -24.4230  -15.5120   20.6070 H   0  0  0  0  0  0  0  0  0  0  0  0
  -25.9720  -15.3280   19.9540 H   0  0  0  0  0  0  0  0  0  0  0  0
  1  3  1  0
  2  4  2  0
  2  5  1  0
  4  6  1  0
  5  1  2  0
  6  8  1  0
  6  3  2  0
  8  7  1  0
  9  8  1  0
 10  9  1  0
 11 10  1  0
 12 14  1  0
 12 11  1  0
 13 24  2  0
 14 19  1  0
 15 23  1  0
 15 25  1  0
 16 22  1  0
 16 18  1  0
 17 23  1  0
 18 17  1  0
 19 18  2  0
 20 21  1  0
 20 14  2  0
 21 16  2  0
 22 15  1  0
 23 13  1  0
 25 27  2  0
 26 25  1  0
 28 26  1  0
 29 38  2  0
 29 34  1  0
 30 26  1  0
 30 34  1  0
 31 30  1  0
 32 33  1  0
 32 31  1  0
 33 29  1  0
 34 35  2  0
 35 36  1  0
 37 36  2  0
 38 37  1  0
 39 13  1  0
 39 40  1  0
 39 49  1  0
 40 43  1  0
 41 45  1  0
 41 40  1  0
 42 41  2  0
 45 44  1  0
 47 45  1  0
 47 48  1  0
 47 46  1  0
 49 52  1  1
 49 50  1  0
 51 49  1  0
 53  5  1  0
 53 55  1  0
 55 56  1  1
 55 54  1  0
 57 55  1  0
 58 57  1  0
 59 58  1  0
 60 65  1  0
 61 62  1  0
 61 60  1  0
 63 62  1  0
 63 70  1  0
 63 64  1  0
 65 59  1  0
 65 64  1  0
 66 59  2  0
 67 68  2  0
 68 87  1  0
 69 68  1  0
 69 72  1  0
 70 71  1  0
 70 67  1  0
 71 69  2  0
 72 73  1  0
 73 74  2  0
 75 78  1  0
 75 74  1  0
 76 75  2  0
 77 76  1  0
 77 72  2  0
 78 79  1  0
 79 84  2  0
 79 80  1  0
 80 81  2  0
 81 82  1  0
 82 86  1  0
 83 82  2  0
 84 83  1  0
 85 84  1  0
 87 88  1  0
 88 90  1  0
 88 91  1  0
 89 87  2  0
 92 67  1  0
 92 93  1  0
 94 92  1  0
M  ISO  4  11 101  12 101  58 100  59 100
M  END
>  <TORSDO>  (87) 
F 24

>  <SCORE>  (87) 
-9.198

>  <name>  (87) 
86

>  <ligand_id>  (87) 
86

>  <original_smiles>  (87) 
[H]c1c([H])c([H])c2c(c1[H])C([H])([H])C([H])([H])C([H])([H])C2([H])N([H])C(=O)C1([H])N(C(=O)C([H])(N([H])C(=O)C([H])(N([H])C([H])([H])[H])C([H])([H])[H])C(C([H])([H])[H])(C([H])([H])[H])C([H])([H])[H])C([H])([H])c2c([H])c(OC([H])([H])C([H])([H])C([H])([H])N(c3c([H])c([H])c(C([H])([H])[N+]([H])(C([H])([H])[H])C([H])([H])C([H])([H])C(=O)N4C([H])([H])C([H])([H])C([H])([H])C([H])(n5nc(-c6c([H])c([H])c(Oc7c([H])c([H])c(F)c([H])c7F)c([H])c6[H])c(C(=O)N([H])[H])c5N([H])[H])C4([H])[H])c([H])c3[H])C([H])([H])[H])c([H])c([H])c2C1([H])[H]

>  <smiles>  (87) 
[H]c1c([H])c([H])c2c(c1[H])C([H])([H])C([H])([H])C([H])([H])C2([H])N([H])C(=O)C1([H])N(C(=O)C([H])(N([H])C(=O)C([H])(N([H])C([H])([H])[H])C([H])([H])[H])C(C([H])([H])[H])(C([H])([H])[H])C([H])([H])[H])C([H])([H])c2c([H])c(OC([H])([H])C([H])([H])C([H])([H])N(c3c([H])c([H])c(C([H])([H])[N+]([H])(C([H])([H])[H])C([H])([H])C([H])([H])C(=O)N4C([H])([H])C([H])([H])C([H])([H])C([H])(n5nc(-c6c([H])c([H])c(Oc7c([H])c([H])c(F)c([H])c7F)c([H])c6[H])c(C(=O)N([H])[H])c5N([H])[H])C4([H])[H])c([H])c3[H])C([H])([H])[H])c([H])c([H])c2C1([H])[H]

$$$$
87:0:0
     RDKit          3D

 93101  0  0  1  0  0  0  0  0999 V2000
  -31.3060  -20.8660   19.9890 C   0  0  0  0  0  3  0  0  0  0  0  0
  -32.2390  -19.8160   19.8660 C   0  0  0  0  0  3  0  0  0  0  0  0
  -29.7290  -19.3170   20.9710 C   0  0  0  0  0  3  0  0  0  0  0  0
  -30.6540  -18.2390   20.8570 C   0  0  0  0  0  0  0  0  0  0  0  0
  -30.0330  -20.6470   20.5500 C   0  0  0  0  0  0  0  0  0  0  0  0
  -31.9370  -18.5000   20.3030 C   0  0  0  0  0  0  0  0  0  0  0  0
  -27.7220  -21.3870   20.9950 C   0  0  0  0  0  1  0  0  0  0  0  0
  -29.1010  -21.7240   20.6480 N   0  0  0  0  0  0  0  0  0  0  0  0
  -29.5320  -23.0940   21.0030 C   0  0  0  0  0  2  0  0  0  0  0  0
  -28.9720  -24.2410   20.0940 C   0  0  0  0  0  2  0  0  0  0  0  0
  -28.5030  -25.5000   20.9000 C   0  0  0  0  0  2  0  0  0  0  0  0
  -28.4970  -26.7470   20.1670 O   0  0  0  0  0  0  0  0  0  0  0  0
  -24.6130  -31.9200   23.2410 C   0  0  0  0  0  0  0  0  0  0  0  0
  -27.3230  -27.4770   20.1990 C   0  0  0  0  0  0  0  0  0  0  0  0
  -23.4350  -30.5010   21.5920 C   0  0  0  0  0  3  0  0  0  0  0  0
  -24.9170  -28.9700   20.1850 C   0  0  0  0  0  0  0  0  0  0  0  0
  -25.9610  -30.8790   21.4180 C   0  0  0  0  0  2  0  0  0  0  0  0
  -26.0660  -29.5060   20.7790 C   0  0  0  0  0  0  0  0  0  0  0  0
  -27.2770  -28.7690   20.7740 C   0  0  0  0  0  3  0  0  0  0  0  0
  -26.1550  -26.9520   19.6100 C   0  0  0  0  0  3  0  0  0  0  0  0
  -24.9570  -27.6930   19.5970 C   0  0  0  0  0  3  0  0  0  0  0  0
  -23.6630  -29.8180   20.2180 C   0  0  0  0  0  2  0  0  0  0  0  0
  -24.6870  -31.1150   22.1410 N   0  0  0  0  0  0  0  0  0  0  0  0
  -23.5250  -32.1840   23.7710 O   0  0  0  0  0  0  0  0  0  0  0  0
  -22.7830  -29.4790   22.5510 C   0  0  0  0  0  0  0  0  0  0  0  0
  -21.4640  -29.2810   22.4090 N   0  0  0  0  0  0  0  0  0  0  0  0
  -23.4630  -28.8650   23.3770 O   0  0  0  0  0  0  0  0  0  0  0  0
  -20.9750  -29.8240   21.7100 H   0  0  0  0  0  0  0  0  0  0  0  0
  -18.0970  -28.0470   22.8640 C   0  0  0  0  0  0  0  0  0  0  0  0
  -20.6480  -28.3390   23.1740 C   0  0  0  0  0  3  0  0  0  0  0  0
  -20.7780  -26.9070   22.6060 C   0  0  0  0  0  2  0  0  0  0  0  0
  -19.6960  -26.5640   21.5780 C   0  0  0  0  0  2  0  0  0  0  0  0
  -18.3030  -26.6950   22.1980 C   0  0  0  0  0  2  0  0  0  0  0  0
  -19.1990  -28.8250   23.3060 C   0  0  0  0  0  0  0  0  0  0  0  0
  -18.9550  -30.0890   23.8860 C   0  0  0  0  0  3  0  0  0  0  0  0
  -17.6420  -30.5730   24.0300 C   0  0  0  0  0  3  0  0  0  0  0  0
  -16.5540  -29.7910   23.6040 C   0  0  0  0  0  3  0  0  0  0  0  0
  -16.7840  -28.5300   23.0270 C   0  0  0  0  0  3  0  0  0  0  0  0
  -25.8870  -32.5630   23.8700 C   0  0  0  0  0  3  0  0  0  0  0  0
  -25.5670  -33.9630   24.1820 N   0  0  0  0  0  0  0  0  0  0  0  0
  -25.9090  -35.0090   23.4170 C   0  0  0  0  0  0  0  0  0  0  0  0
  -26.5940  -34.8980   22.3960 O   0  0  0  0  0  0  0  0  0  0  0  0
  -24.9580  -34.1230   24.9700 H   0  0  0  0  0  0  0  0  0  0  0  0
  -24.1780  -36.7890   23.0190 C   0  0  0  0  0  1  0  0  0  0  0  0
  -25.4080  -36.3990   23.8530 C   0  0  0  0  0  3  0  0  0  0  0  0
  -27.5260  -37.3010   24.7080 C   0  0  0  0  0  1  0  0  0  0  0  0
  -26.4390  -37.4550   23.7460 N   0  0  0  0  0  0  0  0  0  0  0  0
  -26.0270  -38.3740   23.8800 H   0  0  0  0  0  0  0  0  0  0  0  0
  -26.3950  -31.8070   25.1580 C   0  0  1  0  0  0  0  0  0  0  0  0
  -25.2900  -31.5760   26.2160 C   0  0  0  0  0  1  0  0  0  0  0  0
  -26.9860  -30.4270   24.7850 C   0  0  0  0  0  1  0  0  0  0  0  0
  -27.5360  -32.6120   25.8230 C   0  0  0  0  0  1  0  0  0  0  0  0
  -34.0420  -17.6640   19.4660 C   0  0  0  0  0  1  0  0  0  0  0  0
  -32.8440  -17.4640   20.2200 O   0  0  0  0  0  0  0  0  0  0  0  0
  -30.2500  -16.8250   21.3680 C   0  0  0  0  0  2  0  0  0  0  0  0
  -30.6790  -14.6030   20.3280 C   0  0  0  0  0  0  0  0  0  0  0  0
  -30.3450  -12.3950   19.2850 C   0  0  0  0  0  2  0  0  0  0  0  0
  -29.4050  -12.5670   18.0750 C   0  0  0  0  0  2  0  0  0  0  0  0
  -27.9310  -12.4730   18.5160 C   0  0  0  0  0  2  0  0  0  0  0  0
  -27.6000  -13.3120   19.7790 C   0  0  0  0  0  3  0  0  0  0  0  0
  -28.6750  -13.1610   20.8780 C   0  0  0  0  0  2  0  0  0  0  0  0
  -29.9810  -13.4330   20.2620 N   0  0  0  0  0  0  0  0  0  0  0  0
  -31.8810  -14.6580   20.0610 O   0  0  0  0  0  0  0  0  0  0  0  0
  -29.5020  -16.3090   19.0830 C   0  0  0  0  0  1  0  0  0  0  0  0
  -29.9520  -15.7570   20.3730 N   0  0  0  0  0  0  0  0  0  0  0  0
  -25.2110  -13.9100   20.4980 C   0  0  0  0  0  0  0  0  0  0  0  0
  -24.1430  -13.1350   20.8610 C   0  0  0  0  0  0  0  0  0  0  0  0
  -24.6070  -11.7850   20.8390 C   0  0  0  0  0  0  0  0  0  0  0  0
  -26.2550  -13.0290   20.2700 N   0  0  0  0  0  0  0  0  0  0  0  0
  -25.8980  -11.7460   20.5350 N   0  0  0  0  0  0  0  0  0  0  0  0
  -23.8810  -10.5210   21.0310 C   0  0  0  0  0  0  0  0  0  0  0  0
  -24.3120   -9.5560   21.9670 C   0  0  0  0  0  3  0  0  0  0  0  0
  -23.5840   -8.3580   22.1470 C   0  0  0  0  0  3  0  0  0  0  0  0
  -22.4130   -8.1180   21.3900 C   0  0  0  0  0  0  0  0  0  0  0  0
  -22.0020   -9.0700   20.4440 C   0  0  0  0  0  3  0  0  0  0  0  0
  -22.7300  -10.2590   20.2610 C   0  0  0  0  0  3  0  0  0  0  0  0
  -21.6630   -6.9670   21.4770 O   0  0  0  0  0  0  0  0  0  0  0  0
  -21.6150   -6.2290   22.6320 C   0  0  0  0  0  0  0  0  0  0  0  0
  -21.1890   -6.7880   23.8570 C   0  0  0  0  0  3  0  0  0  0  0  0
  -21.0810   -5.9770   25.0030 C   0  0  0  0  0  3  0  0  0  0  0  0
  -21.3920   -4.6050   24.9270 C   0  0  0  0  0  0  0  0  0  0  0  0
  -21.8140   -4.0450   23.7090 C   0  0  0  0  0  3  0  0  0  0  0  0
  -21.9200   -4.8540   22.5640 C   0  0  0  0  0  0  0  0  0  0  0  0
  -22.3040   -4.3050   21.3860 F   0  0  0  0  0  0  0  0  0  0  0  0
  -21.2840   -3.8240   26.0260 F   0  0  0  0  0  0  0  0  0  0  0  0
  -22.7440  -13.6080   21.1280 C   0  0  0  0  0  0  0  0  0  0  0  0
  -22.0220  -12.9070   21.9980 N   0  0  0  0  0  0  0  0  0  0  0  0
  -22.3030  -14.6330   20.6100 O   0  0  0  0  0  0  0  0  0  0  0  0
  -22.3980  -12.0760   22.4270 H   0  0  0  0  0  0  0  0  0  0  0  0
  -21.0870  -13.2050   22.2390 H   0  0  0  0  0  0  0  0  0  0  0  0
  -25.3770  -15.2800   20.3240 N   0  0  0  0  0  0  0  0  0  0  0  0
  -24.6100  -15.9360   20.4290 H   0  0  0  0  0  0  0  0  0  0  0  0
  -26.2420  -15.7230   20.0390 H   0  0  0  0  0  0  0  0  0  0  0  0
  1  5  1  0
  2  1  2  0
  2  6  1  0
  4  3  1  0
  4 55  1  0
  5  8  1  0
  5  3  2  0
  6  4  2  0
  8  7  1  0
  8  9  1  0
 10 11  1  0
 10  9  1  0
 12 14  1  0
 12 11  1  0
 13 24  2  0
 14 19  1  0
 15 23  1  0
 15 25  1  0
 16 22  1  0
 16 18  1  0
 17 23  1  0
 18 17  1  0
 19 18  2  0
 20 14  2  0
 21 20  1  0
 21 16  2  0
 22 15  1  0
 23 13  1  0
 25 27  2  0
 26 25  1  0
 28 26  1  0
 29 38  2  0
 29 34  1  0
 30 26  1  0
 30 34  1  0
 31 30  1  0
 32 33  1  0
 32 31  1  0
 33 29  1  0
 34 35  2  0
 35 36  1  0
 37 36  2  0
 38 37  1  0
 39 13  1  0
 39 40  1  0
 39 49  1  0
 40 43  1  0
 41 45  1  0
 41 40  1  0
 42 41  2  0
 45 44  1  0
 47 45  1  0
 47 48  1  0
 47 46  1  0
 49 52  1  1
 49 50  1  0
 51 49  1  0
 53 54  1  0
 54  6  1  0
 56 65  1  0
 57 62  1  0
 58 59  1  0
 58 57  1  0
 60 59  1  0
 60 69  1  0
 60 61  1  0
 62 56  1  0
 62 61  1  0
 63 56  2  0
 64 65  1  0
 65 55  1  0
 66 67  2  0
 67 86  1  0
 68 67  1  0
 68 71  1  0
 69 66  1  0
 69 70  1  0
 70 68  2  0
 71 72  1  0
 72 73  2  0
 74 77  1  0
 74 73  1  0
 75 74  2  0
 76 75  1  0
 76 71  2  0
 77 78  1  0
 78 79  1  0
 79 80  2  0
 81 80  1  0
 81 85  1  0
 82 81  2  0
 83 78  2  0
 83 82  1  0
 84 83  1  0
 86 87  1  0
 87 90  1  0
 87 89  1  0
 88 86  2  0
 91 92  1  0
 91 66  1  0
 93 91  1  0
M  ISO  4  11 101  12 101  56 100  65 100
M  END
>  <TORSDO>  (88) 
F 22

>  <SCORE>  (88) 
-13.213

>  <name>  (88) 
87

>  <ligand_id>  (88) 
87

>  <original_smiles>  (88) 
[H]c1c([H])c([H])c2c(c1[H])C([H])([H])C([H])([H])C([H])([H])C2([H])N([H])C(=O)C1([H])N(C(=O)C([H])(N([H])C(=O)C([H])(N([H])C([H])([H])[H])C([H])([H])[H])C(C([H])([H])[H])(C([H])([H])[H])C([H])([H])[H])C([H])([H])c2c([H])c(OC([H])([H])C([H])([H])C([H])([H])N(c3c([H])c([H])c(OC([H])([H])[H])c(C([H])([H])N(C(=O)N4C([H])([H])C([H])([H])C([H])([H])C([H])(n5nc(-c6c([H])c([H])c(Oc7c([H])c([H])c(F)c([H])c7F)c([H])c6[H])c(C(=O)N([H])[H])c5N([H])[H])C4([H])[H])C([H])([H])[H])c3[H])C([H])([H])[H])c([H])c([H])c2C1([H])[H]

>  <smiles>  (88) 
[H]c1c([H])c([H])c2c(c1[H])C([H])([H])C([H])([H])C([H])([H])C2([H])N([H])C(=O)C1([H])N(C(=O)C([H])(N([H])C(=O)C([H])(N([H])C([H])([H])[H])C([H])([H])[H])C(C([H])([H])[H])(C([H])([H])[H])C([H])([H])[H])C([H])([H])c2c([H])c(OC([H])([H])C([H])([H])C([H])([H])N(c3c([H])c([H])c(OC([H])([H])[H])c(C([H])([H])N(C(=O)N4C([H])([H])C([H])([H])C([H])([H])C([H])(n5nc(-c6c([H])c([H])c(Oc7c([H])c([H])c(F)c([H])c7F)c([H])c6[H])c(C(=O)N([H])[H])c5N([H])[H])C4([H])[H])C([H])([H])[H])c3[H])C([H])([H])[H])c([H])c([H])c2C1([H])[H]

$$$$
88:0:0
     RDKit          3D

 90 98  0  0  1  0  0  0  0  0999 V2000
  -30.8920  -21.3190   20.9910 C   0  0  0  0  0  1  0  0  0  0  0  0
  -29.5210  -21.0720   20.5350 N   0  0  0  0  0  0  0  0  0  0  0  0
  -28.3710  -18.1610   18.3950 C   0  0  0  0  0  3  0  0  0  0  0  0
  -28.9700  -17.0310   18.9880 C   0  0  0  0  0  3  0  0  0  0  0  0
  -28.5330  -19.4570   18.9350 C   0  0  0  0  0  3  0  0  0  0  0  0
  -29.8540  -18.4860   20.7180 C   0  0  0  0  0  3  0  0  0  0  0  0
  -29.7020  -17.1290   20.1880 C   0  0  0  0  0  0  0  0  0  0  0  0
  -29.3110  -19.6920   20.0920 C   0  0  0  0  0  0  0  0  0  0  0  0
  -30.7140  -14.7550   20.1780 C   0  0  0  0  0  0  0  0  0  0  0  0
  -30.3900  -12.5270   19.0880 C   0  0  0  0  0  2  0  0  0  0  0  0
  -29.4160  -12.6500   17.8970 C   0  0  0  0  0  2  0  0  0  0  0  0
  -27.9600  -12.4830   18.3740 C   0  0  0  0  0  2  0  0  0  0  0  0
  -27.6430  -13.3290   19.6370 C   0  0  0  0  0  3  0  0  0  0  0  0
  -28.7420  -13.2100   20.7140 C   0  0  0  0  0  2  0  0  0  0  0  0
  -30.0210  -13.5650   20.0820 N   0  0  0  0  0  0  0  0  0  0  0  0
  -31.8320  -14.8460   19.6600 O   0  0  0  0  0  0  0  0  0  0  0  0
  -30.6240  -15.9710   22.2220 C   0  0  0  0  0  1  0  0  0  0  0  0
  -30.1740  -15.8630   20.8290 N   0  0  0  0  0  0  0  0  0  0  0  0
  -25.2850  -13.9240   20.4460 C   0  0  0  0  0  0  0  0  0  0  0  0
  -24.2290  -13.1500   20.8440 C   0  0  0  0  0  0  0  0  0  0  0  0
  -24.6830  -11.7970   20.7820 C   0  0  0  0  0  0  0  0  0  0  0  0
  -26.3150  -13.0390   20.1660 N   0  0  0  0  0  0  0  0  0  0  0  0
  -25.9640  -11.7540   20.4260 N   0  0  0  0  0  0  0  0  0  0  0  0
  -23.9560  -10.5370   20.9840 C   0  0  0  0  0  0  0  0  0  0  0  0
  -24.4080   -9.5620   21.8990 C   0  0  0  0  0  3  0  0  0  0  0  0
  -23.6800   -8.3660   22.0880 C   0  0  0  0  0  3  0  0  0  0  0  0
  -22.4890   -8.1380   21.3600 C   0  0  0  0  0  0  0  0  0  0  0  0
  -22.0610   -9.1000   20.4270 C   0  0  0  0  0  3  0  0  0  0  0  0
  -22.7880  -10.2870   20.2370 C   0  0  0  0  0  3  0  0  0  0  0  0
  -21.7310   -6.9960   21.4600 O   0  0  0  0  0  0  0  0  0  0  0  0
  -21.6870   -6.2590   22.6160 C   0  0  0  0  0  0  0  0  0  0  0  0
  -21.2820   -6.8220   23.8460 C   0  0  0  0  0  3  0  0  0  0  0  0
  -21.1860   -6.0120   24.9950 C   0  0  0  0  0  3  0  0  0  0  0  0
  -21.4840   -4.6390   24.9150 C   0  0  0  0  0  0  0  0  0  0  0  0
  -21.8790   -4.0740   23.6910 C   0  0  0  0  0  3  0  0  0  0  0  0
  -21.9780   -4.8810   22.5450 C   0  0  0  0  0  0  0  0  0  0  0  0
  -22.3400   -4.3260   21.3630 F   0  0  0  0  0  0  0  0  0  0  0  0
  -21.3830   -3.8590   26.0180 F   0  0  0  0  0  0  0  0  0  0  0  0
  -22.8450  -13.6300   21.1740 C   0  0  0  0  0  0  0  0  0  0  0  0
  -22.1450  -12.9270   22.0580 N   0  0  0  0  0  0  0  0  0  0  0  0
  -22.3930  -14.6620   20.6820 O   0  0  0  0  0  0  0  0  0  0  0  0
  -22.5220  -12.0920   22.4810 H   0  0  0  0  0  0  0  0  0  0  0  0
  -21.2170  -13.2290   22.3220 H   0  0  0  0  0  0  0  0  0  0  0  0
  -25.4540  -15.2950   20.2810 N   0  0  0  0  0  0  0  0  0  0  0  0
  -24.7030  -15.9610   20.4290 H   0  0  0  0  0  0  0  0  0  0  0  0
  -26.3130  -15.7380   19.9780 H   0  0  0  0  0  0  0  0  0  0  0  0
  -28.8360  -22.2720   19.8790 C   0  0  0  0  0  2  0  0  0  0  0  0
  -29.0100  -23.7740   20.4800 C   0  0  0  0  0  3  0  0  0  0  0  0
  -28.1280  -24.9780   19.8530 C   0  0  0  0  0  3  0  0  0  0  0  0
  -28.2990  -26.4190   20.2480 O   0  0  0  0  0  0  0  0  0  0  0  0
  -24.6130  -31.8980   23.2440 C   0  0  0  0  0  0  0  0  0  0  0  0
  -27.2010  -27.3090   20.1670 C   0  0  0  0  0  0  0  0  0  0  0  0
  -23.4040  -30.4970   21.6090 C   0  0  0  0  0  3  0  0  0  0  0  0
  -24.8500  -28.9570   20.1630 C   0  0  0  0  0  0  0  0  0  0  0  0
  -25.9470  -30.8110   21.4200 C   0  0  0  0  0  2  0  0  0  0  0  0
  -26.0210  -29.4310   20.7670 C   0  0  0  0  0  0  0  0  0  0  0  0
  -27.1960  -28.6150   20.7640 C   0  0  0  0  0  3  0  0  0  0  0  0
  -26.0090  -26.9200   19.5090 C   0  0  0  0  0  3  0  0  0  0  0  0
  -24.8480  -27.7110   19.5250 C   0  0  0  0  0  3  0  0  0  0  0  0
  -23.6150  -29.8310   20.2260 C   0  0  0  0  0  2  0  0  0  0  0  0
  -24.6740  -31.0860   22.1480 N   0  0  0  0  0  0  0  0  0  0  0  0
  -23.5310  -32.1770   23.7800 O   0  0  0  0  0  0  0  0  0  0  0  0
  -22.7470  -29.4780   22.5710 C   0  0  0  0  0  0  0  0  0  0  0  0
  -21.4200  -29.3010   22.4520 N   0  0  0  0  0  0  0  0  0  0  0  0
  -23.4290  -28.8510   23.3860 O   0  0  0  0  0  0  0  0  0  0  0  0
  -20.9280  -29.8620   21.7710 H   0  0  0  0  0  0  0  0  0  0  0  0
  -18.0410  -28.0990   22.9590 C   0  0  0  0  0  0  0  0  0  0  0  0
  -20.6010  -28.3630   23.2240 C   0  0  0  0  0  3  0  0  0  0  0  0
  -20.7040  -26.9320   22.6460 C   0  0  0  0  0  2  0  0  0  0  0  0
  -19.5990  -26.6090   21.6360 C   0  0  0  0  0  2  0  0  0  0  0  0
  -18.2190  -26.7490   22.2840 C   0  0  0  0  0  2  0  0  0  0  0  0
  -19.1600  -28.8640   23.3840 C   0  0  0  0  0  0  0  0  0  0  0  0
  -18.9410  -30.1260   23.9740 C   0  0  0  0  0  3  0  0  0  0  0  0
  -17.6340  -30.6240   24.1460 C   0  0  0  0  0  3  0  0  0  0  0  0
  -16.5310  -29.8570   23.7350 C   0  0  0  0  0  3  0  0  0  0  0  0
  -16.7350  -28.5970   23.1470 C   0  0  0  0  0  3  0  0  0  0  0  0
  -25.8970  -32.5300   23.8630 C   0  0  0  0  0  3  0  0  0  0  0  0
  -26.4190  -31.7520   25.1340 C   0  0  1  0  0  0  0  0  0  0  0  0
  -25.3280  -31.5160   26.2050 C   0  0  0  0  0  1  0  0  0  0  0  0
  -26.9960  -30.3740   24.7350 C   0  0  0  0  0  1  0  0  0  0  0  0
  -27.5770  -32.5390   25.7920 C   0  0  0  0  0  1  0  0  0  0  0  0
  -25.5910  -33.9280   24.2010 N   0  0  0  0  0  0  0  0  0  0  0  0
  -25.9100  -34.9820   23.4390 C   0  0  0  0  0  0  0  0  0  0  0  0
  -26.5630  -34.8810   22.3970 O   0  0  0  0  0  0  0  0  0  0  0  0
  -25.0120  -34.0830   25.0140 H   0  0  0  0  0  0  0  0  0  0  0  0
  -24.1690  -36.7680   23.1140 C   0  0  0  0  0  1  0  0  0  0  0  0
  -25.4270  -36.3700   23.9040 C   0  0  0  0  0  3  0  0  0  0  0  0
  -27.5740  -37.2580   24.6940 C   0  0  0  0  0  1  0  0  0  0  0  0
  -26.4550  -37.4260   23.7710 N   0  0  0  0  0  0  0  0  0  0  0  0
  -26.0500  -38.3460   23.9320 H   0  0  0  0  0  0  0  0  0  0  0  0
  2  1  1  0
  3  5  2  0
  3  4  1  0
  4  7  2  0
  5  8  1  0
  7  6  1  0
  7 18  1  0
  8  2  1  0
  8  6  2  0
  9 18  1  0
 10 15  1  0
 11 12  1  0
 11 10  1  0
 13 12  1  0
 13 22  1  0
 13 14  1  0
 15  9  1  0
 15 14  1  0
 16  9  2  0
 18 17  1  0
 19 20  2  0
 20 39  1  0
 21 20  1  0
 21 24  1  0
 22 23  1  0
 22 19  1  0
 23 21  2  0
 24 25  1  0
 25 26  2  0
 27 30  1  0
 27 26  1  0
 28 27  2  0
 29 28  1  0
 29 24  2  0
 30 31  1  0
 31 32  1  0
 32 33  2  0
 34 33  1  0
 34 38  1  0
 35 34  2  0
 36 31  2  0
 36 35  1  0
 37 36  1  0
 39 40  1  0
 40 43  1  0
 40 42  1  0
 41 39  2  0
 44 45  1  0
 44 19  1  0
 46 44  1  0
 47 48  1  0
 47  2  1  0
 49 50  1  0
 49 48  2  0
 51 62  2  0
 52 50  1  0
 52 57  1  0
 53 61  1  0
 53 63  1  0
 54 60  1  0
 54 56  1  0
 55 61  1  0
 56 55  1  0
 57 56  2  0
 58 59  1  0
 58 52  2  0
 59 54  2  0
 60 53  1  0
 61 51  1  0
 63 65  2  0
 64 63  1  0
 66 64  1  0
 67 76  2  0
 67 72  1  0
 68 64  1  0
 68 72  1  0
 69 68  1  0
 70 71  1  0
 70 69  1  0
 71 67  1  0
 72 73  2  0
 73 74  1  0
 75 74  2  0
 76 75  1  0
 77 51  1  0
 77 82  1  0
 77 78  1  0
 78 81  1  1
 78 79  1  0
 80 78  1  0
 82 85  1  0
 83 87  1  0
 83 82  1  0
 84 83  2  0
 87 86  1  0
 89 87  1  0
 89 90  1  0
 89 88  1  0
M  ISO  4   9 100  18 100  49 101  50 101
M  END
>  <TORSDO>  (89) 
F 20

>  <SCORE>  (89) 
-13.960

>  <name>  (89) 
88

>  <ligand_id>  (89) 
88

>  <original_smiles>  (89) 
[H]c1c([H])c(N(C(=O)N2C([H])([H])C([H])([H])C([H])([H])C([H])(n3nc(-c4c([H])c([H])c(Oc5c([H])c([H])c(F)c([H])c5F)c([H])c4[H])c(C(=O)N([H])[H])c3N([H])[H])C2([H])[H])C([H])([H])[H])c([H])c(N(C([H])([H])[H])C([H])([H])C([H])([H])C([H])([H])Oc2c([H])c([H])c3c(c2[H])C([H])([H])N(C(=O)C([H])(N([H])C(=O)C([H])(N([H])C([H])([H])[H])C([H])([H])[H])C(C([H])([H])[H])(C([H])([H])[H])C([H])([H])[H])C([H])(C(=O)N([H])C2([H])c4c([H])c([H])c([H])c([H])c4C([H])([H])C([H])([H])C2([H])[H])C3([H])[H])c1[H]

>  <smiles>  (89) 
[H]c1c([H])c(N(C(=O)N2C([H])([H])C([H])([H])C([H])([H])C([H])(n3nc(-c4c([H])c([H])c(Oc5c([H])c([H])c(F)c([H])c5F)c([H])c4[H])c(C(=O)N([H])[H])c3N([H])[H])C2([H])[H])C([H])([H])[H])c([H])c(N(C([H])([H])[H])C([H])([H])C([H])([H])C([H])([H])Oc2c([H])c([H])c3c(c2[H])C([H])([H])N(C(=O)C([H])(N([H])C(=O)C([H])(N([H])C([H])([H])[H])C([H])([H])[H])C(C([H])([H])[H])(C([H])([H])[H])C([H])([H])[H])C([H])(C(=O)N([H])C2([H])c4c([H])c([H])c([H])c([H])c4C([H])([H])C([H])([H])C2([H])[H])C3([H])[H])c1[H]

$$$$
89:0:0
     RDKit          3D

 93101  0  0  1  0  0  0  0  0999 V2000
  -28.2230  -20.2980   20.6630 C   0  0  0  0  0  3  0  0  0  0  0  0
  -27.7060  -18.9920   20.5920 C   0  0  0  0  0  3  0  0  0  0  0  0
  -29.9650  -18.0810   20.3860 C   0  0  0  0  0  0  0  0  0  0  0  0
  -29.6200  -20.5440   20.5890 C   0  0  0  0  0  0  0  0  0  0  0  0
  -28.5640  -17.8950   20.4130 C   0  0  0  0  0  0  0  0  0  0  0  0
  -30.4760  -19.4040   20.4770 C   0  0  0  0  0  0  0  0  0  0  0  0
  -28.0170  -16.6740   20.2340 F   0  0  0  0  0  0  0  0  0  0  0  0
  -31.8230  -19.5730   20.4250 F   0  0  0  0  0  0  0  0  0  0  0  0
  -31.0280  -22.1350   19.4460 C   0  0  0  0  0  1  0  0  0  0  0  0
  -30.1410  -21.8740   20.5840 N   0  0  0  0  0  0  0  0  0  0  0  0
  -29.1730  -22.9430   20.8600 C   0  0  0  0  0  2  0  0  0  0  0  0
  -29.7070  -24.3970   20.8700 C   0  0  0  0  0  2  0  0  0  0  0  0
  -28.5220  -25.3410   20.6140 C   0  0  0  0  0  2  0  0  0  0  0  0
  -28.8380  -26.7080   20.3090 O   0  0  0  0  0  0  0  0  0  0  0  0
  -24.9190  -31.7640   23.3530 C   0  0  0  0  0  0  0  0  0  0  0  0
  -27.7050  -27.4880   20.2000 C   0  0  0  0  0  0  0  0  0  0  0  0
  -23.7870  -30.4390   21.6000 C   0  0  0  0  0  3  0  0  0  0  0  0
  -25.3080  -28.9900   20.1530 C   0  0  0  0  0  0  0  0  0  0  0  0
  -26.3140  -30.8200   21.5170 C   0  0  0  0  0  2  0  0  0  0  0  0
  -26.4360  -29.4830   20.8250 C   0  0  0  0  0  0  0  0  0  0  0  0
  -27.6390  -28.7410   20.8490 C   0  0  0  0  0  3  0  0  0  0  0  0
  -26.5750  -27.0370   19.4760 C   0  0  0  0  0  3  0  0  0  0  0  0
  -25.3810  -27.7730   19.4580 C   0  0  0  0  0  3  0  0  0  0  0  0
  -24.0480  -29.8270   20.1970 C   0  0  0  0  0  2  0  0  0  0  0  0
  -25.0240  -31.0180   22.2170 N   0  0  0  0  0  0  0  0  0  0  0  0
  -23.8170  -32.0090   23.8610 O   0  0  0  0  0  0  0  0  0  0  0  0
  -23.1050  -29.3700   22.4830 C   0  0  0  0  0  0  0  0  0  0  0  0
  -21.7940  -29.1750   22.2700 N   0  0  0  0  0  0  0  0  0  0  0  0
  -23.7520  -28.7240   23.3120 O   0  0  0  0  0  0  0  0  0  0  0  0
  -21.3380  -29.7510   21.5780 H   0  0  0  0  0  0  0  0  0  0  0  0
  -18.4060  -27.9470   22.5580 C   0  0  0  0  0  0  0  0  0  0  0  0
  -20.9470  -28.2000   22.9570 C   0  0  0  0  0  3  0  0  0  0  0  0
  -21.0840  -26.8010   22.3150 C   0  0  0  0  0  2  0  0  0  0  0  0
  -20.0280  -26.5230   21.2390 C   0  0  0  0  0  2  0  0  0  0  0  0
  -18.6190  -26.6340   21.8250 C   0  0  0  0  0  2  0  0  0  0  0  0
  -19.5010  -28.6900   23.0740 C   0  0  0  0  0  0  0  0  0  0  0  0
  -19.2510  -29.9250   23.7120 C   0  0  0  0  0  3  0  0  0  0  0  0
  -17.9380  -30.4130   23.8460 C   0  0  0  0  0  3  0  0  0  0  0  0
  -16.8580  -29.6660   23.3460 C   0  0  0  0  0  3  0  0  0  0  0  0
  -17.0920  -28.4350   22.7080 C   0  0  0  0  0  3  0  0  0  0  0  0
  -26.1780  -32.3640   24.0550 C   0  0  0  0  0  3  0  0  0  0  0  0
  -25.8580  -33.7480   24.4250 N   0  0  0  0  0  0  0  0  0  0  0  0
  -26.2280  -34.8280   23.7230 C   0  0  0  0  0  0  0  0  0  0  0  0
  -26.9520  -34.7620   22.7240 O   0  0  0  0  0  0  0  0  0  0  0  0
  -25.2240  -33.8730   25.2000 H   0  0  0  0  0  0  0  0  0  0  0  0
  -24.5290  -36.6440   23.3430 C   0  0  0  0  0  1  0  0  0  0  0  0
  -25.7200  -36.1980   24.2090 C   0  0  0  0  0  3  0  0  0  0  0  0
  -27.8040  -37.0370   25.2020 C   0  0  0  0  0  1  0  0  0  0  0  0
  -26.7610  -37.2500   24.2020 N   0  0  0  0  0  0  0  0  0  0  0  0
  -26.3490  -38.1650   24.3640 H   0  0  0  0  0  0  0  0  0  0  0  0
  -26.6400  -31.5380   25.3180 C   0  0  1  0  0  0  0  0  0  0  0  0
  -25.4970  -31.2310   26.3140 C   0  0  0  0  0  1  0  0  0  0  0  0
  -27.2670  -30.1910   24.8900 C   0  0  0  0  0  1  0  0  0  0  0  0
  -27.7420  -32.3160   26.0780 C   0  0  0  0  0  1  0  0  0  0  0  0
  -30.9740  -16.9360   20.1810 C   0  0  0  0  0  2  0  0  0  0  0  0
  -31.2170  -14.5050   20.0060 C   0  0  0  0  0  0  0  0  0  0  0  0
  -30.8430  -12.3020   18.9370 C   0  0  0  0  0  2  0  0  0  0  0  0
  -29.8240  -12.4070   17.7870 C   0  0  0  0  0  2  0  0  0  0  0  0
  -28.3840  -12.2780   18.3170 C   0  0  0  0  0  2  0  0  0  0  0  0
  -28.1190  -13.1570   19.5690 C   0  0  0  0  0  3  0  0  0  0  0  0
  -29.2470  -13.0080   20.6080 C   0  0  0  0  0  2  0  0  0  0  0  0
  -30.5200  -13.3290   19.9470 N   0  0  0  0  0  0  0  0  0  0  0  0
  -32.2350  -14.6730   19.3220 O   0  0  0  0  0  0  0  0  0  0  0  0
  -30.6220  -15.5120   22.1570 C   0  0  0  0  0  1  0  0  0  0  0  0
  -30.6800  -15.5630   20.6840 N   0  0  0  0  0  0  0  0  0  0  0  0
  -25.8090  -13.7600   20.5200 C   0  0  0  0  0  0  0  0  0  0  0  0
  -24.7640  -12.9920   20.9440 C   0  0  0  0  0  0  0  0  0  0  0  0
  -25.1910  -11.6350   20.8030 C   0  0  0  0  0  0  0  0  0  0  0  0
  -26.8100  -12.8770   20.1530 N   0  0  0  0  0  0  0  0  0  0  0  0
  -26.4460  -11.5890   20.3790 N   0  0  0  0  0  0  0  0  0  0  0  0
  -24.4580  -10.3800   20.9940 C   0  0  0  0  0  0  0  0  0  0  0  0
  -24.8420   -9.4340   21.9680 C   0  0  0  0  0  3  0  0  0  0  0  0
  -24.1000   -8.2460   22.1420 C   0  0  0  0  0  3  0  0  0  0  0  0
  -22.9610   -7.9930   21.3410 C   0  0  0  0  0  0  0  0  0  0  0  0
  -22.6000   -8.9300   20.3550 C   0  0  0  0  0  3  0  0  0  0  0  0
  -23.3420  -10.1080   20.1790 C   0  0  0  0  0  3  0  0  0  0  0  0
  -22.2010   -6.8510   21.4190 O   0  0  0  0  0  0  0  0  0  0  0  0
  -21.9700   -6.2230   22.6190 C   0  0  0  0  0  0  0  0  0  0  0  0
  -21.3440   -6.8840   23.6970 C   0  0  0  0  0  3  0  0  0  0  0  0
  -21.0630   -6.1850   24.8880 C   0  0  0  0  0  3  0  0  0  0  0  0
  -21.3910   -4.8220   24.9990 C   0  0  0  0  0  0  0  0  0  0  0  0
  -22.0030   -4.1560   23.9230 C   0  0  0  0  0  3  0  0  0  0  0  0
  -22.2880   -4.8540   22.7340 C   0  0  0  0  0  0  0  0  0  0  0  0
  -22.8570   -4.1990   21.6930 F   0  0  0  0  0  0  0  0  0  0  0  0
  -21.1180   -4.1490   26.1390 F   0  0  0  0  0  0  0  0  0  0  0  0
  -23.4090  -13.4830   21.3670 C   0  0  0  0  0  0  0  0  0  0  0  0
  -22.7640  -12.7790   22.2890 N   0  0  0  0  0  0  0  0  0  0  0  0
  -22.9360  -14.5260   20.9160 O   0  0  0  0  0  0  0  0  0  0  0  0
  -23.1660  -11.9400   22.6790 H   0  0  0  0  0  0  0  0  0  0  0  0
  -21.8480  -13.0780   22.5950 H   0  0  0  0  0  0  0  0  0  0  0  0
  -25.9860  -15.1350   20.3960 N   0  0  0  0  0  0  0  0  0  0  0  0
  -25.2800  -15.7850   20.7150 H   0  0  0  0  0  0  0  0  0  0  0  0
  -26.8790  -15.5770   20.2110 H   0  0  0  0  0  0  0  0  0  0  0  0
  2  1  1  0
  3  5  1  0
  3  6  2  0
  4  1  2  0
  5  2  2  0
  6  4  1  0
  7  5  1  0
  8  6  1  0
  9 10  1  0
 10  4  1  0
 10 11  1  0
 11 12  1  0
 13 12  1  0
 14 13  1  0
 15 26  2  0
 16 14  1  0
 16 21  1  0
 17 25  1  0
 17 27  1  0
 18 24  1  0
 18 20  1  0
 19 25  1  0
 20 21  2  0
 20 19  1  0
 22 16  2  0
 23 22  1  0
 23 18  2  0
 24 17  1  0
 25 15  1  0
 27 29  2  0
 28 27  1  0
 30 28  1  0
 31 40  2  0
 31 36  1  0
 32 28  1  0
 32 36  1  0
 33 32  1  0
 34 35  1  0
 34 33  1  0
 35 31  1  0
 36 37  2  0
 37 38  1  0
 39 38  2  0
 40 39  1  0
 41 15  1  0
 41 42  1  0
 41 51  1  0
 42 45  1  0
 43 47  1  0
 43 42  1  0
 44 43  2  0
 47 46  1  0
 49 47  1  0
 49 50  1  0
 49 48  1  0
 51 54  1  1
 51 52  1  0
 53 51  1  0
 55  3  1  0
 55 65  1  0
 56 65  1  0
 57 62  1  0
 58 59  1  0
 58 57  1  0
 60 59  1  0
 60 69  1  0
 60 61  1  0
 62 56  1  0
 62 61  1  0
 63 56  2  0
 65 64  1  0
 66 67  2  0
 67 86  1  0
 68 67  1  0
 68 71  1  0
 69 70  1  0
 69 66  1  0
 70 68  2  0
 71 72  1  0
 72 73  2  0
 74 77  1  0
 74 73  1  0
 75 74  2  0
 76 75  1  0
 76 71  2  0
 77 78  1  0
 78 83  2  0
 78 79  1  0
 79 80  2  0
 80 81  1  0
 81 85  1  0
 82 81  2  0
 83 82  1  0
 84 83  1  0
 86 87  1  0
 87 90  1  0
 87 89  1  0
 88 86  2  0
 91 66  1  0
 91 92  1  0
 93 91  1  0
M  ISO  4  13 101  14 101  56 100  65 100
M  END
>  <TORSDO>  (90) 
F 21

>  <SCORE>  (90) 
-11.915

>  <name>  (90) 
89

>  <ligand_id>  (90) 
89

>  <original_smiles>  (90) 
[H]c1c([H])c([H])c2c(c1[H])C([H])([H])C([H])([H])C([H])([H])C2([H])N([H])C(=O)C1([H])N(C(=O)C([H])(N([H])C(=O)C([H])(N([H])C([H])([H])[H])C([H])([H])[H])C(C([H])([H])[H])(C([H])([H])[H])C([H])([H])[H])C([H])([H])c2c([H])c(OC([H])([H])C([H])([H])C([H])([H])N(c3c([H])c([H])c(F)c(C([H])([H])N(C(=O)N4C([H])([H])C([H])([H])C([H])([H])C([H])(n5nc(-c6c([H])c([H])c(Oc7c([H])c([H])c(F)c([H])c7F)c([H])c6[H])c(C(=O)N([H])[H])c5N([H])[H])C4([H])[H])C([H])([H])[H])c3F)C([H])([H])[H])c([H])c([H])c2C1([H])[H]

>  <smiles>  (90) 
[H]c1c([H])c([H])c2c(c1[H])C([H])([H])C([H])([H])C([H])([H])C2([H])N([H])C(=O)C1([H])N(C(=O)C([H])(N([H])C(=O)C([H])(N([H])C([H])([H])[H])C([H])([H])[H])C(C([H])([H])[H])(C([H])([H])[H])C([H])([H])[H])C([H])([H])c2c([H])c(OC([H])([H])C([H])([H])C([H])([H])N(c3c([H])c([H])c(F)c(C([H])([H])N(C(=O)N4C([H])([H])C([H])([H])C([H])([H])C([H])(n5nc(-c6c([H])c([H])c(Oc7c([H])c([H])c(F)c([H])c7F)c([H])c6[H])c(C(=O)N([H])[H])c5N([H])[H])C4([H])[H])C([H])([H])[H])c3F)C([H])([H])[H])c([H])c([H])c2C1([H])[H]

$$$$
90:0:0
     RDKit          3D

 92100  0  0  1  0  0  0  0  0999 V2000
  -28.6770  -21.4430   21.5320 C   0  0  0  0  0  3  0  0  0  0  0  0
  -29.2990  -20.2240   21.8750 C   0  0  0  0  0  3  0  0  0  0  0  0
  -28.9920  -19.4180   19.6120 C   0  0  0  0  0  3  0  0  0  0  0  0
  -28.1770  -21.6630   20.2250 C   0  0  0  0  0  0  0  0  0  0  0  0
  -29.4530  -19.1920   20.9290 C   0  0  0  0  0  0  0  0  0  0  0  0
  -28.3640  -20.6320   19.2660 C   0  0  0  0  0  0  0  0  0  0  0  0
  -27.9360  -20.7950   17.9890 F   0  0  0  0  0  0  0  0  0  0  0  0
  -26.1100  -22.5930   19.4060 C   0  0  0  0  0  1  0  0  0  0  0  0
  -27.4740  -22.8450   19.8780 N   0  0  0  0  0  0  0  0  0  0  0  0
  -27.6870  -24.0980   20.6130 C   0  0  0  0  0  2  0  0  0  0  0  0
  -29.0200  -24.7930   20.2750 C   0  0  0  0  0  2  0  0  0  0  0  0
  -29.1980  -26.1450   21.0020 C   0  0  0  0  0  2  0  0  0  0  0  0
  -29.0730  -27.2650   20.1260 O   0  0  0  0  0  0  0  0  0  0  0  0
  -24.7570  -31.9190   23.3440 C   0  0  0  0  0  0  0  0  0  0  0  0
  -27.8510  -27.8870   20.1490 C   0  0  0  0  0  0  0  0  0  0  0  0
  -23.7280  -30.5390   21.5660 C   0  0  0  0  0  3  0  0  0  0  0  0
  -25.3520  -29.1930   20.1300 C   0  0  0  0  0  0  0  0  0  0  0  0
  -26.2230  -31.0920   21.5090 C   0  0  0  0  0  2  0  0  0  0  0  0
  -26.4380  -29.7700   20.8020 C   0  0  0  0  0  0  0  0  0  0  0  0
  -27.6930  -29.1230   20.8110 C   0  0  0  0  0  3  0  0  0  0  0  0
  -26.7550  -27.3150   19.4740 C   0  0  0  0  0  3  0  0  0  0  0  0
  -25.5040  -27.9630   19.4650 C   0  0  0  0  0  3  0  0  0  0  0  0
  -24.0480  -29.9560   20.1610 C   0  0  0  0  0  2  0  0  0  0  0  0
  -24.9170  -31.1950   22.2000 N   0  0  0  0  0  0  0  0  0  0  0  0
  -23.6360  -32.0810   23.8470 O   0  0  0  0  0  0  0  0  0  0  0  0
  -23.1110  -29.4190   22.4330 C   0  0  0  0  0  0  0  0  0  0  0  0
  -21.8060  -29.1670   22.2460 N   0  0  0  0  0  0  0  0  0  0  0  0
  -23.8070  -28.7810   23.2290 O   0  0  0  0  0  0  0  0  0  0  0  0
  -21.3040  -29.7400   21.5810 H   0  0  0  0  0  0  0  0  0  0  0  0
  -18.4870  -27.7790   22.5740 C   0  0  0  0  0  0  0  0  0  0  0  0
  -21.0240  -28.1330   22.9220 C   0  0  0  0  0  3  0  0  0  0  0  0
  -21.2070  -26.7600   22.2350 C   0  0  0  0  0  2  0  0  0  0  0  0
  -20.1410  -26.4680   21.1760 C   0  0  0  0  0  2  0  0  0  0  0  0
  -18.7420  -26.4970   21.7980 C   0  0  0  0  0  2  0  0  0  0  0  0
  -19.5600  -28.5550   23.0870 C   0  0  0  0  0  0  0  0  0  0  0  0
  -19.2700  -29.7560   23.7710 C   0  0  0  0  0  3  0  0  0  0  0  0
  -17.9410  -30.1820   23.9470 C   0  0  0  0  0  3  0  0  0  0  0  0
  -16.8820  -29.4020   23.4490 C   0  0  0  0  0  3  0  0  0  0  0  0
  -17.1560  -28.2020   22.7680 C   0  0  0  0  0  3  0  0  0  0  0  0
  -25.9670  -32.5970   24.0610 C   0  0  0  0  0  3  0  0  0  0  0  0
  -25.5830  -33.9820   24.3600 N   0  0  0  0  0  0  0  0  0  0  0  0
  -25.9340  -35.0440   23.6240 C   0  0  0  0  0  0  0  0  0  0  0  0
  -26.6860  -34.9640   22.6490 O   0  0  0  0  0  0  0  0  0  0  0  0
  -24.9220  -34.1150   25.1120 H   0  0  0  0  0  0  0  0  0  0  0  0
  -24.1710  -36.7670   23.1280 C   0  0  0  0  0  1  0  0  0  0  0  0
  -25.3610  -36.4140   24.0350 C   0  0  0  0  0  3  0  0  0  0  0  0
  -27.3900  -37.3810   25.0210 C   0  0  0  0  0  1  0  0  0  0  0  0
  -26.3580  -37.5050   23.9950 N   0  0  0  0  0  0  0  0  0  0  0  0
  -25.9070  -38.4090   24.1070 H   0  0  0  0  0  0  0  0  0  0  0  0
  -26.4150  -31.8440   25.3720 C   0  0  1  0  0  0  0  0  0  0  0  0
  -25.2510  -31.5460   26.3460 C   0  0  0  0  0  1  0  0  0  0  0  0
  -27.0940  -30.4980   25.0230 C   0  0  0  0  0  1  0  0  0  0  0  0
  -27.4680  -32.6870   26.1290 C   0  0  0  0  0  1  0  0  0  0  0  0
  -30.0410  -18.0170   21.3630 O   0  0  0  0  0  0  0  0  0  0  0  0
  -30.0980  -16.9020   20.4730 C   0  0  0  0  0  2  0  0  0  0  0  0
  -30.8160  -15.7300   21.1710 C   0  0  0  0  0  2  0  0  0  0  0  0
  -31.2310  -14.6170   20.1940 C   0  0  0  0  0  0  0  0  0  0  0  0
  -30.8290  -12.4590   19.0590 C   0  0  0  0  0  2  0  0  0  0  0  0
  -29.8620  -12.6370   17.8720 C   0  0  0  0  0  2  0  0  0  0  0  0
  -28.4000  -12.5290   18.3410 C   0  0  0  0  0  2  0  0  0  0  0  0
  -28.1060  -13.4250   19.5730 C   0  0  0  0  0  3  0  0  0  0  0  0
  -29.1780  -13.2310   20.6670 C   0  0  0  0  0  2  0  0  0  0  0  0
  -30.5020  -13.4760   20.0700 N   0  0  0  0  0  0  0  0  0  0  0  0
  -32.2570  -14.8130   19.5310 O   0  0  0  0  0  0  0  0  0  0  0  0
  -25.7560  -14.1110   20.3710 C   0  0  0  0  0  0  0  0  0  0  0  0
  -24.6720  -13.3730   20.7660 C   0  0  0  0  0  0  0  0  0  0  0  0
  -25.0800  -12.0060   20.6970 C   0  0  0  0  0  0  0  0  0  0  0  0
  -26.7590  -13.1960   20.0910 N   0  0  0  0  0  0  0  0  0  0  0  0
  -26.3570  -11.9230   20.3410 N   0  0  0  0  0  0  0  0  0  0  0  0
  -24.3140  -10.7690   20.8910 C   0  0  0  0  0  0  0  0  0  0  0  0
  -24.7080   -9.7960   21.8360 C   0  0  0  0  0  3  0  0  0  0  0  0
  -23.9450   -8.6220   22.0160 C   0  0  0  0  0  3  0  0  0  0  0  0
  -22.7720   -8.4140   21.2530 C   0  0  0  0  0  0  0  0  0  0  0  0
  -22.3960   -9.3760   20.2970 C   0  0  0  0  0  3  0  0  0  0  0  0
  -23.1600  -10.5400   20.1150 C   0  0  0  0  0  3  0  0  0  0  0  0
  -21.9830   -7.2940   21.3430 O   0  0  0  0  0  0  0  0  0  0  0  0
  -21.8510   -6.5980   22.5180 C   0  0  0  0  0  0  0  0  0  0  0  0
  -21.3710   -7.2100   23.6970 C   0  0  0  0  0  3  0  0  0  0  0  0
  -21.1870   -6.4420   24.8640 C   0  0  0  0  0  3  0  0  0  0  0  0
  -21.4710   -5.0620   24.8510 C   0  0  0  0  0  0  0  0  0  0  0  0
  -21.9450   -4.4510   23.6780 C   0  0  0  0  0  3  0  0  0  0  0  0
  -22.1310   -5.2170   22.5130 C   0  0  0  0  0  0  0  0  0  0  0  0
  -22.5660   -4.6190   21.3780 F   0  0  0  0  0  0  0  0  0  0  0  0
  -21.2870   -4.3220   25.9690 F   0  0  0  0  0  0  0  0  0  0  0  0
  -23.3050  -13.9000   21.0940 C   0  0  0  0  0  0  0  0  0  0  0  0
  -22.5880  -13.2240   21.9850 N   0  0  0  0  0  0  0  0  0  0  0  0
  -22.8840  -14.9430   20.5970 O   0  0  0  0  0  0  0  0  0  0  0  0
  -22.9420  -12.3790   22.4080 H   0  0  0  0  0  0  0  0  0  0  0  0
  -21.6710  -13.5570   22.2480 H   0  0  0  0  0  0  0  0  0  0  0  0
  -25.9650  -15.4770   20.2070 N   0  0  0  0  0  0  0  0  0  0  0  0
  -25.2210  -16.1530   20.3390 H   0  0  0  0  0  0  0  0  0  0  0  0
  -26.8100  -15.8870   19.8330 H   0  0  0  0  0  0  0  0  0  0  0  0
  1  2  1  0
  3  5  1  0
  4  1  2  0
  5 54  1  0
  5  2  2  0
  6  3  2  0
  6  4  1  0
  7  6  1  0
  8  9  1  0
  9  4  1  0
  9 10  1  0
 11 10  1  0
 11 12  1  0
 13 15  1  0
 13 12  1  0
 14 25  2  0
 15 20  1  0
 16 24  1  0
 16 26  1  0
 17 23  1  0
 17 19  1  0
 18 24  1  0
 19 20  2  0
 19 18  1  0
 21 15  2  0
 22 21  1  0
 22 17  2  0
 23 16  1  0
 24 14  1  0
 26 28  2  0
 27 26  1  0
 29 27  1  0
 30 39  2  0
 30 35  1  0
 31 27  1  0
 31 35  1  0
 32 31  1  0
 33 34  1  0
 33 32  1  0
 34 30  1  0
 35 36  2  0
 36 37  1  0
 38 37  2  0
 39 38  1  0
 40 14  1  0
 40 41  1  0
 40 50  1  0
 41 44  1  0
 42 46  1  0
 42 41  1  0
 43 42  2  0
 46 45  1  0
 48 46  1  0
 48 49  1  0
 48 47  1  0
 50 53  1  1
 50 51  1  0
 52 50  1  0
 55 56  1  0
 55 54  1  0
 57 56  1  0
 58 63  1  0
 59 60  1  0
 59 58  1  0
 61 60  1  0
 61 68  1  0
 61 62  1  0
 63 57  1  0
 63 62  1  0
 64 57  2  0
 65 66  2  0
 66 85  1  0
 67 66  1  0
 67 70  1  0
 68 69  1  0
 68 65  1  0
 69 67  2  0
 70 71  1  0
 71 72  2  0
 73 76  1  0
 73 72  1  0
 74 73  2  0
 75 74  1  0
 75 70  2  0
 76 77  1  0
 77 78  1  0
 78 79  2  0
 80 79  1  0
 80 84  1  0
 81 80  2  0
 82 77  2  0
 82 81  1  0
 83 82  1  0
 85 86  1  0
 86 89  1  0
 86 88  1  0
 87 85  2  0
 90 91  1  0
 90 65  1  0
 92 90  1  0
M  ISO  4  12 101  13 101  56 100  57 100
M  END
>  <TORSDO>  (91) 
F 23

>  <SCORE>  (91) 
-11.602

>  <name>  (91) 
90

>  <ligand_id>  (91) 
90

>  <original_smiles>  (91) 
[H]c1c([H])c([H])c2c(c1[H])C([H])([H])C([H])([H])C([H])([H])C2([H])N([H])C(=O)C1([H])N(C(=O)C([H])(N([H])C(=O)C([H])(N([H])C([H])([H])[H])C([H])([H])[H])C(C([H])([H])[H])(C([H])([H])[H])C([H])([H])[H])C([H])([H])c2c([H])c(OC([H])([H])C([H])([H])C([H])([H])N(c3c([H])c([H])c(OC([H])([H])C([H])([H])C(=O)N4C([H])([H])C([H])([H])C([H])([H])C([H])(n5nc(-c6c([H])c([H])c(Oc7c([H])c([H])c(F)c([H])c7F)c([H])c6[H])c(C(=O)N([H])[H])c5N([H])[H])C4([H])[H])c([H])c3F)C([H])([H])[H])c([H])c([H])c2C1([H])[H]

>  <smiles>  (91) 
[H]c1c([H])c([H])c2c(c1[H])C([H])([H])C([H])([H])C([H])([H])C2([H])N([H])C(=O)C1([H])N(C(=O)C([H])(N([H])C(=O)C([H])(N([H])C([H])([H])[H])C([H])([H])[H])C(C([H])([H])[H])(C([H])([H])[H])C([H])([H])[H])C([H])([H])c2c([H])c(OC([H])([H])C([H])([H])C([H])([H])N(c3c([H])c([H])c(OC([H])([H])C([H])([H])C(=O)N4C([H])([H])C([H])([H])C([H])([H])C([H])(n5nc(-c6c([H])c([H])c(Oc7c([H])c([H])c(F)c([H])c7F)c([H])c6[H])c(C(=O)N([H])[H])c5N([H])[H])C4([H])[H])c([H])c3F)C([H])([H])[H])c([H])c([H])c2C1([H])[H]

$$$$
91:0:0
     RDKit          3D

 96104  0  0  1  0  0  0  0  0999 V2000
  -30.6820  -20.6360   18.9170 C   0  0  0  0  0  3  0  0  0  0  0  0
  -33.0240  -20.8680   18.3030 C   0  0  0  0  0  3  0  0  0  0  0  0
  -30.6120  -22.0180   19.1590 C   0  0  0  0  0  3  0  0  0  0  0  0
  -32.9500  -22.2530   18.5460 C   0  0  0  0  0  3  0  0  0  0  0  0
  -31.8850  -20.0560   18.4740 C   0  0  0  0  0  0  0  0  0  0  0  0
  -31.7400  -22.8540   18.9680 C   0  0  0  0  0  0  0  0  0  0  0  0
  -32.8730  -25.0000   19.5170 C   0  0  0  0  0  1  0  0  0  0  0  0
  -31.6650  -24.2500   19.1830 N   0  0  0  0  0  0  0  0  0  0  0  0
  -30.3670  -24.9050   19.3170 C   0  0  0  0  0  2  0  0  0  0  0  0
  -29.8700  -24.9330   20.7720 C   0  0  0  0  0  2  0  0  0  0  0  0
  -28.4480  -25.4850   20.8640 C   0  0  0  0  0  2  0  0  0  0  0  0
  -28.4720  -26.7970   20.3250 O   0  0  0  0  0  0  0  0  0  0  0  0
  -24.5870  -31.9370   23.2520 C   0  0  0  0  0  0  0  0  0  0  0  0
  -27.2740  -27.4560   20.3230 C   0  0  0  0  0  0  0  0  0  0  0  0
  -23.3960  -30.4860   21.6360 C   0  0  0  0  0  3  0  0  0  0  0  0
  -24.8650  -28.9100   20.2750 C   0  0  0  0  0  0  0  0  0  0  0  0
  -25.9160  -30.8590   21.4460 C   0  0  0  0  0  2  0  0  0  0  0  0
  -26.0110  -29.4710   20.8520 C   0  0  0  0  0  0  0  0  0  0  0  0
  -27.2210  -28.7520   20.8680 C   0  0  0  0  0  3  0  0  0  0  0  0
  -26.1130  -26.8900   19.7530 C   0  0  0  0  0  3  0  0  0  0  0  0
  -24.9070  -27.6150   19.7290 C   0  0  0  0  0  3  0  0  0  0  0  0
  -23.6180  -29.7630   20.2810 C   0  0  0  0  0  2  0  0  0  0  0  0
  -24.6510  -31.1090   22.1700 N   0  0  0  0  0  0  0  0  0  0  0  0
  -23.5020  -32.2210   23.7760 O   0  0  0  0  0  0  0  0  0  0  0  0
  -22.7410  -29.4910   22.6200 C   0  0  0  0  0  0  0  0  0  0  0  0
  -21.4200  -29.2950   22.4780 N   0  0  0  0  0  0  0  0  0  0  0  0
  -23.4170  -28.8970   23.4650 O   0  0  0  0  0  0  0  0  0  0  0  0
  -20.9380  -29.8240   21.7650 H   0  0  0  0  0  0  0  0  0  0  0  0
  -18.0500  -28.0890   22.9470 C   0  0  0  0  0  0  0  0  0  0  0  0
  -20.5980  -28.3770   23.2640 C   0  0  0  0  0  3  0  0  0  0  0  0
  -20.7250  -26.9280   22.7400 C   0  0  0  0  0  2  0  0  0  0  0  0
  -19.6490  -26.5610   21.7140 C   0  0  0  0  0  2  0  0  0  0  0  0
  -18.2530  -26.7180   22.3230 C   0  0  0  0  0  2  0  0  0  0  0  0
  -19.1530  -28.8740   23.3740 C   0  0  0  0  0  0  0  0  0  0  0  0
  -18.9140  -30.1560   23.9140 C   0  0  0  0  0  3  0  0  0  0  0  0
  -17.6020  -30.6540   24.0330 C   0  0  0  0  0  3  0  0  0  0  0  0
  -16.5120  -29.8640   23.6230 C   0  0  0  0  0  3  0  0  0  0  0  0
  -16.7380  -28.5850   23.0860 C   0  0  0  0  0  3  0  0  0  0  0  0
  -25.8690  -32.5830   23.8650 C   0  0  0  0  0  3  0  0  0  0  0  0
  -25.5500  -33.9810   24.1820 N   0  0  0  0  0  0  0  0  0  0  0  0
  -25.8790  -35.0290   23.4130 C   0  0  0  0  0  0  0  0  0  0  0  0
  -26.5570  -34.9200   22.3880 O   0  0  0  0  0  0  0  0  0  0  0  0
  -24.9490  -34.1390   24.9770 H   0  0  0  0  0  0  0  0  0  0  0  0
  -24.1400  -36.8020   23.0290 C   0  0  0  0  0  1  0  0  0  0  0  0
  -25.3770  -36.4160   23.8550 C   0  0  0  0  0  3  0  0  0  0  0  0
  -27.5000  -37.3210   24.6940 C   0  0  0  0  0  1  0  0  0  0  0  0
  -26.4020  -37.4760   23.7420 N   0  0  0  0  0  0  0  0  0  0  0  0
  -25.9890  -38.3940   23.8820 H   0  0  0  0  0  0  0  0  0  0  0  0
  -26.3980  -31.8270   25.1450 C   0  0  1  0  0  0  0  0  0  0  0  0
  -25.3100  -31.5850   26.2150 C   0  0  0  0  0  1  0  0  0  0  0  0
  -26.9950  -30.4530   24.7580 C   0  0  0  0  0  1  0  0  0  0  0  0
  -27.5420  -32.6370   25.7980 C   0  0  0  0  0  1  0  0  0  0  0  0
  -31.9440  -18.5620   18.2160 C   0  0  0  0  0  2  0  0  0  0  0  0
  -30.8320  -17.1780   19.9420 C   0  0  0  0  0  0  0  0  0  0  0  0
  -33.2480  -17.7350   20.1290 C   0  0  0  0  0  1  0  0  0  0  0  0
  -31.9410  -17.7960   19.4660 N   0  0  0  0  0  0  0  0  0  0  0  0
  -29.7370  -17.2340   19.3740 O   0  0  0  0  0  0  0  0  0  0  0  0
  -30.9240  -16.3380   21.2400 C   0  0  0  0  0  2  0  0  0  0  0  0
  -30.9260  -14.2080   19.9530 C   0  0  0  0  0  0  0  0  0  0  0  0
  -30.2680  -12.3620   18.4580 C   0  0  0  0  0  2  0  0  0  0  0  0
  -29.2110  -12.7960   17.4240 C   0  0  0  0  0  2  0  0  0  0  0  0
  -27.7900  -12.6560   18.0050 C   0  0  0  0  0  2  0  0  0  0  0  0
  -27.6530  -13.3240   19.3960 C   0  0  0  0  0  3  0  0  0  0  0  0
  -28.7970  -12.8800   20.3290 C   0  0  0  0  0  2  0  0  0  0  0  0
  -30.0890  -13.1710   19.6740 N   0  0  0  0  0  0  0  0  0  0  0  0
  -31.8290  -14.5510   19.1840 O   0  0  0  0  0  0  0  0  0  0  0  0
  -30.8370  -14.1630   22.3810 C   0  0  0  0  0  1  0  0  0  0  0  0
  -30.6950  -14.8820   21.1060 N   0  0  0  0  0  0  0  0  0  0  0  0
  -25.3380  -13.9520   20.3430 C   0  0  0  0  0  0  0  0  0  0  0  0
  -24.2960  -13.1850   20.7940 C   0  0  0  0  0  0  0  0  0  0  0  0
  -24.7270  -11.8290   20.6780 C   0  0  0  0  0  0  0  0  0  0  0  0
  -26.3420  -13.0610   19.9910 N   0  0  0  0  0  0  0  0  0  0  0  0
  -25.9790  -11.7770   20.2450 N   0  0  0  0  0  0  0  0  0  0  0  0
  -23.9980  -10.5730   20.9020 C   0  0  0  0  0  0  0  0  0  0  0  0
  -24.4770   -9.5930   21.7980 C   0  0  0  0  0  3  0  0  0  0  0  0
  -23.7520   -8.4000   22.0090 C   0  0  0  0  0  3  0  0  0  0  0  0
  -22.5290   -8.1830   21.3290 C   0  0  0  0  0  0  0  0  0  0  0  0
  -22.0700   -9.1520   20.4190 C   0  0  0  0  0  3  0  0  0  0  0  0
  -22.7970  -10.3340   20.2060 C   0  0  0  0  0  3  0  0  0  0  0  0
  -21.7710   -7.0450   21.4520 O   0  0  0  0  0  0  0  0  0  0  0  0
  -21.7620   -6.3080   22.6080 C   0  0  0  0  0  0  0  0  0  0  0  0
  -21.4000   -6.8740   23.8510 C   0  0  0  0  0  3  0  0  0  0  0  0
  -21.3340   -6.0650   25.0010 C   0  0  0  0  0  3  0  0  0  0  0  0
  -21.6200   -4.6900   24.9120 C   0  0  0  0  0  0  0  0  0  0  0  0
  -21.9760   -4.1220   23.6760 C   0  0  0  0  0  3  0  0  0  0  0  0
  -22.0420   -4.9290   22.5270 C   0  0  0  0  0  0  0  0  0  0  0  0
  -22.3620   -4.3730   21.3340 F   0  0  0  0  0  0  0  0  0  0  0  0
  -21.5500   -3.9100   26.0160 F   0  0  0  0  0  0  0  0  0  0  0  0
  -22.9410  -13.6770   21.2120 C   0  0  0  0  0  0  0  0  0  0  0  0
  -22.2960  -12.9850   22.1460 N   0  0  0  0  0  0  0  0  0  0  0  0
  -22.4640  -14.7130   20.7480 O   0  0  0  0  0  0  0  0  0  0  0  0
  -22.6900  -12.1450   22.5450 H   0  0  0  0  0  0  0  0  0  0  0  0
  -21.3970  -13.3080   22.4720 H   0  0  0  0  0  0  0  0  0  0  0  0
  -25.5000  -15.3250   20.1840 N   0  0  0  0  0  0  0  0  0  0  0  0
  -24.7380  -15.9760   20.3380 H   0  0  0  0  0  0  0  0  0  0  0  0
  -26.3120  -15.7630   19.7660 H   0  0  0  0  0  0  0  0  0  0  0  0
  1  3  1  0
  2  5  1  0
  2  4  2  0
  4  6  1  0
  5  1  2  0
  6  3  2  0
  6  8  1  0
  8  9  1  0
  8  7  1  0
  9 10  1  0
 10 11  1  0
 12 11  1  0
 13 24  2  0
 14 12  1  0
 14 19  1  0
 15 23  1  0
 15 25  1  0
 16 22  1  0
 16 18  1  0
 17 23  1  0
 18 19  2  0
 18 17  1  0
 20 14  2  0
 21 20  1  0
 21 16  2  0
 22 15  1  0
 23 13  1  0
 25 27  2  0
 26 25  1  0
 28 26  1  0
 29 38  2  0
 29 34  1  0
 30 26  1  0
 30 34  1  0
 31 30  1  0
 32 33  1  0
 32 31  1  0
 33 29  1  0
 34 35  2  0
 35 36  1  0
 37 36  2  0
 38 37  1  0
 39 13  1  0
 39 40  1  0
 39 49  1  0
 40 43  1  0
 41 45  1  0
 41 40  1  0
 42 41  2  0
 45 44  1  0
 47 45  1  0
 47 48  1  0
 47 46  1  0
 49 52  1  1
 49 50  1  0
 51 49  1  0
 53  5  1  0
 53 56  1  0
 54 58  1  0
 56 54  1  0
 56 55  1  0
 57 54  2  0
 59 68  1  0
 60 65  1  0
 61 62  1  0
 61 60  1  0
 63 62  1  0
 63 72  1  0
 63 64  1  0
 65 59  1  0
 65 64  1  0
 66 59  2  0
 68 58  1  0
 68 67  1  0
 69 70  2  0
 70 89  1  0
 71 70  1  0
 71 74  1  0
 72 73  1  0
 72 69  1  0
 73 71  2  0
 74 75  1  0
 75 76  2  0
 77 80  1  0
 77 76  1  0
 78 77  2  0
 79 78  1  0
 79 74  2  0
 80 81  1  0
 81 82  1  0
 82 83  2  0
 84 83  1  0
 84 88  1  0
 85 84  2  0
 86 81  2  0
 86 85  1  0
 87 86  1  0
 89 90  1  0
 90 93  1  0
 90 92  1  0
 91 89  2  0
 94 95  1  0
 94 69  1  0
 96 94  1  0
M  ISO  4  11 101  12 101  59 100  68 100
M  END
>  <TORSDO>  (92) 
F 23

>  <SCORE>  (92) 
-11.038

>  <name>  (92) 
91

>  <ligand_id>  (92) 
91

>  <original_smiles>  (92) 
[H]c1c([H])c([H])c2c(c1[H])C([H])([H])C([H])([H])C([H])([H])C2([H])N([H])C(=O)C1([H])N(C(=O)C([H])(N([H])C(=O)C([H])(N([H])C([H])([H])[H])C([H])([H])[H])C(C([H])([H])[H])(C([H])([H])[H])C([H])([H])[H])C([H])([H])c2c([H])c(OC([H])([H])C([H])([H])C([H])([H])N(c3c([H])c([H])c(C([H])([H])N(C(=O)C([H])([H])N(C(=O)N4C([H])([H])C([H])([H])C([H])([H])C([H])(n5nc(-c6c([H])c([H])c(Oc7c([H])c([H])c(F)c([H])c7F)c([H])c6[H])c(C(=O)N([H])[H])c5N([H])[H])C4([H])[H])C([H])([H])[H])C([H])([H])[H])c([H])c3[H])C([H])([H])[H])c([H])c([H])c2C1([H])[H]

>  <smiles>  (92) 
[H]c1c([H])c([H])c2c(c1[H])C([H])([H])C([H])([H])C([H])([H])C2([H])N([H])C(=O)C1([H])N(C(=O)C([H])(N([H])C(=O)C([H])(N([H])C([H])([H])[H])C([H])([H])[H])C(C([H])([H])[H])(C([H])([H])[H])C([H])([H])[H])C([H])([H])c2c([H])c(OC([H])([H])C([H])([H])C([H])([H])N(c3c([H])c([H])c(C([H])([H])N(C(=O)C([H])([H])N(C(=O)N4C([H])([H])C([H])([H])C([H])([H])C([H])(n5nc(-c6c([H])c([H])c(Oc7c([H])c([H])c(F)c([H])c7F)c([H])c6[H])c(C(=O)N([H])[H])c5N([H])[H])C4([H])[H])C([H])([H])[H])C([H])([H])[H])c([H])c3[H])C([H])([H])[H])c([H])c([H])c2C1([H])[H]

$$$$
92:0:0
     RDKit          3D

 95103  0  0  1  0  0  0  0  0999 V2000
  -28.8090  -21.0590   20.2170 C   0  0  0  0  0  3  0  0  0  0  0  0
  -29.1060  -19.9230   20.9940 C   0  0  0  0  0  3  0  0  0  0  0  0
  -31.1180  -21.1230   19.4320 C   0  0  0  0  0  0  0  0  0  0  0  0
  -29.7860  -21.6330   19.3760 C   0  0  0  0  0  0  0  0  0  0  0  0
  -30.3860  -19.3330   20.9480 C   0  0  0  0  0  0  0  0  0  0  0  0
  -31.4040  -19.9770   20.2060 C   0  0  0  0  0  0  0  0  0  0  0  0
  -32.6690  -19.4790   20.2280 F   0  0  0  0  0  0  0  0  0  0  0  0
  -30.5790  -18.1520   23.0760 C   0  0  0  0  0  1  0  0  0  0  0  0
  -30.6070  -18.1100   21.6190 N   0  0  0  0  0  0  0  0  0  0  0  0
  -31.3040  -17.0260   20.9120 C   0  0  0  0  0  2  0  0  0  0  0  0
  -30.5980  -15.6560   21.0650 C   0  0  0  0  0  2  0  0  0  0  0  0
  -31.1810  -14.5180   20.1930 C   0  0  0  0  0  0  0  0  0  0  0  0
  -30.7880  -12.4050   18.9700 C   0  0  0  0  0  2  0  0  0  0  0  0
  -29.8290  -12.6370   17.7870 C   0  0  0  0  0  2  0  0  0  0  0  0
  -28.3550  -12.5500   18.2390 C   0  0  0  0  0  2  0  0  0  0  0  0
  -28.0710  -13.4050   19.5040 C   0  0  0  0  0  3  0  0  0  0  0  0
  -29.1310  -13.1250   20.5930 C   0  0  0  0  0  2  0  0  0  0  0  0
  -30.4600  -13.3820   20.0190 N   0  0  0  0  0  0  0  0  0  0  0  0
  -32.2650  -14.6960   19.6220 O   0  0  0  0  0  0  0  0  0  0  0  0
  -25.7090  -14.1310   20.2370 C   0  0  0  0  0  0  0  0  0  0  0  0
  -24.6140  -13.4120   20.6370 C   0  0  0  0  0  0  0  0  0  0  0  0
  -25.0160  -12.0430   20.6190 C   0  0  0  0  0  0  0  0  0  0  0  0
  -26.7120  -13.2010   20.0050 N   0  0  0  0  0  0  0  0  0  0  0  0
  -26.2960  -11.9400   20.2860 N   0  0  0  0  0  0  0  0  0  0  0  0
  -24.2420  -10.8160   20.8370 C   0  0  0  0  0  0  0  0  0  0  0  0
  -24.6350   -9.8610   21.7980 C   0  0  0  0  0  3  0  0  0  0  0  0
  -23.8670   -8.6950   22.0040 C   0  0  0  0  0  3  0  0  0  0  0  0
  -22.6910   -8.4760   21.2480 C   0  0  0  0  0  0  0  0  0  0  0  0
  -22.3160   -9.4220   20.2770 C   0  0  0  0  0  3  0  0  0  0  0  0
  -23.0850  -10.5800   20.0690 C   0  0  0  0  0  3  0  0  0  0  0  0
  -21.8960   -7.3610   21.3610 O   0  0  0  0  0  0  0  0  0  0  0  0
  -21.7860   -6.6730   22.5410 C   0  0  0  0  0  0  0  0  0  0  0  0
  -21.3570   -7.2970   23.7330 C   0  0  0  0  0  3  0  0  0  0  0  0
  -21.1830   -6.5330   24.9040 C   0  0  0  0  0  3  0  0  0  0  0  0
  -21.4320   -5.1480   24.8870 C   0  0  0  0  0  0  0  0  0  0  0  0
  -21.8590   -4.5240   23.7020 C   0  0  0  0  0  3  0  0  0  0  0  0
  -22.0300   -5.2850   22.5310 C   0  0  0  0  0  0  0  0  0  0  0  0
  -22.4160   -4.6730   21.3850 F   0  0  0  0  0  0  0  0  0  0  0  0
  -21.2630   -4.4140   26.0130 F   0  0  0  0  0  0  0  0  0  0  0  0
  -23.2420  -13.9550   20.9240 C   0  0  0  0  0  0  0  0  0  0  0  0
  -22.4980  -13.3110   21.8180 N   0  0  0  0  0  0  0  0  0  0  0  0
  -22.8400  -14.9870   20.3920 O   0  0  0  0  0  0  0  0  0  0  0  0
  -22.8390  -12.4860   22.2870 H   0  0  0  0  0  0  0  0  0  0  0  0
  -21.5730  -13.6550   22.0390 H   0  0  0  0  0  0  0  0  0  0  0  0
  -25.9290  -15.4880   20.0320 N   0  0  0  0  0  0  0  0  0  0  0  0
  -25.1800  -16.1660   20.1090 H   0  0  0  0  0  0  0  0  0  0  0  0
  -26.7890  -15.8880   19.6810 H   0  0  0  0  0  0  0  0  0  0  0  0
  -29.6390  -22.4120   17.0620 C   0  0  0  0  0  1  0  0  0  0  0  0
  -29.3480  -22.6340   18.4820 N   0  0  0  0  0  0  0  0  0  0  0  0
  -29.3210  -24.0110   18.9730 C   0  0  0  0  0  2  0  0  0  0  0  0
  -28.2780  -24.8650   18.2290 C   0  0  0  0  0  2  0  0  0  0  0  0
  -28.4180  -26.3780   18.4800 C   0  0  0  0  0  2  0  0  0  0  0  0
  -28.1070  -26.7760   19.8220 O   0  0  0  0  0  0  0  0  0  0  0  0
  -24.5040  -31.9220   23.2200 C   0  0  0  0  0  0  0  0  0  0  0  0
  -26.9390  -27.4880   19.9560 C   0  0  0  0  0  0  0  0  0  0  0  0
  -23.2140  -30.5660   21.6060 C   0  0  0  0  0  3  0  0  0  0  0  0
  -24.5780  -29.0240   20.1090 C   0  0  0  0  0  0  0  0  0  0  0  0
  -25.7370  -30.8750   21.3240 C   0  0  0  0  0  2  0  0  0  0  0  0
  -25.7670  -29.5110   20.6700 C   0  0  0  0  0  0  0  0  0  0  0  0
  -26.9470  -28.7390   20.6110 C   0  0  0  0  0  3  0  0  0  0  0  0
  -25.7290  -27.0010   19.4170 C   0  0  0  0  0  3  0  0  0  0  0  0
  -24.5510  -27.7660   19.4870 C   0  0  0  0  0  3  0  0  0  0  0  0
  -23.3570  -29.9050   20.2100 C   0  0  0  0  0  2  0  0  0  0  0  0
  -24.5060  -31.1350   22.1070 N   0  0  0  0  0  0  0  0  0  0  0  0
  -23.4480  -32.2060   23.8010 O   0  0  0  0  0  0  0  0  0  0  0  0
  -22.5790  -29.5410   22.5740 C   0  0  0  0  0  0  0  0  0  0  0  0
  -21.2570  -29.3410   22.4500 N   0  0  0  0  0  0  0  0  0  0  0  0
  -23.2720  -28.9290   23.3900 O   0  0  0  0  0  0  0  0  0  0  0  0
  -20.7580  -29.8890   21.7610 H   0  0  0  0  0  0  0  0  0  0  0  0
  -17.9110  -28.0640   22.9030 C   0  0  0  0  0  0  0  0  0  0  0  0
  -20.4520  -28.4030   23.2280 C   0  0  0  0  0  3  0  0  0  0  0  0
  -20.6110  -26.9590   22.6940 C   0  0  0  0  0  2  0  0  0  0  0  0
  -19.5430  -26.5780   21.6640 C   0  0  0  0  0  2  0  0  0  0  0  0
  -18.1440  -26.7000   22.2730 C   0  0  0  0  0  2  0  0  0  0  0  0
  -18.9950  -28.8690   23.3390 C   0  0  0  0  0  0  0  0  0  0  0  0
  -18.7280  -30.1430   23.8860 C   0  0  0  0  0  3  0  0  0  0  0  0
  -17.4060  -30.6110   24.0070 C   0  0  0  0  0  3  0  0  0  0  0  0
  -16.3330  -29.8010   23.5930 C   0  0  0  0  0  3  0  0  0  0  0  0
  -16.5870  -28.5310   23.0430 C   0  0  0  0  0  3  0  0  0  0  0  0
  -25.8240  -32.5190   23.7990 C   0  0  0  0  0  3  0  0  0  0  0  0
  -25.5540  -33.9180   24.1590 N   0  0  0  0  0  0  0  0  0  0  0  0
  -25.8850  -34.9730   23.4040 C   0  0  0  0  0  0  0  0  0  0  0  0
  -26.5210  -34.8690   22.3500 O   0  0  0  0  0  0  0  0  0  0  0  0
  -24.9820  -34.0720   24.9760 H   0  0  0  0  0  0  0  0  0  0  0  0
  -24.1840  -36.8030   23.1310 C   0  0  0  0  0  1  0  0  0  0  0  0
  -25.4430  -36.3640   23.8950 C   0  0  0  0  0  3  0  0  0  0  0  0
  -27.6220  -37.1930   24.6620 C   0  0  0  0  0  1  0  0  0  0  0  0
  -26.4930  -37.3970   23.7600 N   0  0  0  0  0  0  0  0  0  0  0  0
  -26.1110  -38.3220   23.9330 H   0  0  0  0  0  0  0  0  0  0  0  0
  -26.3780  -31.7180   25.0410 C   0  0  1  0  0  0  0  0  0  0  0  0
  -25.3250  -31.4790   26.1470 C   0  0  0  0  0  1  0  0  0  0  0  0
  -26.9190  -30.3380   24.5990 C   0  0  0  0  0  1  0  0  0  0  0  0
  -27.5680  -32.4800   25.6650 C   0  0  0  0  0  1  0  0  0  0  0  0
  -32.2230  -21.7320   18.7000 C   0  0  0  0  0  0  0  0  0  0  0  0
  -33.0990  -22.2170   18.1160 N   0  0  0  0  0  0  0  0  0  0  0  0
  1  2  1  0
  3  6  2  0
  4  3  1  0
  4  1  2  0
  5  2  2  0
  5  9  1  0
  6  7  1  0
  6  5  1  0
  9  8  1  0
 10 11  1  0
 10  9  1  0
 12 11  1  0
 13 18  1  0
 14 15  1  0
 14 13  1  0
 16 15  1  0
 16 23  1  0
 16 17  1  0
 18 12  1  0
 18 17  1  0
 19 12  2  0
 20 21  2  0
 21 40  1  0
 22 21  1  0
 22 25  1  0
 23 20  1  0
 23 24  1  0
 24 22  2  0
 25 26  1  0
 26 27  2  0
 28 31  1  0
 28 27  1  0
 29 28  2  0
 30 29  1  0
 30 25  2  0
 31 32  1  0
 32 33  1  0
 33 34  2  0
 35 34  1  0
 35 39  1  0
 36 35  2  0
 37 32  2  0
 37 36  1  0
 38 37  1  0
 40 41  1  0
 41 44  1  0
 41 43  1  0
 42 40  2  0
 45 46  1  0
 45 20  1  0
 47 45  1  0
 48 49  1  0
 49 50  1  0
 49  4  1  0
 51 52  1  0
 51 50  1  0
 52 53  1  0
 53 55  1  0
 54 65  2  0
 55 60  1  0
 56 64  1  0
 56 66  1  0
 57 63  1  0
 57 59  1  0
 58 64  1  0
 59 58  1  0
 60 59  2  0
 61 62  1  0
 61 55  2  0
 62 57  2  0
 63 56  1  0
 64 54  1  0
 66 68  2  0
 67 66  1  0
 69 67  1  0
 70 79  2  0
 70 75  1  0
 71 67  1  0
 71 75  1  0
 72 71  1  0
 73 74  1  0
 73 72  1  0
 74 70  1  0
 75 76  2  0
 76 77  1  0
 78 77  2  0
 79 78  1  0
 80 54  1  0
 80 81  1  0
 80 90  1  0
 81 84  1  0
 82 86  1  0
 82 81  1  0
 83 82  2  0
 86 85  1  0
 88 86  1  0
 88 89  1  0
 88 87  1  0
 90 93  1  1
 90 91  1  0
 92 90  1  0
 94  3  1  0
 95 94  3  0
M  ISO  4  11 100  12 100  52 101  53 101
M  END
>  <TORSDO>  (93) 
F 24

>  <SCORE>  (93) 
-11.860

>  <name>  (93) 
92

>  <ligand_id>  (93) 
92

>  <original_smiles>  (93) 
[H]c1c([H])c([H])c2c(c1[H])C([H])([H])C([H])([H])C([H])([H])C2([H])N([H])C(=O)C1([H])N(C(=O)C([H])(N([H])C(=O)C([H])(N([H])C([H])([H])[H])C([H])([H])[H])C(C([H])([H])[H])(C([H])([H])[H])C([H])([H])[H])C([H])([H])c2c([H])c(OC([H])([H])C([H])([H])C([H])([H])N(c3c([H])c([H])c(N(C([H])([H])[H])C([H])([H])C([H])([H])C(=O)N4C([H])([H])C([H])([H])C([H])([H])C([H])(n5nc(-c6c([H])c([H])c(Oc7c([H])c([H])c(F)c([H])c7F)c([H])c6[H])c(C(=O)N([H])[H])c5N([H])[H])C4([H])[H])c(F)c3C#N)C([H])([H])[H])c([H])c([H])c2C1([H])[H]

>  <smiles>  (93) 
[H]c1c([H])c([H])c2c(c1[H])C([H])([H])C([H])([H])C([H])([H])C2([H])N([H])C(=O)C1([H])N(C(=O)C([H])(N([H])C(=O)C([H])(N([H])C([H])([H])[H])C([H])([H])[H])C(C([H])([H])[H])(C([H])([H])[H])C([H])([H])[H])C([H])([H])c2c([H])c(OC([H])([H])C([H])([H])C([H])([H])N(c3c([H])c([H])c(N(C([H])([H])[H])C([H])([H])C([H])([H])C(=O)N4C([H])([H])C([H])([H])C([H])([H])C([H])(n5nc(-c6c([H])c([H])c(Oc7c([H])c([H])c(F)c([H])c7F)c([H])c6[H])c(C(=O)N([H])[H])c5N([H])[H])C4([H])[H])c(F)c3C#N)C([H])([H])[H])c([H])c([H])c2C1([H])[H]

$$$$
93:0:0
     RDKit          3D

 92101  0  0  1  0  0  0  0  0999 V2000
  -28.1430  -24.0090   19.1080 C   0  0  0  0  0  2  0  0  0  0  0  0
  -29.2520  -24.2330   21.2480 C   0  0  0  0  0  2  0  0  0  0  0  0
  -28.0250  -22.4370   19.3480 C   0  0  0  0  0  2  0  0  0  0  0  0
  -29.1610  -22.6580   21.4670 C   0  0  0  0  0  2  0  0  0  0  0  0
  -28.1210  -24.9080   20.3950 C   0  0  0  0  0  3  0  0  0  0  0  0
  -29.0530  -21.8360   20.2370 N   0  0  0  0  0  0  0  0  0  0  0  0
  -28.2900  -19.4400   19.8070 C   0  0  0  0  0  3  0  0  0  0  0  0
  -28.4530  -18.0140   19.8820 C   0  0  0  0  0  3  0  0  0  0  0  0
  -30.5800  -18.2910   20.9080 C   0  0  0  0  0  3  0  0  0  0  0  0
  -29.2440  -20.3760   20.3080 C   0  0  0  0  0  0  0  0  0  0  0  0
  -29.6020  -17.3680   20.4290 C   0  0  0  0  0  0  0  0  0  0  0  0
  -30.4070  -19.7270   20.8590 C   0  0  0  0  0  0  0  0  0  0  0  0
  -31.4090  -20.4950   21.3540 F   0  0  0  0  0  0  0  0  0  0  0  0
  -30.4890  -14.8270   20.3660 C   0  0  0  0  0  0  0  0  0  0  0  0
  -30.3660  -12.5360   19.3520 C   0  0  0  0  0  2  0  0  0  0  0  0
  -29.4080  -12.5960   18.1390 C   0  0  0  0  0  2  0  0  0  0  0  0
  -27.9410  -12.4040   18.5790 C   0  0  0  0  0  2  0  0  0  0  0  0
  -27.5680  -13.2830   19.8030 C   0  0  0  0  0  3  0  0  0  0  0  0
  -28.6380  -13.1800   20.9130 C   0  0  0  0  0  2  0  0  0  0  0  0
  -29.9250  -13.5680   20.3180 N   0  0  0  0  0  0  0  0  0  0  0  0
  -31.6690  -14.9910   20.0420 O   0  0  0  0  0  0  0  0  0  0  0  0
  -29.6030  -15.8800   20.5830 N   0  0  0  0  0  0  0  0  0  0  0  0
  -28.6820  -15.5060   20.7460 H   0  0  0  0  0  0  0  0  0  0  0  0
  -25.1860  -13.8690   20.5560 C   0  0  0  0  0  0  0  0  0  0  0  0
  -24.1240  -13.0920   20.9270 C   0  0  0  0  0  0  0  0  0  0  0  0
  -24.5870  -11.7420   20.8760 C   0  0  0  0  0  0  0  0  0  0  0  0
  -26.2280  -12.9910   20.3000 N   0  0  0  0  0  0  0  0  0  0  0  0
  -25.8740  -11.7060   20.5560 N   0  0  0  0  0  0  0  0  0  0  0  0
  -23.8610  -10.4770   21.0570 C   0  0  0  0  0  0  0  0  0  0  0  0
  -24.2910   -9.5060   21.9870 C   0  0  0  0  0  3  0  0  0  0  0  0
  -23.5650   -8.3070   22.1560 C   0  0  0  0  0  3  0  0  0  0  0  0
  -22.3950   -8.0720   21.3950 C   0  0  0  0  0  0  0  0  0  0  0  0
  -21.9840   -9.0330   20.4550 C   0  0  0  0  0  3  0  0  0  0  0  0
  -22.7100  -10.2230   20.2840 C   0  0  0  0  0  3  0  0  0  0  0  0
  -21.6420   -6.9260   21.4740 O   0  0  0  0  0  0  0  0  0  0  0  0
  -21.5780   -6.1850   22.6260 C   0  0  0  0  0  0  0  0  0  0  0  0
  -21.0860   -6.7250   23.8340 C   0  0  0  0  0  3  0  0  0  0  0  0
  -20.9730   -5.9070   24.9770 C   0  0  0  0  0  3  0  0  0  0  0  0
  -21.3410   -4.5510   24.9120 C   0  0  0  0  0  0  0  0  0  0  0  0
  -21.8270   -4.0100   23.7080 C   0  0  0  0  0  3  0  0  0  0  0  0
  -21.9420   -4.8240   22.5670 C   0  0  0  0  0  0  0  0  0  0  0  0
  -22.3900   -4.2920   21.4050 F   0  0  0  0  0  0  0  0  0  0  0  0
  -21.2260   -3.7630   26.0060 F   0  0  0  0  0  0  0  0  0  0  0  0
  -22.7290  -13.5670   21.2140 C   0  0  0  0  0  0  0  0  0  0  0  0
  -22.0080  -12.8640   22.0790 N   0  0  0  0  0  0  0  0  0  0  0  0
  -22.2870  -14.5970   20.7050 O   0  0  0  0  0  0  0  0  0  0  0  0
  -22.3780  -12.0310   22.5120 H   0  0  0  0  0  0  0  0  0  0  0  0
  -21.0730  -13.1640   22.3150 H   0  0  0  0  0  0  0  0  0  0  0  0
  -25.3460  -15.2420   20.3890 N   0  0  0  0  0  0  0  0  0  0  0  0
  -24.5680  -15.8850   20.4990 H   0  0  0  0  0  0  0  0  0  0  0  0
  -26.1660  -15.6810   19.9960 H   0  0  0  0  0  0  0  0  0  0  0  0
  -28.2790  -26.4120   20.2470 O   0  0  0  0  0  0  0  0  0  0  0  0
  -24.6110  -31.9250   23.2800 C   0  0  0  0  0  0  0  0  0  0  0  0
  -27.1670  -27.2920   20.2250 C   0  0  0  0  0  0  0  0  0  0  0  0
  -23.3900  -30.5350   21.6470 C   0  0  0  0  0  3  0  0  0  0  0  0
  -24.8220  -28.9620   20.2160 C   0  0  0  0  0  0  0  0  0  0  0  0
  -25.9360  -30.8200   21.4530 C   0  0  0  0  0  2  0  0  0  0  0  0
  -26.0010  -29.4360   20.8050 C   0  0  0  0  0  0  0  0  0  0  0  0
  -27.1780  -28.6160   20.7880 C   0  0  0  0  0  3  0  0  0  0  0  0
  -25.9600  -26.8820   19.6210 C   0  0  0  0  0  3  0  0  0  0  0  0
  -24.8070  -27.6940   19.6130 C   0  0  0  0  0  3  0  0  0  0  0  0
  -23.5940  -29.8530   20.2670 C   0  0  0  0  0  2  0  0  0  0  0  0
  -24.6660  -31.1130   22.1830 N   0  0  0  0  0  0  0  0  0  0  0  0
  -23.5320  -32.2120   23.8190 O   0  0  0  0  0  0  0  0  0  0  0  0
  -22.7190  -29.5290   22.6120 C   0  0  0  0  0  0  0  0  0  0  0  0
  -21.3950  -29.3410   22.4730 N   0  0  0  0  0  0  0  0  0  0  0  0
  -23.3910  -28.9180   23.4480 O   0  0  0  0  0  0  0  0  0  0  0  0
  -20.9100  -29.8860   21.7720 H   0  0  0  0  0  0  0  0  0  0  0  0
  -18.0220  -28.1140   22.9400 C   0  0  0  0  0  0  0  0  0  0  0  0
  -20.5740  -28.4070   23.2450 C   0  0  0  0  0  3  0  0  0  0  0  0
  -20.7000  -26.9680   22.6930 C   0  0  0  0  0  2  0  0  0  0  0  0
  -19.6170  -26.6190   21.6670 C   0  0  0  0  0  2  0  0  0  0  0  0
  -18.2240  -26.7570   22.2870 C   0  0  0  0  0  2  0  0  0  0  0  0
  -19.1260  -28.8960   23.3750 C   0  0  0  0  0  0  0  0  0  0  0  0
  -18.8830  -30.1640   23.9450 C   0  0  0  0  0  3  0  0  0  0  0  0
  -17.5700  -30.6520   24.0860 C   0  0  0  0  0  3  0  0  0  0  0  0
  -16.4810  -29.8680   23.6660 C   0  0  0  0  0  3  0  0  0  0  0  0
  -16.7080  -28.6020   23.0980 C   0  0  0  0  0  3  0  0  0  0  0  0
  -25.8990  -32.5500   23.8970 C   0  0  0  0  0  3  0  0  0  0  0  0
  -25.6020  -33.9530   24.2230 N   0  0  0  0  0  0  0  0  0  0  0  0
  -25.9220  -35.0000   23.4510 C   0  0  0  0  0  0  0  0  0  0  0  0
  -26.5660  -34.8870   22.4040 O   0  0  0  0  0  0  0  0  0  0  0  0
  -25.0290  -34.1160   25.0380 H   0  0  0  0  0  0  0  0  0  0  0  0
  -24.1910  -36.7990   23.1340 C   0  0  0  0  0  1  0  0  0  0  0  0
  -25.4540  -36.3950   23.9110 C   0  0  0  0  0  3  0  0  0  0  0  0
  -27.6100  -37.2840   24.6800 C   0  0  0  0  0  1  0  0  0  0  0  0
  -26.4870  -37.4430   23.7600 N   0  0  0  0  0  0  0  0  0  0  0  0
  -26.0860  -38.3660   23.9060 H   0  0  0  0  0  0  0  0  0  0  0  0
  -26.4090  -31.7820   25.1780 C   0  0  1  0  0  0  0  0  0  0  0  0
  -25.3140  -31.5580   26.2480 C   0  0  0  0  0  1  0  0  0  0  0  0
  -26.9830  -30.3970   24.7970 C   0  0  0  0  0  1  0  0  0  0  0  0
  -27.5650  -32.5720   25.8370 C   0  0  0  0  0  1  0  0  0  0  0  0
  1  3  1  0
  1  5  1  0
  2  4  1  0
  3  6  1  0
  5 52  1  0
  5  2  1  0
  6 10  1  0
  6  4  1  0
  7  8  2  0
  7 10  1  0
  8 11  1  0
 10 12  2  0
 11 22  1  0
 11  9  2  0
 12  9  1  0
 12 13  1  0
 14 22  1  0
 15 20  1  0
 16 17  1  0
 16 15  1  0
 18 17  1  0
 18 27  1  0
 18 19  1  0
 20 14  1  0
 20 19  1  0
 21 14  2  0
 22 23  1  0
 24 25  2  0
 25 44  1  0
 26 25  1  0
 26 29  1  0
 27 24  1  0
 27 28  1  0
 28 26  2  0
 29 30  1  0
 30 31  2  0
 32 35  1  0
 32 31  1  0
 33 32  2  0
 34 33  1  0
 34 29  2  0
 35 36  1  0
 36 37  1  0
 37 38  2  0
 39 38  1  0
 39 43  1  0
 40 39  2  0
 41 36  2  0
 41 40  1  0
 42 41  1  0
 44 45  1  0
 45 48  1  0
 45 47  1  0
 46 44  2  0
 49 50  1  0
 49 24  1  0
 51 49  1  0
 53 64  2  0
 54 52  1  0
 54 59  1  0
 55 63  1  0
 55 65  1  0
 56 62  1  0
 56 58  1  0
 57 63  1  0
 58 57  1  0
 59 58  2  0
 60 54  2  0
 61 60  1  0
 61 56  2  0
 62 55  1  0
 63 53  1  0
 65 67  2  0
 66 65  1  0
 68 66  1  0
 69 78  2  0
 69 74  1  0
 70 66  1  0
 70 74  1  0
 71 70  1  0
 72 73  1  0
 72 71  1  0
 73 69  1  0
 74 75  2  0
 75 76  1  0
 77 76  2  0
 78 77  1  0
 79 53  1  0
 79 80  1  0
 79 89  1  0
 80 83  1  0
 81 85  1  0
 81 80  1  0
 82 81  2  0
 85 84  1  0
 87 88  1  0
 87 85  1  0
 87 86  1  0
 89 92  1  1
 89 90  1  0
 91 89  1  0
M  ISO  4   5 101  14 100  22 100  52 101
M  END
>  <TORSDO>  (94) 
F 17

>  <SCORE>  (94) 
-15.448

>  <name>  (94) 
93

>  <ligand_id>  (94) 
93

>  <original_smiles>  (94) 
[H]c1c([H])c([H])c2c(c1[H])C([H])([H])C([H])([H])C([H])([H])C2([H])N([H])C(=O)C1([H])N(C(=O)C([H])(N([H])C(=O)C([H])(N([H])C([H])([H])[H])C([H])([H])[H])C(C([H])([H])[H])(C([H])([H])[H])C([H])([H])[H])C([H])([H])c2c([H])c(OC3([H])C([H])([H])C([H])([H])N(c4c([H])c([H])c(N([H])C(=O)N5C([H])([H])C([H])([H])C([H])([H])C([H])(n6nc(-c7c([H])c([H])c(Oc8c([H])c([H])c(F)c([H])c8F)c([H])c7[H])c(C(=O)N([H])[H])c6N([H])[H])C5([H])[H])c([H])c4F)C([H])([H])C3([H])[H])c([H])c([H])c2C1([H])[H]

>  <smiles>  (94) 
[H]c1c([H])c([H])c2c(c1[H])C([H])([H])C([H])([H])C([H])([H])C2([H])N([H])C(=O)C1([H])N(C(=O)C([H])(N([H])C(=O)C([H])(N([H])C([H])([H])[H])C([H])([H])[H])C(C([H])([H])[H])(C([H])([H])[H])C([H])([H])[H])C([H])([H])c2c([H])c(OC3([H])C([H])([H])C([H])([H])N(c4c([H])c([H])c(N([H])C(=O)N5C([H])([H])C([H])([H])C([H])([H])C([H])(n6nc(-c7c([H])c([H])c(Oc8c([H])c([H])c(F)c([H])c8F)c([H])c7[H])c(C(=O)N([H])[H])c6N([H])[H])C5([H])[H])c([H])c4F)C([H])([H])C3([H])[H])c([H])c([H])c2C1([H])[H]

$$$$
94:0:0
     RDKit          3D

 97106  0  0  1  0  0  0  0  0999 V2000
  -28.9210  -22.8290   20.1850 C   0  0  0  0  0  3  0  0  0  0  0  0
  -31.0450  -22.5070   21.3160 C   0  0  0  0  0  3  0  0  0  0  0  0
  -30.2270  -24.7740   20.8670 C   0  0  0  0  0  3  0  0  0  0  0  0
  -29.8980  -21.9390   20.7120 C   0  0  0  0  0  0  0  0  0  0  0  0
  -29.0640  -24.2440   20.2720 C   0  0  0  0  0  0  0  0  0  0  0  0
  -31.2090  -23.9070   21.3840 C   0  0  0  0  0  0  0  0  0  0  0  0
  -32.3150  -24.4240   21.9700 F   0  0  0  0  0  0  0  0  0  0  0  0
  -29.6610  -20.4060   20.7120 C   0  0  0  0  0  2  0  0  0  0  0  0
  -30.9320  -18.1670   20.9990 C   0  0  0  0  0  0  0  0  0  0  0  0
  -30.9480  -17.8650   22.3130 C   0  0  0  0  0  3  0  0  0  0  0  0
  -30.8580  -17.9740   18.5670 C   0  0  0  0  0  2  0  0  0  0  0  0
  -31.1340  -19.4340   18.9550 C   0  0  0  0  0  2  0  0  0  0  0  0
  -31.0900  -17.1580   19.8510 C   0  0  0  0  0  3  0  0  0  0  0  0
  -30.8600  -19.5580   20.4040 N   0  0  1  0  0  4  0  0  0  0  0  0
  -31.6330  -20.0850   20.7750 H   0  0  0  0  0  0  0  0  0  0  0  0
  -30.8720  -14.6700   19.8350 C   0  0  0  0  0  0  0  0  0  0  0  0
  -30.5990  -12.2770   19.2530 C   0  0  0  0  0  2  0  0  0  0  0  0
  -29.6740  -12.1240   18.0300 C   0  0  0  0  0  2  0  0  0  0  0  0
  -28.2090  -11.9890   18.4860 C   0  0  0  0  0  2  0  0  0  0  0  0
  -27.8090  -13.0880   19.5000 C   0  0  0  0  0  3  0  0  0  0  0  0
  -28.8720  -13.2530   20.6210 C   0  0  0  0  0  2  0  0  0  0  0  0
  -30.1700  -13.4960   19.9730 N   0  0  0  0  0  0  0  0  0  0  0  0
  -32.0590  -14.6300   19.5060 O   0  0  0  0  0  0  0  0  0  0  0  0
  -28.8670  -16.1750   19.5370 C   0  0  0  0  0  1  0  0  0  0  0  0
  -30.2610  -15.9070   19.9210 N   0  0  0  0  0  0  0  0  0  0  0  0
  -25.4930  -13.8480   20.3120 C   0  0  0  0  0  0  0  0  0  0  0  0
  -24.3880  -13.1410   20.6970 C   0  0  0  0  0  0  0  0  0  0  0  0
  -24.7590  -11.7630   20.6230 C   0  0  0  0  0  0  0  0  0  0  0  0
  -26.4670  -12.9000   20.0280 N   0  0  0  0  0  0  0  0  0  0  0  0
  -26.0320  -11.6410   20.2750 N   0  0  0  0  0  0  0  0  0  0  0  0
  -23.9580  -10.5490   20.8010 C   0  0  0  0  0  0  0  0  0  0  0  0
  -24.2930   -9.5830   21.7740 C   0  0  0  0  0  3  0  0  0  0  0  0
  -23.4970   -8.4290   21.9390 C   0  0  0  0  0  3  0  0  0  0  0  0
  -22.3520   -8.2360   21.1310 C   0  0  0  0  0  0  0  0  0  0  0  0
  -22.0380   -9.1890   20.1470 C   0  0  0  0  0  3  0  0  0  0  0  0
  -22.8340  -10.3350   19.9800 C   0  0  0  0  0  3  0  0  0  0  0  0
  -21.5340   -7.1350   21.2030 O   0  0  0  0  0  0  0  0  0  0  0  0
  -21.3040   -6.4900   22.3920 C   0  0  0  0  0  0  0  0  0  0  0  0
  -20.7430   -7.1530   23.5040 C   0  0  0  0  0  3  0  0  0  0  0  0
  -20.4600   -6.4350   24.6830 C   0  0  0  0  0  3  0  0  0  0  0  0
  -20.7280   -5.0540   24.7490 C   0  0  0  0  0  0  0  0  0  0  0  0
  -21.2850   -4.3920   23.6410 C   0  0  0  0  0  3  0  0  0  0  0  0
  -21.5710   -5.1080   22.4650 C   0  0  0  0  0  0  0  0  0  0  0  0
  -22.0860   -4.4600   21.3920 F   0  0  0  0  0  0  0  0  0  0  0  0
  -20.4490   -4.3620   25.8780 F   0  0  0  0  0  0  0  0  0  0  0  0
  -23.0340  -13.7040   21.0190 C   0  0  0  0  0  0  0  0  0  0  0  0
  -22.2940  -13.0460   21.9050 N   0  0  0  0  0  0  0  0  0  0  0  0
  -22.6450  -14.7610   20.5230 O   0  0  0  0  0  0  0  0  0  0  0  0
  -22.6210  -12.1900   22.3270 H   0  0  0  0  0  0  0  0  0  0  0  0
  -21.3850  -13.4040   22.1640 H   0  0  0  0  0  0  0  0  0  0  0  0
  -25.7380  -15.2090   20.1570 N   0  0  0  0  0  0  0  0  0  0  0  0
  -25.0140  -15.9030   20.3110 H   0  0  0  0  0  0  0  0  0  0  0  0
  -26.6040  -15.6060   19.8200 H   0  0  0  0  0  0  0  0  0  0  0  0
  -30.9360  -18.4030   24.6970 C   0  0  0  0  0  2  0  0  0  0  0  0
  -30.9230  -18.8070   23.4160 C   0  0  0  0  0  3  0  0  0  0  0  0
  -27.9240  -25.1570   19.7950 C   0  0  0  0  0  2  0  0  0  0  0  0
  -28.0810  -26.5890   20.0070 O   0  0  0  0  0  0  0  0  0  0  0  0
  -24.3560  -31.8100   23.1540 C   0  0  0  0  0  0  0  0  0  0  0  0
  -26.9260  -27.3650   19.9730 C   0  0  0  0  0  0  0  0  0  0  0  0
  -23.1080  -30.4080   21.5470 C   0  0  0  0  0  3  0  0  0  0  0  0
  -24.5270  -28.8950   20.0580 C   0  0  0  0  0  0  0  0  0  0  0  0
  -25.6300  -30.7750   21.2740 C   0  0  0  0  0  2  0  0  0  0  0  0
  -25.7050  -29.4090   20.6180 C   0  0  0  0  0  0  0  0  0  0  0  0
  -26.9040  -28.6520   20.5730 C   0  0  0  0  0  3  0  0  0  0  0  0
  -25.7270  -26.8950   19.3790 C   0  0  0  0  0  3  0  0  0  0  0  0
  -24.5360  -27.6400   19.4340 C   0  0  0  0  0  3  0  0  0  0  0  0
  -23.2810  -29.7470   20.1540 C   0  0  0  0  0  2  0  0  0  0  0  0
  -24.3860  -31.0120   22.0500 N   0  0  0  0  0  0  0  0  0  0  0  0
  -23.2920  -32.0710   23.7310 O   0  0  0  0  0  0  0  0  0  0  0  0
  -22.4970  -29.3740   22.5200 C   0  0  0  0  0  0  0  0  0  0  0  0
  -21.1760  -29.1510   22.4100 N   0  0  0  0  0  0  0  0  0  0  0  0
  -23.2070  -28.7720   23.3300 O   0  0  0  0  0  0  0  0  0  0  0  0
  -20.6610  -29.6880   21.7270 H   0  0  0  0  0  0  0  0  0  0  0  0
  -17.8520  -27.8280   22.9190 C   0  0  0  0  0  0  0  0  0  0  0  0
  -20.3970  -28.1950   23.1970 C   0  0  0  0  0  3  0  0  0  0  0  0
  -20.5630  -26.7570   22.6530 C   0  0  0  0  0  2  0  0  0  0  0  0
  -19.4810  -26.3680   21.6410 C   0  0  0  0  0  2  0  0  0  0  0  0
  -18.0890  -26.4700   22.2750 C   0  0  0  0  0  2  0  0  0  0  0  0
  -18.9380  -28.6430   23.3370 C   0  0  0  0  0  0  0  0  0  0  0  0
  -18.6650  -29.9100   23.8980 C   0  0  0  0  0  3  0  0  0  0  0  0
  -17.3410  -30.3620   24.0490 C   0  0  0  0  0  3  0  0  0  0  0  0
  -16.2710  -29.5440   23.6510 C   0  0  0  0  0  3  0  0  0  0  0  0
  -16.5250  -28.2790   23.0910 C   0  0  0  0  0  3  0  0  0  0  0  0
  -25.6570  -32.4510   23.7290 C   0  0  0  0  0  3  0  0  0  0  0  0
  -26.2370  -31.6710   24.9730 C   0  0  1  0  0  0  0  0  0  0  0  0
  -25.1900  -31.3980   26.0780 C   0  0  0  0  0  1  0  0  0  0  0  0
  -26.8300  -30.3120   24.5360 C   0  0  0  0  0  1  0  0  0  0  0  0
  -27.3960  -32.4770   25.6050 C   0  0  0  0  0  1  0  0  0  0  0  0
  -25.3440  -33.8390   24.0880 N   0  0  0  0  0  0  0  0  0  0  0  0
  -25.6240  -34.9050   23.3250 C   0  0  0  0  0  0  0  0  0  0  0  0
  -26.2470  -34.8230   22.2620 O   0  0  0  0  0  0  0  0  0  0  0  0
  -24.7870  -33.9740   24.9180 H   0  0  0  0  0  0  0  0  0  0  0  0
  -23.8490  -36.6670   23.0780 C   0  0  0  0  0  1  0  0  0  0  0  0
  -25.1360  -36.2800   23.8200 C   0  0  0  0  0  3  0  0  0  0  0  0
  -27.2940  -37.1980   24.5450 C   0  0  0  0  0  1  0  0  0  0  0  0
  -26.1420  -37.3530   23.6620 N   0  0  0  0  0  0  0  0  0  0  0  0
  -25.7270  -38.2630   23.8420 H   0  0  0  0  0  0  0  0  0  0  0  0
  1  5  2  0
  1  4  1  0
  2  6  1  0
  3  6  2  0
  4  2  2  0
  5  3  1  0
  6  7  1  0
  8  4  1  0
  9 10  2  0
 10 55  1  0
 11 12  1  0
 11 13  1  0
 12 14  1  0
 13 25  1  0
 13  9  1  0
 14  8  1  0
 14 15  1  1
 14  9  1  0
 16 25  1  0
 16 22  1  0
 17 22  1  0
 18 19  1  0
 18 17  1  0
 20 19  1  0
 20 29  1  0
 20 21  1  0
 22 21  1  0
 23 16  2  0
 24 25  1  0
 26 27  2  0
 27 46  1  0
 28 27  1  0
 28 31  1  0
 29 30  1  0
 29 26  1  0
 30 28  2  0
 31 32  1  0
 32 33  2  0
 34 37  1  0
 34 33  1  0
 35 34  2  0
 36 35  1  0
 36 31  2  0
 37 38  1  0
 38 43  2  0
 38 39  1  0
 39 40  2  0
 40 41  1  0
 41 45  1  0
 42 41  2  0
 43 42  1  0
 44 43  1  0
 46 47  1  0
 47 50  1  0
 47 49  1  0
 48 46  2  0
 51 52  1  0
 51 26  1  0
 53 51  1  0
 55 54  2  0
 56 57  1  0
 56  5  1  0
 58 69  2  0
 59 57  1  0
 59 64  1  0
 60 68  1  0
 60 70  1  0
 61 67  1  0
 61 63  1  0
 62 68  1  0
 63 62  1  0
 64 63  2  0
 65 66  1  0
 65 59  2  0
 66 61  2  0
 67 60  1  0
 68 58  1  0
 70 72  2  0
 71 70  1  0
 73 71  1  0
 74 83  2  0
 74 79  1  0
 75 71  1  0
 75 79  1  0
 76 75  1  0
 77 78  1  0
 77 76  1  0
 78 74  1  0
 79 80  2  0
 80 81  1  0
 82 81  2  0
 83 82  1  0
 84 58  1  0
 84 89  1  0
 84 85  1  0
 85 88  1  1
 85 86  1  0
 87 85  1  0
 89 92  1  0
 90 94  1  0
 90 89  1  0
 91 90  2  0
 94 93  1  0
 96 94  1  0
 96 97  1  0
 96 95  1  0
M  ISO  4  16 100  25 100  56 101  57 101
M  END
>  <TORSDO>  (95) 
F 20

>  <SCORE>  (95) 
-10.076

>  <name>  (95) 
94

>  <ligand_id>  (95) 
94

>  <original_smiles>  (95) 
[H]C([H])=C([H])C([H])=C1C([H])(N(C(=O)N2C([H])([H])C([H])([H])C([H])([H])C([H])(n3nc(-c4c([H])c([H])c(Oc5c([H])c([H])c(F)c([H])c5F)c([H])c4[H])c(C(=O)N([H])[H])c3N([H])[H])C2([H])[H])C([H])([H])[H])C([H])([H])C([H])([H])[N+]1([H])C([H])([H])c1c([H])c(F)c([H])c(C([H])([H])Oc2c([H])c([H])c3c(c2[H])C([H])([H])N(C(=O)C([H])(N([H])C(=O)C([H])(N([H])C([H])([H])[H])C([H])([H])[H])C(C([H])([H])[H])(C([H])([H])[H])C([H])([H])[H])C([H])(C(=O)N([H])C2([H])c4c([H])c([H])c([H])c([H])c4C([H])([H])C([H])([H])C2([H])[H])C3([H])[H])c1[H]

>  <smiles>  (95) 
[H]C([H])=C([H])C([H])=C1C([H])(N(C(=O)N2C([H])([H])C([H])([H])C([H])([H])C([H])(n3nc(-c4c([H])c([H])c(Oc5c([H])c([H])c(F)c([H])c5F)c([H])c4[H])c(C(=O)N([H])[H])c3N([H])[H])C2([H])[H])C([H])([H])[H])C([H])([H])C([H])([H])[N+]1([H])C([H])([H])c1c([H])c(F)c([H])c(C([H])([H])Oc2c([H])c([H])c3c(c2[H])C([H])([H])N(C(=O)C([H])(N([H])C(=O)C([H])(N([H])C([H])([H])[H])C([H])([H])[H])C(C([H])([H])[H])(C([H])([H])[H])C([H])([H])[H])C([H])(C(=O)N([H])C2([H])c4c([H])c([H])c([H])c([H])c4C([H])([H])C([H])([H])C2([H])[H])C3([H])[H])c1[H]

$$$$
