0:0:0
     RDKit          3D

 90 98  0  0  1  0  0  0  0  0999 V2000
  -31.0370  -17.9100   19.9770 C   0  0  0  0  0  3  0  0  0  0  0  0
  -31.0130  -19.3290   19.8310 C   0  0  0  0  0  3  0  0  0  0  0  0
  -28.7300  -17.9770   20.6360 C   0  0  0  0  0  3  0  0  0  0  0  0
  -29.8880  -17.1860   20.3860 C   0  0  0  0  0  0  0  0  0  0  0  0
  -29.8590  -20.1220   20.0780 C   0  0  0  0  0  0  0  0  0  0  0  0
  -28.7050  -19.3980   20.4900 C   0  0  0  0  0  0  0  0  0  0  0  0
  -27.5490  -20.0520   20.7580 F   0  0  0  0  0  0  0  0  0  0  0  0
  -30.5980  -14.6850   20.1250 C   0  0  0  0  0  0  0  0  0  0  0  0
  -30.3560  -12.4480   19.0640 C   0  0  0  0  0  2  0  0  0  0  0  0
  -29.3690  -12.5900   17.8830 C   0  0  0  0  0  2  0  0  0  0  0  0
  -27.9110  -12.4310   18.3610 C   0  0  0  0  0  2  0  0  0  0  0  0
  -27.6000  -13.2790   19.6230 C   0  0  0  0  0  3  0  0  0  0  0  0
  -28.6980  -13.1110   20.6970 C   0  0  0  0  0  2  0  0  0  0  0  0
  -29.9860  -13.4590   20.0760 N   0  0  0  0  0  0  0  0  0  0  0  0
  -31.7390  -14.8470   19.6810 O   0  0  0  0  0  0  0  0  0  0  0  0
  -29.8100  -15.7270   20.5450 N   0  0  0  0  0  0  0  0  0  0  0  0
  -28.9370  -15.4010   20.9340 H   0  0  0  0  0  0  0  0  0  0  0  0
  -25.2380  -13.8750   20.4420 C   0  0  0  0  0  0  0  0  0  0  0  0
  -24.1830  -13.1000   20.8410 C   0  0  0  0  0  0  0  0  0  0  0  0
  -24.6380  -11.7470   20.7700 C   0  0  0  0  0  0  0  0  0  0  0  0
  -26.2690  -12.9940   20.1530 N   0  0  0  0  0  0  0  0  0  0  0  0
  -25.9140  -11.7080   20.4090 N   0  0  0  0  0  0  0  0  0  0  0  0
  -23.9120  -10.4850   20.9680 C   0  0  0  0  0  0  0  0  0  0  0  0
  -24.3650   -9.5090   21.8830 C   0  0  0  0  0  3  0  0  0  0  0  0
  -23.6420   -8.3110   22.0690 C   0  0  0  0  0  3  0  0  0  0  0  0
  -22.4500   -8.0820   21.3400 C   0  0  0  0  0  0  0  0  0  0  0  0
  -22.0150   -9.0480   20.4150 C   0  0  0  0  0  3  0  0  0  0  0  0
  -22.7400  -10.2360   20.2260 C   0  0  0  0  0  3  0  0  0  0  0  0
  -21.6950   -6.9380   21.4370 O   0  0  0  0  0  0  0  0  0  0  0  0
  -21.6530   -6.1990   22.5920 C   0  0  0  0  0  0  0  0  0  0  0  0
  -21.2070   -6.7480   23.8130 C   0  0  0  0  0  3  0  0  0  0  0  0
  -21.1150   -5.9340   24.9610 C   0  0  0  0  0  3  0  0  0  0  0  0
  -21.4580   -4.5710   24.8850 C   0  0  0  0  0  0  0  0  0  0  0  0
  -21.8970   -4.0200   23.6680 C   0  0  0  0  0  3  0  0  0  0  0  0
  -21.9910   -4.8310   22.5240 C   0  0  0  0  0  0  0  0  0  0  0  0
  -22.3940   -4.2910   21.3490 F   0  0  0  0  0  0  0  0  0  0  0  0
  -21.3620   -3.7860   25.9840 F   0  0  0  0  0  0  0  0  0  0  0  0
  -22.7990  -13.5780   21.1750 C   0  0  0  0  0  0  0  0  0  0  0  0
  -22.1060  -12.8780   22.0650 N   0  0  0  0  0  0  0  0  0  0  0  0
  -22.3450  -14.6100   20.6840 O   0  0  0  0  0  0  0  0  0  0  0  0
  -22.4870  -12.0440   22.4880 H   0  0  0  0  0  0  0  0  0  0  0  0
  -21.1790  -13.1820   22.3300 H   0  0  0  0  0  0  0  0  0  0  0  0
  -25.4000  -15.2470   20.2780 N   0  0  0  0  0  0  0  0  0  0  0  0
  -24.6340  -15.8960   20.4170 H   0  0  0  0  0  0  0  0  0  0  0  0
  -26.2220  -15.6840   19.8800 H   0  0  0  0  0  0  0  0  0  0  0  0
  -29.9680  -21.5220   19.9050 O   0  0  0  0  0  0  0  0  0  0  0  0
  -28.8750  -22.4670   20.1420 C   0  0  0  0  0  3  0  0  0  0  0  0
  -29.2270  -24.0020   19.8750 C   0  0  0  0  0  3  0  0  0  0  0  0
  -28.0550  -25.0580   20.0540 C   0  0  0  0  0  2  0  0  0  0  0  0
  -28.3030  -26.5080   19.8500 O   0  0  0  0  0  0  0  0  0  0  0  0
  -24.6700  -31.8010   23.1690 C   0  0  0  0  0  0  0  0  0  0  0  0
  -27.1900  -27.3650   19.8710 C   0  0  0  0  0  0  0  0  0  0  0  0
  -23.4280  -30.4940   21.4830 C   0  0  0  0  0  3  0  0  0  0  0  0
  -24.8410  -28.9990   19.9700 C   0  0  0  0  0  0  0  0  0  0  0  0
  -25.9690  -30.7950   21.2790 C   0  0  0  0  0  2  0  0  0  0  0  0
  -26.0250  -29.4470   20.5710 C   0  0  0  0  0  0  0  0  0  0  0  0
  -27.2020  -28.6430   20.5130 C   0  0  0  0  0  3  0  0  0  0  0  0
  -25.9840  -26.9800   19.2380 C   0  0  0  0  0  3  0  0  0  0  0  0
  -24.8230  -27.7710   19.2960 C   0  0  0  0  0  3  0  0  0  0  0  0
  -23.6170  -29.8840   20.0710 C   0  0  0  0  0  2  0  0  0  0  0  0
  -24.7090  -31.0450   22.0350 N   0  0  0  0  0  0  0  0  0  0  0  0
  -23.5980  -32.0660   23.7310 O   0  0  0  0  0  0  0  0  0  0  0  0
  -22.7670  -29.4390   22.4030 C   0  0  0  0  0  0  0  0  0  0  0  0
  -21.4370  -29.2880   22.2910 N   0  0  0  0  0  0  0  0  0  0  0  0
  -23.4500  -28.7630   23.1770 O   0  0  0  0  0  0  0  0  0  0  0  0
  -20.9460  -29.8860   21.6410 H   0  0  0  0  0  0  0  0  0  0  0  0
  -18.0450  -28.1480   22.8170 C   0  0  0  0  0  0  0  0  0  0  0  0
  -20.6160  -28.3280   23.0300 C   0  0  0  0  0  3  0  0  0  0  0  0
  -20.6640  -26.9300   22.3690 C   0  0  0  0  0  2  0  0  0  0  0  0
  -19.5260  -26.6940   21.3700 C   0  0  0  0  0  2  0  0  0  0  0  0
  -18.1670  -26.8370   22.0610 C   0  0  0  0  0  2  0  0  0  0  0  0
  -19.1950  -28.8560   23.2580 C   0  0  0  0  0  0  0  0  0  0  0  0
  -19.0250  -30.0880   23.9270 C   0  0  0  0  0  3  0  0  0  0  0  0
  -17.7390  -30.6110   24.1590 C   0  0  0  0  0  3  0  0  0  0  0  0
  -16.6040  -29.8990   23.7320 C   0  0  0  0  0  3  0  0  0  0  0  0
  -16.7580  -28.6700   23.0680 C   0  0  0  0  0  3  0  0  0  0  0  0
  -25.9690  -32.3900   23.8020 C   0  0  0  0  0  3  0  0  0  0  0  0
  -26.4820  -31.5600   25.0420 C   0  0  1  0  0  0  0  0  0  0  0  0
  -25.3960  -31.3020   26.1120 C   0  0  0  0  0  1  0  0  0  0  0  0
  -27.0380  -30.1900   24.5940 C   0  0  0  0  0  1  0  0  0  0  0  0
  -27.6520  -32.3110   25.7230 C   0  0  0  0  0  1  0  0  0  0  0  0
  -25.6830  -33.7790   24.1890 N   0  0  0  0  0  0  0  0  0  0  0  0
  -25.9950  -34.8530   23.4520 C   0  0  0  0  0  0  0  0  0  0  0  0
  -26.6230  -34.7770   22.3920 O   0  0  0  0  0  0  0  0  0  0  0  0
  -25.1190  -33.9120   25.0150 H   0  0  0  0  0  0  0  0  0  0  0  0
  -24.2570  -36.6600   23.2380 C   0  0  0  0  0  1  0  0  0  0  0  0
  -25.5380  -36.2290   23.9710 C   0  0  0  0  0  3  0  0  0  0  0  0
  -27.7130  -37.0900   24.7190 C   0  0  0  0  0  1  0  0  0  0  0  0
  -26.5670  -37.2830   23.8340 N   0  0  0  0  0  0  0  0  0  0  0  0
  -26.1720  -38.2000   24.0220 H   0  0  0  0  0  0  0  0  0  0  0  0
  1  4  1  0
  2  1  2  0
  2  5  1  0
  4 16  1  0
  4  3  2  0
  5  6  2  0
  6  3  1  0
  6  7  1  0
  8 16  1  0
  9 14  1  0
 10 11  1  0
 10  9  1  0
 12 11  1  0
 12 21  1  0
 12 13  1  0
 14  8  1  0
 14 13  1  0
 15  8  2  0
 16 17  1  0
 18 19  2  0
 19 38  1  0
 20 19  1  0
 20 23  1  0
 21 22  1  0
 21 18  1  0
 22 20  2  0
 23 24  1  0
 24 25  2  0
 26 29  1  0
 26 25  1  0
 27 26  2  0
 28 27  1  0
 28 23  2  0
 29 30  1  0
 30 31  1  0
 31 32  2  0
 33 32  1  0
 33 37  1  0
 34 33  2  0
 35 30  2  0
 35 34  1  0
 36 35  1  0
 38 39  1  0
 39 42  1  0
 39 41  1  0
 40 38  2  0
 43 44  1  0
 43 18  1  0
 45 43  1  0
 46  5  1  0
 46 47  1  0
 48 49  1  0
 48 47  2  0
 50 52  1  0
 50 49  1  0
 51 62  2  0
 52 57  1  0
 53 61  1  0
 53 63  1  0
 54 60  1  0
 54 56  1  0
 55 61  1  0
 56 55  1  0
 57 56  2  0
 58 59  1  0
 58 52  2  0
 59 54  2  0
 60 53  1  0
 61 51  1  0
 63 65  2  0
 64 63  1  0
 66 64  1  0
 67 76  2  0
 67 72  1  0
 68 64  1  0
 68 72  1  0
 69 68  1  0
 70 71  1  0
 70 69  1  0
 71 67  1  0
 72 73  2  0
 73 74  1  0
 75 74  2  0
 76 75  1  0
 77 51  1  0
 77 82  1  0
 77 78  1  0
 78 81  1  1
 78 79  1  0
 80 78  1  0
 82 85  1  0
 83 87  1  0
 83 82  1  0
 84 83  2  0
 87 86  1  0
 89 87  1  0
 89 90  1  0
 89 88  1  0
M  ISO  4   8 100  16 100  49 101  50 101
M  END
>  <TORSDO>  (1) 
F 20

>  <SCORE>  (1) 
-13.622

>  <name>  (1) 
0

>  <ligand_id>  (1) 
0

>  <original_smiles>  (1) 
[H]c1c([H])c([H])c2c(c1[H])C([H])([H])C([H])([H])C([H])([H])C2([H])N([H])C(=O)C1([H])N(C(=O)C([H])(N([H])C(=O)C([H])(N([H])C([H])([H])[H])C([H])([H])[H])C(C([H])([H])[H])(C([H])([H])[H])C([H])([H])[H])C([H])([H])c2c([H])c(OC([H])([H])C([H])([H])C([H])([H])Oc3c([H])c([H])c(N([H])C(=O)N4C([H])([H])C([H])([H])C([H])([H])C([H])(n5nc(-c6c([H])c([H])c(Oc7c([H])c([H])c(F)c([H])c7F)c([H])c6[H])c(C(=O)N([H])[H])c5N([H])[H])C4([H])[H])c([H])c3F)c([H])c([H])c2C1([H])[H]

>  <smiles>  (1) 
[H]c1c([H])c([H])c2c(c1[H])C([H])([H])C([H])([H])C([H])([H])C2([H])N([H])C(=O)C1([H])N(C(=O)C([H])(N([H])C(=O)C([H])(N([H])C([H])([H])[H])C([H])([H])[H])C(C([H])([H])[H])(C([H])([H])[H])C([H])([H])[H])C([H])([H])c2c([H])c(OC([H])([H])C([H])([H])C([H])([H])Oc3c([H])c([H])c(N([H])C(=O)N4C([H])([H])C([H])([H])C([H])([H])C([H])(n5nc(-c6c([H])c([H])c(Oc7c([H])c([H])c(F)c([H])c7F)c([H])c6[H])c(C(=O)N([H])[H])c5N([H])[H])C4([H])[H])c([H])c3F)c([H])c([H])c2C1([H])[H]

$$$$
1:0:0
     RDKit          3D

 91100  0  0  1  0  0  0  0  0999 V2000
  -28.5030  -23.9910   18.9820 C   0  0  0  0  0  2  0  0  0  0  0  0
  -29.2640  -24.1320   21.2700 C   0  0  0  0  0  2  0  0  0  0  0  0
  -28.4010  -22.4010   19.1140 C   0  0  0  0  0  2  0  0  0  0  0  0
  -29.1380  -22.5520   21.4190 C   0  0  0  0  0  2  0  0  0  0  0  0
  -28.2720  -24.8380   20.2840 C   0  0  0  0  0  3  0  0  0  0  0  0
  -29.2380  -21.7590   20.1650 N   0  0  0  0  0  0  0  0  0  0  0  0
  -29.2110  -19.4130   19.0980 C   0  0  0  0  0  3  0  0  0  0  0  0
  -29.4070  -17.9820   19.1440 C   0  0  0  0  0  3  0  0  0  0  0  0
  -29.9690  -19.5870   21.3350 C   0  0  0  0  0  3  0  0  0  0  0  0
  -29.4630  -20.2980   20.1990 C   0  0  0  0  0  0  0  0  0  0  0  0
  -29.8890  -17.2850   20.2930 C   0  0  0  0  0  0  0  0  0  0  0  0
  -30.1630  -18.1580   21.3870 C   0  0  0  0  0  0  0  0  0  0  0  0
  -30.5840  -17.6100   22.5540 F   0  0  0  0  0  0  0  0  0  0  0  0
  -29.8230  -15.8590   20.4620 O   0  0  0  0  0  0  0  0  0  0  0  0
  -30.7300  -14.8020   20.0150 C   0  0  0  0  0  0  0  0  0  0  0  0
  -30.4850  -12.5300   18.9300 C   0  0  0  0  0  2  0  0  0  0  0  0
  -29.4690  -12.6800   17.7730 C   0  0  0  0  0  2  0  0  0  0  0  0
  -28.0220  -12.5000   18.2790 C   0  0  0  0  0  2  0  0  0  0  0  0
  -27.7310  -13.3260   19.5610 C   0  0  0  0  0  3  0  0  0  0  0  0
  -28.8490  -13.1630   20.6100 C   0  0  0  0  0  2  0  0  0  0  0  0
  -30.1200  -13.5130   19.9710 N   0  0  0  0  0  0  0  0  0  0  0  0
  -31.8660  -15.0000   19.5750 O   0  0  0  0  0  0  0  0  0  0  0  0
  -25.3970  -13.9020   20.4530 C   0  0  0  0  0  0  0  0  0  0  0  0
  -24.3500  -13.1210   20.8620 C   0  0  0  0  0  0  0  0  0  0  0  0
  -24.8030  -11.7690   20.7580 C   0  0  0  0  0  0  0  0  0  0  0  0
  -26.4180  -13.0260   20.1200 N   0  0  0  0  0  0  0  0  0  0  0  0
  -26.0700  -11.7360   20.3660 N   0  0  0  0  0  0  0  0  0  0  0  0
  -24.0810  -10.5050   20.9520 C   0  0  0  0  0  0  0  0  0  0  0  0
  -24.5190   -9.5390   21.8850 C   0  0  0  0  0  3  0  0  0  0  0  0
  -23.7950   -8.3410   22.0660 C   0  0  0  0  0  3  0  0  0  0  0  0
  -22.6200   -8.0990   21.3160 C   0  0  0  0  0  0  0  0  0  0  0  0
  -22.2020   -9.0540   20.3730 C   0  0  0  0  0  3  0  0  0  0  0  0
  -22.9250  -10.2450   20.1890 C   0  0  0  0  0  3  0  0  0  0  0  0
  -21.8680   -6.9530   21.4060 O   0  0  0  0  0  0  0  0  0  0  0  0
  -21.7640   -6.2520   22.5800 C   0  0  0  0  0  0  0  0  0  0  0  0
  -21.2710   -6.8450   23.7630 C   0  0  0  0  0  3  0  0  0  0  0  0
  -21.1150   -6.0690   24.9290 C   0  0  0  0  0  3  0  0  0  0  0  0
  -21.4400   -4.7010   24.9130 C   0  0  0  0  0  0  0  0  0  0  0  0
  -21.9270   -4.1050   23.7350 C   0  0  0  0  0  3  0  0  0  0  0  0
  -22.0840   -4.8780   22.5710 C   0  0  0  0  0  0  0  0  0  0  0  0
  -22.5320   -4.2960   21.4340 F   0  0  0  0  0  0  0  0  0  0  0  0
  -21.2850   -3.9530   26.0310 F   0  0  0  0  0  0  0  0  0  0  0  0
  -22.9760  -13.5950   21.2350 C   0  0  0  0  0  0  0  0  0  0  0  0
  -22.3030  -12.8820   22.1300 N   0  0  0  0  0  0  0  0  0  0  0  0
  -22.5110  -14.6350   20.7680 O   0  0  0  0  0  0  0  0  0  0  0  0
  -22.6910  -12.0390   22.5270 H   0  0  0  0  0  0  0  0  0  0  0  0
  -21.3830  -13.1810   22.4210 H   0  0  0  0  0  0  0  0  0  0  0  0
  -25.5600  -15.2770   20.3150 N   0  0  0  0  0  0  0  0  0  0  0  0
  -24.8110  -15.9350   20.5040 H   0  0  0  0  0  0  0  0  0  0  0  0
  -26.4050  -15.7240   19.9790 H   0  0  0  0  0  0  0  0  0  0  0  0
  -28.4410  -26.3480   20.1940 O   0  0  0  0  0  0  0  0  0  0  0  0
  -24.7270  -31.8360   23.2180 C   0  0  0  0  0  0  0  0  0  0  0  0
  -27.3310  -27.2310   20.1550 C   0  0  0  0  0  0  0  0  0  0  0  0
  -23.5220  -30.4380   21.5790 C   0  0  0  0  0  3  0  0  0  0  0  0
  -24.9720  -28.8830   20.1450 C   0  0  0  0  0  0  0  0  0  0  0  0
  -26.0640  -30.7470   21.3910 C   0  0  0  0  0  2  0  0  0  0  0  0
  -26.1450  -29.3640   20.7390 C   0  0  0  0  0  0  0  0  0  0  0  0
  -27.3280  -28.5520   20.7250 C   0  0  0  0  0  3  0  0  0  0  0  0
  -26.1340  -26.8200   19.5300 C   0  0  0  0  0  3  0  0  0  0  0  0
  -24.9720  -27.6220   19.5280 C   0  0  0  0  0  3  0  0  0  0  0  0
  -23.7350  -29.7620   20.1980 C   0  0  0  0  0  2  0  0  0  0  0  0
  -24.7900  -31.0270   22.1190 N   0  0  0  0  0  0  0  0  0  0  0  0
  -23.6440  -32.1120   23.7550 O   0  0  0  0  0  0  0  0  0  0  0  0
  -22.8600  -29.4240   22.5420 C   0  0  0  0  0  0  0  0  0  0  0  0
  -21.5310  -29.2520   22.4250 N   0  0  0  0  0  0  0  0  0  0  0  0
  -23.5400  -28.7920   23.3540 O   0  0  0  0  0  0  0  0  0  0  0  0
  -21.0400  -29.8130   21.7430 H   0  0  0  0  0  0  0  0  0  0  0  0
  -18.1540  -28.0600   22.9470 C   0  0  0  0  0  0  0  0  0  0  0  0
  -20.7150  -28.3120   23.1970 C   0  0  0  0  0  3  0  0  0  0  0  0
  -20.8090  -26.8840   22.6130 C   0  0  0  0  0  2  0  0  0  0  0  0
  -19.6970  -26.5700   21.6060 C   0  0  0  0  0  2  0  0  0  0  0  0
  -18.3210  -26.7150   22.2620 C   0  0  0  0  0  2  0  0  0  0  0  0
  -19.2770  -28.8180   23.3710 C   0  0  0  0  0  0  0  0  0  0  0  0
  -19.0650  -30.0770   23.9730 C   0  0  0  0  0  3  0  0  0  0  0  0
  -17.7620  -30.5790   24.1540 C   0  0  0  0  0  3  0  0  0  0  0  0
  -16.6530  -29.8190   23.7440 C   0  0  0  0  0  3  0  0  0  0  0  0
  -16.8500  -28.5610   23.1470 C   0  0  0  0  0  3  0  0  0  0  0  0
  -26.0080  -32.4710   23.8400 C   0  0  0  0  0  3  0  0  0  0  0  0
  -25.6930  -33.8660   24.1830 N   0  0  0  0  0  0  0  0  0  0  0  0
  -25.9990  -34.9280   23.4260 C   0  0  0  0  0  0  0  0  0  0  0  0
  -26.6460  -34.8350   22.3780 O   0  0  0  0  0  0  0  0  0  0  0  0
  -25.1170  -34.0110   25.0000 H   0  0  0  0  0  0  0  0  0  0  0  0
  -24.2370  -36.7010   23.1370 C   0  0  0  0  0  1  0  0  0  0  0  0
  -25.5110  -36.3090   23.9030 C   0  0  0  0  0  3  0  0  0  0  0  0
  -27.6630  -37.2190   24.6600 C   0  0  0  0  0  1  0  0  0  0  0  0
  -26.5240  -37.3770   23.7580 N   0  0  0  0  0  0  0  0  0  0  0  0
  -26.1120  -38.2900   23.9270 H   0  0  0  0  0  0  0  0  0  0  0  0
  -26.5320  -31.6950   25.1110 C   0  0  1  0  0  0  0  0  0  0  0  0
  -25.4450  -31.4480   26.1820 C   0  0  0  0  0  1  0  0  0  0  0  0
  -27.1180  -30.3220   24.7110 C   0  0  0  0  0  1  0  0  0  0  0  0
  -27.6850  -32.4890   25.7710 C   0  0  0  0  0  1  0  0  0  0  0  0
  1  3  1  0
  1  5  1  0
  2  4  1  0
  3  6  1  0
  5 51  1  0
  5  2  1  0
  6 10  1  0
  6  4  1  0
  7  8  2  0
  7 10  1  0
  8 11  1  0
  9 12  1  0
 10  9  2  0
 11 14  1  0
 11 12  2  0
 12 13  1  0
 15 14  1  0
 16 21  1  0
 17 18  1  0
 17 16  1  0
 19 18  1  0
 19 26  1  0
 19 20  1  0
 21 15  1  0
 21 20  1  0
 22 15  2  0
 23 24  2  0
 24 43  1  0
 25 24  1  0
 25 28  1  0
 26 27  1  0
 26 23  1  0
 27 25  2  0
 28 29  1  0
 29 30  2  0
 31 34  1  0
 31 30  1  0
 32 31  2  0
 33 32  1  0
 33 28  2  0
 34 35  1  0
 35 36  1  0
 36 37  2  0
 38 37  1  0
 38 42  1  0
 39 38  2  0
 40 35  2  0
 40 39  1  0
 41 40  1  0
 43 44  1  0
 44 47  1  0
 44 46  1  0
 45 43  2  0
 48 23  1  0
 48 49  1  0
 50 48  1  0
 52 63  2  0
 53 51  1  0
 53 58  1  0
 54 62  1  0
 54 64  1  0
 55 61  1  0
 55 57  1  0
 56 62  1  0
 57 56  1  0
 58 57  2  0
 59 53  2  0
 60 59  1  0
 60 55  2  0
 61 54  1  0
 62 52  1  0
 64 66  2  0
 65 64  1  0
 67 65  1  0
 68 77  2  0
 68 73  1  0
 69 65  1  0
 69 73  1  0
 70 69  1  0
 71 72  1  0
 71 70  1  0
 72 68  1  0
 73 74  2  0
 74 75  1  0
 76 75  2  0
 77 76  1  0
 78 52  1  0
 78 79  1  0
 78 88  1  0
 79 82  1  0
 80 84  1  0
 80 79  1  0
 81 80  2  0
 84 83  1  0
 86 84  1  0
 86 87  1  0
 86 85  1  0
 88 91  1  1
 88 89  1  0
 90 88  1  0
M  ISO  4   5 101  14 100  15 100  51 101
M  END
>  <TORSDO>  (2) 
F 18

>  <SCORE>  (2) 
-14.427

>  <name>  (2) 
1

>  <ligand_id>  (2) 
1

>  <original_smiles>  (2) 
[H]c1c([H])c([H])c2c(c1[H])C([H])([H])C([H])([H])C([H])([H])C2([H])N([H])C(=O)C1([H])N(C(=O)C([H])(N([H])C(=O)C([H])(N([H])C([H])([H])[H])C([H])([H])[H])C(C([H])([H])[H])(C([H])([H])[H])C([H])([H])[H])C([H])([H])c2c([H])c(OC3([H])C([H])([H])C([H])([H])N(c4c([H])c([H])c(OC(=O)N5C([H])([H])C([H])([H])C([H])([H])C([H])(n6nc(-c7c([H])c([H])c(Oc8c([H])c([H])c(F)c([H])c8F)c([H])c7[H])c(C(=O)N([H])[H])c6N([H])[H])C5([H])[H])c(F)c4[H])C([H])([H])C3([H])[H])c([H])c([H])c2C1([H])[H]

>  <smiles>  (2) 
[H]c1c([H])c([H])c2c(c1[H])C([H])([H])C([H])([H])C([H])([H])C2([H])N([H])C(=O)C1([H])N(C(=O)C([H])(N([H])C(=O)C([H])(N([H])C([H])([H])[H])C([H])([H])[H])C(C([H])([H])[H])(C([H])([H])[H])C([H])([H])[H])C([H])([H])c2c([H])c(OC3([H])C([H])([H])C([H])([H])N(c4c([H])c([H])c(OC(=O)N5C([H])([H])C([H])([H])C([H])([H])C([H])(n6nc(-c7c([H])c([H])c(Oc8c([H])c([H])c(F)c([H])c8F)c([H])c7[H])c(C(=O)N([H])[H])c6N([H])[H])C5([H])[H])c(F)c4[H])C([H])([H])C3([H])[H])c([H])c([H])c2C1([H])[H]

$$$$
2:0:0
     RDKit          3D

 89 97  0  0  1  0  0  0  0  0999 V2000
  -30.6180  -18.5840   20.2340 C   0  0  0  0  0  3  0  0  0  0  0  0
  -30.3220  -20.0210   20.1180 C   0  0  0  0  0  3  0  0  0  0  0  0
  -28.3230  -18.1100   19.9970 C   0  0  0  0  0  3  0  0  0  0  0  0
  -29.6220  -17.5390   20.1790 C   0  0  0  0  0  0  0  0  0  0  0  0
  -28.9990  -20.5680   19.9200 C   0  0  0  0  0  0  0  0  0  0  0  0
  -28.0300  -19.5160   19.8660 C   0  0  0  0  0  0  0  0  0  0  0  0
  -26.7350  -19.8670   19.6790 F   0  0  0  0  0  0  0  0  0  0  0  0
  -30.5800  -14.9230   20.0660 C   0  0  0  0  0  0  0  0  0  0  0  0
  -30.4510  -12.5660   19.1460 C   0  0  0  0  0  2  0  0  0  0  0  0
  -29.4680  -12.5400   17.9490 C   0  0  0  0  0  2  0  0  0  0  0  0
  -28.0140  -12.3550   18.4280 C   0  0  0  0  0  2  0  0  0  0  0  0
  -27.6620  -13.2860   19.6170 C   0  0  0  0  0  3  0  0  0  0  0  0
  -28.7540  -13.2570   20.7090 C   0  0  0  0  0  2  0  0  0  0  0  0
  -30.0190  -13.6500   20.0680 N   0  0  0  0  0  0  0  0  0  0  0  0
  -31.7560  -15.0460   19.7010 O   0  0  0  0  0  0  0  0  0  0  0  0
  -29.7160  -16.0150   20.3160 N   0  0  0  0  0  0  0  0  0  0  0  0
  -28.8300  -15.6250   20.5980 H   0  0  0  0  0  0  0  0  0  0  0  0
  -25.3230  -13.9140   20.4530 C   0  0  0  0  0  0  0  0  0  0  0  0
  -24.2550  -13.1600   20.8530 C   0  0  0  0  0  0  0  0  0  0  0  0
  -24.6820  -11.7990   20.7750 C   0  0  0  0  0  0  0  0  0  0  0  0
  -26.3340  -13.0150   20.1560 N   0  0  0  0  0  0  0  0  0  0  0  0
  -25.9580  -11.7360   20.4130 N   0  0  0  0  0  0  0  0  0  0  0  0
  -23.9310  -10.5510   20.9660 C   0  0  0  0  0  0  0  0  0  0  0  0
  -24.3600   -9.5610   21.8760 C   0  0  0  0  0  3  0  0  0  0  0  0
  -23.6090   -8.3800   22.0560 C   0  0  0  0  0  3  0  0  0  0  0  0
  -22.4150   -8.1800   21.3260 C   0  0  0  0  0  0  0  0  0  0  0  0
  -22.0020   -9.1580   20.4040 C   0  0  0  0  0  3  0  0  0  0  0  0
  -22.7540  -10.3310   20.2210 C   0  0  0  0  0  3  0  0  0  0  0  0
  -21.6350   -7.0520   21.4170 O   0  0  0  0  0  0  0  0  0  0  0  0
  -21.5790   -6.3060   22.5670 C   0  0  0  0  0  0  0  0  0  0  0  0
  -21.1440   -6.8560   23.7920 C   0  0  0  0  0  3  0  0  0  0  0  0
  -21.0370   -6.0370   24.9340 C   0  0  0  0  0  3  0  0  0  0  0  0
  -21.3540   -4.6680   24.8510 C   0  0  0  0  0  0  0  0  0  0  0  0
  -21.7830   -4.1170   23.6300 C   0  0  0  0  0  3  0  0  0  0  0  0
  -21.8920   -4.9330   22.4910 C   0  0  0  0  0  0  0  0  0  0  0  0
  -22.2850   -4.3930   21.3120 F   0  0  0  0  0  0  0  0  0  0  0  0
  -21.2440   -3.8790   25.9450 F   0  0  0  0  0  0  0  0  0  0  0  0
  -22.8820  -13.6670   21.1860 C   0  0  0  0  0  0  0  0  0  0  0  0
  -22.1720  -12.9770   22.0720 N   0  0  0  0  0  0  0  0  0  0  0  0
  -22.4480  -14.7080   20.6950 O   0  0  0  0  0  0  0  0  0  0  0  0
  -22.5360  -12.1340   22.4910 H   0  0  0  0  0  0  0  0  0  0  0  0
  -21.2520  -13.2980   22.3390 H   0  0  0  0  0  0  0  0  0  0  0  0
  -25.5110  -15.2840   20.2900 N   0  0  0  0  0  0  0  0  0  0  0  0
  -24.7430  -15.9360   20.4050 H   0  0  0  0  0  0  0  0  0  0  0  0
  -26.3000  -15.6870   19.8030 H   0  0  0  0  0  0  0  0  0  0  0  0
  -28.5040  -21.9350   19.7320 O   0  0  0  0  0  0  0  0  0  0  0  0
  -29.0950  -23.3350   19.9090 C   0  0  0  0  0  3  0  0  0  0  0  0
  -28.1160  -24.6810   19.6400 C   0  0  0  0  0  3  0  0  0  0  0  0
  -28.3620  -26.1910   19.9150 O   0  0  0  0  0  0  0  0  0  0  0  0
  -24.5360  -31.6270   23.0850 C   0  0  0  0  0  0  0  0  0  0  0  0
  -27.2770  -27.1420   19.8750 C   0  0  0  0  0  0  0  0  0  0  0  0
  -23.3960  -30.2890   21.3560 C   0  0  0  0  0  3  0  0  0  0  0  0
  -24.9060  -28.8230   19.8830 C   0  0  0  0  0  0  0  0  0  0  0  0
  -25.9460  -30.6220   21.2520 C   0  0  0  0  0  2  0  0  0  0  0  0
  -26.0640  -29.2680   20.5340 C   0  0  0  0  0  0  0  0  0  0  0  0
  -27.2500  -28.4450   20.5130 C   0  0  0  0  0  3  0  0  0  0  0  0
  -26.0890  -26.7970   19.1910 C   0  0  0  0  0  3  0  0  0  0  0  0
  -24.9310  -27.6010   19.1980 C   0  0  0  0  0  3  0  0  0  0  0  0
  -23.6570  -29.6880   19.9500 C   0  0  0  0  0  2  0  0  0  0  0  0
  -24.6450  -30.8640   21.9540 N   0  0  0  0  0  0  0  0  0  0  0  0
  -23.4340  -31.8620   23.6050 O   0  0  0  0  0  0  0  0  0  0  0  0
  -22.7240  -29.2200   22.2530 C   0  0  0  0  0  0  0  0  0  0  0  0
  -21.3950  -29.0550   22.1190 N   0  0  0  0  0  0  0  0  0  0  0  0
  -23.3990  -28.5440   23.0340 O   0  0  0  0  0  0  0  0  0  0  0  0
  -20.9070  -29.6540   21.4680 H   0  0  0  0  0  0  0  0  0  0  0  0
  -18.0080  -27.8640   22.6020 C   0  0  0  0  0  0  0  0  0  0  0  0
  -20.5770  -28.0710   22.8320 C   0  0  0  0  0  3  0  0  0  0  0  0
  -20.6440  -26.6870   22.1430 C   0  0  0  0  0  2  0  0  0  0  0  0
  -19.5160  -26.4610   21.1320 C   0  0  0  0  0  2  0  0  0  0  0  0
  -18.1500  -26.5720   21.8170 C   0  0  0  0  0  2  0  0  0  0  0  0
  -19.1480  -28.5760   23.0650 C   0  0  0  0  0  0  0  0  0  0  0  0
  -18.9590  -29.7890   23.7640 C   0  0  0  0  0  3  0  0  0  0  0  0
  -17.6650  -30.2900   24.0000 C   0  0  0  0  0  3  0  0  0  0  0  0
  -16.5420  -29.5740   23.5510 C   0  0  0  0  0  3  0  0  0  0  0  0
  -16.7140  -28.3630   22.8590 C   0  0  0  0  0  3  0  0  0  0  0  0
  -25.7880  -32.2560   23.7670 C   0  0  0  0  0  3  0  0  0  0  0  0
  -26.2640  -31.4600   25.0450 C   0  0  1  0  0  0  0  0  0  0  0  0
  -25.1360  -31.1940   26.0690 C   0  0  0  0  0  1  0  0  0  0  0  0
  -26.8680  -30.0930   24.6470 C   0  0  0  0  0  1  0  0  0  0  0  0
  -27.3860  -32.2460   25.7630 C   0  0  0  0  0  1  0  0  0  0  0  0
  -25.4530  -33.6440   24.1230 N   0  0  0  0  0  0  0  0  0  0  0  0
  -25.7720  -34.7190   23.3900 C   0  0  0  0  0  0  0  0  0  0  0  0
  -26.4450  -34.6480   22.3590 O   0  0  0  0  0  0  0  0  0  0  0  0
  -24.8550  -33.7720   24.9260 H   0  0  0  0  0  0  0  0  0  0  0  0
  -24.0050  -36.4870   23.0910 C   0  0  0  0  0  1  0  0  0  0  0  0
  -25.2650  -36.0920   23.8780 C   0  0  0  0  0  3  0  0  0  0  0  0
  -27.3890  -37.0120   24.7010 C   0  0  0  0  0  1  0  0  0  0  0  0
  -26.2770  -37.1660   23.7680 N   0  0  0  0  0  0  0  0  0  0  0  0
  -25.8530  -38.0770   23.9260 H   0  0  0  0  0  0  0  0  0  0  0  0
  2  1  2  0
  3  4  2  0
  4  1  1  0
  4 16  1  0
  5  2  1  0
  6  5  2  0
  6  3  1  0
  7  6  1  0
  8 14  1  0
  8 16  1  0
  9 14  1  0
 10 11  1  0
 10  9  1  0
 12 11  1  0
 12 21  1  0
 12 13  1  0
 14 13  1  0
 15  8  2  0
 16 17  1  0
 18 19  2  0
 19 38  1  0
 20 19  1  0
 20 23  1  0
 21 22  1  0
 21 18  1  0
 22 20  2  0
 23 24  1  0
 24 25  2  0
 26 29  1  0
 26 25  1  0
 27 26  2  0
 28 27  1  0
 28 23  2  0
 29 30  1  0
 30 31  1  0
 31 32  2  0
 33 32  1  0
 33 37  1  0
 34 33  2  0
 35 30  2  0
 35 34  1  0
 36 35  1  0
 38 39  1  0
 39 42  1  0
 39 41  1  0
 40 38  2  0
 43 44  1  0
 43 18  1  0
 45 43  1  0
 46 47  1  0
 46  5  1  0
 48 47  2  0
 48 49  1  0
 50 61  2  0
 51 49  1  0
 51 56  1  0
 52 60  1  0
 52 62  1  0
 53 59  1  0
 53 55  1  0
 54 60  1  0
 55 54  1  0
 56 55  2  0
 57 58  1  0
 57 51  2  0
 58 53  2  0
 59 52  1  0
 60 50  1  0
 62 64  2  0
 63 62  1  0
 65 63  1  0
 66 75  2  0
 66 71  1  0
 67 63  1  0
 67 71  1  0
 68 67  1  0
 69 70  1  0
 69 68  1  0
 70 66  1  0
 71 72  2  0
 72 73  1  0
 74 73  2  0
 75 74  1  0
 76 50  1  0
 76 81  1  0
 76 77  1  0
 77 80  1  1
 77 78  1  0
 79 77  1  0
 81 84  1  0
 82 86  1  0
 82 81  1  0
 83 82  2  0
 86 85  1  0
 88 86  1  0
 88 89  1  0
 88 87  1  0
M  ISO  4   8 100  16 100  48 101  49 101
M  END
>  <TORSDO>  (3) 
F 19

>  <SCORE>  (3) 
-13.742

>  <name>  (3) 
2

>  <ligand_id>  (3) 
2

>  <original_smiles>  (3) 
[H]c1c([H])c([H])c2c(c1[H])C([H])([H])C([H])([H])C([H])([H])C2([H])N([H])C(=O)C1([H])N(C(=O)C([H])(N([H])C(=O)C([H])(N([H])C([H])([H])[H])C([H])([H])[H])C(C([H])([H])[H])(C([H])([H])[H])C([H])([H])[H])C([H])([H])c2c([H])c(OC([H])([H])C([H])([H])Oc3c([H])c([H])c(N([H])C(=O)N4C([H])([H])C([H])([H])C([H])([H])C([H])(n5nc(-c6c([H])c([H])c(Oc7c([H])c([H])c(F)c([H])c7F)c([H])c6[H])c(C(=O)N([H])[H])c5N([H])[H])C4([H])[H])c([H])c3F)c([H])c([H])c2C1([H])[H]

>  <smiles>  (3) 
[H]c1c([H])c([H])c2c(c1[H])C([H])([H])C([H])([H])C([H])([H])C2([H])N([H])C(=O)C1([H])N(C(=O)C([H])(N([H])C(=O)C([H])(N([H])C([H])([H])[H])C([H])([H])[H])C(C([H])([H])[H])(C([H])([H])[H])C([H])([H])[H])C([H])([H])c2c([H])c(OC([H])([H])C([H])([H])Oc3c([H])c([H])c(N([H])C(=O)N4C([H])([H])C([H])([H])C([H])([H])C([H])(n5nc(-c6c([H])c([H])c(Oc7c([H])c([H])c(F)c([H])c7F)c([H])c6[H])c(C(=O)N([H])[H])c5N([H])[H])C4([H])[H])c([H])c3F)c([H])c([H])c2C1([H])[H]

$$$$
3:0:0
     RDKit          3D

 90 99  0  0  1  0  0  0  0  0999 V2000
  -29.1270  -24.4210   21.7300 C   0  0  0  0  0  2  0  0  0  0  0  0
  -29.2060  -22.8660   21.8870 C   0  0  0  0  0  2  0  0  0  0  0  0
  -28.4420  -23.3910   19.7210 C   0  0  0  0  0  2  0  0  0  0  0  0
  -28.1410  -24.7640   20.5960 C   0  0  0  0  0  3  0  0  0  0  0  0
  -28.9880  -22.2370   20.5810 N   0  0  0  0  0  0  0  0  0  0  0  0
  -30.1550  -19.9910   21.1770 C   0  0  0  0  0  3  0  0  0  0  0  0
  -28.4820  -19.8780   19.5370 C   0  0  0  0  0  3  0  0  0  0  0  0
  -30.3590  -18.5470   21.1040 C   0  0  0  0  0  3  0  0  0  0  0  0
  -28.6590  -18.4290   19.4880 C   0  0  0  0  0  3  0  0  0  0  0  0
  -29.2000  -20.7620   20.4120 C   0  0  0  0  0  0  0  0  0  0  0  0
  -29.6080  -17.6650   20.2610 C   0  0  0  0  0  0  0  0  0  0  0  0
  -30.4700  -15.0200   20.1680 C   0  0  0  0  0  0  0  0  0  0  0  0
  -30.3850  -12.6760   19.1950 C   0  0  0  0  0  2  0  0  0  0  0  0
  -29.4100  -12.6390   17.9940 C   0  0  0  0  0  2  0  0  0  0  0  0
  -27.9600  -12.4140   18.4650 C   0  0  0  0  0  2  0  0  0  0  0  0
  -27.5810  -13.3190   19.6670 C   0  0  0  0  0  3  0  0  0  0  0  0
  -28.6700  -13.3050   20.7620 C   0  0  0  0  0  2  0  0  0  0  0  0
  -29.9200  -13.7410   20.1260 N   0  0  0  0  0  0  0  0  0  0  0  0
  -31.6660  -15.1410   19.8770 O   0  0  0  0  0  0  0  0  0  0  0  0
  -29.5890  -16.1270   20.3100 N   0  0  0  0  0  0  0  0  0  0  0  0
  -28.6480  -15.7720   20.3860 H   0  0  0  0  0  0  0  0  0  0  0  0
  -25.2170  -13.8810   20.4730 C   0  0  0  0  0  0  0  0  0  0  0  0
  -24.1680  -13.0970   20.8660 C   0  0  0  0  0  0  0  0  0  0  0  0
  -24.6390  -11.7490   20.8100 C   0  0  0  0  0  0  0  0  0  0  0  0
  -26.2580  -13.0100   20.1960 N   0  0  0  0  0  0  0  0  0  0  0  0
  -25.9210  -11.7220   20.4650 N   0  0  0  0  0  0  0  0  0  0  0  0
  -23.9240  -10.4820   21.0040 C   0  0  0  0  0  0  0  0  0  0  0  0
  -24.3720   -9.5140   21.9310 C   0  0  0  0  0  3  0  0  0  0  0  0
  -23.6560   -8.3120   22.1140 C   0  0  0  0  0  3  0  0  0  0  0  0
  -22.4760   -8.0680   21.3700 C   0  0  0  0  0  0  0  0  0  0  0  0
  -22.0470   -9.0230   20.4320 C   0  0  0  0  0  3  0  0  0  0  0  0
  -22.7640  -10.2170   20.2470 C   0  0  0  0  0  3  0  0  0  0  0  0
  -21.7300   -6.9180   21.4630 O   0  0  0  0  0  0  0  0  0  0  0  0
  -21.6810   -6.1840   22.6210 C   0  0  0  0  0  0  0  0  0  0  0  0
  -21.2370   -6.7430   23.8400 C   0  0  0  0  0  3  0  0  0  0  0  0
  -21.1380   -5.9330   24.9880 C   0  0  0  0  0  3  0  0  0  0  0  0
  -21.4710   -4.5670   24.9200 C   0  0  0  0  0  0  0  0  0  0  0  0
  -21.9090   -4.0090   23.7060 C   0  0  0  0  0  3  0  0  0  0  0  0
  -22.0100   -4.8150   22.5590 C   0  0  0  0  0  0  0  0  0  0  0  0
  -22.4120   -4.2670   21.3870 F   0  0  0  0  0  0  0  0  0  0  0  0
  -21.3680   -3.7880   26.0220 F   0  0  0  0  0  0  0  0  0  0  0  0
  -22.7750  -13.5640   21.1770 C   0  0  0  0  0  0  0  0  0  0  0  0
  -22.0720  -12.8550   22.0520 N   0  0  0  0  0  0  0  0  0  0  0  0
  -22.3210  -14.5930   20.6780 O   0  0  0  0  0  0  0  0  0  0  0  0
  -22.4530  -12.0220   22.4760 H   0  0  0  0  0  0  0  0  0  0  0  0
  -21.1380  -13.1510   22.3020 H   0  0  0  0  0  0  0  0  0  0  0  0
  -25.3620  -15.2540   20.2990 N   0  0  0  0  0  0  0  0  0  0  0  0
  -24.5780  -15.8870   20.4140 H   0  0  0  0  0  0  0  0  0  0  0  0
  -26.1610  -15.6970   19.8650 H   0  0  0  0  0  0  0  0  0  0  0  0
  -28.2900  -26.2670   20.2130 O   0  0  0  0  0  0  0  0  0  0  0  0
  -24.6360  -31.9120   23.2610 C   0  0  0  0  0  0  0  0  0  0  0  0
  -27.2050  -27.2100   20.2250 C   0  0  0  0  0  0  0  0  0  0  0  0
  -23.4290  -30.5170   21.6260 C   0  0  0  0  0  3  0  0  0  0  0  0
  -24.8690  -28.9350   20.2010 C   0  0  0  0  0  0  0  0  0  0  0  0
  -25.9790  -30.7890   21.4440 C   0  0  0  0  0  2  0  0  0  0  0  0
  -26.0520  -29.3950   20.7960 C   0  0  0  0  0  0  0  0  0  0  0  0
  -27.2230  -28.5500   20.7830 C   0  0  0  0  0  3  0  0  0  0  0  0
  -25.9950  -26.8400   19.6050 C   0  0  0  0  0  3  0  0  0  0  0  0
  -24.8530  -27.6710   19.5900 C   0  0  0  0  0  3  0  0  0  0  0  0
  -23.6420  -29.8330   20.2480 C   0  0  0  0  0  2  0  0  0  0  0  0
  -24.7020  -31.0940   22.1650 N   0  0  0  0  0  0  0  0  0  0  0  0
  -23.5530  -32.1960   23.7940 O   0  0  0  0  0  0  0  0  0  0  0  0
  -22.7540  -29.5120   22.5910 C   0  0  0  0  0  0  0  0  0  0  0  0
  -21.4260  -29.3370   22.4660 N   0  0  0  0  0  0  0  0  0  0  0  0
  -23.4270  -28.8890   23.4170 O   0  0  0  0  0  0  0  0  0  0  0  0
  -20.9370  -29.8900   21.7760 H   0  0  0  0  0  0  0  0  0  0  0  0
  -18.0500  -28.1200   22.9650 C   0  0  0  0  0  0  0  0  0  0  0  0
  -20.6080  -28.3990   23.2390 C   0  0  0  0  0  3  0  0  0  0  0  0
  -20.7190  -26.9640   22.6740 C   0  0  0  0  0  2  0  0  0  0  0  0
  -19.6220  -26.6300   21.6580 C   0  0  0  0  0  2  0  0  0  0  0  0
  -18.2380  -26.7690   22.2960 C   0  0  0  0  0  2  0  0  0  0  0  0
  -19.1630  -28.8920   23.3940 C   0  0  0  0  0  0  0  0  0  0  0  0
  -18.9340  -30.1560   23.9810 C   0  0  0  0  0  3  0  0  0  0  0  0
  -17.6240  -30.6480   24.1420 C   0  0  0  0  0  3  0  0  0  0  0  0
  -16.5260  -29.8740   23.7280 C   0  0  0  0  0  3  0  0  0  0  0  0
  -16.7400  -28.6120   23.1460 C   0  0  0  0  0  3  0  0  0  0  0  0
  -25.9170  -32.5480   23.8830 C   0  0  0  0  0  3  0  0  0  0  0  0
  -25.6090  -33.9480   24.2140 N   0  0  0  0  0  0  0  0  0  0  0  0
  -25.9370  -35.0030   23.4560 C   0  0  0  0  0  0  0  0  0  0  0  0
  -26.5960  -34.8990   22.4190 O   0  0  0  0  0  0  0  0  0  0  0  0
  -25.0230  -34.1010   25.0220 H   0  0  0  0  0  0  0  0  0  0  0  0
  -24.2060  -36.8000   23.1270 C   0  0  0  0  0  1  0  0  0  0  0  0
  -25.4580  -36.3920   23.9210 C   0  0  0  0  0  3  0  0  0  0  0  0
  -27.6040  -37.2780   24.7220 C   0  0  0  0  0  1  0  0  0  0  0  0
  -26.4900  -37.4450   23.7930 N   0  0  0  0  0  0  0  0  0  0  0  0
  -26.0870  -38.3650   23.9450 H   0  0  0  0  0  0  0  0  0  0  0  0
  -26.4280  -31.7800   25.1650 C   0  0  1  0  0  0  0  0  0  0  0  0
  -25.3330  -31.5590   26.2360 C   0  0  0  0  0  1  0  0  0  0  0  0
  -26.9980  -30.3950   24.7840 C   0  0  0  0  0  1  0  0  0  0  0  0
  -27.5850  -32.5690   25.8220 C   0  0  0  0  0  1  0  0  0  0  0  0
  1  2  1  0
  3  5  1  0
  3  4  1  0
  4 50  1  0
  4  1  1  0
  5  2  1  0
  7 10  1  0
  8  6  1  0
  9  7  2  0
  9 11  1  0
 10  5  1  0
 10  6  2  0
 11 20  1  0
 11  8  2  0
 12 20  1  0
 13 18  1  0
 14 15  1  0
 14 13  1  0
 16 15  1  0
 16 25  1  0
 16 17  1  0
 18 12  1  0
 18 17  1  0
 19 12  2  0
 20 21  1  0
 22 23  2  0
 23 42  1  0
 24 23  1  0
 24 27  1  0
 25 26  1  0
 25 22  1  0
 26 24  2  0
 27 28  1  0
 28 29  2  0
 30 33  1  0
 30 29  1  0
 31 30  2  0
 32 31  1  0
 32 27  2  0
 33 34  1  0
 34 35  1  0
 35 36  2  0
 37 36  1  0
 37 41  1  0
 38 37  2  0
 39 34  2  0
 39 38  1  0
 40 39  1  0
 42 43  1  0
 43 46  1  0
 43 45  1  0
 44 42  2  0
 47 48  1  0
 47 22  1  0
 49 47  1  0
 50 52  1  0
 51 62  2  0
 52 57  1  0
 53 61  1  0
 53 63  1  0
 54 60  1  0
 54 56  1  0
 55 61  1  0
 56 55  1  0
 57 56  2  0
 58 52  2  0
 59 58  1  0
 59 54  2  0
 60 53  1  0
 61 51  1  0
 63 65  2  0
 64 63  1  0
 66 64  1  0
 67 76  2  0
 67 72  1  0
 68 64  1  0
 68 72  1  0
 69 68  1  0
 70 71  1  0
 70 69  1  0
 71 67  1  0
 72 73  2  0
 73 74  1  0
 75 74  2  0
 76 75  1  0
 77 51  1  0
 77 78  1  0
 77 87  1  0
 78 81  1  0
 79 83  1  0
 79 78  1  0
 80 79  2  0
 83 82  1  0
 85 83  1  0
 85 86  1  0
 85 84  1  0
 87 90  1  1
 87 88  1  0
 89 87  1  0
M  ISO  4   4 101  12 100  20 100  50 101
M  END
>  <TORSDO>  (4) 
F 17

>  <SCORE>  (4) 
-15.242

>  <name>  (4) 
3

>  <ligand_id>  (4) 
3

>  <original_smiles>  (4) 
[H]c1c([H])c([H])c2c(c1[H])C([H])([H])C([H])([H])C([H])([H])C2([H])N([H])C(=O)C1([H])N(C(=O)C([H])(N([H])C(=O)C([H])(N([H])C([H])([H])[H])C([H])([H])[H])C(C([H])([H])[H])(C([H])([H])[H])C([H])([H])[H])C([H])([H])c2c([H])c(OC3([H])C([H])([H])N(c4c([H])c([H])c(N([H])C(=O)N5C([H])([H])C([H])([H])C([H])([H])C([H])(n6nc(-c7c([H])c([H])c(Oc8c([H])c([H])c(F)c([H])c8F)c([H])c7[H])c(C(=O)N([H])[H])c6N([H])[H])C5([H])[H])c([H])c4[H])C([H])([H])C3([H])[H])c([H])c([H])c2C1([H])[H]

>  <smiles>  (4) 
[H]c1c([H])c([H])c2c(c1[H])C([H])([H])C([H])([H])C([H])([H])C2([H])N([H])C(=O)C1([H])N(C(=O)C([H])(N([H])C(=O)C([H])(N([H])C([H])([H])[H])C([H])([H])[H])C(C([H])([H])[H])(C([H])([H])[H])C([H])([H])[H])C([H])([H])c2c([H])c(OC3([H])C([H])([H])N(c4c([H])c([H])c(N([H])C(=O)N5C([H])([H])C([H])([H])C([H])([H])C([H])(n6nc(-c7c([H])c([H])c(Oc8c([H])c([H])c(F)c([H])c8F)c([H])c7[H])c(C(=O)N([H])[H])c6N([H])[H])C5([H])[H])c([H])c4[H])C([H])([H])C3([H])[H])c([H])c([H])c2C1([H])[H]

$$$$
4:0:0
     RDKit          3D

 91100  0  0  1  0  0  0  0  0999 V2000
  -29.2050  -24.4170   21.7210 C   0  0  0  0  0  2  0  0  0  0  0  0
  -29.2820  -22.8660   21.9110 C   0  0  0  0  0  2  0  0  0  0  0  0
  -28.3910  -23.3450   19.7840 C   0  0  0  0  0  2  0  0  0  0  0  0
  -28.1520  -24.7430   20.6430 C   0  0  0  0  0  3  0  0  0  0  0  0
  -29.0020  -22.2120   20.6290 N   0  0  0  0  0  0  0  0  0  0  0  0
  -30.2590  -19.9940   21.1420 C   0  0  0  0  0  3  0  0  0  0  0  0
  -30.4600  -18.5490   21.0980 C   0  0  0  0  0  3  0  0  0  0  0  0
  -28.3690  -19.8120   19.7630 C   0  0  0  0  0  3  0  0  0  0  0  0
  -29.2010  -20.7310   20.4880 C   0  0  0  0  0  0  0  0  0  0  0  0
  -29.5960  -17.6370   20.4060 C   0  0  0  0  0  0  0  0  0  0  0  0
  -28.5380  -18.3620   19.7470 C   0  0  0  0  0  0  0  0  0  0  0  0
  -27.6120  -17.6270   19.0850 F   0  0  0  0  0  0  0  0  0  0  0  0
  -30.4690  -14.9960   20.3510 C   0  0  0  0  0  0  0  0  0  0  0  0
  -30.4100  -12.6450   19.3920 C   0  0  0  0  0  2  0  0  0  0  0  0
  -29.4690  -12.5940   18.1640 C   0  0  0  0  0  2  0  0  0  0  0  0
  -28.0060  -12.3710   18.5980 C   0  0  0  0  0  2  0  0  0  0  0  0
  -27.5930  -13.2920   19.7760 C   0  0  0  0  0  3  0  0  0  0  0  0
  -28.6470  -13.2890   20.9030 C   0  0  0  0  0  2  0  0  0  0  0  0
  -29.9180  -13.7170   20.3000 N   0  0  0  0  0  0  0  0  0  0  0  0
  -31.6730  -15.1150   20.0920 O   0  0  0  0  0  0  0  0  0  0  0  0
  -29.5860  -16.1010   20.4670 N   0  0  0  0  0  0  0  0  0  0  0  0
  -28.6400  -15.7530   20.4890 H   0  0  0  0  0  0  0  0  0  0  0  0
  -25.2090  -13.8650   20.5130 C   0  0  0  0  0  0  0  0  0  0  0  0
  -24.1460  -13.0850   20.8780 C   0  0  0  0  0  0  0  0  0  0  0  0
  -24.6150  -11.7350   20.8430 C   0  0  0  0  0  0  0  0  0  0  0  0
  -26.2540  -12.9900   20.2690 N   0  0  0  0  0  0  0  0  0  0  0  0
  -25.9060  -11.7050   20.5350 N   0  0  0  0  0  0  0  0  0  0  0  0
  -23.8920  -10.4700   21.0270 C   0  0  0  0  0  0  0  0  0  0  0  0
  -24.3130   -9.5080   21.9710 C   0  0  0  0  0  3  0  0  0  0  0  0
  -23.5890   -8.3090   22.1420 C   0  0  0  0  0  3  0  0  0  0  0  0
  -22.4300   -8.0620   21.3690 C   0  0  0  0  0  0  0  0  0  0  0  0
  -22.0290   -9.0130   20.4130 C   0  0  0  0  0  3  0  0  0  0  0  0
  -22.7530  -10.2030   20.2400 C   0  0  0  0  0  3  0  0  0  0  0  0
  -21.6790   -6.9150   21.4480 O   0  0  0  0  0  0  0  0  0  0  0  0
  -21.6000   -6.1860   22.6080 C   0  0  0  0  0  0  0  0  0  0  0  0
  -21.1170   -6.7480   23.8110 C   0  0  0  0  0  3  0  0  0  0  0  0
  -20.9880   -5.9440   24.9600 C   0  0  0  0  0  3  0  0  0  0  0  0
  -21.3290   -4.5800   24.9090 C   0  0  0  0  0  0  0  0  0  0  0  0
  -21.8050   -4.0170   23.7110 C   0  0  0  0  0  3  0  0  0  0  0  0
  -21.9360   -4.8180   22.5630 C   0  0  0  0  0  0  0  0  0  0  0  0
  -22.3740   -4.2660   21.4060 F   0  0  0  0  0  0  0  0  0  0  0  0
  -21.1980   -3.8060   26.0110 F   0  0  0  0  0  0  0  0  0  0  0  0
  -22.7460  -13.5560   21.1450 C   0  0  0  0  0  0  0  0  0  0  0  0
  -22.0150  -12.8540   22.0020 N   0  0  0  0  0  0  0  0  0  0  0  0
  -22.3080  -14.5840   20.6290 O   0  0  0  0  0  0  0  0  0  0  0  0
  -22.3810  -12.0210   22.4410 H   0  0  0  0  0  0  0  0  0  0  0  0
  -21.0750  -13.1510   22.2240 H   0  0  0  0  0  0  0  0  0  0  0  0
  -25.3640  -15.2380   20.3410 N   0  0  0  0  0  0  0  0  0  0  0  0
  -24.5860  -15.8770   20.4650 H   0  0  0  0  0  0  0  0  0  0  0  0
  -26.1810  -15.6920   19.9530 H   0  0  0  0  0  0  0  0  0  0  0  0
  -28.2810  -26.2390   20.2200 O   0  0  0  0  0  0  0  0  0  0  0  0
  -24.6120  -31.8920   23.2410 C   0  0  0  0  0  0  0  0  0  0  0  0
  -27.1940  -27.1820   20.2270 C   0  0  0  0  0  0  0  0  0  0  0  0
  -23.4100  -30.4920   21.6040 C   0  0  0  0  0  3  0  0  0  0  0  0
  -24.8560  -28.9070   20.1890 C   0  0  0  0  0  0  0  0  0  0  0  0
  -25.9600  -30.7650   21.4290 C   0  0  0  0  0  2  0  0  0  0  0  0
  -26.0360  -29.3680   20.7870 C   0  0  0  0  0  0  0  0  0  0  0  0
  -27.2090  -28.5240   20.7820 C   0  0  0  0  0  3  0  0  0  0  0  0
  -25.9860  -26.8080   19.6040 C   0  0  0  0  0  3  0  0  0  0  0  0
  -24.8430  -27.6410   19.5820 C   0  0  0  0  0  3  0  0  0  0  0  0
  -23.6290  -29.8040   20.2290 C   0  0  0  0  0  2  0  0  0  0  0  0
  -24.6820  -31.0710   22.1480 N   0  0  0  0  0  0  0  0  0  0  0  0
  -23.5260  -32.1740   23.7700 O   0  0  0  0  0  0  0  0  0  0  0  0
  -22.7320  -29.4890   22.5720 C   0  0  0  0  0  0  0  0  0  0  0  0
  -21.4050  -29.3160   22.4440 N   0  0  0  0  0  0  0  0  0  0  0  0
  -23.4040  -28.8670   23.3990 O   0  0  0  0  0  0  0  0  0  0  0  0
  -20.9180  -29.8710   21.7540 H   0  0  0  0  0  0  0  0  0  0  0  0
  -18.0250  -28.1110   22.9460 C   0  0  0  0  0  0  0  0  0  0  0  0
  -20.5820  -28.3800   23.2170 C   0  0  0  0  0  3  0  0  0  0  0  0
  -20.6880  -26.9450   22.6490 C   0  0  0  0  0  2  0  0  0  0  0  0
  -19.5880  -26.6170   21.6340 C   0  0  0  0  0  2  0  0  0  0  0  0
  -18.2060  -26.7620   22.2740 C   0  0  0  0  0  2  0  0  0  0  0  0
  -19.1410  -28.8780   23.3750 C   0  0  0  0  0  0  0  0  0  0  0  0
  -18.9170  -30.1420   23.9650 C   0  0  0  0  0  3  0  0  0  0  0  0
  -17.6100  -30.6380   24.1290 C   0  0  0  0  0  3  0  0  0  0  0  0
  -16.5090  -29.8690   23.7150 C   0  0  0  0  0  3  0  0  0  0  0  0
  -16.7170  -28.6080   23.1300 C   0  0  0  0  0  3  0  0  0  0  0  0
  -25.8910  -32.5290   23.8660 C   0  0  0  0  0  3  0  0  0  0  0  0
  -25.5810  -33.9290   24.1950 N   0  0  0  0  0  0  0  0  0  0  0  0
  -25.9110  -34.9840   23.4370 C   0  0  0  0  0  0  0  0  0  0  0  0
  -26.5750  -34.8790   22.4020 O   0  0  0  0  0  0  0  0  0  0  0  0
  -24.9910  -34.0840   25.0000 H   0  0  0  0  0  0  0  0  0  0  0  0
  -24.1820  -36.7800   23.0960 C   0  0  0  0  0  1  0  0  0  0  0  0
  -25.4290  -36.3740   23.8980 C   0  0  0  0  0  3  0  0  0  0  0  0
  -27.5700  -37.2570   24.7130 C   0  0  0  0  0  1  0  0  0  0  0  0
  -26.4620  -37.4260   23.7780 N   0  0  0  0  0  0  0  0  0  0  0  0
  -26.0570  -38.3460   23.9310 H   0  0  0  0  0  0  0  0  0  0  0  0
  -26.3990  -31.7640   25.1500 C   0  0  1  0  0  0  0  0  0  0  0  0
  -25.3020  -31.5380   26.2170 C   0  0  0  0  0  1  0  0  0  0  0  0
  -26.9790  -30.3820   24.7710 C   0  0  0  0  0  1  0  0  0  0  0  0
  -27.5500  -32.5580   25.8120 C   0  0  0  0  0  1  0  0  0  0  0  0
  1  2  1  0
  3  5  1  0
  3  4  1  0
  4 51  1  0
  4  1  1  0
  5  2  1  0
  7  6  1  0
  8  9  1  0
  9  5  1  0
  9  6  2  0
 10 21  1  0
 10  7  2  0
 11  8  2  0
 11 10  1  0
 12 11  1  0
 13 21  1  0
 14 19  1  0
 15 16  1  0
 15 14  1  0
 17 16  1  0
 17 26  1  0
 17 18  1  0
 19 13  1  0
 19 18  1  0
 20 13  2  0
 21 22  1  0
 23 24  2  0
 24 43  1  0
 25 24  1  0
 25 28  1  0
 26 23  1  0
 26 27  1  0
 27 25  2  0
 28 29  1  0
 29 30  2  0
 31 34  1  0
 31 30  1  0
 32 31  2  0
 33 32  1  0
 33 28  2  0
 34 35  1  0
 35 36  1  0
 36 37  2  0
 38 37  1  0
 38 42  1  0
 39 38  2  0
 40 35  2  0
 40 39  1  0
 41 40  1  0
 43 44  1  0
 44 47  1  0
 44 46  1  0
 45 43  2  0
 48 49  1  0
 48 23  1  0
 50 48  1  0
 51 53  1  0
 52 63  2  0
 53 58  1  0
 54 62  1  0
 54 64  1  0
 55 61  1  0
 55 57  1  0
 56 62  1  0
 57 56  1  0
 58 57  2  0
 59 53  2  0
 60 59  1  0
 60 55  2  0
 61 54  1  0
 62 52  1  0
 64 66  2  0
 65 64  1  0
 67 65  1  0
 68 77  2  0
 68 73  1  0
 69 65  1  0
 69 73  1  0
 70 69  1  0
 71 72  1  0
 71 70  1  0
 72 68  1  0
 73 74  2  0
 74 75  1  0
 76 75  2  0
 77 76  1  0
 78 52  1  0
 78 79  1  0
 78 88  1  0
 79 82  1  0
 80 84  1  0
 80 79  1  0
 81 80  2  0
 84 83  1  0
 86 84  1  0
 86 87  1  0
 86 85  1  0
 88 91  1  1
 88 89  1  0
 90 88  1  0
M  ISO  4   4 101  13 100  21 100  51 101
M  END
>  <TORSDO>  (5) 
F 17

>  <SCORE>  (5) 
-15.443

>  <name>  (5) 
4

>  <ligand_id>  (5) 
4

>  <original_smiles>  (5) 
[H]c1c([H])c([H])c2c(c1[H])C([H])([H])C([H])([H])C([H])([H])C2([H])N([H])C(=O)C1([H])N(C(=O)C([H])(N([H])C(=O)C([H])(N([H])C([H])([H])[H])C([H])([H])[H])C(C([H])([H])[H])(C([H])([H])[H])C([H])([H])[H])C([H])([H])c2c([H])c(OC3([H])C([H])([H])N(c4c([H])c([H])c(N([H])C(=O)N5C([H])([H])C([H])([H])C([H])([H])C([H])(n6nc(-c7c([H])c([H])c(Oc8c([H])c([H])c(F)c([H])c8F)c([H])c7[H])c(C(=O)N([H])[H])c6N([H])[H])C5([H])[H])c(F)c4[H])C([H])([H])C3([H])[H])c([H])c([H])c2C1([H])[H]

>  <smiles>  (5) 
[H]c1c([H])c([H])c2c(c1[H])C([H])([H])C([H])([H])C([H])([H])C2([H])N([H])C(=O)C1([H])N(C(=O)C([H])(N([H])C(=O)C([H])(N([H])C([H])([H])[H])C([H])([H])[H])C(C([H])([H])[H])(C([H])([H])[H])C([H])([H])[H])C([H])([H])c2c([H])c(OC3([H])C([H])([H])N(c4c([H])c([H])c(N([H])C(=O)N5C([H])([H])C([H])([H])C([H])([H])C([H])(n6nc(-c7c([H])c([H])c(Oc8c([H])c([H])c(F)c([H])c8F)c([H])c7[H])c(C(=O)N([H])[H])c6N([H])[H])C5([H])[H])c(F)c4[H])C([H])([H])C3([H])[H])c([H])c([H])c2C1([H])[H]

$$$$
5:0:0
     RDKit          3D

 91 99  0  0  1  0  0  0  0  0999 V2000
  -30.6040  -18.0400   20.5980 C   0  0  0  0  0  3  0  0  0  0  0  0
  -28.2190  -18.9520   19.4760 C   0  0  0  0  0  3  0  0  0  0  0  0
  -29.6140  -17.0660   20.3110 C   0  0  0  0  0  0  0  0  0  0  0  0
  -29.1570  -19.9530   19.8550 C   0  0  0  0  0  0  0  0  0  0  0  0
  -30.3790  -19.4410   20.3930 C   0  0  0  0  0  0  0  0  0  0  0  0
  -28.4270  -17.5600   19.7140 C   0  0  0  0  0  0  0  0  0  0  0  0
  -31.3830  -20.2890   20.7110 F   0  0  0  0  0  0  0  0  0  0  0  0
  -27.4520  -16.6870   19.3690 F   0  0  0  0  0  0  0  0  0  0  0  0
  -30.5300  -14.6460   20.3810 C   0  0  0  0  0  0  0  0  0  0  0  0
  -30.3560  -12.4080   19.3300 C   0  0  0  0  0  2  0  0  0  0  0  0
  -29.4070  -12.5560   18.1180 C   0  0  0  0  0  2  0  0  0  0  0  0
  -27.9290  -12.4280   18.5360 C   0  0  0  0  0  2  0  0  0  0  0  0
  -27.5820  -13.2710   19.7900 C   0  0  0  0  0  3  0  0  0  0  0  0
  -28.6350  -13.0610   20.9000 C   0  0  0  0  0  2  0  0  0  0  0  0
  -29.9490  -13.4070   20.3350 N   0  0  0  0  0  0  0  0  0  0  0  0
  -31.6900  -14.8310   19.9970 O   0  0  0  0  0  0  0  0  0  0  0  0
  -29.6870  -15.6630   20.7290 N   0  0  0  0  0  0  0  0  0  0  0  0
  -28.8090  -15.3060   21.0760 H   0  0  0  0  0  0  0  0  0  0  0  0
  -25.1870  -13.8870   20.5090 C   0  0  0  0  0  0  0  0  0  0  0  0
  -24.1190  -13.1190   20.8740 C   0  0  0  0  0  0  0  0  0  0  0  0
  -24.5740  -11.7640   20.8450 C   0  0  0  0  0  0  0  0  0  0  0  0
  -26.2300  -13.0020   20.2690 N   0  0  0  0  0  0  0  0  0  0  0  0
  -25.8640  -11.7200   20.5360 N   0  0  0  0  0  0  0  0  0  0  0  0
  -23.8430  -10.5090   21.0390 C   0  0  0  0  0  0  0  0  0  0  0  0
  -24.2790   -9.5400   21.9680 C   0  0  0  0  0  3  0  0  0  0  0  0
  -23.5490   -8.3460   22.1500 C   0  0  0  0  0  3  0  0  0  0  0  0
  -22.3690   -8.1150   21.4050 C   0  0  0  0  0  0  0  0  0  0  0  0
  -21.9530   -9.0730   20.4640 C   0  0  0  0  0  3  0  0  0  0  0  0
  -22.6830  -10.2570   20.2780 C   0  0  0  0  0  3  0  0  0  0  0  0
  -21.6080   -6.9740   21.4990 O   0  0  0  0  0  0  0  0  0  0  0  0
  -21.5760   -6.2230   22.6480 C   0  0  0  0  0  0  0  0  0  0  0  0
  -21.1910   -6.7750   23.8890 C   0  0  0  0  0  3  0  0  0  0  0  0
  -21.1010   -5.9510   25.0290 C   0  0  0  0  0  3  0  0  0  0  0  0
  -21.3920   -4.5780   24.9310 C   0  0  0  0  0  0  0  0  0  0  0  0
  -21.7720   -4.0240   23.6960 C   0  0  0  0  0  3  0  0  0  0  0  0
  -21.8620   -4.8450   22.5570 C   0  0  0  0  0  0  0  0  0  0  0  0
  -22.2070   -4.3030   21.3640 F   0  0  0  0  0  0  0  0  0  0  0  0
  -21.2990   -3.7860   26.0240 F   0  0  0  0  0  0  0  0  0  0  0  0
  -22.7220  -13.6020   21.1410 C   0  0  0  0  0  0  0  0  0  0  0  0
  -21.9870  -12.9120   22.0030 N   0  0  0  0  0  0  0  0  0  0  0  0
  -22.2890  -14.6260   20.6110 O   0  0  0  0  0  0  0  0  0  0  0  0
  -22.3550  -12.0860   22.4540 H   0  0  0  0  0  0  0  0  0  0  0  0
  -21.0450  -13.2050   22.2200 H   0  0  0  0  0  0  0  0  0  0  0  0
  -25.3360  -15.2600   20.3470 N   0  0  0  0  0  0  0  0  0  0  0  0
  -24.5470  -15.8850   20.4960 H   0  0  0  0  0  0  0  0  0  0  0  0
  -26.1550  -15.7360   19.9800 H   0  0  0  0  0  0  0  0  0  0  0  0
  -28.8300  -21.3200   19.6080 O   0  0  0  0  0  0  0  0  0  0  0  0
  -29.3030  -22.4620   20.4190 C   0  0  0  0  0  2  0  0  0  0  0  0
  -29.1080  -23.9620   19.8460 C   0  0  0  0  0  3  0  0  0  0  0  0
  -28.1740  -25.0450   20.5590 C   0  0  0  0  0  3  0  0  0  0  0  0
  -28.3630  -26.4860   20.2210 O   0  0  0  0  0  0  0  0  0  0  0  0
  -24.6170  -31.9110   23.2470 C   0  0  0  0  0  0  0  0  0  0  0  0
  -27.2460  -27.3360   20.2150 C   0  0  0  0  0  0  0  0  0  0  0  0
  -23.4240  -30.5070   21.6050 C   0  0  0  0  0  3  0  0  0  0  0  0
  -24.8840  -28.9520   20.1940 C   0  0  0  0  0  0  0  0  0  0  0  0
  -25.9680  -30.8160   21.4470 C   0  0  0  0  0  2  0  0  0  0  0  0
  -26.0490  -29.4370   20.8000 C   0  0  0  0  0  0  0  0  0  0  0  0
  -27.2350  -28.6400   20.8010 C   0  0  0  0  0  3  0  0  0  0  0  0
  -26.0620  -26.9100   19.5750 C   0  0  0  0  0  3  0  0  0  0  0  0
  -24.8940  -27.6950   19.5670 C   0  0  0  0  0  3  0  0  0  0  0  0
  -23.6480  -29.8270   20.2290 C   0  0  0  0  0  2  0  0  0  0  0  0
  -24.6880  -31.0960   22.1550 N   0  0  0  0  0  0  0  0  0  0  0  0
  -23.5300  -32.1930   23.7720 O   0  0  0  0  0  0  0  0  0  0  0  0
  -22.7560  -29.4960   22.5670 C   0  0  0  0  0  0  0  0  0  0  0  0
  -21.4290  -29.3290   22.4430 N   0  0  0  0  0  0  0  0  0  0  0  0
  -23.4330  -28.8590   23.3810 O   0  0  0  0  0  0  0  0  0  0  0  0
  -20.9400  -29.9020   21.7680 H   0  0  0  0  0  0  0  0  0  0  0  0
  -18.0440  -28.1450   22.9620 C   0  0  0  0  0  0  0  0  0  0  0  0
  -20.6080  -28.3870   23.2020 C   0  0  0  0  0  3  0  0  0  0  0  0
  -20.6980  -26.9670   22.5910 C   0  0  0  0  0  2  0  0  0  0  0  0
  -19.5600  -26.6410   21.6140 C   0  0  0  0  0  2  0  0  0  0  0  0
  -18.2020  -26.7850   22.3000 C   0  0  0  0  0  2  0  0  0  0  0  0
  -19.1730  -28.9020   23.3750 C   0  0  0  0  0  0  0  0  0  0  0  0
  -18.9680  -30.1720   23.9600 C   0  0  0  0  0  3  0  0  0  0  0  0
  -17.6700  -30.6870   24.1290 C   0  0  0  0  0  3  0  0  0  0  0  0
  -16.5570  -29.9290   23.7280 C   0  0  0  0  0  3  0  0  0  0  0  0
  -16.7450  -28.6590   23.1530 C   0  0  0  0  0  3  0  0  0  0  0  0
  -25.8970  -32.5450   23.8770 C   0  0  0  0  0  3  0  0  0  0  0  0
  -26.4030  -31.7790   25.1610 C   0  0  1  0  0  0  0  0  0  0  0  0
  -25.3000  -31.5480   26.2190 C   0  0  0  0  0  1  0  0  0  0  0  0
  -26.9900  -30.3990   24.7850 C   0  0  0  0  0  1  0  0  0  0  0  0
  -27.5540  -32.5730   25.8230 C   0  0  0  0  0  1  0  0  0  0  0  0
  -25.5860  -33.9450   24.2010 N   0  0  0  0  0  0  0  0  0  0  0  0
  -25.9150  -34.9950   23.4400 C   0  0  0  0  0  0  0  0  0  0  0  0
  -26.5880  -34.8870   22.4100 O   0  0  0  0  0  0  0  0  0  0  0  0
  -24.9970  -34.1030   25.0060 H   0  0  0  0  0  0  0  0  0  0  0  0
  -24.1830  -36.7780   23.0760 C   0  0  0  0  0  1  0  0  0  0  0  0
  -25.4240  -36.3840   23.8920 C   0  0  0  0  0  3  0  0  0  0  0  0
  -27.5570  -37.2750   24.7180 C   0  0  0  0  0  1  0  0  0  0  0  0
  -26.4550  -37.4380   23.7730 N   0  0  0  0  0  0  0  0  0  0  0  0
  -26.0490  -38.3590   23.9150 H   0  0  0  0  0  0  0  0  0  0  0  0
  2  6  2  0
  2  4  1  0
  3  1  2  0
  3 17  1  0
  4  5  2  0
  5  1  1  0
  5  7  1  0
  6  3  1  0
  8  6  1  0
  9 17  1  0
 10 15  1  0
 11 12  1  0
 11 10  1  0
 13 12  1  0
 13 22  1  0
 13 14  1  0
 15  9  1  0
 15 14  1  0
 16  9  2  0
 17 18  1  0
 19 20  2  0
 20 39  1  0
 21 20  1  0
 21 24  1  0
 22 19  1  0
 22 23  1  0
 23 21  2  0
 24 25  1  0
 25 26  2  0
 27 30  1  0
 27 26  1  0
 28 27  2  0
 29 28  1  0
 29 24  2  0
 30 31  1  0
 31 32  1  0
 32 33  2  0
 34 33  1  0
 34 38  1  0
 35 34  2  0
 36 31  2  0
 36 35  1  0
 37 36  1  0
 39 40  1  0
 40 43  1  0
 40 42  1  0
 41 39  2  0
 44 45  1  0
 44 19  1  0
 46 44  1  0
 47  4  1  0
 47 48  1  0
 49 48  1  0
 49 50  2  0
 51 50  1  0
 52 63  2  0
 53 51  1  0
 53 58  1  0
 54 62  1  0
 54 64  1  0
 55 61  1  0
 55 57  1  0
 56 62  1  0
 57 58  2  0
 57 56  1  0
 59 53  2  0
 60 59  1  0
 60 55  2  0
 61 54  1  0
 62 52  1  0
 64 66  2  0
 65 64  1  0
 67 65  1  0
 68 77  2  0
 68 73  1  0
 69 65  1  0
 69 73  1  0
 70 69  1  0
 71 72  1  0
 71 70  1  0
 72 68  1  0
 73 74  2  0
 74 75  1  0
 76 75  2  0
 77 76  1  0
 78 52  1  0
 78 83  1  0
 78 79  1  0
 79 82  1  1
 79 80  1  0
 81 79  1  0
 83 86  1  0
 84 88  1  0
 84 83  1  0
 85 84  2  0
 88 87  1  0
 90 88  1  0
 90 91  1  0
 90 89  1  0
M  ISO  4   9 100  17 100  50 101  51 101
M  END
>  <TORSDO>  (6) 
F 20

>  <SCORE>  (6) 
-14.179

>  <name>  (6) 
5

>  <ligand_id>  (6) 
5

>  <original_smiles>  (6) 
[H]c1c([H])c([H])c2c(c1[H])C([H])([H])C([H])([H])C([H])([H])C2([H])N([H])C(=O)C1([H])N(C(=O)C([H])(N([H])C(=O)C([H])(N([H])C([H])([H])[H])C([H])([H])[H])C(C([H])([H])[H])(C([H])([H])[H])C([H])([H])[H])C([H])([H])c2c([H])c(OC([H])([H])C([H])([H])C([H])([H])Oc3c([H])c(F)c(N([H])C(=O)N4C([H])([H])C([H])([H])C([H])([H])C([H])(n5nc(-c6c([H])c([H])c(Oc7c([H])c([H])c(F)c([H])c7F)c([H])c6[H])c(C(=O)N([H])[H])c5N([H])[H])C4([H])[H])c([H])c3F)c([H])c([H])c2C1([H])[H]

>  <smiles>  (6) 
[H]c1c([H])c([H])c2c(c1[H])C([H])([H])C([H])([H])C([H])([H])C2([H])N([H])C(=O)C1([H])N(C(=O)C([H])(N([H])C(=O)C([H])(N([H])C([H])([H])[H])C([H])([H])[H])C(C([H])([H])[H])(C([H])([H])[H])C([H])([H])[H])C([H])([H])c2c([H])c(OC([H])([H])C([H])([H])C([H])([H])Oc3c([H])c(F)c(N([H])C(=O)N4C([H])([H])C([H])([H])C([H])([H])C([H])(n5nc(-c6c([H])c([H])c(Oc7c([H])c([H])c(F)c([H])c7F)c([H])c6[H])c(C(=O)N([H])[H])c5N([H])[H])C4([H])[H])c([H])c3F)c([H])c([H])c2C1([H])[H]

$$$$
6:0:0
     RDKit          3D

 97106  0  0  1  0  0  0  0  0999 V2000
  -31.3000  -22.7230   17.0070 C   0  0  0  0  0  2  0  0  0  0  0  0
  -29.9660  -23.1130   17.6370 C   0  0  0  0  0  2  0  0  0  0  0  0
  -31.4080  -21.2450   17.3690 C   0  0  0  0  0  2  0  0  0  0  0  0
  -29.9220  -22.3020   18.9490 C   0  0  0  0  0  3  0  0  0  0  0  0
  -30.7570  -21.1240   18.6730 N   0  0  0  0  0  0  0  0  0  0  0  0
  -30.1800  -17.4270   19.0120 C   0  0  0  0  0  3  0  0  0  0  0  0
  -29.5950  -18.5130   21.1040 C   0  0  0  0  0  3  0  0  0  0  0  0
  -30.5490  -18.6720   18.4680 C   0  0  0  0  0  3  0  0  0  0  0  0
  -29.9410  -19.7610   20.5480 C   0  0  0  0  0  3  0  0  0  0  0  0
  -29.7100  -17.3350   20.3390 C   0  0  0  0  0  0  0  0  0  0  0  0
  -30.4230  -19.8640   19.2200 C   0  0  0  0  0  0  0  0  0  0  0  0
  -29.3210  -15.9840   20.9340 C   0  0  0  0  0  2  0  0  0  0  0  0
  -30.7310  -14.1830   20.0270 C   0  0  0  0  0  0  0  0  0  0  0  0
  -30.2660  -12.0590   18.8580 C   0  0  0  0  0  2  0  0  0  0  0  0
  -29.2430  -12.2510   17.7230 C   0  0  0  0  0  2  0  0  0  0  0  0
  -27.8080  -12.1000   18.2600 C   0  0  0  0  0  2  0  0  0  0  0  0
  -27.5600  -12.9770   19.5130 C   0  0  0  0  0  3  0  0  0  0  0  0
  -28.6860  -12.7780   20.5560 C   0  0  0  0  0  2  0  0  0  0  0  0
  -29.9800  -13.0510   19.9060 N   0  0  0  0  0  0  0  0  0  0  0  0
  -31.7390  -14.3780   19.3360 O   0  0  0  0  0  0  0  0  0  0  0  0
  -31.5170  -15.5160   21.8940 C   0  0  0  0  0  1  0  0  0  0  0  0
  -30.4300  -15.0200   21.0470 N   0  0  0  0  0  0  0  0  0  0  0  0
  -25.2330  -13.6310   20.4050 C   0  0  0  0  0  0  0  0  0  0  0  0
  -24.1830  -12.8770   20.8600 C   0  0  0  0  0  0  0  0  0  0  0  0
  -24.6180  -11.5180   20.7940 C   0  0  0  0  0  0  0  0  0  0  0  0
  -26.2410  -12.7300   20.0920 N   0  0  0  0  0  0  0  0  0  0  0  0
  -25.8780  -11.4560   20.3850 N   0  0  0  0  0  0  0  0  0  0  0  0
  -23.8870  -10.2690   21.0430 C   0  0  0  0  0  0  0  0  0  0  0  0
  -24.3400   -9.3270   21.9900 C   0  0  0  0  0  3  0  0  0  0  0  0
  -23.6150   -8.1390   22.2220 C   0  0  0  0  0  3  0  0  0  0  0  0
  -22.4200   -7.8850   21.5080 C   0  0  0  0  0  0  0  0  0  0  0  0
  -21.9860   -8.8170   20.5480 C   0  0  0  0  0  3  0  0  0  0  0  0
  -22.7110   -9.9960   20.3140 C   0  0  0  0  0  3  0  0  0  0  0  0
  -21.6630   -6.7480   21.6490 O   0  0  0  0  0  0  0  0  0  0  0  0
  -21.6160   -6.0570   22.8330 C   0  0  0  0  0  0  0  0  0  0  0  0
  -21.1530   -6.6540   24.0270 C   0  0  0  0  0  3  0  0  0  0  0  0
  -21.0570   -5.8870   25.2040 C   0  0  0  0  0  3  0  0  0  0  0  0
  -21.4100   -4.5240   25.1900 C   0  0  0  0  0  0  0  0  0  0  0  0
  -21.8630   -3.9260   24.0010 C   0  0  0  0  0  3  0  0  0  0  0  0
  -21.9640   -4.6910   22.8260 C   0  0  0  0  0  0  0  0  0  0  0  0
  -22.3830   -4.1060   21.6790 F   0  0  0  0  0  0  0  0  0  0  0  0
  -21.3070   -3.7860   26.3210 F   0  0  0  0  0  0  0  0  0  0  0  0
  -22.8200  -13.3790   21.2400 C   0  0  0  0  0  0  0  0  0  0  0  0
  -22.1460  -12.6940   22.1580 N   0  0  0  0  0  0  0  0  0  0  0  0
  -22.3620  -14.4140   20.7550 O   0  0  0  0  0  0  0  0  0  0  0  0
  -22.5320  -11.8610   22.5790 H   0  0  0  0  0  0  0  0  0  0  0  0
  -21.2310  -13.0100   22.4480 H   0  0  0  0  0  0  0  0  0  0  0  0
  -25.4040  -14.9970   20.2100 N   0  0  0  0  0  0  0  0  0  0  0  0
  -24.6470  -15.6540   20.3600 H   0  0  0  0  0  0  0  0  0  0  0  0
  -26.2100  -15.4160   19.7630 H   0  0  0  0  0  0  0  0  0  0  0  0
  -30.3740  -23.1800   20.1350 C   0  0  0  0  0  0  0  0  0  0  0  0
  -29.5950  -24.2250   20.4270 N   0  0  0  0  0  0  0  0  0  0  0  0
  -31.4150  -22.9400   20.7530 O   0  0  0  0  0  0  0  0  0  0  0  0
  -28.7620  -24.3720   19.8720 H   0  0  0  0  0  0  0  0  0  0  0  0
  -29.9370  -25.2900   21.3580 C   0  0  0  0  0  2  0  0  0  0  0  0
  -28.8250  -26.3450   21.4050 C   0  0  0  0  0  2  0  0  0  0  0  0
  -28.3260  -26.6080   20.0910 O   0  0  0  0  0  0  0  0  0  0  0  0
  -24.5140  -31.7670   23.1470 C   0  0  0  0  0  0  0  0  0  0  0  0
  -27.1800  -27.3640   20.0800 C   0  0  0  0  0  0  0  0  0  0  0  0
  -23.3150  -30.3820   21.4790 C   0  0  0  0  0  3  0  0  0  0  0  0
  -24.7790  -28.8440   20.0640 C   0  0  0  0  0  0  0  0  0  0  0  0
  -25.8380  -30.7400   21.3110 C   0  0  0  0  0  2  0  0  0  0  0  0
  -25.9250  -29.3740   20.6710 C   0  0  0  0  0  0  0  0  0  0  0  0
  -27.1260  -28.6390   20.6820 C   0  0  0  0  0  3  0  0  0  0  0  0
  -26.0280  -26.8440   19.4570 C   0  0  0  0  0  3  0  0  0  0  0  0
  -24.8230  -27.5750   19.4560 C   0  0  0  0  0  3  0  0  0  0  0  0
  -23.5370  -29.7050   20.0980 C   0  0  0  0  0  2  0  0  0  0  0  0
  -24.5720  -30.9770   22.0380 N   0  0  0  0  0  0  0  0  0  0  0  0
  -23.4300  -32.0420   23.6790 O   0  0  0  0  0  0  0  0  0  0  0  0
  -22.6510  -29.3600   22.4280 C   0  0  0  0  0  0  0  0  0  0  0  0
  -21.3200  -29.2190   22.3150 N   0  0  0  0  0  0  0  0  0  0  0  0
  -23.3260  -28.6980   23.2200 O   0  0  0  0  0  0  0  0  0  0  0  0
  -20.8370  -29.8050   21.6480 H   0  0  0  0  0  0  0  0  0  0  0  0
  -17.9130  -28.1590   22.8680 C   0  0  0  0  0  0  0  0  0  0  0  0
  -20.4860  -28.2910   23.0780 C   0  0  0  0  0  3  0  0  0  0  0  0
  -20.5080  -26.8780   22.4500 C   0  0  0  0  0  2  0  0  0  0  0  0
  -19.3660  -26.6440   21.4550 C   0  0  0  0  0  2  0  0  0  0  0  0
  -18.0090  -26.8290   22.1420 C   0  0  0  0  0  2  0  0  0  0  0  0
  -19.0770  -28.8530   23.2940 C   0  0  0  0  0  0  0  0  0  0  0  0
  -18.9330  -30.1040   23.9320 C   0  0  0  0  0  3  0  0  0  0  0  0
  -17.6580  -30.6580   24.1520 C   0  0  0  0  0  3  0  0  0  0  0  0
  -16.5090  -29.9580   23.7430 C   0  0  0  0  0  3  0  0  0  0  0  0
  -16.6370  -28.7120   23.1050 C   0  0  0  0  0  3  0  0  0  0  0  0
  -25.8010  -32.3820   23.7840 C   0  0  0  0  0  3  0  0  0  0  0  0
  -25.4940  -33.7710   24.1440 N   0  0  0  0  0  0  0  0  0  0  0  0
  -25.8180  -34.8370   23.4010 C   0  0  0  0  0  0  0  0  0  0  0  0
  -26.4780  -34.7550   22.3610 O   0  0  0  0  0  0  0  0  0  0  0  0
  -24.9070  -33.9100   24.9540 H   0  0  0  0  0  0  0  0  0  0  0  0
  -24.0760  -36.6230   23.0980 C   0  0  0  0  0  1  0  0  0  0  0  0
  -25.3300  -36.2150   23.8880 C   0  0  0  0  0  3  0  0  0  0  0  0
  -27.4700  -37.0990   24.7050 C   0  0  0  0  0  1  0  0  0  0  0  0
  -26.3560  -37.2750   23.7780 N   0  0  0  0  0  0  0  0  0  0  0  0
  -25.9460  -38.1910   23.9440 H   0  0  0  0  0  0  0  0  0  0  0  0
  -26.3210  -31.5800   25.0400 C   0  0  1  0  0  0  0  0  0  0  0  0
  -25.2300  -31.3180   26.1030 C   0  0  0  0  0  1  0  0  0  0  0  0
  -26.9060  -30.2130   24.6140 C   0  0  0  0  0  1  0  0  0  0  0  0
  -27.4710  -32.3600   25.7200 C   0  0  0  0  0  1  0  0  0  0  0  0
  1  3  1  0
  1  2  1  0
  2  4  1  0
  3  5  1  0
  4 51  1  0
  5  4  1  0
  5 11  1  0
  6 10  1  0
  8  6  2  0
  8 11  1  0
  9  7  1  0
 10 12  1  0
 10  7  2  0
 11  9  2  0
 12 22  1  0
 13 22  1  0
 14 19  1  0
 15 16  1  0
 15 14  1  0
 17 16  1  0
 17 26  1  0
 17 18  1  0
 19 13  1  0
 19 18  1  0
 20 13  2  0
 22 21  1  0
 23 24  2  0
 24 43  1  0
 25 24  1  0
 25 28  1  0
 26 27  1  0
 26 23  1  0
 27 25  2  0
 28 29  1  0
 29 30  2  0
 31 34  1  0
 31 30  1  0
 32 31  2  0
 33 32  1  0
 33 28  2  0
 34 35  1  0
 35 36  1  0
 36 37  2  0
 38 37  1  0
 38 42  1  0
 39 38  2  0
 40 35  2  0
 40 39  1  0
 41 40  1  0
 43 44  1  0
 44 47  1  0
 44 46  1  0
 45 43  2  0
 48 49  1  0
 48 23  1  0
 50 48  1  0
 51 52  1  0
 51 53  2  0
 52 55  1  0
 54 52  1  0
 55 56  1  0
 57 56  1  0
 58 69  2  0
 59 57  1  0
 59 64  1  0
 60 68  1  0
 60 70  1  0
 61 67  1  0
 61 63  1  0
 62 68  1  0
 63 64  2  0
 63 62  1  0
 65 59  2  0
 66 65  1  0
 66 61  2  0
 67 60  1  0
 68 58  1  0
 70 72  2  0
 71 70  1  0
 73 71  1  0
 74 83  2  0
 74 79  1  0
 75 71  1  0
 75 79  1  0
 76 75  1  0
 77 78  1  0
 77 76  1  0
 78 74  1  0
 79 80  2  0
 80 81  1  0
 82 81  2  0
 83 82  1  0
 84 58  1  0
 84 85  1  0
 84 94  1  0
 85 88  1  0
 86 90  1  0
 86 85  1  0
 87 86  2  0
 90 89  1  0
 92 90  1  0
 92 93  1  0
 92 91  1  0
 94 97  1  1
 94 95  1  0
 96 94  1  0
M  ISO  4  13 100  22 100  56 101  57 101
M  END
>  <TORSDO>  (7) 
F 21

>  <SCORE>  (7) 
-12.942

>  <name>  (7) 
6

>  <ligand_id>  (7) 
6

>  <original_smiles>  (7) 
[H]c1c([H])c([H])c2c(c1[H])C([H])([H])C([H])([H])C([H])([H])C2([H])N([H])C(=O)C1([H])N(C(=O)C([H])(N([H])C(=O)C([H])(N([H])C([H])([H])[H])C([H])([H])[H])C(C([H])([H])[H])(C([H])([H])[H])C([H])([H])[H])C([H])([H])c2c([H])c(OC([H])([H])C([H])([H])N([H])C(=O)C3([H])N(c4c([H])c([H])c(C([H])([H])N(C(=O)N5C([H])([H])C([H])([H])C([H])([H])C([H])(n6nc(-c7c([H])c([H])c(Oc8c([H])c([H])c(F)c([H])c8F)c([H])c7[H])c(C(=O)N([H])[H])c6N([H])[H])C5([H])[H])C([H])([H])[H])c([H])c4[H])C([H])([H])C([H])([H])C3([H])[H])c([H])c([H])c2C1([H])[H]

>  <smiles>  (7) 
[H]c1c([H])c([H])c2c(c1[H])C([H])([H])C([H])([H])C([H])([H])C2([H])N([H])C(=O)C1([H])N(C(=O)C([H])(N([H])C(=O)C([H])(N([H])C([H])([H])[H])C([H])([H])[H])C(C([H])([H])[H])(C([H])([H])[H])C([H])([H])[H])C([H])([H])c2c([H])c(OC([H])([H])C([H])([H])N([H])C(=O)C3([H])N(c4c([H])c([H])c(C([H])([H])N(C(=O)N5C([H])([H])C([H])([H])C([H])([H])C([H])(n6nc(-c7c([H])c([H])c(Oc8c([H])c([H])c(F)c([H])c8F)c([H])c7[H])c(C(=O)N([H])[H])c6N([H])[H])C5([H])[H])C([H])([H])[H])c([H])c4[H])C([H])([H])C([H])([H])C3([H])[H])c([H])c([H])c2C1([H])[H]

$$$$
7:0:0
     RDKit          3D

 91100  0  0  1  0  0  0  0  0999 V2000
  -28.6840  -24.9450   21.9920 C   0  0  0  0  0  2  0  0  0  0  0  0
  -28.7310  -23.4110   22.1480 C   0  0  0  0  0  2  0  0  0  0  0  0
  -28.7070  -23.9620   19.8230 C   0  0  0  0  0  2  0  0  0  0  0  0
  -28.0960  -25.1930   20.6000 C   0  0  0  0  0  3  0  0  0  0  0  0
  -28.7990  -22.8460   20.8020 N   0  0  0  0  0  0  0  0  0  0  0  0
  -29.6210  -19.5170   19.1010 C   0  0  0  0  0  3  0  0  0  0  0  0
  -29.6480  -19.1750   21.4780 C   0  0  0  0  0  3  0  0  0  0  0  0
  -29.2460  -20.8830   19.2890 C   0  0  0  0  0  3  0  0  0  0  0  0
  -29.2740  -20.5400   21.6630 C   0  0  0  0  0  3  0  0  0  0  0  0
  -29.8660  -18.6330   20.1890 C   0  0  0  0  0  0  0  0  0  0  0  0
  -29.0950  -21.4520   20.5800 C   0  0  0  0  0  0  0  0  0  0  0  0
  -30.5980  -17.2600   19.9640 C   0  0  0  0  0  2  0  0  0  0  0  0
  -30.6990  -14.7520   19.9760 C   0  0  0  0  0  0  0  0  0  0  0  0
  -30.3810  -12.5200   18.9490 C   0  0  0  0  0  2  0  0  0  0  0  0
  -29.3750  -12.6350   17.7850 C   0  0  0  0  0  2  0  0  0  0  0  0
  -27.9350  -12.4630   18.3040 C   0  0  0  0  0  2  0  0  0  0  0  0
  -27.6400  -13.3320   19.5580 C   0  0  0  0  0  3  0  0  0  0  0  0
  -28.7660  -13.2310   20.6100 C   0  0  0  0  0  2  0  0  0  0  0  0
  -30.0290  -13.5590   19.9390 N   0  0  0  0  0  0  0  0  0  0  0  0
  -31.8560  -14.8300   19.5550 O   0  0  0  0  0  0  0  0  0  0  0  0
  -30.0110  -15.9060   20.2540 N   0  0  0  0  0  0  0  0  0  0  0  0
  -29.0470  -15.8460   20.5460 H   0  0  0  0  0  0  0  0  0  0  0  0
  -25.3000  -13.8880   20.4520 C   0  0  0  0  0  0  0  0  0  0  0  0
  -24.2640  -13.0970   20.8690 C   0  0  0  0  0  0  0  0  0  0  0  0
  -24.7310  -11.7510   20.7730 C   0  0  0  0  0  0  0  0  0  0  0  0
  -26.3310  -13.0230   20.1250 N   0  0  0  0  0  0  0  0  0  0  0  0
  -25.9990  -11.7310   20.3820 N   0  0  0  0  0  0  0  0  0  0  0  0
  -24.0250  -10.4790   20.9740 C   0  0  0  0  0  0  0  0  0  0  0  0
  -24.4880   -9.5150   21.8970 C   0  0  0  0  0  3  0  0  0  0  0  0
  -23.7820   -8.3090   22.0880 C   0  0  0  0  0  3  0  0  0  0  0  0
  -22.5950   -8.0570   21.3570 C   0  0  0  0  0  0  0  0  0  0  0  0
  -22.1520   -9.0090   20.4230 C   0  0  0  0  0  3  0  0  0  0  0  0
  -22.8600  -10.2070   20.2300 C   0  0  0  0  0  3  0  0  0  0  0  0
  -21.8580   -6.9030   21.4590 O   0  0  0  0  0  0  0  0  0  0  0  0
  -21.7900   -6.1930   22.6300 C   0  0  0  0  0  0  0  0  0  0  0  0
  -21.3290   -6.7770   23.8310 C   0  0  0  0  0  3  0  0  0  0  0  0
  -21.2100   -5.9920   24.9950 C   0  0  0  0  0  3  0  0  0  0  0  0
  -21.5400   -4.6240   24.9600 C   0  0  0  0  0  0  0  0  0  0  0  0
  -21.9930   -4.0380   23.7650 C   0  0  0  0  0  3  0  0  0  0  0  0
  -22.1140   -4.8210   22.6030 C   0  0  0  0  0  0  0  0  0  0  0  0
  -22.5310   -4.2470   21.4480 F   0  0  0  0  0  0  0  0  0  0  0  0
  -21.4170   -3.8690   26.0770 F   0  0  0  0  0  0  0  0  0  0  0  0
  -22.8850  -13.5570   21.2420 C   0  0  0  0  0  0  0  0  0  0  0  0
  -22.2190  -12.8360   22.1380 N   0  0  0  0  0  0  0  0  0  0  0  0
  -22.4090  -14.5920   20.7760 O   0  0  0  0  0  0  0  0  0  0  0  0
  -22.6190  -12.0000   22.5370 H   0  0  0  0  0  0  0  0  0  0  0  0
  -21.2970  -13.1250   22.4300 H   0  0  0  0  0  0  0  0  0  0  0  0
  -25.4430  -15.2630   20.3010 N   0  0  0  0  0  0  0  0  0  0  0  0
  -24.6790  -15.9080   20.4770 H   0  0  0  0  0  0  0  0  0  0  0  0
  -26.2690  -15.7210   19.9350 H   0  0  0  0  0  0  0  0  0  0  0  0
  -28.3260  -26.5920   20.1680 O   0  0  0  0  0  0  0  0  0  0  0  0
  -24.6050  -31.9470   23.2480 C   0  0  0  0  0  0  0  0  0  0  0  0
  -27.2130  -27.4390   20.1480 C   0  0  0  0  0  0  0  0  0  0  0  0
  -23.3950  -30.5530   21.6090 C   0  0  0  0  0  3  0  0  0  0  0  0
  -24.8410  -29.0230   20.1590 C   0  0  0  0  0  0  0  0  0  0  0  0
  -25.9280  -30.8930   21.4040 C   0  0  0  0  0  2  0  0  0  0  0  0
  -26.0100  -29.5200   20.7490 C   0  0  0  0  0  0  0  0  0  0  0  0
  -27.2040  -28.7400   20.7320 C   0  0  0  0  0  3  0  0  0  0  0  0
  -26.0280  -26.9960   19.5210 C   0  0  0  0  0  3  0  0  0  0  0  0
  -24.8510  -27.7670   19.5350 C   0  0  0  0  0  3  0  0  0  0  0  0
  -23.5980  -29.8880   20.2230 C   0  0  0  0  0  2  0  0  0  0  0  0
  -24.6610  -31.1470   22.1440 N   0  0  0  0  0  0  0  0  0  0  0  0
  -23.5250  -32.2140   23.7950 O   0  0  0  0  0  0  0  0  0  0  0  0
  -22.7480  -29.5250   22.5680 C   0  0  0  0  0  0  0  0  0  0  0  0
  -21.4220  -29.3370   22.4470 N   0  0  0  0  0  0  0  0  0  0  0  0
  -23.4360  -28.9010   23.3800 O   0  0  0  0  0  0  0  0  0  0  0  0
  -20.9260  -29.8930   21.7640 H   0  0  0  0  0  0  0  0  0  0  0  0
  -18.0580  -28.1100   22.9520 C   0  0  0  0  0  0  0  0  0  0  0  0
  -20.6150  -28.3920   23.2180 C   0  0  0  0  0  3  0  0  0  0  0  0
  -20.7280  -26.9620   22.6390 C   0  0  0  0  0  2  0  0  0  0  0  0
  -19.6260  -26.6310   21.6260 C   0  0  0  0  0  2  0  0  0  0  0  0
  -18.2450  -26.7640   22.2730 C   0  0  0  0  0  2  0  0  0  0  0  0
  -19.1710  -28.8810   23.3810 C   0  0  0  0  0  0  0  0  0  0  0  0
  -18.9420  -30.1410   23.9760 C   0  0  0  0  0  3  0  0  0  0  0  0
  -17.6330  -30.6310   24.1450 C   0  0  0  0  0  3  0  0  0  0  0  0
  -16.5350  -29.8570   23.7320 C   0  0  0  0  0  3  0  0  0  0  0  0
  -16.7480  -28.5980   23.1420 C   0  0  0  0  0  3  0  0  0  0  0  0
  -25.8910  -32.5810   23.8640 C   0  0  0  0  0  3  0  0  0  0  0  0
  -25.5780  -33.9760   24.2070 N   0  0  0  0  0  0  0  0  0  0  0  0
  -25.8850  -35.0340   23.4450 C   0  0  0  0  0  0  0  0  0  0  0  0
  -26.5330  -34.9400   22.4000 O   0  0  0  0  0  0  0  0  0  0  0  0
  -24.9990  -34.1210   25.0200 H   0  0  0  0  0  0  0  0  0  0  0  0
  -24.1270  -36.8080   23.1480 C   0  0  0  0  0  1  0  0  0  0  0  0
  -25.3970  -36.4170   23.9190 C   0  0  0  0  0  3  0  0  0  0  0  0
  -27.5470  -37.3240   24.6830 C   0  0  0  0  0  1  0  0  0  0  0  0
  -26.4140  -37.4810   23.7750 N   0  0  0  0  0  0  0  0  0  0  0  0
  -26.0030  -38.3970   23.9350 H   0  0  0  0  0  0  0  0  0  0  0  0
  -26.4210  -31.8030   25.1310 C   0  0  1  0  0  0  0  0  0  0  0  0
  -25.3380  -31.5530   26.2060 C   0  0  0  0  0  1  0  0  0  0  0  0
  -27.0080  -30.4320   24.7240 C   0  0  0  0  0  1  0  0  0  0  0  0
  -27.5740  -32.5990   25.7880 C   0  0  0  0  0  1  0  0  0  0  0  0
  1  2  1  0
  3  4  1  0
  3  5  1  0
  4 51  1  0
  4  1  1  0
  5  2  1  0
  6  8  2  0
  6 10  1  0
  7  9  1  0
  8 11  1  0
 10  7  2  0
 11  5  1  0
 11  9  2  0
 12 10  1  0
 12 21  1  0
 13 21  1  0
 14 19  1  0
 15 16  1  0
 15 14  1  0
 17 16  1  0
 17 26  1  0
 17 18  1  0
 19 13  1  0
 19 18  1  0
 20 13  2  0
 21 22  1  0
 23 24  2  0
 24 43  1  0
 25 24  1  0
 25 28  1  0
 26 27  1  0
 26 23  1  0
 27 25  2  0
 28 29  1  0
 29 30  2  0
 31 34  1  0
 31 30  1  0
 32 31  2  0
 33 32  1  0
 33 28  2  0
 34 35  1  0
 35 36  1  0
 36 37  2  0
 38 37  1  0
 38 42  1  0
 39 38  2  0
 40 35  2  0
 40 39  1  0
 41 40  1  0
 43 44  1  0
 44 47  1  0
 44 46  1  0
 45 43  2  0
 48 23  1  0
 48 49  1  0
 50 48  1  0
 52 63  2  0
 53 51  1  0
 53 58  1  0
 54 62  1  0
 54 64  1  0
 55 61  1  0
 55 57  1  0
 56 62  1  0
 57 56  1  0
 58 57  2  0
 59 60  1  0
 59 53  2  0
 60 55  2  0
 61 54  1  0
 62 52  1  0
 64 66  2  0
 65 64  1  0
 67 65  1  0
 68 77  2  0
 68 73  1  0
 69 65  1  0
 69 73  1  0
 70 69  1  0
 71 72  1  0
 71 70  1  0
 72 68  1  0
 73 74  2  0
 74 75  1  0
 76 75  2  0
 77 76  1  0
 78 52  1  0
 78 79  1  0
 78 88  1  0
 79 82  1  0
 80 84  1  0
 80 79  1  0
 81 80  2  0
 84 83  1  0
 86 84  1  0
 86 87  1  0
 86 85  1  0
 88 91  1  1
 88 89  1  0
 90 88  1  0
M  ISO  4   4 101  13 100  21 100  51 101
M  END
>  <TORSDO>  (8) 
F 18

>  <SCORE>  (8) 
-13.905

>  <name>  (8) 
7

>  <ligand_id>  (8) 
7

>  <original_smiles>  (8) 
[H]c1c([H])c([H])c2c(c1[H])C([H])([H])C([H])([H])C([H])([H])C2([H])N([H])C(=O)C1([H])N(C(=O)C([H])(N([H])C(=O)C([H])(N([H])C([H])([H])[H])C([H])([H])[H])C(C([H])([H])[H])(C([H])([H])[H])C([H])([H])[H])C([H])([H])c2c([H])c(OC3([H])C([H])([H])N(c4c([H])c([H])c(C([H])([H])N([H])C(=O)N5C([H])([H])C([H])([H])C([H])([H])C([H])(n6nc(-c7c([H])c([H])c(Oc8c([H])c([H])c(F)c([H])c8F)c([H])c7[H])c(C(=O)N([H])[H])c6N([H])[H])C5([H])[H])c([H])c4[H])C([H])([H])C3([H])[H])c([H])c([H])c2C1([H])[H]

>  <smiles>  (8) 
[H]c1c([H])c([H])c2c(c1[H])C([H])([H])C([H])([H])C([H])([H])C2([H])N([H])C(=O)C1([H])N(C(=O)C([H])(N([H])C(=O)C([H])(N([H])C([H])([H])[H])C([H])([H])[H])C(C([H])([H])[H])(C([H])([H])[H])C([H])([H])[H])C([H])([H])c2c([H])c(OC3([H])C([H])([H])N(c4c([H])c([H])c(C([H])([H])N([H])C(=O)N5C([H])([H])C([H])([H])C([H])([H])C([H])(n6nc(-c7c([H])c([H])c(Oc8c([H])c([H])c(F)c([H])c8F)c([H])c7[H])c(C(=O)N([H])[H])c6N([H])[H])C5([H])[H])c([H])c4[H])C([H])([H])C3([H])[H])c([H])c([H])c2C1([H])[H]

$$$$
8:0:0
     RDKit          3D

 84 91  0  0  1  0  0  0  0  0999 V2000
  -28.9440  -22.3090   20.2530 C   0  0  0  0  0  0  0  0  0  0  0  0
  -27.3200  -20.4180   19.9170 C   0  0  0  0  0  1  0  0  0  0  0  0
  -28.7160  -20.7660   20.1670 N   0  0  0  0  0  0  0  0  0  0  0  0
  -30.1310  -22.5990   20.4280 O   0  0  0  0  0  0  0  0  0  0  0  0
  -27.8890  -23.8430   20.1640 C   0  0  0  0  0  2  0  0  0  0  0  0
  -28.1680  -25.5710   20.2760 O   0  0  0  0  0  0  0  0  0  0  0  0
  -24.6900  -31.8690   23.1880 C   0  0  0  0  0  0  0  0  0  0  0  0
  -27.2060  -26.7840   20.2240 C   0  0  0  0  0  0  0  0  0  0  0  0
  -23.5010  -30.4720   21.5500 C   0  0  0  0  0  3  0  0  0  0  0  0
  -24.9450  -28.8130   20.1530 C   0  0  0  0  0  0  0  0  0  0  0  0
  -26.0790  -30.6100   21.4310 C   0  0  0  0  0  2  0  0  0  0  0  0
  -26.1410  -29.1740   20.7840 C   0  0  0  0  0  0  0  0  0  0  0  0
  -27.2570  -28.1870   20.7860 C   0  0  0  0  0  3  0  0  0  0  0  0
  -25.9760  -26.6310   19.5360 C   0  0  0  0  0  3  0  0  0  0  0  0
  -24.8970  -27.5660   19.5080 C   0  0  0  0  0  3  0  0  0  0  0  0
  -23.7400  -29.7670   20.1850 C   0  0  0  0  0  2  0  0  0  0  0  0
  -24.7820  -31.0160   22.1100 N   0  0  0  0  0  0  0  0  0  0  0  0
  -23.5960  -32.1730   23.6950 O   0  0  0  0  0  0  0  0  0  0  0  0
  -22.7800  -29.5010   22.5230 C   0  0  0  0  0  0  0  0  0  0  0  0
  -21.4460  -29.3600   22.4000 N   0  0  0  0  0  0  0  0  0  0  0  0
  -23.4330  -28.8700   23.3600 O   0  0  0  0  0  0  0  0  0  0  0  0
  -20.9700  -29.9210   21.7070 H   0  0  0  0  0  0  0  0  0  0  0  0
  -18.0460  -28.1920   22.9260 C   0  0  0  0  0  0  0  0  0  0  0  0
  -20.6110  -28.4300   23.1720 C   0  0  0  0  0  3  0  0  0  0  0  0
  -20.6910  -26.9990   22.5940 C   0  0  0  0  0  2  0  0  0  0  0  0
  -19.5830  -26.6930   21.5840 C   0  0  0  0  0  2  0  0  0  0  0  0
  -18.2060  -26.8470   22.2380 C   0  0  0  0  0  2  0  0  0  0  0  0
  -19.1750  -28.9430   23.3510 C   0  0  0  0  0  0  0  0  0  0  0  0
  -18.9710  -30.1990   23.9610 C   0  0  0  0  0  3  0  0  0  0  0  0
  -17.6710  -30.7060   24.1470 C   0  0  0  0  0  3  0  0  0  0  0  0
  -16.5570  -29.9530   23.7350 C   0  0  0  0  0  3  0  0  0  0  0  0
  -16.7460  -28.6990   23.1300 C   0  0  0  0  0  3  0  0  0  0  0  0
  -25.9550  -32.5150   23.8320 C   0  0  0  0  0  3  0  0  0  0  0  0
  -26.4500  -31.7490   25.1200 C   0  0  1  0  0  0  0  0  0  0  0  0
  -25.3420  -31.5240   26.1760 C   0  0  0  0  0  1  0  0  0  0  0  0
  -27.0280  -30.3660   24.7520 C   0  0  0  0  0  1  0  0  0  0  0  0
  -27.5980  -32.5370   25.7930 C   0  0  0  0  0  1  0  0  0  0  0  0
  -25.6310  -33.9140   24.1730 N   0  0  0  0  0  0  0  0  0  0  0  0
  -25.9450  -34.9830   23.4280 C   0  0  0  0  0  0  0  0  0  0  0  0
  -26.5940  -34.8950   22.3840 O   0  0  0  0  0  0  0  0  0  0  0  0
  -25.0500  -34.0550   24.9860 H   0  0  0  0  0  0  0  0  0  0  0  0
  -24.1930  -36.7770   23.1610 C   0  0  0  0  0  1  0  0  0  0  0  0
  -25.4680  -36.3690   23.9170 C   0  0  0  0  0  3  0  0  0  0  0  0
  -27.6270  -37.2740   24.6700 C   0  0  0  0  0  1  0  0  0  0  0  0
  -26.4880  -37.4320   23.7680 N   0  0  0  0  0  0  0  0  0  0  0  0
  -26.0810  -38.3490   23.9320 H   0  0  0  0  0  0  0  0  0  0  0  0
  -29.6430  -19.2490   20.2180 C   0  0  0  0  0  3  0  0  0  0  0  0
  -29.3580  -17.3300   20.2580 C   0  0  0  0  0  3  0  0  0  0  0  0
  -30.2650  -15.6910   20.1490 C   0  0  0  0  0  0  0  0  0  0  0  0
  -30.4200  -13.1410   19.3540 C   0  0  0  0  0  2  0  0  0  0  0  0
  -29.5240  -12.7780   18.1330 C   0  0  0  0  0  2  0  0  0  0  0  0
  -28.1110  -12.3950   18.5960 C   0  0  0  0  0  2  0  0  0  0  0  0
  -27.5940  -13.3850   19.6640 C   0  0  0  0  0  3  0  0  0  0  0  0
  -28.6220  -13.6930   20.7740 C   0  0  0  0  0  2  0  0  0  0  0  0
  -29.8060  -14.3050   20.1340 N   0  0  0  0  0  0  0  0  0  0  0  0
  -31.4940  -15.6640   19.9380 O   0  0  0  0  0  0  0  0  0  0  0  0
  -25.2410  -13.8920   20.4650 C   0  0  0  0  0  0  0  0  0  0  0  0
  -24.1890  -13.1010   20.8290 C   0  0  0  0  0  0  0  0  0  0  0  0
  -24.6670  -11.7540   20.7760 C   0  0  0  0  0  0  0  0  0  0  0  0
  -26.2850  -13.0310   20.1940 N   0  0  0  0  0  0  0  0  0  0  0  0
  -25.9570  -11.7370   20.4470 N   0  0  0  0  0  0  0  0  0  0  0  0
  -23.9500  -10.4840   20.9570 C   0  0  0  0  0  0  0  0  0  0  0  0
  -24.3860   -9.5130   21.8840 C   0  0  0  0  0  3  0  0  0  0  0  0
  -23.6620   -8.3120   22.0560 C   0  0  0  0  0  3  0  0  0  0  0  0
  -22.4920   -8.0740   21.2970 C   0  0  0  0  0  0  0  0  0  0  0  0
  -22.0750   -9.0340   20.3590 C   0  0  0  0  0  3  0  0  0  0  0  0
  -22.7980  -10.2270   20.1870 C   0  0  0  0  0  3  0  0  0  0  0  0
  -21.7420   -6.9240   21.3750 O   0  0  0  0  0  0  0  0  0  0  0  0
  -21.6860   -6.1780   22.5240 C   0  0  0  0  0  0  0  0  0  0  0  0
  -21.2330   -6.7230   23.7450 C   0  0  0  0  0  3  0  0  0  0  0  0
  -21.1250   -5.9040   24.8850 C   0  0  0  0  0  3  0  0  0  0  0  0
  -21.4580   -4.5380   24.8070 C   0  0  0  0  0  0  0  0  0  0  0  0
  -21.9020   -3.9910   23.5890 C   0  0  0  0  0  3  0  0  0  0  0  0
  -22.0140   -4.8090   22.4520 C   0  0  0  0  0  0  0  0  0  0  0  0
  -22.4240   -4.2720   21.2780 F   0  0  0  0  0  0  0  0  0  0  0  0
  -21.3470   -3.7490   25.9000 F   0  0  0  0  0  0  0  0  0  0  0  0
  -22.7900  -13.5640   21.1080 C   0  0  0  0  0  0  0  0  0  0  0  0
  -22.0740  -12.8610   21.9770 N   0  0  0  0  0  0  0  0  0  0  0  0
  -22.3440  -14.5900   20.5940 O   0  0  0  0  0  0  0  0  0  0  0  0
  -22.4520  -12.0320   22.4130 H   0  0  0  0  0  0  0  0  0  0  0  0
  -21.1370  -13.1540   22.2080 H   0  0  0  0  0  0  0  0  0  0  0  0
  -25.3910  -15.2660   20.3100 N   0  0  0  0  0  0  0  0  0  0  0  0
  -24.6220  -15.9130   20.4460 H   0  0  0  0  0  0  0  0  0  0  0  0
  -26.2370  -15.7150   19.9880 H   0  0  0  0  0  0  0  0  0  0  0  0
  1  4  2  0
  2  3  1  0
  3 47  1  0
  3  1  1  0
  5  1  1  0
  5  6  1  0
  7 18  2  0
  8  6  1  0
  8 13  1  0
  9 17  1  0
  9 19  1  0
 10 16  1  0
 10 12  1  0
 11 17  1  0
 12 13  2  0
 12 11  1  0
 14  8  2  0
 15 14  1  0
 15 10  2  0
 16  9  1  0
 17  7  1  0
 19 21  2  0
 20 19  1  0
 22 20  1  0
 23 32  2  0
 23 28  1  0
 24 20  1  0
 24 28  1  0
 25 24  1  0
 26 27  1  0
 26 25  1  0
 27 23  1  0
 28 29  2  0
 29 30  1  0
 31 30  2  0
 32 31  1  0
 33  7  1  0
 33 38  1  0
 33 34  1  0
 34 37  1  1
 34 35  1  0
 36 34  1  0
 38 41  1  0
 39 43  1  0
 39 38  1  0
 40 39  2  0
 43 42  1  0
 45 43  1  0
 45 46  1  0
 45 44  1  0
 47 48  2  0
 49 48  1  0
 50 55  1  0
 51 52  1  0
 51 50  1  0
 53 52  1  0
 53 60  1  0
 53 54  1  0
 55 49  1  0
 55 54  1  0
 56 49  2  0
 57 58  2  0
 58 77  1  0
 59 58  1  0
 59 62  1  0
 60 61  1  0
 60 57  1  0
 61 59  2  0
 62 63  1  0
 63 64  2  0
 65 68  1  0
 65 64  1  0
 66 65  2  0
 67 66  1  0
 67 62  2  0
 68 69  1  0
 69 70  1  0
 70 71  2  0
 72 71  1  0
 72 76  1  0
 73 72  2  0
 74 69  2  0
 74 73  1  0
 75 74  1  0
 77 78  1  0
 78 81  1  0
 78 80  1  0
 79 77  2  0
 82 83  1  0
 82 57  1  0
 84 82  1  0
M  ISO  4   5 101   6 101  48 100  49 100
M  END
>  <TORSDO>  (9) 
F 19

>  <SCORE>  (9) 
-15.996

>  <name>  (9) 
8

>  <ligand_id>  (9) 
8

>  <original_smiles>  (9) 
[H]c1c([H])c([H])c2c(c1[H])C([H])([H])C([H])([H])C([H])([H])C2([H])N([H])C(=O)C1([H])N(C(=O)C([H])(N([H])C(=O)C([H])(N([H])C([H])([H])[H])C([H])([H])[H])C(C([H])([H])[H])(C([H])([H])[H])C([H])([H])[H])C([H])([H])c2c([H])c(OC([H])([H])C(=O)N(C([H])([H])[H])C([H])([H])C([H])([H])C(=O)N3C([H])([H])C([H])([H])C([H])([H])C([H])(n4nc(-c5c([H])c([H])c(Oc6c([H])c([H])c(F)c([H])c6F)c([H])c5[H])c(C(=O)N([H])[H])c4N([H])[H])C3([H])[H])c([H])c([H])c2C1([H])[H]

>  <smiles>  (9) 
[H]c1c([H])c([H])c2c(c1[H])C([H])([H])C([H])([H])C([H])([H])C2([H])N([H])C(=O)C1([H])N(C(=O)C([H])(N([H])C(=O)C([H])(N([H])C([H])([H])[H])C([H])([H])[H])C(C([H])([H])[H])(C([H])([H])[H])C([H])([H])[H])C([H])([H])c2c([H])c(OC([H])([H])C(=O)N(C([H])([H])[H])C([H])([H])C([H])([H])C(=O)N3C([H])([H])C([H])([H])C([H])([H])C([H])(n4nc(-c5c([H])c([H])c(Oc6c([H])c([H])c(F)c([H])c6F)c([H])c5[H])c(C(=O)N([H])[H])c4N([H])[H])C3([H])[H])c([H])c([H])c2C1([H])[H]

$$$$
9:0:0
     RDKit          3D

 90 98  0  0  1  0  0  0  0  0999 V2000
  -31.0930  -17.9190   20.5650 C   0  0  0  0  0  3  0  0  0  0  0  0
  -31.0950  -19.3450   20.5020 C   0  0  0  0  0  3  0  0  0  0  0  0
  -28.7000  -19.3790   20.3330 C   0  0  0  0  0  3  0  0  0  0  0  0
  -29.8810  -17.1820   20.5250 C   0  0  0  0  0  0  0  0  0  0  0  0
  -29.9090  -20.1220   20.3880 C   0  0  0  0  0  0  0  0  0  0  0  0
  -28.6910  -17.9520   20.4070 C   0  0  0  0  0  0  0  0  0  0  0  0
  -27.5060  -17.2970   20.3610 F   0  0  0  0  0  0  0  0  0  0  0  0
  -30.5680  -14.6790   20.3110 C   0  0  0  0  0  0  0  0  0  0  0  0
  -30.3460  -12.4480   19.2340 C   0  0  0  0  0  2  0  0  0  0  0  0
  -29.3930  -12.5890   18.0260 C   0  0  0  0  0  2  0  0  0  0  0  0
  -27.9220  -12.4340   18.4630 C   0  0  0  0  0  2  0  0  0  0  0  0
  -27.5740  -13.2900   19.7100 C   0  0  0  0  0  3  0  0  0  0  0  0
  -28.6390  -13.1200   20.8180 C   0  0  0  0  0  2  0  0  0  0  0  0
  -29.9480  -13.4590   20.2340 N   0  0  0  0  0  0  0  0  0  0  0  0
  -31.7320  -14.8330   19.9340 O   0  0  0  0  0  0  0  0  0  0  0  0
  -29.7540  -15.7290   20.6430 N   0  0  0  0  0  0  0  0  0  0  0  0
  -28.8180  -15.4350   20.8750 H   0  0  0  0  0  0  0  0  0  0  0  0
  -25.1820  -13.8950   20.4320 C   0  0  0  0  0  0  0  0  0  0  0  0
  -24.1150  -13.1250   20.8040 C   0  0  0  0  0  0  0  0  0  0  0  0
  -24.5760  -11.7720   20.7780 C   0  0  0  0  0  0  0  0  0  0  0  0
  -26.2260  -13.0130   20.2010 N   0  0  0  0  0  0  0  0  0  0  0  0
  -25.8660  -11.7310   20.4680 N   0  0  0  0  0  0  0  0  0  0  0  0
  -23.8480  -10.5130   20.9740 C   0  0  0  0  0  0  0  0  0  0  0  0
  -24.2760   -9.5510   21.9150 C   0  0  0  0  0  3  0  0  0  0  0  0
  -23.5480   -8.3540   22.0980 C   0  0  0  0  0  3  0  0  0  0  0  0
  -22.3770   -8.1130   21.3420 C   0  0  0  0  0  0  0  0  0  0  0  0
  -21.9680   -9.0640   20.3910 C   0  0  0  0  0  3  0  0  0  0  0  0
  -22.6970  -10.2510   20.2050 C   0  0  0  0  0  3  0  0  0  0  0  0
  -21.6220   -6.9700   21.4330 O   0  0  0  0  0  0  0  0  0  0  0  0
  -21.5600   -6.2390   22.5930 C   0  0  0  0  0  0  0  0  0  0  0  0
  -21.1070   -6.8040   23.8060 C   0  0  0  0  0  3  0  0  0  0  0  0
  -20.9940   -6.0000   24.9580 C   0  0  0  0  0  3  0  0  0  0  0  0
  -21.3220   -4.6320   24.8980 C   0  0  0  0  0  0  0  0  0  0  0  0
  -21.7670   -4.0660   23.6900 C   0  0  0  0  0  3  0  0  0  0  0  0
  -21.8820   -4.8680   22.5400 C   0  0  0  0  0  0  0  0  0  0  0  0
  -22.2920   -4.3140   21.3730 F   0  0  0  0  0  0  0  0  0  0  0  0
  -21.2050   -3.8570   26.0010 F   0  0  0  0  0  0  0  0  0  0  0  0
  -22.7190  -13.6050   21.0780 C   0  0  0  0  0  0  0  0  0  0  0  0
  -21.9920  -12.9140   21.9490 N   0  0  0  0  0  0  0  0  0  0  0  0
  -22.2810  -14.6300   20.5560 O   0  0  0  0  0  0  0  0  0  0  0  0
  -22.3580  -12.0850   22.3930 H   0  0  0  0  0  0  0  0  0  0  0  0
  -21.0560  -13.2180   22.1750 H   0  0  0  0  0  0  0  0  0  0  0  0
  -25.3430  -15.2660   20.2560 N   0  0  0  0  0  0  0  0  0  0  0  0
  -24.5770  -15.9130   20.3970 H   0  0  0  0  0  0  0  0  0  0  0  0
  -26.2090  -15.7380   20.0180 H   0  0  0  0  0  0  0  0  0  0  0  0
  -30.0250  -21.5300   20.3580 O   0  0  0  0  0  0  0  0  0  0  0  0
  -28.8960  -22.4420   20.1650 C   0  0  0  0  0  2  0  0  0  0  0  0
  -29.2560  -23.9960   20.2800 C   0  0  0  0  0  3  0  0  0  0  0  0
  -28.1150  -25.0540   19.9510 C   0  0  0  0  0  3  0  0  0  0  0  0
  -28.3390  -26.5060   20.1590 O   0  0  0  0  0  0  0  0  0  0  0  0
  -24.6140  -31.8650   23.2520 C   0  0  0  0  0  0  0  0  0  0  0  0
  -27.2190  -27.3560   20.1210 C   0  0  0  0  0  0  0  0  0  0  0  0
  -23.4060  -30.4950   21.5920 C   0  0  0  0  0  3  0  0  0  0  0  0
  -24.8530  -28.9680   20.1410 C   0  0  0  0  0  0  0  0  0  0  0  0
  -25.9460  -30.8150   21.4110 C   0  0  0  0  0  2  0  0  0  0  0  0
  -26.0230  -29.4470   20.7430 C   0  0  0  0  0  0  0  0  0  0  0  0
  -27.2090  -28.6530   20.7210 C   0  0  0  0  0  3  0  0  0  0  0  0
  -26.0200  -26.9330   19.4980 C   0  0  0  0  0  3  0  0  0  0  0  0
  -24.8540  -27.7170   19.5100 C   0  0  0  0  0  3  0  0  0  0  0  0
  -23.6170  -29.8420   20.2020 C   0  0  0  0  0  2  0  0  0  0  0  0
  -24.6750  -31.0740   22.1420 N   0  0  0  0  0  0  0  0  0  0  0  0
  -23.5310  -32.1370   23.7920 O   0  0  0  0  0  0  0  0  0  0  0  0
  -22.7430  -29.4640   22.5360 C   0  0  0  0  0  0  0  0  0  0  0  0
  -21.4170  -29.2900   22.4050 N   0  0  0  0  0  0  0  0  0  0  0  0
  -23.4200  -28.8240   23.3450 O   0  0  0  0  0  0  0  0  0  0  0  0
  -20.9300  -29.8560   21.7250 H   0  0  0  0  0  0  0  0  0  0  0  0
  -18.0360  -28.0990   22.8910 C   0  0  0  0  0  0  0  0  0  0  0  0
  -20.5950  -28.3430   23.1610 C   0  0  0  0  0  3  0  0  0  0  0  0
  -20.6890  -26.9200   22.5620 C   0  0  0  0  0  2  0  0  0  0  0  0
  -19.5850  -26.6200   21.5440 C   0  0  0  0  0  2  0  0  0  0  0  0
  -18.2040  -26.7600   22.1930 C   0  0  0  0  0  2  0  0  0  0  0  0
  -19.1580  -28.8490   23.3310 C   0  0  0  0  0  0  0  0  0  0  0  0
  -18.9450  -30.1030   23.9450 C   0  0  0  0  0  3  0  0  0  0  0  0
  -17.6430  -30.6080   24.1200 C   0  0  0  0  0  3  0  0  0  0  0  0
  -16.5350  -29.8550   23.6960 C   0  0  0  0  0  3  0  0  0  0  0  0
  -16.7310  -28.6020   23.0870 C   0  0  0  0  0  3  0  0  0  0  0  0
  -25.8970  -32.4860   23.8840 C   0  0  0  0  0  3  0  0  0  0  0  0
  -26.4020  -31.7040   25.1580 C   0  0  1  0  0  0  0  0  0  0  0  0
  -25.3030  -31.4670   26.2190 C   0  0  0  0  0  1  0  0  0  0  0  0
  -26.9780  -30.3240   24.7620 C   0  0  0  0  0  1  0  0  0  0  0  0
  -27.5540  -32.4870   25.8300 C   0  0  0  0  0  1  0  0  0  0  0  0
  -25.5960  -33.8840   24.2200 N   0  0  0  0  0  0  0  0  0  0  0  0
  -25.9130  -34.9370   23.4560 C   0  0  0  0  0  0  0  0  0  0  0  0
  -26.5620  -34.8340   22.4100 O   0  0  0  0  0  0  0  0  0  0  0  0
  -25.0160  -34.0380   25.0330 H   0  0  0  0  0  0  0  0  0  0  0  0
  -24.1680  -36.7240   23.1540 C   0  0  0  0  0  1  0  0  0  0  0  0
  -25.4370  -36.3260   23.9240 C   0  0  0  0  0  3  0  0  0  0  0  0
  -27.5930  -37.2240   24.6820 C   0  0  0  0  0  1  0  0  0  0  0  0
  -26.4620  -37.3820   23.7720 N   0  0  0  0  0  0  0  0  0  0  0  0
  -26.0580  -38.3010   23.9250 H   0  0  0  0  0  0  0  0  0  0  0  0
  2  1  2  0
  3  5  2  0
  3  6  1  0
  4  1  1  0
  4 16  1  0
  5  2  1  0
  6  4  2  0
  7  6  1  0
  8 16  1  0
  9 14  1  0
 10 11  1  0
 10  9  1  0
 12 11  1  0
 12 21  1  0
 12 13  1  0
 14  8  1  0
 14 13  1  0
 15  8  2  0
 16 17  1  0
 18 19  2  0
 19 38  1  0
 20 19  1  0
 20 23  1  0
 21 18  1  0
 21 22  1  0
 22 20  2  0
 23 24  1  0
 24 25  2  0
 26 29  1  0
 26 25  1  0
 27 26  2  0
 28 27  1  0
 28 23  2  0
 29 30  1  0
 30 31  1  0
 31 32  2  0
 33 32  1  0
 33 37  1  0
 34 33  2  0
 35 30  2  0
 35 34  1  0
 36 35  1  0
 38 39  1  0
 39 42  1  0
 39 41  1  0
 40 38  2  0
 43 44  1  0
 43 18  1  0
 45 43  1  0
 46  5  1  0
 47 48  1  0
 47 46  1  0
 49 50  1  0
 49 48  2  0
 51 62  2  0
 52 50  1  0
 52 57  1  0
 53 61  1  0
 53 63  1  0
 54 60  1  0
 54 56  1  0
 55 61  1  0
 56 55  1  0
 57 56  2  0
 58 59  1  0
 58 52  2  0
 59 54  2  0
 60 53  1  0
 61 51  1  0
 63 65  2  0
 64 63  1  0
 66 64  1  0
 67 76  2  0
 67 72  1  0
 68 64  1  0
 68 72  1  0
 69 68  1  0
 70 71  1  0
 70 69  1  0
 71 67  1  0
 72 73  2  0
 73 74  1  0
 75 74  2  0
 76 75  1  0
 77 51  1  0
 77 82  1  0
 77 78  1  0
 78 81  1  1
 78 79  1  0
 80 78  1  0
 82 85  1  0
 83 87  1  0
 83 82  1  0
 84 83  2  0
 87 86  1  0
 89 87  1  0
 89 90  1  0
 89 88  1  0
M  ISO  4   8 100  16 100  49 101  50 101
M  END
>  <TORSDO>  (10) 
F 20

>  <SCORE>  (10) 
-14.070

>  <name>  (10) 
9

>  <ligand_id>  (10) 
9

>  <original_smiles>  (10) 
[H]c1c([H])c([H])c2c(c1[H])C([H])([H])C([H])([H])C([H])([H])C2([H])N([H])C(=O)C1([H])N(C(=O)C([H])(N([H])C(=O)C([H])(N([H])C([H])([H])[H])C([H])([H])[H])C(C([H])([H])[H])(C([H])([H])[H])C([H])([H])[H])C([H])([H])c2c([H])c(OC([H])([H])C([H])([H])C([H])([H])Oc3c([H])c([H])c(N([H])C(=O)N4C([H])([H])C([H])([H])C([H])([H])C([H])(n5nc(-c6c([H])c([H])c(Oc7c([H])c([H])c(F)c([H])c7F)c([H])c6[H])c(C(=O)N([H])[H])c5N([H])[H])C4([H])[H])c(F)c3[H])c([H])c([H])c2C1([H])[H]

>  <smiles>  (10) 
[H]c1c([H])c([H])c2c(c1[H])C([H])([H])C([H])([H])C([H])([H])C2([H])N([H])C(=O)C1([H])N(C(=O)C([H])(N([H])C(=O)C([H])(N([H])C([H])([H])[H])C([H])([H])[H])C(C([H])([H])[H])(C([H])([H])[H])C([H])([H])[H])C([H])([H])c2c([H])c(OC([H])([H])C([H])([H])C([H])([H])Oc3c([H])c([H])c(N([H])C(=O)N4C([H])([H])C([H])([H])C([H])([H])C([H])(n5nc(-c6c([H])c([H])c(Oc7c([H])c([H])c(F)c([H])c7F)c([H])c6[H])c(C(=O)N([H])[H])c5N([H])[H])C4([H])[H])c(F)c3[H])c([H])c([H])c2C1([H])[H]

$$$$
10:0:0
     RDKit          3D

 82 86  0  0  1  0  0  0  0  0999 V2000
  -28.2050  -25.2050   20.1810 O   0  0  0  0  0  1  0  0  0  0  0  0
  -24.6630  -31.8080   23.1260 C   0  0  0  0  0  0  0  0  0  0  0  0
  -27.2220  -26.5040   20.2220 C   0  0  0  0  0  0  0  0  0  0  0  0
  -23.4970  -30.3850   21.5020 C   0  0  0  0  0  3  0  0  0  0  0  0
  -24.9590  -28.6800   20.1340 C   0  0  0  0  0  0  0  0  0  0  0  0
  -26.0880  -30.4680   21.4190 C   0  0  0  0  0  2  0  0  0  0  0  0
  -26.1600  -29.0030   20.7770 C   0  0  0  0  0  0  0  0  0  0  0  0
  -27.2650  -27.9550   20.7750 C   0  0  0  0  0  3  0  0  0  0  0  0
  -25.9780  -26.4560   19.5220 C   0  0  0  0  0  3  0  0  0  0  0  0
  -24.9220  -27.4330   19.4830 C   0  0  0  0  0  3  0  0  0  0  0  0
  -23.7610  -29.6570   20.1490 C   0  0  0  0  0  2  0  0  0  0  0  0
  -24.7760  -30.9260   22.0670 N   0  0  0  0  0  0  0  0  0  0  0  0
  -23.5610  -32.1170   23.6170 O   0  0  0  0  0  0  0  0  0  0  0  0
  -22.7590  -29.4350   22.4830 C   0  0  0  0  0  0  0  0  0  0  0  0
  -21.4230  -29.2990   22.3640 N   0  0  0  0  0  0  0  0  0  0  0  0
  -23.4070  -28.8130   23.3290 O   0  0  0  0  0  0  0  0  0  0  0  0
  -20.9470  -29.8480   21.6620 H   0  0  0  0  0  0  0  0  0  0  0  0
  -18.0300  -28.1040   22.9050 C   0  0  0  0  0  0  0  0  0  0  0  0
  -20.5940  -28.3680   23.1430 C   0  0  0  0  0  3  0  0  0  0  0  0
  -20.6850  -26.9330   22.5730 C   0  0  0  0  0  2  0  0  0  0  0  0
  -19.5770  -26.6140   21.5660 C   0  0  0  0  0  2  0  0  0  0  0  0
  -18.1990  -26.7580   22.2190 C   0  0  0  0  0  2  0  0  0  0  0  0
  -19.1530  -28.8670   23.3230 C   0  0  0  0  0  0  0  0  0  0  0  0
  -18.9380  -30.1230   23.9300 C   0  0  0  0  0  3  0  0  0  0  0  0
  -17.6340  -30.6180   24.1200 C   0  0  0  0  0  3  0  0  0  0  0  0
  -16.5260  -29.8540   23.7130 C   0  0  0  0  0  3  0  0  0  0  0  0
  -16.7250  -28.5990   23.1120 C   0  0  0  0  0  3  0  0  0  0  0  0
  -25.9100  -32.4810   23.7750 C   0  0  0  0  0  3  0  0  0  0  0  0
  -25.5650  -33.8790   24.1160 N   0  0  0  0  0  0  0  0  0  0  0  0
  -25.8860  -34.9580   23.3920 C   0  0  0  0  0  0  0  0  0  0  0  0
  -26.5550  -34.8840   22.3590 O   0  0  0  0  0  0  0  0  0  0  0  0
  -24.9630  -34.0060   24.9160 H   0  0  0  0  0  0  0  0  0  0  0  0
  -24.1370  -36.7510   23.1000 C   0  0  0  0  0  1  0  0  0  0  0  0
  -25.3920  -36.3360   23.8840 C   0  0  0  0  0  3  0  0  0  0  0  0
  -27.5270  -37.2420   24.7020 C   0  0  0  0  0  1  0  0  0  0  0  0
  -26.4110  -37.4050   23.7740 N   0  0  0  0  0  0  0  0  0  0  0  0
  -25.9940  -38.3170   23.9380 H   0  0  0  0  0  0  0  0  0  0  0  0
  -26.4070  -31.7320   25.0750 C   0  0  1  0  0  0  0  0  0  0  0  0
  -25.2940  -31.5040   26.1250 C   0  0  0  0  0  1  0  0  0  0  0  0
  -27.0060  -30.3500   24.7310 C   0  0  0  0  0  1  0  0  0  0  0  0
  -27.5440  -32.5410   25.7410 C   0  0  0  0  0  1  0  0  0  0  0  0
  -28.2600  -23.3270   20.4490 C   0  0  0  0  0 15  0  0  0  0  0  0
  -28.8130  -21.3740   19.8690 C   0  0  0  0  0 15  0  0  0  0  0  0
  -29.3900  -19.4240   20.4190 C   0  0  0  0  0  1  0  0  0  0  0  0
  -30.1320  -16.0760   20.0710 C   0  0  0  0  0  0  0  0  0  0  0  0
  -30.3210  -13.4470   19.2590 C   0  0  0  0  0  2  0  0  0  0  0  0
  -29.4440  -12.8330   18.1190 C   0  0  0  0  0  2  0  0  0  0  0  0
  -28.0700  -12.3920   18.6390 C   0  0  0  0  0  2  0  0  0  0  0  0
  -27.5180  -13.4260   19.6370 C   0  0  0  0  0  3  0  0  0  0  0  0
  -28.5530  -13.9140   20.6890 C   0  0  0  0  0  2  0  0  0  0  0  0
  -29.6300  -14.6560   19.9560 N   0  0  0  0  0  0  0  0  0  0  0  0
  -31.3780  -15.9210   20.0610 O   0  0  0  0  0  0  0  0  0  0  0  0
  -28.1020  -17.4350   19.3330 C   0  0  0  0  0  1  0  0  0  0  0  0
  -29.3880  -17.5580   20.0160 N   0  0  0  0  0  0  0  0  0  0  0  0
  -25.1830  -13.9270   20.4730 C   0  0  0  0  0  0  0  0  0  0  0  0
  -24.1320  -13.1430   20.8550 C   0  0  0  0  0  0  0  0  0  0  0  0
  -24.6060  -11.7950   20.8040 C   0  0  0  0  0  0  0  0  0  0  0  0
  -26.2260  -13.0640   20.2030 N   0  0  0  0  0  0  0  0  0  0  0  0
  -25.8940  -11.7710   20.4640 N   0  0  0  0  0  0  0  0  0  0  0  0
  -23.8800  -10.5310   21.0000 C   0  0  0  0  0  0  0  0  0  0  0  0
  -24.3230   -9.5560   21.9210 C   0  0  0  0  0  3  0  0  0  0  0  0
  -23.5910   -8.3620   22.1070 C   0  0  0  0  0  3  0  0  0  0  0  0
  -22.4020   -8.1360   21.3740 C   0  0  0  0  0  0  0  0  0  0  0  0
  -21.9770   -9.1010   20.4430 C   0  0  0  0  0  3  0  0  0  0  0  0
  -22.7110  -10.2850   20.2540 C   0  0  0  0  0  3  0  0  0  0  0  0
  -21.6420   -6.9940   21.4690 O   0  0  0  0  0  0  0  0  0  0  0  0
  -21.6130   -6.2440   22.6170 C   0  0  0  0  0  0  0  0  0  0  0  0
  -21.2160   -6.7910   23.8560 C   0  0  0  0  0  3  0  0  0  0  0  0
  -21.1320   -5.9670   24.9970 C   0  0  0  0  0  3  0  0  0  0  0  0
  -21.4380   -4.5960   24.8990 C   0  0  0  0  0  0  0  0  0  0  0  0
  -21.8300   -4.0480   23.6650 C   0  0  0  0  0  3  0  0  0  0  0  0
  -21.9140   -4.8690   22.5270 C   0  0  0  0  0  0  0  0  0  0  0  0
  -22.2710   -4.3300   21.3360 F   0  0  0  0  0  0  0  0  0  0  0  0
  -21.3530   -3.8020   25.9920 F   0  0  0  0  0  0  0  0  0  0  0  0
  -22.7400  -13.6190   21.1450 C   0  0  0  0  0  0  0  0  0  0  0  0
  -22.0220  -12.9210   22.0180 N   0  0  0  0  0  0  0  0  0  0  0  0
  -22.3000  -14.6470   20.6350 O   0  0  0  0  0  0  0  0  0  0  0  0
  -22.3880  -12.0890   22.4530 H   0  0  0  0  0  0  0  0  0  0  0  0
  -21.0890  -13.2290   22.2540 H   0  0  0  0  0  0  0  0  0  0  0  0
  -25.3360  -15.2990   20.2950 N   0  0  0  0  0  0  0  0  0  0  0  0
  -24.5650  -15.9500   20.3980 H   0  0  0  0  0  0  0  0  0  0  0  0
  -26.1710  -15.7290   19.9240 H   0  0  0  0  0  0  0  0  0  0  0  0
  1  3  1  0
  2 13  2  0
  3  8  1  0
  4 12  1  0
  4 14  1  0
  5 11  1  0
  5  7  1  0
  6 12  1  0
  7  6  1  0
  8  7  2  0
  9  3  2  0
 10  9  1  0
 10  5  2  0
 11  4  1  0
 12  2  1  0
 14 16  2  0
 15 14  1  0
 17 15  1  0
 18 27  2  0
 18 23  1  0
 19 15  1  0
 19 23  1  0
 20 19  1  0
 21 22  1  0
 21 20  1  0
 22 18  1  0
 23 24  2  0
 24 25  1  0
 26 25  2  0
 27 26  1  0
 28  2  1  0
 28 29  1  0
 28 38  1  0
 29 32  1  0
 30 34  1  0
 30 29  1  0
 31 30  2  0
 34 33  1  0
 36 34  1  0
 36 37  1  0
 36 35  1  0
 38 41  1  1
 38 39  1  0
 40 38  1  0
 46 51  1  0
 47 48  1  0
 47 46  1  0
 49 48  1  0
 49 58  1  0
 49 50  1  0
 51 45  1  0
 51 50  1  0
 52 45  2  0
 53 54  1  0
 54 45  1  0
 54 44  1  0
 55 56  2  0
 56 75  1  0
 57 56  1  0
 57 60  1  0
 58 59  1  0
 58 55  1  0
 59 57  2  0
 60 61  1  0
 61 62  2  0
 63 66  1  0
 63 62  1  0
 64 63  2  0
 65 64  1  0
 65 60  2  0
 66 67  1  0
 67 68  1  0
 68 69  2  0
 70 69  1  0
 70 74  1  0
 71 70  2  0
 72 67  2  0
 72 71  1  0
 73 72  1  0
 75 76  1  0
 76 79  1  0
 76 78  1  0
 77 75  2  0
 80 81  1  0
 80 55  1  0
 82 80  1  0
M  ISO  4   1 101  42 101  45 100  54 100
M  END
>  <TORSDO>  (11) 
F 18

>  <SCORE>  (11) 
-16.265

>  <name>  (11) 
10

>  <ligand_id>  (11) 
10

>  <original_smiles>  (11) 
[H]c1c([H])c([H])c2c(c1[H])C([H])([H])C([H])([H])C([H])([H])C2([H])N([H])C(=O)C1([H])N(C(=O)C([H])(N([H])C(=O)C([H])(N([H])C([H])([H])[H])C([H])([H])[H])C(C([H])([H])[H])(C([H])([H])[H])C([H])([H])[H])C([H])([H])c2c([H])c(OC([H])([H])C([H])([H])C([H])([H])N(C(=O)N3C([H])([H])C([H])([H])C([H])([H])C([H])(n4nc(-c5c([H])c([H])c(Oc6c([H])c([H])c(F)c([H])c6F)c([H])c5[H])c(C(=O)N([H])[H])c4N([H])[H])C3([H])[H])C([H])([H])[H])c([H])c([H])c2C1([H])[H]

>  <smiles>  (11) 
[H]c1c([H])c([H])c2c(c1[H])C([H])([H])C([H])([H])C([H])([H])C2([H])N([H])C(=O)C1([H])N(C(=O)C([H])(N([H])C(=O)C([H])(N([H])C([H])([H])[H])C([H])([H])[H])C(C([H])([H])[H])(C([H])([H])[H])C([H])([H])[H])C([H])([H])c2c([H])c(OC([H])([H])C([H])([H])C([H])([H])N(C(=O)N3C([H])([H])C([H])([H])C([H])([H])C([H])(n4nc(-c5c([H])c([H])c(Oc6c([H])c([H])c(F)c([H])c6F)c([H])c5[H])c(C(=O)N([H])[H])c4N([H])[H])C3([H])[H])C([H])([H])[H])c([H])c([H])c2C1([H])[H]

$$$$
11:0:0
     RDKit          3D

 89 97  0  0  1  0  0  0  0  0999 V2000
  -29.5440  -21.4810   19.8000 O   0  0  0  0  0  0  0  0  0  0  0  0
  -30.2950  -17.8220   19.2330 C   0  0  0  0  0  3  0  0  0  0  0  0
  -29.6100  -18.0620   21.5290 C   0  0  0  0  0  3  0  0  0  0  0  0
  -30.1380  -19.2310   19.0550 C   0  0  0  0  0  3  0  0  0  0  0  0
  -29.4900  -19.4810   21.3580 C   0  0  0  0  0  3  0  0  0  0  0  0
  -30.0110  -17.1830   20.4750 C   0  0  0  0  0  0  0  0  0  0  0  0
  -29.7280  -20.1090   20.1010 C   0  0  0  0  0  0  0  0  0  0  0  0
  -30.6810  -14.6900   20.0640 C   0  0  0  0  0  0  0  0  0  0  0  0
  -30.4070  -12.4780   18.9480 C   0  0  0  0  0  2  0  0  0  0  0  0
  -29.4060  -12.6530   17.7840 C   0  0  0  0  0  2  0  0  0  0  0  0
  -27.9570  -12.4770   18.2740 C   0  0  0  0  0  2  0  0  0  0  0  0
  -27.6670  -13.2830   19.5690 C   0  0  0  0  0  3  0  0  0  0  0  0
  -28.7820  -13.0970   20.6240 C   0  0  0  0  0  2  0  0  0  0  0  0
  -30.0640  -13.4630   19.9990 N   0  0  0  0  0  0  0  0  0  0  0  0
  -31.7780  -14.8690   19.5220 O   0  0  0  0  0  0  0  0  0  0  0  0
  -30.0080  -15.7210   20.6770 N   0  0  0  0  0  0  0  0  0  0  0  0
  -29.2980  -15.3940   21.3180 H   0  0  0  0  0  0  0  0  0  0  0  0
  -25.3150  -13.8610   20.4180 C   0  0  0  0  0  0  0  0  0  0  0  0
  -24.2640  -13.0810   20.8230 C   0  0  0  0  0  0  0  0  0  0  0  0
  -24.7220  -11.7300   20.7360 C   0  0  0  0  0  0  0  0  0  0  0  0
  -26.3440  -12.9850   20.1100 N   0  0  0  0  0  0  0  0  0  0  0  0
  -25.9970  -11.6970   20.3590 N   0  0  0  0  0  0  0  0  0  0  0  0
  -24.0000  -10.4630   20.9290 C   0  0  0  0  0  0  0  0  0  0  0  0
  -24.4340   -9.5050   21.8700 C   0  0  0  0  0  3  0  0  0  0  0  0
  -23.7110   -8.3070   22.0570 C   0  0  0  0  0  3  0  0  0  0  0  0
  -22.5420   -8.0580   21.3020 C   0  0  0  0  0  0  0  0  0  0  0  0
  -22.1280   -9.0050   20.3490 C   0  0  0  0  0  3  0  0  0  0  0  0
  -22.8510  -10.1940   20.1600 C   0  0  0  0  0  3  0  0  0  0  0  0
  -21.7930   -6.9100   21.3950 O   0  0  0  0  0  0  0  0  0  0  0  0
  -21.6850   -6.2140   22.5740 C   0  0  0  0  0  0  0  0  0  0  0  0
  -21.1710   -6.8070   23.7460 C   0  0  0  0  0  3  0  0  0  0  0  0
  -21.0150   -6.0350   24.9150 C   0  0  0  0  0  3  0  0  0  0  0  0
  -21.3580   -4.6720   24.9110 C   0  0  0  0  0  0  0  0  0  0  0  0
  -21.8680   -4.0770   23.7420 C   0  0  0  0  0  3  0  0  0  0  0  0
  -22.0250   -4.8450   22.5760 C   0  0  0  0  0  0  0  0  0  0  0  0
  -22.4920   -4.2620   21.4470 F   0  0  0  0  0  0  0  0  0  0  0  0
  -21.2020   -3.9290   26.0300 F   0  0  0  0  0  0  0  0  0  0  0  0
  -22.8840  -13.5550   21.1750 C   0  0  0  0  0  0  0  0  0  0  0  0
  -22.1950  -12.8410   22.0630 N   0  0  0  0  0  0  0  0  0  0  0  0
  -22.4230  -14.5940   20.7030 O   0  0  0  0  0  0  0  0  0  0  0  0
  -22.5800  -12.0020   22.4720 H   0  0  0  0  0  0  0  0  0  0  0  0
  -21.2690  -13.1360   22.3320 H   0  0  0  0  0  0  0  0  0  0  0  0
  -25.4750  -15.2350   20.2710 N   0  0  0  0  0  0  0  0  0  0  0  0
  -24.7240  -15.8930   20.4490 H   0  0  0  0  0  0  0  0  0  0  0  0
  -26.3150  -15.6820   19.9300 H   0  0  0  0  0  0  0  0  0  0  0  0
  -29.5360  -22.5380   20.8210 C   0  0  0  0  0  2  0  0  0  0  0  0
  -29.6060  -24.0830   20.3680 C   0  0  0  0  0  3  0  0  0  0  0  0
  -28.3060  -24.9980   20.2520 C   0  0  0  0  0  3  0  0  0  0  0  0
  -28.4640  -26.4780   20.2340 O   0  0  0  0  0  0  0  0  0  0  0  0
  -24.6350  -31.8460   23.2070 C   0  0  0  0  0  0  0  0  0  0  0  0
  -27.3140  -27.2920   20.1940 C   0  0  0  0  0  0  0  0  0  0  0  0
  -23.4500  -30.4330   21.5650 C   0  0  0  0  0  3  0  0  0  0  0  0
  -24.9230  -28.8770   20.1610 C   0  0  0  0  0  0  0  0  0  0  0  0
  -25.9890  -30.7640   21.3990 C   0  0  0  0  0  2  0  0  0  0  0  0
  -26.0830  -29.3840   20.7600 C   0  0  0  0  0  0  0  0  0  0  0  0
  -27.2790  -28.6040   20.7640 C   0  0  0  0  0  3  0  0  0  0  0  0
  -26.1260  -26.8340   19.5790 C   0  0  0  0  0  3  0  0  0  0  0  0
  -24.9470  -27.6060   19.5630 C   0  0  0  0  0  3  0  0  0  0  0  0
  -23.6760  -29.7400   20.1940 C   0  0  0  0  0  2  0  0  0  0  0  0
  -24.7100  -31.0330   22.1130 N   0  0  0  0  0  0  0  0  0  0  0  0
  -23.5480  -32.1220   23.7320 O   0  0  0  0  0  0  0  0  0  0  0  0
  -22.7860  -29.4210   22.5280 C   0  0  0  0  0  0  0  0  0  0  0  0
  -21.4620  -29.2400   22.3930 N   0  0  0  0  0  0  0  0  0  0  0  0
  -23.4610  -28.7970   23.3520 O   0  0  0  0  0  0  0  0  0  0  0  0
  -20.9810  -29.7870   21.6940 H   0  0  0  0  0  0  0  0  0  0  0  0
  -18.0800  -28.0600   22.8960 C   0  0  0  0  0  0  0  0  0  0  0  0
  -20.6400  -28.3050   23.1600 C   0  0  0  0  0  3  0  0  0  0  0  0
  -20.7370  -26.8770   22.5740 C   0  0  0  0  0  2  0  0  0  0  0  0
  -19.6290  -26.5640   21.5650 C   0  0  0  0  0  2  0  0  0  0  0  0
  -18.2490  -26.7140   22.2100 C   0  0  0  0  0  2  0  0  0  0  0  0
  -19.2040  -28.8150   23.3260 C   0  0  0  0  0  0  0  0  0  0  0  0
  -18.9940  -30.0760   23.9240 C   0  0  0  0  0  3  0  0  0  0  0  0
  -17.6920  -30.5810   24.1000 C   0  0  0  0  0  3  0  0  0  0  0  0
  -16.5830  -29.8240   23.6860 C   0  0  0  0  0  3  0  0  0  0  0  0
  -16.7780  -28.5660   23.0900 C   0  0  0  0  0  3  0  0  0  0  0  0
  -25.9120  -32.4860   23.8370 C   0  0  0  0  0  3  0  0  0  0  0  0
  -26.4240  -31.7160   25.1150 C   0  0  1  0  0  0  0  0  0  0  0  0
  -25.3250  -31.4660   26.1740 C   0  0  0  0  0  1  0  0  0  0  0  0
  -27.0240  -30.3450   24.7260 C   0  0  0  0  0  1  0  0  0  0  0  0
  -27.5650  -32.5170   25.7860 C   0  0  0  0  0  1  0  0  0  0  0  0
  -25.5930  -33.8820   24.1710 N   0  0  0  0  0  0  0  0  0  0  0  0
  -25.9220  -34.9400   23.4160 C   0  0  0  0  0  0  0  0  0  0  0  0
  -26.5960  -34.8420   22.3870 O   0  0  0  0  0  0  0  0  0  0  0  0
  -25.0020  -34.0290   24.9740 H   0  0  0  0  0  0  0  0  0  0  0  0
  -24.1860  -36.7230   23.0530 C   0  0  0  0  0  1  0  0  0  0  0  0
  -25.4230  -36.3230   23.8750 C   0  0  0  0  0  3  0  0  0  0  0  0
  -27.5440  -37.2150   24.7320 C   0  0  0  0  0  1  0  0  0  0  0  0
  -26.4500  -37.3830   23.7760 N   0  0  0  0  0  0  0  0  0  0  0  0
  -26.0400  -38.3000   23.9230 H   0  0  0  0  0  0  0  0  0  0  0  0
  1  7  1  0
  1 46  1  0
  2  6  1  0
  4  2  2  0
  4  7  1  0
  5  3  1  0
  6 16  1  0
  6  3  2  0
  7  5  2  0
  8 16  1  0
  9 14  1  0
 10 11  1  0
 10  9  1  0
 12 11  1  0
 12 21  1  0
 12 13  1  0
 14  8  1  0
 14 13  1  0
 15  8  2  0
 16 17  1  0
 18 19  2  0
 19 38  1  0
 20 19  1  0
 20 23  1  0
 21 22  1  0
 21 18  1  0
 22 20  2  0
 23 24  1  0
 24 25  2  0
 26 29  1  0
 26 25  1  0
 27 26  2  0
 28 27  1  0
 28 23  2  0
 29 30  1  0
 30 35  2  0
 30 31  1  0
 31 32  2  0
 33 32  1  0
 33 37  1  0
 34 33  2  0
 35 34  1  0
 36 35  1  0
 38 39  1  0
 39 42  1  0
 39 41  1  0
 40 38  2  0
 43 18  1  0
 43 44  1  0
 45 43  1  0
 47 46  1  0
 48 47  2  0
 49 48  1  0
 50 61  2  0
 51 49  1  0
 51 56  1  0
 52 60  1  0
 52 62  1  0
 53 59  1  0
 53 55  1  0
 54 60  1  0
 55 56  2  0
 55 54  1  0
 57 51  2  0
 58 57  1  0
 58 53  2  0
 59 52  1  0
 60 50  1  0
 62 64  2  0
 63 62  1  0
 65 63  1  0
 66 75  2  0
 66 71  1  0
 67 63  1  0
 67 71  1  0
 68 67  1  0
 69 70  1  0
 69 68  1  0
 70 66  1  0
 71 72  2  0
 72 73  1  0
 74 73  2  0
 75 74  1  0
 76 50  1  0
 76 81  1  0
 76 77  1  0
 77 80  1  1
 77 78  1  0
 79 77  1  0
 81 84  1  0
 82 86  1  0
 82 81  1  0
 83 82  2  0
 86 85  1  0
 88 86  1  0
 88 89  1  0
 88 87  1  0
M  ISO  4   8 100  16 100  48 101  49 101
M  END
>  <TORSDO>  (12) 
F 20

>  <SCORE>  (12) 
-13.067

>  <name>  (12) 
11

>  <ligand_id>  (12) 
11

>  <original_smiles>  (12) 
[H]c1c([H])c([H])c2c(c1[H])C([H])([H])C([H])([H])C([H])([H])C2([H])N([H])C(=O)C1([H])N(C(=O)C([H])(N([H])C(=O)C([H])(N([H])C([H])([H])[H])C([H])([H])[H])C(C([H])([H])[H])(C([H])([H])[H])C([H])([H])[H])C([H])([H])c2c([H])c(OC([H])([H])C([H])([H])C([H])([H])Oc3c([H])c([H])c(N([H])C(=O)N4C([H])([H])C([H])([H])C([H])([H])C([H])(n5nc(-c6c([H])c([H])c(Oc7c([H])c([H])c(F)c([H])c7F)c([H])c6[H])c(C(=O)N([H])[H])c5N([H])[H])C4([H])[H])c([H])c3[H])c([H])c([H])c2C1([H])[H]

>  <smiles>  (12) 
[H]c1c([H])c([H])c2c(c1[H])C([H])([H])C([H])([H])C([H])([H])C2([H])N([H])C(=O)C1([H])N(C(=O)C([H])(N([H])C(=O)C([H])(N([H])C([H])([H])[H])C([H])([H])[H])C(C([H])([H])[H])(C([H])([H])[H])C([H])([H])[H])C([H])([H])c2c([H])c(OC([H])([H])C([H])([H])C([H])([H])Oc3c([H])c([H])c(N([H])C(=O)N4C([H])([H])C([H])([H])C([H])([H])C([H])(n5nc(-c6c([H])c([H])c(Oc7c([H])c([H])c(F)c([H])c7F)c([H])c6[H])c(C(=O)N([H])[H])c5N([H])[H])C4([H])[H])c([H])c3[H])c([H])c([H])c2C1([H])[H]

$$$$
12:0:0
     RDKit          3D

 90 98  0  0  1  0  0  0  0  0999 V2000
  -31.0930  -17.9190   20.5650 C   0  0  0  0  0  3  0  0  0  0  0  0
  -31.0950  -19.3450   20.5020 C   0  0  0  0  0  3  0  0  0  0  0  0
  -28.7000  -19.3790   20.3330 C   0  0  0  0  0  3  0  0  0  0  0  0
  -29.8810  -17.1820   20.5250 C   0  0  0  0  0  0  0  0  0  0  0  0
  -29.9090  -20.1220   20.3880 C   0  0  0  0  0  0  0  0  0  0  0  0
  -28.6910  -17.9520   20.4070 C   0  0  0  0  0  0  0  0  0  0  0  0
  -27.5060  -17.2970   20.3610 F   0  0  0  0  0  0  0  0  0  0  0  0
  -30.5680  -14.6790   20.3110 C   0  0  0  0  0  0  0  0  0  0  0  0
  -30.3460  -12.4480   19.2340 C   0  0  0  0  0  2  0  0  0  0  0  0
  -29.3930  -12.5890   18.0260 C   0  0  0  0  0  2  0  0  0  0  0  0
  -27.9220  -12.4340   18.4630 C   0  0  0  0  0  2  0  0  0  0  0  0
  -27.5740  -13.2900   19.7100 C   0  0  0  0  0  3  0  0  0  0  0  0
  -28.6390  -13.1200   20.8180 C   0  0  0  0  0  2  0  0  0  0  0  0
  -29.9480  -13.4590   20.2340 N   0  0  0  0  0  0  0  0  0  0  0  0
  -31.7320  -14.8330   19.9340 O   0  0  0  0  0  0  0  0  0  0  0  0
  -29.7540  -15.7290   20.6430 N   0  0  0  0  0  0  0  0  0  0  0  0
  -28.8180  -15.4350   20.8750 H   0  0  0  0  0  0  0  0  0  0  0  0
  -25.1820  -13.8950   20.4320 C   0  0  0  0  0  0  0  0  0  0  0  0
  -24.1150  -13.1250   20.8040 C   0  0  0  0  0  0  0  0  0  0  0  0
  -24.5760  -11.7720   20.7780 C   0  0  0  0  0  0  0  0  0  0  0  0
  -26.2260  -13.0130   20.2010 N   0  0  0  0  0  0  0  0  0  0  0  0
  -25.8660  -11.7310   20.4680 N   0  0  0  0  0  0  0  0  0  0  0  0
  -23.8480  -10.5130   20.9740 C   0  0  0  0  0  0  0  0  0  0  0  0
  -24.2760   -9.5510   21.9150 C   0  0  0  0  0  3  0  0  0  0  0  0
  -23.5480   -8.3540   22.0980 C   0  0  0  0  0  3  0  0  0  0  0  0
  -22.3770   -8.1130   21.3420 C   0  0  0  0  0  0  0  0  0  0  0  0
  -21.9680   -9.0640   20.3910 C   0  0  0  0  0  3  0  0  0  0  0  0
  -22.6970  -10.2510   20.2050 C   0  0  0  0  0  3  0  0  0  0  0  0
  -21.6220   -6.9700   21.4330 O   0  0  0  0  0  0  0  0  0  0  0  0
  -21.5600   -6.2390   22.5930 C   0  0  0  0  0  0  0  0  0  0  0  0
  -21.1070   -6.8040   23.8060 C   0  0  0  0  0  3  0  0  0  0  0  0
  -20.9940   -6.0000   24.9580 C   0  0  0  0  0  3  0  0  0  0  0  0
  -21.3220   -4.6320   24.8980 C   0  0  0  0  0  0  0  0  0  0  0  0
  -21.7670   -4.0660   23.6900 C   0  0  0  0  0  3  0  0  0  0  0  0
  -21.8820   -4.8680   22.5400 C   0  0  0  0  0  0  0  0  0  0  0  0
  -22.2920   -4.3140   21.3730 F   0  0  0  0  0  0  0  0  0  0  0  0
  -21.2050   -3.8570   26.0010 F   0  0  0  0  0  0  0  0  0  0  0  0
  -22.7190  -13.6050   21.0780 C   0  0  0  0  0  0  0  0  0  0  0  0
  -21.9920  -12.9140   21.9490 N   0  0  0  0  0  0  0  0  0  0  0  0
  -22.2810  -14.6300   20.5560 O   0  0  0  0  0  0  0  0  0  0  0  0
  -22.3580  -12.0850   22.3930 H   0  0  0  0  0  0  0  0  0  0  0  0
  -21.0560  -13.2180   22.1750 H   0  0  0  0  0  0  0  0  0  0  0  0
  -25.3430  -15.2660   20.2560 N   0  0  0  0  0  0  0  0  0  0  0  0
  -24.5770  -15.9130   20.3970 H   0  0  0  0  0  0  0  0  0  0  0  0
  -26.2090  -15.7380   20.0180 H   0  0  0  0  0  0  0  0  0  0  0  0
  -30.0250  -21.5300   20.3580 O   0  0  0  0  0  0  0  0  0  0  0  0
  -28.8960  -22.4420   20.1650 C   0  0  0  0  0  2  0  0  0  0  0  0
  -29.2560  -23.9960   20.2800 C   0  0  0  0  0  3  0  0  0  0  0  0
  -28.1150  -25.0540   19.9510 C   0  0  0  0  0  3  0  0  0  0  0  0
  -28.3390  -26.5060   20.1590 O   0  0  0  0  0  0  0  0  0  0  0  0
  -24.6140  -31.8650   23.2520 C   0  0  0  0  0  0  0  0  0  0  0  0
  -27.2190  -27.3560   20.1210 C   0  0  0  0  0  0  0  0  0  0  0  0
  -23.4060  -30.4950   21.5920 C   0  0  0  0  0  3  0  0  0  0  0  0
  -24.8530  -28.9680   20.1410 C   0  0  0  0  0  0  0  0  0  0  0  0
  -25.9460  -30.8150   21.4110 C   0  0  0  0  0  2  0  0  0  0  0  0
  -26.0230  -29.4470   20.7430 C   0  0  0  0  0  0  0  0  0  0  0  0
  -27.2090  -28.6530   20.7210 C   0  0  0  0  0  3  0  0  0  0  0  0
  -26.0200  -26.9330   19.4980 C   0  0  0  0  0  3  0  0  0  0  0  0
  -24.8540  -27.7170   19.5100 C   0  0  0  0  0  3  0  0  0  0  0  0
  -23.6170  -29.8420   20.2020 C   0  0  0  0  0  2  0  0  0  0  0  0
  -24.6750  -31.0740   22.1420 N   0  0  0  0  0  0  0  0  0  0  0  0
  -23.5310  -32.1370   23.7920 O   0  0  0  0  0  0  0  0  0  0  0  0
  -22.7430  -29.4640   22.5360 C   0  0  0  0  0  0  0  0  0  0  0  0
  -21.4170  -29.2900   22.4050 N   0  0  0  0  0  0  0  0  0  0  0  0
  -23.4200  -28.8240   23.3450 O   0  0  0  0  0  0  0  0  0  0  0  0
  -20.9300  -29.8560   21.7250 H   0  0  0  0  0  0  0  0  0  0  0  0
  -18.0360  -28.0990   22.8910 C   0  0  0  0  0  0  0  0  0  0  0  0
  -20.5950  -28.3430   23.1610 C   0  0  0  0  0  3  0  0  0  0  0  0
  -20.6890  -26.9200   22.5620 C   0  0  0  0  0  2  0  0  0  0  0  0
  -19.5850  -26.6200   21.5440 C   0  0  0  0  0  2  0  0  0  0  0  0
  -18.2040  -26.7600   22.1930 C   0  0  0  0  0  2  0  0  0  0  0  0
  -19.1580  -28.8490   23.3310 C   0  0  0  0  0  0  0  0  0  0  0  0
  -18.9450  -30.1030   23.9450 C   0  0  0  0  0  3  0  0  0  0  0  0
  -17.6430  -30.6080   24.1200 C   0  0  0  0  0  3  0  0  0  0  0  0
  -16.5350  -29.8550   23.6960 C   0  0  0  0  0  3  0  0  0  0  0  0
  -16.7310  -28.6020   23.0870 C   0  0  0  0  0  3  0  0  0  0  0  0
  -25.8970  -32.4860   23.8840 C   0  0  0  0  0  3  0  0  0  0  0  0
  -26.4020  -31.7040   25.1580 C   0  0  1  0  0  0  0  0  0  0  0  0
  -25.3030  -31.4670   26.2190 C   0  0  0  0  0  1  0  0  0  0  0  0
  -26.9780  -30.3240   24.7620 C   0  0  0  0  0  1  0  0  0  0  0  0
  -27.5540  -32.4870   25.8300 C   0  0  0  0  0  1  0  0  0  0  0  0
  -25.5960  -33.8840   24.2200 N   0  0  0  0  0  0  0  0  0  0  0  0
  -25.9130  -34.9370   23.4560 C   0  0  0  0  0  0  0  0  0  0  0  0
  -26.5620  -34.8340   22.4100 O   0  0  0  0  0  0  0  0  0  0  0  0
  -25.0160  -34.0380   25.0330 H   0  0  0  0  0  0  0  0  0  0  0  0
  -24.1680  -36.7240   23.1540 C   0  0  0  0  0  1  0  0  0  0  0  0
  -25.4370  -36.3260   23.9240 C   0  0  0  0  0  3  0  0  0  0  0  0
  -27.5930  -37.2240   24.6820 C   0  0  0  0  0  1  0  0  0  0  0  0
  -26.4620  -37.3820   23.7720 N   0  0  0  0  0  0  0  0  0  0  0  0
  -26.0580  -38.3010   23.9250 H   0  0  0  0  0  0  0  0  0  0  0  0
  2  1  2  0
  3  5  2  0
  3  6  1  0
  4  1  1  0
  4 16  1  0
  5  2  1  0
  6  4  2  0
  7  6  1  0
  8 16  1  0
  9 14  1  0
 10 11  1  0
 10  9  1  0
 12 11  1  0
 12 21  1  0
 12 13  1  0
 14  8  1  0
 14 13  1  0
 15  8  2  0
 16 17  1  0
 18 19  2  0
 19 38  1  0
 20 19  1  0
 20 23  1  0
 21 18  1  0
 21 22  1  0
 22 20  2  0
 23 24  1  0
 24 25  2  0
 26 29  1  0
 26 25  1  0
 27 26  2  0
 28 27  1  0
 28 23  2  0
 29 30  1  0
 30 31  1  0
 31 32  2  0
 33 32  1  0
 33 37  1  0
 34 33  2  0
 35 30  2  0
 35 34  1  0
 36 35  1  0
 38 39  1  0
 39 42  1  0
 39 41  1  0
 40 38  2  0
 43 44  1  0
 43 18  1  0
 45 43  1  0
 46  5  1  0
 47 48  1  0
 47 46  1  0
 49 50  1  0
 49 48  2  0
 51 62  2  0
 52 50  1  0
 52 57  1  0
 53 61  1  0
 53 63  1  0
 54 60  1  0
 54 56  1  0
 55 61  1  0
 56 55  1  0
 57 56  2  0
 58 59  1  0
 58 52  2  0
 59 54  2  0
 60 53  1  0
 61 51  1  0
 63 65  2  0
 64 63  1  0
 66 64  1  0
 67 76  2  0
 67 72  1  0
 68 64  1  0
 68 72  1  0
 69 68  1  0
 70 71  1  0
 70 69  1  0
 71 67  1  0
 72 73  2  0
 73 74  1  0
 75 74  2  0
 76 75  1  0
 77 51  1  0
 77 82  1  0
 77 78  1  0
 78 81  1  1
 78 79  1  0
 80 78  1  0
 82 85  1  0
 83 87  1  0
 83 82  1  0
 84 83  2  0
 87 86  1  0
 89 87  1  0
 89 90  1  0
 89 88  1  0
M  ISO  4   8 100  16 100  49 101  50 101
M  END
>  <TORSDO>  (13) 
F 20

>  <SCORE>  (13) 
-14.070

>  <name>  (13) 
12

>  <ligand_id>  (13) 
12

>  <original_smiles>  (13) 
[H]c1c([H])c([H])c2c(c1[H])C([H])([H])C([H])([H])C([H])([H])C2([H])N([H])C(=O)C1([H])N(C(=O)C([H])(N([H])C(=O)C([H])(N([H])C([H])([H])[H])C([H])([H])[H])C(C([H])([H])[H])(C([H])([H])[H])C([H])([H])[H])C([H])([H])c2c([H])c(OC([H])([H])C([H])([H])C([H])([H])Oc3c([H])c([H])c(N([H])C(=O)N4C([H])([H])C([H])([H])C([H])([H])C([H])(n5nc(-c6c([H])c([H])c(Oc7c([H])c([H])c(F)c([H])c7F)c([H])c6[H])c(C(=O)N([H])[H])c5N([H])[H])C4([H])[H])c(F)c3[H])c([H])c([H])c2C1([H])[H]

>  <smiles>  (13) 
[H]c1c([H])c([H])c2c(c1[H])C([H])([H])C([H])([H])C([H])([H])C2([H])N([H])C(=O)C1([H])N(C(=O)C([H])(N([H])C(=O)C([H])(N([H])C([H])([H])[H])C([H])([H])[H])C(C([H])([H])[H])(C([H])([H])[H])C([H])([H])[H])C([H])([H])c2c([H])c(OC([H])([H])C([H])([H])C([H])([H])Oc3c([H])c([H])c(N([H])C(=O)N4C([H])([H])C([H])([H])C([H])([H])C([H])(n5nc(-c6c([H])c([H])c(Oc7c([H])c([H])c(F)c([H])c7F)c([H])c6[H])c(C(=O)N([H])[H])c5N([H])[H])C4([H])[H])c(F)c3[H])c([H])c([H])c2C1([H])[H]

$$$$
13:0:0
     RDKit          3D

 94 96  0  0  1  0  0  0  0  0999 V2000
  -31.5890  -14.3210   21.2720 C   0  0  0  0  0  0  0  0  0  0  0  0
  -31.7930  -12.7840   19.3870 C   0  0  0  0  0 15  0  0  0  0  0  0
  -30.3390  -13.1510   17.5730 C   0  0  0  0  0 15  0  0  0  0  0  0
  -28.2090  -13.6040   18.3760 C   0  0  0  0  0 15  0  0  0  0  0  0
  -27.5840  -13.6530   20.5440 C   0  0  0  0  0  1  0  0  0  0  0  0
  -29.2380  -13.2740   22.0510 C   0  0  0  0  0 15  0  0  0  0  0  0
  -31.0650  -13.1280   21.2020 N   0  0  0  0  0  1  0  0  0  0  0  0
  -32.7590  -14.6430   21.1910 O   0  0  0  0  0  0  0  0  0  0  0  0
  -29.1950  -12.1740   20.1030 C   0  0  0  0  0  3  0  0  0  0  0  0
  -29.6540  -12.0950   19.3760 C   0  0  0  0  0  3  0  0  0  0  0  0
  -28.6320  -16.1710   19.9880 C   0  0  0  0  0  2  0  0  0  0  0  0
  -29.5770  -14.6380   20.2030 C   0  0  0  0  0  3  0  0  0  0  0  0
  -30.2640  -14.5440   19.3550 C   0  0  0  0  0  3  0  0  0  0  0  0
  -29.5390  -17.3000   19.3820 C   0  0  0  0  0  3  0  0  0  0  0  0
  -30.0300  -16.0820   18.3930 C   0  0  0  0  0  3  0  0  0  0  0  0
  -30.8210  -15.0290   20.5250 N   0  0  0  0  0  0  0  0  0  0  0  0
  -25.2850  -13.9410   20.6690 C   0  0  0  0  0  0  0  0  0  0  0  0
  -24.2810  -13.1100   20.9530 C   0  0  0  0  0  0  0  0  0  0  0  0
  -24.8130  -11.7840   20.9640 C   0  0  0  0  0  0  0  0  0  0  0  0
  -26.3550  -13.1200   20.7060 N   0  0  0  0  0  0  0  0  0  0  0  0
  -26.1180  -11.8060   20.8480 N   0  0  0  0  0  0  0  0  0  0  0  0
  -24.1400  -10.5070   21.0440 C   0  0  0  0  0  0  0  0  0  0  0  0
  -24.5120   -9.5230   21.9830 C   0  0  0  0  0  3  0  0  0  0  0  0
  -23.7780   -8.3230   22.0630 C   0  0  0  0  0  3  0  0  0  0  0  0
  -22.6720   -8.1150   21.2050 C   0  0  0  0  0  0  0  0  0  0  0  0
  -22.3410   -9.0860   20.2460 C   0  0  0  0  0  3  0  0  0  0  0  0
  -23.0720  -10.2750   20.1620 C   0  0  0  0  0  3  0  0  0  0  0  0
  -21.9000   -6.9820   21.2050 O   0  0  0  0  0  0  0  0  0  0  0  0
  -21.7050   -6.2570   22.3480 C   0  0  0  0  0  0  0  0  0  0  0  0
  -21.1350   -6.8260   23.5080 C   0  0  0  0  0  3  0  0  0  0  0  0
  -20.8860   -6.0190   24.6360 C   0  0  0  0  0  3  0  0  0  0  0  0
  -21.1970   -4.6470   24.6020 C   0  0  0  0  0  0  0  0  0  0  0  0
  -21.7600   -4.0790   23.4460 C   0  0  0  0  0  3  0  0  0  0  0  0
  -22.0120   -4.8830   22.3220 C   0  0  0  0  0  0  0  0  0  0  0  0
  -22.5370   -4.3310   21.2010 F   0  0  0  0  0  0  0  0  0  0  0  0
  -20.9490   -3.8690   25.6820 F   0  0  0  0  0  0  0  0  0  0  0  0
  -22.9010  -13.5870   21.1410 C   0  0  0  0  0  0  0  0  0  0  0  0
  -22.1520  -12.9020   21.9820 N   0  0  0  0  0  0  0  0  0  0  0  0
  -22.5210  -14.6350   20.6210 O   0  0  0  0  0  0  0  0  0  0  0  0
  -22.5010  -12.0790   22.4520 H   0  0  0  0  0  0  0  0  0  0  0  0
  -21.2070  -13.2100   22.1500 H   0  0  0  0  0  0  0  0  0  0  0  0
  -25.3790  -15.3180   20.4270 N   0  0  0  0  0  0  0  0  0  0  0  0
  -24.5440  -15.8770   20.2770 H   0  0  0  0  0  0  0  0  0  0  0  0
  -26.2290  -15.7600   20.1050 H   0  0  0  0  0  0  0  0  0  0  0  0
  -29.0610  -18.7960   19.0590 O   0  0  0  0  0  0  0  0  0  0  0  0
  -29.3710  -20.0840   19.9390 C   0  0  0  0  0  2  0  0  0  0  0  0
  -28.6830  -22.9120   19.7950 C   0  0  0  0  0  0  0  0  0  0  0  0
  -28.9410  -21.6500   19.7450 C   0  0  0  0  0  0  0  0  0  0  0  0
  -28.0590  -24.4150   19.6500 C   0  0  0  0  0  2  0  0  0  0  0  0
  -28.4100  -25.8590   20.2920 O   0  0  0  0  0  0  0  0  0  0  0  0
  -24.7320  -31.8220   23.2040 C   0  0  0  0  0  0  0  0  0  0  0  0
  -27.4390  -26.9720   20.2560 C   0  0  0  0  0  0  0  0  0  0  0  0
  -23.6220  -30.3840   21.5530 C   0  0  0  0  0  3  0  0  0  0  0  0
  -25.1360  -28.8020   20.1970 C   0  0  0  0  0  0  0  0  0  0  0  0
  -26.1940  -30.6180   21.5100 C   0  0  0  0  0  2  0  0  0  0  0  0
  -26.2980  -29.2110   20.8640 C   0  0  0  0  0  0  0  0  0  0  0  0
  -27.4470  -28.3030   20.8940 C   0  0  0  0  0  3  0  0  0  0  0  0
  -26.2540  -26.7300   19.5320 C   0  0  0  0  0  3  0  0  0  0  0  0
  -25.1350  -27.5800   19.5210 C   0  0  0  0  0  3  0  0  0  0  0  0
  -23.9090  -29.7040   20.1920 C   0  0  0  0  0  2  0  0  0  0  0  0
  -24.8700  -30.9680   22.1410 N   0  0  0  0  0  0  0  0  0  0  0  0
  -23.6180  -32.1060   23.6740 O   0  0  0  0  0  0  0  0  0  0  0  0
  -22.9130  -29.3830   22.5010 C   0  0  0  0  0  0  0  0  0  0  0  0
  -21.5910  -29.1990   22.3330 N   0  0  0  0  0  0  0  0  0  0  0  0
  -23.5590  -28.7740   23.3580 O   0  0  0  0  0  0  0  0  0  0  0  0
  -21.1230  -29.7430   21.6210 H   0  0  0  0  0  0  0  0  0  0  0  0
  -18.2010  -27.9810   22.7600 C   0  0  0  0  0  0  0  0  0  0  0  0
  -20.7510  -28.2630   23.0900 C   0  0  0  0  0  3  0  0  0  0  0  0
  -20.8750  -26.8260   22.5320 C   0  0  0  0  0  2  0  0  0  0  0  0
  -19.8020  -26.4870   21.4920 C   0  0  0  0  0  2  0  0  0  0  0  0
  -18.4040  -26.6270   22.0990 C   0  0  0  0  0  2  0  0  0  0  0  0
  -19.3030  -28.7550   23.2110 C   0  0  0  0  0  0  0  0  0  0  0  0
  -19.0600  -30.0190   23.7910 C   0  0  0  0  0  3  0  0  0  0  0  0
  -17.7470  -30.5110   23.9220 C   0  0  0  0  0  3  0  0  0  0  0  0
  -16.6590  -29.7340   23.4860 C   0  0  0  0  0  3  0  0  0  0  0  0
  -16.8870  -28.4710   22.9130 C   0  0  0  0  0  3  0  0  0  0  0  0
  -25.9670  -32.4990   23.8700 C   0  0  0  0  0  3  0  0  0  0  0  0
  -25.6050  -33.8920   24.1860 N   0  0  0  0  0  0  0  0  0  0  0  0
  -25.9170  -34.9570   23.4340 C   0  0  0  0  0  0  0  0  0  0  0  0
  -26.6060  -34.8710   22.4150 O   0  0  0  0  0  0  0  0  0  0  0  0
  -24.9940  -34.0310   24.9780 H   0  0  0  0  0  0  0  0  0  0  0  0
  -24.1390  -36.7000   23.0610 C   0  0  0  0  0  1  0  0  0  0  0  0
  -25.3850  -36.3330   23.8830 C   0  0  0  0  0  3  0  0  0  0  0  0
  -27.4800  -37.2920   24.7320 C   0  0  0  0  0  1  0  0  0  0  0  0
  -26.3860  -37.4170   23.7740 N   0  0  0  0  0  0  0  0  0  0  0  0
  -25.9500  -38.3260   23.9080 H   0  0  0  0  0  0  0  0  0  0  0  0
  -26.4490  -31.7550   25.1780 C   0  0  1  0  0  0  0  0  0  0  0  0
  -25.3170  -31.4890   26.1990 C   0  0  0  0  0  1  0  0  0  0  0  0
  -27.0930  -30.3930   24.8340 C   0  0  0  0  0  1  0  0  0  0  0  0
  -27.5410  -32.5920   25.8840 C   0  0  0  0  0  1  0  0  0  0  0  0
  -31.2510  -16.6800   17.9370 O   0  0  0  0  0  0  0  0  0  0  0  0
  -31.9430  -17.7290   15.9570 C   0  0  0  0  0  1  0  0  0  0  0  0
  -32.9820  -15.5700   16.7370 C   0  0  0  0  0  1  0  0  0  0  0  0
  -31.6870  -16.3800   16.6230 C   0  0  0  0  0  3  0  0  0  0  0  0
  5 20  1  0
  7  1  1  0
  8  1  2  0
 10  9  3  0
 12 11  1  0
 12 16  1  0
 13 12  1  0
 13 16  1  0
 14 45  1  0
 14 11  1  0
 15 91  1  0
 15 13  1  0
 15 14  1  0
 16  1  1  0
 17 20  1  0
 17 18  2  0
 18 19  1  0
 18 37  1  0
 19 22  1  0
 20 21  1  0
 21 19  2  0
 22 23  1  0
 23 24  2  0
 25 24  1  0
 26 25  2  0
 27 26  1  0
 27 22  2  0
 28 25  1  0
 28 29  1  0
 29 30  1  0
 30 31  2  0
 32 31  1  0
 32 36  1  0
 33 32  2  0
 34 29  2  0
 34 33  1  0
 35 34  1  0
 37 38  1  0
 38 41  1  0
 38 40  1  0
 39 37  2  0
 42 17  1  0
 43 42  1  0
 44 42  1  0
 45 46  1  0
 48 47  3  0
 48 46  1  0
 49 47  1  0
 49 50  1  0
 51 62  2  0
 52 50  1  0
 52 57  1  0
 53 61  1  0
 53 63  1  0
 54 56  1  0
 55 61  1  0
 56 57  2  0
 56 55  1  0
 58 52  2  0
 59 58  1  0
 59 54  2  0
 60 54  1  0
 60 53  1  0
 61 51  1  0
 63 65  2  0
 64 63  1  0
 66 64  1  0
 67 76  2  0
 67 72  1  0
 68 64  1  0
 68 72  1  0
 69 68  1  0
 70 71  1  0
 70 69  1  0
 71 67  1  0
 72 73  2  0
 73 74  1  0
 75 74  2  0
 76 75  1  0
 77 51  1  0
 77 78  1  0
 77 87  1  0
 78 81  1  0
 79 83  1  0
 79 78  1  0
 80 79  2  0
 83 82  1  0
 85 83  1  0
 85 86  1  0
 85 84  1  0
 87 90  1  1
 87 88  1  0
 89 87  1  0
 92 94  1  0
 94 93  1  0
 94 91  1  0
M  ISO  4   1 100  16 100  49 101  50 101
M  END
>  <TORSDO>  (14) 
F 21

>  <SCORE>  (14) 
-11.892

>  <name>  (14) 
13

>  <ligand_id>  (14) 
13

>  <original_smiles>  (14) 
[H]c1c([H])c([H])c2c(c1[H])C([H])([H])C([H])([H])C([H])([H])C2([H])N([H])C(=O)C1([H])N(C(=O)C([H])(N([H])C(=O)C([H])(N([H])C([H])([H])[H])C([H])([H])[H])C(C([H])([H])[H])(C([H])([H])[H])C([H])([H])[H])C([H])([H])c2c([H])c(OC([H])([H])C#CC([H])([H])OC3([H])C([H])([H])C4([H])N(C(=O)N5C([H])([H])C([H])([H])C([H])([H])C([H])(n6nc(-c7c([H])c([H])c(Oc8c([H])c([H])c(F)c([H])c8F)c([H])c7[H])c(C(=O)N([H])[H])c6N([H])[H])C5([H])[H])C([H])(C([H])([H])C4([H])[H])C3([H])OC([H])(C([H])([H])[H])C([H])([H])[H])c([H])c([H])c2C1([H])[H]

>  <smiles>  (14) 
[H]c1c([H])c([H])c2c(c1[H])C([H])([H])C([H])([H])C([H])([H])C2([H])N([H])C(=O)C1([H])N(C(=O)C([H])(N([H])C(=O)C([H])(N([H])C([H])([H])[H])C([H])([H])[H])C(C([H])([H])[H])(C([H])([H])[H])C([H])([H])[H])C([H])([H])c2c([H])c(OC([H])([H])C#CC([H])([H])OC3([H])C([H])([H])C4([H])N(C(=O)N5C([H])([H])C([H])([H])C([H])([H])C([H])(n6nc(-c7c([H])c([H])c(Oc8c([H])c([H])c(F)c([H])c8F)c([H])c7[H])c(C(=O)N([H])[H])c6N([H])[H])C5([H])[H])C([H])(C([H])([H])C4([H])[H])C3([H])OC([H])(C([H])([H])[H])C([H])([H])[H])c([H])c([H])c2C1([H])[H]

$$$$
14:0:0
     RDKit          3D

 91100  0  0  1  0  0  0  0  0999 V2000
  -28.1220  -24.0000   19.1170 C   0  0  0  0  0  2  0  0  0  0  0  0
  -29.2830  -24.2320   21.2260 C   0  0  0  0  0  2  0  0  0  0  0  0
  -28.0020  -22.4300   19.3680 C   0  0  0  0  0  2  0  0  0  0  0  0
  -29.2000  -22.6580   21.4570 C   0  0  0  0  0  2  0  0  0  0  0  0
  -28.1300  -24.9060   20.3980 C   0  0  0  0  0  3  0  0  0  0  0  0
  -29.0450  -21.8260   20.2380 N   0  0  0  0  0  0  0  0  0  0  0  0
  -28.3350  -19.4280   19.7210 C   0  0  0  0  0  3  0  0  0  0  0  0
  -30.3460  -19.7280   20.9470 C   0  0  0  0  0  3  0  0  0  0  0  0
  -28.5090  -18.0030   19.7980 C   0  0  0  0  0  3  0  0  0  0  0  0
  -30.5390  -18.2950   21.0040 C   0  0  0  0  0  3  0  0  0  0  0  0
  -29.2340  -20.3690   20.3060 C   0  0  0  0  0  0  0  0  0  0  0  0
  -29.6160  -17.3650   20.4350 C   0  0  0  0  0  0  0  0  0  0  0  0
  -30.5000  -14.8270   20.3720 C   0  0  0  0  0  0  0  0  0  0  0  0
  -30.3760  -12.5350   19.3600 C   0  0  0  0  0  2  0  0  0  0  0  0
  -29.4180  -12.5910   18.1470 C   0  0  0  0  0  2  0  0  0  0  0  0
  -27.9520  -12.4000   18.5880 C   0  0  0  0  0  2  0  0  0  0  0  0
  -27.5800  -13.2800   19.8110 C   0  0  0  0  0  3  0  0  0  0  0  0
  -28.6500  -13.1800   20.9210 C   0  0  0  0  0  2  0  0  0  0  0  0
  -29.9370  -13.5690   20.3250 N   0  0  0  0  0  0  0  0  0  0  0  0
  -31.6800  -14.9900   20.0430 O   0  0  0  0  0  0  0  0  0  0  0  0
  -29.6190  -15.8790   20.6010 N   0  0  0  0  0  0  0  0  0  0  0  0
  -28.6970  -15.5080   20.7690 H   0  0  0  0  0  0  0  0  0  0  0  0
  -25.1980  -13.8670   20.5640 C   0  0  0  0  0  0  0  0  0  0  0  0
  -24.1360  -13.0900   20.9370 C   0  0  0  0  0  0  0  0  0  0  0  0
  -24.5990  -11.7400   20.8890 C   0  0  0  0  0  0  0  0  0  0  0  0
  -26.2400  -12.9890   20.3090 N   0  0  0  0  0  0  0  0  0  0  0  0
  -25.8860  -11.7050   20.5680 N   0  0  0  0  0  0  0  0  0  0  0  0
  -23.8740  -10.4760   21.0730 C   0  0  0  0  0  0  0  0  0  0  0  0
  -24.3110   -9.5020   21.9970 C   0  0  0  0  0  3  0  0  0  0  0  0
  -23.5860   -8.3030   22.1700 C   0  0  0  0  0  3  0  0  0  0  0  0
  -22.4090   -8.0710   21.4180 C   0  0  0  0  0  0  0  0  0  0  0  0
  -21.9920   -9.0330   20.4830 C   0  0  0  0  0  3  0  0  0  0  0  0
  -22.7170  -10.2240   20.3080 C   0  0  0  0  0  3  0  0  0  0  0  0
  -21.6560   -6.9250   21.5000 O   0  0  0  0  0  0  0  0  0  0  0  0
  -21.6080   -6.1760   22.6480 C   0  0  0  0  0  0  0  0  0  0  0  0
  -21.1550   -6.7170   23.8720 C   0  0  0  0  0  3  0  0  0  0  0  0
  -21.0560   -5.8930   25.0120 C   0  0  0  0  0  3  0  0  0  0  0  0
  -21.3980   -4.5310   24.9290 C   0  0  0  0  0  0  0  0  0  0  0  0
  -21.8440   -3.9900   23.7100 C   0  0  0  0  0  3  0  0  0  0  0  0
  -21.9450   -4.8090   22.5720 C   0  0  0  0  0  0  0  0  0  0  0  0
  -22.3550   -4.2780   21.3950 F   0  0  0  0  0  0  0  0  0  0  0  0
  -21.2960   -3.7380   26.0200 F   0  0  0  0  0  0  0  0  0  0  0  0
  -22.7410  -13.5650   21.2240 C   0  0  0  0  0  0  0  0  0  0  0  0
  -22.0220  -12.8660   22.0940 N   0  0  0  0  0  0  0  0  0  0  0  0
  -22.2960  -14.5920   20.7110 O   0  0  0  0  0  0  0  0  0  0  0  0
  -22.3940  -12.0350   22.5310 H   0  0  0  0  0  0  0  0  0  0  0  0
  -21.0870  -13.1660   22.3300 H   0  0  0  0  0  0  0  0  0  0  0  0
  -25.3570  -15.2400   20.3950 N   0  0  0  0  0  0  0  0  0  0  0  0
  -24.5810  -15.8830   20.5100 H   0  0  0  0  0  0  0  0  0  0  0  0
  -26.1820  -15.6820   20.0150 H   0  0  0  0  0  0  0  0  0  0  0  0
  -28.2870  -26.4080   20.2390 O   0  0  0  0  0  0  0  0  0  0  0  0
  -24.6120  -31.9100   23.2850 C   0  0  0  0  0  0  0  0  0  0  0  0
  -27.1750  -27.2880   20.2180 C   0  0  0  0  0  0  0  0  0  0  0  0
  -23.3940  -30.5250   21.6440 C   0  0  0  0  0  3  0  0  0  0  0  0
  -24.8290  -28.9580   20.2110 C   0  0  0  0  0  0  0  0  0  0  0  0
  -25.9400  -30.8130   21.4560 C   0  0  0  0  0  2  0  0  0  0  0  0
  -26.0070  -29.4300   20.8030 C   0  0  0  0  0  0  0  0  0  0  0  0
  -27.1840  -28.6110   20.7850 C   0  0  0  0  0  3  0  0  0  0  0  0
  -25.9690  -26.8800   19.6100 C   0  0  0  0  0  3  0  0  0  0  0  0
  -24.8160  -27.6920   19.6020 C   0  0  0  0  0  3  0  0  0  0  0  0
  -23.6010  -29.8490   20.2630 C   0  0  0  0  0  2  0  0  0  0  0  0
  -24.6690  -31.1020   22.1850 N   0  0  0  0  0  0  0  0  0  0  0  0
  -23.5320  -32.1950   23.8230 O   0  0  0  0  0  0  0  0  0  0  0  0
  -22.7220  -29.5150   22.6050 C   0  0  0  0  0  0  0  0  0  0  0  0
  -21.3960  -29.3400   22.4740 N   0  0  0  0  0  0  0  0  0  0  0  0
  -23.3950  -28.8910   23.4290 O   0  0  0  0  0  0  0  0  0  0  0  0
  -20.9110  -29.8950   21.7830 H   0  0  0  0  0  0  0  0  0  0  0  0
  -18.0160  -28.1380   22.9570 C   0  0  0  0  0  0  0  0  0  0  0  0
  -20.5730  -28.4050   23.2440 C   0  0  0  0  0  3  0  0  0  0  0  0
  -20.6820  -26.9710   22.6760 C   0  0  0  0  0  2  0  0  0  0  0  0
  -19.5870  -26.6410   21.6560 C   0  0  0  0  0  2  0  0  0  0  0  0
  -18.2000  -26.7850   22.2890 C   0  0  0  0  0  2  0  0  0  0  0  0
  -19.1300  -28.9050   23.3910 C   0  0  0  0  0  0  0  0  0  0  0  0
  -18.9030  -30.1700   23.9770 C   0  0  0  0  0  3  0  0  0  0  0  0
  -17.5950  -30.6670   24.1330 C   0  0  0  0  0  3  0  0  0  0  0  0
  -16.4970  -29.8980   23.7140 C   0  0  0  0  0  3  0  0  0  0  0  0
  -16.7080  -28.6350   23.1310 C   0  0  0  0  0  3  0  0  0  0  0  0
  -25.8990  -32.5340   23.9070 C   0  0  0  0  0  3  0  0  0  0  0  0
  -25.6010  -33.9350   24.2370 N   0  0  0  0  0  0  0  0  0  0  0  0
  -25.9160  -34.9850   23.4660 C   0  0  0  0  0  0  0  0  0  0  0  0
  -26.5580  -34.8750   22.4170 O   0  0  0  0  0  0  0  0  0  0  0  0
  -25.0290  -34.0950   25.0530 H   0  0  0  0  0  0  0  0  0  0  0  0
  -24.1760  -36.7770   23.1660 C   0  0  0  0  0  1  0  0  0  0  0  0
  -25.4480  -36.3770   23.9310 C   0  0  0  0  0  3  0  0  0  0  0  0
  -27.6100  -37.2720   24.6750 C   0  0  0  0  0  1  0  0  0  0  0  0
  -26.4750  -37.4290   23.7700 N   0  0  0  0  0  0  0  0  0  0  0  0
  -26.0740  -38.3510   23.9220 H   0  0  0  0  0  0  0  0  0  0  0  0
  -26.4070  -31.7610   25.1850 C   0  0  1  0  0  0  0  0  0  0  0  0
  -25.3110  -31.5340   26.2540 C   0  0  0  0  0  1  0  0  0  0  0  0
  -26.9790  -30.3770   24.7990 C   0  0  0  0  0  1  0  0  0  0  0  0
  -27.5640  -32.5460   25.8470 C   0  0  0  0  0  1  0  0  0  0  0  0
  1  3  1  0
  1  5  1  0
  2  4  1  0
  3  6  1  0
  5 51  1  0
  5  2  1  0
  6 11  1  0
  6  4  1  0
  7  9  2  0
  7 11  1  0
  8 10  1  0
  9 12  1  0
 11  8  2  0
 12 21  1  0
 12 10  2  0
 13 21  1  0
 14 19  1  0
 15 16  1  0
 15 14  1  0
 17 16  1  0
 17 26  1  0
 17 18  1  0
 19 13  1  0
 19 18  1  0
 20 13  2  0
 21 22  1  0
 23 24  2  0
 24 43  1  0
 25 24  1  0
 25 28  1  0
 26 23  1  0
 26 27  1  0
 27 25  2  0
 28 29  1  0
 29 30  2  0
 31 34  1  0
 31 30  1  0
 32 31  2  0
 33 32  1  0
 33 28  2  0
 34 35  1  0
 35 36  1  0
 36 37  2  0
 38 37  1  0
 38 42  1  0
 39 38  2  0
 40 35  2  0
 40 39  1  0
 41 40  1  0
 43 44  1  0
 44 47  1  0
 44 46  1  0
 45 43  2  0
 48 49  1  0
 48 23  1  0
 50 48  1  0
 52 63  2  0
 53 51  1  0
 53 58  1  0
 54 62  1  0
 54 64  1  0
 55 61  1  0
 55 57  1  0
 56 62  1  0
 57 56  1  0
 58 57  2  0
 59 53  2  0
 60 59  1  0
 60 55  2  0
 61 54  1  0
 62 52  1  0
 64 66  2  0
 65 64  1  0
 67 65  1  0
 68 77  2  0
 68 73  1  0
 69 65  1  0
 69 73  1  0
 70 69  1  0
 71 72  1  0
 71 70  1  0
 72 68  1  0
 73 74  2  0
 74 75  1  0
 76 75  2  0
 77 76  1  0
 78 52  1  0
 78 79  1  0
 78 88  1  0
 79 82  1  0
 80 84  1  0
 80 79  1  0
 81 80  2  0
 84 83  1  0
 86 87  1  0
 86 84  1  0
 86 85  1  0
 88 91  1  1
 88 89  1  0
 90 88  1  0
M  ISO  4   5 101  13 100  21 100  51 101
M  END
>  <TORSDO>  (15) 
F 17

>  <SCORE>  (15) 
-15.343

>  <name>  (15) 
14

>  <ligand_id>  (15) 
14

>  <original_smiles>  (15) 
[H]c1c([H])c([H])c2c(c1[H])C([H])([H])C([H])([H])C([H])([H])C2([H])N([H])C(=O)C1([H])N(C(=O)C([H])(N([H])C(=O)C([H])(N([H])C([H])([H])[H])C([H])([H])[H])C(C([H])([H])[H])(C([H])([H])[H])C([H])([H])[H])C([H])([H])c2c([H])c(OC3([H])C([H])([H])C([H])([H])N(c4c([H])c([H])c(N([H])C(=O)N5C([H])([H])C([H])([H])C([H])([H])C([H])(n6nc(-c7c([H])c([H])c(Oc8c([H])c([H])c(F)c([H])c8F)c([H])c7[H])c(C(=O)N([H])[H])c6N([H])[H])C5([H])[H])c([H])c4[H])C([H])([H])C3([H])[H])c([H])c([H])c2C1([H])[H]

>  <smiles>  (15) 
[H]c1c([H])c([H])c2c(c1[H])C([H])([H])C([H])([H])C([H])([H])C2([H])N([H])C(=O)C1([H])N(C(=O)C([H])(N([H])C(=O)C([H])(N([H])C([H])([H])[H])C([H])([H])[H])C(C([H])([H])[H])(C([H])([H])[H])C([H])([H])[H])C([H])([H])c2c([H])c(OC3([H])C([H])([H])C([H])([H])N(c4c([H])c([H])c(N([H])C(=O)N5C([H])([H])C([H])([H])C([H])([H])C([H])(n6nc(-c7c([H])c([H])c(Oc8c([H])c([H])c(F)c([H])c8F)c([H])c7[H])c(C(=O)N([H])[H])c6N([H])[H])C5([H])[H])c([H])c4[H])C([H])([H])C3([H])[H])c([H])c([H])c2C1([H])[H]

$$$$
15:0:0
     RDKit          3D

 93102  0  0  1  0  0  0  0  0999 V2000
  -29.1830  -20.6100   20.7310 C   0  0  0  0  0  3  0  0  0  0  0  0
  -29.8750  -20.5490   18.4440 C   0  0  0  0  0  3  0  0  0  0  0  0
  -29.6940  -18.3900   19.6740 C   0  0  0  0  0  0  0  0  0  0  0  0
  -29.4360  -21.3480   19.5400 C   0  0  0  0  0  0  0  0  0  0  0  0
  -29.2870  -19.1790   20.7920 C   0  0  0  0  0  0  0  0  0  0  0  0
  -30.0070  -19.1300   18.5050 C   0  0  0  0  0  0  0  0  0  0  0  0
  -28.9340  -18.5560   21.9420 F   0  0  0  0  0  0  0  0  0  0  0  0
  -30.3930  -18.4670   17.3880 F   0  0  0  0  0  0  0  0  0  0  0  0
  -28.6580  -24.8340   18.2440 C   0  0  0  0  0  2  0  0  0  0  0  0
  -28.8770  -23.3170   18.0740 C   0  0  0  0  0  2  0  0  0  0  0  0
  -29.0370  -23.8590   20.3960 C   0  0  0  0  0  2  0  0  0  0  0  0
  -28.2300  -25.0350   19.7000 C   0  0  0  0  0  3  0  0  0  0  0  0
  -29.2370  -22.7760   19.3850 N   0  0  0  0  0  0  0  0  0  0  0  0
  -28.3500  -26.4710   20.0970 O   0  0  0  0  0  0  0  0  0  0  0  0
  -24.5570  -31.8530   23.0710 C   0  0  0  0  0  0  0  0  0  0  0  0
  -27.2290  -27.3240   20.0060 C   0  0  0  0  0  0  0  0  0  0  0  0
  -23.3740  -30.4380   21.4310 C   0  0  0  0  0  3  0  0  0  0  0  0
  -24.8460  -28.9190   19.9960 C   0  0  0  0  0  0  0  0  0  0  0  0
  -25.9100  -30.7900   21.2510 C   0  0  0  0  0  2  0  0  0  0  0  0
  -26.0080  -29.4150   20.6000 C   0  0  0  0  0  0  0  0  0  0  0  0
  -27.1990  -28.6270   20.6000 C   0  0  0  0  0  3  0  0  0  0  0  0
  -26.0490  -26.9050   19.3490 C   0  0  0  0  0  3  0  0  0  0  0  0
  -24.8700  -27.6710   19.3610 C   0  0  0  0  0  3  0  0  0  0  0  0
  -23.5970  -29.7730   20.0480 C   0  0  0  0  0  2  0  0  0  0  0  0
  -24.6330  -31.0440   21.9740 N   0  0  0  0  0  0  0  0  0  0  0  0
  -23.4700  -32.1130   23.6060 O   0  0  0  0  0  0  0  0  0  0  0  0
  -22.7290  -29.4070   22.3890 C   0  0  0  0  0  0  0  0  0  0  0  0
  -21.4080  -29.1980   22.2550 N   0  0  0  0  0  0  0  0  0  0  0  0
  -23.4170  -28.8000   23.2150 O   0  0  0  0  0  0  0  0  0  0  0  0
  -20.9120  -29.7420   21.5620 H   0  0  0  0  0  0  0  0  0  0  0  0
  -18.0540  -27.9360   22.7460 C   0  0  0  0  0  0  0  0  0  0  0  0
  -20.6060  -28.2460   23.0250 C   0  0  0  0  0  3  0  0  0  0  0  0
  -20.7380  -26.8160   22.4530 C   0  0  0  0  0  2  0  0  0  0  0  0
  -19.6470  -26.4700   21.4350 C   0  0  0  0  0  2  0  0  0  0  0  0
  -18.2600  -26.5880   22.0740 C   0  0  0  0  0  2  0  0  0  0  0  0
  -19.1550  -28.7210   23.1780 C   0  0  0  0  0  0  0  0  0  0  0  0
  -18.9100  -29.9810   23.7660 C   0  0  0  0  0  3  0  0  0  0  0  0
  -17.5930  -30.4560   23.9260 C   0  0  0  0  0  3  0  0  0  0  0  0
  -16.5060  -29.6680   23.5100 C   0  0  0  0  0  3  0  0  0  0  0  0
  -16.7370  -28.4100   22.9250 C   0  0  0  0  0  3  0  0  0  0  0  0
  -25.8300  -32.5050   23.6910 C   0  0  0  0  0  3  0  0  0  0  0  0
  -25.4810  -33.8800   24.0780 N   0  0  0  0  0  0  0  0  0  0  0  0
  -25.7480  -34.9690   23.3460 C   0  0  0  0  0  0  0  0  0  0  0  0
  -26.3870  -34.9260   22.2910 O   0  0  0  0  0  0  0  0  0  0  0  0
  -24.9080  -33.9850   24.9030 H   0  0  0  0  0  0  0  0  0  0  0  0
  -23.9490  -36.7100   23.1060 C   0  0  0  0  0  1  0  0  0  0  0  0
  -25.2270  -36.3220   23.8670 C   0  0  0  0  0  3  0  0  0  0  0  0
  -27.3440  -37.2620   24.6810 C   0  0  0  0  0  1  0  0  0  0  0  0
  -26.2180  -37.4150   23.7630 N   0  0  0  0  0  0  0  0  0  0  0  0
  -25.7820  -38.3160   23.9430 H   0  0  0  0  0  0  0  0  0  0  0  0
  -26.3960  -31.7070   24.9300 C   0  0  1  0  0  0  0  0  0  0  0  0
  -25.3240  -31.3610   25.9890 C   0  0  0  0  0  1  0  0  0  0  0  0
  -27.0510  -30.3830   24.4750 C   0  0  0  0  0  1  0  0  0  0  0  0
  -27.5060  -32.5330   25.6230 C   0  0  0  0  0  1  0  0  0  0  0  0
  -29.5940  -16.8030   19.6240 C   0  0  0  0  0  2  0  0  0  0  0  0
  -31.0860  -14.7160   19.6720 C   0  0  0  0  0  0  0  0  0  0  0  0
  -30.6620  -12.4450   18.7430 C   0  0  0  0  0  2  0  0  0  0  0  0
  -29.6500  -12.5200   17.5830 C   0  0  0  0  0  2  0  0  0  0  0  0
  -28.2130  -12.4210   18.1230 C   0  0  0  0  0  2  0  0  0  0  0  0
  -27.9580  -13.3730   19.3220 C   0  0  0  0  0  3  0  0  0  0  0  0
  -29.0880  -13.2980   20.3720 C   0  0  0  0  0  2  0  0  0  0  0  0
  -30.3580  -13.5500   19.6790 N   0  0  0  0  0  0  0  0  0  0  0  0
  -32.2070  -14.7390   19.1530 O   0  0  0  0  0  0  0  0  0  0  0  0
  -31.4670  -16.5390   21.2220 C   0  0  0  0  0  1  0  0  0  0  0  0
  -30.5900  -15.8630   20.2640 N   0  0  0  0  0  0  0  0  0  0  0  0
  -25.6960  -14.0810   20.3060 C   0  0  0  0  0  0  0  0  0  0  0  0
  -24.6110  -13.3610   20.7240 C   0  0  0  0  0  0  0  0  0  0  0  0
  -24.9610  -11.9860   20.5600 C   0  0  0  0  0  0  0  0  0  0  0  0
  -26.6430  -13.1490   19.9170 N   0  0  0  0  0  0  0  0  0  0  0  0
  -26.2130  -11.8790   20.1290 N   0  0  0  0  0  0  0  0  0  0  0  0
  -24.1570  -10.7690   20.7330 C   0  0  0  0  0  0  0  0  0  0  0  0
  -24.5450   -9.7480   21.6290 C   0  0  0  0  0  3  0  0  0  0  0  0
  -23.7440   -8.5970   21.7910 C   0  0  0  0  0  3  0  0  0  0  0  0
  -22.5410   -8.4590   21.0600 C   0  0  0  0  0  0  0  0  0  0  0  0
  -22.1720   -9.4680   20.1530 C   0  0  0  0  0  3  0  0  0  0  0  0
  -22.9720  -10.6110   19.9870 C   0  0  0  0  0  3  0  0  0  0  0  0
  -21.7130   -7.3650   21.1340 O   0  0  0  0  0  0  0  0  0  0  0  0
  -21.5830   -6.6390   22.2910 C   0  0  0  0  0  0  0  0  0  0  0  0
  -21.1040   -7.2200   23.4850 C   0  0  0  0  0  3  0  0  0  0  0  0
  -20.9200   -6.4210   24.6310 C   0  0  0  0  0  3  0  0  0  0  0  0
  -21.2040   -5.0440   24.5840 C   0  0  0  0  0  0  0  0  0  0  0  0
  -21.6750   -4.4620   23.3940 C   0  0  0  0  0  3  0  0  0  0  0  0
  -21.8610   -5.2570   22.2500 C   0  0  0  0  0  0  0  0  0  0  0  0
  -22.2950   -4.6890   21.0990 F   0  0  0  0  0  0  0  0  0  0  0  0
  -21.0200   -4.2740   25.6830 F   0  0  0  0  0  0  0  0  0  0  0  0
  -23.2850  -13.9170   21.1550 C   0  0  0  0  0  0  0  0  0  0  0  0
  -22.5940  -13.2250   22.0540 N   0  0  0  0  0  0  0  0  0  0  0  0
  -22.8770  -14.9980   20.7320 O   0  0  0  0  0  0  0  0  0  0  0  0
  -22.9380  -12.3490   22.4170 H   0  0  0  0  0  0  0  0  0  0  0  0
  -21.7060  -13.5780   22.3850 H   0  0  0  0  0  0  0  0  0  0  0  0
  -25.9480  -15.4450   20.2020 N   0  0  0  0  0  0  0  0  0  0  0  0
  -25.2420  -16.1390   20.4220 H   0  0  0  0  0  0  0  0  0  0  0  0
  -26.7830  -15.8460   19.7970 H   0  0  0  0  0  0  0  0  0  0  0  0
  1  5  1  0
  2  6  2  0
  2  4  1  0
  3  5  2  0
  4  1  2  0
  5  7  1  0
  6  3  1  0
  8  6  1  0
  9 12  1  0
 10  9  1  0
 10 13  1  0
 12 14  1  0
 12 11  1  0
 13  4  1  0
 13 11  1  0
 15 26  2  0
 16 14  1  0
 16 21  1  0
 17 25  1  0
 17 27  1  0
 18 24  1  0
 18 20  1  0
 19 25  1  0
 20 21  2  0
 20 19  1  0
 22 23  1  0
 22 16  2  0
 23 18  2  0
 24 17  1  0
 25 15  1  0
 27 29  2  0
 28 27  1  0
 30 28  1  0
 31 40  2  0
 31 36  1  0
 32 28  1  0
 32 36  1  0
 33 32  1  0
 34 35  1  0
 34 33  1  0
 35 31  1  0
 36 37  2  0
 37 38  1  0
 39 38  2  0
 40 39  1  0
 41 15  1  0
 41 42  1  0
 41 51  1  0
 42 45  1  0
 43 47  1  0
 43 42  1  0
 44 43  2  0
 47 46  1  0
 49 47  1  0
 49 50  1  0
 49 48  1  0
 51 54  1  1
 51 52  1  0
 53 51  1  0
 55  3  1  0
 55 65  1  0
 56 62  1  0
 56 65  1  0
 57 62  1  0
 58 59  1  0
 58 57  1  0
 60 59  1  0
 60 69  1  0
 60 61  1  0
 62 61  1  0
 63 56  2  0
 65 64  1  0
 66 67  2  0
 67 86  1  0
 68 67  1  0
 68 71  1  0
 69 70  1  0
 69 66  1  0
 70 68  2  0
 71 72  1  0
 72 73  2  0
 74 77  1  0
 74 73  1  0
 75 74  2  0
 76 75  1  0
 76 71  2  0
 77 78  1  0
 78 79  1  0
 79 80  2  0
 81 80  1  0
 81 85  1  0
 82 81  2  0
 83 78  2  0
 83 82  1  0
 84 83  1  0
 86 87  1  0
 87 90  1  0
 87 89  1  0
 88 86  2  0
 91 66  1  0
 91 92  1  0
 93 91  1  0
M  ISO  4  12 101  14 101  56 100  65 100
M  END
>  <TORSDO>  (16) 
F 18

>  <SCORE>  (16) 
-13.293

>  <name>  (16) 
15

>  <ligand_id>  (16) 
15

>  <original_smiles>  (16) 
[H]c1c([H])c([H])c2c(c1[H])C([H])([H])C([H])([H])C([H])([H])C2([H])N([H])C(=O)C1([H])N(C(=O)C([H])(N([H])C(=O)C([H])(N([H])C([H])([H])[H])C([H])([H])[H])C(C([H])([H])[H])(C([H])([H])[H])C([H])([H])[H])C([H])([H])c2c([H])c(OC3([H])C([H])([H])N(c4c([H])c(F)c(C([H])([H])N(C(=O)N5C([H])([H])C([H])([H])C([H])([H])C([H])(n6nc(-c7c([H])c([H])c(Oc8c([H])c([H])c(F)c([H])c8F)c([H])c7[H])c(C(=O)N([H])[H])c6N([H])[H])C5([H])[H])C([H])([H])[H])c(F)c4[H])C([H])([H])C3([H])[H])c([H])c([H])c2C1([H])[H]

>  <smiles>  (16) 
[H]c1c([H])c([H])c2c(c1[H])C([H])([H])C([H])([H])C([H])([H])C2([H])N([H])C(=O)C1([H])N(C(=O)C([H])(N([H])C(=O)C([H])(N([H])C([H])([H])[H])C([H])([H])[H])C(C([H])([H])[H])(C([H])([H])[H])C([H])([H])[H])C([H])([H])c2c([H])c(OC3([H])C([H])([H])N(c4c([H])c(F)c(C([H])([H])N(C(=O)N5C([H])([H])C([H])([H])C([H])([H])C([H])(n6nc(-c7c([H])c([H])c(Oc8c([H])c([H])c(F)c([H])c8F)c([H])c7[H])c(C(=O)N([H])[H])c6N([H])[H])C5([H])[H])C([H])([H])[H])c(F)c4[H])C([H])([H])C3([H])[H])c([H])c([H])c2C1([H])[H]

$$$$
16:0:0
     RDKit          3D

 90 98  0  0  1  0  0  0  0  0999 V2000
  -28.7720  -19.1630   20.8930 C   0  0  0  0  0  3  0  0  0  0  0  0
  -31.0460  -19.5030   20.2150 C   0  0  0  0  0  3  0  0  0  0  0  0
  -28.5210  -20.5740   20.7480 C   0  0  0  0  0  3  0  0  0  0  0  0
  -30.8010  -20.8990   20.0870 C   0  0  0  0  0  3  0  0  0  0  0  0
  -30.0570  -18.5890   20.6610 C   0  0  0  0  0  0  0  0  0  0  0  0
  -29.5490  -21.4920   20.3820 C   0  0  0  0  0  0  0  0  0  0  0  0
  -29.4710  -22.9300   20.3590 N   0  0  0  0  0  0  0  0  0  0  0  0
  -30.3610  -23.3950   20.1990 H   0  0  0  0  0  0  0  0  0  0  0  0
  -28.3020  -23.8430   20.1570 C   0  0  0  0  0  2  0  0  0  0  0  0
  -28.3450  -25.2450   20.9380 C   0  0  0  0  0  2  0  0  0  0  0  0
  -28.4270  -26.5550   20.2540 O   0  0  0  0  0  0  0  0  0  0  0  0
  -24.6080  -31.9110   23.2580 C   0  0  0  0  0  0  0  0  0  0  0  0
  -27.2950  -27.3750   20.2540 C   0  0  0  0  0  0  0  0  0  0  0  0
  -23.4340  -30.4960   21.6080 C   0  0  0  0  0  3  0  0  0  0  0  0
  -24.9140  -28.9480   20.2100 C   0  0  0  0  0  0  0  0  0  0  0  0
  -25.9710  -30.8410   21.4480 C   0  0  0  0  0  2  0  0  0  0  0  0
  -26.0710  -29.4600   20.8120 C   0  0  0  0  0  0  0  0  0  0  0  0
  -27.2680  -28.6860   20.8190 C   0  0  0  0  0  3  0  0  0  0  0  0
  -26.1190  -26.9020   19.6410 C   0  0  0  0  0  3  0  0  0  0  0  0
  -24.9390  -27.6740   19.6150 C   0  0  0  0  0  3  0  0  0  0  0  0
  -23.6700  -29.8120   20.2350 C   0  0  0  0  0  2  0  0  0  0  0  0
  -24.6900  -31.1000   22.1620 N   0  0  0  0  0  0  0  0  0  0  0  0
  -23.5180  -32.1790   23.7820 O   0  0  0  0  0  0  0  0  0  0  0  0
  -22.7700  -29.4780   22.5660 C   0  0  0  0  0  0  0  0  0  0  0  0
  -21.4470  -29.2930   22.4270 N   0  0  0  0  0  0  0  0  0  0  0  0
  -23.4450  -28.8570   23.3920 O   0  0  0  0  0  0  0  0  0  0  0  0
  -20.9620  -29.8450   21.7340 H   0  0  0  0  0  0  0  0  0  0  0  0
  -18.0690  -28.0950   22.9120 C   0  0  0  0  0  0  0  0  0  0  0  0
  -20.6260  -28.3530   23.1920 C   0  0  0  0  0  3  0  0  0  0  0  0
  -20.7300  -26.9240   22.6110 C   0  0  0  0  0  2  0  0  0  0  0  0
  -19.6320  -26.6050   21.5930 C   0  0  0  0  0  2  0  0  0  0  0  0
  -18.2470  -26.7480   22.2320 C   0  0  0  0  0  2  0  0  0  0  0  0
  -19.1860  -28.8560   23.3490 C   0  0  0  0  0  0  0  0  0  0  0  0
  -18.9640  -30.1160   23.9440 C   0  0  0  0  0  3  0  0  0  0  0  0
  -17.6580  -30.6170   24.1070 C   0  0  0  0  0  3  0  0  0  0  0  0
  -16.5560  -29.8530   23.6870 C   0  0  0  0  0  3  0  0  0  0  0  0
  -16.7610  -28.5950   23.0940 C   0  0  0  0  0  3  0  0  0  0  0  0
  -25.8790  -32.5550   23.8940 C   0  0  0  0  0  3  0  0  0  0  0  0
  -26.3740  -31.8050   25.1910 C   0  0  1  0  0  0  0  0  0  0  0  0
  -25.2630  -31.5800   26.2420 C   0  0  0  0  0  1  0  0  0  0  0  0
  -26.9680  -30.4220   24.8290 C   0  0  0  0  0  1  0  0  0  0  0  0
  -27.5100  -32.6110   25.8620 C   0  0  0  0  0  1  0  0  0  0  0  0
  -25.5620  -33.9570   24.1980 N   0  0  0  0  0  0  0  0  0  0  0  0
  -25.9050  -35.0000   23.4300 C   0  0  0  0  0  0  0  0  0  0  0  0
  -26.5910  -34.8830   22.4110 O   0  0  0  0  0  0  0  0  0  0  0  0
  -24.9540  -34.1220   24.9870 H   0  0  0  0  0  0  0  0  0  0  0  0
  -24.1840  -36.7880   23.0170 C   0  0  0  0  0  1  0  0  0  0  0  0
  -25.4080  -36.3940   23.8590 C   0  0  0  0  0  3  0  0  0  0  0  0
  -27.5230  -37.2930   24.7250 C   0  0  0  0  0  1  0  0  0  0  0  0
  -26.4430  -37.4460   23.7540 N   0  0  0  0  0  0  0  0  0  0  0  0
  -26.0330  -38.3680   23.8770 H   0  0  0  0  0  0  0  0  0  0  0  0
  -30.5180  -17.1410   21.1060 C   0  0  0  0  0  2  0  0  0  0  0  0
  -30.6260  -14.7130   20.2850 C   0  0  0  0  0  0  0  0  0  0  0  0
  -30.3500  -12.5020   19.1750 C   0  0  0  0  0  2  0  0  0  0  0  0
  -29.3870  -12.6380   17.9780 C   0  0  0  0  0  2  0  0  0  0  0  0
  -27.9240  -12.4720   18.4360 C   0  0  0  0  0  2  0  0  0  0  0  0
  -27.5890  -13.3230   19.6910 C   0  0  0  0  0  3  0  0  0  0  0  0
  -28.6700  -13.1770   20.7830 C   0  0  0  0  0  2  0  0  0  0  0  0
  -29.9580  -13.5210   20.1700 N   0  0  0  0  0  0  0  0  0  0  0  0
  -31.8020  -14.8070   19.9250 O   0  0  0  0  0  0  0  0  0  0  0  0
  -29.9190  -15.8330   20.6560 N   0  0  0  0  0  0  0  0  0  0  0  0
  -28.9360  -15.7020   20.8390 H   0  0  0  0  0  0  0  0  0  0  0  0
  -25.2080  -13.9030   20.4540 C   0  0  0  0  0  0  0  0  0  0  0  0
  -24.1520  -13.1230   20.8390 C   0  0  0  0  0  0  0  0  0  0  0  0
  -24.6220  -11.7750   20.8000 C   0  0  0  0  0  0  0  0  0  0  0  0
  -26.2540  -13.0300   20.2020 N   0  0  0  0  0  0  0  0  0  0  0  0
  -25.9080  -11.7440   20.4720 N   0  0  0  0  0  0  0  0  0  0  0  0
  -23.9050  -10.5080   20.9970 C   0  0  0  0  0  0  0  0  0  0  0  0
  -24.3500   -9.5440   21.9290 C   0  0  0  0  0  3  0  0  0  0  0  0
  -23.6320   -8.3430   22.1140 C   0  0  0  0  0  3  0  0  0  0  0  0
  -22.4550   -8.0970   21.3670 C   0  0  0  0  0  0  0  0  0  0  0  0
  -22.0300   -9.0490   20.4250 C   0  0  0  0  0  3  0  0  0  0  0  0
  -22.7490  -10.2420   20.2380 C   0  0  0  0  0  3  0  0  0  0  0  0
  -21.7080   -6.9470   21.4630 O   0  0  0  0  0  0  0  0  0  0  0  0
  -21.6650   -6.2100   22.6190 C   0  0  0  0  0  0  0  0  0  0  0  0
  -21.2200   -6.7630   23.8390 C   0  0  0  0  0  3  0  0  0  0  0  0
  -21.1270   -5.9510   24.9870 C   0  0  0  0  0  3  0  0  0  0  0  0
  -21.4680   -4.5870   24.9150 C   0  0  0  0  0  0  0  0  0  0  0  0
  -21.9060   -4.0330   23.7000 C   0  0  0  0  0  3  0  0  0  0  0  0
  -22.0010   -4.8430   22.5540 C   0  0  0  0  0  0  0  0  0  0  0  0
  -22.4040   -4.2990   21.3800 F   0  0  0  0  0  0  0  0  0  0  0  0
  -21.3700   -3.8050   26.0160 F   0  0  0  0  0  0  0  0  0  0  0  0
  -22.7560  -13.5930   21.1310 C   0  0  0  0  0  0  0  0  0  0  0  0
  -22.0430  -12.8890   22.0040 N   0  0  0  0  0  0  0  0  0  0  0  0
  -22.3080  -14.6180   20.6210 O   0  0  0  0  0  0  0  0  0  0  0  0
  -22.4210  -12.0600   22.4380 H   0  0  0  0  0  0  0  0  0  0  0  0
  -21.1080  -13.1850   22.2430 H   0  0  0  0  0  0  0  0  0  0  0  0
  -25.3620  -15.2750   20.2740 N   0  0  0  0  0  0  0  0  0  0  0  0
  -24.5890  -15.9220   20.3890 H   0  0  0  0  0  0  0  0  0  0  0  0
  -26.1930  -15.7160   19.9020 H   0  0  0  0  0  0  0  0  0  0  0  0
  2  5  1  0
  3  1  1  0
  4  2  2  0
  4  6  1  0
  5  1  2  0
  5 52  1  0
  6  3  2  0
  7  6  1  0
  8  7  1  0
  9  7  1  0
  9 10  1  0
 11 13  1  0
 11 10  1  0
 12 23  2  0
 13 18  1  0
 14 22  1  0
 14 24  1  0
 15 21  1  0
 15 17  1  0
 16 22  1  0
 17 18  2  0
 17 16  1  0
 19 13  2  0
 20 19  1  0
 20 15  2  0
 21 14  1  0
 22 12  1  0
 24 26  2  0
 25 24  1  0
 27 25  1  0
 28 37  2  0
 28 33  1  0
 29 25  1  0
 29 33  1  0
 30 29  1  0
 31 32  1  0
 31 30  1  0
 32 28  1  0
 33 34  2  0
 34 35  1  0
 36 35  2  0
 37 36  1  0
 38 12  1  0
 38 43  1  0
 38 39  1  0
 39 42  1  1
 39 40  1  0
 41 39  1  0
 43 46  1  0
 44 48  1  0
 44 43  1  0
 45 44  2  0
 48 47  1  0
 50 48  1  0
 50 51  1  0
 50 49  1  0
 53 61  1  0
 54 59  1  0
 55 56  1  0
 55 54  1  0
 57 56  1  0
 57 66  1  0
 57 58  1  0
 59 53  1  0
 59 58  1  0
 60 53  2  0
 61 62  1  0
 61 52  1  0
 63 64  2  0
 64 83  1  0
 65 64  1  0
 65 68  1  0
 66 63  1  0
 66 67  1  0
 67 65  2  0
 68 69  1  0
 69 70  2  0
 71 74  1  0
 71 70  1  0
 72 71  2  0
 73 72  1  0
 73 68  2  0
 74 75  1  0
 75 76  1  0
 76 77  2  0
 78 77  1  0
 78 82  1  0
 79 78  2  0
 80 75  2  0
 80 79  1  0
 81 80  1  0
 83 84  1  0
 84 87  1  0
 84 86  1  0
 85 83  2  0
 88 89  1  0
 88 63  1  0
 90 88  1  0
M  ISO  4  10 101  11 101  53 100  61 100
M  END
>  <TORSDO>  (17) 
F 20

>  <SCORE>  (17) 
-13.714

>  <name>  (17) 
16

>  <ligand_id>  (17) 
16

>  <original_smiles>  (17) 
[H]c1c([H])c([H])c2c(c1[H])C([H])([H])C([H])([H])C([H])([H])C2([H])N([H])C(=O)C1([H])N(C(=O)C([H])(N([H])C(=O)C([H])(N([H])C([H])([H])[H])C([H])([H])[H])C(C([H])([H])[H])(C([H])([H])[H])C([H])([H])[H])C([H])([H])c2c([H])c(OC([H])([H])C([H])([H])N([H])c3c([H])c([H])c(C([H])([H])N([H])C(=O)N4C([H])([H])C([H])([H])C([H])([H])C([H])(n5nc(-c6c([H])c([H])c(Oc7c([H])c([H])c(F)c([H])c7F)c([H])c6[H])c(C(=O)N([H])[H])c5N([H])[H])C4([H])[H])c([H])c3[H])c([H])c([H])c2C1([H])[H]

>  <smiles>  (17) 
[H]c1c([H])c([H])c2c(c1[H])C([H])([H])C([H])([H])C([H])([H])C2([H])N([H])C(=O)C1([H])N(C(=O)C([H])(N([H])C(=O)C([H])(N([H])C([H])([H])[H])C([H])([H])[H])C(C([H])([H])[H])(C([H])([H])[H])C([H])([H])[H])C([H])([H])c2c([H])c(OC([H])([H])C([H])([H])N([H])c3c([H])c([H])c(C([H])([H])N([H])C(=O)N4C([H])([H])C([H])([H])C([H])([H])C([H])(n5nc(-c6c([H])c([H])c(Oc7c([H])c([H])c(F)c([H])c7F)c([H])c6[H])c(C(=O)N([H])[H])c5N([H])[H])C4([H])[H])c([H])c3[H])c([H])c([H])c2C1([H])[H]

$$$$
17:0:0
     RDKit          3D

 89 97  0  0  1  0  0  0  0  0999 V2000
  -30.5460  -18.6110   20.2210 C   0  0  0  0  0  3  0  0  0  0  0  0
  -30.2410  -20.0490   20.1530 C   0  0  0  0  0  3  0  0  0  0  0  0
  -27.9440  -19.5450   20.2350 C   0  0  0  0  0  3  0  0  0  0  0  0
  -29.5460  -17.5730   20.3030 C   0  0  0  0  0  0  0  0  0  0  0  0
  -28.9050  -20.5990   20.1510 C   0  0  0  0  0  0  0  0  0  0  0  0
  -28.2360  -18.1370   20.3130 C   0  0  0  0  0  0  0  0  0  0  0  0
  -27.1940  -17.2770   20.3970 F   0  0  0  0  0  0  0  0  0  0  0  0
  -30.4790  -14.9550   20.1290 C   0  0  0  0  0  0  0  0  0  0  0  0
  -30.3510  -12.6130   19.1660 C   0  0  0  0  0  2  0  0  0  0  0  0
  -29.3720  -12.5990   17.9670 C   0  0  0  0  0  2  0  0  0  0  0  0
  -27.9180  -12.4040   18.4410 C   0  0  0  0  0  2  0  0  0  0  0  0
  -27.5580  -13.3160   19.6440 C   0  0  0  0  0  3  0  0  0  0  0  0
  -28.6500  -13.2740   20.7360 C   0  0  0  0  0  2  0  0  0  0  0  0
  -29.9140  -13.6830   20.1040 N   0  0  0  0  0  0  0  0  0  0  0  0
  -31.6550  -15.0810   19.7700 O   0  0  0  0  0  0  0  0  0  0  0  0
  -29.6270  -16.0470   20.4000 N   0  0  0  0  0  0  0  0  0  0  0  0
  -28.7250  -15.6830   20.6710 H   0  0  0  0  0  0  0  0  0  0  0  0
  -25.1940  -13.9040   20.4450 C   0  0  0  0  0  0  0  0  0  0  0  0
  -24.1370  -13.1330   20.8380 C   0  0  0  0  0  0  0  0  0  0  0  0
  -24.5940  -11.7800   20.7890 C   0  0  0  0  0  0  0  0  0  0  0  0
  -26.2300  -13.0240   20.1760 N   0  0  0  0  0  0  0  0  0  0  0  0
  -25.8770  -11.7400   20.4460 N   0  0  0  0  0  0  0  0  0  0  0  0
  -23.8650  -10.5230   20.9920 C   0  0  0  0  0  0  0  0  0  0  0  0
  -24.3170   -9.5480   21.9100 C   0  0  0  0  0  3  0  0  0  0  0  0
  -23.5870   -8.3550   22.1020 C   0  0  0  0  0  3  0  0  0  0  0  0
  -22.3920   -8.1280   21.3780 C   0  0  0  0  0  0  0  0  0  0  0  0
  -21.9590   -9.0920   20.4510 C   0  0  0  0  0  3  0  0  0  0  0  0
  -22.6900  -10.2770   20.2560 C   0  0  0  0  0  3  0  0  0  0  0  0
  -21.6330   -6.9880   21.4810 O   0  0  0  0  0  0  0  0  0  0  0  0
  -21.6050   -6.2440   22.6330 C   0  0  0  0  0  0  0  0  0  0  0  0
  -21.2010   -6.7960   23.8670 C   0  0  0  0  0  3  0  0  0  0  0  0
  -21.1210   -5.9770   25.0120 C   0  0  0  0  0  3  0  0  0  0  0  0
  -21.4330   -4.6080   24.9230 C   0  0  0  0  0  0  0  0  0  0  0  0
  -21.8300   -4.0550   23.6920 C   0  0  0  0  0  3  0  0  0  0  0  0
  -21.9130   -4.8710   22.5500 C   0  0  0  0  0  0  0  0  0  0  0  0
  -22.2750   -4.3280   21.3630 F   0  0  0  0  0  0  0  0  0  0  0  0
  -21.3480   -3.8200   26.0200 F   0  0  0  0  0  0  0  0  0  0  0  0
  -22.7500  -13.6170   21.1520 C   0  0  0  0  0  0  0  0  0  0  0  0
  -22.0480  -12.9280   22.0450 N   0  0  0  0  0  0  0  0  0  0  0  0
  -22.3010  -14.6440   20.6440 O   0  0  0  0  0  0  0  0  0  0  0  0
  -22.4240  -12.0990   22.4790 H   0  0  0  0  0  0  0  0  0  0  0  0
  -21.1200  -13.2360   22.2990 H   0  0  0  0  0  0  0  0  0  0  0  0
  -25.3460  -15.2740   20.2760 N   0  0  0  0  0  0  0  0  0  0  0  0
  -24.5840  -15.9140   20.4630 H   0  0  0  0  0  0  0  0  0  0  0  0
  -26.2120  -15.7600   20.0740 H   0  0  0  0  0  0  0  0  0  0  0  0
  -28.3840  -21.9650   20.0490 O   0  0  0  0  0  0  0  0  0  0  0  0
  -29.0000  -23.3650   20.1000 C   0  0  0  0  0  3  0  0  0  0  0  0
  -28.0120  -24.7130   19.8800 C   0  0  0  0  0  3  0  0  0  0  0  0
  -28.2930  -26.2290   20.0810 O   0  0  0  0  0  0  0  0  0  0  0  0
  -24.6330  -31.8210   23.1810 C   0  0  0  0  0  0  0  0  0  0  0  0
  -27.2260  -27.2010   20.0390 C   0  0  0  0  0  0  0  0  0  0  0  0
  -23.4360  -30.4670   21.5040 C   0  0  0  0  0  3  0  0  0  0  0  0
  -24.8900  -28.9320   20.0450 C   0  0  0  0  0  0  0  0  0  0  0  0
  -25.9900  -30.7420   21.3520 C   0  0  0  0  0  2  0  0  0  0  0  0
  -26.0680  -29.3680   20.6650 C   0  0  0  0  0  0  0  0  0  0  0  0
  -27.2360  -28.5200   20.6450 C   0  0  0  0  0  3  0  0  0  0  0  0
  -26.0190  -26.8630   19.3860 C   0  0  0  0  0  3  0  0  0  0  0  0
  -24.8780  -27.6930   19.3910 C   0  0  0  0  0  3  0  0  0  0  0  0
  -23.6610  -29.8260   20.1100 C   0  0  0  0  0  2  0  0  0  0  0  0
  -24.7060  -31.0300   22.0680 N   0  0  0  0  0  0  0  0  0  0  0  0
  -23.5450  -32.0930   23.7130 O   0  0  0  0  0  0  0  0  0  0  0  0
  -22.7570  -29.4350   22.4380 C   0  0  0  0  0  0  0  0  0  0  0  0
  -21.4250  -29.2850   22.3200 N   0  0  0  0  0  0  0  0  0  0  0  0
  -23.4290  -28.7740   23.2330 O   0  0  0  0  0  0  0  0  0  0  0  0
  -20.9390  -29.8710   21.6550 H   0  0  0  0  0  0  0  0  0  0  0  0
  -18.0300  -28.1400   22.8450 C   0  0  0  0  0  0  0  0  0  0  0  0
  -20.5990  -28.3340   23.0680 C   0  0  0  0  0  3  0  0  0  0  0  0
  -20.6560  -26.9260   22.4340 C   0  0  0  0  0  2  0  0  0  0  0  0
  -19.5270  -26.6710   21.4290 C   0  0  0  0  0  2  0  0  0  0  0  0
  -18.1620  -26.8190   22.1080 C   0  0  0  0  0  2  0  0  0  0  0  0
  -19.1730  -28.8600   23.2820 C   0  0  0  0  0  0  0  0  0  0  0  0
  -18.9940  -30.1000   23.9330 C   0  0  0  0  0  3  0  0  0  0  0  0
  -17.7040  -30.6200   24.1510 C   0  0  0  0  0  3  0  0  0  0  0  0
  -16.5750  -29.8960   23.7290 C   0  0  0  0  0  3  0  0  0  0  0  0
  -16.7390  -28.6580   23.0810 C   0  0  0  0  0  3  0  0  0  0  0  0
  -25.9100  -32.4410   23.8260 C   0  0  0  0  0  3  0  0  0  0  0  0
  -26.4050  -31.6510   25.1000 C   0  0  1  0  0  0  0  0  0  0  0  0
  -25.2980  -31.4130   26.1540 C   0  0  0  0  0  1  0  0  0  0  0  0
  -26.9800  -30.2730   24.7020 C   0  0  0  0  0  1  0  0  0  0  0  0
  -27.5560  -32.4270   25.7810 C   0  0  0  0  0  1  0  0  0  0  0  0
  -25.6030  -33.8370   24.1750 N   0  0  0  0  0  0  0  0  0  0  0  0
  -25.9270  -34.9010   23.4290 C   0  0  0  0  0  0  0  0  0  0  0  0
  -26.5820  -34.8090   22.3880 O   0  0  0  0  0  0  0  0  0  0  0  0
  -25.0210  -33.9810   24.9880 H   0  0  0  0  0  0  0  0  0  0  0  0
  -24.1860  -36.6940   23.1380 C   0  0  0  0  0  1  0  0  0  0  0  0
  -25.4500  -36.2840   23.9120 C   0  0  0  0  0  3  0  0  0  0  0  0
  -27.6020  -37.1710   24.6960 C   0  0  0  0  0  1  0  0  0  0  0  0
  -26.4770  -37.3420   23.7800 N   0  0  0  0  0  0  0  0  0  0  0  0
  -26.0720  -38.2600   23.9440 H   0  0  0  0  0  0  0  0  0  0  0  0
  1  4  1  0
  2  1  2  0
  3  6  1  0
  4  6  2  0
  4 16  1  0
  5  2  1  0
  5  3  2  0
  6  7  1  0
  8 16  1  0
  9 14  1  0
 10 11  1  0
 10  9  1  0
 12 11  1  0
 12 21  1  0
 12 13  1  0
 14  8  1  0
 14 13  1  0
 15  8  2  0
 16 17  1  0
 18 19  2  0
 19 38  1  0
 20 19  1  0
 20 23  1  0
 21 18  1  0
 21 22  1  0
 22 20  2  0
 23 24  1  0
 24 25  2  0
 26 29  1  0
 26 25  1  0
 27 26  2  0
 28 27  1  0
 28 23  2  0
 29 30  1  0
 30 31  1  0
 31 32  2  0
 33 32  1  0
 33 37  1  0
 34 33  2  0
 35 30  2  0
 35 34  1  0
 36 35  1  0
 38 39  1  0
 39 42  1  0
 39 41  1  0
 40 38  2  0
 43 18  1  0
 43 44  1  0
 45 43  1  0
 46 47  1  0
 46  5  1  0
 48 49  1  0
 48 47  2  0
 50 61  2  0
 51 49  1  0
 51 56  1  0
 52 60  1  0
 52 62  1  0
 53 59  1  0
 53 55  1  0
 54 60  1  0
 55 54  1  0
 56 55  2  0
 57 58  1  0
 57 51  2  0
 58 53  2  0
 59 52  1  0
 60 50  1  0
 62 64  2  0
 63 62  1  0
 65 63  1  0
 66 75  2  0
 66 71  1  0
 67 63  1  0
 67 71  1  0
 68 67  1  0
 69 70  1  0
 69 68  1  0
 70 66  1  0
 71 72  2  0
 72 73  1  0
 74 73  2  0
 75 74  1  0
 76 50  1  0
 76 81  1  0
 76 77  1  0
 77 80  1  1
 77 78  1  0
 79 77  1  0
 81 84  1  0
 82 86  1  0
 82 81  1  0
 83 82  2  0
 86 85  1  0
 88 86  1  0
 88 89  1  0
 88 87  1  0
M  ISO  4   8 100  16 100  48 101  49 101
M  END
>  <TORSDO>  (18) 
F 19

>  <SCORE>  (18) 
-14.356

>  <name>  (18) 
17

>  <ligand_id>  (18) 
17

>  <original_smiles>  (18) 
[H]c1c([H])c([H])c2c(c1[H])C([H])([H])C([H])([H])C([H])([H])C2([H])N([H])C(=O)C1([H])N(C(=O)C([H])(N([H])C(=O)C([H])(N([H])C([H])([H])[H])C([H])([H])[H])C(C([H])([H])[H])(C([H])([H])[H])C([H])([H])[H])C([H])([H])c2c([H])c(OC([H])([H])C([H])([H])Oc3c([H])c([H])c(N([H])C(=O)N4C([H])([H])C([H])([H])C([H])([H])C([H])(n5nc(-c6c([H])c([H])c(Oc7c([H])c([H])c(F)c([H])c7F)c([H])c6[H])c(C(=O)N([H])[H])c5N([H])[H])C4([H])[H])c(F)c3[H])c([H])c([H])c2C1([H])[H]

>  <smiles>  (18) 
[H]c1c([H])c([H])c2c(c1[H])C([H])([H])C([H])([H])C([H])([H])C2([H])N([H])C(=O)C1([H])N(C(=O)C([H])(N([H])C(=O)C([H])(N([H])C([H])([H])[H])C([H])([H])[H])C(C([H])([H])[H])(C([H])([H])[H])C([H])([H])[H])C([H])([H])c2c([H])c(OC([H])([H])C([H])([H])Oc3c([H])c([H])c(N([H])C(=O)N4C([H])([H])C([H])([H])C([H])([H])C([H])(n5nc(-c6c([H])c([H])c(Oc7c([H])c([H])c(F)c([H])c7F)c([H])c6[H])c(C(=O)N([H])[H])c5N([H])[H])C4([H])[H])c(F)c3[H])c([H])c([H])c2C1([H])[H]

$$$$
18:0:0
     RDKit          3D

 99109  0  0  1  0  0  0  0  0999 V2000
  -28.9830  -22.6240   19.3750 C   0  0  0  0  0  3  0  0  0  0  0  0
  -28.5550  -21.4580   20.0540 C   0  0  0  0  0  3  0  0  0  0  0  0
  -31.2700  -22.1120   19.9710 C   0  0  0  0  0  3  0  0  0  0  0  0
  -30.3570  -22.9250   19.2760 C   0  0  0  0  0  0  0  0  0  0  0  0
  -29.4760  -20.5660   20.6660 C   0  0  0  0  0  0  0  0  0  0  0  0
  -30.8460  -20.9610   20.6660 C   0  0  0  0  0  0  0  0  0  0  0  0
  -31.8070  -20.2350   21.2860 F   0  0  0  0  0  0  0  0  0  0  0  0
  -30.6850  -17.4820   21.3210 C   0  0  0  0  0  2  0  0  0  0  0  0
  -28.8660  -17.5250   19.5700 C   0  0  0  0  0  2  0  0  0  0  0  0
  -29.8400  -18.5160   22.1130 C   0  0  0  0  0  2  0  0  0  0  0  0
  -28.0810  -18.5160   20.4470 C   0  0  0  0  0  2  0  0  0  0  0  0
  -29.8020  -16.5940   20.4060 C   0  0  0  0  0  3  0  0  0  0  0  0
  -29.0050  -19.3420   21.2330 N   0  0  0  0  0  0  0  0  0  0  0  0
  -31.2490  -14.5490   20.0400 C   0  0  0  0  0  0  0  0  0  0  0  0
  -30.7930  -12.4230   18.9200 C   0  0  0  0  0  2  0  0  0  0  0  0
  -29.7870  -12.6880   17.7830 C   0  0  0  0  0  2  0  0  0  0  0  0
  -28.3360  -12.6060   18.2970 C   0  0  0  0  0  2  0  0  0  0  0  0
  -28.1050  -13.4080   19.6090 C   0  0  0  0  0  3  0  0  0  0  0  0
  -29.2280  -13.1450   20.6370 C   0  0  0  0  0  2  0  0  0  0  0  0
  -30.5050  -13.4120   19.9690 N   0  0  0  0  0  0  0  0  0  0  0  0
  -32.4710  -14.5240   19.8710 O   0  0  0  0  0  0  0  0  0  0  0  0
  -31.0990  -16.2270   18.2970 C   0  0  0  0  0  1  0  0  0  0  0  0
  -30.6020  -15.6560   19.5690 N   0  0  0  0  0  0  0  0  0  0  0  0
  -25.7720  -14.0610   20.4740 C   0  0  0  0  0  0  0  0  0  0  0  0
  -24.6980  -13.3130   20.8650 C   0  0  0  0  0  0  0  0  0  0  0  0
  -25.1110  -11.9470   20.7710 C   0  0  0  0  0  0  0  0  0  0  0  0
  -26.7760  -13.1570   20.1620 N   0  0  0  0  0  0  0  0  0  0  0  0
  -26.3830  -11.8780   20.3990 N   0  0  0  0  0  0  0  0  0  0  0  0
  -24.3520  -10.7060   20.9550 C   0  0  0  0  0  0  0  0  0  0  0  0
  -24.7440   -9.7370   21.9040 C   0  0  0  0  0  3  0  0  0  0  0  0
  -23.9870   -8.5590   22.0780 C   0  0  0  0  0  3  0  0  0  0  0  0
  -22.8240   -8.3380   21.3010 C   0  0  0  0  0  0  0  0  0  0  0  0
  -22.4540   -9.2940   20.3390 C   0  0  0  0  0  3  0  0  0  0  0  0
  -23.2110  -10.4650   20.1640 C   0  0  0  0  0  3  0  0  0  0  0  0
  -22.0470   -7.2060   21.3780 O   0  0  0  0  0  0  0  0  0  0  0  0
  -21.8830   -6.5250   22.5570 C   0  0  0  0  0  0  0  0  0  0  0  0
  -21.3490   -7.1460   23.7070 C   0  0  0  0  0  3  0  0  0  0  0  0
  -21.1340   -6.3930   24.8780 C   0  0  0  0  0  3  0  0  0  0  0  0
  -21.4400   -5.0190   24.8990 C   0  0  0  0  0  0  0  0  0  0  0  0
  -21.9660   -4.3980   23.7520 C   0  0  0  0  0  3  0  0  0  0  0  0
  -22.1840   -5.1490   22.5850 C   0  0  0  0  0  0  0  0  0  0  0  0
  -22.6740   -4.5410   21.4770 F   0  0  0  0  0  0  0  0  0  0  0  0
  -21.2270   -4.2930   26.0220 F   0  0  0  0  0  0  0  0  0  0  0  0
  -23.3310  -13.8270   21.2150 C   0  0  0  0  0  0  0  0  0  0  0  0
  -22.6280  -13.1330   22.1030 N   0  0  0  0  0  0  0  0  0  0  0  0
  -22.8950  -14.8740   20.7340 O   0  0  0  0  0  0  0  0  0  0  0  0
  -22.9900  -12.2850   22.5180 H   0  0  0  0  0  0  0  0  0  0  0  0
  -21.7100  -13.4530   22.3730 H   0  0  0  0  0  0  0  0  0  0  0  0
  -25.9660  -15.4330   20.3270 N   0  0  0  0  0  0  0  0  0  0  0  0
  -25.2140  -16.0900   20.4870 H   0  0  0  0  0  0  0  0  0  0  0  0
  -26.8020  -15.8630   19.9580 H   0  0  0  0  0  0  0  0  0  0  0  0
  -30.8840  -24.0120   18.3310 C   0  0  0  0  0  2  0  0  0  0  0  0
  -30.5800  -27.0730   20.5060 C   0  0  0  0  0  2  0  0  0  0  0  0
  -31.0250  -25.6190   20.3160 C   0  0  0  0  0  2  0  0  0  0  0  0
  -30.2250  -26.4430   18.2030 C   0  0  0  0  0  2  0  0  0  0  0  0
  -29.6400  -27.3030   19.3250 C   0  0  0  0  0  3  0  0  0  0  0  0
  -31.0600  -25.3990   18.8520 N   0  0  2  0  0  4  0  0  0  0  0  0
  -32.0010  -25.6370   18.5680 H   0  0  0  0  0  0  0  0  0  0  0  0
  -28.3860  -26.7040   19.6030 O   0  0  0  0  0  0  0  0  0  0  0  0
  -24.6060  -31.7190   23.0450 C   0  0  0  0  0  0  0  0  0  0  0  0
  -27.2650  -27.4880   19.7160 C   0  0  0  0  0  0  0  0  0  0  0  0
  -23.3830  -30.3400   21.3950 C   0  0  0  0  0  3  0  0  0  0  0  0
  -24.8270  -28.8940   19.8720 C   0  0  0  0  0  0  0  0  0  0  0  0
  -25.8850  -30.7890   21.1210 C   0  0  0  0  0  2  0  0  0  0  0  0
  -25.9910  -29.4440   20.4300 C   0  0  0  0  0  0  0  0  0  0  0  0
  -27.2160  -28.7470   20.3560 C   0  0  0  0  0  3  0  0  0  0  0  0
  -26.0850  -26.9420   19.1760 C   0  0  0  0  0  3  0  0  0  0  0  0
  -24.8650  -27.6360   19.2480 C   0  0  0  0  0  3  0  0  0  0  0  0
  -23.5640  -29.7140   19.9850 C   0  0  0  0  0  2  0  0  0  0  0  0
  -24.6450  -30.9610   21.9130 N   0  0  0  0  0  0  0  0  0  0  0  0
  -23.5370  -31.9390   23.6310 O   0  0  0  0  0  0  0  0  0  0  0  0
  -22.7900  -29.2690   22.3380 C   0  0  0  0  0  0  0  0  0  0  0  0
  -21.4710  -29.0440   22.2270 N   0  0  0  0  0  0  0  0  0  0  0  0
  -23.5100  -28.6440   23.1220 O   0  0  0  0  0  0  0  0  0  0  0  0
  -20.9510  -29.6080   21.5720 H   0  0  0  0  0  0  0  0  0  0  0  0
  -18.1510  -27.7020   22.7240 C   0  0  0  0  0  0  0  0  0  0  0  0
  -20.6970  -28.0560   22.9820 C   0  0  0  0  0  3  0  0  0  0  0  0
  -20.8530  -26.6430   22.3730 C   0  0  0  0  0  2  0  0  0  0  0  0
  -19.7550  -26.2970   21.3620 C   0  0  0  0  0  2  0  0  0  0  0  0
  -18.3740  -26.3740   22.0200 C   0  0  0  0  0  2  0  0  0  0  0  0
  -19.2420  -28.4980   23.1610 C   0  0  0  0  0  0  0  0  0  0  0  0
  -18.9790  -29.7390   23.7820 C   0  0  0  0  0  3  0  0  0  0  0  0
  -17.6580  -30.1870   23.9670 C   0  0  0  0  0  3  0  0  0  0  0  0
  -16.5810  -29.3860   23.5490 C   0  0  0  0  0  3  0  0  0  0  0  0
  -16.8280  -28.1450   22.9350 C   0  0  0  0  0  3  0  0  0  0  0  0
  -25.8940  -32.3580   23.6490 C   0  0  0  0  0  3  0  0  0  0  0  0
  -26.4830  -31.5480   24.8650 C   0  0  1  0  0  0  0  0  0  0  0  0
  -25.4410  -31.2260   25.9630 C   0  0  0  0  0  1  0  0  0  0  0  0
  -27.0830  -30.2080   24.3770 C   0  0  0  0  0  1  0  0  0  0  0  0
  -27.6370  -32.3430   25.5180 C   0  0  0  0  0  1  0  0  0  0  0  0
  -25.5630  -33.7320   24.0500 N   0  0  0  0  0  0  0  0  0  0  0  0
  -25.8620  -34.8250   23.3350 C   0  0  0  0  0  0  0  0  0  0  0  0
  -26.5160  -34.7850   22.2890 O   0  0  0  0  0  0  0  0  0  0  0  0
  -24.9790  -33.8380   24.8660 H   0  0  0  0  0  0  0  0  0  0  0  0
  -24.1040  -36.6050   23.0700 C   0  0  0  0  0  1  0  0  0  0  0  0
  -25.3500  -36.1820   23.8640 C   0  0  0  0  0  3  0  0  0  0  0  0
  -27.4650  -37.0530   24.7520 C   0  0  0  0  0  1  0  0  0  0  0  0
  -26.3670  -37.2540   23.8100 N   0  0  0  0  0  0  0  0  0  0  0  0
  -25.9490  -38.1570   24.0070 H   0  0  0  0  0  0  0  0  0  0  0  0
  1  2  1  0
  2  5  2  0
  3  6  2  0
  4  1  2  0
  4  3  1  0
  5  6  1  0
  5 13  1  0
  6  7  1  0
  8 10  1  0
  9 12  1  0
  9 11  1  0
 11 13  1  0
 12 23  1  0
 12  8  1  0
 13 10  1  0
 15 20  1  0
 16 17  1  0
 16 15  1  0
 18 17  1  0
 18 27  1  0
 18 19  1  0
 20 14  1  0
 20 19  1  0
 21 14  2  0
 22 23  1  0
 23 14  1  0
 24 25  2  0
 25 44  1  0
 26 25  1  0
 26 29  1  0
 27 28  1  0
 27 24  1  0
 28 26  2  0
 29 30  1  0
 30 31  2  0
 32 35  1  0
 32 31  1  0
 33 32  2  0
 34 33  1  0
 34 29  2  0
 35 36  1  0
 36 41  2  0
 36 37  1  0
 37 38  2  0
 38 39  1  0
 39 43  1  0
 40 39  2  0
 41 40  1  0
 42 41  1  0
 44 45  1  0
 45 48  1  0
 45 47  1  0
 46 44  2  0
 49 24  1  0
 49 50  1  0
 51 49  1  0
 52 57  1  0
 52  4  1  0
 54 53  1  0
 55 57  1  0
 55 56  1  0
 56 59  1  0
 56 53  1  0
 57 54  1  0
 57 58  1  6
 59 61  1  0
 60 71  2  0
 61 66  1  0
 62 70  1  0
 62 72  1  0
 63 69  1  0
 63 65  1  0
 64 70  1  0
 65 64  1  0
 66 65  2  0
 67 68  1  0
 67 61  2  0
 68 63  2  0
 69 62  1  0
 70 60  1  0
 72 74  2  0
 73 72  1  0
 75 73  1  0
 76 85  2  0
 76 81  1  0
 77 73  1  0
 77 81  1  0
 78 77  1  0
 79 80  1  0
 79 78  1  0
 80 76  1  0
 81 82  2  0
 82 83  1  0
 84 83  2  0
 85 84  1  0
 86 60  1  0
 86 91  1  0
 86 87  1  0
 87 90  1  1
 87 88  1  0
 89 87  1  0
 91 94  1  0
 92 96  1  0
 92 91  1  0
 93 92  2  0
 96 95  1  0
 98 96  1  0
 98 99  1  0
 98 97  1  0
M  ISO  4  14 100  23 100  56 101  59 101
M  END
>  <TORSDO>  (19) 
F 19

>  <SCORE>  (19) 
-12.769

>  <name>  (19) 
18

>  <ligand_id>  (19) 
18

>  <original_smiles>  (19) 
[H]c1c([H])c([H])c2c(c1[H])C([H])([H])C([H])([H])C([H])([H])C2([H])N([H])C(=O)C1([H])N(C(=O)C([H])(N([H])C(=O)C([H])(N([H])C([H])([H])[H])C([H])([H])[H])C(C([H])([H])[H])(C([H])([H])[H])C([H])([H])[H])C([H])([H])c2c([H])c(OC3([H])C([H])([H])C([H])([H])[N+]([H])(C([H])([H])c4c([H])c([H])c(N5C([H])([H])C([H])([H])C([H])(N(C(=O)N6C([H])([H])C([H])([H])C([H])([H])C([H])(n7nc(-c8c([H])c([H])c(Oc9c([H])c([H])c(F)c([H])c9F)c([H])c8[H])c(C(=O)N([H])[H])c7N([H])[H])C6([H])[H])C([H])([H])[H])C([H])([H])C5([H])[H])c(F)c4[H])C3([H])[H])c([H])c([H])c2C1([H])[H]

>  <smiles>  (19) 
[H]c1c([H])c([H])c2c(c1[H])C([H])([H])C([H])([H])C([H])([H])C2([H])N([H])C(=O)C1([H])N(C(=O)C([H])(N([H])C(=O)C([H])(N([H])C([H])([H])[H])C([H])([H])[H])C(C([H])([H])[H])(C([H])([H])[H])C([H])([H])[H])C([H])([H])c2c([H])c(OC3([H])C([H])([H])C([H])([H])[N+]([H])(C([H])([H])c4c([H])c([H])c(N5C([H])([H])C([H])([H])C([H])(N(C(=O)N6C([H])([H])C([H])([H])C([H])([H])C([H])(n7nc(-c8c([H])c([H])c(Oc9c([H])c([H])c(F)c([H])c9F)c([H])c8[H])c(C(=O)N([H])[H])c7N([H])[H])C6([H])[H])C([H])([H])[H])C([H])([H])C5([H])[H])c(F)c4[H])C3([H])[H])c([H])c([H])c2C1([H])[H]

$$$$
19:0:0
     RDKit          3D

 92101  0  0  1  0  0  0  0  0999 V2000
  -27.3940  -24.2930   21.0070 C   0  0  0  0  0  2  0  0  0  0  0  0
  -27.7480  -22.8020   20.7870 C   0  0  0  0  0  2  0  0  0  0  0  0
  -29.4930  -24.1580   19.9160 C   0  0  0  0  0  2  0  0  0  0  0  0
  -28.1970  -25.0500   19.9390 C   0  0  0  0  0  3  0  0  0  0  0  0
  -29.1760  -22.7520   20.3970 N   0  0  2  0  0  4  0  0  0  0  0  0
  -29.7090  -22.6230   21.2460 H   0  0  0  0  0  0  0  0  0  0  0  0
  -28.3250  -26.5160   20.1650 O   0  0  0  0  0  0  0  0  0  0  0  0
  -24.5920  -31.8850   23.2240 C   0  0  0  0  0  0  0  0  0  0  0  0
  -27.1880  -27.3450   20.1250 C   0  0  0  0  0  0  0  0  0  0  0  0
  -23.3750  -30.4900   21.5900 C   0  0  0  0  0  3  0  0  0  0  0  0
  -24.8150  -28.9500   20.1450 C   0  0  0  0  0  0  0  0  0  0  0  0
  -25.9120  -30.8150   21.3840 C   0  0  0  0  0  2  0  0  0  0  0  0
  -25.9880  -29.4390   20.7330 C   0  0  0  0  0  0  0  0  0  0  0  0
  -27.1760  -28.6490   20.7110 C   0  0  0  0  0  3  0  0  0  0  0  0
  -25.9880  -26.9110   19.5130 C   0  0  0  0  0  3  0  0  0  0  0  0
  -24.8170  -27.6900   19.5280 C   0  0  0  0  0  3  0  0  0  0  0  0
  -23.5770  -29.8200   20.2070 C   0  0  0  0  0  2  0  0  0  0  0  0
  -24.6470  -31.0800   22.1240 N   0  0  0  0  0  0  0  0  0  0  0  0
  -23.5130  -32.1580   23.7700 O   0  0  0  0  0  0  0  0  0  0  0  0
  -22.7240  -29.4690   22.5530 C   0  0  0  0  0  0  0  0  0  0  0  0
  -21.3970  -29.2880   22.4350 N   0  0  0  0  0  0  0  0  0  0  0  0
  -23.4100  -28.8420   23.3630 O   0  0  0  0  0  0  0  0  0  0  0  0
  -20.9030  -29.8480   21.7550 H   0  0  0  0  0  0  0  0  0  0  0  0
  -18.0270  -28.0790   22.9500 C   0  0  0  0  0  0  0  0  0  0  0  0
  -20.5860  -28.3480   23.2090 C   0  0  0  0  0  3  0  0  0  0  0  0
  -20.6900  -26.9170   22.6340 C   0  0  0  0  0  2  0  0  0  0  0  0
  -19.5850  -26.5900   21.6240 C   0  0  0  0  0  2  0  0  0  0  0  0
  -18.2060  -26.7310   22.2740 C   0  0  0  0  0  2  0  0  0  0  0  0
  -19.1450  -28.8450   23.3750 C   0  0  0  0  0  0  0  0  0  0  0  0
  -18.9230  -30.1090   23.9670 C   0  0  0  0  0  3  0  0  0  0  0  0
  -17.6170  -30.6050   24.1390 C   0  0  0  0  0  3  0  0  0  0  0  0
  -16.5140  -29.8340   23.7300 C   0  0  0  0  0  3  0  0  0  0  0  0
  -16.7210  -28.5740   23.1410 C   0  0  0  0  0  3  0  0  0  0  0  0
  -25.8800  -32.5160   23.8370 C   0  0  0  0  0  3  0  0  0  0  0  0
  -25.5730  -33.9140   24.1750 N   0  0  0  0  0  0  0  0  0  0  0  0
  -25.8950  -34.9700   23.4160 C   0  0  0  0  0  0  0  0  0  0  0  0
  -26.5540  -34.8700   22.3770 O   0  0  0  0  0  0  0  0  0  0  0  0
  -24.9890  -34.0650   24.9850 H   0  0  0  0  0  0  0  0  0  0  0  0
  -24.1600  -36.7600   23.0880 C   0  0  0  0  0  1  0  0  0  0  0  0
  -25.4110  -36.3560   23.8830 C   0  0  0  0  0  3  0  0  0  0  0  0
  -27.5550  -37.2410   24.6900 C   0  0  0  0  0  1  0  0  0  0  0  0
  -26.4410  -37.4110   23.7610 N   0  0  0  0  0  0  0  0  0  0  0  0
  -26.0350  -38.3300   23.9170 H   0  0  0  0  0  0  0  0  0  0  0  0
  -26.4070  -31.7420   25.1070 C   0  0  1  0  0  0  0  0  0  0  0  0
  -25.3240  -31.5030   26.1850 C   0  0  0  0  0  1  0  0  0  0  0  0
  -26.9860  -30.3660   24.7070 C   0  0  0  0  0  1  0  0  0  0  0  0
  -27.5640  -32.5340   25.7620 C   0  0  0  0  0  1  0  0  0  0  0  0
  -29.5770  -21.6030   19.4810 C   0  0  0  0  0  2  0  0  0  0  0  0
  -30.8880  -19.3620   19.8440 C   0  0  0  0  0  3  0  0  0  0  0  0
  -28.5490  -19.3390   20.3800 C   0  0  0  0  0  3  0  0  0  0  0  0
  -30.9660  -17.9490   20.0490 C   0  0  0  0  0  3  0  0  0  0  0  0
  -28.6290  -17.9310   20.6010 C   0  0  0  0  0  3  0  0  0  0  0  0
  -29.6750  -20.1010   19.9740 C   0  0  0  0  0  0  0  0  0  0  0  0
  -29.8250  -17.1820   20.4110 C   0  0  0  0  0  0  0  0  0  0  0  0
  -30.5740  -14.6910   20.1600 C   0  0  0  0  0  0  0  0  0  0  0  0
  -30.3220  -12.4700   19.0650 C   0  0  0  0  0  2  0  0  0  0  0  0
  -29.3260  -12.6240   17.8900 C   0  0  0  0  0  2  0  0  0  0  0  0
  -27.8720  -12.4610   18.3750 C   0  0  0  0  0  2  0  0  0  0  0  0
  -27.5690  -13.3030   19.6420 C   0  0  0  0  0  3  0  0  0  0  0  0
  -28.6700  -13.1160   20.7120 C   0  0  0  0  0  2  0  0  0  0  0  0
  -29.9580  -13.4670   20.0920 N   0  0  0  0  0  0  0  0  0  0  0  0
  -31.7150  -14.8570   19.7180 O   0  0  0  0  0  0  0  0  0  0  0  0
  -29.7860  -15.7270   20.5980 N   0  0  0  0  0  0  0  0  0  0  0  0
  -28.9110  -15.3870   20.9680 H   0  0  0  0  0  0  0  0  0  0  0  0
  -25.2030  -13.9090   20.4440 C   0  0  0  0  0  0  0  0  0  0  0  0
  -24.1470  -13.1380   20.8510 C   0  0  0  0  0  0  0  0  0  0  0  0
  -24.6060  -11.7850   20.8030 C   0  0  0  0  0  0  0  0  0  0  0  0
  -26.2370  -13.0250   20.1730 N   0  0  0  0  0  0  0  0  0  0  0  0
  -25.8850  -11.7440   20.4480 N   0  0  0  0  0  0  0  0  0  0  0  0
  -23.8850  -10.5240   21.0180 C   0  0  0  0  0  0  0  0  0  0  0  0
  -24.3490   -9.5540   21.9320 C   0  0  0  0  0  3  0  0  0  0  0  0
  -23.6290   -8.3570   22.1360 C   0  0  0  0  0  3  0  0  0  0  0  0
  -22.4270   -8.1230   21.4230 C   0  0  0  0  0  0  0  0  0  0  0  0
  -21.9810   -9.0820   20.4980 C   0  0  0  0  0  3  0  0  0  0  0  0
  -22.7030  -10.2700   20.2930 C   0  0  0  0  0  3  0  0  0  0  0  0
  -21.6750   -6.9780   21.5370 O   0  0  0  0  0  0  0  0  0  0  0  0
  -21.6700   -6.2320   22.6880 C   0  0  0  0  0  0  0  0  0  0  0  0
  -21.3020   -6.7840   23.9340 C   0  0  0  0  0  3  0  0  0  0  0  0
  -21.2440   -5.9640   25.0780 C   0  0  0  0  0  3  0  0  0  0  0  0
  -21.5440   -4.5920   24.9780 C   0  0  0  0  0  0  0  0  0  0  0  0
  -21.9050   -4.0380   23.7360 C   0  0  0  0  0  3  0  0  0  0  0  0
  -21.9650   -4.8560   22.5940 C   0  0  0  0  0  0  0  0  0  0  0  0
  -22.2930   -4.3140   21.3970 F   0  0  0  0  0  0  0  0  0  0  0  0
  -21.4800   -3.8020   26.0750 F   0  0  0  0  0  0  0  0  0  0  0  0
  -22.7620  -13.6170   21.1710 C   0  0  0  0  0  0  0  0  0  0  0  0
  -22.0640  -12.9230   22.0640 N   0  0  0  0  0  0  0  0  0  0  0  0
  -22.3070  -14.6420   20.6660 O   0  0  0  0  0  0  0  0  0  0  0  0
  -22.4440  -12.0920   22.4930 H   0  0  0  0  0  0  0  0  0  0  0  0
  -21.1340  -13.2250   22.3200 H   0  0  0  0  0  0  0  0  0  0  0  0
  -25.3640  -15.2780   20.2600 N   0  0  0  0  0  0  0  0  0  0  0  0
  -24.5990  -15.9300   20.3950 H   0  0  0  0  0  0  0  0  0  0  0  0
  -26.1850  -15.7090   19.8560 H   0  0  0  0  0  0  0  0  0  0  0  0
  2  1  1  0
  3  4  1  0
  3  5  1  0
  4  7  1  0
  4  1  1  0
  5  2  1  0
  5  6  1  1
  8 19  2  0
  9  7  1  0
  9 14  1  0
 10 18  1  0
 10 20  1  0
 11 17  1  0
 11 13  1  0
 12 18  1  0
 13 12  1  0
 14 13  2  0
 15 16  1  0
 15  9  2  0
 16 11  2  0
 17 10  1  0
 18  8  1  0
 20 22  2  0
 21 20  1  0
 23 21  1  0
 24 33  2  0
 24 29  1  0
 25 21  1  0
 25 29  1  0
 26 25  1  0
 27 28  1  0
 27 26  1  0
 28 24  1  0
 29 30  2  0
 30 31  1  0
 32 31  2  0
 33 32  1  0
 34  8  1  0
 34 35  1  0
 34 44  1  0
 35 38  1  0
 36 40  1  0
 36 35  1  0
 37 36  2  0
 40 39  1  0
 42 40  1  0
 42 43  1  0
 42 41  1  0
 44 47  1  1
 44 45  1  0
 46 44  1  0
 48 53  1  0
 48  5  1  0
 49 53  2  0
 49 51  1  0
 50 52  2  0
 51 54  2  0
 53 50  1  0
 54 63  1  0
 54 52  1  0
 55 63  1  0
 56 61  1  0
 57 58  1  0
 57 56  1  0
 59 58  1  0
 59 68  1  0
 59 60  1  0
 61 55  1  0
 61 60  1  0
 62 55  2  0
 63 64  1  0
 65 66  2  0
 66 85  1  0
 67 66  1  0
 67 70  1  0
 68 65  1  0
 68 69  1  0
 69 67  2  0
 70 71  1  0
 71 72  2  0
 73 76  1  0
 73 72  1  0
 74 73  2  0
 75 74  1  0
 75 70  2  0
 76 77  1  0
 77 78  1  0
 78 79  2  0
 80 79  1  0
 80 84  1  0
 81 80  2  0
 82 77  2  0
 82 81  1  0
 83 82  1  0
 85 86  1  0
 86 89  1  0
 86 88  1  0
 87 85  2  0
 90 91  1  0
 90 65  1  0
 92 90  1  0
M  ISO  4   4 101   7 101  55 100  63 100
M  END
>  <TORSDO>  (20) 
F 18

>  <SCORE>  (20) 
-14.728

>  <name>  (20) 
19

>  <ligand_id>  (20) 
19

>  <original_smiles>  (20) 
[H]c1c([H])c([H])c2c(c1[H])C([H])([H])C([H])([H])C([H])([H])C2([H])N([H])C(=O)C1([H])N(C(=O)C([H])(N([H])C(=O)C([H])(N([H])C([H])([H])[H])C([H])([H])[H])C(C([H])([H])[H])(C([H])([H])[H])C([H])([H])[H])C([H])([H])c2c([H])c(OC3([H])C([H])([H])C([H])([H])[N+]([H])(C([H])([H])c4c([H])c([H])c(N([H])C(=O)N5C([H])([H])C([H])([H])C([H])([H])C([H])(n6nc(-c7c([H])c([H])c(Oc8c([H])c([H])c(F)c([H])c8F)c([H])c7[H])c(C(=O)N([H])[H])c6N([H])[H])C5([H])[H])c([H])c4[H])C3([H])[H])c([H])c([H])c2C1([H])[H]

>  <smiles>  (20) 
[H]c1c([H])c([H])c2c(c1[H])C([H])([H])C([H])([H])C([H])([H])C2([H])N([H])C(=O)C1([H])N(C(=O)C([H])(N([H])C(=O)C([H])(N([H])C([H])([H])[H])C([H])([H])[H])C(C([H])([H])[H])(C([H])([H])[H])C([H])([H])[H])C([H])([H])c2c([H])c(OC3([H])C([H])([H])C([H])([H])[N+]([H])(C([H])([H])c4c([H])c([H])c(N([H])C(=O)N5C([H])([H])C([H])([H])C([H])([H])C([H])(n6nc(-c7c([H])c([H])c(Oc8c([H])c([H])c(F)c([H])c8F)c([H])c7[H])c(C(=O)N([H])[H])c6N([H])[H])C5([H])[H])c([H])c4[H])C3([H])[H])c([H])c([H])c2C1([H])[H]

$$$$
20:0:0
     RDKit          3D

 90 98  0  0  1  0  0  0  0  0999 V2000
  -29.6470  -22.0000   20.6810 C   0  0  0  0  0  2  0  0  0  0  0  0
  -28.8430  -23.3070   20.4230 C   0  0  0  0  0  2  0  0  0  0  0  0
  -29.4090  -24.5650   21.1330 C   0  0  0  0  0  2  0  0  0  0  0  0
  -28.4280  -25.7610   21.2880 C   0  0  0  0  0  2  0  0  0  0  0  0
  -28.3950  -26.6750   20.1820 O   0  0  0  0  0  0  0  0  0  0  0  0
  -24.6030  -31.8870   23.2550 C   0  0  0  0  0  0  0  0  0  0  0  0
  -27.2580  -27.4510   20.1750 C   0  0  0  0  0  0  0  0  0  0  0  0
  -23.4000  -30.4840   21.6100 C   0  0  0  0  0  3  0  0  0  0  0  0
  -24.8610  -28.9510   20.1840 C   0  0  0  0  0  0  0  0  0  0  0  0
  -25.9260  -30.8480   21.4150 C   0  0  0  0  0  2  0  0  0  0  0  0
  -26.0170  -29.4770   20.7750 C   0  0  0  0  0  0  0  0  0  0  0  0
  -27.2210  -28.7340   20.7710 C   0  0  0  0  0  3  0  0  0  0  0  0
  -26.0900  -26.9400   19.5750 C   0  0  0  0  0  3  0  0  0  0  0  0
  -24.8920  -27.6800   19.5810 C   0  0  0  0  0  3  0  0  0  0  0  0
  -23.6130  -29.8050   20.2300 C   0  0  0  0  0  2  0  0  0  0  0  0
  -24.6610  -31.0880   22.1520 N   0  0  0  0  0  0  0  0  0  0  0  0
  -23.5210  -32.1570   23.7950 O   0  0  0  0  0  0  0  0  0  0  0  0
  -22.7500  -29.4620   22.5700 C   0  0  0  0  0  0  0  0  0  0  0  0
  -21.4250  -29.2810   22.4440 N   0  0  0  0  0  0  0  0  0  0  0  0
  -23.4330  -28.8350   23.3830 O   0  0  0  0  0  0  0  0  0  0  0  0
  -20.9340  -29.8390   21.7590 H   0  0  0  0  0  0  0  0  0  0  0  0
  -18.0480  -28.0940   22.9460 C   0  0  0  0  0  0  0  0  0  0  0  0
  -20.6080  -28.3420   23.2120 C   0  0  0  0  0  3  0  0  0  0  0  0
  -20.7040  -26.9130   22.6290 C   0  0  0  0  0  2  0  0  0  0  0  0
  -19.5980  -26.5980   21.6170 C   0  0  0  0  0  2  0  0  0  0  0  0
  -18.2190  -26.7450   22.2650 C   0  0  0  0  0  2  0  0  0  0  0  0
  -19.1710  -28.8500   23.3770 C   0  0  0  0  0  0  0  0  0  0  0  0
  -18.9580  -30.1110   23.9730 C   0  0  0  0  0  3  0  0  0  0  0  0
  -17.6550  -30.6170   24.1430 C   0  0  0  0  0  3  0  0  0  0  0  0
  -16.5470  -29.8580   23.7300 C   0  0  0  0  0  3  0  0  0  0  0  0
  -16.7450  -28.5970   23.1380 C   0  0  0  0  0  3  0  0  0  0  0  0
  -25.8880  -32.5190   23.8760 C   0  0  0  0  0  3  0  0  0  0  0  0
  -25.5820  -33.9190   24.1980 N   0  0  0  0  0  0  0  0  0  0  0  0
  -25.9200  -34.9670   23.4350 C   0  0  0  0  0  0  0  0  0  0  0  0
  -26.5950  -34.8560   22.4080 O   0  0  0  0  0  0  0  0  0  0  0  0
  -24.9840  -34.0790   24.9950 H   0  0  0  0  0  0  0  0  0  0  0  0
  -24.1980  -36.7610   23.0600 C   0  0  0  0  0  1  0  0  0  0  0  0
  -25.4320  -36.3580   23.8820 C   0  0  0  0  0  3  0  0  0  0  0  0
  -27.5650  -37.2390   24.7230 C   0  0  0  0  0  1  0  0  0  0  0  0
  -26.4680  -37.4080   23.7730 N   0  0  0  0  0  0  0  0  0  0  0  0
  -26.0630  -38.3290   23.9180 H   0  0  0  0  0  0  0  0  0  0  0  0
  -26.4030  -31.7510   25.1540 C   0  0  1  0  0  0  0  0  0  0  0  0
  -25.3110  -31.5170   26.2230 C   0  0  0  0  0  1  0  0  0  0  0  0
  -26.9860  -30.3720   24.7650 C   0  0  0  0  0  1  0  0  0  0  0  0
  -27.5550  -32.5450   25.8150 C   0  0  0  0  0  1  0  0  0  0  0  0
  -29.0300  -20.9170   19.9790 O   0  0  0  0  0  0  0  0  0  0  0  0
  -28.8060  -17.2360   19.9120 C   0  0  0  0  0  3  0  0  0  0  0  0
  -30.6640  -17.8150   21.3650 C   0  0  0  0  0  3  0  0  0  0  0  0
  -28.5840  -18.6040   19.6560 C   0  0  0  0  0  3  0  0  0  0  0  0
  -30.4340  -19.1910   21.1090 C   0  0  0  0  0  3  0  0  0  0  0  0
  -29.8440  -16.8240   20.7750 C   0  0  0  0  0  0  0  0  0  0  0  0
  -29.3730  -19.6040   20.2610 C   0  0  0  0  0  0  0  0  0  0  0  0
  -30.6440  -14.5020   20.4870 C   0  0  0  0  0  0  0  0  0  0  0  0
  -30.3760  -12.3470   19.3070 C   0  0  0  0  0  2  0  0  0  0  0  0
  -29.4250  -12.5620   18.1100 C   0  0  0  0  0  2  0  0  0  0  0  0
  -27.9510  -12.4190   18.5390 C   0  0  0  0  0  2  0  0  0  0  0  0
  -27.6180  -13.2380   19.8150 C   0  0  0  0  0  3  0  0  0  0  0  0
  -28.6750  -12.9850   20.9140 C   0  0  0  0  0  2  0  0  0  0  0  0
  -30.0010  -13.3070   20.3570 N   0  0  0  0  0  0  0  0  0  0  0  0
  -31.7510  -14.7300   19.9870 O   0  0  0  0  0  0  0  0  0  0  0  0
  -29.9400  -15.4470   21.1360 N   0  0  0  0  0  0  0  0  0  0  0  0
  -29.0990  -15.0650   21.5410 H   0  0  0  0  0  0  0  0  0  0  0  0
  -25.2150  -13.8540   20.5080 C   0  0  0  0  0  0  0  0  0  0  0  0
  -24.1460  -13.0850   20.8810 C   0  0  0  0  0  0  0  0  0  0  0  0
  -24.6070  -11.7330   20.8590 C   0  0  0  0  0  0  0  0  0  0  0  0
  -26.2620  -12.9700   20.2890 N   0  0  0  0  0  0  0  0  0  0  0  0
  -25.8970  -11.6900   20.5550 N   0  0  0  0  0  0  0  0  0  0  0  0
  -23.8800  -10.4720   21.0550 C   0  0  0  0  0  0  0  0  0  0  0  0
  -24.3150   -9.5080   21.9910 C   0  0  0  0  0  3  0  0  0  0  0  0
  -23.5900   -8.3120   22.1750 C   0  0  0  0  0  3  0  0  0  0  0  0
  -22.4170   -8.0700   21.4220 C   0  0  0  0  0  0  0  0  0  0  0  0
  -22.0000   -9.0230   20.4760 C   0  0  0  0  0  3  0  0  0  0  0  0
  -22.7250  -10.2120   20.2900 C   0  0  0  0  0  3  0  0  0  0  0  0
  -21.6630   -6.9250   21.5150 O   0  0  0  0  0  0  0  0  0  0  0  0
  -21.6230   -6.1820   22.6680 C   0  0  0  0  0  0  0  0  0  0  0  0
  -21.2060   -6.7360   23.8980 C   0  0  0  0  0  3  0  0  0  0  0  0
  -21.1130   -5.9190   25.0420 C   0  0  0  0  0  3  0  0  0  0  0  0
  -21.4270   -4.5480   24.9580 C   0  0  0  0  0  0  0  0  0  0  0  0
  -21.8360   -3.9950   23.7320 C   0  0  0  0  0  3  0  0  0  0  0  0
  -21.9310   -4.8090   22.5890 C   0  0  0  0  0  0  0  0  0  0  0  0
  -22.3070   -4.2660   21.4070 F   0  0  0  0  0  0  0  0  0  0  0  0
  -21.3300   -3.7620   26.0540 F   0  0  0  0  0  0  0  0  0  0  0  0
  -22.7480  -13.5650   21.1490 C   0  0  0  0  0  0  0  0  0  0  0  0
  -22.0180  -12.8730   22.0170 N   0  0  0  0  0  0  0  0  0  0  0  0
  -22.3110  -14.5880   20.6230 O   0  0  0  0  0  0  0  0  0  0  0  0
  -22.3840  -12.0450   22.4640 H   0  0  0  0  0  0  0  0  0  0  0  0
  -21.0810  -13.1780   22.2390 H   0  0  0  0  0  0  0  0  0  0  0  0
  -25.3780  -15.2240   20.3220 N   0  0  0  0  0  0  0  0  0  0  0  0
  -24.6070  -15.8740   20.4240 H   0  0  0  0  0  0  0  0  0  0  0  0
  -26.2270  -15.6660   19.9960 H   0  0  0  0  0  0  0  0  0  0  0  0
  2  1  1  0
  2  3  1  0
  3  4  1  0
  5  4  1  0
  6 17  2  0
  7  5  1  0
  7 12  1  0
  8 16  1  0
  8 18  1  0
  9 15  1  0
  9 11  1  0
 10 16  1  0
 11 10  1  0
 12 11  2  0
 13 14  1  0
 13  7  2  0
 14  9  2  0
 15  8  1  0
 16  6  1  0
 18 20  2  0
 19 18  1  0
 21 19  1  0
 22 31  2  0
 22 27  1  0
 23 19  1  0
 23 27  1  0
 24 23  1  0
 25 26  1  0
 25 24  1  0
 26 22  1  0
 27 28  2  0
 28 29  1  0
 30 29  2  0
 31 30  1  0
 32  6  1  0
 32 33  1  0
 32 42  1  0
 33 36  1  0
 34 38  1  0
 34 33  1  0
 35 34  2  0
 38 37  1  0
 40 38  1  0
 40 41  1  0
 40 39  1  0
 42 45  1  1
 42 43  1  0
 44 42  1  0
 46 52  1  0
 46  1  1  0
 47 51  1  0
 49 47  2  0
 49 52  1  0
 50 48  1  0
 51 61  1  0
 51 48  2  0
 52 50  2  0
 53 61  1  0
 54 59  1  0
 55 56  1  0
 55 54  1  0
 57 56  1  0
 57 66  1  0
 57 58  1  0
 59 53  1  0
 59 58  1  0
 60 53  2  0
 61 62  1  0
 63 64  2  0
 64 83  1  0
 65 64  1  0
 65 68  1  0
 66 63  1  0
 66 67  1  0
 67 65  2  0
 68 69  1  0
 69 70  2  0
 71 74  1  0
 71 70  1  0
 72 71  2  0
 73 72  1  0
 73 68  2  0
 74 75  1  0
 75 76  1  0
 76 77  2  0
 78 77  1  0
 78 82  1  0
 79 78  2  0
 80 75  2  0
 80 79  1  0
 81 80  1  0
 83 84  1  0
 84 87  1  0
 84 86  1  0
 85 83  2  0
 88 89  1  0
 88 63  1  0
 90 88  1  0
M  ISO  4   4 101   5 101  53 100  61 100
M  END
>  <TORSDO>  (21) 
F 21

>  <SCORE>  (21) 
-13.693

>  <name>  (21) 
20

>  <ligand_id>  (21) 
20

>  <original_smiles>  (21) 
[H]c1c([H])c([H])c2c(c1[H])C([H])([H])C([H])([H])C([H])([H])C2([H])N([H])C(=O)C1([H])N(C(=O)C([H])(N([H])C(=O)C([H])(N([H])C([H])([H])[H])C([H])([H])[H])C(C([H])([H])[H])(C([H])([H])[H])C([H])([H])[H])C([H])([H])c2c([H])c(OC([H])([H])C([H])([H])C([H])([H])C([H])([H])Oc3c([H])c([H])c(N([H])C(=O)N4C([H])([H])C([H])([H])C([H])([H])C([H])(n5nc(-c6c([H])c([H])c(Oc7c([H])c([H])c(F)c([H])c7F)c([H])c6[H])c(C(=O)N([H])[H])c5N([H])[H])C4([H])[H])c([H])c3[H])c([H])c([H])c2C1([H])[H]

>  <smiles>  (21) 
[H]c1c([H])c([H])c2c(c1[H])C([H])([H])C([H])([H])C([H])([H])C2([H])N([H])C(=O)C1([H])N(C(=O)C([H])(N([H])C(=O)C([H])(N([H])C([H])([H])[H])C([H])([H])[H])C(C([H])([H])[H])(C([H])([H])[H])C([H])([H])[H])C([H])([H])c2c([H])c(OC([H])([H])C([H])([H])C([H])([H])C([H])([H])Oc3c([H])c([H])c(N([H])C(=O)N4C([H])([H])C([H])([H])C([H])([H])C([H])(n5nc(-c6c([H])c([H])c(Oc7c([H])c([H])c(F)c([H])c7F)c([H])c6[H])c(C(=O)N([H])[H])c5N([H])[H])C4([H])[H])c([H])c3[H])c([H])c([H])c2C1([H])[H]

$$$$
21:0:0
     RDKit          3D

 89 98  0  0  1  0  0  0  0  0999 V2000
  -30.6300  -15.0300   20.3850 C   0  0  0  0  0  0  0  0  0  0  0  0
  -30.4820  -12.6720   19.4670 C   0  0  0  0  0  2  0  0  0  0  0  0
  -29.5710  -12.6080   18.2180 C   0  0  0  0  0  2  0  0  0  0  0  0
  -28.0930  -12.4460   18.6250 C   0  0  0  0  0  2  0  0  0  0  0  0
  -27.6760  -13.3840   19.7890 C   0  0  0  0  0  3  0  0  0  0  0  0
  -28.7150  -13.4080   20.9290 C   0  0  0  0  0  2  0  0  0  0  0  0
  -29.9950  -13.7900   20.3200 N   0  0  0  0  0  0  0  0  0  0  0  0
  -31.8650  -15.0300   20.3220 O   0  0  0  0  0  0  0  0  0  0  0  0
  -29.6790  -18.4870   21.3870 C   0  0  0  0  0  3  0  0  0  0  0  0
  -29.4500  -19.9430   21.3320 C   0  0  0  0  0  3  0  0  0  0  0  0
  -29.5400  -19.8680   18.9710 C   0  0  0  0  0  3  0  0  0  0  0  0
  -29.7710  -18.4490   19.0380 C   0  0  0  0  0  0  0  0  0  0  0  0
  -29.8460  -17.6710   20.2080 C   0  0  0  0  0  0  0  0  0  0  0  0
  -29.3520  -20.7120   20.1100 C   0  0  0  0  0  0  0  0  0  0  0  0
  -29.9320  -17.5680   17.8420 C   0  0  0  0  0  2  0  0  0  0  0  0
  -29.8490  -16.1330   18.4070 C   0  0  0  0  0  2  0  0  0  0  0  0
  -29.9340  -16.1760   19.8900 N   0  0  0  0  0  0  0  0  0  0  0  0
  -25.2830  -13.9910   20.4660 C   0  0  0  0  0  0  0  0  0  0  0  0
  -24.2050  -13.2260   20.8160 C   0  0  0  0  0  0  0  0  0  0  0  0
  -24.6620  -11.8740   20.8170 C   0  0  0  0  0  0  0  0  0  0  0  0
  -26.3270  -13.1040   20.2680 N   0  0  0  0  0  0  0  0  0  0  0  0
  -25.9600  -11.8260   20.5450 N   0  0  0  0  0  0  0  0  0  0  0  0
  -23.9230  -10.6170   21.0010 C   0  0  0  0  0  0  0  0  0  0  0  0
  -24.3300   -9.6540   21.9490 C   0  0  0  0  0  3  0  0  0  0  0  0
  -23.5930   -8.4630   22.1220 C   0  0  0  0  0  3  0  0  0  0  0  0
  -22.4330   -8.2280   21.3460 C   0  0  0  0  0  0  0  0  0  0  0  0
  -22.0450   -9.1790   20.3860 C   0  0  0  0  0  3  0  0  0  0  0  0
  -22.7830  -10.3620   20.2120 C   0  0  0  0  0  3  0  0  0  0  0  0
  -21.6670   -7.0910   21.4280 O   0  0  0  0  0  0  0  0  0  0  0  0
  -21.5950   -6.3520   22.5830 C   0  0  0  0  0  0  0  0  0  0  0  0
  -21.1640   -6.9180   23.8020 C   0  0  0  0  0  3  0  0  0  0  0  0
  -21.0380   -6.1080   24.9490 C   0  0  0  0  0  3  0  0  0  0  0  0
  -21.3350   -4.7340   24.8760 C   0  0  0  0  0  0  0  0  0  0  0  0
  -21.7620   -4.1690   23.6610 C   0  0  0  0  0  3  0  0  0  0  0  0
  -21.8880   -4.9760   22.5170 C   0  0  0  0  0  0  0  0  0  0  0  0
  -22.2780   -4.4220   21.3440 F   0  0  0  0  0  0  0  0  0  0  0  0
  -21.2080   -3.9530   25.9750 F   0  0  0  0  0  0  0  0  0  0  0  0
  -22.8030  -13.7160   21.0380 C   0  0  0  0  0  0  0  0  0  0  0  0
  -22.0460  -13.0420   21.8980 N   0  0  0  0  0  0  0  0  0  0  0  0
  -22.3880  -14.7340   20.4850 O   0  0  0  0  0  0  0  0  0  0  0  0
  -22.3940  -12.2190   22.3660 H   0  0  0  0  0  0  0  0  0  0  0  0
  -21.1030  -13.3520   22.0860 H   0  0  0  0  0  0  0  0  0  0  0  0
  -25.4560  -15.3590   20.2700 N   0  0  0  0  0  0  0  0  0  0  0  0
  -24.6800  -16.0090   20.3340 H   0  0  0  0  0  0  0  0  0  0  0  0
  -26.3140  -15.7950   19.9580 H   0  0  0  0  0  0  0  0  0  0  0  0
  -29.0450  -22.1170   19.8370 O   0  0  0  0  0  0  0  0  0  0  0  0
  -28.9670  -23.3920   20.6790 C   0  0  0  0  0  2  0  0  0  0  0  0
  -28.2250  -24.7690   20.0470 C   0  0  0  0  0  2  0  0  0  0  0  0
  -28.3820  -26.2730   20.4140 O   0  0  0  0  0  0  0  0  0  0  0  0
  -24.6280  -31.9090   23.2490 C   0  0  0  0  0  0  0  0  0  0  0  0
  -27.3150  -27.2340   20.2790 C   0  0  0  0  0  0  0  0  0  0  0  0
  -23.4740  -30.5000   21.5880 C   0  0  0  0  0  3  0  0  0  0  0  0
  -24.9670  -28.9470   20.1880 C   0  0  0  0  0  0  0  0  0  0  0  0
  -26.0260  -30.7970   21.4720 C   0  0  0  0  0  2  0  0  0  0  0  0
  -26.1270  -29.4060   20.8250 C   0  0  0  0  0  0  0  0  0  0  0  0
  -27.2970  -28.5640   20.8590 C   0  0  0  0  0  3  0  0  0  0  0  0
  -26.1370  -26.8830   19.5790 C   0  0  0  0  0  3  0  0  0  0  0  0
  -24.9860  -27.6990   19.5480 C   0  0  0  0  0  3  0  0  0  0  0  0
  -23.7280  -29.8270   20.2130 C   0  0  0  0  0  2  0  0  0  0  0  0
  -24.7270  -31.0900   22.1590 N   0  0  0  0  0  0  0  0  0  0  0  0
  -23.5300  -32.1830   23.7580 O   0  0  0  0  0  0  0  0  0  0  0  0
  -22.7910  -29.4840   22.5380 C   0  0  0  0  0  0  0  0  0  0  0  0
  -21.4630  -29.3120   22.3990 N   0  0  0  0  0  0  0  0  0  0  0  0
  -23.4550  -28.8550   23.3640 O   0  0  0  0  0  0  0  0  0  0  0  0
  -20.9820  -29.8710   21.7090 H   0  0  0  0  0  0  0  0  0  0  0  0
  -18.0780  -28.1160   22.8790 C   0  0  0  0  0  0  0  0  0  0  0  0
  -20.6370  -28.3720   23.1600 C   0  0  0  0  0  3  0  0  0  0  0  0
  -20.7370  -26.9450   22.5750 C   0  0  0  0  0  2  0  0  0  0  0  0
  -19.6390  -26.6320   21.5540 C   0  0  0  0  0  2  0  0  0  0  0  0
  -18.2560  -26.7730   22.1930 C   0  0  0  0  0  2  0  0  0  0  0  0
  -19.1960  -28.8740   23.3200 C   0  0  0  0  0  0  0  0  0  0  0  0
  -18.9750  -30.1310   23.9250 C   0  0  0  0  0  3  0  0  0  0  0  0
  -17.6710  -30.6310   24.0910 C   0  0  0  0  0  3  0  0  0  0  0  0
  -16.5670  -29.8710   23.6650 C   0  0  0  0  0  3  0  0  0  0  0  0
  -16.7710  -28.6160   23.0660 C   0  0  0  0  0  3  0  0  0  0  0  0
  -25.8890  -32.5590   23.8980 C   0  0  0  0  0  3  0  0  0  0  0  0
  -25.5630  -33.9610   24.2040 N   0  0  0  0  0  0  0  0  0  0  0  0
  -25.9010  -35.0080   23.4390 C   0  0  0  0  0  0  0  0  0  0  0  0
  -26.5880  -34.8960   22.4200 O   0  0  0  0  0  0  0  0  0  0  0  0
  -24.9550  -34.1220   24.9940 H   0  0  0  0  0  0  0  0  0  0  0  0
  -24.1660  -36.7860   23.0460 C   0  0  0  0  0  1  0  0  0  0  0  0
  -25.4020  -36.4000   23.8740 C   0  0  0  0  0  3  0  0  0  0  0  0
  -27.5240  -37.3080   24.7120 C   0  0  0  0  0  1  0  0  0  0  0  0
  -26.4290  -37.4590   23.7590 N   0  0  0  0  0  0  0  0  0  0  0  0
  -26.0130  -38.3770   23.8950 H   0  0  0  0  0  0  0  0  0  0  0  0
  -26.3710  -31.8110   25.2020 C   0  0  1  0  0  0  0  0  0  0  0  0
  -25.2500  -31.5900   26.2460 C   0  0  0  0  0  1  0  0  0  0  0  0
  -26.9650  -30.4260   24.8540 C   0  0  0  0  0  1  0  0  0  0  0  0
  -27.5030  -32.6170   25.8800 C   0  0  0  0  0  1  0  0  0  0  0  0
  2  7  1  0
  3  4  1  0
  3  2  1  0
  5  4  1  0
  5 21  1  0
  5  6  1  0
  7  1  1  0
  7  6  1  0
  8  1  2  0
 10  9  1  0
 11 12  2  0
 11 14  1  0
 12 13  1  0
 13  9  2  0
 14 10  2  0
 15 16  1  0
 15 12  1  0
 16 17  1  0
 17 13  1  0
 17  1  1  0
 18 19  2  0
 19 20  1  0
 19 38  1  0
 20 23  1  0
 21 18  1  0
 21 22  1  0
 22 20  2  0
 23 24  1  0
 24 25  2  0
 26 29  1  0
 26 25  1  0
 27 26  2  0
 28 27  1  0
 28 23  2  0
 29 30  1  0
 30 31  1  0
 31 32  2  0
 33 32  1  0
 33 37  1  0
 34 33  2  0
 35 30  2  0
 35 34  1  0
 36 35  1  0
 38 39  1  0
 39 42  1  0
 39 41  1  0
 40 38  2  0
 43 44  1  0
 43 18  1  0
 45 43  1  0
 46 14  1  0
 46 47  1  0
 48 49  1  0
 48 47  1  0
 50 61  2  0
 51 49  1  0
 51 56  1  0
 52 60  1  0
 52 62  1  0
 53 59  1  0
 53 55  1  0
 54 60  1  0
 55 56  2  0
 55 54  1  0
 57 51  2  0
 58 57  1  0
 58 53  2  0
 59 52  1  0
 60 50  1  0
 62 64  2  0
 63 62  1  0
 65 63  1  0
 66 75  2  0
 66 71  1  0
 67 63  1  0
 67 71  1  0
 68 67  1  0
 69 70  1  0
 69 68  1  0
 70 66  1  0
 71 72  2  0
 72 73  1  0
 74 73  2  0
 75 74  1  0
 76 50  1  0
 76 77  1  0
 76 86  1  0
 77 80  1  0
 78 82  1  0
 78 77  1  0
 79 78  2  0
 82 81  1  0
 84 82  1  0
 84 85  1  0
 84 83  1  0
 86 89  1  1
 86 87  1  0
 88 86  1  0
M  ISO  4   1 100  17 100  48 101  49 101
M  END
>  <TORSDO>  (22) 
F 18

>  <SCORE>  (22) 
-13.457

>  <name>  (22) 
21

>  <ligand_id>  (22) 
21

>  <original_smiles>  (22) 
[H]c1c([H])c([H])c2c(c1[H])C([H])([H])C([H])([H])C([H])([H])C2([H])N([H])C(=O)C1([H])N(C(=O)C([H])(N([H])C(=O)C([H])(N([H])C([H])([H])[H])C([H])([H])[H])C(C([H])([H])[H])(C([H])([H])[H])C([H])([H])[H])C([H])([H])c2c([H])c(OC([H])([H])C([H])([H])Oc3c([H])c([H])c4c(c3[H])C([H])([H])C([H])([H])N4C(=O)N3C([H])([H])C([H])([H])C([H])([H])C([H])(n4nc(-c5c([H])c([H])c(Oc6c([H])c([H])c(F)c([H])c6F)c([H])c5[H])c(C(=O)N([H])[H])c4N([H])[H])C3([H])[H])c([H])c([H])c2C1([H])[H]

>  <smiles>  (22) 
[H]c1c([H])c([H])c2c(c1[H])C([H])([H])C([H])([H])C([H])([H])C2([H])N([H])C(=O)C1([H])N(C(=O)C([H])(N([H])C(=O)C([H])(N([H])C([H])([H])[H])C([H])([H])[H])C(C([H])([H])[H])(C([H])([H])[H])C([H])([H])[H])C([H])([H])c2c([H])c(OC([H])([H])C([H])([H])Oc3c([H])c([H])c4c(c3[H])C([H])([H])C([H])([H])N4C(=O)N3C([H])([H])C([H])([H])C([H])([H])C([H])(n4nc(-c5c([H])c([H])c(Oc6c([H])c([H])c(F)c([H])c6F)c([H])c5[H])c(C(=O)N([H])[H])c4N([H])[H])C3([H])[H])c([H])c([H])c2C1([H])[H]

$$$$
22:0:0
     RDKit          3D

 92101  0  0  1  0  0  0  0  0999 V2000
  -28.5130  -23.8640   19.5260 C   0  0  0  0  0  0  0  0  0  0  0  0
  -27.9160  -24.2430   21.7850 C   0  0  0  0  0  2  0  0  0  0  0  0
  -28.0900  -22.7170   21.4910 C   0  0  0  0  0  2  0  0  0  0  0  0
  -27.7830  -24.9160   20.4060 C   0  0  0  0  0  3  0  0  0  0  0  0
  -28.5800  -22.6330   20.1140 N   0  0  0  0  0  0  0  0  0  0  0  0
  -28.9170  -24.1230   18.3900 O   0  0  0  0  0  0  0  0  0  0  0  0
  -28.1860  -26.3560   20.2330 O   0  0  0  0  0  0  0  0  0  0  0  0
  -24.6260  -31.8800   23.2280 C   0  0  0  0  0  0  0  0  0  0  0  0
  -27.1440  -27.2940   20.1410 C   0  0  0  0  0  0  0  0  0  0  0  0
  -23.3990  -30.4930   21.6020 C   0  0  0  0  0  3  0  0  0  0  0  0
  -24.8280  -28.9670   20.1340 C   0  0  0  0  0  0  0  0  0  0  0  0
  -25.9400  -30.7970   21.3930 C   0  0  0  0  0  2  0  0  0  0  0  0
  -26.0050  -29.4190   20.7450 C   0  0  0  0  0  0  0  0  0  0  0  0
  -27.1700  -28.5920   20.7510 C   0  0  0  0  0  3  0  0  0  0  0  0
  -25.9740  -26.9490   19.4350 C   0  0  0  0  0  3  0  0  0  0  0  0
  -24.8180  -27.7390   19.4630 C   0  0  0  0  0  3  0  0  0  0  0  0
  -23.5980  -29.8470   20.2070 C   0  0  0  0  0  2  0  0  0  0  0  0
  -24.6750  -31.0720   22.1320 N   0  0  0  0  0  0  0  0  0  0  0  0
  -23.5490  -32.1610   23.7760 O   0  0  0  0  0  0  0  0  0  0  0  0
  -22.7520  -29.4620   22.5570 C   0  0  0  0  0  0  0  0  0  0  0  0
  -21.4240  -29.2810   22.4460 N   0  0  0  0  0  0  0  0  0  0  0  0
  -23.4410  -28.8300   23.3630 O   0  0  0  0  0  0  0  0  0  0  0  0
  -20.9260  -29.8480   21.7730 H   0  0  0  0  0  0  0  0  0  0  0  0
  -18.0570  -28.0700   22.9630 C   0  0  0  0  0  0  0  0  0  0  0  0
  -20.6160  -28.3390   23.2230 C   0  0  0  0  0  3  0  0  0  0  0  0
  -20.7210  -26.9070   22.6540 C   0  0  0  0  0  2  0  0  0  0  0  0
  -19.6190  -26.5740   21.6450 C   0  0  0  0  0  2  0  0  0  0  0  0
  -18.2370  -26.7170   22.2910 C   0  0  0  0  0  2  0  0  0  0  0  0
  -19.1750  -28.8360   23.3840 C   0  0  0  0  0  0  0  0  0  0  0  0
  -18.9580  -30.1000   23.9750 C   0  0  0  0  0  3  0  0  0  0  0  0
  -17.6530  -30.5980   24.1490 C   0  0  0  0  0  3  0  0  0  0  0  0
  -16.5490  -29.8290   23.7440 C   0  0  0  0  0  3  0  0  0  0  0  0
  -16.7520  -28.5670   23.1560 C   0  0  0  0  0  3  0  0  0  0  0  0
  -25.9150  -32.5130   23.8320 C   0  0  0  0  0  3  0  0  0  0  0  0
  -25.6060  -33.9070   24.1760 N   0  0  0  0  0  0  0  0  0  0  0  0
  -25.9210  -34.9660   23.4190 C   0  0  0  0  0  0  0  0  0  0  0  0
  -26.5740  -34.8740   22.3760 O   0  0  0  0  0  0  0  0  0  0  0  0
  -25.0190  -34.0510   24.9850 H   0  0  0  0  0  0  0  0  0  0  0  0
  -24.1820  -36.7580   23.1010 C   0  0  0  0  0  1  0  0  0  0  0  0
  -25.4350  -36.3500   23.8920 C   0  0  0  0  0  3  0  0  0  0  0  0
  -27.5810  -37.2340   24.6950 C   0  0  0  0  0  1  0  0  0  0  0  0
  -26.4610  -37.4100   23.7740 N   0  0  0  0  0  0  0  0  0  0  0  0
  -26.0550  -38.3250   23.9500 H   0  0  0  0  0  0  0  0  0  0  0  0
  -26.4510  -31.7350   25.0960 C   0  0  1  0  0  0  0  0  0  0  0  0
  -25.3710  -31.4970   26.1780 C   0  0  0  0  0  1  0  0  0  0  0  0
  -27.0260  -30.3560   24.6900 C   0  0  0  0  0  1  0  0  0  0  0  0
  -27.6130  -32.5220   25.7450 C   0  0  0  0  0  1  0  0  0  0  0  0
  -29.0290  -21.3730   19.4030 C   0  0  0  0  0  2  0  0  0  0  0  0
  -28.0750  -19.0170   20.0540 C   0  0  0  0  0  3  0  0  0  0  0  0
  -30.4250  -19.3930   20.3730 C   0  0  0  0  0  3  0  0  0  0  0  0
  -28.2710  -17.6300   20.3390 C   0  0  0  0  0  3  0  0  0  0  0  0
  -30.6300  -18.0020   20.6380 C   0  0  0  0  0  3  0  0  0  0  0  0
  -29.1550  -19.9370   20.0380 C   0  0  0  0  0  0  0  0  0  0  0  0
  -29.5570  -17.0720   20.6010 C   0  0  0  0  0  0  0  0  0  0  0  0
  -30.5440  -14.6630   20.4530 C   0  0  0  0  0  0  0  0  0  0  0  0
  -30.4220  -12.4280   19.3530 C   0  0  0  0  0  2  0  0  0  0  0  0
  -29.4700  -12.5490   18.1400 C   0  0  0  0  0  2  0  0  0  0  0  0
  -27.9970  -12.3840   18.5610 C   0  0  0  0  0  2  0  0  0  0  0  0
  -27.6320  -13.2360   19.8020 C   0  0  0  0  0  3  0  0  0  0  0  0
  -28.6790  -13.0340   20.9200 C   0  0  0  0  0  2  0  0  0  0  0  0
  -29.9890  -13.4120   20.3670 N   0  0  0  0  0  0  0  0  0  0  0  0
  -31.6910  -14.8880   20.0470 O   0  0  0  0  0  0  0  0  0  0  0  0
  -29.6790  -15.6400   20.8840 N   0  0  0  0  0  0  0  0  0  0  0  0
  -28.8290  -15.2260   21.2320 H   0  0  0  0  0  0  0  0  0  0  0  0
  -25.2330  -13.8530   20.4870 C   0  0  0  0  0  0  0  0  0  0  0  0
  -24.1650  -13.0850   20.8630 C   0  0  0  0  0  0  0  0  0  0  0  0
  -24.6240  -11.7340   20.8400 C   0  0  0  0  0  0  0  0  0  0  0  0
  -26.2780  -12.9670   20.2700 N   0  0  0  0  0  0  0  0  0  0  0  0
  -25.9150  -11.6900   20.5400 N   0  0  0  0  0  0  0  0  0  0  0  0
  -23.8950  -10.4750   21.0310 C   0  0  0  0  0  0  0  0  0  0  0  0
  -24.3260   -9.5090   21.9670 C   0  0  0  0  0  3  0  0  0  0  0  0
  -23.5960   -8.3130   22.1460 C   0  0  0  0  0  3  0  0  0  0  0  0
  -22.4250   -8.0770   21.3870 C   0  0  0  0  0  0  0  0  0  0  0  0
  -22.0150   -9.0330   20.4420 C   0  0  0  0  0  3  0  0  0  0  0  0
  -22.7440  -10.2200   20.2610 C   0  0  0  0  0  3  0  0  0  0  0  0
  -21.6660   -6.9350   21.4780 O   0  0  0  0  0  0  0  0  0  0  0  0
  -21.6210   -6.1890   22.6270 C   0  0  0  0  0  0  0  0  0  0  0  0
  -21.2060   -6.7450   23.8570 C   0  0  0  0  0  3  0  0  0  0  0  0
  -21.1030   -5.9280   25.0010 C   0  0  0  0  0  3  0  0  0  0  0  0
  -21.4110   -4.5560   24.9160 C   0  0  0  0  0  0  0  0  0  0  0  0
  -21.8200   -4.0000   23.6910 C   0  0  0  0  0  3  0  0  0  0  0  0
  -21.9230   -4.8150   22.5500 C   0  0  0  0  0  0  0  0  0  0  0  0
  -22.2980   -4.2700   21.3650 F   0  0  0  0  0  0  0  0  0  0  0  0
  -21.3070   -3.7680   26.0140 F   0  0  0  0  0  0  0  0  0  0  0  0
  -22.7660  -13.5680   21.1200 C   0  0  0  0  0  0  0  0  0  0  0  0
  -22.0310  -12.8780   21.9860 N   0  0  0  0  0  0  0  0  0  0  0  0
  -22.3330  -14.5880   20.5880 O   0  0  0  0  0  0  0  0  0  0  0  0
  -22.3950  -12.0480   22.4310 H   0  0  0  0  0  0  0  0  0  0  0  0
  -21.0930  -13.1820   22.2060 H   0  0  0  0  0  0  0  0  0  0  0  0
  -25.3900  -15.2190   20.2870 N   0  0  0  0  0  0  0  0  0  0  0  0
  -24.6020  -15.8550   20.3480 H   0  0  0  0  0  0  0  0  0  0  0  0
  -26.1750  -15.6090   19.7820 H   0  0  0  0  0  0  0  0  0  0  0  0
  1  5  1  0
  1  4  1  0
  3  2  1  0
  4  7  1  0
  4  2  1  0
  5  3  1  0
  6  1  2  0
  8 19  2  0
  9  7  1  0
  9 14  1  0
 10 18  1  0
 10 20  1  0
 11 17  1  0
 11 13  1  0
 12 18  1  0
 13 14  2  0
 13 12  1  0
 15 16  1  0
 15  9  2  0
 16 11  2  0
 17 10  1  0
 18  8  1  0
 20 22  2  0
 21 20  1  0
 23 21  1  0
 24 33  2  0
 24 29  1  0
 25 21  1  0
 25 29  1  0
 26 25  1  0
 27 28  1  0
 27 26  1  0
 28 24  1  0
 29 30  2  0
 30 31  1  0
 32 31  2  0
 33 32  1  0
 34  8  1  0
 34 35  1  0
 34 44  1  0
 35 38  1  0
 36 40  1  0
 36 35  1  0
 37 36  2  0
 40 39  1  0
 42 40  1  0
 42 43  1  0
 42 41  1  0
 44 47  1  1
 44 45  1  0
 46 44  1  0
 48 53  1  0
 48  5  1  0
 49 51  1  0
 50 52  2  0
 51 54  2  0
 53 49  2  0
 53 50  1  0
 54 52  1  0
 54 63  1  0
 55 63  1  0
 56 61  1  0
 57 58  1  0
 57 56  1  0
 59 58  1  0
 59 68  1  0
 59 60  1  0
 61 55  1  0
 61 60  1  0
 62 55  2  0
 63 64  1  0
 65 66  2  0
 66 85  1  0
 67 66  1  0
 67 70  1  0
 68 65  1  0
 68 69  1  0
 69 67  2  0
 70 71  1  0
 71 72  2  0
 73 76  1  0
 73 72  1  0
 74 73  2  0
 75 74  1  0
 75 70  2  0
 76 77  1  0
 77 78  1  0
 78 79  2  0
 80 79  1  0
 80 84  1  0
 81 80  2  0
 82 77  2  0
 82 81  1  0
 83 82  1  0
 85 86  1  0
 86 89  1  0
 86 88  1  0
 87 85  2  0
 90 91  1  0
 90 65  1  0
 92 90  1  0
M  ISO  4   4 101   7 101  55 100  63 100
M  END
>  <TORSDO>  (23) 
F 18

>  <SCORE>  (23) 
-14.993

>  <name>  (23) 
22

>  <ligand_id>  (23) 
22

>  <original_smiles>  (23) 
[H]c1c([H])c([H])c2c(c1[H])C([H])([H])C([H])([H])C([H])([H])C2([H])N([H])C(=O)C1([H])N(C(=O)C([H])(N([H])C(=O)C([H])(N([H])C([H])([H])[H])C([H])([H])[H])C(C([H])([H])[H])(C([H])([H])[H])C([H])([H])[H])C([H])([H])c2c([H])c(OC3([H])C(=O)N(C([H])([H])c4c([H])c([H])c(N([H])C(=O)N5C([H])([H])C([H])([H])C([H])([H])C([H])(n6nc(-c7c([H])c([H])c(Oc8c([H])c([H])c(F)c([H])c8F)c([H])c7[H])c(C(=O)N([H])[H])c6N([H])[H])C5([H])[H])c([H])c4[H])C([H])([H])C3([H])[H])c([H])c([H])c2C1([H])[H]

>  <smiles>  (23) 
[H]c1c([H])c([H])c2c(c1[H])C([H])([H])C([H])([H])C([H])([H])C2([H])N([H])C(=O)C1([H])N(C(=O)C([H])(N([H])C(=O)C([H])(N([H])C([H])([H])[H])C([H])([H])[H])C(C([H])([H])[H])(C([H])([H])[H])C([H])([H])[H])C([H])([H])c2c([H])c(OC3([H])C(=O)N(C([H])([H])c4c([H])c([H])c(N([H])C(=O)N5C([H])([H])C([H])([H])C([H])([H])C([H])(n6nc(-c7c([H])c([H])c(Oc8c([H])c([H])c(F)c([H])c8F)c([H])c7[H])c(C(=O)N([H])[H])c6N([H])[H])C5([H])[H])c([H])c4[H])C([H])([H])C3([H])[H])c([H])c([H])c2C1([H])[H]

$$$$
23:0:0
     RDKit          3D

 89 97  0  0  1  0  0  0  0  0999 V2000
  -30.6180  -18.5840   20.2340 C   0  0  0  0  0  3  0  0  0  0  0  0
  -30.3220  -20.0210   20.1180 C   0  0  0  0  0  3  0  0  0  0  0  0
  -28.3230  -18.1100   19.9970 C   0  0  0  0  0  3  0  0  0  0  0  0
  -29.6220  -17.5390   20.1790 C   0  0  0  0  0  0  0  0  0  0  0  0
  -28.9990  -20.5680   19.9200 C   0  0  0  0  0  0  0  0  0  0  0  0
  -28.0300  -19.5160   19.8660 C   0  0  0  0  0  0  0  0  0  0  0  0
  -26.7350  -19.8670   19.6790 F   0  0  0  0  0  0  0  0  0  0  0  0
  -30.5800  -14.9230   20.0660 C   0  0  0  0  0  0  0  0  0  0  0  0
  -30.4510  -12.5660   19.1460 C   0  0  0  0  0  2  0  0  0  0  0  0
  -29.4680  -12.5400   17.9490 C   0  0  0  0  0  2  0  0  0  0  0  0
  -28.0140  -12.3550   18.4280 C   0  0  0  0  0  2  0  0  0  0  0  0
  -27.6620  -13.2860   19.6170 C   0  0  0  0  0  3  0  0  0  0  0  0
  -28.7540  -13.2570   20.7090 C   0  0  0  0  0  2  0  0  0  0  0  0
  -30.0190  -13.6500   20.0680 N   0  0  0  0  0  0  0  0  0  0  0  0
  -31.7560  -15.0460   19.7010 O   0  0  0  0  0  0  0  0  0  0  0  0
  -29.7160  -16.0150   20.3160 N   0  0  0  0  0  0  0  0  0  0  0  0
  -28.8300  -15.6250   20.5980 H   0  0  0  0  0  0  0  0  0  0  0  0
  -25.3230  -13.9140   20.4530 C   0  0  0  0  0  0  0  0  0  0  0  0
  -24.2550  -13.1600   20.8530 C   0  0  0  0  0  0  0  0  0  0  0  0
  -24.6820  -11.7990   20.7750 C   0  0  0  0  0  0  0  0  0  0  0  0
  -26.3340  -13.0150   20.1560 N   0  0  0  0  0  0  0  0  0  0  0  0
  -25.9580  -11.7360   20.4130 N   0  0  0  0  0  0  0  0  0  0  0  0
  -23.9310  -10.5510   20.9660 C   0  0  0  0  0  0  0  0  0  0  0  0
  -24.3600   -9.5610   21.8760 C   0  0  0  0  0  3  0  0  0  0  0  0
  -23.6090   -8.3800   22.0560 C   0  0  0  0  0  3  0  0  0  0  0  0
  -22.4150   -8.1800   21.3260 C   0  0  0  0  0  0  0  0  0  0  0  0
  -22.0020   -9.1580   20.4040 C   0  0  0  0  0  3  0  0  0  0  0  0
  -22.7540  -10.3310   20.2210 C   0  0  0  0  0  3  0  0  0  0  0  0
  -21.6350   -7.0520   21.4170 O   0  0  0  0  0  0  0  0  0  0  0  0
  -21.5790   -6.3060   22.5670 C   0  0  0  0  0  0  0  0  0  0  0  0
  -21.1440   -6.8560   23.7920 C   0  0  0  0  0  3  0  0  0  0  0  0
  -21.0370   -6.0370   24.9340 C   0  0  0  0  0  3  0  0  0  0  0  0
  -21.3540   -4.6680   24.8510 C   0  0  0  0  0  0  0  0  0  0  0  0
  -21.7830   -4.1170   23.6300 C   0  0  0  0  0  3  0  0  0  0  0  0
  -21.8920   -4.9330   22.4910 C   0  0  0  0  0  0  0  0  0  0  0  0
  -22.2850   -4.3930   21.3120 F   0  0  0  0  0  0  0  0  0  0  0  0
  -21.2440   -3.8790   25.9450 F   0  0  0  0  0  0  0  0  0  0  0  0
  -22.8820  -13.6670   21.1860 C   0  0  0  0  0  0  0  0  0  0  0  0
  -22.1720  -12.9770   22.0720 N   0  0  0  0  0  0  0  0  0  0  0  0
  -22.4480  -14.7080   20.6950 O   0  0  0  0  0  0  0  0  0  0  0  0
  -22.5360  -12.1340   22.4910 H   0  0  0  0  0  0  0  0  0  0  0  0
  -21.2520  -13.2980   22.3390 H   0  0  0  0  0  0  0  0  0  0  0  0
  -25.5110  -15.2840   20.2900 N   0  0  0  0  0  0  0  0  0  0  0  0
  -24.7430  -15.9360   20.4050 H   0  0  0  0  0  0  0  0  0  0  0  0
  -26.3000  -15.6870   19.8030 H   0  0  0  0  0  0  0  0  0  0  0  0
  -28.5040  -21.9350   19.7320 O   0  0  0  0  0  0  0  0  0  0  0  0
  -29.0950  -23.3350   19.9090 C   0  0  0  0  0  3  0  0  0  0  0  0
  -28.1160  -24.6810   19.6400 C   0  0  0  0  0  3  0  0  0  0  0  0
  -28.3620  -26.1910   19.9150 O   0  0  0  0  0  0  0  0  0  0  0  0
  -24.5360  -31.6270   23.0850 C   0  0  0  0  0  0  0  0  0  0  0  0
  -27.2770  -27.1420   19.8750 C   0  0  0  0  0  0  0  0  0  0  0  0
  -23.3960  -30.2890   21.3560 C   0  0  0  0  0  3  0  0  0  0  0  0
  -24.9060  -28.8230   19.8830 C   0  0  0  0  0  0  0  0  0  0  0  0
  -25.9460  -30.6220   21.2520 C   0  0  0  0  0  2  0  0  0  0  0  0
  -26.0640  -29.2680   20.5340 C   0  0  0  0  0  0  0  0  0  0  0  0
  -27.2500  -28.4450   20.5130 C   0  0  0  0  0  3  0  0  0  0  0  0
  -26.0890  -26.7970   19.1910 C   0  0  0  0  0  3  0  0  0  0  0  0
  -24.9310  -27.6010   19.1980 C   0  0  0  0  0  3  0  0  0  0  0  0
  -23.6570  -29.6880   19.9500 C   0  0  0  0  0  2  0  0  0  0  0  0
  -24.6450  -30.8640   21.9540 N   0  0  0  0  0  0  0  0  0  0  0  0
  -23.4340  -31.8620   23.6050 O   0  0  0  0  0  0  0  0  0  0  0  0
  -22.7240  -29.2200   22.2530 C   0  0  0  0  0  0  0  0  0  0  0  0
  -21.3950  -29.0550   22.1190 N   0  0  0  0  0  0  0  0  0  0  0  0
  -23.3990  -28.5440   23.0340 O   0  0  0  0  0  0  0  0  0  0  0  0
  -20.9070  -29.6540   21.4680 H   0  0  0  0  0  0  0  0  0  0  0  0
  -18.0080  -27.8640   22.6020 C   0  0  0  0  0  0  0  0  0  0  0  0
  -20.5770  -28.0710   22.8320 C   0  0  0  0  0  3  0  0  0  0  0  0
  -20.6440  -26.6870   22.1430 C   0  0  0  0  0  2  0  0  0  0  0  0
  -19.5160  -26.4610   21.1320 C   0  0  0  0  0  2  0  0  0  0  0  0
  -18.1500  -26.5720   21.8170 C   0  0  0  0  0  2  0  0  0  0  0  0
  -19.1480  -28.5760   23.0650 C   0  0  0  0  0  0  0  0  0  0  0  0
  -18.9590  -29.7890   23.7640 C   0  0  0  0  0  3  0  0  0  0  0  0
  -17.6650  -30.2900   24.0000 C   0  0  0  0  0  3  0  0  0  0  0  0
  -16.5420  -29.5740   23.5510 C   0  0  0  0  0  3  0  0  0  0  0  0
  -16.7140  -28.3630   22.8590 C   0  0  0  0  0  3  0  0  0  0  0  0
  -25.7880  -32.2560   23.7670 C   0  0  0  0  0  3  0  0  0  0  0  0
  -26.2640  -31.4600   25.0450 C   0  0  1  0  0  0  0  0  0  0  0  0
  -25.1360  -31.1940   26.0690 C   0  0  0  0  0  1  0  0  0  0  0  0
  -26.8680  -30.0930   24.6470 C   0  0  0  0  0  1  0  0  0  0  0  0
  -27.3860  -32.2460   25.7630 C   0  0  0  0  0  1  0  0  0  0  0  0
  -25.4530  -33.6440   24.1230 N   0  0  0  0  0  0  0  0  0  0  0  0
  -25.7720  -34.7190   23.3900 C   0  0  0  0  0  0  0  0  0  0  0  0
  -26.4450  -34.6480   22.3590 O   0  0  0  0  0  0  0  0  0  0  0  0
  -24.8550  -33.7720   24.9260 H   0  0  0  0  0  0  0  0  0  0  0  0
  -24.0050  -36.4870   23.0910 C   0  0  0  0  0  1  0  0  0  0  0  0
  -25.2650  -36.0920   23.8780 C   0  0  0  0  0  3  0  0  0  0  0  0
  -27.3890  -37.0120   24.7010 C   0  0  0  0  0  1  0  0  0  0  0  0
  -26.2770  -37.1660   23.7680 N   0  0  0  0  0  0  0  0  0  0  0  0
  -25.8530  -38.0770   23.9260 H   0  0  0  0  0  0  0  0  0  0  0  0
  2  1  2  0
  3  4  2  0
  4  1  1  0
  4 16  1  0
  5  2  1  0
  6  5  2  0
  6  3  1  0
  7  6  1  0
  8 14  1  0
  8 16  1  0
  9 14  1  0
 10 11  1  0
 10  9  1  0
 12 11  1  0
 12 21  1  0
 12 13  1  0
 14 13  1  0
 15  8  2  0
 16 17  1  0
 18 19  2  0
 19 38  1  0
 20 19  1  0
 20 23  1  0
 21 22  1  0
 21 18  1  0
 22 20  2  0
 23 24  1  0
 24 25  2  0
 26 29  1  0
 26 25  1  0
 27 26  2  0
 28 27  1  0
 28 23  2  0
 29 30  1  0
 30 31  1  0
 31 32  2  0
 33 32  1  0
 33 37  1  0
 34 33  2  0
 35 30  2  0
 35 34  1  0
 36 35  1  0
 38 39  1  0
 39 42  1  0
 39 41  1  0
 40 38  2  0
 43 44  1  0
 43 18  1  0
 45 43  1  0
 46 47  1  0
 46  5  1  0
 48 47  2  0
 48 49  1  0
 50 61  2  0
 51 49  1  0
 51 56  1  0
 52 60  1  0
 52 62  1  0
 53 59  1  0
 53 55  1  0
 54 60  1  0
 55 54  1  0
 56 55  2  0
 57 58  1  0
 57 51  2  0
 58 53  2  0
 59 52  1  0
 60 50  1  0
 62 64  2  0
 63 62  1  0
 65 63  1  0
 66 75  2  0
 66 71  1  0
 67 63  1  0
 67 71  1  0
 68 67  1  0
 69 70  1  0
 69 68  1  0
 70 66  1  0
 71 72  2  0
 72 73  1  0
 74 73  2  0
 75 74  1  0
 76 50  1  0
 76 81  1  0
 76 77  1  0
 77 80  1  1
 77 78  1  0
 79 77  1  0
 81 84  1  0
 82 86  1  0
 82 81  1  0
 83 82  2  0
 86 85  1  0
 88 86  1  0
 88 89  1  0
 88 87  1  0
M  ISO  4   8 100  16 100  48 101  49 101
M  END
>  <TORSDO>  (24) 
F 19

>  <SCORE>  (24) 
-13.742

>  <name>  (24) 
23

>  <ligand_id>  (24) 
23

>  <original_smiles>  (24) 
[H]c1c([H])c([H])c2c(c1[H])C([H])([H])C([H])([H])C([H])([H])C2([H])N([H])C(=O)C1([H])N(C(=O)C([H])(N([H])C(=O)C([H])(N([H])C([H])([H])[H])C([H])([H])[H])C(C([H])([H])[H])(C([H])([H])[H])C([H])([H])[H])C([H])([H])c2c([H])c(OC([H])([H])C([H])([H])Oc3c([H])c([H])c(N([H])C(=O)N4C([H])([H])C([H])([H])C([H])([H])C([H])(n5nc(-c6c([H])c([H])c(Oc7c([H])c([H])c(F)c([H])c7F)c([H])c6[H])c(C(=O)N([H])[H])c5N([H])[H])C4([H])[H])c([H])c3F)c([H])c([H])c2C1([H])[H]

>  <smiles>  (24) 
[H]c1c([H])c([H])c2c(c1[H])C([H])([H])C([H])([H])C([H])([H])C2([H])N([H])C(=O)C1([H])N(C(=O)C([H])(N([H])C(=O)C([H])(N([H])C([H])([H])[H])C([H])([H])[H])C(C([H])([H])[H])(C([H])([H])[H])C([H])([H])[H])C([H])([H])c2c([H])c(OC([H])([H])C([H])([H])Oc3c([H])c([H])c(N([H])C(=O)N4C([H])([H])C([H])([H])C([H])([H])C([H])(n5nc(-c6c([H])c([H])c(Oc7c([H])c([H])c(F)c([H])c7F)c([H])c6[H])c(C(=O)N([H])[H])c5N([H])[H])C4([H])[H])c([H])c3F)c([H])c([H])c2C1([H])[H]

$$$$
24:0:0
     RDKit          3D

 81 85  0  0  1  0  0  0  0  0999 V2000
  -28.1090  -24.6470   20.3000 O   0  0  0  0  0  1  0  0  0  0  0  0
  -24.7100  -31.7810   23.1610 C   0  0  0  0  0  0  0  0  0  0  0  0
  -27.2070  -26.1440   20.2640 C   0  0  0  0  0  0  0  0  0  0  0  0
  -23.5560  -30.3680   21.5220 C   0  0  0  0  0  3  0  0  0  0  0  0
  -25.0090  -28.5810   20.1690 C   0  0  0  0  0  0  0  0  0  0  0  0
  -26.1560  -30.3130   21.5020 C   0  0  0  0  0  2  0  0  0  0  0  0
  -26.2110  -28.8120   20.8490 C   0  0  0  0  0  0  0  0  0  0  0  0
  -27.2590  -27.6460   20.8460 C   0  0  0  0  0  3  0  0  0  0  0  0
  -25.9680  -26.2870   19.5230 C   0  0  0  0  0  3  0  0  0  0  0  0
  -24.9660  -27.3480   19.4800 C   0  0  0  0  0  3  0  0  0  0  0  0
  -23.8360  -29.6140   20.1780 C   0  0  0  0  0  2  0  0  0  0  0  0
  -24.8390  -30.8700   22.1140 N   0  0  0  0  0  0  0  0  0  0  0  0
  -23.6010  -32.1150   23.6230 O   0  0  0  0  0  0  0  0  0  0  0  0
  -22.7620  -29.4580   22.5040 C   0  0  0  0  0  0  0  0  0  0  0  0
  -21.4220  -29.3560   22.3730 N   0  0  0  0  0  0  0  0  0  0  0  0
  -23.3780  -28.8290   23.3670 O   0  0  0  0  0  0  0  0  0  0  0  0
  -20.9670  -29.9120   21.6630 H   0  0  0  0  0  0  0  0  0  0  0  0
  -17.9970  -28.2130   22.9010 C   0  0  0  0  0  0  0  0  0  0  0  0
  -20.5670  -28.4380   23.1430 C   0  0  0  0  0  3  0  0  0  0  0  0
  -20.6330  -27.0060   22.5600 C   0  0  0  0  0  2  0  0  0  0  0  0
  -19.5210  -26.7160   21.5460 C   0  0  0  0  0  2  0  0  0  0  0  0
  -18.1460  -26.8740   22.1990 C   0  0  0  0  0  2  0  0  0  0  0  0
  -19.1320  -28.9550   23.3290 C   0  0  0  0  0  0  0  0  0  0  0  0
  -18.9320  -30.2040   23.9560 C   0  0  0  0  0  3  0  0  0  0  0  0
  -17.6350  -30.7130   24.1530 C   0  0  0  0  0  3  0  0  0  0  0  0
  -16.5160  -29.9710   23.7350 C   0  0  0  0  0  3  0  0  0  0  0  0
  -16.6980  -28.7220   23.1160 C   0  0  0  0  0  3  0  0  0  0  0  0
  -25.9400  -32.4590   23.8420 C   0  0  0  0  0  3  0  0  0  0  0  0
  -25.5980  -33.8650   24.1720 N   0  0  0  0  0  0  0  0  0  0  0  0
  -25.9200  -34.9450   23.4450 C   0  0  0  0  0  0  0  0  0  0  0  0
  -26.5760  -34.8640   22.4040 O   0  0  0  0  0  0  0  0  0  0  0  0
  -25.0070  -33.9990   24.9800 H   0  0  0  0  0  0  0  0  0  0  0  0
  -24.1680  -36.7480   23.1980 C   0  0  0  0  0  1  0  0  0  0  0  0
  -25.4480  -36.3330   23.9420 C   0  0  0  0  0  3  0  0  0  0  0  0
  -27.6060  -37.2470   24.6880 C   0  0  0  0  0  1  0  0  0  0  0  0
  -26.4650  -37.3980   23.7880 N   0  0  0  0  0  0  0  0  0  0  0  0
  -26.0550  -38.3150   23.9480 H   0  0  0  0  0  0  0  0  0  0  0  0
  -26.3960  -31.7200   25.1620 C   0  0  1  0  0  0  0  0  0  0  0  0
  -25.2580  -31.5140   26.1910 C   0  0  0  0  0  1  0  0  0  0  0  0
  -26.9880  -30.3300   24.8490 C   0  0  0  0  0  1  0  0  0  0  0  0
  -27.5230  -32.5250   25.8520 C   0  0  0  0  0  1  0  0  0  0  0  0
  -28.1400  -22.5480   20.1630 C   0  0  0  0  0 15  0  0  0  0  0  0
  -29.1420  -20.4180   20.2160 C   0  0  0  0  0 15  0  0  0  0  0  0
  -29.9010  -16.6470   20.0860 C   0  0  0  0  0  0  0  0  0  0  0  0
  -30.2300  -13.8900   19.2940 C   0  0  0  0  0  2  0  0  0  0  0  0
  -29.4480  -13.0530   18.1990 C   0  0  0  0  0  2  0  0  0  0  0  0
  -28.1340  -12.4820   18.7300 C   0  0  0  0  0  2  0  0  0  0  0  0
  -27.5010  -13.5140   19.6750 C   0  0  0  0  0  3  0  0  0  0  0  0
  -28.4750  -14.2100   20.6950 C   0  0  0  0  0  2  0  0  0  0  0  0
  -29.4550  -15.1290   19.9600 N   0  0  0  0  0  0  0  0  0  0  0  0
  -31.1430  -16.3980   20.0040 O   0  0  0  0  0  0  0  0  0  0  0  0
  -29.2570  -18.3100   20.1340 N   0  0  0  0  0  2  0  0  0  0  0  0
  -30.2580  -18.4710   20.1320 H   0  0  0  0  0  0  0  0  0  0  0  0
  -25.1600  -13.9200   20.5080 C   0  0  0  0  0  0  0  0  0  0  0  0
  -24.1280  -13.1120   20.8810 C   0  0  0  0  0  0  0  0  0  0  0  0
  -24.6260  -11.7720   20.8220 C   0  0  0  0  0  0  0  0  0  0  0  0
  -26.2240  -13.0860   20.2420 N   0  0  0  0  0  0  0  0  0  0  0  0
  -25.9190  -11.7780   20.4820 N   0  0  0  0  0  0  0  0  0  0  0  0
  -23.9140  -10.4950   21.0120 C   0  0  0  0  0  0  0  0  0  0  0  0
  -24.3570   -9.5290   21.9420 C   0  0  0  0  0  3  0  0  0  0  0  0
  -23.6350   -8.3280   22.1300 C   0  0  0  0  0  3  0  0  0  0  0  0
  -22.4560   -8.0830   21.3870 C   0  0  0  0  0  0  0  0  0  0  0  0
  -22.0290   -9.0390   20.4470 C   0  0  0  0  0  3  0  0  0  0  0  0
  -22.7510  -10.2310   20.2590 C   0  0  0  0  0  3  0  0  0  0  0  0
  -21.7070   -6.9350   21.4820 O   0  0  0  0  0  0  0  0  0  0  0  0
  -21.6700   -6.1910   22.6350 C   0  0  0  0  0  0  0  0  0  0  0  0
  -21.2140   -6.7320   23.8560 C   0  0  0  0  0  3  0  0  0  0  0  0
  -21.1260   -5.9140   25.0000 C   0  0  0  0  0  3  0  0  0  0  0  0
  -21.4850   -4.5540   24.9250 C   0  0  0  0  0  0  0  0  0  0  0  0
  -21.9340   -4.0110   23.7070 C   0  0  0  0  0  3  0  0  0  0  0  0
  -22.0220   -4.8270   22.5660 C   0  0  0  0  0  0  0  0  0  0  0  0
  -22.4340   -4.2930   21.3900 F   0  0  0  0  0  0  0  0  0  0  0  0
  -21.3950   -3.7660   26.0220 F   0  0  0  0  0  0  0  0  0  0  0  0
  -22.7270  -13.5620   21.1730 C   0  0  0  0  0  0  0  0  0  0  0  0
  -22.0260  -12.8570   22.0520 N   0  0  0  0  0  0  0  0  0  0  0  0
  -22.2670  -14.5820   20.6590 O   0  0  0  0  0  0  0  0  0  0  0  0
  -22.4140  -12.0340   22.4890 H   0  0  0  0  0  0  0  0  0  0  0  0
  -21.0880  -13.1430   22.2910 H   0  0  0  0  0  0  0  0  0  0  0  0
  -25.2790  -15.2960   20.3350 N   0  0  0  0  0  0  0  0  0  0  0  0
  -24.4980  -15.9290   20.4650 H   0  0  0  0  0  0  0  0  0  0  0  0
  -26.1180  -15.7610   20.0090 H   0  0  0  0  0  0  0  0  0  0  0  0
  2 13  2  0
  3  1  1  0
  3  8  1  0
  4 12  1  0
  4 14  1  0
  5 11  1  0
  5  7  1  0
  6 12  1  0
  7  6  1  0
  8  7  2  0
  9  3  2  0
 10  9  1  0
 10  5  2  0
 11  4  1  0
 12  2  1  0
 14 16  2  0
 15 14  1  0
 17 15  1  0
 18 27  2  0
 18 23  1  0
 19 15  1  0
 19 23  1  0
 20 19  1  0
 21 22  1  0
 21 20  1  0
 22 18  1  0
 23 24  2  0
 24 25  1  0
 26 25  2  0
 27 26  1  0
 28  2  1  0
 28 29  1  0
 28 38  1  0
 29 32  1  0
 30 34  1  0
 30 29  1  0
 31 30  2  0
 34 33  1  0
 36 34  1  0
 36 37  1  0
 36 35  1  0
 38 41  1  1
 38 39  1  0
 40 38  1  0
 44 52  1  0
 45 50  1  0
 46 47  1  0
 46 45  1  0
 48 47  1  0
 48 57  1  0
 48 49  1  0
 50 44  1  0
 50 49  1  0
 51 44  2  0
 53 52  1  0
 54 55  2  0
 55 74  1  0
 56 55  1  0
 56 59  1  0
 57 58  1  0
 57 54  1  0
 58 56  2  0
 59 60  1  0
 60 61  2  0
 62 65  1  0
 62 61  1  0
 63 62  2  0
 64 63  1  0
 64 59  2  0
 65 66  1  0
 66 67  1  0
 67 68  2  0
 69 68  1  0
 69 73  1  0
 70 69  2  0
 71 66  2  0
 71 70  1  0
 72 71  1  0
 74 75  1  0
 75 78  1  0
 75 77  1  0
 76 74  2  0
 79 80  1  0
 79 54  1  0
 81 79  1  0
M  ISO  4   1 101  42 101  44 100  52 100
M  END
>  <TORSDO>  (25) 
F 17

>  <SCORE>  (25) 
-16.141

>  <name>  (25) 
24

>  <ligand_id>  (25) 
24

>  <original_smiles>  (25) 
[H]c1c([H])c([H])c2c(c1[H])C([H])([H])C([H])([H])C([H])([H])C2([H])N([H])C(=O)C1([H])N(C(=O)C([H])(N([H])C(=O)C([H])(N([H])C([H])([H])[H])C([H])([H])[H])C(C([H])([H])[H])(C([H])([H])[H])C([H])([H])[H])C([H])([H])c2c([H])c(OC([H])([H])C([H])([H])N([H])C(=O)N3C([H])([H])C([H])([H])C([H])([H])C([H])(n4nc(-c5c([H])c([H])c(Oc6c([H])c([H])c(F)c([H])c6F)c([H])c5[H])c(C(=O)N([H])[H])c4N([H])[H])C3([H])[H])c([H])c([H])c2C1([H])[H]

>  <smiles>  (25) 
[H]c1c([H])c([H])c2c(c1[H])C([H])([H])C([H])([H])C([H])([H])C2([H])N([H])C(=O)C1([H])N(C(=O)C([H])(N([H])C(=O)C([H])(N([H])C([H])([H])[H])C([H])([H])[H])C(C([H])([H])[H])(C([H])([H])[H])C([H])([H])[H])C([H])([H])c2c([H])c(OC([H])([H])C([H])([H])N([H])C(=O)N3C([H])([H])C([H])([H])C([H])([H])C([H])(n4nc(-c5c([H])c([H])c(Oc6c([H])c([H])c(F)c([H])c6F)c([H])c5[H])c(C(=O)N([H])[H])c4N([H])[H])C3([H])[H])c([H])c([H])c2C1([H])[H]

$$$$
25:0:0
     RDKit          3D

 91100  0  0  1  0  0  0  0  0999 V2000
  -28.9940  -24.4010   21.8230 C   0  0  0  0  0  2  0  0  0  0  0  0
  -29.0310  -22.8450   21.9740 C   0  0  0  0  0  2  0  0  0  0  0  0
  -28.5380  -23.3920   19.7420 C   0  0  0  0  0  2  0  0  0  0  0  0
  -28.1310  -24.7520   20.5950 C   0  0  0  0  0  3  0  0  0  0  0  0
  -29.0080  -22.2350   20.6400 N   0  0  0  0  0  0  0  0  0  0  0  0
  -28.4440  -19.8660   19.6780 C   0  0  0  0  0  3  0  0  0  0  0  0
  -28.6090  -18.4190   19.6300 C   0  0  0  0  0  3  0  0  0  0  0  0
  -30.4440  -18.5480   21.0880 C   0  0  0  0  0  3  0  0  0  0  0  0
  -29.2350  -20.7580   20.4760 C   0  0  0  0  0  0  0  0  0  0  0  0
  -29.6160  -17.6570   20.3270 C   0  0  0  0  0  0  0  0  0  0  0  0
  -30.2600  -19.9960   21.1690 C   0  0  0  0  0  0  0  0  0  0  0  0
  -31.1260  -20.6660   21.9660 F   0  0  0  0  0  0  0  0  0  0  0  0
  -30.4720  -15.0070   20.2490 C   0  0  0  0  0  0  0  0  0  0  0  0
  -30.3890  -12.6630   19.2790 C   0  0  0  0  0  2  0  0  0  0  0  0
  -29.4280  -12.6210   18.0670 C   0  0  0  0  0  2  0  0  0  0  0  0
  -27.9730  -12.3990   18.5220 C   0  0  0  0  0  2  0  0  0  0  0  0
  -27.5800  -13.3090   19.7140 C   0  0  0  0  0  3  0  0  0  0  0  0
  -28.6550  -13.3020   20.8230 C   0  0  0  0  0  2  0  0  0  0  0  0
  -29.9150  -13.7320   20.2000 N   0  0  0  0  0  0  0  0  0  0  0  0
  -31.6730  -15.1230   19.9750 O   0  0  0  0  0  0  0  0  0  0  0  0
  -29.5930  -16.1180   20.3670 N   0  0  0  0  0  0  0  0  0  0  0  0
  -28.6510  -15.7650   20.4120 H   0  0  0  0  0  0  0  0  0  0  0  0
  -25.2060  -13.8760   20.4900 C   0  0  0  0  0  0  0  0  0  0  0  0
  -24.1500  -13.0940   20.8710 C   0  0  0  0  0  0  0  0  0  0  0  0
  -24.6200  -11.7450   20.8220 C   0  0  0  0  0  0  0  0  0  0  0  0
  -26.2490  -13.0040   20.2290 N   0  0  0  0  0  0  0  0  0  0  0  0
  -25.9060  -11.7160   20.4930 N   0  0  0  0  0  0  0  0  0  0  0  0
  -23.9000  -10.4790   21.0090 C   0  0  0  0  0  0  0  0  0  0  0  0
  -24.3270   -9.5190   21.9510 C   0  0  0  0  0  3  0  0  0  0  0  0
  -23.6070   -8.3180   22.1270 C   0  0  0  0  0  3  0  0  0  0  0  0
  -22.4430   -8.0700   21.3590 C   0  0  0  0  0  0  0  0  0  0  0  0
  -22.0360   -9.0180   20.4050 C   0  0  0  0  0  3  0  0  0  0  0  0
  -22.7580  -10.2100   20.2280 C   0  0  0  0  0  3  0  0  0  0  0  0
  -21.6950   -6.9210   21.4440 O   0  0  0  0  0  0  0  0  0  0  0  0
  -21.6110   -6.2000   22.6080 C   0  0  0  0  0  0  0  0  0  0  0  0
  -21.1240   -6.7720   23.8050 C   0  0  0  0  0  3  0  0  0  0  0  0
  -20.9900   -5.9770   24.9610 C   0  0  0  0  0  3  0  0  0  0  0  0
  -21.3300   -4.6120   24.9200 C   0  0  0  0  0  0  0  0  0  0  0  0
  -21.8100   -4.0390   23.7290 C   0  0  0  0  0  3  0  0  0  0  0  0
  -21.9460   -4.8310   22.5750 C   0  0  0  0  0  0  0  0  0  0  0  0
  -22.3880   -4.2710   21.4240 F   0  0  0  0  0  0  0  0  0  0  0  0
  -21.1940   -3.8450   26.0280 F   0  0  0  0  0  0  0  0  0  0  0  0
  -22.7560  -13.5640   21.1650 C   0  0  0  0  0  0  0  0  0  0  0  0
  -22.0400  -12.8580   22.0330 N   0  0  0  0  0  0  0  0  0  0  0  0
  -22.3090  -14.5930   20.6600 O   0  0  0  0  0  0  0  0  0  0  0  0
  -22.4140  -12.0240   22.4610 H   0  0  0  0  0  0  0  0  0  0  0  0
  -21.1050  -13.1550   22.2720 H   0  0  0  0  0  0  0  0  0  0  0  0
  -25.3570  -15.2500   20.3210 N   0  0  0  0  0  0  0  0  0  0  0  0
  -24.5740  -15.8850   20.4340 H   0  0  0  0  0  0  0  0  0  0  0  0
  -26.1740  -15.6990   19.9330 H   0  0  0  0  0  0  0  0  0  0  0  0
  -28.2890  -26.2580   20.2250 O   0  0  0  0  0  0  0  0  0  0  0  0
  -24.6070  -31.9040   23.2340 C   0  0  0  0  0  0  0  0  0  0  0  0
  -27.2020  -27.2020   20.2210 C   0  0  0  0  0  0  0  0  0  0  0  0
  -23.4090  -30.5060   21.5930 C   0  0  0  0  0  3  0  0  0  0  0  0
  -24.8610  -28.9250   20.1790 C   0  0  0  0  0  0  0  0  0  0  0  0
  -25.9610  -30.7800   21.4250 C   0  0  0  0  0  2  0  0  0  0  0  0
  -26.0390  -29.3860   20.7820 C   0  0  0  0  0  0  0  0  0  0  0  0
  -27.2120  -28.5430   20.7780 C   0  0  0  0  0  3  0  0  0  0  0  0
  -25.9970  -26.8310   19.5900 C   0  0  0  0  0  3  0  0  0  0  0  0
  -24.8520  -27.6600   19.5680 C   0  0  0  0  0  3  0  0  0  0  0  0
  -23.6340  -29.8210   20.2170 C   0  0  0  0  0  2  0  0  0  0  0  0
  -24.6790  -31.0860   22.1390 N   0  0  0  0  0  0  0  0  0  0  0  0
  -23.5210  -32.1870   23.7630 O   0  0  0  0  0  0  0  0  0  0  0  0
  -22.7290  -29.5030   22.5570 C   0  0  0  0  0  0  0  0  0  0  0  0
  -21.4030  -29.3230   22.4220 N   0  0  0  0  0  0  0  0  0  0  0  0
  -23.3980  -28.8850   23.3900 O   0  0  0  0  0  0  0  0  0  0  0  0
  -20.9180  -29.8740   21.7290 H   0  0  0  0  0  0  0  0  0  0  0  0
  -18.0270  -28.1000   22.9030 C   0  0  0  0  0  0  0  0  0  0  0  0
  -20.5820  -28.3850   23.1920 C   0  0  0  0  0  3  0  0  0  0  0  0
  -20.7000  -26.9490   22.6300 C   0  0  0  0  0  2  0  0  0  0  0  0
  -19.6100  -26.6100   21.6080 C   0  0  0  0  0  2  0  0  0  0  0  0
  -18.2210  -26.7480   22.2370 C   0  0  0  0  0  2  0  0  0  0  0  0
  -19.1360  -28.8750   23.3380 C   0  0  0  0  0  0  0  0  0  0  0  0
  -18.8990  -30.1390   23.9220 C   0  0  0  0  0  3  0  0  0  0  0  0
  -17.5880  -30.6280   24.0750 C   0  0  0  0  0  3  0  0  0  0  0  0
  -16.4950  -29.8510   23.6540 C   0  0  0  0  0  3  0  0  0  0  0  0
  -16.7150  -28.5890   23.0760 C   0  0  0  0  0  3  0  0  0  0  0  0
  -25.8850  -32.5410   23.8630 C   0  0  0  0  0  3  0  0  0  0  0  0
  -25.5750  -33.9410   24.1930 N   0  0  0  0  0  0  0  0  0  0  0  0
  -25.9000  -34.9950   23.4330 C   0  0  0  0  0  0  0  0  0  0  0  0
  -26.5620  -34.8920   22.3960 O   0  0  0  0  0  0  0  0  0  0  0  0
  -24.9890  -34.0960   25.0010 H   0  0  0  0  0  0  0  0  0  0  0  0
  -24.1660  -36.7880   23.1000 C   0  0  0  0  0  1  0  0  0  0  0  0
  -25.4190  -36.3850   23.8950 C   0  0  0  0  0  3  0  0  0  0  0  0
  -27.5650  -37.2740   24.6950 C   0  0  0  0  0  1  0  0  0  0  0  0
  -26.4480  -37.4410   23.7680 N   0  0  0  0  0  0  0  0  0  0  0  0
  -26.0430  -38.3590   23.9250 H   0  0  0  0  0  0  0  0  0  0  0  0
  -26.3910  -31.7760   25.1470 C   0  0  1  0  0  0  0  0  0  0  0  0
  -25.2920  -31.5500   26.2120 C   0  0  0  0  0  1  0  0  0  0  0  0
  -26.9710  -30.3940   24.7670 C   0  0  0  0  0  1  0  0  0  0  0  0
  -27.5410  -32.5680   25.8110 C   0  0  0  0  0  1  0  0  0  0  0  0
  1  2  1  0
  3  4  1  0
  3  5  1  0
  4 51  1  0
  4  1  1  0
  5  2  1  0
  6  9  1  0
  7  6  2  0
  7 10  1  0
  8 11  1  0
  9  5  1  0
  9 11  2  0
 10 21  1  0
 10  8  2  0
 11 12  1  0
 13 21  1  0
 14 19  1  0
 15 16  1  0
 15 14  1  0
 17 16  1  0
 17 26  1  0
 17 18  1  0
 19 13  1  0
 19 18  1  0
 20 13  2  0
 21 22  1  0
 23 24  2  0
 24 43  1  0
 25 24  1  0
 25 28  1  0
 26 23  1  0
 26 27  1  0
 27 25  2  0
 28 29  1  0
 29 30  2  0
 31 34  1  0
 31 30  1  0
 32 31  2  0
 33 32  1  0
 33 28  2  0
 34 35  1  0
 35 36  1  0
 36 37  2  0
 38 37  1  0
 38 42  1  0
 39 38  2  0
 40 35  2  0
 40 39  1  0
 41 40  1  0
 43 44  1  0
 44 47  1  0
 44 46  1  0
 45 43  2  0
 48 49  1  0
 48 23  1  0
 50 48  1  0
 52 63  2  0
 53 51  1  0
 53 58  1  0
 54 62  1  0
 54 64  1  0
 55 61  1  0
 55 57  1  0
 56 62  1  0
 57 56  1  0
 58 57  2  0
 59 53  2  0
 60 59  1  0
 60 55  2  0
 61 54  1  0
 62 52  1  0
 64 66  2  0
 65 64  1  0
 67 65  1  0
 68 77  2  0
 68 73  1  0
 69 65  1  0
 69 73  1  0
 70 69  1  0
 71 72  1  0
 71 70  1  0
 72 68  1  0
 73 74  2  0
 74 75  1  0
 76 75  2  0
 77 76  1  0
 78 52  1  0
 78 79  1  0
 78 88  1  0
 79 82  1  0
 80 84  1  0
 80 79  1  0
 81 80  2  0
 84 83  1  0
 86 84  1  0
 86 87  1  0
 86 85  1  0
 88 91  1  1
 88 89  1  0
 90 88  1  0
M  ISO  4   4 101  13 100  21 100  51 101
M  END
>  <TORSDO>  (26) 
F 17

>  <SCORE>  (26) 
-15.402

>  <name>  (26) 
25

>  <ligand_id>  (26) 
25

>  <original_smiles>  (26) 
[H]c1c([H])c([H])c2c(c1[H])C([H])([H])C([H])([H])C([H])([H])C2([H])N([H])C(=O)C1([H])N(C(=O)C([H])(N([H])C(=O)C([H])(N([H])C([H])([H])[H])C([H])([H])[H])C(C([H])([H])[H])(C([H])([H])[H])C([H])([H])[H])C([H])([H])c2c([H])c(OC3([H])C([H])([H])N(c4c([H])c([H])c(N([H])C(=O)N5C([H])([H])C([H])([H])C([H])([H])C([H])(n6nc(-c7c([H])c([H])c(Oc8c([H])c([H])c(F)c([H])c8F)c([H])c7[H])c(C(=O)N([H])[H])c6N([H])[H])C5([H])[H])c([H])c4F)C([H])([H])C3([H])[H])c([H])c([H])c2C1([H])[H]

>  <smiles>  (26) 
[H]c1c([H])c([H])c2c(c1[H])C([H])([H])C([H])([H])C([H])([H])C2([H])N([H])C(=O)C1([H])N(C(=O)C([H])(N([H])C(=O)C([H])(N([H])C([H])([H])[H])C([H])([H])[H])C(C([H])([H])[H])(C([H])([H])[H])C([H])([H])[H])C([H])([H])c2c([H])c(OC3([H])C([H])([H])N(c4c([H])c([H])c(N([H])C(=O)N5C([H])([H])C([H])([H])C([H])([H])C([H])(n6nc(-c7c([H])c([H])c(Oc8c([H])c([H])c(F)c([H])c8F)c([H])c7[H])c(C(=O)N([H])[H])c6N([H])[H])C5([H])[H])c([H])c4F)C([H])([H])C3([H])[H])c([H])c([H])c2C1([H])[H]

$$$$
26:0:0
     RDKit          3D

 89 97  0  0  1  0  0  0  0  0999 V2000
  -30.5460  -18.6110   20.2210 C   0  0  0  0  0  3  0  0  0  0  0  0
  -30.2410  -20.0490   20.1530 C   0  0  0  0  0  3  0  0  0  0  0  0
  -27.9440  -19.5450   20.2350 C   0  0  0  0  0  3  0  0  0  0  0  0
  -29.5460  -17.5730   20.3030 C   0  0  0  0  0  0  0  0  0  0  0  0
  -28.9050  -20.5990   20.1510 C   0  0  0  0  0  0  0  0  0  0  0  0
  -28.2360  -18.1370   20.3130 C   0  0  0  0  0  0  0  0  0  0  0  0
  -27.1940  -17.2770   20.3970 F   0  0  0  0  0  0  0  0  0  0  0  0
  -30.4790  -14.9550   20.1290 C   0  0  0  0  0  0  0  0  0  0  0  0
  -30.3510  -12.6130   19.1660 C   0  0  0  0  0  2  0  0  0  0  0  0
  -29.3720  -12.5990   17.9670 C   0  0  0  0  0  2  0  0  0  0  0  0
  -27.9180  -12.4040   18.4410 C   0  0  0  0  0  2  0  0  0  0  0  0
  -27.5580  -13.3160   19.6440 C   0  0  0  0  0  3  0  0  0  0  0  0
  -28.6500  -13.2740   20.7360 C   0  0  0  0  0  2  0  0  0  0  0  0
  -29.9140  -13.6830   20.1040 N   0  0  0  0  0  0  0  0  0  0  0  0
  -31.6550  -15.0810   19.7700 O   0  0  0  0  0  0  0  0  0  0  0  0
  -29.6270  -16.0470   20.4000 N   0  0  0  0  0  0  0  0  0  0  0  0
  -28.7250  -15.6830   20.6710 H   0  0  0  0  0  0  0  0  0  0  0  0
  -25.1940  -13.9040   20.4450 C   0  0  0  0  0  0  0  0  0  0  0  0
  -24.1370  -13.1330   20.8380 C   0  0  0  0  0  0  0  0  0  0  0  0
  -24.5940  -11.7800   20.7890 C   0  0  0  0  0  0  0  0  0  0  0  0
  -26.2300  -13.0240   20.1760 N   0  0  0  0  0  0  0  0  0  0  0  0
  -25.8770  -11.7400   20.4460 N   0  0  0  0  0  0  0  0  0  0  0  0
  -23.8650  -10.5230   20.9920 C   0  0  0  0  0  0  0  0  0  0  0  0
  -24.3170   -9.5480   21.9100 C   0  0  0  0  0  3  0  0  0  0  0  0
  -23.5870   -8.3550   22.1020 C   0  0  0  0  0  3  0  0  0  0  0  0
  -22.3920   -8.1280   21.3780 C   0  0  0  0  0  0  0  0  0  0  0  0
  -21.9590   -9.0920   20.4510 C   0  0  0  0  0  3  0  0  0  0  0  0
  -22.6900  -10.2770   20.2560 C   0  0  0  0  0  3  0  0  0  0  0  0
  -21.6330   -6.9880   21.4810 O   0  0  0  0  0  0  0  0  0  0  0  0
  -21.6050   -6.2440   22.6330 C   0  0  0  0  0  0  0  0  0  0  0  0
  -21.2010   -6.7960   23.8670 C   0  0  0  0  0  3  0  0  0  0  0  0
  -21.1210   -5.9770   25.0120 C   0  0  0  0  0  3  0  0  0  0  0  0
  -21.4330   -4.6080   24.9230 C   0  0  0  0  0  0  0  0  0  0  0  0
  -21.8300   -4.0550   23.6920 C   0  0  0  0  0  3  0  0  0  0  0  0
  -21.9130   -4.8710   22.5500 C   0  0  0  0  0  0  0  0  0  0  0  0
  -22.2750   -4.3280   21.3630 F   0  0  0  0  0  0  0  0  0  0  0  0
  -21.3480   -3.8200   26.0200 F   0  0  0  0  0  0  0  0  0  0  0  0
  -22.7500  -13.6170   21.1520 C   0  0  0  0  0  0  0  0  0  0  0  0
  -22.0480  -12.9280   22.0450 N   0  0  0  0  0  0  0  0  0  0  0  0
  -22.3010  -14.6440   20.6440 O   0  0  0  0  0  0  0  0  0  0  0  0
  -22.4240  -12.0990   22.4790 H   0  0  0  0  0  0  0  0  0  0  0  0
  -21.1200  -13.2360   22.2990 H   0  0  0  0  0  0  0  0  0  0  0  0
  -25.3460  -15.2740   20.2760 N   0  0  0  0  0  0  0  0  0  0  0  0
  -24.5840  -15.9140   20.4630 H   0  0  0  0  0  0  0  0  0  0  0  0
  -26.2120  -15.7600   20.0740 H   0  0  0  0  0  0  0  0  0  0  0  0
  -28.3840  -21.9650   20.0490 O   0  0  0  0  0  0  0  0  0  0  0  0
  -29.0000  -23.3650   20.1000 C   0  0  0  0  0  3  0  0  0  0  0  0
  -28.0120  -24.7130   19.8800 C   0  0  0  0  0  3  0  0  0  0  0  0
  -28.2930  -26.2290   20.0810 O   0  0  0  0  0  0  0  0  0  0  0  0
  -24.6330  -31.8210   23.1810 C   0  0  0  0  0  0  0  0  0  0  0  0
  -27.2260  -27.2010   20.0390 C   0  0  0  0  0  0  0  0  0  0  0  0
  -23.4360  -30.4670   21.5040 C   0  0  0  0  0  3  0  0  0  0  0  0
  -24.8900  -28.9320   20.0450 C   0  0  0  0  0  0  0  0  0  0  0  0
  -25.9900  -30.7420   21.3520 C   0  0  0  0  0  2  0  0  0  0  0  0
  -26.0680  -29.3680   20.6650 C   0  0  0  0  0  0  0  0  0  0  0  0
  -27.2360  -28.5200   20.6450 C   0  0  0  0  0  3  0  0  0  0  0  0
  -26.0190  -26.8630   19.3860 C   0  0  0  0  0  3  0  0  0  0  0  0
  -24.8780  -27.6930   19.3910 C   0  0  0  0  0  3  0  0  0  0  0  0
  -23.6610  -29.8260   20.1100 C   0  0  0  0  0  2  0  0  0  0  0  0
  -24.7060  -31.0300   22.0680 N   0  0  0  0  0  0  0  0  0  0  0  0
  -23.5450  -32.0930   23.7130 O   0  0  0  0  0  0  0  0  0  0  0  0
  -22.7570  -29.4350   22.4380 C   0  0  0  0  0  0  0  0  0  0  0  0
  -21.4250  -29.2850   22.3200 N   0  0  0  0  0  0  0  0  0  0  0  0
  -23.4290  -28.7740   23.2330 O   0  0  0  0  0  0  0  0  0  0  0  0
  -20.9390  -29.8710   21.6550 H   0  0  0  0  0  0  0  0  0  0  0  0
  -18.0300  -28.1400   22.8450 C   0  0  0  0  0  0  0  0  0  0  0  0
  -20.5990  -28.3340   23.0680 C   0  0  0  0  0  3  0  0  0  0  0  0
  -20.6560  -26.9260   22.4340 C   0  0  0  0  0  2  0  0  0  0  0  0
  -19.5270  -26.6710   21.4290 C   0  0  0  0  0  2  0  0  0  0  0  0
  -18.1620  -26.8190   22.1080 C   0  0  0  0  0  2  0  0  0  0  0  0
  -19.1730  -28.8600   23.2820 C   0  0  0  0  0  0  0  0  0  0  0  0
  -18.9940  -30.1000   23.9330 C   0  0  0  0  0  3  0  0  0  0  0  0
  -17.7040  -30.6200   24.1510 C   0  0  0  0  0  3  0  0  0  0  0  0
  -16.5750  -29.8960   23.7290 C   0  0  0  0  0  3  0  0  0  0  0  0
  -16.7390  -28.6580   23.0810 C   0  0  0  0  0  3  0  0  0  0  0  0
  -25.9100  -32.4410   23.8260 C   0  0  0  0  0  3  0  0  0  0  0  0
  -26.4050  -31.6510   25.1000 C   0  0  1  0  0  0  0  0  0  0  0  0
  -25.2980  -31.4130   26.1540 C   0  0  0  0  0  1  0  0  0  0  0  0
  -26.9800  -30.2730   24.7020 C   0  0  0  0  0  1  0  0  0  0  0  0
  -27.5560  -32.4270   25.7810 C   0  0  0  0  0  1  0  0  0  0  0  0
  -25.6030  -33.8370   24.1750 N   0  0  0  0  0  0  0  0  0  0  0  0
  -25.9270  -34.9010   23.4290 C   0  0  0  0  0  0  0  0  0  0  0  0
  -26.5820  -34.8090   22.3880 O   0  0  0  0  0  0  0  0  0  0  0  0
  -25.0210  -33.9810   24.9880 H   0  0  0  0  0  0  0  0  0  0  0  0
  -24.1860  -36.6940   23.1380 C   0  0  0  0  0  1  0  0  0  0  0  0
  -25.4500  -36.2840   23.9120 C   0  0  0  0  0  3  0  0  0  0  0  0
  -27.6020  -37.1710   24.6960 C   0  0  0  0  0  1  0  0  0  0  0  0
  -26.4770  -37.3420   23.7800 N   0  0  0  0  0  0  0  0  0  0  0  0
  -26.0720  -38.2600   23.9440 H   0  0  0  0  0  0  0  0  0  0  0  0
  1  4  1  0
  2  1  2  0
  3  6  1  0
  4  6  2  0
  4 16  1  0
  5  2  1  0
  5  3  2  0
  6  7  1  0
  8 16  1  0
  9 14  1  0
 10 11  1  0
 10  9  1  0
 12 11  1  0
 12 21  1  0
 12 13  1  0
 14  8  1  0
 14 13  1  0
 15  8  2  0
 16 17  1  0
 18 19  2  0
 19 38  1  0
 20 19  1  0
 20 23  1  0
 21 18  1  0
 21 22  1  0
 22 20  2  0
 23 24  1  0
 24 25  2  0
 26 29  1  0
 26 25  1  0
 27 26  2  0
 28 27  1  0
 28 23  2  0
 29 30  1  0
 30 31  1  0
 31 32  2  0
 33 32  1  0
 33 37  1  0
 34 33  2  0
 35 30  2  0
 35 34  1  0
 36 35  1  0
 38 39  1  0
 39 42  1  0
 39 41  1  0
 40 38  2  0
 43 18  1  0
 43 44  1  0
 45 43  1  0
 46 47  1  0
 46  5  1  0
 48 49  1  0
 48 47  2  0
 50 61  2  0
 51 49  1  0
 51 56  1  0
 52 60  1  0
 52 62  1  0
 53 59  1  0
 53 55  1  0
 54 60  1  0
 55 54  1  0
 56 55  2  0
 57 58  1  0
 57 51  2  0
 58 53  2  0
 59 52  1  0
 60 50  1  0
 62 64  2  0
 63 62  1  0
 65 63  1  0
 66 75  2  0
 66 71  1  0
 67 63  1  0
 67 71  1  0
 68 67  1  0
 69 70  1  0
 69 68  1  0
 70 66  1  0
 71 72  2  0
 72 73  1  0
 74 73  2  0
 75 74  1  0
 76 50  1  0
 76 81  1  0
 76 77  1  0
 77 80  1  1
 77 78  1  0
 79 77  1  0
 81 84  1  0
 82 86  1  0
 82 81  1  0
 83 82  2  0
 86 85  1  0
 88 86  1  0
 88 89  1  0
 88 87  1  0
M  ISO  4   8 100  16 100  48 101  49 101
M  END
>  <TORSDO>  (27) 
F 19

>  <SCORE>  (27) 
-14.356

>  <name>  (27) 
26

>  <ligand_id>  (27) 
26

>  <original_smiles>  (27) 
[H]c1c([H])c([H])c2c(c1[H])C([H])([H])C([H])([H])C([H])([H])C2([H])N([H])C(=O)C1([H])N(C(=O)C([H])(N([H])C(=O)C([H])(N([H])C([H])([H])[H])C([H])([H])[H])C(C([H])([H])[H])(C([H])([H])[H])C([H])([H])[H])C([H])([H])c2c([H])c(OC([H])([H])C([H])([H])Oc3c([H])c([H])c(N([H])C(=O)N4C([H])([H])C([H])([H])C([H])([H])C([H])(n5nc(-c6c([H])c([H])c(Oc7c([H])c([H])c(F)c([H])c7F)c([H])c6[H])c(C(=O)N([H])[H])c5N([H])[H])C4([H])[H])c(F)c3[H])c([H])c([H])c2C1([H])[H]

>  <smiles>  (27) 
[H]c1c([H])c([H])c2c(c1[H])C([H])([H])C([H])([H])C([H])([H])C2([H])N([H])C(=O)C1([H])N(C(=O)C([H])(N([H])C(=O)C([H])(N([H])C([H])([H])[H])C([H])([H])[H])C(C([H])([H])[H])(C([H])([H])[H])C([H])([H])[H])C([H])([H])c2c([H])c(OC([H])([H])C([H])([H])Oc3c([H])c([H])c(N([H])C(=O)N4C([H])([H])C([H])([H])C([H])([H])C([H])(n5nc(-c6c([H])c([H])c(Oc7c([H])c([H])c(F)c([H])c7F)c([H])c6[H])c(C(=O)N([H])[H])c5N([H])[H])C4([H])[H])c(F)c3[H])c([H])c([H])c2C1([H])[H]

$$$$
27:0:0
     RDKit          3D

 89 97  0  0  1  0  0  0  0  0999 V2000
  -30.5460  -18.6110   20.2210 C   0  0  0  0  0  3  0  0  0  0  0  0
  -30.2410  -20.0490   20.1530 C   0  0  0  0  0  3  0  0  0  0  0  0
  -27.9440  -19.5450   20.2350 C   0  0  0  0  0  3  0  0  0  0  0  0
  -29.5460  -17.5730   20.3030 C   0  0  0  0  0  0  0  0  0  0  0  0
  -28.9050  -20.5990   20.1510 C   0  0  0  0  0  0  0  0  0  0  0  0
  -28.2360  -18.1370   20.3130 C   0  0  0  0  0  0  0  0  0  0  0  0
  -27.1940  -17.2770   20.3970 F   0  0  0  0  0  0  0  0  0  0  0  0
  -30.4790  -14.9550   20.1290 C   0  0  0  0  0  0  0  0  0  0  0  0
  -30.3510  -12.6130   19.1660 C   0  0  0  0  0  2  0  0  0  0  0  0
  -29.3720  -12.5990   17.9670 C   0  0  0  0  0  2  0  0  0  0  0  0
  -27.9180  -12.4040   18.4410 C   0  0  0  0  0  2  0  0  0  0  0  0
  -27.5580  -13.3160   19.6440 C   0  0  0  0  0  3  0  0  0  0  0  0
  -28.6500  -13.2740   20.7360 C   0  0  0  0  0  2  0  0  0  0  0  0
  -29.9140  -13.6830   20.1040 N   0  0  0  0  0  0  0  0  0  0  0  0
  -31.6550  -15.0810   19.7700 O   0  0  0  0  0  0  0  0  0  0  0  0
  -29.6270  -16.0470   20.4000 N   0  0  0  0  0  0  0  0  0  0  0  0
  -28.7250  -15.6830   20.6710 H   0  0  0  0  0  0  0  0  0  0  0  0
  -25.1940  -13.9040   20.4450 C   0  0  0  0  0  0  0  0  0  0  0  0
  -24.1370  -13.1330   20.8380 C   0  0  0  0  0  0  0  0  0  0  0  0
  -24.5940  -11.7800   20.7890 C   0  0  0  0  0  0  0  0  0  0  0  0
  -26.2300  -13.0240   20.1760 N   0  0  0  0  0  0  0  0  0  0  0  0
  -25.8770  -11.7400   20.4460 N   0  0  0  0  0  0  0  0  0  0  0  0
  -23.8650  -10.5230   20.9920 C   0  0  0  0  0  0  0  0  0  0  0  0
  -24.3170   -9.5480   21.9100 C   0  0  0  0  0  3  0  0  0  0  0  0
  -23.5870   -8.3550   22.1020 C   0  0  0  0  0  3  0  0  0  0  0  0
  -22.3920   -8.1280   21.3780 C   0  0  0  0  0  0  0  0  0  0  0  0
  -21.9590   -9.0920   20.4510 C   0  0  0  0  0  3  0  0  0  0  0  0
  -22.6900  -10.2770   20.2560 C   0  0  0  0  0  3  0  0  0  0  0  0
  -21.6330   -6.9880   21.4810 O   0  0  0  0  0  0  0  0  0  0  0  0
  -21.6050   -6.2440   22.6330 C   0  0  0  0  0  0  0  0  0  0  0  0
  -21.2010   -6.7960   23.8670 C   0  0  0  0  0  3  0  0  0  0  0  0
  -21.1210   -5.9770   25.0120 C   0  0  0  0  0  3  0  0  0  0  0  0
  -21.4330   -4.6080   24.9230 C   0  0  0  0  0  0  0  0  0  0  0  0
  -21.8300   -4.0550   23.6920 C   0  0  0  0  0  3  0  0  0  0  0  0
  -21.9130   -4.8710   22.5500 C   0  0  0  0  0  0  0  0  0  0  0  0
  -22.2750   -4.3280   21.3630 F   0  0  0  0  0  0  0  0  0  0  0  0
  -21.3480   -3.8200   26.0200 F   0  0  0  0  0  0  0  0  0  0  0  0
  -22.7500  -13.6170   21.1520 C   0  0  0  0  0  0  0  0  0  0  0  0
  -22.0480  -12.9280   22.0450 N   0  0  0  0  0  0  0  0  0  0  0  0
  -22.3010  -14.6440   20.6440 O   0  0  0  0  0  0  0  0  0  0  0  0
  -22.4240  -12.0990   22.4790 H   0  0  0  0  0  0  0  0  0  0  0  0
  -21.1200  -13.2360   22.2990 H   0  0  0  0  0  0  0  0  0  0  0  0
  -25.3460  -15.2740   20.2760 N   0  0  0  0  0  0  0  0  0  0  0  0
  -24.5840  -15.9140   20.4630 H   0  0  0  0  0  0  0  0  0  0  0  0
  -26.2120  -15.7600   20.0740 H   0  0  0  0  0  0  0  0  0  0  0  0
  -28.3840  -21.9650   20.0490 O   0  0  0  0  0  0  0  0  0  0  0  0
  -29.0000  -23.3650   20.1000 C   0  0  0  0  0  3  0  0  0  0  0  0
  -28.0120  -24.7130   19.8800 C   0  0  0  0  0  3  0  0  0  0  0  0
  -28.2930  -26.2290   20.0810 O   0  0  0  0  0  0  0  0  0  0  0  0
  -24.6330  -31.8210   23.1810 C   0  0  0  0  0  0  0  0  0  0  0  0
  -27.2260  -27.2010   20.0390 C   0  0  0  0  0  0  0  0  0  0  0  0
  -23.4360  -30.4670   21.5040 C   0  0  0  0  0  3  0  0  0  0  0  0
  -24.8900  -28.9320   20.0450 C   0  0  0  0  0  0  0  0  0  0  0  0
  -25.9900  -30.7420   21.3520 C   0  0  0  0  0  2  0  0  0  0  0  0
  -26.0680  -29.3680   20.6650 C   0  0  0  0  0  0  0  0  0  0  0  0
  -27.2360  -28.5200   20.6450 C   0  0  0  0  0  3  0  0  0  0  0  0
  -26.0190  -26.8630   19.3860 C   0  0  0  0  0  3  0  0  0  0  0  0
  -24.8780  -27.6930   19.3910 C   0  0  0  0  0  3  0  0  0  0  0  0
  -23.6610  -29.8260   20.1100 C   0  0  0  0  0  2  0  0  0  0  0  0
  -24.7060  -31.0300   22.0680 N   0  0  0  0  0  0  0  0  0  0  0  0
  -23.5450  -32.0930   23.7130 O   0  0  0  0  0  0  0  0  0  0  0  0
  -22.7570  -29.4350   22.4380 C   0  0  0  0  0  0  0  0  0  0  0  0
  -21.4250  -29.2850   22.3200 N   0  0  0  0  0  0  0  0  0  0  0  0
  -23.4290  -28.7740   23.2330 O   0  0  0  0  0  0  0  0  0  0  0  0
  -20.9390  -29.8710   21.6550 H   0  0  0  0  0  0  0  0  0  0  0  0
  -18.0300  -28.1400   22.8450 C   0  0  0  0  0  0  0  0  0  0  0  0
  -20.5990  -28.3340   23.0680 C   0  0  0  0  0  3  0  0  0  0  0  0
  -20.6560  -26.9260   22.4340 C   0  0  0  0  0  2  0  0  0  0  0  0
  -19.5270  -26.6710   21.4290 C   0  0  0  0  0  2  0  0  0  0  0  0
  -18.1620  -26.8190   22.1080 C   0  0  0  0  0  2  0  0  0  0  0  0
  -19.1730  -28.8600   23.2820 C   0  0  0  0  0  0  0  0  0  0  0  0
  -18.9940  -30.1000   23.9330 C   0  0  0  0  0  3  0  0  0  0  0  0
  -17.7040  -30.6200   24.1510 C   0  0  0  0  0  3  0  0  0  0  0  0
  -16.5750  -29.8960   23.7290 C   0  0  0  0  0  3  0  0  0  0  0  0
  -16.7390  -28.6580   23.0810 C   0  0  0  0  0  3  0  0  0  0  0  0
  -25.9100  -32.4410   23.8260 C   0  0  0  0  0  3  0  0  0  0  0  0
  -26.4050  -31.6510   25.1000 C   0  0  1  0  0  0  0  0  0  0  0  0
  -25.2980  -31.4130   26.1540 C   0  0  0  0  0  1  0  0  0  0  0  0
  -26.9800  -30.2730   24.7020 C   0  0  0  0  0  1  0  0  0  0  0  0
  -27.5560  -32.4270   25.7810 C   0  0  0  0  0  1  0  0  0  0  0  0
  -25.6030  -33.8370   24.1750 N   0  0  0  0  0  0  0  0  0  0  0  0
  -25.9270  -34.9010   23.4290 C   0  0  0  0  0  0  0  0  0  0  0  0
  -26.5820  -34.8090   22.3880 O   0  0  0  0  0  0  0  0  0  0  0  0
  -25.0210  -33.9810   24.9880 H   0  0  0  0  0  0  0  0  0  0  0  0
  -24.1860  -36.6940   23.1380 C   0  0  0  0  0  1  0  0  0  0  0  0
  -25.4500  -36.2840   23.9120 C   0  0  0  0  0  3  0  0  0  0  0  0
  -27.6020  -37.1710   24.6960 C   0  0  0  0  0  1  0  0  0  0  0  0
  -26.4770  -37.3420   23.7800 N   0  0  0  0  0  0  0  0  0  0  0  0
  -26.0720  -38.2600   23.9440 H   0  0  0  0  0  0  0  0  0  0  0  0
  1  4  1  0
  2  1  2  0
  3  6  1  0
  4  6  2  0
  4 16  1  0
  5  2  1  0
  5  3  2  0
  6  7  1  0
  8 16  1  0
  9 14  1  0
 10 11  1  0
 10  9  1  0
 12 11  1  0
 12 21  1  0
 12 13  1  0
 14  8  1  0
 14 13  1  0
 15  8  2  0
 16 17  1  0
 18 19  2  0
 19 38  1  0
 20 19  1  0
 20 23  1  0
 21 18  1  0
 21 22  1  0
 22 20  2  0
 23 24  1  0
 24 25  2  0
 26 29  1  0
 26 25  1  0
 27 26  2  0
 28 27  1  0
 28 23  2  0
 29 30  1  0
 30 31  1  0
 31 32  2  0
 33 32  1  0
 33 37  1  0
 34 33  2  0
 35 30  2  0
 35 34  1  0
 36 35  1  0
 38 39  1  0
 39 42  1  0
 39 41  1  0
 40 38  2  0
 43 18  1  0
 43 44  1  0
 45 43  1  0
 46 47  1  0
 46  5  1  0
 48 49  1  0
 48 47  2  0
 50 61  2  0
 51 49  1  0
 51 56  1  0
 52 60  1  0
 52 62  1  0
 53 59  1  0
 53 55  1  0
 54 60  1  0
 55 54  1  0
 56 55  2  0
 57 58  1  0
 57 51  2  0
 58 53  2  0
 59 52  1  0
 60 50  1  0
 62 64  2  0
 63 62  1  0
 65 63  1  0
 66 75  2  0
 66 71  1  0
 67 63  1  0
 67 71  1  0
 68 67  1  0
 69 70  1  0
 69 68  1  0
 70 66  1  0
 71 72  2  0
 72 73  1  0
 74 73  2  0
 75 74  1  0
 76 50  1  0
 76 81  1  0
 76 77  1  0
 77 80  1  1
 77 78  1  0
 79 77  1  0
 81 84  1  0
 82 86  1  0
 82 81  1  0
 83 82  2  0
 86 85  1  0
 88 86  1  0
 88 89  1  0
 88 87  1  0
M  ISO  4   8 100  16 100  48 101  49 101
M  END
>  <TORSDO>  (28) 
F 19

>  <SCORE>  (28) 
-14.356

>  <name>  (28) 
27

>  <ligand_id>  (28) 
27

>  <original_smiles>  (28) 
[H]c1c([H])c([H])c2c(c1[H])C([H])([H])C([H])([H])C([H])([H])C2([H])N([H])C(=O)C1([H])N(C(=O)C([H])(N([H])C(=O)C([H])(N([H])C([H])([H])[H])C([H])([H])[H])C(C([H])([H])[H])(C([H])([H])[H])C([H])([H])[H])C([H])([H])c2c([H])c(OC([H])([H])C([H])([H])Oc3c([H])c([H])c(N([H])C(=O)N4C([H])([H])C([H])([H])C([H])([H])C([H])(n5nc(-c6c([H])c([H])c(Oc7c([H])c([H])c(F)c([H])c7F)c([H])c6[H])c(C(=O)N([H])[H])c5N([H])[H])C4([H])[H])c(F)c3[H])c([H])c([H])c2C1([H])[H]

>  <smiles>  (28) 
[H]c1c([H])c([H])c2c(c1[H])C([H])([H])C([H])([H])C([H])([H])C2([H])N([H])C(=O)C1([H])N(C(=O)C([H])(N([H])C(=O)C([H])(N([H])C([H])([H])[H])C([H])([H])[H])C(C([H])([H])[H])(C([H])([H])[H])C([H])([H])[H])C([H])([H])c2c([H])c(OC([H])([H])C([H])([H])Oc3c([H])c([H])c(N([H])C(=O)N4C([H])([H])C([H])([H])C([H])([H])C([H])(n5nc(-c6c([H])c([H])c(Oc7c([H])c([H])c(F)c([H])c7F)c([H])c6[H])c(C(=O)N([H])[H])c5N([H])[H])C4([H])[H])c(F)c3[H])c([H])c([H])c2C1([H])[H]

$$$$
28:0:0
     RDKit          3D

 92101  0  0  1  0  0  0  0  0999 V2000
  -30.9430  -24.5080   21.0280 C   0  0  0  0  0  2  0  0  0  0  0  0
  -29.5870  -24.2880   21.6920 C   0  0  0  0  0  2  0  0  0  0  0  0
  -30.9670  -23.4680   19.8850 C   0  0  0  0  0  2  0  0  0  0  0  0
  -28.7440  -23.8610   20.4970 C   0  0  0  0  0  3  0  0  0  0  0  0
  -29.6260  -22.8650   19.8200 N   0  0  0  0  0  0  0  0  0  0  0  0
  -29.4440  -19.3120   21.2930 C   0  0  0  0  0  3  0  0  0  0  0  0
  -30.4660  -19.2350   19.1160 C   0  0  0  0  0  3  0  0  0  0  0  0
  -29.2040  -20.7180   21.1360 C   0  0  0  0  0  3  0  0  0  0  0  0
  -30.2420  -20.6350   18.9750 C   0  0  0  0  0  3  0  0  0  0  0  0
  -30.1290  -18.5450   20.3070 C   0  0  0  0  0  0  0  0  0  0  0  0
  -29.6500  -21.4350   19.9900 C   0  0  0  0  0  0  0  0  0  0  0  0
  -30.7710  -17.1490   20.6410 C   0  0  0  0  0  2  0  0  0  0  0  0
  -30.7710  -14.6870   19.9840 C   0  0  0  0  0  0  0  0  0  0  0  0
  -30.4300  -12.4620   18.9380 C   0  0  0  0  0  2  0  0  0  0  0  0
  -29.4210  -12.5840   17.7790 C   0  0  0  0  0  2  0  0  0  0  0  0
  -27.9790  -12.4370   18.2980 C   0  0  0  0  0  2  0  0  0  0  0  0
  -27.6990  -13.3190   19.5440 C   0  0  0  0  0  3  0  0  0  0  0  0
  -28.8190  -13.1820   20.5980 C   0  0  0  0  0  2  0  0  0  0  0  0
  -30.0880  -13.5020   19.9290 N   0  0  0  0  0  0  0  0  0  0  0  0
  -31.9170  -14.7710   19.5280 O   0  0  0  0  0  0  0  0  0  0  0  0
  -30.1130  -15.8190   20.3930 N   0  0  0  0  0  0  0  0  0  0  0  0
  -29.1640  -15.7040   20.7190 H   0  0  0  0  0  0  0  0  0  0  0  0
  -25.3760  -13.9430   20.4370 C   0  0  0  0  0  0  0  0  0  0  0  0
  -24.3210  -13.1820   20.8600 C   0  0  0  0  0  0  0  0  0  0  0  0
  -24.7510  -11.8230   20.7590 C   0  0  0  0  0  0  0  0  0  0  0  0
  -26.3830  -13.0490   20.1120 N   0  0  0  0  0  0  0  0  0  0  0  0
  -26.0170  -11.7660   20.3640 N   0  0  0  0  0  0  0  0  0  0  0  0
  -24.0100  -10.5680   20.9610 C   0  0  0  0  0  0  0  0  0  0  0  0
  -24.4650   -9.5800   21.8610 C   0  0  0  0  0  3  0  0  0  0  0  0
  -23.7280   -8.3910   22.0520 C   0  0  0  0  0  3  0  0  0  0  0  0
  -22.5220   -8.1830   21.3400 C   0  0  0  0  0  0  0  0  0  0  0  0
  -22.0860   -9.1600   20.4280 C   0  0  0  0  0  3  0  0  0  0  0  0
  -22.8240  -10.3400   20.2360 C   0  0  0  0  0  3  0  0  0  0  0  0
  -21.7530   -7.0510   21.4430 O   0  0  0  0  0  0  0  0  0  0  0  0
  -21.7140   -6.3080   22.5960 C   0  0  0  0  0  0  0  0  0  0  0  0
  -21.3090   -6.8660   23.8290 C   0  0  0  0  0  3  0  0  0  0  0  0
  -21.2170   -6.0500   24.9750 C   0  0  0  0  0  3  0  0  0  0  0  0
  -21.5170   -4.6770   24.8880 C   0  0  0  0  0  0  0  0  0  0  0  0
  -21.9170   -4.1190   23.6620 C   0  0  0  0  0  3  0  0  0  0  0  0
  -22.0110   -4.9330   22.5170 C   0  0  0  0  0  0  0  0  0  0  0  0
  -22.3740   -4.3850   21.3320 F   0  0  0  0  0  0  0  0  0  0  0  0
  -21.4230   -3.8900   25.9860 F   0  0  0  0  0  0  0  0  0  0  0  0
  -22.9530  -13.6780   21.2350 C   0  0  0  0  0  0  0  0  0  0  0  0
  -22.2690  -12.9710   22.1290 N   0  0  0  0  0  0  0  0  0  0  0  0
  -22.5060  -14.7260   20.7740 O   0  0  0  0  0  0  0  0  0  0  0  0
  -22.6480  -12.1240   22.5260 H   0  0  0  0  0  0  0  0  0  0  0  0
  -21.3550  -13.2830   22.4220 H   0  0  0  0  0  0  0  0  0  0  0  0
  -25.5620  -15.3130   20.2850 N   0  0  0  0  0  0  0  0  0  0  0  0
  -24.8160  -15.9790   20.4500 H   0  0  0  0  0  0  0  0  0  0  0  0
  -26.3890  -15.7330   19.8810 H   0  0  0  0  0  0  0  0  0  0  0  0
  -28.3990  -25.1250   19.5710 C   0  0  0  0  0  2  0  0  0  0  0  0
  -28.3500  -26.5000   20.1370 O   0  0  0  0  0  0  0  0  0  0  0  0
  -24.6250  -31.8670   23.1710 C   0  0  0  0  0  0  0  0  0  0  0  0
  -27.2220  -27.3300   20.0590 C   0  0  0  0  0  0  0  0  0  0  0  0
  -23.4220  -30.4900   21.5190 C   0  0  0  0  0  3  0  0  0  0  0  0
  -24.8730  -28.9610   20.0630 C   0  0  0  0  0  0  0  0  0  0  0  0
  -25.9660  -30.8020   21.3490 C   0  0  0  0  0  2  0  0  0  0  0  0
  -26.0370  -29.4330   20.6800 C   0  0  0  0  0  0  0  0  0  0  0  0
  -27.2100  -28.6200   20.6750 C   0  0  0  0  0  3  0  0  0  0  0  0
  -26.0350  -26.9220   19.4100 C   0  0  0  0  0  3  0  0  0  0  0  0
  -24.8720  -27.7130   19.4200 C   0  0  0  0  0  3  0  0  0  0  0  0
  -23.6440  -29.8470   20.1240 C   0  0  0  0  0  2  0  0  0  0  0  0
  -24.6890  -31.0730   22.0660 N   0  0  0  0  0  0  0  0  0  0  0  0
  -23.5390  -32.1270   23.7130 O   0  0  0  0  0  0  0  0  0  0  0  0
  -22.7710  -29.4510   22.4620 C   0  0  0  0  0  0  0  0  0  0  0  0
  -21.4430  -29.2840   22.3500 N   0  0  0  0  0  0  0  0  0  0  0  0
  -23.4560  -28.7940   23.2510 O   0  0  0  0  0  0  0  0  0  0  0  0
  -20.9530  -29.8680   21.6900 H   0  0  0  0  0  0  0  0  0  0  0  0
  -18.0550  -28.1130   22.8900 C   0  0  0  0  0  0  0  0  0  0  0  0
  -20.6230  -28.3320   23.1100 C   0  0  0  0  0  3  0  0  0  0  0  0
  -20.6940  -26.9170   22.4950 C   0  0  0  0  0  2  0  0  0  0  0  0
  -19.5640  -26.6350   21.4980 C   0  0  0  0  0  2  0  0  0  0  0  0
  -18.2000  -26.7770   22.1800 C   0  0  0  0  0  2  0  0  0  0  0  0
  -19.1950  -28.8480   23.3130 C   0  0  0  0  0  0  0  0  0  0  0  0
  -19.0050  -30.0970   23.9430 C   0  0  0  0  0  3  0  0  0  0  0  0
  -17.7120  -30.6150   24.1460 C   0  0  0  0  0  3  0  0  0  0  0  0
  -16.5880  -29.8810   23.7290 C   0  0  0  0  0  3  0  0  0  0  0  0
  -16.7590  -28.6300   23.1100 C   0  0  0  0  0  3  0  0  0  0  0  0
  -25.9060  -32.4930   23.7960 C   0  0  0  0  0  3  0  0  0  0  0  0
  -26.4380  -31.7060   25.0590 C   0  0  1  0  0  0  0  0  0  0  0  0
  -25.3600  -31.4290   26.1320 C   0  0  0  0  0  1  0  0  0  0  0  0
  -27.0430  -30.3420   24.6520 C   0  0  0  0  0  1  0  0  0  0  0  0
  -27.5770  -32.5120   25.7240 C   0  0  0  0  0  1  0  0  0  0  0  0
  -25.5850  -33.8810   24.1470 N   0  0  0  0  0  0  0  0  0  0  0  0
  -25.8980  -34.9470   23.4010 C   0  0  0  0  0  0  0  0  0  0  0  0
  -26.5580  -34.8630   22.3620 O   0  0  0  0  0  0  0  0  0  0  0  0
  -24.9870  -34.0120   24.9480 H   0  0  0  0  0  0  0  0  0  0  0  0
  -24.1490  -36.7320   23.0820 C   0  0  0  0  0  1  0  0  0  0  0  0
  -25.3990  -36.3270   23.8780 C   0  0  0  0  0  3  0  0  0  0  0  0
  -27.5290  -37.2210   24.7070 C   0  0  0  0  0  1  0  0  0  0  0  0
  -26.4190  -37.3910   23.7750 N   0  0  0  0  0  0  0  0  0  0  0  0
  -26.0050  -38.3050   23.9480 H   0  0  0  0  0  0  0  0  0  0  0  0
  1  2  1  0
  3  1  1  0
  4 51  1  0
  4  2  1  0
  5  3  1  0
  5 11  1  0
  5  4  1  0
  7 10  1  0
  8  6  1  0
  9  7  2  0
  9 11  1  0
 10 12  1  0
 10  6  2  0
 11  8  2  0
 13 21  1  0
 14 19  1  0
 15 16  1  0
 15 14  1  0
 17 16  1  0
 17 26  1  0
 17 18  1  0
 19 13  1  0
 19 18  1  0
 20 13  2  0
 21 12  1  0
 21 22  1  0
 23 24  2  0
 24 43  1  0
 25 24  1  0
 25 28  1  0
 26 27  1  0
 26 23  1  0
 27 25  2  0
 28 29  1  0
 29 30  2  0
 31 34  1  0
 31 30  1  0
 32 31  2  0
 33 32  1  0
 33 28  2  0
 34 35  1  0
 35 36  1  0
 36 37  2  0
 38 37  1  0
 38 42  1  0
 39 38  2  0
 40 35  2  0
 40 39  1  0
 41 40  1  0
 43 44  1  0
 44 47  1  0
 44 46  1  0
 45 43  2  0
 48 23  1  0
 48 49  1  0
 50 48  1  0
 51 52  1  0
 53 64  2  0
 54 52  1  0
 54 59  1  0
 55 63  1  0
 55 65  1  0
 56 62  1  0
 56 58  1  0
 57 63  1  0
 58 57  1  0
 59 58  2  0
 60 61  1  0
 60 54  2  0
 61 56  2  0
 62 55  1  0
 63 53  1  0
 65 67  2  0
 66 65  1  0
 68 66  1  0
 69 78  2  0
 69 74  1  0
 70 66  1  0
 70 74  1  0
 71 70  1  0
 72 73  1  0
 72 71  1  0
 73 69  1  0
 74 75  2  0
 75 76  1  0
 77 76  2  0
 78 77  1  0
 79 53  1  0
 79 84  1  0
 79 80  1  0
 80 83  1  1
 80 81  1  0
 82 80  1  0
 84 87  1  0
 85 89  1  0
 85 84  1  0
 86 85  2  0
 89 88  1  0
 91 89  1  0
 91 92  1  0
 91 90  1  0
M  ISO  4  13 100  21 100  51 101  52 101
M  END
>  <TORSDO>  (29) 
F 19

>  <SCORE>  (29) 
-13.899

>  <name>  (29) 
28

>  <ligand_id>  (29) 
28

>  <original_smiles>  (29) 
[H]c1c([H])c([H])c2c(c1[H])C([H])([H])C([H])([H])C([H])([H])C2([H])N([H])C(=O)C1([H])N(C(=O)C([H])(N([H])C(=O)C([H])(N([H])C([H])([H])[H])C([H])([H])[H])C(C([H])([H])[H])(C([H])([H])[H])C([H])([H])[H])C([H])([H])c2c([H])c(OC([H])([H])C3([H])N(c4c([H])c([H])c(C([H])([H])N([H])C(=O)N5C([H])([H])C([H])([H])C([H])([H])C([H])(n6nc(-c7c([H])c([H])c(Oc8c([H])c([H])c(F)c([H])c8F)c([H])c7[H])c(C(=O)N([H])[H])c6N([H])[H])C5([H])[H])c([H])c4[H])C([H])([H])C([H])([H])C3([H])[H])c([H])c([H])c2C1([H])[H]

>  <smiles>  (29) 
[H]c1c([H])c([H])c2c(c1[H])C([H])([H])C([H])([H])C([H])([H])C2([H])N([H])C(=O)C1([H])N(C(=O)C([H])(N([H])C(=O)C([H])(N([H])C([H])([H])[H])C([H])([H])[H])C(C([H])([H])[H])(C([H])([H])[H])C([H])([H])[H])C([H])([H])c2c([H])c(OC([H])([H])C3([H])N(c4c([H])c([H])c(C([H])([H])N([H])C(=O)N5C([H])([H])C([H])([H])C([H])([H])C([H])(n6nc(-c7c([H])c([H])c(Oc8c([H])c([H])c(F)c([H])c8F)c([H])c7[H])c(C(=O)N([H])[H])c6N([H])[H])C5([H])[H])c([H])c4[H])C([H])([H])C([H])([H])C3([H])[H])c([H])c([H])c2C1([H])[H]

$$$$
29:0:0
     RDKit          3D

 91 99  0  0  1  0  0  0  0  0999 V2000
  -29.3010  -18.7080   21.2520 C   0  0  0  0  0  3  0  0  0  0  0  0
  -28.9580  -20.0840   21.2950 C   0  0  0  0  0  3  0  0  0  0  0  0
  -29.8630  -18.9600   18.9050 C   0  0  0  0  0  3  0  0  0  0  0  0
  -29.8430  -18.1660   20.0690 C   0  0  0  0  0  0  0  0  0  0  0  0
  -29.1340  -20.9270   20.1690 C   0  0  0  0  0  0  0  0  0  0  0  0
  -29.5080  -20.3130   18.9410 C   0  0  0  0  0  0  0  0  0  0  0  0
  -29.5950  -21.0010   17.7760 F   0  0  0  0  0  0  0  0  0  0  0  0
  -30.6190  -16.8550   20.0090 C   0  0  0  0  0  2  0  0  0  0  0  0
  -30.7740  -14.4880   20.3280 C   0  0  0  0  0  0  0  0  0  0  0  0
  -30.4090  -12.3610   19.1760 C   0  0  0  0  0  2  0  0  0  0  0  0
  -29.4770  -12.6220   17.9770 C   0  0  0  0  0  2  0  0  0  0  0  0
  -28.0020  -12.5060   18.4060 C   0  0  0  0  0  2  0  0  0  0  0  0
  -27.6800  -13.3200   19.6900 C   0  0  0  0  0  3  0  0  0  0  0  0
  -28.7350  -13.0840   20.7950 C   0  0  0  0  0  2  0  0  0  0  0  0
  -30.0600  -13.3440   20.2160 N   0  0  0  0  0  0  0  0  0  0  0  0
  -31.9430  -14.5770   19.9420 O   0  0  0  0  0  0  0  0  0  0  0  0
  -30.0770  -15.6160   20.5750 N   0  0  0  0  0  0  0  0  0  0  0  0
  -29.1100  -15.5640   20.8570 H   0  0  0  0  0  0  0  0  0  0  0  0
  -25.2860  -13.9250   20.4000 C   0  0  0  0  0  0  0  0  0  0  0  0
  -24.2200  -13.1510   20.7790 C   0  0  0  0  0  0  0  0  0  0  0  0
  -24.6860  -11.8020   20.7560 C   0  0  0  0  0  0  0  0  0  0  0  0
  -26.3310  -13.0450   20.1740 N   0  0  0  0  0  0  0  0  0  0  0  0
  -25.9750  -11.7620   20.4450 N   0  0  0  0  0  0  0  0  0  0  0  0
  -23.9640  -10.5380   20.9600 C   0  0  0  0  0  0  0  0  0  0  0  0
  -24.3990   -9.5870   21.9080 C   0  0  0  0  0  3  0  0  0  0  0  0
  -23.6800   -8.3860   22.0980 C   0  0  0  0  0  3  0  0  0  0  0  0
  -22.5140   -8.1290   21.3400 C   0  0  0  0  0  0  0  0  0  0  0  0
  -22.0970   -9.0700   20.3820 C   0  0  0  0  0  3  0  0  0  0  0  0
  -22.8150  -10.2630   20.1910 C   0  0  0  0  0  3  0  0  0  0  0  0
  -21.7650   -6.9810   21.4410 O   0  0  0  0  0  0  0  0  0  0  0  0
  -21.7090   -6.2560   22.6030 C   0  0  0  0  0  0  0  0  0  0  0  0
  -21.2610   -6.8250   23.8160 C   0  0  0  0  0  3  0  0  0  0  0  0
  -21.1540   -6.0250   24.9720 C   0  0  0  0  0  3  0  0  0  0  0  0
  -21.4860   -4.6570   24.9140 C   0  0  0  0  0  0  0  0  0  0  0  0
  -21.9260   -4.0890   23.7060 C   0  0  0  0  0  3  0  0  0  0  0  0
  -22.0360   -4.8850   22.5530 C   0  0  0  0  0  0  0  0  0  0  0  0
  -22.4410   -4.3320   21.3850 F   0  0  0  0  0  0  0  0  0  0  0  0
  -21.3770   -3.8840   26.0200 F   0  0  0  0  0  0  0  0  0  0  0  0
  -22.8240  -13.6250   21.0480 C   0  0  0  0  0  0  0  0  0  0  0  0
  -22.1010  -12.9320   21.9210 N   0  0  0  0  0  0  0  0  0  0  0  0
  -22.3790  -14.6420   20.5170 O   0  0  0  0  0  0  0  0  0  0  0  0
  -22.4740  -12.1110   22.3730 H   0  0  0  0  0  0  0  0  0  0  0  0
  -21.1580  -13.2250   22.1360 H   0  0  0  0  0  0  0  0  0  0  0  0
  -25.4490  -15.2930   20.2070 N   0  0  0  0  0  0  0  0  0  0  0  0
  -24.6800  -15.9490   20.3080 H   0  0  0  0  0  0  0  0  0  0  0  0
  -26.2950  -15.7270   19.8640 H   0  0  0  0  0  0  0  0  0  0  0  0
  -28.9680  -22.2990   20.3290 O   0  0  0  0  0  0  0  0  0  0  0  0
  -29.6650  -23.1540   19.4050 C   0  0  0  0  0  2  0  0  0  0  0  0
  -29.6930  -24.6490   19.7830 C   0  0  0  0  0  2  0  0  0  0  0  0
  -28.3390  -25.3620   19.6460 C   0  0  0  0  0  2  0  0  0  0  0  0
  -28.4160  -26.7320   20.0880 O   0  0  0  0  0  0  0  0  0  0  0  0
  -24.5880  -31.8970   23.2330 C   0  0  0  0  0  0  0  0  0  0  0  0
  -27.2400  -27.4600   20.1100 C   0  0  0  0  0  0  0  0  0  0  0  0
  -23.3940  -30.5050   21.5820 C   0  0  0  0  0  3  0  0  0  0  0  0
  -24.8500  -28.9850   20.1510 C   0  0  0  0  0  0  0  0  0  0  0  0
  -25.9260  -30.8600   21.4000 C   0  0  0  0  0  2  0  0  0  0  0  0
  -26.0120  -29.4950   20.7440 C   0  0  0  0  0  0  0  0  0  0  0  0
  -27.2110  -28.7390   20.7190 C   0  0  0  0  0  3  0  0  0  0  0  0
  -26.0460  -26.9680   19.5300 C   0  0  0  0  0  3  0  0  0  0  0  0
  -24.8620  -27.7210   19.5450 C   0  0  0  0  0  3  0  0  0  0  0  0
  -23.6110  -29.8480   20.1960 C   0  0  0  0  0  2  0  0  0  0  0  0
  -24.6530  -31.1030   22.1280 N   0  0  0  0  0  0  0  0  0  0  0  0
  -23.5010  -32.1620   23.7680 O   0  0  0  0  0  0  0  0  0  0  0  0
  -22.7460  -29.4680   22.5300 C   0  0  0  0  0  0  0  0  0  0  0  0
  -21.4200  -29.2870   22.4040 N   0  0  0  0  0  0  0  0  0  0  0  0
  -23.4310  -28.8310   23.3330 O   0  0  0  0  0  0  0  0  0  0  0  0
  -20.9280  -29.8530   21.7280 H   0  0  0  0  0  0  0  0  0  0  0  0
  -18.0430  -28.1110   22.9190 C   0  0  0  0  0  0  0  0  0  0  0  0
  -20.6060  -28.3440   23.1700 C   0  0  0  0  0  3  0  0  0  0  0  0
  -20.6920  -26.9210   22.5700 C   0  0  0  0  0  2  0  0  0  0  0  0
  -19.5770  -26.6250   21.5620 C   0  0  0  0  0  2  0  0  0  0  0  0
  -18.2030  -26.7700   22.2210 C   0  0  0  0  0  2  0  0  0  0  0  0
  -19.1720  -28.8570   23.3500 C   0  0  0  0  0  0  0  0  0  0  0  0
  -18.9700  -30.1130   23.9620 C   0  0  0  0  0  3  0  0  0  0  0  0
  -17.6710  -30.6220   24.1460 C   0  0  0  0  0  3  0  0  0  0  0  0
  -16.5570  -29.8740   23.7290 C   0  0  0  0  0  3  0  0  0  0  0  0
  -16.7440  -28.6200   23.1220 C   0  0  0  0  0  3  0  0  0  0  0  0
  -25.8670  -32.5340   23.8590 C   0  0  0  0  0  3  0  0  0  0  0  0
  -25.5490  -33.9310   24.1850 N   0  0  0  0  0  0  0  0  0  0  0  0
  -25.8790  -34.9820   23.4240 C   0  0  0  0  0  0  0  0  0  0  0  0
  -26.5520  -34.8790   22.3940 O   0  0  0  0  0  0  0  0  0  0  0  0
  -24.9500  -34.0850   24.9820 H   0  0  0  0  0  0  0  0  0  0  0  0
  -24.1440  -36.7660   23.0590 C   0  0  0  0  0  1  0  0  0  0  0  0
  -25.3830  -36.3680   23.8770 C   0  0  0  0  0  3  0  0  0  0  0  0
  -27.5070  -37.2650   24.7190 C   0  0  0  0  0  1  0  0  0  0  0  0
  -26.4110  -37.4250   23.7680 N   0  0  0  0  0  0  0  0  0  0  0  0
  -25.9980  -38.3440   23.9110 H   0  0  0  0  0  0  0  0  0  0  0  0
  -26.3780  -31.7660   25.1370 C   0  0  1  0  0  0  0  0  0  0  0  0
  -25.2820  -31.5270   26.2010 C   0  0  0  0  0  1  0  0  0  0  0  0
  -26.9670  -30.3900   24.7470 C   0  0  0  0  0  1  0  0  0  0  0  0
  -27.5180  -32.5680   25.8090 C   0  0  0  0  0  1  0  0  0  0  0  0
  1  2  1  0
  3  6  2  0
  3  4  1  0
  4  1  2  0
  5 47  1  0
  5  2  2  0
  6  5  1  0
  7  6  1  0
  8  4  1  0
  8 17  1  0
  9 17  1  0
 10 15  1  0
 11 12  1  0
 11 10  1  0
 13 12  1  0
 13 22  1  0
 13 14  1  0
 15  9  1  0
 15 14  1  0
 16  9  2  0
 17 18  1  0
 19 20  2  0
 20 39  1  0
 21 20  1  0
 21 24  1  0
 22 19  1  0
 22 23  1  0
 23 21  2  0
 24 25  1  0
 25 26  2  0
 27 30  1  0
 27 26  1  0
 28 27  2  0
 29 28  1  0
 29 24  2  0
 30 31  1  0
 31 32  1  0
 32 33  2  0
 34 33  1  0
 34 38  1  0
 35 34  2  0
 36 31  2  0
 36 35  1  0
 37 36  1  0
 39 40  1  0
 40 43  1  0
 40 42  1  0
 41 39  2  0
 44 45  1  0
 44 19  1  0
 46 44  1  0
 48 49  1  0
 48 47  1  0
 50 49  1  0
 50 51  1  0
 51 53  1  0
 52 63  2  0
 53 58  1  0
 54 62  1  0
 54 64  1  0
 55 61  1  0
 55 57  1  0
 56 62  1  0
 57 56  1  0
 58 57  2  0
 59 60  1  0
 59 53  2  0
 60 55  2  0
 61 54  1  0
 62 52  1  0
 64 66  2  0
 65 64  1  0
 67 65  1  0
 68 77  2  0
 68 73  1  0
 69 65  1  0
 69 73  1  0
 70 69  1  0
 71 72  1  0
 71 70  1  0
 72 68  1  0
 73 74  2  0
 74 75  1  0
 76 75  2  0
 77 76  1  0
 78 52  1  0
 78 79  1  0
 78 88  1  0
 79 82  1  0
 80 84  1  0
 80 79  1  0
 81 80  2  0
 84 83  1  0
 86 84  1  0
 86 87  1  0
 86 85  1  0
 88 91  1  1
 88 89  1  0
 90 88  1  0
M  ISO  4   9 100  17 100  50 101  51 101
M  END
>  <TORSDO>  (30) 
F 21

>  <SCORE>  (30) 
-12.874

>  <name>  (30) 
29

>  <ligand_id>  (30) 
29

>  <original_smiles>  (30) 
[H]c1c([H])c([H])c2c(c1[H])C([H])([H])C([H])([H])C([H])([H])C2([H])N([H])C(=O)C1([H])N(C(=O)C([H])(N([H])C(=O)C([H])(N([H])C([H])([H])[H])C([H])([H])[H])C(C([H])([H])[H])(C([H])([H])[H])C([H])([H])[H])C([H])([H])c2c([H])c(OC([H])([H])C([H])([H])C([H])([H])Oc3c([H])c([H])c(C([H])([H])N([H])C(=O)N4C([H])([H])C([H])([H])C([H])([H])C([H])(n5nc(-c6c([H])c([H])c(Oc7c([H])c([H])c(F)c([H])c7F)c([H])c6[H])c(C(=O)N([H])[H])c5N([H])[H])C4([H])[H])c([H])c3F)c([H])c([H])c2C1([H])[H]

>  <smiles>  (30) 
[H]c1c([H])c([H])c2c(c1[H])C([H])([H])C([H])([H])C([H])([H])C2([H])N([H])C(=O)C1([H])N(C(=O)C([H])(N([H])C(=O)C([H])(N([H])C([H])([H])[H])C([H])([H])[H])C(C([H])([H])[H])(C([H])([H])[H])C([H])([H])[H])C([H])([H])c2c([H])c(OC([H])([H])C([H])([H])C([H])([H])Oc3c([H])c([H])c(C([H])([H])N([H])C(=O)N4C([H])([H])C([H])([H])C([H])([H])C([H])(n5nc(-c6c([H])c([H])c(Oc7c([H])c([H])c(F)c([H])c7F)c([H])c6[H])c(C(=O)N([H])[H])c5N([H])[H])C4([H])[H])c([H])c3F)c([H])c([H])c2C1([H])[H]

$$$$
30:0:0
     RDKit          3D

 92100  0  0  1  0  0  0  0  0999 V2000
  -28.9880  -21.7130   20.4490 N   0  0  0  0  0  4  0  0  0  0  0  0
  -28.3960  -21.4960   19.6630 H   0  0  0  0  0  0  0  0  0  0  0  0
  -29.9430  -21.7210   20.1310 H   0  0  0  0  0  0  0  0  0  0  0  0
  -28.8230  -20.6450   21.4710 C   0  0  0  0  0  2  0  0  0  0  0  0
  -28.4770  -18.2230   20.7040 C   0  0  0  0  0  3  0  0  0  0  0  0
  -30.7080  -18.9200   21.3760 C   0  0  0  0  0  3  0  0  0  0  0  0
  -28.9250  -16.8880   20.5870 C   0  0  0  0  0  3  0  0  0  0  0  0
  -31.1550  -17.5840   21.2680 C   0  0  0  0  0  3  0  0  0  0  0  0
  -29.3580  -19.2500   21.1210 C   0  0  0  0  0  0  0  0  0  0  0  0
  -30.2650  -16.5570   20.8820 C   0  0  0  0  0  0  0  0  0  0  0  0
  -30.9060  -14.4760   19.8100 C   0  0  0  0  0  0  0  0  0  0  0  0
  -30.3670  -12.4290   18.5350 C   0  0  0  0  0  2  0  0  0  0  0  0
  -29.2930  -12.6980   17.4650 C   0  0  0  0  0  2  0  0  0  0  0  0
  -27.8860  -12.5400   18.0650 C   0  0  0  0  0  2  0  0  0  0  0  0
  -27.7120  -13.3350   19.3850 C   0  0  0  0  0  3  0  0  0  0  0  0
  -28.8830  -13.0630   20.3540 C   0  0  0  0  0  2  0  0  0  0  0  0
  -30.1480  -13.3560   19.6570 N   0  0  0  0  0  0  0  0  0  0  0  0
  -31.8520  -14.7510   19.0660 O   0  0  0  0  0  0  0  0  0  0  0  0
  -30.6880  -15.2000   20.9160 N   0  0  0  0  0  0  0  0  0  0  0  0
  -31.4700  -15.0740   21.5430 H   0  0  0  0  0  0  0  0  0  0  0  0
  -25.4240  -13.9410   20.3980 C   0  0  0  0  0  0  0  0  0  0  0  0
  -24.3940  -13.1670   20.8620 C   0  0  0  0  0  0  0  0  0  0  0  0
  -24.8220  -11.8130   20.7140 C   0  0  0  0  0  0  0  0  0  0  0  0
  -26.4190  -13.0590   20.0050 N   0  0  0  0  0  0  0  0  0  0  0  0
  -26.0650  -11.7700   20.2480 N   0  0  0  0  0  0  0  0  0  0  0  0
  -24.1000  -10.5520   20.9300 C   0  0  0  0  0  0  0  0  0  0  0  0
  -24.5750   -9.5720   21.8260 C   0  0  0  0  0  3  0  0  0  0  0  0
  -23.8520   -8.3770   22.0310 C   0  0  0  0  0  3  0  0  0  0  0  0
  -22.6380   -8.1560   21.3390 C   0  0  0  0  0  0  0  0  0  0  0  0
  -22.1790   -9.1270   20.4320 C   0  0  0  0  0  3  0  0  0  0  0  0
  -22.9040  -10.3120   20.2250 C   0  0  0  0  0  3  0  0  0  0  0  0
  -21.8830   -7.0130   21.4540 O   0  0  0  0  0  0  0  0  0  0  0  0
  -21.8290   -6.3000   22.6240 C   0  0  0  0  0  0  0  0  0  0  0  0
  -21.4000   -6.8870   23.8360 C   0  0  0  0  0  3  0  0  0  0  0  0
  -21.2950   -6.1000   25.0000 C   0  0  0  0  0  3  0  0  0  0  0  0
  -21.6080   -4.7290   24.9540 C   0  0  0  0  0  0  0  0  0  0  0  0
  -22.0310   -4.1420   23.7490 C   0  0  0  0  0  3  0  0  0  0  0  0
  -22.1380   -4.9250   22.5860 C   0  0  0  0  0  0  0  0  0  0  0  0
  -22.5250   -4.3500   21.4220 F   0  0  0  0  0  0  0  0  0  0  0  0
  -21.4990   -3.9710   26.0710 F   0  0  0  0  0  0  0  0  0  0  0  0
  -23.0490  -13.6510   21.3240 C   0  0  0  0  0  0  0  0  0  0  0  0
  -22.4220  -12.9340   22.2490 N   0  0  0  0  0  0  0  0  0  0  0  0
  -22.5690  -14.7020   20.9020 O   0  0  0  0  0  0  0  0  0  0  0  0
  -22.8260  -12.0840   22.6130 H   0  0  0  0  0  0  0  0  0  0  0  0
  -21.5260  -13.2400   22.5990 H   0  0  0  0  0  0  0  0  0  0  0  0
  -25.5840  -15.3160   20.2550 N   0  0  0  0  0  0  0  0  0  0  0  0
  -24.8290  -15.9630   20.4560 H   0  0  0  0  0  0  0  0  0  0  0  0
  -26.3600  -15.7490   19.7740 H   0  0  0  0  0  0  0  0  0  0  0  0
  -28.6370  -23.0510   21.0070 C   0  0  0  0  0  2  0  0  0  0  0  0
  -28.7550  -24.2730   20.0580 C   0  0  0  0  0  2  0  0  0  0  0  0
  -28.4430  -25.5730   20.8420 C   0  0  0  0  0  2  0  0  0  0  0  0
  -28.4980  -26.7810   20.0700 O   0  0  0  0  0  0  0  0  0  0  0  0
  -24.6380  -31.8850   23.2260 C   0  0  0  0  0  0  0  0  0  0  0  0
  -27.3310  -27.5100   20.0940 C   0  0  0  0  0  0  0  0  0  0  0  0
  -23.4380  -30.4600   21.5970 C   0  0  0  0  0  3  0  0  0  0  0  0
  -24.9030  -28.9540   20.1510 C   0  0  0  0  0  0  0  0  0  0  0  0
  -25.9530  -30.8720   21.3660 C   0  0  0  0  0  2  0  0  0  0  0  0
  -26.0610  -29.5070   20.7200 C   0  0  0  0  0  0  0  0  0  0  0  0
  -27.2800  -28.7920   20.6850 C   0  0  0  0  0  3  0  0  0  0  0  0
  -26.1590  -26.9640   19.5300 C   0  0  0  0  0  3  0  0  0  0  0  0
  -24.9460  -27.6790   19.5580 C   0  0  0  0  0  3  0  0  0  0  0  0
  -23.6420  -29.7850   20.2150 C   0  0  0  0  0  2  0  0  0  0  0  0
  -24.6950  -31.0880   22.1210 N   0  0  0  0  0  0  0  0  0  0  0  0
  -23.5600  -32.1330   23.7820 O   0  0  0  0  0  0  0  0  0  0  0  0
  -22.8230  -29.4210   22.5620 C   0  0  0  0  0  0  0  0  0  0  0  0
  -21.5030  -29.2040   22.4450 N   0  0  0  0  0  0  0  0  0  0  0  0
  -23.5280  -28.8160   23.3730 O   0  0  0  0  0  0  0  0  0  0  0  0
  -20.9940  -29.7500   21.7650 H   0  0  0  0  0  0  0  0  0  0  0  0
  -18.1650  -27.9240   22.9620 C   0  0  0  0  0  0  0  0  0  0  0  0
  -20.7160  -28.2450   23.2190 C   0  0  0  0  0  3  0  0  0  0  0  0
  -20.8530  -26.8170   22.6400 C   0  0  0  0  0  2  0  0  0  0  0  0
  -19.7500  -26.4620   21.6370 C   0  0  0  0  0  2  0  0  0  0  0  0
  -18.3710  -26.5770   22.2920 C   0  0  0  0  0  2  0  0  0  0  0  0
  -19.2660  -28.7140   23.3870 C   0  0  0  0  0  0  0  0  0  0  0  0
  -19.0200  -29.9720   23.9770 C   0  0  0  0  0  3  0  0  0  0  0  0
  -17.7040  -30.4410   24.1480 C   0  0  0  0  0  3  0  0  0  0  0  0
  -16.6160  -29.6480   23.7450 C   0  0  0  0  0  3  0  0  0  0  0  0
  -16.8480  -28.3920   23.1550 C   0  0  0  0  0  3  0  0  0  0  0  0
  -25.9200  -32.5390   23.8280 C   0  0  0  0  0  3  0  0  0  0  0  0
  -25.5860  -33.9280   24.1720 N   0  0  0  0  0  0  0  0  0  0  0  0
  -25.8810  -34.9890   23.4100 C   0  0  0  0  0  0  0  0  0  0  0  0
  -26.5340  -34.9060   22.3660 O   0  0  0  0  0  0  0  0  0  0  0  0
  -25.0090  -34.0660   24.9870 H   0  0  0  0  0  0  0  0  0  0  0  0
  -24.1070  -36.7430   23.0890 C   0  0  0  0  0  1  0  0  0  0  0  0
  -25.3680  -36.3640   23.8830 C   0  0  0  0  0  3  0  0  0  0  0  0
  -27.4930  -37.2910   24.6910 C   0  0  0  0  0  1  0  0  0  0  0  0
  -26.3770  -37.4400   23.7620 N   0  0  0  0  0  0  0  0  0  0  0  0
  -25.9520  -38.3500   23.9180 H   0  0  0  0  0  0  0  0  0  0  0  0
  -26.4780  -31.7710   25.0900 C   0  0  1  0  0  0  0  0  0  0  0  0
  -25.4040  -31.4900   26.1680 C   0  0  0  0  0  1  0  0  0  0  0  0
  -27.0990  -30.4170   24.6750 C   0  0  0  0  0  1  0  0  0  0  0  0
  -27.6110  -32.5940   25.7480 C   0  0  0  0  0  1  0  0  0  0  0  0
  1 49  1  0
  1  4  1  0
  2  1  1  0
  3  1  1  0
  5  9  1  0
  7  5  2  0
  7 10  1  0
  8  6  1  0
  9  6  2  0
  9  4  1  0
 10 19  1  0
 10  8  2  0
 11 19  1  0
 12 17  1  0
 13 14  1  0
 13 12  1  0
 15 14  1  0
 15 24  1  0
 15 16  1  0
 17 11  1  0
 17 16  1  0
 18 11  2  0
 19 20  1  0
 21 22  2  0
 22 41  1  0
 23 22  1  0
 23 26  1  0
 24 25  1  0
 24 21  1  0
 25 23  2  0
 26 27  1  0
 27 28  2  0
 29 32  1  0
 29 28  1  0
 30 29  2  0
 31 30  1  0
 31 26  2  0
 32 33  1  0
 33 34  1  0
 34 35  2  0
 36 35  1  0
 36 40  1  0
 37 36  2  0
 38 33  2  0
 38 37  1  0
 39 38  1  0
 41 42  1  0
 42 45  1  0
 42 44  1  0
 43 41  2  0
 46 21  1  0
 46 47  1  0
 48 46  1  0
 50 51  1  0
 50 49  1  0
 52 54  1  0
 52 51  1  0
 53 64  2  0
 54 59  1  0
 55 63  1  0
 55 65  1  0
 56 62  1  0
 56 58  1  0
 57 63  1  0
 58 57  1  0
 59 58  2  0
 60 61  1  0
 60 54  2  0
 61 56  2  0
 62 55  1  0
 63 53  1  0
 65 67  2  0
 66 65  1  0
 68 66  1  0
 69 78  2  0
 69 74  1  0
 70 66  1  0
 70 74  1  0
 71 70  1  0
 72 73  1  0
 72 71  1  0
 73 69  1  0
 74 75  2  0
 75 76  1  0
 77 76  2  0
 78 77  1  0
 79 53  1  0
 79 80  1  0
 79 89  1  0
 80 83  1  0
 81 85  1  0
 81 80  1  0
 82 81  2  0
 85 84  1  0
 87 85  1  0
 87 88  1  0
 87 86  1  0
 89 92  1  1
 89 90  1  0
 91 89  1  0
M  ISO  4  11 100  19 100  51 101  52 101
M  END
>  <TORSDO>  (31) 
F 21

>  <SCORE>  (31) 
-12.277

>  <name>  (31) 
30

>  <ligand_id>  (31) 
30

>  <original_smiles>  (31) 
[H]c1c([H])c([H])c2c(c1[H])C([H])([H])C([H])([H])C([H])([H])C2([H])N([H])C(=O)C1([H])N(C(=O)C([H])(N([H])C(=O)C([H])(N([H])C([H])([H])[H])C([H])([H])[H])C(C([H])([H])[H])(C([H])([H])[H])C([H])([H])[H])C([H])([H])c2c([H])c(OC([H])([H])C([H])([H])C([H])([H])[N+]([H])([H])C([H])([H])c3c([H])c([H])c(N([H])C(=O)N4C([H])([H])C([H])([H])C([H])([H])C([H])(n5nc(-c6c([H])c([H])c(Oc7c([H])c([H])c(F)c([H])c7F)c([H])c6[H])c(C(=O)N([H])[H])c5N([H])[H])C4([H])[H])c([H])c3[H])c([H])c([H])c2C1([H])[H]

>  <smiles>  (31) 
[H]c1c([H])c([H])c2c(c1[H])C([H])([H])C([H])([H])C([H])([H])C2([H])N([H])C(=O)C1([H])N(C(=O)C([H])(N([H])C(=O)C([H])(N([H])C([H])([H])[H])C([H])([H])[H])C(C([H])([H])[H])(C([H])([H])[H])C([H])([H])[H])C([H])([H])c2c([H])c(OC([H])([H])C([H])([H])C([H])([H])[N+]([H])([H])C([H])([H])c3c([H])c([H])c(N([H])C(=O)N4C([H])([H])C([H])([H])C([H])([H])C([H])(n5nc(-c6c([H])c([H])c(Oc7c([H])c([H])c(F)c([H])c7F)c([H])c6[H])c(C(=O)N([H])[H])c5N([H])[H])C4([H])[H])c([H])c3[H])c([H])c([H])c2C1([H])[H]

$$$$
31:0:0
     RDKit          3D

 89 97  0  0  1  0  0  0  0  0999 V2000
  -30.6180  -18.5840   20.2340 C   0  0  0  0  0  3  0  0  0  0  0  0
  -30.3220  -20.0210   20.1180 C   0  0  0  0  0  3  0  0  0  0  0  0
  -28.3230  -18.1100   19.9970 C   0  0  0  0  0  3  0  0  0  0  0  0
  -29.6220  -17.5390   20.1790 C   0  0  0  0  0  0  0  0  0  0  0  0
  -28.9990  -20.5680   19.9200 C   0  0  0  0  0  0  0  0  0  0  0  0
  -28.0300  -19.5160   19.8660 C   0  0  0  0  0  0  0  0  0  0  0  0
  -26.7350  -19.8670   19.6790 F   0  0  0  0  0  0  0  0  0  0  0  0
  -30.5800  -14.9230   20.0660 C   0  0  0  0  0  0  0  0  0  0  0  0
  -30.4510  -12.5660   19.1460 C   0  0  0  0  0  2  0  0  0  0  0  0
  -29.4680  -12.5400   17.9490 C   0  0  0  0  0  2  0  0  0  0  0  0
  -28.0140  -12.3550   18.4280 C   0  0  0  0  0  2  0  0  0  0  0  0
  -27.6620  -13.2860   19.6170 C   0  0  0  0  0  3  0  0  0  0  0  0
  -28.7540  -13.2570   20.7090 C   0  0  0  0  0  2  0  0  0  0  0  0
  -30.0190  -13.6500   20.0680 N   0  0  0  0  0  0  0  0  0  0  0  0
  -31.7560  -15.0460   19.7010 O   0  0  0  0  0  0  0  0  0  0  0  0
  -29.7160  -16.0150   20.3160 N   0  0  0  0  0  0  0  0  0  0  0  0
  -28.8300  -15.6250   20.5980 H   0  0  0  0  0  0  0  0  0  0  0  0
  -25.3230  -13.9140   20.4530 C   0  0  0  0  0  0  0  0  0  0  0  0
  -24.2550  -13.1600   20.8530 C   0  0  0  0  0  0  0  0  0  0  0  0
  -24.6820  -11.7990   20.7750 C   0  0  0  0  0  0  0  0  0  0  0  0
  -26.3340  -13.0150   20.1560 N   0  0  0  0  0  0  0  0  0  0  0  0
  -25.9580  -11.7360   20.4130 N   0  0  0  0  0  0  0  0  0  0  0  0
  -23.9310  -10.5510   20.9660 C   0  0  0  0  0  0  0  0  0  0  0  0
  -24.3600   -9.5610   21.8760 C   0  0  0  0  0  3  0  0  0  0  0  0
  -23.6090   -8.3800   22.0560 C   0  0  0  0  0  3  0  0  0  0  0  0
  -22.4150   -8.1800   21.3260 C   0  0  0  0  0  0  0  0  0  0  0  0
  -22.0020   -9.1580   20.4040 C   0  0  0  0  0  3  0  0  0  0  0  0
  -22.7540  -10.3310   20.2210 C   0  0  0  0  0  3  0  0  0  0  0  0
  -21.6350   -7.0520   21.4170 O   0  0  0  0  0  0  0  0  0  0  0  0
  -21.5790   -6.3060   22.5670 C   0  0  0  0  0  0  0  0  0  0  0  0
  -21.1440   -6.8560   23.7920 C   0  0  0  0  0  3  0  0  0  0  0  0
  -21.0370   -6.0370   24.9340 C   0  0  0  0  0  3  0  0  0  0  0  0
  -21.3540   -4.6680   24.8510 C   0  0  0  0  0  0  0  0  0  0  0  0
  -21.7830   -4.1170   23.6300 C   0  0  0  0  0  3  0  0  0  0  0  0
  -21.8920   -4.9330   22.4910 C   0  0  0  0  0  0  0  0  0  0  0  0
  -22.2850   -4.3930   21.3120 F   0  0  0  0  0  0  0  0  0  0  0  0
  -21.2440   -3.8790   25.9450 F   0  0  0  0  0  0  0  0  0  0  0  0
  -22.8820  -13.6670   21.1860 C   0  0  0  0  0  0  0  0  0  0  0  0
  -22.1720  -12.9770   22.0720 N   0  0  0  0  0  0  0  0  0  0  0  0
  -22.4480  -14.7080   20.6950 O   0  0  0  0  0  0  0  0  0  0  0  0
  -22.5360  -12.1340   22.4910 H   0  0  0  0  0  0  0  0  0  0  0  0
  -21.2520  -13.2980   22.3390 H   0  0  0  0  0  0  0  0  0  0  0  0
  -25.5110  -15.2840   20.2900 N   0  0  0  0  0  0  0  0  0  0  0  0
  -24.7430  -15.9360   20.4050 H   0  0  0  0  0  0  0  0  0  0  0  0
  -26.3000  -15.6870   19.8030 H   0  0  0  0  0  0  0  0  0  0  0  0
  -28.5040  -21.9350   19.7320 O   0  0  0  0  0  0  0  0  0  0  0  0
  -29.0950  -23.3350   19.9090 C   0  0  0  0  0  3  0  0  0  0  0  0
  -28.1160  -24.6810   19.6400 C   0  0  0  0  0  3  0  0  0  0  0  0
  -28.3620  -26.1910   19.9150 O   0  0  0  0  0  0  0  0  0  0  0  0
  -24.5360  -31.6270   23.0850 C   0  0  0  0  0  0  0  0  0  0  0  0
  -27.2770  -27.1420   19.8750 C   0  0  0  0  0  0  0  0  0  0  0  0
  -23.3960  -30.2890   21.3560 C   0  0  0  0  0  3  0  0  0  0  0  0
  -24.9060  -28.8230   19.8830 C   0  0  0  0  0  0  0  0  0  0  0  0
  -25.9460  -30.6220   21.2520 C   0  0  0  0  0  2  0  0  0  0  0  0
  -26.0640  -29.2680   20.5340 C   0  0  0  0  0  0  0  0  0  0  0  0
  -27.2500  -28.4450   20.5130 C   0  0  0  0  0  3  0  0  0  0  0  0
  -26.0890  -26.7970   19.1910 C   0  0  0  0  0  3  0  0  0  0  0  0
  -24.9310  -27.6010   19.1980 C   0  0  0  0  0  3  0  0  0  0  0  0
  -23.6570  -29.6880   19.9500 C   0  0  0  0  0  2  0  0  0  0  0  0
  -24.6450  -30.8640   21.9540 N   0  0  0  0  0  0  0  0  0  0  0  0
  -23.4340  -31.8620   23.6050 O   0  0  0  0  0  0  0  0  0  0  0  0
  -22.7240  -29.2200   22.2530 C   0  0  0  0  0  0  0  0  0  0  0  0
  -21.3950  -29.0550   22.1190 N   0  0  0  0  0  0  0  0  0  0  0  0
  -23.3990  -28.5440   23.0340 O   0  0  0  0  0  0  0  0  0  0  0  0
  -20.9070  -29.6540   21.4680 H   0  0  0  0  0  0  0  0  0  0  0  0
  -18.0080  -27.8640   22.6020 C   0  0  0  0  0  0  0  0  0  0  0  0
  -20.5770  -28.0710   22.8320 C   0  0  0  0  0  3  0  0  0  0  0  0
  -20.6440  -26.6870   22.1430 C   0  0  0  0  0  2  0  0  0  0  0  0
  -19.5160  -26.4610   21.1320 C   0  0  0  0  0  2  0  0  0  0  0  0
  -18.1500  -26.5720   21.8170 C   0  0  0  0  0  2  0  0  0  0  0  0
  -19.1480  -28.5760   23.0650 C   0  0  0  0  0  0  0  0  0  0  0  0
  -18.9590  -29.7890   23.7640 C   0  0  0  0  0  3  0  0  0  0  0  0
  -17.6650  -30.2900   24.0000 C   0  0  0  0  0  3  0  0  0  0  0  0
  -16.5420  -29.5740   23.5510 C   0  0  0  0  0  3  0  0  0  0  0  0
  -16.7140  -28.3630   22.8590 C   0  0  0  0  0  3  0  0  0  0  0  0
  -25.7880  -32.2560   23.7670 C   0  0  0  0  0  3  0  0  0  0  0  0
  -26.2640  -31.4600   25.0450 C   0  0  1  0  0  0  0  0  0  0  0  0
  -25.1360  -31.1940   26.0690 C   0  0  0  0  0  1  0  0  0  0  0  0
  -26.8680  -30.0930   24.6470 C   0  0  0  0  0  1  0  0  0  0  0  0
  -27.3860  -32.2460   25.7630 C   0  0  0  0  0  1  0  0  0  0  0  0
  -25.4530  -33.6440   24.1230 N   0  0  0  0  0  0  0  0  0  0  0  0
  -25.7720  -34.7190   23.3900 C   0  0  0  0  0  0  0  0  0  0  0  0
  -26.4450  -34.6480   22.3590 O   0  0  0  0  0  0  0  0  0  0  0  0
  -24.8550  -33.7720   24.9260 H   0  0  0  0  0  0  0  0  0  0  0  0
  -24.0050  -36.4870   23.0910 C   0  0  0  0  0  1  0  0  0  0  0  0
  -25.2650  -36.0920   23.8780 C   0  0  0  0  0  3  0  0  0  0  0  0
  -27.3890  -37.0120   24.7010 C   0  0  0  0  0  1  0  0  0  0  0  0
  -26.2770  -37.1660   23.7680 N   0  0  0  0  0  0  0  0  0  0  0  0
  -25.8530  -38.0770   23.9260 H   0  0  0  0  0  0  0  0  0  0  0  0
  2  1  2  0
  3  4  2  0
  4  1  1  0
  4 16  1  0
  5  2  1  0
  6  5  2  0
  6  3  1  0
  7  6  1  0
  8 14  1  0
  8 16  1  0
  9 14  1  0
 10 11  1  0
 10  9  1  0
 12 11  1  0
 12 21  1  0
 12 13  1  0
 14 13  1  0
 15  8  2  0
 16 17  1  0
 18 19  2  0
 19 38  1  0
 20 19  1  0
 20 23  1  0
 21 22  1  0
 21 18  1  0
 22 20  2  0
 23 24  1  0
 24 25  2  0
 26 29  1  0
 26 25  1  0
 27 26  2  0
 28 27  1  0
 28 23  2  0
 29 30  1  0
 30 31  1  0
 31 32  2  0
 33 32  1  0
 33 37  1  0
 34 33  2  0
 35 30  2  0
 35 34  1  0
 36 35  1  0
 38 39  1  0
 39 42  1  0
 39 41  1  0
 40 38  2  0
 43 44  1  0
 43 18  1  0
 45 43  1  0
 46 47  1  0
 46  5  1  0
 48 47  2  0
 48 49  1  0
 50 61  2  0
 51 49  1  0
 51 56  1  0
 52 60  1  0
 52 62  1  0
 53 59  1  0
 53 55  1  0
 54 60  1  0
 55 54  1  0
 56 55  2  0
 57 58  1  0
 57 51  2  0
 58 53  2  0
 59 52  1  0
 60 50  1  0
 62 64  2  0
 63 62  1  0
 65 63  1  0
 66 75  2  0
 66 71  1  0
 67 63  1  0
 67 71  1  0
 68 67  1  0
 69 70  1  0
 69 68  1  0
 70 66  1  0
 71 72  2  0
 72 73  1  0
 74 73  2  0
 75 74  1  0
 76 50  1  0
 76 81  1  0
 76 77  1  0
 77 80  1  1
 77 78  1  0
 79 77  1  0
 81 84  1  0
 82 86  1  0
 82 81  1  0
 83 82  2  0
 86 85  1  0
 88 86  1  0
 88 89  1  0
 88 87  1  0
M  ISO  4   8 100  16 100  48 101  49 101
M  END
>  <TORSDO>  (32) 
F 19

>  <SCORE>  (32) 
-13.742

>  <name>  (32) 
31

>  <ligand_id>  (32) 
31

>  <original_smiles>  (32) 
[H]c1c([H])c([H])c2c(c1[H])C([H])([H])C([H])([H])C([H])([H])C2([H])N([H])C(=O)C1([H])N(C(=O)C([H])(N([H])C(=O)C([H])(N([H])C([H])([H])[H])C([H])([H])[H])C(C([H])([H])[H])(C([H])([H])[H])C([H])([H])[H])C([H])([H])c2c([H])c(OC([H])([H])C([H])([H])Oc3c([H])c([H])c(N([H])C(=O)N4C([H])([H])C([H])([H])C([H])([H])C([H])(n5nc(-c6c([H])c([H])c(Oc7c([H])c([H])c(F)c([H])c7F)c([H])c6[H])c(C(=O)N([H])[H])c5N([H])[H])C4([H])[H])c([H])c3F)c([H])c([H])c2C1([H])[H]

>  <smiles>  (32) 
[H]c1c([H])c([H])c2c(c1[H])C([H])([H])C([H])([H])C([H])([H])C2([H])N([H])C(=O)C1([H])N(C(=O)C([H])(N([H])C(=O)C([H])(N([H])C([H])([H])[H])C([H])([H])[H])C(C([H])([H])[H])(C([H])([H])[H])C([H])([H])[H])C([H])([H])c2c([H])c(OC([H])([H])C([H])([H])Oc3c([H])c([H])c(N([H])C(=O)N4C([H])([H])C([H])([H])C([H])([H])C([H])(n5nc(-c6c([H])c([H])c(Oc7c([H])c([H])c(F)c([H])c7F)c([H])c6[H])c(C(=O)N([H])[H])c5N([H])[H])C4([H])[H])c([H])c3F)c([H])c([H])c2C1([H])[H]

$$$$
32:0:0
     RDKit          3D

 89 97  0  0  1  0  0  0  0  0999 V2000
  -29.2950  -21.0210   20.6670 O   0  0  0  0  0  0  0  0  0  0  0  0
  -29.9360  -18.4520   17.9800 C   0  0  0  0  0  3  0  0  0  0  0  0
  -30.0500  -17.2450   18.6970 C   0  0  0  0  0  3  0  0  0  0  0  0
  -29.6640  -19.6750   18.6240 C   0  0  0  0  0  3  0  0  0  0  0  0
  -29.6110  -18.4860   20.7420 C   0  0  0  0  0  3  0  0  0  0  0  0
  -29.8800  -17.2050   20.0990 C   0  0  0  0  0  0  0  0  0  0  0  0
  -29.5100  -19.7580   20.0290 C   0  0  0  0  0  0  0  0  0  0  0  0
  -30.6010  -14.7370   20.4170 C   0  0  0  0  0  0  0  0  0  0  0  0
  -30.3770  -12.4630   19.4240 C   0  0  0  0  0  2  0  0  0  0  0  0
  -29.4550  -12.5730   18.1880 C   0  0  0  0  0  2  0  0  0  0  0  0
  -27.9790  -12.4180   18.5990 C   0  0  0  0  0  2  0  0  0  0  0  0
  -27.6070  -13.2920   19.8260 C   0  0  0  0  0  3  0  0  0  0  0  0
  -28.6550  -13.1820   20.9580 C   0  0  0  0  0  2  0  0  0  0  0  0
  -29.9670  -13.5140   20.3850 N   0  0  0  0  0  0  0  0  0  0  0  0
  -31.7670  -14.8330   20.0240 O   0  0  0  0  0  0  0  0  0  0  0  0
  -29.8780  -15.8700   20.7530 N   0  0  0  0  0  0  0  0  0  0  0  0
  -29.0650  -15.6850   21.3230 H   0  0  0  0  0  0  0  0  0  0  0  0
  -25.2110  -13.8880   20.5220 C   0  0  0  0  0  0  0  0  0  0  0  0
  -24.1410  -13.1180   20.8890 C   0  0  0  0  0  0  0  0  0  0  0  0
  -24.6030  -11.7650   20.8710 C   0  0  0  0  0  0  0  0  0  0  0  0
  -26.2560  -13.0060   20.3030 N   0  0  0  0  0  0  0  0  0  0  0  0
  -25.8960  -11.7250   20.5750 N   0  0  0  0  0  0  0  0  0  0  0  0
  -23.8720  -10.5060   21.0630 C   0  0  0  0  0  0  0  0  0  0  0  0
  -24.3070   -9.5330   21.9900 C   0  0  0  0  0  3  0  0  0  0  0  0
  -23.5760   -8.3390   22.1720 C   0  0  0  0  0  3  0  0  0  0  0  0
  -22.3950   -8.1100   21.4260 C   0  0  0  0  0  0  0  0  0  0  0  0
  -21.9790   -9.0710   20.4880 C   0  0  0  0  0  3  0  0  0  0  0  0
  -22.7110  -10.2550   20.3040 C   0  0  0  0  0  3  0  0  0  0  0  0
  -21.6360   -6.9680   21.5170 O   0  0  0  0  0  0  0  0  0  0  0  0
  -21.6070   -6.2110   22.6600 C   0  0  0  0  0  0  0  0  0  0  0  0
  -21.2230   -6.7560   23.9050 C   0  0  0  0  0  3  0  0  0  0  0  0
  -21.1400   -5.9270   25.0420 C   0  0  0  0  0  3  0  0  0  0  0  0
  -21.4290   -4.5530   24.9340 C   0  0  0  0  0  0  0  0  0  0  0  0
  -21.8060   -4.0080   23.6940 C   0  0  0  0  0  3  0  0  0  0  0  0
  -21.8920   -4.8340   22.5600 C   0  0  0  0  0  0  0  0  0  0  0  0
  -22.2340   -4.2990   21.3640 F   0  0  0  0  0  0  0  0  0  0  0  0
  -21.3430   -3.7540   26.0230 F   0  0  0  0  0  0  0  0  0  0  0  0
  -22.7420  -13.5990   21.1430 C   0  0  0  0  0  0  0  0  0  0  0  0
  -22.0050  -12.9120   22.0090 N   0  0  0  0  0  0  0  0  0  0  0  0
  -22.3110  -14.6210   20.6110 O   0  0  0  0  0  0  0  0  0  0  0  0
  -22.3650  -12.0850   22.4620 H   0  0  0  0  0  0  0  0  0  0  0  0
  -21.0670  -13.2170   22.2210 H   0  0  0  0  0  0  0  0  0  0  0  0
  -25.3780  -15.2570   20.3340 N   0  0  0  0  0  0  0  0  0  0  0  0
  -24.6100  -15.9130   20.4280 H   0  0  0  0  0  0  0  0  0  0  0  0
  -26.2290  -15.6900   19.9960 H   0  0  0  0  0  0  0  0  0  0  0  0
  -28.9080  -22.2590   19.9150 C   0  0  0  0  0  3  0  0  0  0  0  0
  -28.9510  -23.7300   20.5960 C   0  0  0  0  0  3  0  0  0  0  0  0
  -28.1250  -24.9400   19.9070 C   0  0  0  0  0  2  0  0  0  0  0  0
  -28.2870  -26.3920   20.2760 O   0  0  0  0  0  0  0  0  0  0  0  0
  -24.6020  -31.8830   23.2620 C   0  0  0  0  0  0  0  0  0  0  0  0
  -27.1880  -27.2840   20.1920 C   0  0  0  0  0  0  0  0  0  0  0  0
  -23.3890  -30.4870   21.6280 C   0  0  0  0  0  3  0  0  0  0  0  0
  -24.8330  -28.9380   20.1890 C   0  0  0  0  0  0  0  0  0  0  0  0
  -25.9320  -30.7900   21.4390 C   0  0  0  0  0  2  0  0  0  0  0  0
  -26.0060  -29.4090   20.7890 C   0  0  0  0  0  0  0  0  0  0  0  0
  -27.1820  -28.5920   20.7870 C   0  0  0  0  0  3  0  0  0  0  0  0
  -25.9950  -26.8960   19.5370 C   0  0  0  0  0  3  0  0  0  0  0  0
  -24.8330  -27.6880   19.5520 C   0  0  0  0  0  3  0  0  0  0  0  0
  -23.5980  -29.8170   20.2450 C   0  0  0  0  0  2  0  0  0  0  0  0
  -24.6600  -31.0720   22.1650 N   0  0  0  0  0  0  0  0  0  0  0  0
  -23.5200  -32.1630   23.8010 O   0  0  0  0  0  0  0  0  0  0  0  0
  -22.7280  -29.4710   22.5900 C   0  0  0  0  0  0  0  0  0  0  0  0
  -21.4020  -29.2910   22.4650 N   0  0  0  0  0  0  0  0  0  0  0  0
  -23.4080  -28.8490   23.4100 O   0  0  0  0  0  0  0  0  0  0  0  0
  -20.9100  -29.8450   21.7780 H   0  0  0  0  0  0  0  0  0  0  0  0
  -18.0310  -28.0740   22.9630 C   0  0  0  0  0  0  0  0  0  0  0  0
  -20.5860  -28.3530   23.2400 C   0  0  0  0  0  3  0  0  0  0  0  0
  -20.7000  -26.9170   22.6750 C   0  0  0  0  0  2  0  0  0  0  0  0
  -19.6040  -26.5800   21.6590 C   0  0  0  0  0  2  0  0  0  0  0  0
  -18.2190  -26.7210   22.2970 C   0  0  0  0  0  2  0  0  0  0  0  0
  -19.1430  -28.8470   23.3920 C   0  0  0  0  0  0  0  0  0  0  0  0
  -18.9130  -30.1120   23.9750 C   0  0  0  0  0  3  0  0  0  0  0  0
  -17.6040  -30.6050   24.1340 C   0  0  0  0  0  3  0  0  0  0  0  0
  -16.5070  -29.8300   23.7210 C   0  0  0  0  0  3  0  0  0  0  0  0
  -16.7200  -28.5660   23.1410 C   0  0  0  0  0  3  0  0  0  0  0  0
  -25.8860  -32.5160   23.8780 C   0  0  0  0  0  3  0  0  0  0  0  0
  -26.4050  -31.7460   25.1540 C   0  0  1  0  0  0  0  0  0  0  0  0
  -25.3140  -31.5150   26.2270 C   0  0  0  0  0  1  0  0  0  0  0  0
  -26.9810  -30.3650   24.7650 C   0  0  0  0  0  1  0  0  0  0  0  0
  -27.5610  -32.5370   25.8080 C   0  0  0  0  0  1  0  0  0  0  0  0
  -25.5810  -33.9160   24.2080 N   0  0  0  0  0  0  0  0  0  0  0  0
  -25.9070  -34.9680   23.4450 C   0  0  0  0  0  0  0  0  0  0  0  0
  -26.5670  -34.8610   22.4080 O   0  0  0  0  0  0  0  0  0  0  0  0
  -24.9960  -34.0710   25.0160 H   0  0  0  0  0  0  0  0  0  0  0  0
  -24.1760  -36.7610   23.1060 C   0  0  0  0  0  1  0  0  0  0  0  0
  -25.4260  -36.3570   23.9050 C   0  0  0  0  0  3  0  0  0  0  0  0
  -27.5730  -37.2410   24.7060 C   0  0  0  0  0  1  0  0  0  0  0  0
  -26.4580  -37.4100   23.7790 N   0  0  0  0  0  0  0  0  0  0  0  0
  -26.0550  -38.3300   23.9340 H   0  0  0  0  0  0  0  0  0  0  0  0
  2  4  2  0
  2  3  1  0
  3  6  2  0
  4  7  1  0
  6  5  1  0
  6 16  1  0
  7  1  1  0
  7  5  2  0
  8 16  1  0
  9 14  1  0
 10 11  1  0
 10  9  1  0
 12 11  1  0
 12 21  1  0
 12 13  1  0
 14  8  1  0
 14 13  1  0
 15  8  2  0
 16 17  1  0
 18 19  2  0
 19 38  1  0
 20 19  1  0
 20 23  1  0
 21 18  1  0
 21 22  1  0
 22 20  2  0
 23 24  1  0
 24 25  2  0
 26 29  1  0
 26 25  1  0
 27 26  2  0
 28 27  1  0
 28 23  2  0
 29 30  1  0
 30 31  1  0
 31 32  2  0
 33 32  1  0
 33 37  1  0
 34 33  2  0
 35 30  2  0
 35 34  1  0
 36 35  1  0
 38 39  1  0
 39 42  1  0
 39 41  1  0
 40 38  2  0
 43 44  1  0
 43 18  1  0
 45 43  1  0
 46 47  2  0
 46  1  1  0
 48 49  1  0
 48 47  1  0
 50 61  2  0
 51 49  1  0
 51 56  1  0
 52 60  1  0
 52 62  1  0
 53 59  1  0
 53 55  1  0
 54 60  1  0
 55 54  1  0
 56 55  2  0
 57 58  1  0
 57 51  2  0
 58 53  2  0
 59 52  1  0
 60 50  1  0
 62 64  2  0
 63 62  1  0
 65 63  1  0
 66 75  2  0
 66 71  1  0
 67 63  1  0
 67 71  1  0
 68 67  1  0
 69 70  1  0
 69 68  1  0
 70 66  1  0
 71 72  2  0
 72 73  1  0
 74 73  2  0
 75 74  1  0
 76 50  1  0
 76 81  1  0
 76 77  1  0
 77 80  1  1
 77 78  1  0
 79 77  1  0
 81 84  1  0
 82 86  1  0
 82 81  1  0
 83 82  2  0
 86 85  1  0
 88 86  1  0
 88 89  1  0
 88 87  1  0
M  ISO  4   8 100  16 100  48 101  49 101
M  END
>  <TORSDO>  (33) 
F 20

>  <SCORE>  (33) 
-13.721

>  <name>  (33) 
32

>  <ligand_id>  (33) 
32

>  <original_smiles>  (33) 
[H]c1c([H])c(OC([H])([H])C([H])([H])C([H])([H])Oc2c([H])c([H])c3c(c2[H])C([H])([H])N(C(=O)C([H])(N([H])C(=O)C([H])(N([H])C([H])([H])[H])C([H])([H])[H])C(C([H])([H])[H])(C([H])([H])[H])C([H])([H])[H])C([H])(C(=O)N([H])C2([H])c4c([H])c([H])c([H])c([H])c4C([H])([H])C([H])([H])C2([H])[H])C3([H])[H])c([H])c(N([H])C(=O)N2C([H])([H])C([H])([H])C([H])([H])C([H])(n3nc(-c4c([H])c([H])c(Oc5c([H])c([H])c(F)c([H])c5F)c([H])c4[H])c(C(=O)N([H])[H])c3N([H])[H])C2([H])[H])c1[H]

>  <smiles>  (33) 
[H]c1c([H])c(OC([H])([H])C([H])([H])C([H])([H])Oc2c([H])c([H])c3c(c2[H])C([H])([H])N(C(=O)C([H])(N([H])C(=O)C([H])(N([H])C([H])([H])[H])C([H])([H])[H])C(C([H])([H])[H])(C([H])([H])[H])C([H])([H])[H])C([H])(C(=O)N([H])C2([H])c4c([H])c([H])c([H])c([H])c4C([H])([H])C([H])([H])C2([H])[H])C3([H])[H])c([H])c(N([H])C(=O)N2C([H])([H])C([H])([H])C([H])([H])C([H])(n3nc(-c4c([H])c([H])c(Oc5c([H])c([H])c(F)c([H])c5F)c([H])c4[H])c(C(=O)N([H])[H])c3N([H])[H])C2([H])[H])c1[H]

$$$$
33:0:0
     RDKit          3D

 90 98  0  0  1  0  0  0  0  0999 V2000
  -30.6690  -18.6020   20.1120 C   0  0  0  0  0  3  0  0  0  0  0  0
  -30.3670  -20.0380   19.9990 C   0  0  0  0  0  3  0  0  0  0  0  0
  -29.6720  -17.5580   20.0590 C   0  0  0  0  0  0  0  0  0  0  0  0
  -29.0420  -20.5790   19.8110 C   0  0  0  0  0  0  0  0  0  0  0  0
  -28.3690  -18.1180   19.8910 C   0  0  0  0  0  0  0  0  0  0  0  0
  -28.0750  -19.5260   19.7620 C   0  0  0  0  0  0  0  0  0  0  0  0
  -27.3290  -17.2550   19.8420 F   0  0  0  0  0  0  0  0  0  0  0  0
  -26.7780  -19.8770   19.5810 F   0  0  0  0  0  0  0  0  0  0  0  0
  -30.5990  -14.9350   19.8900 C   0  0  0  0  0  0  0  0  0  0  0  0
  -30.4260  -12.5890   18.9470 C   0  0  0  0  0  2  0  0  0  0  0  0
  -29.4050  -12.5780   17.7840 C   0  0  0  0  0  2  0  0  0  0  0  0
  -27.9660  -12.3950   18.3090 C   0  0  0  0  0  2  0  0  0  0  0  0
  -27.6550  -13.3110   19.5210 C   0  0  0  0  0  3  0  0  0  0  0  0
  -28.7860  -13.2660   20.5740 C   0  0  0  0  0  2  0  0  0  0  0  0
  -30.0280  -13.6650   19.8950 N   0  0  0  0  0  0  0  0  0  0  0  0
  -31.7650  -15.0520   19.5000 O   0  0  0  0  0  0  0  0  0  0  0  0
  -29.7530  -16.0310   20.1670 N   0  0  0  0  0  0  0  0  0  0  0  0
  -28.8600  -15.6630   20.4600 H   0  0  0  0  0  0  0  0  0  0  0  0
  -25.3350  -13.9230   20.4260 C   0  0  0  0  0  0  0  0  0  0  0  0
  -24.2810  -13.1620   20.8470 C   0  0  0  0  0  0  0  0  0  0  0  0
  -24.7120  -11.8040   20.7510 C   0  0  0  0  0  0  0  0  0  0  0  0
  -26.3450  -13.0310   20.0990 N   0  0  0  0  0  0  0  0  0  0  0  0
  -25.9800  -11.7480   20.3560 N   0  0  0  0  0  0  0  0  0  0  0  0
  -23.9680  -10.5550   20.9560 C   0  0  0  0  0  0  0  0  0  0  0  0
  -24.4250   -9.5600   21.8480 C   0  0  0  0  0  3  0  0  0  0  0  0
  -23.6800   -8.3770   22.0420 C   0  0  0  0  0  3  0  0  0  0  0  0
  -22.4650   -8.1810   21.3460 C   0  0  0  0  0  0  0  0  0  0  0  0
  -22.0260   -9.1650   20.4420 C   0  0  0  0  0  3  0  0  0  0  0  0
  -22.7700  -10.3390   20.2460 C   0  0  0  0  0  3  0  0  0  0  0  0
  -21.6890   -7.0520   21.4520 O   0  0  0  0  0  0  0  0  0  0  0  0
  -21.6680   -6.3000   22.5990 C   0  0  0  0  0  0  0  0  0  0  0  0
  -21.2650   -6.8440   23.8390 C   0  0  0  0  0  3  0  0  0  0  0  0
  -21.1910   -6.0180   24.9780 C   0  0  0  0  0  3  0  0  0  0  0  0
  -21.5070   -4.6500   24.8790 C   0  0  0  0  0  0  0  0  0  0  0  0
  -21.9030   -4.1050   23.6440 C   0  0  0  0  0  3  0  0  0  0  0  0
  -21.9800   -4.9290   22.5070 C   0  0  0  0  0  0  0  0  0  0  0  0
  -22.3410   -4.3950   21.3160 F   0  0  0  0  0  0  0  0  0  0  0  0
  -21.4280   -3.8540   25.9720 F   0  0  0  0  0  0  0  0  0  0  0  0
  -22.9180  -13.6650   21.2250 C   0  0  0  0  0  0  0  0  0  0  0  0
  -22.2370  -12.9710   22.1300 N   0  0  0  0  0  0  0  0  0  0  0  0
  -22.4690  -14.7110   20.7560 O   0  0  0  0  0  0  0  0  0  0  0  0
  -22.6150  -12.1240   22.5310 H   0  0  0  0  0  0  0  0  0  0  0  0
  -21.3270  -13.2910   22.4290 H   0  0  0  0  0  0  0  0  0  0  0  0
  -25.5040  -15.2930   20.2730 N   0  0  0  0  0  0  0  0  0  0  0  0
  -24.7530  -15.9410   20.4790 H   0  0  0  0  0  0  0  0  0  0  0  0
  -26.3520  -15.7620   19.9820 H   0  0  0  0  0  0  0  0  0  0  0  0
  -28.5430  -21.9450   19.6200 O   0  0  0  0  0  0  0  0  0  0  0  0
  -29.1170  -23.3450   19.8410 C   0  0  0  0  0  3  0  0  0  0  0  0
  -28.1400  -24.6920   19.5680 C   0  0  0  0  0  3  0  0  0  0  0  0
  -28.3730  -26.1970   19.8780 O   0  0  0  0  0  0  0  0  0  0  0  0
  -24.5400  -31.6140   23.0790 C   0  0  0  0  0  0  0  0  0  0  0  0
  -27.2840  -27.1420   19.8480 C   0  0  0  0  0  0  0  0  0  0  0  0
  -23.3980  -30.2730   21.3550 C   0  0  0  0  0  3  0  0  0  0  0  0
  -24.9050  -28.8140   19.8750 C   0  0  0  0  0  0  0  0  0  0  0  0
  -25.9470  -30.6140   21.2420 C   0  0  0  0  0  2  0  0  0  0  0  0
  -26.0650  -29.2630   20.5190 C   0  0  0  0  0  0  0  0  0  0  0  0
  -27.2550  -28.4440   20.4880 C   0  0  0  0  0  3  0  0  0  0  0  0
  -26.0920  -26.7910   19.1750 C   0  0  0  0  0  3  0  0  0  0  0  0
  -24.9300  -27.5920   19.1880 C   0  0  0  0  0  3  0  0  0  0  0  0
  -23.6550  -29.6760   19.9470 C   0  0  0  0  0  2  0  0  0  0  0  0
  -24.6470  -30.8520   21.9480 N   0  0  0  0  0  0  0  0  0  0  0  0
  -23.4390  -31.8420   23.6050 O   0  0  0  0  0  0  0  0  0  0  0  0
  -22.7340  -29.2000   22.2540 C   0  0  0  0  0  0  0  0  0  0  0  0
  -21.4070  -29.0260   22.1240 N   0  0  0  0  0  0  0  0  0  0  0  0
  -23.4160  -28.5290   23.0330 O   0  0  0  0  0  0  0  0  0  0  0  0
  -20.9130  -29.6210   21.4730 H   0  0  0  0  0  0  0  0  0  0  0  0
  -18.0290  -27.8110   22.6170 C   0  0  0  0  0  0  0  0  0  0  0  0
  -20.5960  -28.0370   22.8390 C   0  0  0  0  0  3  0  0  0  0  0  0
  -20.6720  -26.6530   22.1540 C   0  0  0  0  0  2  0  0  0  0  0  0
  -19.5430  -26.4150   21.1460 C   0  0  0  0  0  2  0  0  0  0  0  0
  -18.1780  -26.5180   21.8330 C   0  0  0  0  0  2  0  0  0  0  0  0
  -19.1640  -28.5320   23.0760 C   0  0  0  0  0  0  0  0  0  0  0  0
  -18.9690  -29.7450   23.7710 C   0  0  0  0  0  3  0  0  0  0  0  0
  -17.6720  -30.2370   24.0120 C   0  0  0  0  0  3  0  0  0  0  0  0
  -16.5520  -29.5120   23.5680 C   0  0  0  0  0  3  0  0  0  0  0  0
  -16.7320  -28.3010   22.8750 C   0  0  0  0  0  3  0  0  0  0  0  0
  -25.7930  -32.2490   23.7540 C   0  0  0  0  0  3  0  0  0  0  0  0
  -26.2710  -31.4660   25.0390 C   0  0  1  0  0  0  0  0  0  0  0  0
  -25.1460  -31.2110   26.0680 C   0  0  0  0  0  1  0  0  0  0  0  0
  -26.8740  -30.0950   24.6550 C   0  0  0  0  0  1  0  0  0  0  0  0
  -27.3960  -32.2570   25.7460 C   0  0  0  0  0  1  0  0  0  0  0  0
  -25.4580  -33.6400   24.0990 N   0  0  0  0  0  0  0  0  0  0  0  0
  -25.7770  -34.7100   23.3570 C   0  0  0  0  0  0  0  0  0  0  0  0
  -26.4520  -34.6310   22.3280 O   0  0  0  0  0  0  0  0  0  0  0  0
  -24.8630  -33.7740   24.9020 H   0  0  0  0  0  0  0  0  0  0  0  0
  -24.0110  -36.4750   23.0430 C   0  0  0  0  0  1  0  0  0  0  0  0
  -25.2710  -36.0850   23.8350 C   0  0  0  0  0  3  0  0  0  0  0  0
  -27.3900  -37.0110   24.6560 C   0  0  0  0  0  1  0  0  0  0  0  0
  -26.2810  -37.1590   23.7180 N   0  0  0  0  0  0  0  0  0  0  0  0
  -25.8570  -38.0700   23.8710 H   0  0  0  0  0  0  0  0  0  0  0  0
  2  1  2  0
  3  1  1  0
  3 17  1  0
  4  2  1  0
  5  3  2  0
  6  4  2  0
  6  5  1  0
  7  5  1  0
  8  6  1  0
  9 15  1  0
  9 17  1  0
 10 15  1  0
 11 12  1  0
 11 10  1  0
 13 12  1  0
 13 22  1  0
 13 14  1  0
 15 14  1  0
 16  9  2  0
 17 18  1  0
 19 20  2  0
 20 39  1  0
 21 20  1  0
 21 24  1  0
 22 23  1  0
 22 19  1  0
 23 21  2  0
 24 25  1  0
 25 26  2  0
 27 30  1  0
 27 26  1  0
 28 27  2  0
 29 28  1  0
 29 24  2  0
 30 31  1  0
 31 32  1  0
 32 33  2  0
 34 33  1  0
 34 38  1  0
 35 34  2  0
 36 31  2  0
 36 35  1  0
 37 36  1  0
 39 40  1  0
 40 43  1  0
 40 42  1  0
 41 39  2  0
 44 19  1  0
 44 45  1  0
 46 44  1  0
 47  4  1  0
 47 48  1  0
 49 48  2  0
 49 50  1  0
 51 62  2  0
 52 50  1  0
 52 57  1  0
 53 61  1  0
 53 63  1  0
 54 60  1  0
 54 56  1  0
 55 61  1  0
 56 55  1  0
 57 56  2  0
 58 59  1  0
 58 52  2  0
 59 54  2  0
 60 53  1  0
 61 51  1  0
 63 65  2  0
 64 63  1  0
 66 64  1  0
 67 76  2  0
 67 72  1  0
 68 64  1  0
 68 72  1  0
 69 68  1  0
 70 71  1  0
 70 69  1  0
 71 67  1  0
 72 73  2  0
 73 74  1  0
 75 74  2  0
 76 75  1  0
 77 51  1  0
 77 82  1  0
 77 78  1  0
 78 81  1  1
 78 79  1  0
 80 78  1  0
 82 85  1  0
 83 87  1  0
 83 82  1  0
 84 83  2  0
 87 86  1  0
 89 87  1  0
 89 90  1  0
 89 88  1  0
M  ISO  4   9 100  17 100  49 101  50 101
M  END
>  <TORSDO>  (34) 
F 19

>  <SCORE>  (34) 
-13.791

>  <name>  (34) 
33

>  <ligand_id>  (34) 
33

>  <original_smiles>  (34) 
[H]c1c([H])c([H])c2c(c1[H])C([H])([H])C([H])([H])C([H])([H])C2([H])N([H])C(=O)C1([H])N(C(=O)C([H])(N([H])C(=O)C([H])(N([H])C([H])([H])[H])C([H])([H])[H])C(C([H])([H])[H])(C([H])([H])[H])C([H])([H])[H])C([H])([H])c2c([H])c(OC([H])([H])C([H])([H])Oc3c([H])c([H])c(N([H])C(=O)N4C([H])([H])C([H])([H])C([H])([H])C([H])(n5nc(-c6c([H])c([H])c(Oc7c([H])c([H])c(F)c([H])c7F)c([H])c6[H])c(C(=O)N([H])[H])c5N([H])[H])C4([H])[H])c(F)c3F)c([H])c([H])c2C1([H])[H]

>  <smiles>  (34) 
[H]c1c([H])c([H])c2c(c1[H])C([H])([H])C([H])([H])C([H])([H])C2([H])N([H])C(=O)C1([H])N(C(=O)C([H])(N([H])C(=O)C([H])(N([H])C([H])([H])[H])C([H])([H])[H])C(C([H])([H])[H])(C([H])([H])[H])C([H])([H])[H])C([H])([H])c2c([H])c(OC([H])([H])C([H])([H])Oc3c([H])c([H])c(N([H])C(=O)N4C([H])([H])C([H])([H])C([H])([H])C([H])(n5nc(-c6c([H])c([H])c(Oc7c([H])c([H])c(F)c([H])c7F)c([H])c6[H])c(C(=O)N([H])[H])c5N([H])[H])C4([H])[H])c(F)c3F)c([H])c([H])c2C1([H])[H]

$$$$
34:0:0
     RDKit          3D

 90 98  0  0  1  0  0  0  0  0999 V2000
  -31.0370  -17.9100   19.9770 C   0  0  0  0  0  3  0  0  0  0  0  0
  -31.0130  -19.3290   19.8310 C   0  0  0  0  0  3  0  0  0  0  0  0
  -28.7300  -17.9770   20.6360 C   0  0  0  0  0  3  0  0  0  0  0  0
  -29.8880  -17.1860   20.3860 C   0  0  0  0  0  0  0  0  0  0  0  0
  -29.8590  -20.1220   20.0780 C   0  0  0  0  0  0  0  0  0  0  0  0
  -28.7050  -19.3980   20.4900 C   0  0  0  0  0  0  0  0  0  0  0  0
  -27.5490  -20.0520   20.7580 F   0  0  0  0  0  0  0  0  0  0  0  0
  -30.5980  -14.6850   20.1250 C   0  0  0  0  0  0  0  0  0  0  0  0
  -30.3560  -12.4480   19.0640 C   0  0  0  0  0  2  0  0  0  0  0  0
  -29.3690  -12.5900   17.8830 C   0  0  0  0  0  2  0  0  0  0  0  0
  -27.9110  -12.4310   18.3610 C   0  0  0  0  0  2  0  0  0  0  0  0
  -27.6000  -13.2790   19.6230 C   0  0  0  0  0  3  0  0  0  0  0  0
  -28.6980  -13.1110   20.6970 C   0  0  0  0  0  2  0  0  0  0  0  0
  -29.9860  -13.4590   20.0760 N   0  0  0  0  0  0  0  0  0  0  0  0
  -31.7390  -14.8470   19.6810 O   0  0  0  0  0  0  0  0  0  0  0  0
  -29.8100  -15.7270   20.5450 N   0  0  0  0  0  0  0  0  0  0  0  0
  -28.9370  -15.4010   20.9340 H   0  0  0  0  0  0  0  0  0  0  0  0
  -25.2380  -13.8750   20.4420 C   0  0  0  0  0  0  0  0  0  0  0  0
  -24.1830  -13.1000   20.8410 C   0  0  0  0  0  0  0  0  0  0  0  0
  -24.6380  -11.7470   20.7700 C   0  0  0  0  0  0  0  0  0  0  0  0
  -26.2690  -12.9940   20.1530 N   0  0  0  0  0  0  0  0  0  0  0  0
  -25.9140  -11.7080   20.4090 N   0  0  0  0  0  0  0  0  0  0  0  0
  -23.9120  -10.4850   20.9680 C   0  0  0  0  0  0  0  0  0  0  0  0
  -24.3650   -9.5090   21.8830 C   0  0  0  0  0  3  0  0  0  0  0  0
  -23.6420   -8.3110   22.0690 C   0  0  0  0  0  3  0  0  0  0  0  0
  -22.4500   -8.0820   21.3400 C   0  0  0  0  0  0  0  0  0  0  0  0
  -22.0150   -9.0480   20.4150 C   0  0  0  0  0  3  0  0  0  0  0  0
  -22.7400  -10.2360   20.2260 C   0  0  0  0  0  3  0  0  0  0  0  0
  -21.6950   -6.9380   21.4370 O   0  0  0  0  0  0  0  0  0  0  0  0
  -21.6530   -6.1990   22.5920 C   0  0  0  0  0  0  0  0  0  0  0  0
  -21.2070   -6.7480   23.8130 C   0  0  0  0  0  3  0  0  0  0  0  0
  -21.1150   -5.9340   24.9610 C   0  0  0  0  0  3  0  0  0  0  0  0
  -21.4580   -4.5710   24.8850 C   0  0  0  0  0  0  0  0  0  0  0  0
  -21.8970   -4.0200   23.6680 C   0  0  0  0  0  3  0  0  0  0  0  0
  -21.9910   -4.8310   22.5240 C   0  0  0  0  0  0  0  0  0  0  0  0
  -22.3940   -4.2910   21.3490 F   0  0  0  0  0  0  0  0  0  0  0  0
  -21.3620   -3.7860   25.9840 F   0  0  0  0  0  0  0  0  0  0  0  0
  -22.7990  -13.5780   21.1750 C   0  0  0  0  0  0  0  0  0  0  0  0
  -22.1060  -12.8780   22.0650 N   0  0  0  0  0  0  0  0  0  0  0  0
  -22.3450  -14.6100   20.6840 O   0  0  0  0  0  0  0  0  0  0  0  0
  -22.4870  -12.0440   22.4880 H   0  0  0  0  0  0  0  0  0  0  0  0
  -21.1790  -13.1820   22.3300 H   0  0  0  0  0  0  0  0  0  0  0  0
  -25.4000  -15.2470   20.2780 N   0  0  0  0  0  0  0  0  0  0  0  0
  -24.6340  -15.8960   20.4170 H   0  0  0  0  0  0  0  0  0  0  0  0
  -26.2220  -15.6840   19.8800 H   0  0  0  0  0  0  0  0  0  0  0  0
  -29.9680  -21.5220   19.9050 O   0  0  0  0  0  0  0  0  0  0  0  0
  -28.8750  -22.4670   20.1420 C   0  0  0  0  0  3  0  0  0  0  0  0
  -29.2270  -24.0020   19.8750 C   0  0  0  0  0  3  0  0  0  0  0  0
  -28.0550  -25.0580   20.0540 C   0  0  0  0  0  2  0  0  0  0  0  0
  -28.3030  -26.5080   19.8500 O   0  0  0  0  0  0  0  0  0  0  0  0
  -24.6700  -31.8010   23.1690 C   0  0  0  0  0  0  0  0  0  0  0  0
  -27.1900  -27.3650   19.8710 C   0  0  0  0  0  0  0  0  0  0  0  0
  -23.4280  -30.4940   21.4830 C   0  0  0  0  0  3  0  0  0  0  0  0
  -24.8410  -28.9990   19.9700 C   0  0  0  0  0  0  0  0  0  0  0  0
  -25.9690  -30.7950   21.2790 C   0  0  0  0  0  2  0  0  0  0  0  0
  -26.0250  -29.4470   20.5710 C   0  0  0  0  0  0  0  0  0  0  0  0
  -27.2020  -28.6430   20.5130 C   0  0  0  0  0  3  0  0  0  0  0  0
  -25.9840  -26.9800   19.2380 C   0  0  0  0  0  3  0  0  0  0  0  0
  -24.8230  -27.7710   19.2960 C   0  0  0  0  0  3  0  0  0  0  0  0
  -23.6170  -29.8840   20.0710 C   0  0  0  0  0  2  0  0  0  0  0  0
  -24.7090  -31.0450   22.0350 N   0  0  0  0  0  0  0  0  0  0  0  0
  -23.5980  -32.0660   23.7310 O   0  0  0  0  0  0  0  0  0  0  0  0
  -22.7670  -29.4390   22.4030 C   0  0  0  0  0  0  0  0  0  0  0  0
  -21.4370  -29.2880   22.2910 N   0  0  0  0  0  0  0  0  0  0  0  0
  -23.4500  -28.7630   23.1770 O   0  0  0  0  0  0  0  0  0  0  0  0
  -20.9460  -29.8860   21.6410 H   0  0  0  0  0  0  0  0  0  0  0  0
  -18.0450  -28.1480   22.8170 C   0  0  0  0  0  0  0  0  0  0  0  0
  -20.6160  -28.3280   23.0300 C   0  0  0  0  0  3  0  0  0  0  0  0
  -20.6640  -26.9300   22.3690 C   0  0  0  0  0  2  0  0  0  0  0  0
  -19.5260  -26.6940   21.3700 C   0  0  0  0  0  2  0  0  0  0  0  0
  -18.1670  -26.8370   22.0610 C   0  0  0  0  0  2  0  0  0  0  0  0
  -19.1950  -28.8560   23.2580 C   0  0  0  0  0  0  0  0  0  0  0  0
  -19.0250  -30.0880   23.9270 C   0  0  0  0  0  3  0  0  0  0  0  0
  -17.7390  -30.6110   24.1590 C   0  0  0  0  0  3  0  0  0  0  0  0
  -16.6040  -29.8990   23.7320 C   0  0  0  0  0  3  0  0  0  0  0  0
  -16.7580  -28.6700   23.0680 C   0  0  0  0  0  3  0  0  0  0  0  0
  -25.9690  -32.3900   23.8020 C   0  0  0  0  0  3  0  0  0  0  0  0
  -26.4820  -31.5600   25.0420 C   0  0  1  0  0  0  0  0  0  0  0  0
  -25.3960  -31.3020   26.1120 C   0  0  0  0  0  1  0  0  0  0  0  0
  -27.0380  -30.1900   24.5940 C   0  0  0  0  0  1  0  0  0  0  0  0
  -27.6520  -32.3110   25.7230 C   0  0  0  0  0  1  0  0  0  0  0  0
  -25.6830  -33.7790   24.1890 N   0  0  0  0  0  0  0  0  0  0  0  0
  -25.9950  -34.8530   23.4520 C   0  0  0  0  0  0  0  0  0  0  0  0
  -26.6230  -34.7770   22.3920 O   0  0  0  0  0  0  0  0  0  0  0  0
  -25.1190  -33.9120   25.0150 H   0  0  0  0  0  0  0  0  0  0  0  0
  -24.2570  -36.6600   23.2380 C   0  0  0  0  0  1  0  0  0  0  0  0
  -25.5380  -36.2290   23.9710 C   0  0  0  0  0  3  0  0  0  0  0  0
  -27.7130  -37.0900   24.7190 C   0  0  0  0  0  1  0  0  0  0  0  0
  -26.5670  -37.2830   23.8340 N   0  0  0  0  0  0  0  0  0  0  0  0
  -26.1720  -38.2000   24.0220 H   0  0  0  0  0  0  0  0  0  0  0  0
  1  4  1  0
  2  1  2  0
  2  5  1  0
  4 16  1  0
  4  3  2  0
  5  6  2  0
  6  3  1  0
  6  7  1  0
  8 16  1  0
  9 14  1  0
 10 11  1  0
 10  9  1  0
 12 11  1  0
 12 21  1  0
 12 13  1  0
 14  8  1  0
 14 13  1  0
 15  8  2  0
 16 17  1  0
 18 19  2  0
 19 38  1  0
 20 19  1  0
 20 23  1  0
 21 22  1  0
 21 18  1  0
 22 20  2  0
 23 24  1  0
 24 25  2  0
 26 29  1  0
 26 25  1  0
 27 26  2  0
 28 27  1  0
 28 23  2  0
 29 30  1  0
 30 31  1  0
 31 32  2  0
 33 32  1  0
 33 37  1  0
 34 33  2  0
 35 30  2  0
 35 34  1  0
 36 35  1  0
 38 39  1  0
 39 42  1  0
 39 41  1  0
 40 38  2  0
 43 44  1  0
 43 18  1  0
 45 43  1  0
 46  5  1  0
 46 47  1  0
 48 49  1  0
 48 47  2  0
 50 52  1  0
 50 49  1  0
 51 62  2  0
 52 57  1  0
 53 61  1  0
 53 63  1  0
 54 60  1  0
 54 56  1  0
 55 61  1  0
 56 55  1  0
 57 56  2  0
 58 59  1  0
 58 52  2  0
 59 54  2  0
 60 53  1  0
 61 51  1  0
 63 65  2  0
 64 63  1  0
 66 64  1  0
 67 76  2  0
 67 72  1  0
 68 64  1  0
 68 72  1  0
 69 68  1  0
 70 71  1  0
 70 69  1  0
 71 67  1  0
 72 73  2  0
 73 74  1  0
 75 74  2  0
 76 75  1  0
 77 51  1  0
 77 82  1  0
 77 78  1  0
 78 81  1  1
 78 79  1  0
 80 78  1  0
 82 85  1  0
 83 87  1  0
 83 82  1  0
 84 83  2  0
 87 86  1  0
 89 87  1  0
 89 90  1  0
 89 88  1  0
M  ISO  4   8 100  16 100  49 101  50 101
M  END
>  <TORSDO>  (35) 
F 20

>  <SCORE>  (35) 
-13.622

>  <name>  (35) 
34

>  <ligand_id>  (35) 
34

>  <original_smiles>  (35) 
[H]c1c([H])c([H])c2c(c1[H])C([H])([H])C([H])([H])C([H])([H])C2([H])N([H])C(=O)C1([H])N(C(=O)C([H])(N([H])C(=O)C([H])(N([H])C([H])([H])[H])C([H])([H])[H])C(C([H])([H])[H])(C([H])([H])[H])C([H])([H])[H])C([H])([H])c2c([H])c(OC([H])([H])C([H])([H])C([H])([H])Oc3c([H])c([H])c(N([H])C(=O)N4C([H])([H])C([H])([H])C([H])([H])C([H])(n5nc(-c6c([H])c([H])c(Oc7c([H])c([H])c(F)c([H])c7F)c([H])c6[H])c(C(=O)N([H])[H])c5N([H])[H])C4([H])[H])c([H])c3F)c([H])c([H])c2C1([H])[H]

>  <smiles>  (35) 
[H]c1c([H])c([H])c2c(c1[H])C([H])([H])C([H])([H])C([H])([H])C2([H])N([H])C(=O)C1([H])N(C(=O)C([H])(N([H])C(=O)C([H])(N([H])C([H])([H])[H])C([H])([H])[H])C(C([H])([H])[H])(C([H])([H])[H])C([H])([H])[H])C([H])([H])c2c([H])c(OC([H])([H])C([H])([H])C([H])([H])Oc3c([H])c([H])c(N([H])C(=O)N4C([H])([H])C([H])([H])C([H])([H])C([H])(n5nc(-c6c([H])c([H])c(Oc7c([H])c([H])c(F)c([H])c7F)c([H])c6[H])c(C(=O)N([H])[H])c5N([H])[H])C4([H])[H])c([H])c3F)c([H])c([H])c2C1([H])[H]

$$$$
35:0:0
     RDKit          3D

 91 99  0  0  1  0  0  0  0  0999 V2000
  -30.2940  -22.4140   19.1950 C   0  0  0  0  0  1  0  0  0  0  0  0
  -29.0270  -22.3860   19.9650 N   0  0  1  0  0  4  0  0  0  0  0  0
  -28.3230  -22.2440   19.2540 H   0  0  0  0  0  0  0  0  0  0  0  0
  -28.8510  -21.1230   20.8400 C   0  0  0  0  0  2  0  0  0  0  0  0
  -32.0500  -18.9460   21.2790 C   0  0  0  0  0  3  0  0  0  0  0  0
  -31.1640  -20.0310   21.1460 C   0  0  0  0  0  3  0  0  0  0  0  0
  -31.6200  -17.6180   21.0920 C   0  0  0  0  0  3  0  0  0  0  0  0
  -29.3900  -18.4550   20.6080 C   0  0  0  0  0  3  0  0  0  0  0  0
  -29.8100  -19.8410   20.7940 C   0  0  0  0  0  0  0  0  0  0  0  0
  -30.2810  -17.3080   20.7530 C   0  0  0  0  0  0  0  0  0  0  0  0
  -30.6040  -14.7360   20.3800 C   0  0  0  0  0  0  0  0  0  0  0  0
  -30.3540  -12.4780   19.3390 C   0  0  0  0  0  2  0  0  0  0  0  0
  -29.4030  -12.5740   18.1260 C   0  0  0  0  0  2  0  0  0  0  0  0
  -27.9380  -12.4070   18.5720 C   0  0  0  0  0  2  0  0  0  0  0  0
  -27.5850  -13.2810   19.8060 C   0  0  0  0  0  3  0  0  0  0  0  0
  -28.6580  -13.1830   20.9120 C   0  0  0  0  0  2  0  0  0  0  0  0
  -29.9480  -13.5280   20.3010 N   0  0  0  0  0  0  0  0  0  0  0  0
  -31.7800  -14.8040   20.0110 O   0  0  0  0  0  0  0  0  0  0  0  0
  -29.8650  -15.8830   20.6460 N   0  0  0  0  0  0  0  0  0  0  0  0
  -28.8800  -15.7130   20.7790 H   0  0  0  0  0  0  0  0  0  0  0  0
  -25.2050  -13.8640   20.5650 C   0  0  0  0  0  0  0  0  0  0  0  0
  -24.1440  -13.0860   20.9440 C   0  0  0  0  0  0  0  0  0  0  0  0
  -24.6090  -11.7350   20.9000 C   0  0  0  0  0  0  0  0  0  0  0  0
  -26.2470  -12.9870   20.3120 N   0  0  0  0  0  0  0  0  0  0  0  0
  -25.8960  -11.7020   20.5740 N   0  0  0  0  0  0  0  0  0  0  0  0
  -23.8850  -10.4710   21.0910 C   0  0  0  0  0  0  0  0  0  0  0  0
  -24.3410   -9.4880   21.9970 C   0  0  0  0  0  3  0  0  0  0  0  0
  -23.6170   -8.2900   22.1770 C   0  0  0  0  0  3  0  0  0  0  0  0
  -22.4230   -8.0660   21.4520 C   0  0  0  0  0  0  0  0  0  0  0  0
  -21.9860   -9.0380   20.5340 C   0  0  0  0  0  3  0  0  0  0  0  0
  -22.7110  -10.2260   20.3520 C   0  0  0  0  0  3  0  0  0  0  0  0
  -21.6680   -6.9210   21.5430 O   0  0  0  0  0  0  0  0  0  0  0  0
  -21.6650   -6.1490   22.6770 C   0  0  0  0  0  0  0  0  0  0  0  0
  -21.3090   -6.6760   23.9370 C   0  0  0  0  0  3  0  0  0  0  0  0
  -21.2530   -5.8310   25.0640 C   0  0  0  0  0  3  0  0  0  0  0  0
  -21.5430   -4.4610   24.9310 C   0  0  0  0  0  0  0  0  0  0  0  0
  -21.8940   -3.9330   23.6760 C   0  0  0  0  0  3  0  0  0  0  0  0
  -21.9520   -4.7750   22.5520 C   0  0  0  0  0  0  0  0  0  0  0  0
  -22.2690   -4.2570   21.3410 F   0  0  0  0  0  0  0  0  0  0  0  0
  -21.4830   -3.6470   26.0120 F   0  0  0  0  0  0  0  0  0  0  0  0
  -22.7500  -13.5600   21.2340 C   0  0  0  0  0  0  0  0  0  0  0  0
  -22.0330  -12.8580   22.1050 N   0  0  0  0  0  0  0  0  0  0  0  0
  -22.3060  -14.5880   20.7250 O   0  0  0  0  0  0  0  0  0  0  0  0
  -22.4050  -12.0270   22.5400 H   0  0  0  0  0  0  0  0  0  0  0  0
  -21.0970  -13.1580   22.3420 H   0  0  0  0  0  0  0  0  0  0  0  0
  -25.3640  -15.2350   20.3920 N   0  0  0  0  0  0  0  0  0  0  0  0
  -24.5930  -15.8840   20.5110 H   0  0  0  0  0  0  0  0  0  0  0  0
  -26.1950  -15.6750   20.0200 H   0  0  0  0  0  0  0  0  0  0  0  0
  -28.6800  -23.7590   20.6030 C   0  0  0  0  0  3  0  0  0  0  0  0
  -28.4590  -25.0620   19.6590 C   0  0  0  0  0  3  0  0  0  0  0  0
  -28.3610  -26.4530   20.2200 O   0  0  0  0  0  0  0  0  0  0  0  0
  -24.6210  -31.8700   23.2340 C   0  0  0  0  0  0  0  0  0  0  0  0
  -27.2200  -27.2850   20.1520 C   0  0  0  0  0  0  0  0  0  0  0  0
  -23.4090  -30.4730   21.6000 C   0  0  0  0  0  3  0  0  0  0  0  0
  -24.8510  -28.9200   20.1620 C   0  0  0  0  0  0  0  0  0  0  0  0
  -25.9480  -30.7840   21.4030 C   0  0  0  0  0  2  0  0  0  0  0  0
  -26.0250  -29.4030   20.7520 C   0  0  0  0  0  0  0  0  0  0  0  0
  -27.2060  -28.5970   20.7380 C   0  0  0  0  0  3  0  0  0  0  0  0
  -26.0150  -26.8620   19.5430 C   0  0  0  0  0  3  0  0  0  0  0  0
  -24.8510  -27.6570   19.5510 C   0  0  0  0  0  3  0  0  0  0  0  0
  -23.6160  -29.7970   20.2190 C   0  0  0  0  0  2  0  0  0  0  0  0
  -24.6790  -31.0600   22.1360 N   0  0  0  0  0  0  0  0  0  0  0  0
  -23.5400  -32.1470   23.7750 O   0  0  0  0  0  0  0  0  0  0  0  0
  -22.7520  -29.4550   22.5640 C   0  0  0  0  0  0  0  0  0  0  0  0
  -21.4250  -29.2750   22.4440 N   0  0  0  0  0  0  0  0  0  0  0  0
  -23.4350  -28.8300   23.3780 O   0  0  0  0  0  0  0  0  0  0  0  0
  -20.9320  -29.8320   21.7610 H   0  0  0  0  0  0  0  0  0  0  0  0
  -18.0540  -28.0650   22.9500 C   0  0  0  0  0  0  0  0  0  0  0  0
  -20.6120  -28.3370   23.2190 C   0  0  0  0  0  3  0  0  0  0  0  0
  -20.7190  -26.9040   22.6490 C   0  0  0  0  0  2  0  0  0  0  0  0
  -19.6180  -26.5730   21.6350 C   0  0  0  0  0  2  0  0  0  0  0  0
  -18.2360  -26.7140   22.2800 C   0  0  0  0  0  2  0  0  0  0  0  0
  -19.1690  -28.8330   23.3780 C   0  0  0  0  0  0  0  0  0  0  0  0
  -18.9450  -30.0960   23.9660 C   0  0  0  0  0  3  0  0  0  0  0  0
  -17.6380  -30.5920   24.1330 C   0  0  0  0  0  3  0  0  0  0  0  0
  -16.5370  -29.8200   23.7240 C   0  0  0  0  0  3  0  0  0  0  0  0
  -16.7450  -28.5590   23.1370 C   0  0  0  0  0  3  0  0  0  0  0  0
  -25.9060  -32.5040   23.8490 C   0  0  0  0  0  3  0  0  0  0  0  0
  -26.4330  -31.7290   25.1190 C   0  0  1  0  0  0  0  0  0  0  0  0
  -25.3500  -31.4840   26.1940 C   0  0  0  0  0  1  0  0  0  0  0  0
  -27.0150  -30.3540   24.7170 C   0  0  0  0  0  1  0  0  0  0  0  0
  -27.5890  -32.5220   25.7740 C   0  0  0  0  0  1  0  0  0  0  0  0
  -25.5940  -33.9000   24.1900 N   0  0  0  0  0  0  0  0  0  0  0  0
  -25.9150  -34.9590   23.4350 C   0  0  0  0  0  0  0  0  0  0  0  0
  -26.5740  -34.8640   22.3960 O   0  0  0  0  0  0  0  0  0  0  0  0
  -25.0080  -34.0460   24.9980 H   0  0  0  0  0  0  0  0  0  0  0  0
  -24.1750  -36.7470   23.1150 C   0  0  0  0  0  1  0  0  0  0  0  0
  -25.4290  -36.3430   23.9060 C   0  0  0  0  0  3  0  0  0  0  0  0
  -27.5730  -37.2320   24.7100 C   0  0  0  0  0  1  0  0  0  0  0  0
  -26.4560  -37.4020   23.7840 N   0  0  0  0  0  0  0  0  0  0  0  0
  -26.0490  -38.3190   23.9430 H   0  0  0  0  0  0  0  0  0  0  0  0
  1  2  1  0
  2 49  1  0
  2  4  1  0
  2  3  1  6
  6  5  1  0
  7  5  2  0
  8 10  2  0
  8  9  1  0
  9  4  1  0
  9  6  2  0
 10  7  1  0
 11 19  1  0
 12 17  1  0
 13 14  1  0
 13 12  1  0
 15 14  1  0
 15 24  1  0
 15 16  1  0
 17 11  1  0
 17 16  1  0
 18 11  2  0
 19 10  1  0
 19 20  1  0
 21 22  2  0
 22 41  1  0
 23 22  1  0
 23 26  1  0
 24 21  1  0
 24 25  1  0
 25 23  2  0
 26 27  1  0
 27 28  2  0
 29 32  1  0
 29 28  1  0
 30 29  2  0
 31 30  1  0
 31 26  2  0
 32 33  1  0
 33 34  1  0
 34 35  2  0
 36 35  1  0
 36 40  1  0
 37 36  2  0
 38 33  2  0
 38 37  1  0
 39 38  1  0
 41 42  1  0
 42 45  1  0
 42 44  1  0
 43 41  2  0
 46 47  1  0
 46 21  1  0
 48 46  1  0
 50 51  1  0
 50 49  2  0
 52 63  2  0
 53 51  1  0
 53 58  1  0
 54 62  1  0
 54 64  1  0
 55 61  1  0
 55 57  1  0
 56 62  1  0
 57 56  1  0
 58 57  2  0
 59 60  1  0
 59 53  2  0
 60 55  2  0
 61 54  1  0
 62 52  1  0
 64 66  2  0
 65 64  1  0
 67 65  1  0
 68 77  2  0
 68 73  1  0
 69 65  1  0
 69 73  1  0
 70 69  1  0
 71 72  1  0
 71 70  1  0
 72 68  1  0
 73 74  2  0
 74 75  1  0
 76 75  2  0
 77 76  1  0
 78 52  1  0
 78 83  1  0
 78 79  1  0
 79 82  1  1
 79 80  1  0
 81 79  1  0
 83 86  1  0
 84 88  1  0
 84 83  1  0
 85 84  2  0
 88 87  1  0
 90 88  1  0
 90 91  1  0
 90 89  1  0
M  ISO  4  11 100  19 100  50 101  51 101
M  END
>  <TORSDO>  (36) 
F 20

>  <SCORE>  (36) 
-13.994

>  <name>  (36) 
35

>  <ligand_id>  (36) 
35

>  <original_smiles>  (36) 
[H]c1c([H])c([H])c2c(c1[H])C([H])([H])C([H])([H])C([H])([H])C2([H])N([H])C(=O)C1([H])N(C(=O)C([H])(N([H])C(=O)C([H])(N([H])C([H])([H])[H])C([H])([H])[H])C(C([H])([H])[H])(C([H])([H])[H])C([H])([H])[H])C([H])([H])c2c([H])c(OC([H])([H])C([H])([H])[N+]([H])(C([H])([H])[H])C([H])([H])c3c([H])c([H])c([H])c(N([H])C(=O)N4C([H])([H])C([H])([H])C([H])([H])C([H])(n5nc(-c6c([H])c([H])c(Oc7c([H])c([H])c(F)c([H])c7F)c([H])c6[H])c(C(=O)N([H])[H])c5N([H])[H])C4([H])[H])c3[H])c([H])c([H])c2C1([H])[H]

>  <smiles>  (36) 
[H]c1c([H])c([H])c2c(c1[H])C([H])([H])C([H])([H])C([H])([H])C2([H])N([H])C(=O)C1([H])N(C(=O)C([H])(N([H])C(=O)C([H])(N([H])C([H])([H])[H])C([H])([H])[H])C(C([H])([H])[H])(C([H])([H])[H])C([H])([H])[H])C([H])([H])c2c([H])c(OC([H])([H])C([H])([H])[N+]([H])(C([H])([H])[H])C([H])([H])c3c([H])c([H])c([H])c(N([H])C(=O)N4C([H])([H])C([H])([H])C([H])([H])C([H])(n5nc(-c6c([H])c([H])c(Oc7c([H])c([H])c(F)c([H])c7F)c([H])c6[H])c(C(=O)N([H])[H])c5N([H])[H])C4([H])[H])c3[H])c([H])c([H])c2C1([H])[H]

$$$$
36:0:0
     RDKit          3D

 90 98  0  0  1  0  0  0  0  0999 V2000
  -31.0930  -17.9190   20.5650 C   0  0  0  0  0  3  0  0  0  0  0  0
  -31.0950  -19.3450   20.5020 C   0  0  0  0  0  3  0  0  0  0  0  0
  -28.7000  -19.3790   20.3330 C   0  0  0  0  0  3  0  0  0  0  0  0
  -29.8810  -17.1820   20.5250 C   0  0  0  0  0  0  0  0  0  0  0  0
  -29.9090  -20.1220   20.3880 C   0  0  0  0  0  0  0  0  0  0  0  0
  -28.6910  -17.9520   20.4070 C   0  0  0  0  0  0  0  0  0  0  0  0
  -27.5060  -17.2970   20.3610 F   0  0  0  0  0  0  0  0  0  0  0  0
  -30.5680  -14.6790   20.3110 C   0  0  0  0  0  0  0  0  0  0  0  0
  -30.3460  -12.4480   19.2340 C   0  0  0  0  0  2  0  0  0  0  0  0
  -29.3930  -12.5890   18.0260 C   0  0  0  0  0  2  0  0  0  0  0  0
  -27.9220  -12.4340   18.4630 C   0  0  0  0  0  2  0  0  0  0  0  0
  -27.5740  -13.2900   19.7100 C   0  0  0  0  0  3  0  0  0  0  0  0
  -28.6390  -13.1200   20.8180 C   0  0  0  0  0  2  0  0  0  0  0  0
  -29.9480  -13.4590   20.2340 N   0  0  0  0  0  0  0  0  0  0  0  0
  -31.7320  -14.8330   19.9340 O   0  0  0  0  0  0  0  0  0  0  0  0
  -29.7540  -15.7290   20.6430 N   0  0  0  0  0  0  0  0  0  0  0  0
  -28.8180  -15.4350   20.8750 H   0  0  0  0  0  0  0  0  0  0  0  0
  -25.1820  -13.8950   20.4320 C   0  0  0  0  0  0  0  0  0  0  0  0
  -24.1150  -13.1250   20.8040 C   0  0  0  0  0  0  0  0  0  0  0  0
  -24.5760  -11.7720   20.7780 C   0  0  0  0  0  0  0  0  0  0  0  0
  -26.2260  -13.0130   20.2010 N   0  0  0  0  0  0  0  0  0  0  0  0
  -25.8660  -11.7310   20.4680 N   0  0  0  0  0  0  0  0  0  0  0  0
  -23.8480  -10.5130   20.9740 C   0  0  0  0  0  0  0  0  0  0  0  0
  -24.2760   -9.5510   21.9150 C   0  0  0  0  0  3  0  0  0  0  0  0
  -23.5480   -8.3540   22.0980 C   0  0  0  0  0  3  0  0  0  0  0  0
  -22.3770   -8.1130   21.3420 C   0  0  0  0  0  0  0  0  0  0  0  0
  -21.9680   -9.0640   20.3910 C   0  0  0  0  0  3  0  0  0  0  0  0
  -22.6970  -10.2510   20.2050 C   0  0  0  0  0  3  0  0  0  0  0  0
  -21.6220   -6.9700   21.4330 O   0  0  0  0  0  0  0  0  0  0  0  0
  -21.5600   -6.2390   22.5930 C   0  0  0  0  0  0  0  0  0  0  0  0
  -21.1070   -6.8040   23.8060 C   0  0  0  0  0  3  0  0  0  0  0  0
  -20.9940   -6.0000   24.9580 C   0  0  0  0  0  3  0  0  0  0  0  0
  -21.3220   -4.6320   24.8980 C   0  0  0  0  0  0  0  0  0  0  0  0
  -21.7670   -4.0660   23.6900 C   0  0  0  0  0  3  0  0  0  0  0  0
  -21.8820   -4.8680   22.5400 C   0  0  0  0  0  0  0  0  0  0  0  0
  -22.2920   -4.3140   21.3730 F   0  0  0  0  0  0  0  0  0  0  0  0
  -21.2050   -3.8570   26.0010 F   0  0  0  0  0  0  0  0  0  0  0  0
  -22.7190  -13.6050   21.0780 C   0  0  0  0  0  0  0  0  0  0  0  0
  -21.9920  -12.9140   21.9490 N   0  0  0  0  0  0  0  0  0  0  0  0
  -22.2810  -14.6300   20.5560 O   0  0  0  0  0  0  0  0  0  0  0  0
  -22.3580  -12.0850   22.3930 H   0  0  0  0  0  0  0  0  0  0  0  0
  -21.0560  -13.2180   22.1750 H   0  0  0  0  0  0  0  0  0  0  0  0
  -25.3430  -15.2660   20.2560 N   0  0  0  0  0  0  0  0  0  0  0  0
  -24.5770  -15.9130   20.3970 H   0  0  0  0  0  0  0  0  0  0  0  0
  -26.2090  -15.7380   20.0180 H   0  0  0  0  0  0  0  0  0  0  0  0
  -30.0250  -21.5300   20.3580 O   0  0  0  0  0  0  0  0  0  0  0  0
  -28.8960  -22.4420   20.1650 C   0  0  0  0  0  2  0  0  0  0  0  0
  -29.2560  -23.9960   20.2800 C   0  0  0  0  0  3  0  0  0  0  0  0
  -28.1150  -25.0540   19.9510 C   0  0  0  0  0  3  0  0  0  0  0  0
  -28.3390  -26.5060   20.1590 O   0  0  0  0  0  0  0  0  0  0  0  0
  -24.6140  -31.8650   23.2520 C   0  0  0  0  0  0  0  0  0  0  0  0
  -27.2190  -27.3560   20.1210 C   0  0  0  0  0  0  0  0  0  0  0  0
  -23.4060  -30.4950   21.5920 C   0  0  0  0  0  3  0  0  0  0  0  0
  -24.8530  -28.9680   20.1410 C   0  0  0  0  0  0  0  0  0  0  0  0
  -25.9460  -30.8150   21.4110 C   0  0  0  0  0  2  0  0  0  0  0  0
  -26.0230  -29.4470   20.7430 C   0  0  0  0  0  0  0  0  0  0  0  0
  -27.2090  -28.6530   20.7210 C   0  0  0  0  0  3  0  0  0  0  0  0
  -26.0200  -26.9330   19.4980 C   0  0  0  0  0  3  0  0  0  0  0  0
  -24.8540  -27.7170   19.5100 C   0  0  0  0  0  3  0  0  0  0  0  0
  -23.6170  -29.8420   20.2020 C   0  0  0  0  0  2  0  0  0  0  0  0
  -24.6750  -31.0740   22.1420 N   0  0  0  0  0  0  0  0  0  0  0  0
  -23.5310  -32.1370   23.7920 O   0  0  0  0  0  0  0  0  0  0  0  0
  -22.7430  -29.4640   22.5360 C   0  0  0  0  0  0  0  0  0  0  0  0
  -21.4170  -29.2900   22.4050 N   0  0  0  0  0  0  0  0  0  0  0  0
  -23.4200  -28.8240   23.3450 O   0  0  0  0  0  0  0  0  0  0  0  0
  -20.9300  -29.8560   21.7250 H   0  0  0  0  0  0  0  0  0  0  0  0
  -18.0360  -28.0990   22.8910 C   0  0  0  0  0  0  0  0  0  0  0  0
  -20.5950  -28.3430   23.1610 C   0  0  0  0  0  3  0  0  0  0  0  0
  -20.6890  -26.9200   22.5620 C   0  0  0  0  0  2  0  0  0  0  0  0
  -19.5850  -26.6200   21.5440 C   0  0  0  0  0  2  0  0  0  0  0  0
  -18.2040  -26.7600   22.1930 C   0  0  0  0  0  2  0  0  0  0  0  0
  -19.1580  -28.8490   23.3310 C   0  0  0  0  0  0  0  0  0  0  0  0
  -18.9450  -30.1030   23.9450 C   0  0  0  0  0  3  0  0  0  0  0  0
  -17.6430  -30.6080   24.1200 C   0  0  0  0  0  3  0  0  0  0  0  0
  -16.5350  -29.8550   23.6960 C   0  0  0  0  0  3  0  0  0  0  0  0
  -16.7310  -28.6020   23.0870 C   0  0  0  0  0  3  0  0  0  0  0  0
  -25.8970  -32.4860   23.8840 C   0  0  0  0  0  3  0  0  0  0  0  0
  -26.4020  -31.7040   25.1580 C   0  0  1  0  0  0  0  0  0  0  0  0
  -25.3030  -31.4670   26.2190 C   0  0  0  0  0  1  0  0  0  0  0  0
  -26.9780  -30.3240   24.7620 C   0  0  0  0  0  1  0  0  0  0  0  0
  -27.5540  -32.4870   25.8300 C   0  0  0  0  0  1  0  0  0  0  0  0
  -25.5960  -33.8840   24.2200 N   0  0  0  0  0  0  0  0  0  0  0  0
  -25.9130  -34.9370   23.4560 C   0  0  0  0  0  0  0  0  0  0  0  0
  -26.5620  -34.8340   22.4100 O   0  0  0  0  0  0  0  0  0  0  0  0
  -25.0160  -34.0380   25.0330 H   0  0  0  0  0  0  0  0  0  0  0  0
  -24.1680  -36.7240   23.1540 C   0  0  0  0  0  1  0  0  0  0  0  0
  -25.4370  -36.3260   23.9240 C   0  0  0  0  0  3  0  0  0  0  0  0
  -27.5930  -37.2240   24.6820 C   0  0  0  0  0  1  0  0  0  0  0  0
  -26.4620  -37.3820   23.7720 N   0  0  0  0  0  0  0  0  0  0  0  0
  -26.0580  -38.3010   23.9250 H   0  0  0  0  0  0  0  0  0  0  0  0
  2  1  2  0
  3  5  2  0
  3  6  1  0
  4  1  1  0
  4 16  1  0
  5  2  1  0
  6  4  2  0
  7  6  1  0
  8 16  1  0
  9 14  1  0
 10 11  1  0
 10  9  1  0
 12 11  1  0
 12 21  1  0
 12 13  1  0
 14  8  1  0
 14 13  1  0
 15  8  2  0
 16 17  1  0
 18 19  2  0
 19 38  1  0
 20 19  1  0
 20 23  1  0
 21 18  1  0
 21 22  1  0
 22 20  2  0
 23 24  1  0
 24 25  2  0
 26 29  1  0
 26 25  1  0
 27 26  2  0
 28 27  1  0
 28 23  2  0
 29 30  1  0
 30 31  1  0
 31 32  2  0
 33 32  1  0
 33 37  1  0
 34 33  2  0
 35 30  2  0
 35 34  1  0
 36 35  1  0
 38 39  1  0
 39 42  1  0
 39 41  1  0
 40 38  2  0
 43 44  1  0
 43 18  1  0
 45 43  1  0
 46  5  1  0
 47 48  1  0
 47 46  1  0
 49 50  1  0
 49 48  2  0
 51 62  2  0
 52 50  1  0
 52 57  1  0
 53 61  1  0
 53 63  1  0
 54 60  1  0
 54 56  1  0
 55 61  1  0
 56 55  1  0
 57 56  2  0
 58 59  1  0
 58 52  2  0
 59 54  2  0
 60 53  1  0
 61 51  1  0
 63 65  2  0
 64 63  1  0
 66 64  1  0
 67 76  2  0
 67 72  1  0
 68 64  1  0
 68 72  1  0
 69 68  1  0
 70 71  1  0
 70 69  1  0
 71 67  1  0
 72 73  2  0
 73 74  1  0
 75 74  2  0
 76 75  1  0
 77 51  1  0
 77 82  1  0
 77 78  1  0
 78 81  1  1
 78 79  1  0
 80 78  1  0
 82 85  1  0
 83 87  1  0
 83 82  1  0
 84 83  2  0
 87 86  1  0
 89 87  1  0
 89 90  1  0
 89 88  1  0
M  ISO  4   8 100  16 100  49 101  50 101
M  END
>  <TORSDO>  (37) 
F 20

>  <SCORE>  (37) 
-14.070

>  <name>  (37) 
36

>  <ligand_id>  (37) 
36

>  <original_smiles>  (37) 
[H]c1c([H])c([H])c2c(c1[H])C([H])([H])C([H])([H])C([H])([H])C2([H])N([H])C(=O)C1([H])N(C(=O)C([H])(N([H])C(=O)C([H])(N([H])C([H])([H])[H])C([H])([H])[H])C(C([H])([H])[H])(C([H])([H])[H])C([H])([H])[H])C([H])([H])c2c([H])c(OC([H])([H])C([H])([H])C([H])([H])Oc3c([H])c([H])c(N([H])C(=O)N4C([H])([H])C([H])([H])C([H])([H])C([H])(n5nc(-c6c([H])c([H])c(Oc7c([H])c([H])c(F)c([H])c7F)c([H])c6[H])c(C(=O)N([H])[H])c5N([H])[H])C4([H])[H])c(F)c3[H])c([H])c([H])c2C1([H])[H]

>  <smiles>  (37) 
[H]c1c([H])c([H])c2c(c1[H])C([H])([H])C([H])([H])C([H])([H])C2([H])N([H])C(=O)C1([H])N(C(=O)C([H])(N([H])C(=O)C([H])(N([H])C([H])([H])[H])C([H])([H])[H])C(C([H])([H])[H])(C([H])([H])[H])C([H])([H])[H])C([H])([H])c2c([H])c(OC([H])([H])C([H])([H])C([H])([H])Oc3c([H])c([H])c(N([H])C(=O)N4C([H])([H])C([H])([H])C([H])([H])C([H])(n5nc(-c6c([H])c([H])c(Oc7c([H])c([H])c(F)c([H])c7F)c([H])c6[H])c(C(=O)N([H])[H])c5N([H])[H])C4([H])[H])c(F)c3[H])c([H])c([H])c2C1([H])[H]

$$$$
37:0:0
     RDKit          3D

 90 98  0  0  1  0  0  0  0  0999 V2000
  -30.4780  -19.3910   20.9180 C   0  0  0  0  0  3  0  0  0  0  0  0
  -30.3790  -20.8110   20.9930 C   0  0  0  0  0  3  0  0  0  0  0  0
  -28.4530  -20.7790   19.5610 C   0  0  0  0  0  3  0  0  0  0  0  0
  -29.5940  -18.6130   20.1250 C   0  0  0  0  0  0  0  0  0  0  0  0
  -29.3710  -21.5540   20.3190 C   0  0  0  0  0  0  0  0  0  0  0  0
  -28.5730  -19.3580   19.4550 C   0  0  0  0  0  0  0  0  0  0  0  0
  -27.7060  -18.7010   18.6510 F   0  0  0  0  0  0  0  0  0  0  0  0
  -29.8200  -17.0730   19.8090 C   0  0  0  0  0  2  0  0  0  0  0  0
  -30.5890  -14.6650   20.3610 C   0  0  0  0  0  0  0  0  0  0  0  0
  -30.3600  -12.4160   19.3500 C   0  0  0  0  0  2  0  0  0  0  0  0
  -29.4230  -12.5630   18.1300 C   0  0  0  0  0  2  0  0  0  0  0  0
  -27.9500  -12.4140   18.5610 C   0  0  0  0  0  2  0  0  0  0  0  0
  -27.5970  -13.2720   19.8060 C   0  0  0  0  0  3  0  0  0  0  0  0
  -28.6590  -13.1250   20.9230 C   0  0  0  0  0  2  0  0  0  0  0  0
  -29.9660  -13.4440   20.3350 N   0  0  0  0  0  0  0  0  0  0  0  0
  -31.7480  -14.7940   19.9650 O   0  0  0  0  0  0  0  0  0  0  0  0
  -29.7890  -15.7650   20.5760 N   0  0  0  0  0  0  0  0  0  0  0  0
  -28.8940  -15.5450   20.9810 H   0  0  0  0  0  0  0  0  0  0  0  0
  -25.2050  -13.8700   20.5260 C   0  0  0  0  0  0  0  0  0  0  0  0
  -24.1390  -13.0950   20.8980 C   0  0  0  0  0  0  0  0  0  0  0  0
  -24.6020  -11.7450   20.8690 C   0  0  0  0  0  0  0  0  0  0  0  0
  -26.2490  -12.9900   20.2920 N   0  0  0  0  0  0  0  0  0  0  0  0
  -25.8920  -11.7070   20.5590 N   0  0  0  0  0  0  0  0  0  0  0  0
  -23.8770  -10.4800   21.0580 C   0  0  0  0  0  0  0  0  0  0  0  0
  -24.3190   -9.5090   21.9830 C   0  0  0  0  0  3  0  0  0  0  0  0
  -23.5910   -8.3120   22.1620 C   0  0  0  0  0  3  0  0  0  0  0  0
  -22.4110   -8.0790   21.4180 C   0  0  0  0  0  0  0  0  0  0  0  0
  -21.9880   -9.0420   20.4850 C   0  0  0  0  0  3  0  0  0  0  0  0
  -22.7150  -10.2290   20.3030 C   0  0  0  0  0  3  0  0  0  0  0  0
  -21.6540   -6.9360   21.5090 O   0  0  0  0  0  0  0  0  0  0  0  0
  -21.6240   -6.1810   22.6550 C   0  0  0  0  0  0  0  0  0  0  0  0
  -21.2300   -6.7260   23.8970 C   0  0  0  0  0  3  0  0  0  0  0  0
  -21.1470   -5.8980   25.0340 C   0  0  0  0  0  3  0  0  0  0  0  0
  -21.4480   -4.5260   24.9310 C   0  0  0  0  0  0  0  0  0  0  0  0
  -21.8380   -3.9820   23.6950 C   0  0  0  0  0  3  0  0  0  0  0  0
  -21.9220   -4.8070   22.5600 C   0  0  0  0  0  0  0  0  0  0  0  0
  -22.2750   -4.2720   21.3670 F   0  0  0  0  0  0  0  0  0  0  0  0
  -21.3620   -3.7300   26.0220 F   0  0  0  0  0  0  0  0  0  0  0  0
  -22.7410  -13.5730   21.1700 C   0  0  0  0  0  0  0  0  0  0  0  0
  -22.0170  -12.8770   22.0380 N   0  0  0  0  0  0  0  0  0  0  0  0
  -22.3020  -14.5990   20.6500 O   0  0  0  0  0  0  0  0  0  0  0  0
  -22.3830  -12.0480   22.4810 H   0  0  0  0  0  0  0  0  0  0  0  0
  -21.0780  -13.1750   22.2640 H   0  0  0  0  0  0  0  0  0  0  0  0
  -25.3700  -15.2410   20.3500 N   0  0  0  0  0  0  0  0  0  0  0  0
  -24.6010  -15.8940   20.4620 H   0  0  0  0  0  0  0  0  0  0  0  0
  -26.2160  -15.6850   20.0100 H   0  0  0  0  0  0  0  0  0  0  0  0
  -29.4340  -22.9650   20.3790 O   0  0  0  0  0  0  0  0  0  0  0  0
  -28.2820  -23.8690   20.2570 C   0  0  0  0  0  2  0  0  0  0  0  0
  -28.5790  -25.2840   19.5760 C   0  0  0  0  0  2  0  0  0  0  0  0
  -28.4080  -26.5710   20.2780 O   0  0  0  0  0  0  0  0  0  0  0  0
  -24.6020  -31.9050   23.2420 C   0  0  0  0  0  0  0  0  0  0  0  0
  -27.2480  -27.3550   20.2020 C   0  0  0  0  0  0  0  0  0  0  0  0
  -23.4060  -30.4980   21.6000 C   0  0  0  0  0  3  0  0  0  0  0  0
  -24.8640  -28.9380   20.1860 C   0  0  0  0  0  0  0  0  0  0  0  0
  -25.9410  -30.8230   21.4230 C   0  0  0  0  0  2  0  0  0  0  0  0
  -26.0250  -29.4400   20.7850 C   0  0  0  0  0  0  0  0  0  0  0  0
  -27.2130  -28.6570   20.7880 C   0  0  0  0  0  3  0  0  0  0  0  0
  -26.0620  -26.8890   19.5930 C   0  0  0  0  0  3  0  0  0  0  0  0
  -24.8840  -27.6660   19.5850 C   0  0  0  0  0  3  0  0  0  0  0  0
  -23.6230  -29.8080   20.2250 C   0  0  0  0  0  2  0  0  0  0  0  0
  -24.6690  -31.0930   22.1460 N   0  0  0  0  0  0  0  0  0  0  0  0
  -23.5170  -32.1820   23.7720 O   0  0  0  0  0  0  0  0  0  0  0  0
  -22.7410  -29.4860   22.5620 C   0  0  0  0  0  0  0  0  0  0  0  0
  -21.4160  -29.3100   22.4320 N   0  0  0  0  0  0  0  0  0  0  0  0
  -23.4170  -28.8630   23.3850 O   0  0  0  0  0  0  0  0  0  0  0  0
  -20.9280  -29.8650   21.7420 H   0  0  0  0  0  0  0  0  0  0  0  0
  -18.0370  -28.1220   22.9300 C   0  0  0  0  0  0  0  0  0  0  0  0
  -20.5960  -28.3750   23.2050 C   0  0  0  0  0  3  0  0  0  0  0  0
  -20.6960  -26.9420   22.6300 C   0  0  0  0  0  2  0  0  0  0  0  0
  -19.5950  -26.6210   21.6150 C   0  0  0  0  0  2  0  0  0  0  0  0
  -18.2110  -26.7720   22.2560 C   0  0  0  0  0  2  0  0  0  0  0  0
  -19.1580  -28.8810   23.3610 C   0  0  0  0  0  0  0  0  0  0  0  0
  -18.9410  -30.1450   23.9500 C   0  0  0  0  0  3  0  0  0  0  0  0
  -17.6370  -30.6500   24.1100 C   0  0  0  0  0  3  0  0  0  0  0  0
  -16.5310  -29.8880   23.6960 C   0  0  0  0  0  3  0  0  0  0  0  0
  -16.7320  -28.6250   23.1100 C   0  0  0  0  0  3  0  0  0  0  0  0
  -25.8850  -32.5410   23.8650 C   0  0  0  0  0  3  0  0  0  0  0  0
  -26.3970  -31.7730   25.1470 C   0  0  1  0  0  0  0  0  0  0  0  0
  -25.3000  -31.5390   26.2120 C   0  0  0  0  0  1  0  0  0  0  0  0
  -26.9810  -30.3930   24.7610 C   0  0  0  0  0  1  0  0  0  0  0  0
  -27.5450  -32.5710   25.8100 C   0  0  0  0  0  1  0  0  0  0  0  0
  -25.5730  -33.9400   24.1900 N   0  0  0  0  0  0  0  0  0  0  0  0
  -25.9100  -34.9900   23.4310 C   0  0  0  0  0  0  0  0  0  0  0  0
  -26.5850  -34.8840   22.4040 O   0  0  0  0  0  0  0  0  0  0  0  0
  -24.9720  -34.0950   24.9870 H   0  0  0  0  0  0  0  0  0  0  0  0
  -24.1850  -36.7840   23.0640 C   0  0  0  0  0  1  0  0  0  0  0  0
  -25.4210  -36.3800   23.8820 C   0  0  0  0  0  3  0  0  0  0  0  0
  -27.5530  -37.2650   24.7220 C   0  0  0  0  0  1  0  0  0  0  0  0
  -26.4550  -37.4320   23.7730 N   0  0  0  0  0  0  0  0  0  0  0  0
  -26.0490  -38.3530   23.9140 H   0  0  0  0  0  0  0  0  0  0  0  0
  1  2  1  0
  3  5  1  0
  4  1  2  0
  5 47  1  0
  5  2  2  0
  6  3  2  0
  6  4  1  0
  7  6  1  0
  8  4  1  0
  8 17  1  0
  9 17  1  0
 10 15  1  0
 11 12  1  0
 11 10  1  0
 13 12  1  0
 13 22  1  0
 13 14  1  0
 15  9  1  0
 15 14  1  0
 16  9  2  0
 17 18  1  0
 19 20  2  0
 20 39  1  0
 21 20  1  0
 21 24  1  0
 22 19  1  0
 22 23  1  0
 23 21  2  0
 24 25  1  0
 25 26  2  0
 27 30  1  0
 27 26  1  0
 28 27  2  0
 29 28  1  0
 29 24  2  0
 30 31  1  0
 31 32  1  0
 32 33  2  0
 34 33  1  0
 34 38  1  0
 35 34  2  0
 36 31  2  0
 36 35  1  0
 37 36  1  0
 39 40  1  0
 40 43  1  0
 40 42  1  0
 41 39  2  0
 44 45  1  0
 44 19  1  0
 46 44  1  0
 48 47  1  0
 49 48  1  0
 49 50  1  0
 51 62  2  0
 52 50  1  0
 52 57  1  0
 53 61  1  0
 53 63  1  0
 54 60  1  0
 54 56  1  0
 55 61  1  0
 56 57  2  0
 56 55  1  0
 58 52  2  0
 59 58  1  0
 59 54  2  0
 60 53  1  0
 61 51  1  0
 63 65  2  0
 64 63  1  0
 66 64  1  0
 67 76  2  0
 67 72  1  0
 68 64  1  0
 68 72  1  0
 69 68  1  0
 70 71  1  0
 70 69  1  0
 71 67  1  0
 72 73  2  0
 73 74  1  0
 75 74  2  0
 76 75  1  0
 77 51  1  0
 77 82  1  0
 77 78  1  0
 78 81  1  1
 78 79  1  0
 80 78  1  0
 82 85  1  0
 83 87  1  0
 83 82  1  0
 84 83  2  0
 87 86  1  0
 89 87  1  0
 89 90  1  0
 89 88  1  0
M  ISO  4   9 100  17 100  49 101  50 101
M  END
>  <TORSDO>  (38) 
F 20

>  <SCORE>  (38) 
-14.010

>  <name>  (38) 
37

>  <ligand_id>  (38) 
37

>  <original_smiles>  (38) 
[H]c1c([H])c([H])c2c(c1[H])C([H])([H])C([H])([H])C([H])([H])C2([H])N([H])C(=O)C1([H])N(C(=O)C([H])(N([H])C(=O)C([H])(N([H])C([H])([H])[H])C([H])([H])[H])C(C([H])([H])[H])(C([H])([H])[H])C([H])([H])[H])C([H])([H])c2c([H])c(OC([H])([H])C([H])([H])Oc3c([H])c([H])c(C([H])([H])N([H])C(=O)N4C([H])([H])C([H])([H])C([H])([H])C([H])(n5nc(-c6c([H])c([H])c(Oc7c([H])c([H])c(F)c([H])c7F)c([H])c6[H])c(C(=O)N([H])[H])c5N([H])[H])C4([H])[H])c(F)c3[H])c([H])c([H])c2C1([H])[H]

>  <smiles>  (38) 
[H]c1c([H])c([H])c2c(c1[H])C([H])([H])C([H])([H])C([H])([H])C2([H])N([H])C(=O)C1([H])N(C(=O)C([H])(N([H])C(=O)C([H])(N([H])C([H])([H])[H])C([H])([H])[H])C(C([H])([H])[H])(C([H])([H])[H])C([H])([H])[H])C([H])([H])c2c([H])c(OC([H])([H])C([H])([H])Oc3c([H])c([H])c(C([H])([H])N([H])C(=O)N4C([H])([H])C([H])([H])C([H])([H])C([H])(n5nc(-c6c([H])c([H])c(Oc7c([H])c([H])c(F)c([H])c7F)c([H])c6[H])c(C(=O)N([H])[H])c5N([H])[H])C4([H])[H])c(F)c3[H])c([H])c([H])c2C1([H])[H]

$$$$
38:0:0
     RDKit          3D

 91100  0  0  1  0  0  0  0  0999 V2000
  -29.2500  -24.0920   20.9130 C   0  0  0  0  0  0  0  0  0  0  0  0
  -27.9650  -23.8090   19.3370 C   0  0  0  0  0  2  0  0  0  0  0  0
  -28.0150  -24.9280   20.4220 C   0  0  0  0  0  3  0  0  0  0  0  0
  -28.9490  -22.9810   20.1190 N   0  0  0  0  0  0  0  0  0  0  0  0
  -30.1880  -24.2830   21.6650 O   0  0  0  0  0  0  0  0  0  0  0  0
  -28.2850  -26.3730   20.1050 O   0  0  0  0  0  0  0  0  0  0  0  0
  -24.6260  -31.8560   23.1520 C   0  0  0  0  0  0  0  0  0  0  0  0
  -27.1870  -27.2560   20.0830 C   0  0  0  0  0  0  0  0  0  0  0  0
  -23.4030  -30.4540   21.5300 C   0  0  0  0  0  3  0  0  0  0  0  0
  -24.8330  -28.8940   20.0950 C   0  0  0  0  0  0  0  0  0  0  0  0
  -25.9420  -30.7650   21.3110 C   0  0  0  0  0  2  0  0  0  0  0  0
  -26.0140  -29.3810   20.6710 C   0  0  0  0  0  0  0  0  0  0  0  0
  -27.1980  -28.5760   20.6490 C   0  0  0  0  0  3  0  0  0  0  0  0
  -25.9800  -26.8270   19.4920 C   0  0  0  0  0  3  0  0  0  0  0  0
  -24.8210  -27.6240   19.4970 C   0  0  0  0  0  3  0  0  0  0  0  0
  -23.5970  -29.7710   20.1530 C   0  0  0  0  0  2  0  0  0  0  0  0
  -24.6780  -31.0430   22.0550 N   0  0  0  0  0  0  0  0  0  0  0  0
  -23.5470  -32.1380   23.6940 O   0  0  0  0  0  0  0  0  0  0  0  0
  -22.7450  -29.4450   22.5020 C   0  0  0  0  0  0  0  0  0  0  0  0
  -21.4170  -29.2780   22.3930 N   0  0  0  0  0  0  0  0  0  0  0  0
  -23.4310  -28.8130   23.3110 O   0  0  0  0  0  0  0  0  0  0  0  0
  -20.9260  -29.8390   21.7110 H   0  0  0  0  0  0  0  0  0  0  0  0
  -18.0340  -28.1160   22.9420 C   0  0  0  0  0  0  0  0  0  0  0  0
  -20.5980  -28.3480   23.1740 C   0  0  0  0  0  3  0  0  0  0  0  0
  -20.6770  -26.9170   22.5950 C   0  0  0  0  0  2  0  0  0  0  0  0
  -19.5570  -26.6080   21.5950 C   0  0  0  0  0  2  0  0  0  0  0  0
  -18.1860  -26.7650   22.2620 C   0  0  0  0  0  2  0  0  0  0  0  0
  -19.1670  -28.8650   23.3570 C   0  0  0  0  0  0  0  0  0  0  0  0
  -18.9710  -30.1280   23.9540 C   0  0  0  0  0  3  0  0  0  0  0  0
  -17.6740  -30.6440   24.1430 C   0  0  0  0  0  3  0  0  0  0  0  0
  -16.5550  -29.8910   23.7450 C   0  0  0  0  0  3  0  0  0  0  0  0
  -16.7350  -28.6300   23.1490 C   0  0  0  0  0  3  0  0  0  0  0  0
  -25.9140  -32.4870   23.7640 C   0  0  0  0  0  3  0  0  0  0  0  0
  -25.6000  -33.8750   24.1330 N   0  0  0  0  0  0  0  0  0  0  0  0
  -25.9120  -34.9470   23.3910 C   0  0  0  0  0  0  0  0  0  0  0  0
  -26.5650  -34.8720   22.3460 O   0  0  0  0  0  0  0  0  0  0  0  0
  -25.0050  -34.0080   24.9380 H   0  0  0  0  0  0  0  0  0  0  0  0
  -24.1640  -36.7320   23.1150 C   0  0  0  0  0  1  0  0  0  0  0  0
  -25.4260  -36.3230   23.8900 C   0  0  0  0  0  3  0  0  0  0  0  0
  -27.5780  -37.2000   24.6840 C   0  0  0  0  0  1  0  0  0  0  0  0
  -26.4500  -37.3850   23.7750 N   0  0  0  0  0  0  0  0  0  0  0  0
  -26.0440  -38.3000   23.9540 H   0  0  0  0  0  0  0  0  0  0  0  0
  -26.4600  -31.6930   25.0130 C   0  0  1  0  0  0  0  0  0  0  0  0
  -25.3920  -31.4330   26.1020 C   0  0  0  0  0  1  0  0  0  0  0  0
  -27.0400  -30.3280   24.5760 C   0  0  0  0  0  1  0  0  0  0  0  0
  -27.6270  -32.4750   25.6610 C   0  0  0  0  0  1  0  0  0  0  0  0
  -29.8000  -21.7630   19.7730 C   0  0  0  0  0  2  0  0  0  0  0  0
  -30.5840  -19.5420   20.9630 C   0  0  0  0  0  3  0  0  0  0  0  0
  -28.6100  -19.3870   19.6290 C   0  0  0  0  0  3  0  0  0  0  0  0
  -30.6640  -18.1090   21.0510 C   0  0  0  0  0  3  0  0  0  0  0  0
  -28.6960  -17.9580   19.7030 C   0  0  0  0  0  3  0  0  0  0  0  0
  -29.5940  -20.2380   20.2030 C   0  0  0  0  0  0  0  0  0  0  0  0
  -29.7660  -17.2560   20.3520 C   0  0  0  0  0  0  0  0  0  0  0  0
  -30.6490  -14.7970   20.7820 C   0  0  0  0  0  0  0  0  0  0  0  0
  -30.5810  -12.4190   20.0260 C   0  0  0  0  0  2  0  0  0  0  0  0
  -29.7510  -12.2650   18.7340 C   0  0  0  0  0  2  0  0  0  0  0  0
  -28.2310  -12.2380   19.0080 C   0  0  0  0  0  2  0  0  0  0  0  0
  -27.7440  -13.2070   20.1240 C   0  0  0  0  0  3  0  0  0  0  0  0
  -28.7130  -13.2420   21.3230 C   0  0  0  0  0  2  0  0  0  0  0  0
  -30.0400  -13.5610   20.7890 N   0  0  0  0  0  0  0  0  0  0  0  0
  -31.8810  -14.8640   20.8390 O   0  0  0  0  0  0  0  0  0  0  0  0
  -30.0070  -15.5650   18.6140 C   0  0  0  0  0  1  0  0  0  0  0  0
  -29.9720  -15.8040   20.0760 N   0  0  0  0  0  0  0  0  0  0  0  0
  -25.3060  -13.8120   20.6370 C   0  0  0  0  0  0  0  0  0  0  0  0
  -24.2120  -13.0460   20.9360 C   0  0  0  0  0  0  0  0  0  0  0  0
  -24.6800  -11.6960   20.9890 C   0  0  0  0  0  0  0  0  0  0  0  0
  -26.3690  -12.9320   20.5240 N   0  0  0  0  0  0  0  0  0  0  0  0
  -25.9930  -11.6570   20.8050 N   0  0  0  0  0  0  0  0  0  0  0  0
  -23.9400  -10.4360   21.1490 C   0  0  0  0  0  0  0  0  0  0  0  0
  -24.3150   -9.4780   22.1150 C   0  0  0  0  0  3  0  0  0  0  0  0
  -23.5790   -8.2830   22.2640 C   0  0  0  0  0  3  0  0  0  0  0  0
  -22.4510   -8.0380   21.4440 C   0  0  0  0  0  0  0  0  0  0  0  0
  -22.0980   -8.9840   20.4670 C   0  0  0  0  0  3  0  0  0  0  0  0
  -22.8350  -10.1700   20.3160 C   0  0  0  0  0  3  0  0  0  0  0  0
  -21.6890   -6.8960   21.5040 O   0  0  0  0  0  0  0  0  0  0  0  0
  -21.5980   -6.1520   22.6530 C   0  0  0  0  0  0  0  0  0  0  0  0
  -21.1480   -6.7090   23.8720 C   0  0  0  0  0  3  0  0  0  0  0  0
  -21.0030   -5.8910   25.0090 C   0  0  0  0  0  3  0  0  0  0  0  0
  -21.2940   -4.5160   24.9300 C   0  0  0  0  0  0  0  0  0  0  0  0
  -21.7340   -3.9570   23.7170 C   0  0  0  0  0  3  0  0  0  0  0  0
  -21.8820   -4.7730   22.5810 C   0  0  0  0  0  0  0  0  0  0  0  0
  -22.2870   -4.2250   21.4090 F   0  0  0  0  0  0  0  0  0  0  0  0
  -21.1490   -3.7270   26.0210 F   0  0  0  0  0  0  0  0  0  0  0  0
  -22.7940  -13.5230   21.0640 C   0  0  0  0  0  0  0  0  0  0  0  0
  -21.9940  -12.8580   21.8900 N   0  0  0  0  0  0  0  0  0  0  0  0
  -22.4010  -14.5220   20.4650 O   0  0  0  0  0  0  0  0  0  0  0  0
  -22.3240  -12.0510   22.4000 H   0  0  0  0  0  0  0  0  0  0  0  0
  -21.0400  -13.1630   22.0200 H   0  0  0  0  0  0  0  0  0  0  0  0
  -25.4810  -15.1750   20.4280 N   0  0  0  0  0  0  0  0  0  0  0  0
  -24.7050  -15.8270   20.4590 H   0  0  0  0  0  0  0  0  0  0  0  0
  -26.3600  -15.6150   20.1870 H   0  0  0  0  0  0  0  0  0  0  0  0
  1  5  2  0
  2  4  1  0
  2  3  1  0
  3  6  1  0
  3  1  1  0
  4  1  1  0
  7 18  2  0
  8  6  1  0
  8 13  1  0
  9 17  1  0
  9 19  1  0
 10 16  1  0
 10 12  1  0
 11 17  1  0
 12 11  1  0
 13 12  2  0
 14 15  1  0
 14  8  2  0
 15 10  2  0
 16  9  1  0
 17  7  1  0
 19 21  2  0
 20 19  1  0
 22 20  1  0
 23 32  2  0
 23 28  1  0
 24 20  1  0
 24 28  1  0
 25 24  1  0
 26 27  1  0
 26 25  1  0
 27 23  1  0
 28 29  2  0
 29 30  1  0
 31 30  2  0
 32 31  1  0
 33  7  1  0
 33 34  1  0
 33 43  1  0
 34 37  1  0
 35 39  1  0
 35 34  1  0
 36 35  2  0
 39 38  1  0
 41 39  1  0
 41 42  1  0
 41 40  1  0
 43 46  1  1
 43 44  1  0
 45 43  1  0
 47  4  1  0
 47 52  1  0
 48 50  1  0
 49 51  2  0
 49 52  1  0
 51 53  1  0
 52 48  2  0
 53 50  2  0
 54 60  1  0
 54 61  2  0
 55 60  1  0
 56 57  1  0
 56 55  1  0
 58 57  1  0
 58 67  1  0
 58 59  1  0
 60 59  1  0
 62 63  1  0
 63 53  1  0
 63 54  1  0
 64 65  2  0
 65 66  1  0
 65 84  1  0
 66 69  1  0
 67 64  1  0
 67 68  1  0
 68 66  2  0
 69 70  1  0
 70 71  2  0
 72 75  1  0
 72 71  1  0
 73 72  2  0
 74 73  1  0
 74 69  2  0
 75 76  1  0
 76 77  1  0
 77 78  2  0
 79 78  1  0
 79 83  1  0
 80 79  2  0
 81 76  2  0
 81 80  1  0
 82 81  1  0
 84 85  1  0
 85 88  1  0
 85 87  1  0
 86 84  2  0
 89 90  1  0
 89 64  1  0
 91 89  1  0
M  ISO  4   3 101   6 101  54 100  63 100
M  END
>  <TORSDO>  (39) 
F 18

>  <SCORE>  (39) 
-14.238

>  <name>  (39) 
38

>  <ligand_id>  (39) 
38

>  <original_smiles>  (39) 
[H]c1c([H])c([H])c2c(c1[H])C([H])([H])C([H])([H])C([H])([H])C2([H])N([H])C(=O)C1([H])N(C(=O)C([H])(N([H])C(=O)C([H])(N([H])C([H])([H])[H])C([H])([H])[H])C(C([H])([H])[H])(C([H])([H])[H])C([H])([H])[H])C([H])([H])c2c([H])c(OC3([H])C(=O)N(C([H])([H])c4c([H])c([H])c(N(C(=O)N5C([H])([H])C([H])([H])C([H])([H])C([H])(n6nc(-c7c([H])c([H])c(Oc8c([H])c([H])c(F)c([H])c8F)c([H])c7[H])c(C(=O)N([H])[H])c6N([H])[H])C5([H])[H])C([H])([H])[H])c([H])c4[H])C3([H])[H])c([H])c([H])c2C1([H])[H]

>  <smiles>  (39) 
[H]c1c([H])c([H])c2c(c1[H])C([H])([H])C([H])([H])C([H])([H])C2([H])N([H])C(=O)C1([H])N(C(=O)C([H])(N([H])C(=O)C([H])(N([H])C([H])([H])[H])C([H])([H])[H])C(C([H])([H])[H])(C([H])([H])[H])C([H])([H])[H])C([H])([H])c2c([H])c(OC3([H])C(=O)N(C([H])([H])c4c([H])c([H])c(N(C(=O)N5C([H])([H])C([H])([H])C([H])([H])C([H])(n6nc(-c7c([H])c([H])c(Oc8c([H])c([H])c(F)c([H])c8F)c([H])c7[H])c(C(=O)N([H])[H])c6N([H])[H])C5([H])[H])C([H])([H])[H])c([H])c4[H])C3([H])[H])c([H])c([H])c2C1([H])[H]

$$$$
39:0:0
     RDKit          3D

 91 92  0  0  1  0  0  0  0  0999 V2000
  -31.9290  -17.7050   21.0540 C   0  0  0  0  0  3  0  0  0  0  0  0
  -31.1930  -17.5940   19.8570 C   0  0  0  0  0  3  0  0  0  0  0  0
  -29.9740  -17.0370   22.3120 C   0  0  0  0  0  3  0  0  0  0  0  0
  -31.3760  -17.0990   22.1990 C   0  0  0  0  0  0  0  0  0  0  0  0
  -29.9350  -16.9360   19.8830 C   0  0  0  0  0  0  0  0  0  0  0  0
  -29.2370  -16.9430   21.1230 C   0  0  0  0  0  0  0  0  0  0  0  0
  -27.9150  -16.6460   21.1920 F   0  0  0  0  0  0  0  0  0  0  0  0
  -29.6720  -13.6730   18.1820 C   0  0  0  0  0  2  0  0  0  0  0  0
  -29.3980  -16.2950   18.7220 N   0  0  0  0  0  1  0  0  0  0  0  0
  -28.6290  -18.4470   18.6470 C   0  0  0  0  0 15  0  0  0  0  0  0
  -28.5050  -21.1610   18.8700 C   0  0  0  0  0 15  0  0  0  0  0  0
  -28.1620  -23.4880   19.4350 O   0  0  0  0  0 15  0  0  0  0  0  0
  -24.7730  -31.1590   22.7040 C   0  0  0  0  0  0  0  0  0  0  0  0
  -27.3580  -25.2300   19.5200 C   0  0  0  0  0  3  0  0  0  0  0  0
  -23.6920  -29.7260   21.0460 C   0  0  0  0  0  3  0  0  0  0  0  0
  -25.1870  -27.9420   19.6220 C   0  0  0  0  0  0  0  0  0  0  0  0
  -26.2990  -29.6030   21.0580 C   0  0  0  0  0  2  0  0  0  0  0  0
  -26.3860  -28.0710   20.3220 C   0  0  0  0  0  0  0  0  0  0  0  0
  -27.3950  -26.7850   20.2250 C   0  0  0  0  0  3  0  0  0  0  0  0
  -26.1390  -25.6320   18.7930 C   0  0  0  0  0  3  0  0  0  0  0  0
  -25.1720  -26.7590   18.8370 C   0  0  0  0  0  3  0  0  0  0  0  0
  -24.0030  -28.9940   19.6860 C   0  0  0  0  0  2  0  0  0  0  0  0
  -24.9650  -30.2300   21.6560 N   0  0  0  0  0  0  0  0  0  0  0  0
  -23.6400  -31.4460   23.1520 O   0  0  0  0  0  0  0  0  0  0  0  0
  -22.9150  -28.7920   22.0210 C   0  0  0  0  0  0  0  0  0  0  0  0
  -21.5680  -28.7050   21.9460 N   0  0  0  0  0  0  0  0  0  0  0  0
  -23.5560  -28.1280   22.8360 O   0  0  0  0  0  0  0  0  0  0  0  0
  -21.0830  -29.2860   21.2770 H   0  0  0  0  0  0  0  0  0  0  0  0
  -18.1720  -27.5090   22.5870 C   0  0  0  0  0  0  0  0  0  0  0  0
  -20.7520  -27.7360   22.6990 C   0  0  0  0  0  3  0  0  0  0  0  0
  -20.7870  -26.3460   22.0190 C   0  0  0  0  0  2  0  0  0  0  0  0
  -19.6260  -26.1260   21.0450 C   0  0  0  0  0  2  0  0  0  0  0  0
  -18.2870  -26.2270   21.7790 C   0  0  0  0  0  2  0  0  0  0  0  0
  -19.3270  -28.2280   23.0030 C   0  0  0  0  0  0  0  0  0  0  0  0
  -19.1580  -29.4240   23.7340 C   0  0  0  0  0  3  0  0  0  0  0  0
  -17.8720  -29.9080   24.0390 C   0  0  0  0  0  3  0  0  0  0  0  0
  -16.7350  -29.1900   23.6320 C   0  0  0  0  0  3  0  0  0  0  0  0
  -16.8860  -27.9890   22.9150 C   0  0  0  0  0  3  0  0  0  0  0  0
  -25.9350  -31.9280   23.4220 C   0  0  0  0  0  3  0  0  0  0  0  0
  -26.4740  -31.1630   24.6960 C   0  0  1  0  0  0  0  0  0  0  0  0
  -25.3840  -30.8170   25.7400 C   0  0  0  0  0  1  0  0  0  0  0  0
  -27.1610  -29.8440   24.3000 C   0  0  0  0  0  1  0  0  0  0  0  0
  -27.5500  -32.0160   25.4070 C   0  0  0  0  0  1  0  0  0  0  0  0
  -25.4690  -33.2780   23.8560 N   0  0  0  0  0  0  0  0  0  0  0  0
  -25.7880  -34.4550   23.2920 C   0  0  0  0  0  0  0  0  0  0  0  0
  -26.5330  -34.5280   22.3140 O   0  0  0  0  0  0  0  0  0  0  0  0
  -24.8020  -33.2880   24.6130 H   0  0  0  0  0  0  0  0  0  0  0  0
  -23.9770  -36.2110   23.0880 C   0  0  0  0  0  1  0  0  0  0  0  0
  -25.2030  -35.7560   23.8980 C   0  0  0  0  0  3  0  0  0  0  0  0
  -27.2350  -36.6710   24.9450 C   0  0  0  0  0  1  0  0  0  0  0  0
  -26.1710  -36.8770   23.9680 N   0  0  0  0  0  0  0  0  0  0  0  0
  -25.6980  -37.7480   24.1930 H   0  0  0  0  0  0  0  0  0  0  0  0
  -32.1270  -15.8910   22.7420 C   0  0  0  0  0  2  0  0  0  0  0  0
  -31.3810  -14.2750   21.0160 C   0  0  0  0  0  0  0  0  0  0  0  0
  -30.4720  -14.4950   18.6590 C   0  0  0  0  0  2  0  0  0  0  0  0
  -28.8860  -14.7580   17.4140 C   0  0  0  0  0  1  0  0  0  0  0  0
  -26.9520  -14.6460   18.2750 C   0  0  0  0  0 15  0  0  0  0  0  0
  -26.9350  -14.3340   20.3590 C   0  0  0  0  0  1  0  0  0  0  0  0
  -28.6530  -14.1140   21.3340 C   0  0  0  0  0  1  0  0  0  0  0  0
  -30.2160  -14.2740   20.4590 N   0  0  0  0  0  0  0  0  0  0  0  0
  -32.3720  -14.2280   20.3000 O   0  0  0  0  0  0  0  0  0  0  0  0
  -31.3900  -14.6880   22.2940 N   0  0  0  0  0  0  0  0  0  0  0  0
  -30.4990  -14.5670   22.7510 H   0  0  0  0  0  0  0  0  0  0  0  0
  -24.7260  -13.7770   20.7530 C   0  0  0  0  0  0  0  0  0  0  0  0
  -23.9070  -12.8100   21.1710 C   0  0  0  0  0  0  0  0  0  0  0  0
  -24.5760  -11.5560   21.0210 C   0  0  0  0  0  3  0  0  0  0  0  0
  -25.9300  -13.2450   20.6180 N   0  0  0  0  0  0  0  0  0  0  0  0
  -25.8820  -11.8300   20.6850 N   0  0  0  0  0  2  0  0  0  0  0  0
  -23.9170  -10.2090   21.1800 C   0  0  0  0  0  0  0  0  0  0  0  0
  -24.3720   -9.1930   22.0560 C   0  0  0  0  0  3  0  0  0  0  0  0
  -23.6270   -7.9990   22.2560 C   0  0  0  0  0  3  0  0  0  0  0  0
  -22.3940   -7.7950   21.5870 C   0  0  0  0  0  0  0  0  0  0  0  0
  -21.9440   -8.7920   20.7050 C   0  0  0  0  0  3  0  0  0  0  0  0
  -22.6920   -9.9690   20.5030 C   0  0  0  0  0  3  0  0  0  0  0  0
  -21.6170   -6.6590   21.6890 O   0  0  0  0  0  0  0  0  0  0  0  0
  -21.6120   -5.8700   22.8150 C   0  0  0  0  0  0  0  0  0  0  0  0
  -21.2380   -6.3830   24.0750 C   0  0  0  0  0  3  0  0  0  0  0  0
  -21.1780   -5.5320   25.1960 C   0  0  0  0  0  3  0  0  0  0  0  0
  -21.4830   -4.1640   25.0610 C   0  0  0  0  0  0  0  0  0  0  0  0
  -21.8460   -3.6470   23.8050 C   0  0  0  0  0  3  0  0  0  0  0  0
  -21.9020   -4.4950   22.6850 C   0  0  0  0  0  0  0  0  0  0  0  0
  -22.2260   -3.9810   21.4730 F   0  0  0  0  0  0  0  0  0  0  0  0
  -21.4290   -3.3450   26.1380 F   0  0  0  0  0  0  0  0  0  0  0  0
  -22.5330  -13.1510   21.6090 C   0  0  0  0  0  0  0  0  0  0  0  0
  -21.9930  -12.4250   22.5680 N   0  0  0  0  0  0  0  0  0  0  0  0
  -21.9800  -14.1650   21.1820 O   0  0  0  0  0  0  0  0  0  0  0  0
  -22.4630  -11.6190   22.9510 H   0  0  0  0  0  0  0  0  0  0  0  0
  -21.0870  -12.6910   22.9280 H   0  0  0  0  0  0  0  0  0  0  0  0
  -24.5270  -15.1360   20.5260 N   0  0  0  0  0  0  0  0  0  0  0  0
  -23.6040  -15.5520   20.5850 H   0  0  0  0  0  0  0  0  0  0  0  0
  -25.2310  -15.7430   20.1220 H   0  0  0  0  0  0  0  0  0  0  0  0
  1  4  1  0
  2  5  1  0
  2  1  2  0
  4  3  2  0
  4 53  1  0
  5  6  2  0
  6  7  1  0
  6  3  1  0
  8 55  1  0
  9  5  1  0
 13 24  2  0
 14 19  1  0
 15 23  1  0
 15 25  1  0
 16 22  1  0
 16 18  1  0
 17 23  1  0
 18 17  1  0
 19 18  2  0
 20 21  1  0
 20 14  2  0
 21 16  2  0
 22 15  1  0
 23 13  1  0
 25 27  2  0
 26 25  1  0
 28 26  1  0
 29 38  2  0
 29 34  1  0
 30 26  1  0
 30 34  1  0
 31 30  1  0
 32 33  1  0
 32 31  1  0
 33 29  1  0
 34 35  2  0
 35 36  1  0
 37 36  2  0
 38 37  1  0
 39 13  1  0
 39 44  1  0
 39 40  1  0
 40 43  1  1
 40 41  1  0
 42 40  1  0
 44 47  1  0
 45 44  1  0
 45 49  1  0
 46 45  2  0
 49 48  1  0
 49 51  1  0
 51 52  1  0
 51 50  1  0
 54 62  1  0
 55 60  1  0
 56  8  1  0
 58 67  1  0
 60 54  1  0
 60 59  1  0
 61 54  2  0
 62 53  1  0
 62 63  1  0
 64 65  2  0
 65 84  1  0
 66 65  1  0
 66 69  1  0
 67 68  1  0
 67 64  1  0
 68 66  1  0
 69 70  1  0
 70 71  2  0
 72 75  1  0
 72 71  1  0
 73 72  2  0
 74 73  1  0
 74 69  2  0
 75 76  1  0
 76 77  1  0
 77 78  2  0
 79 78  1  0
 79 83  1  0
 80 79  2  0
 81 76  2  0
 81 80  1  0
 82 81  1  0
 84 85  1  0
 85 88  1  0
 85 87  1  0
 86 84  2  0
 89 90  1  0
 89 64  1  0
 91 89  1  0
M  ISO  4  11 101  12 101  54 100  62 100
M  END
>  <TORSDO>  (40) 
F 20

>  <SCORE>  (40) 
-3.244

>  <name>  (40) 
39

>  <ligand_id>  (40) 
39

>  <original_smiles>  (40) 
[H]c1c([H])c([H])c2c(c1[H])C([H])([H])C([H])([H])C([H])([H])C2([H])N([H])C(=O)C1([H])N(C(=O)C([H])(N([H])C(=O)C([H])(N([H])C([H])([H])[H])C([H])([H])[H])C(C([H])([H])[H])(C([H])([H])[H])C([H])([H])[H])C([H])([H])c2c([H])c(OC([H])([H])C([H])([H])N(c3c([H])c([H])c(C([H])([H])N([H])C(=O)N4C([H])([H])C([H])([H])C([H])([H])C([H])(n5nc(-c6c([H])c([H])c(Oc7c([H])c([H])c(F)c([H])c7F)c([H])c6[H])c(C(=O)N([H])[H])c5N([H])[H])C4([H])[H])c([H])c3F)C([H])([H])[H])c([H])c([H])c2C1([H])[H]

>  <smiles>  (40) 
[H]c1c([H])c([H])c2c(c1[H])C([H])([H])C([H])([H])C([H])([H])C2([H])N([H])C(=O)C1([H])N(C(=O)C([H])(N([H])C(=O)C([H])(N([H])C([H])([H])[H])C([H])([H])[H])C(C([H])([H])[H])(C([H])([H])[H])C([H])([H])[H])C([H])([H])c2c([H])c(OC([H])([H])C([H])([H])N(c3c([H])c([H])c(C([H])([H])N([H])C(=O)N4C([H])([H])C([H])([H])C([H])([H])C([H])(n5nc(-c6c([H])c([H])c(Oc7c([H])c([H])c(F)c([H])c7F)c([H])c6[H])c(C(=O)N([H])[H])c5N([H])[H])C4([H])[H])c([H])c3F)C([H])([H])[H])c([H])c([H])c2C1([H])[H]

$$$$
40:0:0
     RDKit          3D

 91100  0  0  1  0  0  0  0  0999 V2000
  -29.0650  -23.4420   19.9850 C   0  0  0  0  0  0  0  0  0  0  0  0
  -26.8740  -24.0050   20.6420 C   0  0  0  0  0  2  0  0  0  0  0  0
  -27.0820  -22.4690   20.4900 C   0  0  0  0  0  2  0  0  0  0  0  0
  -27.9960  -24.6770   19.8480 C   0  0  0  0  0  3  0  0  0  0  0  0
  -28.4980  -22.1700   20.2160 N   0  0  0  0  0  0  0  0  0  0  0  0
  -30.2790  -23.6360   19.8590 O   0  0  0  0  0  0  0  0  0  0  0  0
  -30.2290  -20.0960   19.8300 C   0  0  0  0  0  3  0  0  0  0  0  0
  -28.0690  -19.6340   20.6210 C   0  0  0  0  0  3  0  0  0  0  0  0
  -30.5340  -18.6540   19.8370 C   0  0  0  0  0  3  0  0  0  0  0  0
  -28.3680  -18.2210   20.6340 C   0  0  0  0  0  3  0  0  0  0  0  0
  -28.9650  -20.6850   20.2210 C   0  0  0  0  0  0  0  0  0  0  0  0
  -29.6060  -17.6230   20.2430 C   0  0  0  0  0  0  0  0  0  0  0  0
  -30.5750  -15.0090   19.9780 C   0  0  0  0  0  0  0  0  0  0  0  0
  -30.4620  -12.6760   18.9870 C   0  0  0  0  0  2  0  0  0  0  0  0
  -29.4540  -12.6670   17.8120 C   0  0  0  0  0  2  0  0  0  0  0  0
  -28.0190  -12.4340   18.3210 C   0  0  0  0  0  2  0  0  0  0  0  0
  -27.6760  -13.3210   19.5440 C   0  0  0  0  0  3  0  0  0  0  0  0
  -28.7930  -13.2870   20.6110 C   0  0  0  0  0  2  0  0  0  0  0  0
  -30.0330  -13.7260   19.9520 N   0  0  0  0  0  0  0  0  0  0  0  0
  -31.7420  -15.1530   19.5920 O   0  0  0  0  0  0  0  0  0  0  0  0
  -29.7100  -16.0890   20.2880 N   0  0  0  0  0  0  0  0  0  0  0  0
  -28.8430  -15.6860   20.6100 H   0  0  0  0  0  0  0  0  0  0  0  0
  -25.3310  -13.8710   20.4180 C   0  0  0  0  0  0  0  0  0  0  0  0
  -24.2920  -13.0810   20.8260 C   0  0  0  0  0  0  0  0  0  0  0  0
  -24.7610  -11.7350   20.7400 C   0  0  0  0  0  0  0  0  0  0  0  0
  -26.3650  -13.0050   20.1040 N   0  0  0  0  0  0  0  0  0  0  0  0
  -26.0340  -11.7130   20.3610 N   0  0  0  0  0  0  0  0  0  0  0  0
  -24.0530  -10.4630   20.9380 C   0  0  0  0  0  0  0  0  0  0  0  0
  -24.5020   -9.5050   21.8740 C   0  0  0  0  0  3  0  0  0  0  0  0
  -23.7920   -8.2990   22.0600 C   0  0  0  0  0  3  0  0  0  0  0  0
  -22.6200   -8.0410   21.3110 C   0  0  0  0  0  0  0  0  0  0  0  0
  -22.1900   -8.9880   20.3630 C   0  0  0  0  0  3  0  0  0  0  0  0
  -22.9010  -10.1860   20.1750 C   0  0  0  0  0  3  0  0  0  0  0  0
  -21.8820   -6.8860   21.4060 O   0  0  0  0  0  0  0  0  0  0  0  0
  -21.7960   -6.1800   22.5810 C   0  0  0  0  0  0  0  0  0  0  0  0
  -21.3040   -6.7680   23.7660 C   0  0  0  0  0  3  0  0  0  0  0  0
  -21.1680   -5.9890   24.9330 C   0  0  0  0  0  3  0  0  0  0  0  0
  -21.5110   -4.6230   24.9140 C   0  0  0  0  0  0  0  0  0  0  0  0
  -21.9950   -4.0360   23.7320 C   0  0  0  0  0  3  0  0  0  0  0  0
  -22.1350   -4.8120   22.5680 C   0  0  0  0  0  0  0  0  0  0  0  0
  -22.5820   -4.2350   21.4260 F   0  0  0  0  0  0  0  0  0  0  0  0
  -21.3720   -3.8740   26.0330 F   0  0  0  0  0  0  0  0  0  0  0  0
  -22.9070  -13.5420   21.1800 C   0  0  0  0  0  0  0  0  0  0  0  0
  -22.2290  -12.8260   22.0690 N   0  0  0  0  0  0  0  0  0  0  0  0
  -22.4370  -14.5740   20.7020 O   0  0  0  0  0  0  0  0  0  0  0  0
  -22.6220  -11.9910   22.4790 H   0  0  0  0  0  0  0  0  0  0  0  0
  -21.3030  -13.1180   22.3480 H   0  0  0  0  0  0  0  0  0  0  0  0
  -25.4740  -15.2470   20.2610 N   0  0  0  0  0  0  0  0  0  0  0  0
  -24.6970  -15.8820   20.4030 H   0  0  0  0  0  0  0  0  0  0  0  0
  -26.2690  -15.6930   19.8220 H   0  0  0  0  0  0  0  0  0  0  0  0
  -28.2720  -26.1830   20.1820 O   0  0  0  0  0  0  0  0  0  0  0  0
  -24.6220  -31.8490   23.2130 C   0  0  0  0  0  0  0  0  0  0  0  0
  -27.2270  -27.1830   20.1110 C   0  0  0  0  0  0  0  0  0  0  0  0
  -23.4340  -30.4750   21.5490 C   0  0  0  0  0  3  0  0  0  0  0  0
  -24.8940  -28.9330   20.1000 C   0  0  0  0  0  0  0  0  0  0  0  0
  -25.9900  -30.7440   21.4050 C   0  0  0  0  0  2  0  0  0  0  0  0
  -26.0690  -29.3630   20.7300 C   0  0  0  0  0  0  0  0  0  0  0  0
  -27.2330  -28.5020   20.7250 C   0  0  0  0  0  3  0  0  0  0  0  0
  -26.0310  -26.8740   19.4240 C   0  0  0  0  0  3  0  0  0  0  0  0
  -24.8880  -27.7000   19.4320 C   0  0  0  0  0  3  0  0  0  0  0  0
  -23.6630  -29.8250   20.1580 C   0  0  0  0  0  2  0  0  0  0  0  0
  -24.7010  -31.0440   22.1100 N   0  0  0  0  0  0  0  0  0  0  0  0
  -23.5320  -32.1230   23.7390 O   0  0  0  0  0  0  0  0  0  0  0  0
  -22.7520  -29.4510   22.4900 C   0  0  0  0  0  0  0  0  0  0  0  0
  -21.4230  -29.2890   22.3640 N   0  0  0  0  0  0  0  0  0  0  0  0
  -23.4230  -28.8060   23.3010 O   0  0  0  0  0  0  0  0  0  0  0  0
  -20.9380  -29.8600   21.6880 H   0  0  0  0  0  0  0  0  0  0  0  0
  -18.0330  -28.1120   22.8710 C   0  0  0  0  0  0  0  0  0  0  0  0
  -20.5980  -28.3420   23.1190 C   0  0  0  0  0  3  0  0  0  0  0  0
  -20.6790  -26.9220   22.5090 C   0  0  0  0  0  2  0  0  0  0  0  0
  -19.5630  -26.6380   21.4980 C   0  0  0  0  0  2  0  0  0  0  0  0
  -18.1890  -26.7790   22.1590 C   0  0  0  0  0  2  0  0  0  0  0  0
  -19.1640  -28.8530   23.3090 C   0  0  0  0  0  0  0  0  0  0  0  0
  -18.9630  -30.1010   23.9370 C   0  0  0  0  0  3  0  0  0  0  0  0
  -17.6640  -30.6090   24.1290 C   0  0  0  0  0  3  0  0  0  0  0  0
  -16.5480  -29.8650   23.7070 C   0  0  0  0  0  3  0  0  0  0  0  0
  -16.7340  -28.6180   23.0840 C   0  0  0  0  0  3  0  0  0  0  0  0
  -25.8950  -32.4790   23.8560 C   0  0  0  0  0  3  0  0  0  0  0  0
  -25.5810  -33.8760   24.1950 N   0  0  0  0  0  0  0  0  0  0  0  0
  -25.8990  -34.9360   23.4400 C   0  0  0  0  0  0  0  0  0  0  0  0
  -26.5540  -34.8410   22.3990 O   0  0  0  0  0  0  0  0  0  0  0  0
  -24.9970  -34.0220   25.0060 H   0  0  0  0  0  0  0  0  0  0  0  0
  -24.1460  -36.7180   23.1430 C   0  0  0  0  0  1  0  0  0  0  0  0
  -25.4160  -36.3220   23.9140 C   0  0  0  0  0  3  0  0  0  0  0  0
  -27.5690  -37.2260   24.6780 C   0  0  0  0  0  1  0  0  0  0  0  0
  -26.4370  -37.3830   23.7680 N   0  0  0  0  0  0  0  0  0  0  0  0
  -26.0280  -38.3010   23.9260 H   0  0  0  0  0  0  0  0  0  0  0  0
  -26.3900  -31.7010   25.1380 C   0  0  1  0  0  0  0  0  0  0  0  0
  -25.2830  -31.4660   26.1920 C   0  0  0  0  0  1  0  0  0  0  0  0
  -26.9720  -30.3230   24.7550 C   0  0  0  0  0  1  0  0  0  0  0  0
  -27.5370  -32.4880   25.8160 C   0  0  0  0  0  1  0  0  0  0  0  0
  1  5  1  0
  3  2  1  0
  4  1  1  0
  4 51  1  0
  4  2  1  0
  5 11  1  0
  5  3  1  0
  6  1  2  0
  7  9  2  0
  7 11  1  0
  8 10  1  0
  9 12  1  0
 11  8  2  0
 12 21  1  0
 12 10  2  0
 13 21  1  0
 14 19  1  0
 15 16  1  0
 15 14  1  0
 17 16  1  0
 17 26  1  0
 17 18  1  0
 19 13  1  0
 19 18  1  0
 20 13  2  0
 21 22  1  0
 23 24  2  0
 24 43  1  0
 25 24  1  0
 25 28  1  0
 26 27  1  0
 26 23  1  0
 27 25  2  0
 28 29  1  0
 29 30  2  0
 31 34  1  0
 31 30  1  0
 32 31  2  0
 33 32  1  0
 33 28  2  0
 34 35  1  0
 35 36  1  0
 36 37  2  0
 38 37  1  0
 38 42  1  0
 39 38  2  0
 40 35  2  0
 40 39  1  0
 41 40  1  0
 43 44  1  0
 44 47  1  0
 44 46  1  0
 45 43  2  0
 48 49  1  0
 48 23  1  0
 50 48  1  0
 52 63  2  0
 53 51  1  0
 53 58  1  0
 54 62  1  0
 54 64  1  0
 55 61  1  0
 55 57  1  0
 56 62  1  0
 57 56  1  0
 58 57  2  0
 59 60  1  0
 59 53  2  0
 60 55  2  0
 61 54  1  0
 62 52  1  0
 64 66  2  0
 65 64  1  0
 67 65  1  0
 68 77  2  0
 68 73  1  0
 69 65  1  0
 69 73  1  0
 70 69  1  0
 71 72  1  0
 71 70  1  0
 72 68  1  0
 73 74  2  0
 74 75  1  0
 76 75  2  0
 77 76  1  0
 78 52  1  0
 78 79  1  0
 78 88  1  0
 79 82  1  0
 80 84  1  0
 80 79  1  0
 81 80  2  0
 84 83  1  0
 86 84  1  0
 86 87  1  0
 86 85  1  0
 88 91  1  1
 88 89  1  0
 90 88  1  0
M  ISO  4   4 101  13 100  21 100  51 101
M  END
>  <TORSDO>  (41) 
F 17

>  <SCORE>  (41) 
-14.746

>  <name>  (41) 
40

>  <ligand_id>  (41) 
40

>  <original_smiles>  (41) 
[H]c1c([H])c([H])c2c(c1[H])C([H])([H])C([H])([H])C([H])([H])C2([H])N([H])C(=O)C1([H])N(C(=O)C([H])(N([H])C(=O)C([H])(N([H])C([H])([H])[H])C([H])([H])[H])C(C([H])([H])[H])(C([H])([H])[H])C([H])([H])[H])C([H])([H])c2c([H])c(OC3([H])C(=O)N(c4c([H])c([H])c(N([H])C(=O)N5C([H])([H])C([H])([H])C([H])([H])C([H])(n6nc(-c7c([H])c([H])c(Oc8c([H])c([H])c(F)c([H])c8F)c([H])c7[H])c(C(=O)N([H])[H])c6N([H])[H])C5([H])[H])c([H])c4[H])C([H])([H])C3([H])[H])c([H])c([H])c2C1([H])[H]

>  <smiles>  (41) 
[H]c1c([H])c([H])c2c(c1[H])C([H])([H])C([H])([H])C([H])([H])C2([H])N([H])C(=O)C1([H])N(C(=O)C([H])(N([H])C(=O)C([H])(N([H])C([H])([H])[H])C([H])([H])[H])C(C([H])([H])[H])(C([H])([H])[H])C([H])([H])[H])C([H])([H])c2c([H])c(OC3([H])C(=O)N(c4c([H])c([H])c(N([H])C(=O)N5C([H])([H])C([H])([H])C([H])([H])C([H])(n6nc(-c7c([H])c([H])c(Oc8c([H])c([H])c(F)c([H])c8F)c([H])c7[H])c(C(=O)N([H])[H])c6N([H])[H])C5([H])[H])c([H])c4[H])C([H])([H])C3([H])[H])c([H])c([H])c2C1([H])[H]

$$$$
41:0:0
     RDKit          3D

 94103  0  0  1  0  0  0  0  0999 V2000
  -25.9470  -23.4470   20.0160 C   0  0  0  0  0  2  0  0  0  0  0  0
  -26.4830  -24.1400   21.2560 C   0  0  0  0  0  2  0  0  0  0  0  0
  -26.9860  -22.3760   19.7130 C   0  0  0  0  0  2  0  0  0  0  0  0
  -28.0040  -24.0490   21.1020 C   0  0  0  0  0  3  0  0  0  0  0  0
  -28.3050  -22.7830   20.2670 N   0  0  1  0  0  4  0  0  0  0  0  0
  -28.9080  -23.0370   19.4990 H   0  0  0  0  0  0  0  0  0  0  0  0
  -28.9830  -21.6300   21.0330 C   0  0  0  0  0  2  0  0  0  0  0  0
  -30.2440  -19.4370   21.4140 C   0  0  0  0  0  3  0  0  0  0  0  0
  -30.5000  -18.0340   21.3850 C   0  0  0  0  0  3  0  0  0  0  0  0
  -28.8950  -17.8220   19.6320 C   0  0  0  0  0  3  0  0  0  0  0  0
  -29.2820  -20.1070   20.5930 C   0  0  0  0  0  0  0  0  0  0  0  0
  -28.6570  -19.2360   19.6240 C   0  0  0  0  0  0  0  0  0  0  0  0
  -29.7970  -17.1740   20.5120 C   0  0  0  0  0  0  0  0  0  0  0  0
  -27.7260  -19.6950   18.5170 C   0  0  0  0  0  1  0  0  0  0  0  0
  -30.6230  -14.7170   20.2600 C   0  0  0  0  0  0  0  0  0  0  0  0
  -30.4420  -12.4810   19.1770 C   0  0  0  0  0  2  0  0  0  0  0  0
  -29.4660  -12.6080   17.9840 C   0  0  0  0  0  2  0  0  0  0  0  0
  -28.0000  -12.4440   18.4370 C   0  0  0  0  0  2  0  0  0  0  0  0
  -27.6660  -13.2950   19.6910 C   0  0  0  0  0  3  0  0  0  0  0  0
  -28.7440  -13.1070   20.7810 C   0  0  0  0  0  2  0  0  0  0  0  0
  -30.0400  -13.4790   20.1870 N   0  0  0  0  0  0  0  0  0  0  0  0
  -31.7720  -14.9200   19.8560 O   0  0  0  0  0  0  0  0  0  0  0  0
  -29.7760  -15.7210   20.6520 N   0  0  0  0  0  0  0  0  0  0  0  0
  -28.8650  -15.3500   20.8770 H   0  0  0  0  0  0  0  0  0  0  0  0
  -25.2890  -13.9030   20.4560 C   0  0  0  0  0  0  0  0  0  0  0  0
  -24.2260  -13.1330   20.8370 C   0  0  0  0  0  0  0  0  0  0  0  0
  -24.6810  -11.7790   20.7850 C   0  0  0  0  0  0  0  0  0  0  0  0
  -26.3240  -13.0200   20.1950 N   0  0  0  0  0  0  0  0  0  0  0  0
  -25.9640  -11.7370   20.4510 N   0  0  0  0  0  0  0  0  0  0  0  0
  -23.9520  -10.5180   20.9780 C   0  0  0  0  0  0  0  0  0  0  0  0
  -24.3820   -9.5560   21.9160 C   0  0  0  0  0  3  0  0  0  0  0  0
  -23.6560   -8.3580   22.0970 C   0  0  0  0  0  3  0  0  0  0  0  0
  -22.4860   -8.1160   21.3400 C   0  0  0  0  0  0  0  0  0  0  0  0
  -22.0760   -9.0680   20.3890 C   0  0  0  0  0  3  0  0  0  0  0  0
  -22.8000  -10.2570   20.2070 C   0  0  0  0  0  3  0  0  0  0  0  0
  -21.7320   -6.9720   21.4290 O   0  0  0  0  0  0  0  0  0  0  0  0
  -21.6540   -6.2520   22.5940 C   0  0  0  0  0  0  0  0  0  0  0  0
  -21.1850   -6.8260   23.7950 C   0  0  0  0  0  3  0  0  0  0  0  0
  -21.0560   -6.0320   24.9520 C   0  0  0  0  0  3  0  0  0  0  0  0
  -21.3830   -4.6630   24.9080 C   0  0  0  0  0  0  0  0  0  0  0  0
  -21.8450   -4.0890   23.7100 C   0  0  0  0  0  3  0  0  0  0  0  0
  -21.9770   -4.8800   22.5560 C   0  0  0  0  0  0  0  0  0  0  0  0
  -22.4030   -4.3180   21.4000 F   0  0  0  0  0  0  0  0  0  0  0  0
  -21.2520   -3.8970   26.0150 F   0  0  0  0  0  0  0  0  0  0  0  0
  -22.8360  -13.6130   21.1440 C   0  0  0  0  0  0  0  0  0  0  0  0
  -22.1240  -12.9100   22.0170 N   0  0  0  0  0  0  0  0  0  0  0  0
  -22.3930  -14.6470   20.6440 O   0  0  0  0  0  0  0  0  0  0  0  0
  -22.4960  -12.0730   22.4410 H   0  0  0  0  0  0  0  0  0  0  0  0
  -21.1920  -13.2120   22.2670 H   0  0  0  0  0  0  0  0  0  0  0  0
  -25.4590  -15.2750   20.2910 N   0  0  0  0  0  0  0  0  0  0  0  0
  -24.7040  -15.9360   20.4410 H   0  0  0  0  0  0  0  0  0  0  0  0
  -26.3050  -15.7150   19.9540 H   0  0  0  0  0  0  0  0  0  0  0  0
  -28.7160  -25.4770   20.8500 C   0  0  0  0  0  2  0  0  0  0  0  0
  -28.3250  -26.5460   19.9050 O   0  0  0  0  0  0  0  0  0  0  0  0
  -24.6030  -31.8810   23.1930 C   0  0  0  0  0  0  0  0  0  0  0  0
  -27.2070  -27.3700   20.0650 C   0  0  0  0  0  0  0  0  0  0  0  0
  -23.3960  -30.5020   21.5400 C   0  0  0  0  0  3  0  0  0  0  0  0
  -24.8390  -28.9730   20.0940 C   0  0  0  0  0  0  0  0  0  0  0  0
  -25.9360  -30.8210   21.3560 C   0  0  0  0  0  2  0  0  0  0  0  0
  -26.0090  -29.4480   20.7050 C   0  0  0  0  0  0  0  0  0  0  0  0
  -27.1970  -28.6530   20.6940 C   0  0  0  0  0  3  0  0  0  0  0  0
  -26.0330  -26.9800   19.3920 C   0  0  0  0  0  3  0  0  0  0  0  0
  -24.8520  -27.7390   19.4300 C   0  0  0  0  0  3  0  0  0  0  0  0
  -23.6020  -29.8440   20.1530 C   0  0  0  0  0  2  0  0  0  0  0  0
  -24.6630  -31.0860   22.0840 N   0  0  0  0  0  0  0  0  0  0  0  0
  -23.5230  -32.1500   23.7380 O   0  0  0  0  0  0  0  0  0  0  0  0
  -22.7390  -29.4700   22.4870 C   0  0  0  0  0  0  0  0  0  0  0  0
  -21.4130  -29.2890   22.3660 N   0  0  0  0  0  0  0  0  0  0  0  0
  -23.4230  -28.8330   23.2940 O   0  0  0  0  0  0  0  0  0  0  0  0
  -20.9190  -29.8250   21.6640 H   0  0  0  0  0  0  0  0  0  0  0  0
  -18.0450  -28.1120   22.9010 C   0  0  0  0  0  0  0  0  0  0  0  0
  -20.6070  -28.3580   23.1550 C   0  0  0  0  0  3  0  0  0  0  0  0
  -20.6900  -26.9230   22.5870 C   0  0  0  0  0  2  0  0  0  0  0  0
  -19.5970  -26.6280   21.5540 C   0  0  0  0  0  2  0  0  0  0  0  0
  -18.2140  -26.7780   22.1920 C   0  0  0  0  0  2  0  0  0  0  0  0
  -19.1700  -28.8600   23.3390 C   0  0  0  0  0  0  0  0  0  0  0  0
  -18.9620  -30.1110   23.9580 C   0  0  0  0  0  3  0  0  0  0  0  0
  -17.6620  -30.6170   24.1410 C   0  0  0  0  0  3  0  0  0  0  0  0
  -16.5500  -29.8650   23.7240 C   0  0  0  0  0  3  0  0  0  0  0  0
  -16.7420  -28.6140   23.1110 C   0  0  0  0  0  3  0  0  0  0  0  0
  -25.8890  -32.5080   23.8130 C   0  0  0  0  0  3  0  0  0  0  0  0
  -26.4150  -31.7200   25.0780 C   0  0  1  0  0  0  0  0  0  0  0  0
  -25.3320  -31.4660   26.1520 C   0  0  0  0  0  1  0  0  0  0  0  0
  -26.9980  -30.3480   24.6670 C   0  0  0  0  0  1  0  0  0  0  0  0
  -27.5700  -32.5070   25.7420 C   0  0  0  0  0  1  0  0  0  0  0  0
  -25.5800  -33.9000   24.1640 N   0  0  0  0  0  0  0  0  0  0  0  0
  -25.9020  -34.9630   23.4140 C   0  0  0  0  0  0  0  0  0  0  0  0
  -26.5630  -34.8720   22.3770 O   0  0  0  0  0  0  0  0  0  0  0  0
  -24.9960  -34.0440   24.9730 H   0  0  0  0  0  0  0  0  0  0  0  0
  -24.1720  -36.7590   23.0930 C   0  0  0  0  0  1  0  0  0  0  0  0
  -25.4170  -36.3440   23.8930 C   0  0  0  0  0  3  0  0  0  0  0  0
  -27.5530  -37.2240   24.7260 C   0  0  0  0  0  1  0  0  0  0  0  0
  -26.4480  -37.4000   23.7870 N   0  0  0  0  0  0  0  0  0  0  0  0
  -26.0420  -38.3190   23.9420 H   0  0  0  0  0  0  0  0  0  0  0  0
  1  2  1  0
  3  1  1  0
  3  5  1  0
  4 53  1  0
  4  2  1  0
  5  7  1  0
  5  4  1  0
  5  6  1  6
  9  8  1  0
 10 13  1  0
 11  7  1  0
 11  8  2  0
 12 10  2  0
 12 11  1  0
 13 23  1  0
 13  9  2  0
 14 12  1  0
 15 23  1  0
 16 21  1  0
 17 18  1  0
 17 16  1  0
 19 18  1  0
 19 28  1  0
 19 20  1  0
 21 15  1  0
 21 20  1  0
 22 15  2  0
 23 24  1  0
 25 26  2  0
 26 45  1  0
 27 26  1  0
 27 30  1  0
 28 29  1  0
 28 25  1  0
 29 27  2  0
 30 31  1  0
 31 32  2  0
 33 36  1  0
 33 32  1  0
 34 33  2  0
 35 34  1  0
 35 30  2  0
 36 37  1  0
 37 38  1  0
 38 39  2  0
 40 39  1  0
 40 44  1  0
 41 40  2  0
 42 37  2  0
 42 41  1  0
 43 42  1  0
 45 46  1  0
 46 49  1  0
 46 48  1  0
 47 45  2  0
 50 51  1  0
 50 25  1  0
 52 50  1  0
 54 56  1  0
 54 53  1  0
 55 66  2  0
 56 61  1  0
 57 65  1  0
 57 67  1  0
 58 64  1  0
 58 60  1  0
 59 65  1  0
 60 59  1  0
 61 60  2  0
 62 63  1  0
 62 56  2  0
 63 58  2  0
 64 57  1  0
 65 55  1  0
 67 69  2  0
 68 67  1  0
 70 68  1  0
 71 80  2  0
 71 76  1  0
 72 68  1  0
 72 76  1  0
 73 72  1  0
 74 75  1  0
 74 73  1  0
 75 71  1  0
 76 77  2  0
 77 78  1  0
 79 78  2  0
 80 79  1  0
 81 55  1  0
 81 86  1  0
 81 82  1  0
 82 85  1  1
 82 83  1  0
 84 82  1  0
 86 89  1  0
 87 91  1  0
 87 86  1  0
 88 87  2  0
 91 90  1  0
 93 91  1  0
 93 94  1  0
 93 92  1  0
M  ISO  4  15 100  23 100  53 101  54 101
M  END
>  <TORSDO>  (42) 
F 19

>  <SCORE>  (42) 
-14.628

>  <name>  (42) 
41

>  <ligand_id>  (42) 
41

>  <original_smiles>  (42) 
[H]c1c([H])c([H])c2c(c1[H])C([H])([H])C([H])([H])C([H])([H])C2([H])N([H])C(=O)C1([H])N(C(=O)C([H])(N([H])C(=O)C([H])(N([H])C([H])([H])[H])C([H])([H])[H])C(C([H])([H])[H])(C([H])([H])[H])C([H])([H])[H])C([H])([H])c2c([H])c(OC([H])([H])C3([H])C([H])([H])C([H])([H])C([H])([H])[N+]3([H])C([H])([H])c3c([H])c([H])c(N([H])C(=O)N4C([H])([H])C([H])([H])C([H])([H])C([H])(n5nc(-c6c([H])c([H])c(Oc7c([H])c([H])c(F)c([H])c7F)c([H])c6[H])c(C(=O)N([H])[H])c5N([H])[H])C4([H])[H])c([H])c3C([H])([H])[H])c([H])c([H])c2C1([H])[H]

>  <smiles>  (42) 
[H]c1c([H])c([H])c2c(c1[H])C([H])([H])C([H])([H])C([H])([H])C2([H])N([H])C(=O)C1([H])N(C(=O)C([H])(N([H])C(=O)C([H])(N([H])C([H])([H])[H])C([H])([H])[H])C(C([H])([H])[H])(C([H])([H])[H])C([H])([H])[H])C([H])([H])c2c([H])c(OC([H])([H])C3([H])C([H])([H])C([H])([H])C([H])([H])[N+]3([H])C([H])([H])c3c([H])c([H])c(N([H])C(=O)N4C([H])([H])C([H])([H])C([H])([H])C([H])(n5nc(-c6c([H])c([H])c(Oc7c([H])c([H])c(F)c([H])c7F)c([H])c6[H])c(C(=O)N([H])[H])c5N([H])[H])C4([H])[H])c([H])c3C([H])([H])[H])c([H])c([H])c2C1([H])[H]

$$$$
42:0:0
     RDKit          3D

 90 98  0  0  1  0  0  0  0  0999 V2000
  -31.0930  -17.9190   20.5650 C   0  0  0  0  0  3  0  0  0  0  0  0
  -31.0950  -19.3450   20.5020 C   0  0  0  0  0  3  0  0  0  0  0  0
  -28.7000  -19.3790   20.3330 C   0  0  0  0  0  3  0  0  0  0  0  0
  -29.8810  -17.1820   20.5250 C   0  0  0  0  0  0  0  0  0  0  0  0
  -29.9090  -20.1220   20.3880 C   0  0  0  0  0  0  0  0  0  0  0  0
  -28.6910  -17.9520   20.4070 C   0  0  0  0  0  0  0  0  0  0  0  0
  -27.5060  -17.2970   20.3610 F   0  0  0  0  0  0  0  0  0  0  0  0
  -30.5680  -14.6790   20.3110 C   0  0  0  0  0  0  0  0  0  0  0  0
  -30.3460  -12.4480   19.2340 C   0  0  0  0  0  2  0  0  0  0  0  0
  -29.3930  -12.5890   18.0260 C   0  0  0  0  0  2  0  0  0  0  0  0
  -27.9220  -12.4340   18.4630 C   0  0  0  0  0  2  0  0  0  0  0  0
  -27.5740  -13.2900   19.7100 C   0  0  0  0  0  3  0  0  0  0  0  0
  -28.6390  -13.1200   20.8180 C   0  0  0  0  0  2  0  0  0  0  0  0
  -29.9480  -13.4590   20.2340 N   0  0  0  0  0  0  0  0  0  0  0  0
  -31.7320  -14.8330   19.9340 O   0  0  0  0  0  0  0  0  0  0  0  0
  -29.7540  -15.7290   20.6430 N   0  0  0  0  0  0  0  0  0  0  0  0
  -28.8180  -15.4350   20.8750 H   0  0  0  0  0  0  0  0  0  0  0  0
  -25.1820  -13.8950   20.4320 C   0  0  0  0  0  0  0  0  0  0  0  0
  -24.1150  -13.1250   20.8040 C   0  0  0  0  0  0  0  0  0  0  0  0
  -24.5760  -11.7720   20.7780 C   0  0  0  0  0  0  0  0  0  0  0  0
  -26.2260  -13.0130   20.2010 N   0  0  0  0  0  0  0  0  0  0  0  0
  -25.8660  -11.7310   20.4680 N   0  0  0  0  0  0  0  0  0  0  0  0
  -23.8480  -10.5130   20.9740 C   0  0  0  0  0  0  0  0  0  0  0  0
  -24.2760   -9.5510   21.9150 C   0  0  0  0  0  3  0  0  0  0  0  0
  -23.5480   -8.3540   22.0980 C   0  0  0  0  0  3  0  0  0  0  0  0
  -22.3770   -8.1130   21.3420 C   0  0  0  0  0  0  0  0  0  0  0  0
  -21.9680   -9.0640   20.3910 C   0  0  0  0  0  3  0  0  0  0  0  0
  -22.6970  -10.2510   20.2050 C   0  0  0  0  0  3  0  0  0  0  0  0
  -21.6220   -6.9700   21.4330 O   0  0  0  0  0  0  0  0  0  0  0  0
  -21.5600   -6.2390   22.5930 C   0  0  0  0  0  0  0  0  0  0  0  0
  -21.1070   -6.8040   23.8060 C   0  0  0  0  0  3  0  0  0  0  0  0
  -20.9940   -6.0000   24.9580 C   0  0  0  0  0  3  0  0  0  0  0  0
  -21.3220   -4.6320   24.8980 C   0  0  0  0  0  0  0  0  0  0  0  0
  -21.7670   -4.0660   23.6900 C   0  0  0  0  0  3  0  0  0  0  0  0
  -21.8820   -4.8680   22.5400 C   0  0  0  0  0  0  0  0  0  0  0  0
  -22.2920   -4.3140   21.3730 F   0  0  0  0  0  0  0  0  0  0  0  0
  -21.2050   -3.8570   26.0010 F   0  0  0  0  0  0  0  0  0  0  0  0
  -22.7190  -13.6050   21.0780 C   0  0  0  0  0  0  0  0  0  0  0  0
  -21.9920  -12.9140   21.9490 N   0  0  0  0  0  0  0  0  0  0  0  0
  -22.2810  -14.6300   20.5560 O   0  0  0  0  0  0  0  0  0  0  0  0
  -22.3580  -12.0850   22.3930 H   0  0  0  0  0  0  0  0  0  0  0  0
  -21.0560  -13.2180   22.1750 H   0  0  0  0  0  0  0  0  0  0  0  0
  -25.3430  -15.2660   20.2560 N   0  0  0  0  0  0  0  0  0  0  0  0
  -24.5770  -15.9130   20.3970 H   0  0  0  0  0  0  0  0  0  0  0  0
  -26.2090  -15.7380   20.0180 H   0  0  0  0  0  0  0  0  0  0  0  0
  -30.0250  -21.5300   20.3580 O   0  0  0  0  0  0  0  0  0  0  0  0
  -28.8960  -22.4420   20.1650 C   0  0  0  0  0  2  0  0  0  0  0  0
  -29.2560  -23.9960   20.2800 C   0  0  0  0  0  3  0  0  0  0  0  0
  -28.1150  -25.0540   19.9510 C   0  0  0  0  0  3  0  0  0  0  0  0
  -28.3390  -26.5060   20.1590 O   0  0  0  0  0  0  0  0  0  0  0  0
  -24.6140  -31.8650   23.2520 C   0  0  0  0  0  0  0  0  0  0  0  0
  -27.2190  -27.3560   20.1210 C   0  0  0  0  0  0  0  0  0  0  0  0
  -23.4060  -30.4950   21.5920 C   0  0  0  0  0  3  0  0  0  0  0  0
  -24.8530  -28.9680   20.1410 C   0  0  0  0  0  0  0  0  0  0  0  0
  -25.9460  -30.8150   21.4110 C   0  0  0  0  0  2  0  0  0  0  0  0
  -26.0230  -29.4470   20.7430 C   0  0  0  0  0  0  0  0  0  0  0  0
  -27.2090  -28.6530   20.7210 C   0  0  0  0  0  3  0  0  0  0  0  0
  -26.0200  -26.9330   19.4980 C   0  0  0  0  0  3  0  0  0  0  0  0
  -24.8540  -27.7170   19.5100 C   0  0  0  0  0  3  0  0  0  0  0  0
  -23.6170  -29.8420   20.2020 C   0  0  0  0  0  2  0  0  0  0  0  0
  -24.6750  -31.0740   22.1420 N   0  0  0  0  0  0  0  0  0  0  0  0
  -23.5310  -32.1370   23.7920 O   0  0  0  0  0  0  0  0  0  0  0  0
  -22.7430  -29.4640   22.5360 C   0  0  0  0  0  0  0  0  0  0  0  0
  -21.4170  -29.2900   22.4050 N   0  0  0  0  0  0  0  0  0  0  0  0
  -23.4200  -28.8240   23.3450 O   0  0  0  0  0  0  0  0  0  0  0  0
  -20.9300  -29.8560   21.7250 H   0  0  0  0  0  0  0  0  0  0  0  0
  -18.0360  -28.0990   22.8910 C   0  0  0  0  0  0  0  0  0  0  0  0
  -20.5950  -28.3430   23.1610 C   0  0  0  0  0  3  0  0  0  0  0  0
  -20.6890  -26.9200   22.5620 C   0  0  0  0  0  2  0  0  0  0  0  0
  -19.5850  -26.6200   21.5440 C   0  0  0  0  0  2  0  0  0  0  0  0
  -18.2040  -26.7600   22.1930 C   0  0  0  0  0  2  0  0  0  0  0  0
  -19.1580  -28.8490   23.3310 C   0  0  0  0  0  0  0  0  0  0  0  0
  -18.9450  -30.1030   23.9450 C   0  0  0  0  0  3  0  0  0  0  0  0
  -17.6430  -30.6080   24.1200 C   0  0  0  0  0  3  0  0  0  0  0  0
  -16.5350  -29.8550   23.6960 C   0  0  0  0  0  3  0  0  0  0  0  0
  -16.7310  -28.6020   23.0870 C   0  0  0  0  0  3  0  0  0  0  0  0
  -25.8970  -32.4860   23.8840 C   0  0  0  0  0  3  0  0  0  0  0  0
  -26.4020  -31.7040   25.1580 C   0  0  1  0  0  0  0  0  0  0  0  0
  -25.3030  -31.4670   26.2190 C   0  0  0  0  0  1  0  0  0  0  0  0
  -26.9780  -30.3240   24.7620 C   0  0  0  0  0  1  0  0  0  0  0  0
  -27.5540  -32.4870   25.8300 C   0  0  0  0  0  1  0  0  0  0  0  0
  -25.5960  -33.8840   24.2200 N   0  0  0  0  0  0  0  0  0  0  0  0
  -25.9130  -34.9370   23.4560 C   0  0  0  0  0  0  0  0  0  0  0  0
  -26.5620  -34.8340   22.4100 O   0  0  0  0  0  0  0  0  0  0  0  0
  -25.0160  -34.0380   25.0330 H   0  0  0  0  0  0  0  0  0  0  0  0
  -24.1680  -36.7240   23.1540 C   0  0  0  0  0  1  0  0  0  0  0  0
  -25.4370  -36.3260   23.9240 C   0  0  0  0  0  3  0  0  0  0  0  0
  -27.5930  -37.2240   24.6820 C   0  0  0  0  0  1  0  0  0  0  0  0
  -26.4620  -37.3820   23.7720 N   0  0  0  0  0  0  0  0  0  0  0  0
  -26.0580  -38.3010   23.9250 H   0  0  0  0  0  0  0  0  0  0  0  0
  2  1  2  0
  3  5  2  0
  3  6  1  0
  4  1  1  0
  4 16  1  0
  5  2  1  0
  6  4  2  0
  7  6  1  0
  8 16  1  0
  9 14  1  0
 10 11  1  0
 10  9  1  0
 12 11  1  0
 12 21  1  0
 12 13  1  0
 14  8  1  0
 14 13  1  0
 15  8  2  0
 16 17  1  0
 18 19  2  0
 19 38  1  0
 20 19  1  0
 20 23  1  0
 21 18  1  0
 21 22  1  0
 22 20  2  0
 23 24  1  0
 24 25  2  0
 26 29  1  0
 26 25  1  0
 27 26  2  0
 28 27  1  0
 28 23  2  0
 29 30  1  0
 30 31  1  0
 31 32  2  0
 33 32  1  0
 33 37  1  0
 34 33  2  0
 35 30  2  0
 35 34  1  0
 36 35  1  0
 38 39  1  0
 39 42  1  0
 39 41  1  0
 40 38  2  0
 43 44  1  0
 43 18  1  0
 45 43  1  0
 46  5  1  0
 47 48  1  0
 47 46  1  0
 49 50  1  0
 49 48  2  0
 51 62  2  0
 52 50  1  0
 52 57  1  0
 53 61  1  0
 53 63  1  0
 54 60  1  0
 54 56  1  0
 55 61  1  0
 56 55  1  0
 57 56  2  0
 58 59  1  0
 58 52  2  0
 59 54  2  0
 60 53  1  0
 61 51  1  0
 63 65  2  0
 64 63  1  0
 66 64  1  0
 67 76  2  0
 67 72  1  0
 68 64  1  0
 68 72  1  0
 69 68  1  0
 70 71  1  0
 70 69  1  0
 71 67  1  0
 72 73  2  0
 73 74  1  0
 75 74  2  0
 76 75  1  0
 77 51  1  0
 77 82  1  0
 77 78  1  0
 78 81  1  1
 78 79  1  0
 80 78  1  0
 82 85  1  0
 83 87  1  0
 83 82  1  0
 84 83  2  0
 87 86  1  0
 89 87  1  0
 89 90  1  0
 89 88  1  0
M  ISO  4   8 100  16 100  49 101  50 101
M  END
>  <TORSDO>  (43) 
F 20

>  <SCORE>  (43) 
-14.070

>  <name>  (43) 
42

>  <ligand_id>  (43) 
42

>  <original_smiles>  (43) 
[H]c1c([H])c([H])c2c(c1[H])C([H])([H])C([H])([H])C([H])([H])C2([H])N([H])C(=O)C1([H])N(C(=O)C([H])(N([H])C(=O)C([H])(N([H])C([H])([H])[H])C([H])([H])[H])C(C([H])([H])[H])(C([H])([H])[H])C([H])([H])[H])C([H])([H])c2c([H])c(OC([H])([H])C([H])([H])C([H])([H])Oc3c([H])c([H])c(N([H])C(=O)N4C([H])([H])C([H])([H])C([H])([H])C([H])(n5nc(-c6c([H])c([H])c(Oc7c([H])c([H])c(F)c([H])c7F)c([H])c6[H])c(C(=O)N([H])[H])c5N([H])[H])C4([H])[H])c(F)c3[H])c([H])c([H])c2C1([H])[H]

>  <smiles>  (43) 
[H]c1c([H])c([H])c2c(c1[H])C([H])([H])C([H])([H])C([H])([H])C2([H])N([H])C(=O)C1([H])N(C(=O)C([H])(N([H])C(=O)C([H])(N([H])C([H])([H])[H])C([H])([H])[H])C(C([H])([H])[H])(C([H])([H])[H])C([H])([H])[H])C([H])([H])c2c([H])c(OC([H])([H])C([H])([H])C([H])([H])Oc3c([H])c([H])c(N([H])C(=O)N4C([H])([H])C([H])([H])C([H])([H])C([H])(n5nc(-c6c([H])c([H])c(Oc7c([H])c([H])c(F)c([H])c7F)c([H])c6[H])c(C(=O)N([H])[H])c5N([H])[H])C4([H])[H])c(F)c3[H])c([H])c([H])c2C1([H])[H]

$$$$
43:0:0
     RDKit          3D

 88 96  0  0  1  0  0  0  0  0999 V2000
  -31.7310  -19.5950   20.5760 C   0  0  0  0  0  3  0  0  0  0  0  0
  -31.3480  -18.2320   20.5430 C   0  0  0  0  0  3  0  0  0  0  0  0
  -30.8110  -20.6690   20.5080 C   0  0  0  0  0  3  0  0  0  0  0  0
  -29.0630  -18.9980   20.3710 C   0  0  0  0  0  3  0  0  0  0  0  0
  -29.9990  -17.8200   20.4400 C   0  0  0  0  0  0  0  0  0  0  0  0
  -29.4210  -20.4630   20.3980 C   0  0  0  0  0  0  0  0  0  0  0  0
  -30.4830  -15.0790   20.3150 C   0  0  0  0  0  0  0  0  0  0  0  0
  -30.3790  -12.7120   19.3690 C   0  0  0  0  0  2  0  0  0  0  0  0
  -29.4310  -12.6330   18.1500 C   0  0  0  0  0  2  0  0  0  0  0  0
  -27.9790  -12.3950   18.6060 C   0  0  0  0  0  2  0  0  0  0  0  0
  -27.5740  -13.3170   19.7860 C   0  0  0  0  0  3  0  0  0  0  0  0
  -28.6460  -13.3620   20.8950 C   0  0  0  0  0  2  0  0  0  0  0  0
  -29.8920  -13.8100   20.2600 N   0  0  0  0  0  0  0  0  0  0  0  0
  -31.6900  -15.1140   20.0460 O   0  0  0  0  0  0  0  0  0  0  0  0
  -29.7010  -16.2870   20.4420 N   0  0  0  0  0  0  0  0  0  0  0  0
  -28.7200  -16.0730   20.5450 H   0  0  0  0  0  0  0  0  0  0  0  0
  -25.2040  -13.8620   20.5740 C   0  0  0  0  0  0  0  0  0  0  0  0
  -24.1530  -13.0750   20.9510 C   0  0  0  0  0  0  0  0  0  0  0  0
  -24.6270  -11.7280   20.8970 C   0  0  0  0  0  0  0  0  0  0  0  0
  -26.2500  -12.9970   20.3060 N   0  0  0  0  0  0  0  0  0  0  0  0
  -25.9150  -11.7060   20.5680 N   0  0  0  0  0  0  0  0  0  0  0  0
  -23.9130  -10.4580   21.0810 C   0  0  0  0  0  0  0  0  0  0  0  0
  -24.3630   -9.4820   21.9980 C   0  0  0  0  0  3  0  0  0  0  0  0
  -23.6460   -8.2780   22.1710 C   0  0  0  0  0  3  0  0  0  0  0  0
  -22.4640   -8.0420   21.4290 C   0  0  0  0  0  0  0  0  0  0  0  0
  -22.0330   -9.0080   20.5020 C   0  0  0  0  0  3  0  0  0  0  0  0
  -22.7510  -10.2020   20.3260 C   0  0  0  0  0  3  0  0  0  0  0  0
  -21.7170   -6.8920   21.5140 O   0  0  0  0  0  0  0  0  0  0  0  0
  -21.6850   -6.1380   22.6590 C   0  0  0  0  0  0  0  0  0  0  0  0
  -21.2500   -6.6720   23.8910 C   0  0  0  0  0  3  0  0  0  0  0  0
  -21.1660   -5.8430   25.0270 C   0  0  0  0  0  3  0  0  0  0  0  0
  -21.5060   -4.4810   24.9320 C   0  0  0  0  0  0  0  0  0  0  0  0
  -21.9340   -3.9460   23.7060 C   0  0  0  0  0  3  0  0  0  0  0  0
  -22.0200   -4.7710   22.5710 C   0  0  0  0  0  0  0  0  0  0  0  0
  -22.4120   -4.2460   21.3850 F   0  0  0  0  0  0  0  0  0  0  0  0
  -21.4190   -3.6820   26.0230 F   0  0  0  0  0  0  0  0  0  0  0  0
  -22.7560  -13.5380   21.2440 C   0  0  0  0  0  0  0  0  0  0  0  0
  -22.0460  -12.8310   22.1160 N   0  0  0  0  0  0  0  0  0  0  0  0
  -22.3030  -14.5620   20.7350 O   0  0  0  0  0  0  0  0  0  0  0  0
  -22.4260  -12.0010   22.5480 H   0  0  0  0  0  0  0  0  0  0  0  0
  -21.1080  -13.1230   22.3550 H   0  0  0  0  0  0  0  0  0  0  0  0
  -25.3510  -15.2360   20.4080 N   0  0  0  0  0  0  0  0  0  0  0  0
  -24.5730  -15.8760   20.5280 H   0  0  0  0  0  0  0  0  0  0  0  0
  -26.1720  -15.6840   20.0220 H   0  0  0  0  0  0  0  0  0  0  0  0
  -28.5370  -21.6530   20.3190 O   0  0  0  0  0  0  0  0  0  0  0  0
  -28.9340  -23.1800   20.3950 C   0  0  0  0  0  3  0  0  0  0  0  0
  -27.9180  -24.5570   20.1850 C   0  0  0  0  0  3  0  0  0  0  0  0
  -28.2060  -26.1090   20.3330 O   0  0  0  0  0  0  0  0  0  0  0  0
  -24.6190  -31.9130   23.2590 C   0  0  0  0  0  0  0  0  0  0  0  0
  -27.1690  -27.1290   20.2600 C   0  0  0  0  0  0  0  0  0  0  0  0
  -23.4180  -30.5200   21.6220 C   0  0  0  0  0  3  0  0  0  0  0  0
  -24.8600  -28.9240   20.2080 C   0  0  0  0  0  0  0  0  0  0  0  0
  -25.9770  -30.7550   21.4690 C   0  0  0  0  0  2  0  0  0  0  0  0
  -26.0440  -29.3560   20.8210 C   0  0  0  0  0  0  0  0  0  0  0  0
  -27.1980  -28.4770   20.8260 C   0  0  0  0  0  3  0  0  0  0  0  0
  -25.9570  -26.8130   19.6070 C   0  0  0  0  0  3  0  0  0  0  0  0
  -24.8330  -27.6690   19.5840 C   0  0  0  0  0  3  0  0  0  0  0  0
  -23.6420  -29.8350   20.2470 C   0  0  0  0  0  2  0  0  0  0  0  0
  -24.6920  -31.0860   22.1710 N   0  0  0  0  0  0  0  0  0  0  0  0
  -23.5320  -32.2090   23.7810 O   0  0  0  0  0  0  0  0  0  0  0  0
  -22.7250  -29.5230   22.5860 C   0  0  0  0  0  0  0  0  0  0  0  0
  -21.3960  -29.3620   22.4560 N   0  0  0  0  0  0  0  0  0  0  0  0
  -23.3870  -28.8960   23.4160 O   0  0  0  0  0  0  0  0  0  0  0  0
  -20.9160  -29.9190   21.7610 H   0  0  0  0  0  0  0  0  0  0  0  0
  -18.0030  -28.1890   22.9570 C   0  0  0  0  0  0  0  0  0  0  0  0
  -20.5650  -28.4340   23.2280 C   0  0  0  0  0  3  0  0  0  0  0  0
  -20.6550  -26.9990   22.6580 C   0  0  0  0  0  2  0  0  0  0  0  0
  -19.5520  -26.6820   21.6420 C   0  0  0  0  0  2  0  0  0  0  0  0
  -18.1710  -26.8370   22.2830 C   0  0  0  0  0  2  0  0  0  0  0  0
  -19.1270  -28.9450   23.3870 C   0  0  0  0  0  0  0  0  0  0  0  0
  -18.9140  -30.2090   23.9790 C   0  0  0  0  0  3  0  0  0  0  0  0
  -17.6120  -30.7170   24.1450 C   0  0  0  0  0  3  0  0  0  0  0  0
  -16.5040  -29.9590   23.7300 C   0  0  0  0  0  3  0  0  0  0  0  0
  -16.7000  -28.6960   23.1430 C   0  0  0  0  0  3  0  0  0  0  0  0
  -25.8970  -32.5450   23.8900 C   0  0  0  0  0  3  0  0  0  0  0  0
  -26.3980  -31.7760   25.1750 C   0  0  1  0  0  0  0  0  0  0  0  0
  -25.2950  -31.5510   26.2360 C   0  0  0  0  0  1  0  0  0  0  0  0
  -26.9760  -30.3940   24.7990 C   0  0  0  0  0  1  0  0  0  0  0  0
  -27.5480  -32.5680   25.8420 C   0  0  0  0  0  1  0  0  0  0  0  0
  -25.5880  -33.9460   24.2210 N   0  0  0  0  0  0  0  0  0  0  0  0
  -25.9010  -35.0010   23.4570 C   0  0  0  0  0  0  0  0  0  0  0  0
  -26.5440  -34.8970   22.4100 O   0  0  0  0  0  0  0  0  0  0  0  0
  -25.0130  -34.1010   25.0360 H   0  0  0  0  0  0  0  0  0  0  0  0
  -24.1500  -36.7860   23.1660 C   0  0  0  0  0  1  0  0  0  0  0  0
  -25.4270  -36.3910   23.9270 C   0  0  0  0  0  3  0  0  0  0  0  0
  -27.5860  -37.2980   24.6650 C   0  0  0  0  0  1  0  0  0  0  0  0
  -26.4470  -37.4490   23.7630 N   0  0  0  0  0  0  0  0  0  0  0  0
  -26.0420  -38.3690   23.9170 H   0  0  0  0  0  0  0  0  0  0  0  0
  2  1  1  0
  3  1  2  0
  4  6  2  0
  4  5  1  0
  5 15  1  0
  5  2  2  0
  6  3  1  0
  7 15  1  0
  8 13  1  0
  9 10  1  0
  9  8  1  0
 11 10  1  0
 11 20  1  0
 11 12  1  0
 13  7  1  0
 13 12  1  0
 14  7  2  0
 15 16  1  0
 17 18  2  0
 18 37  1  0
 19 18  1  0
 19 22  1  0
 20 21  1  0
 20 17  1  0
 21 19  2  0
 22 23  1  0
 23 24  2  0
 25 28  1  0
 25 24  1  0
 26 25  2  0
 27 26  1  0
 27 22  2  0
 28 29  1  0
 29 30  1  0
 30 31  2  0
 32 31  1  0
 32 36  1  0
 33 32  2  0
 34 29  2  0
 34 33  1  0
 35 34  1  0
 37 38  1  0
 38 41  1  0
 38 40  1  0
 39 37  2  0
 42 43  1  0
 42 17  1  0
 44 42  1  0
 45 46  1  0
 45  6  1  0
 47 48  1  0
 47 46  2  0
 49 60  2  0
 50 48  1  0
 50 55  1  0
 51 59  1  0
 51 61  1  0
 52 58  1  0
 52 54  1  0
 53 59  1  0
 54 55  2  0
 54 53  1  0
 56 50  2  0
 57 56  1  0
 57 52  2  0
 58 51  1  0
 59 49  1  0
 61 63  2  0
 62 61  1  0
 64 62  1  0
 65 74  2  0
 65 70  1  0
 66 62  1  0
 66 70  1  0
 67 66  1  0
 68 69  1  0
 68 67  1  0
 69 65  1  0
 70 71  2  0
 71 72  1  0
 73 72  2  0
 74 73  1  0
 75 49  1  0
 75 80  1  0
 75 76  1  0
 76 79  1  1
 76 77  1  0
 78 76  1  0
 80 83  1  0
 81 85  1  0
 81 80  1  0
 82 81  2  0
 85 84  1  0
 87 88  1  0
 87 85  1  0
 87 86  1  0
M  ISO  4   7 100  15 100  47 101  48 101
M  END
>  <TORSDO>  (44) 
F 19

>  <SCORE>  (44) 
-15.046

>  <name>  (44) 
43

>  <ligand_id>  (44) 
43

>  <original_smiles>  (44) 
[H]c1c([H])c(OC([H])([H])C([H])([H])Oc2c([H])c([H])c3c(c2[H])C([H])([H])N(C(=O)C([H])(N([H])C(=O)C([H])(N([H])C([H])([H])[H])C([H])([H])[H])C(C([H])([H])[H])(C([H])([H])[H])C([H])([H])[H])C([H])(C(=O)N([H])C2([H])c4c([H])c([H])c([H])c([H])c4C([H])([H])C([H])([H])C2([H])[H])C3([H])[H])c([H])c(N([H])C(=O)N2C([H])([H])C([H])([H])C([H])([H])C([H])(n3nc(-c4c([H])c([H])c(Oc5c([H])c([H])c(F)c([H])c5F)c([H])c4[H])c(C(=O)N([H])[H])c3N([H])[H])C2([H])[H])c1[H]

>  <smiles>  (44) 
[H]c1c([H])c(OC([H])([H])C([H])([H])Oc2c([H])c([H])c3c(c2[H])C([H])([H])N(C(=O)C([H])(N([H])C(=O)C([H])(N([H])C([H])([H])[H])C([H])([H])[H])C(C([H])([H])[H])(C([H])([H])[H])C([H])([H])[H])C([H])(C(=O)N([H])C2([H])c4c([H])c([H])c([H])c([H])c4C([H])([H])C([H])([H])C2([H])[H])C3([H])[H])c([H])c(N([H])C(=O)N2C([H])([H])C([H])([H])C([H])([H])C([H])(n3nc(-c4c([H])c([H])c(Oc5c([H])c([H])c(F)c([H])c5F)c([H])c4[H])c(C(=O)N([H])[H])c3N([H])[H])C2([H])[H])c1[H]

$$$$
44:0:0
     RDKit          3D

 90 99  0  0  1  0  0  0  0  0999 V2000
  -28.5790  -23.6290   21.7820 C   0  0  0  0  0  2  0  0  0  0  0  0
  -29.1430  -22.1190   21.7030 C   0  0  0  0  0  2  0  0  0  0  0  0
  -28.3210  -22.7660   19.6190 C   0  0  0  0  0  2  0  0  0  0  0  0
  -28.5260  -24.3000   20.3860 C   0  0  0  0  0  3  0  0  0  0  0  0
  -29.0850  -21.5190   20.3230 N   0  0  2  0  0  4  0  0  0  0  0  0
  -30.0330  -21.6090   19.9870 H   0  0  0  0  0  0  0  0  0  0  0  0
  -30.4220  -15.3780   19.8500 C   0  0  0  0  0  0  0  0  0  0  0  0
  -30.3590  -12.9370   18.9470 C   0  0  0  0  0  2  0  0  0  0  0  0
  -29.3620  -12.7410   17.7750 C   0  0  0  0  0  2  0  0  0  0  0  0
  -27.9490  -12.4400   18.3050 C   0  0  0  0  0  2  0  0  0  0  0  0
  -27.5590  -13.3780   19.4720 C   0  0  0  0  0  3  0  0  0  0  0  0
  -28.6760  -13.5390   20.5190 C   0  0  0  0  0  2  0  0  0  0  0  0
  -29.8630  -14.0630   19.8270 N   0  0  0  0  0  0  0  0  0  0  0  0
  -31.6370  -15.3400   19.5920 O   0  0  0  0  0  0  0  0  0  0  0  0
  -28.6340  -19.0150   18.9250 C   0  0  0  0  0  2  0  0  0  0  0  0
  -28.6970  -17.3610   19.0450 C   0  0  0  0  0  2  0  0  0  0  0  0
  -28.8550  -19.8440   20.2620 C   0  0  0  0  0  3  0  0  0  0  0  0
  -29.7140  -16.7890   20.0250 N   0  0  0  0  0  0  0  0  0  0  0  0
  -31.4890  -18.8290   20.2500 O   0  0  0  0  0  0  0  0  0  0  0  0
  -30.0920  -18.2540   22.2840 O   0  0  0  0  0  0  0  0  0  0  0  0
  -30.1910  -18.4310   20.8240 S   0  0  1  0  0  0  0  0  0  0  0  0
  -25.2550  -13.8770   20.4360 C   0  0  0  0  0  0  0  0  0  0  0  0
  -24.2320  -13.0760   20.8570 C   0  0  0  0  0  0  0  0  0  0  0  0
  -24.7090  -11.7330   20.7450 C   0  0  0  0  0  0  0  0  0  0  0  0
  -26.2820  -13.0240   20.0770 N   0  0  0  0  0  0  0  0  0  0  0  0
  -25.9740  -11.7260   20.3350 N   0  0  0  0  0  0  0  0  0  0  0  0
  -24.0090  -10.4580   20.9470 C   0  0  0  0  0  0  0  0  0  0  0  0
  -24.4740   -9.4950   21.8690 C   0  0  0  0  0  3  0  0  0  0  0  0
  -23.7690   -8.2870   22.0590 C   0  0  0  0  0  3  0  0  0  0  0  0
  -22.5850   -8.0320   21.3270 C   0  0  0  0  0  0  0  0  0  0  0  0
  -22.1380   -8.9850   20.3930 C   0  0  0  0  0  3  0  0  0  0  0  0
  -22.8440  -10.1840   20.2020 C   0  0  0  0  0  3  0  0  0  0  0  0
  -21.8490   -6.8760   21.4270 O   0  0  0  0  0  0  0  0  0  0  0  0
  -21.7780   -6.1670   22.6000 C   0  0  0  0  0  0  0  0  0  0  0  0
  -21.3060   -6.7510   23.7960 C   0  0  0  0  0  3  0  0  0  0  0  0
  -21.1830   -5.9670   24.9610 C   0  0  0  0  0  3  0  0  0  0  0  0
  -21.5220   -4.6020   24.9300 C   0  0  0  0  0  0  0  0  0  0  0  0
  -21.9880   -4.0180   23.7390 C   0  0  0  0  0  3  0  0  0  0  0  0
  -22.1120   -4.7990   22.5760 C   0  0  0  0  0  0  0  0  0  0  0  0
  -22.5400   -4.2250   21.4250 F   0  0  0  0  0  0  0  0  0  0  0  0
  -21.3990   -3.8460   26.0470 F   0  0  0  0  0  0  0  0  0  0  0  0
  -22.8550  -13.5290   21.2420 C   0  0  0  0  0  0  0  0  0  0  0  0
  -22.2010  -12.8060   22.1420 N   0  0  0  0  0  0  0  0  0  0  0  0
  -22.3710  -14.5620   20.7790 O   0  0  0  0  0  0  0  0  0  0  0  0
  -22.6080  -11.9710   22.5370 H   0  0  0  0  0  0  0  0  0  0  0  0
  -21.2790  -13.0910   22.4420 H   0  0  0  0  0  0  0  0  0  0  0  0
  -25.3920  -15.2560   20.2980 N   0  0  0  0  0  0  0  0  0  0  0  0
  -24.6330  -15.8970   20.5040 H   0  0  0  0  0  0  0  0  0  0  0  0
  -26.2140  -15.7150   19.9350 H   0  0  0  0  0  0  0  0  0  0  0  0
  -28.3110  -25.9550   20.2150 O   0  0  0  0  0  0  0  0  0  0  0  0
  -24.6750  -31.8810   23.2280 C   0  0  0  0  0  0  0  0  0  0  0  0
  -27.2210  -26.9730   20.2470 C   0  0  0  0  0  0  0  0  0  0  0  0
  -23.4760  -30.4790   21.5970 C   0  0  0  0  0  3  0  0  0  0  0  0
  -24.9180  -28.8530   20.1900 C   0  0  0  0  0  0  0  0  0  0  0  0
  -26.0420  -30.6860   21.4420 C   0  0  0  0  0  2  0  0  0  0  0  0
  -26.1070  -29.2670   20.8000 C   0  0  0  0  0  0  0  0  0  0  0  0
  -27.2530  -28.3530   20.7930 C   0  0  0  0  0  3  0  0  0  0  0  0
  -25.9960  -26.7010   19.5990 C   0  0  0  0  0  3  0  0  0  0  0  0
  -24.8870  -27.5910   19.5700 C   0  0  0  0  0  3  0  0  0  0  0  0
  -23.7030  -29.7820   20.2270 C   0  0  0  0  0  2  0  0  0  0  0  0
  -24.7530  -31.0430   22.1430 N   0  0  0  0  0  0  0  0  0  0  0  0
  -23.5870  -32.1740   23.7500 O   0  0  0  0  0  0  0  0  0  0  0  0
  -22.7830  -29.4900   22.5700 C   0  0  0  0  0  0  0  0  0  0  0  0
  -21.4530  -29.3220   22.4430 N   0  0  0  0  0  0  0  0  0  0  0  0
  -23.4470  -28.8730   23.4060 O   0  0  0  0  0  0  0  0  0  0  0  0
  -20.9700  -29.8710   21.7460 H   0  0  0  0  0  0  0  0  0  0  0  0
  -18.0760  -28.0930   22.9380 C   0  0  0  0  0  0  0  0  0  0  0  0
  -20.6310  -28.3870   23.2180 C   0  0  0  0  0  3  0  0  0  0  0  0
  -20.7510  -26.9480   22.6610 C   0  0  0  0  0  2  0  0  0  0  0  0
  -19.6600  -26.6040   21.6420 C   0  0  0  0  0  2  0  0  0  0  0  0
  -18.2720  -26.7400   22.2740 C   0  0  0  0  0  2  0  0  0  0  0  0
  -19.1840  -28.8720   23.3670 C   0  0  0  0  0  0  0  0  0  0  0  0
  -18.9440  -30.1350   23.9500 C   0  0  0  0  0  3  0  0  0  0  0  0
  -17.6330  -30.6200   24.1080 C   0  0  0  0  0  3  0  0  0  0  0  0
  -16.5400  -29.8390   23.6930 C   0  0  0  0  0  3  0  0  0  0  0  0
  -16.7630  -28.5770   23.1140 C   0  0  0  0  0  3  0  0  0  0  0  0
  -25.9470  -32.5250   23.8580 C   0  0  0  0  0  3  0  0  0  0  0  0
  -25.6280  -33.9250   24.1950 N   0  0  0  0  0  0  0  0  0  0  0  0
  -25.9440  -34.9870   23.4430 C   0  0  0  0  0  0  0  0  0  0  0  0
  -26.5970  -34.8930   22.4000 O   0  0  0  0  0  0  0  0  0  0  0  0
  -25.0450  -34.0700   25.0060 H   0  0  0  0  0  0  0  0  0  0  0  0
  -24.1940  -36.7760   23.1530 C   0  0  0  0  0  1  0  0  0  0  0  0
  -25.4640  -36.3740   23.9200 C   0  0  0  0  0  3  0  0  0  0  0  0
  -27.6160  -37.2800   24.6830 C   0  0  0  0  0  1  0  0  0  0  0  0
  -26.4850  -37.4350   23.7720 N   0  0  0  0  0  0  0  0  0  0  0  0
  -26.0770  -38.3530   23.9250 H   0  0  0  0  0  0  0  0  0  0  0  0
  -26.4560  -31.7630   25.1440 C   0  0  1  0  0  0  0  0  0  0  0  0
  -25.3570  -31.5340   26.2100 C   0  0  0  0  0  1  0  0  0  0  0  0
  -27.0390  -30.3800   24.7720 C   0  0  0  0  0  1  0  0  0  0  0  0
  -27.6040  -32.5600   25.8060 C   0  0  0  0  0  1  0  0  0  0  0  0
  2  1  1  0
  3  5  1  0
  3  4  1  0
  4 50  1  0
  4  1  1  0
  5  6  1  6
  5  2  1  0
  7 18  1  0
  8 13  1  0
  9 10  1  0
  9  8  1  0
 11 10  1  0
 11 25  1  0
 11 12  1  0
 13  7  1  0
 13 12  1  0
 14  7  2  0
 15 16  1  0
 16 18  1  0
 17 15  1  0
 17  5  1  0
 21 17  1  6
 18 21  1  0
 19 21  2  0
 21 20  2  0
 22 23  2  0
 23 42  1  0
 24 23  1  0
 24 27  1  0
 25 26  1  0
 25 22  1  0
 26 24  2  0
 27 28  1  0
 28 29  2  0
 30 33  1  0
 30 29  1  0
 31 30  2  0
 32 31  1  0
 32 27  2  0
 33 34  1  0
 34 35  1  0
 35 36  2  0
 37 36  1  0
 37 41  1  0
 38 37  2  0
 39 34  2  0
 39 38  1  0
 40 39  1  0
 42 43  1  0
 43 46  1  0
 43 45  1  0
 44 42  2  0
 47 22  1  0
 47 48  1  0
 49 47  1  0
 50 52  1  0
 51 62  2  0
 52 57  1  0
 53 61  1  0
 53 63  1  0
 54 60  1  0
 54 56  1  0
 55 61  1  0
 56 55  1  0
 57 56  2  0
 58 52  2  0
 59 58  1  0
 59 54  2  0
 60 53  1  0
 61 51  1  0
 63 65  2  0
 64 63  1  0
 66 64  1  0
 67 76  2  0
 67 72  1  0
 68 64  1  0
 68 72  1  0
 69 68  1  0
 70 71  1  0
 70 69  1  0
 71 67  1  0
 72 73  2  0
 73 74  1  0
 75 74  2  0
 76 75  1  0
 77 51  1  0
 77 78  1  0
 77 87  1  0
 78 81  1  0
 79 83  1  0
 79 78  1  0
 80 79  2  0
 83 82  1  0
 85 83  1  0
 85 86  1  0
 85 84  1  0
 87 90  1  1
 87 88  1  0
 89 87  1  0
M  ISO  4   4 101   7 100  18 100  50 101
M  END
>  <TORSDO>  (45) 
F 16

>  <SCORE>  (45) 
-16.454

>  <name>  (45) 
44

>  <ligand_id>  (45) 
44

>  <original_smiles>  (45) 
[H]c1c([H])c([H])c2c(c1[H])C([H])([H])C([H])([H])C([H])([H])C2([H])N([H])C(=O)C1([H])N(C(=O)C([H])(N([H])C(=O)C([H])(N([H])C([H])([H])[H])C([H])([H])[H])C(C([H])([H])[H])(C([H])([H])[H])C([H])([H])[H])C([H])([H])c2c([H])c(OC3([H])C([H])([H])C([H])([H])[N+]([H])(C4([H])C([H])([H])C([H])([H])N(C(=O)N5C([H])([H])C([H])([H])C([H])([H])C([H])(n6nc(-c7c([H])c([H])c(Oc8c([H])c([H])c(F)c([H])c8F)c([H])c7[H])c(C(=O)N([H])[H])c6N([H])[H])C5([H])[H])S4(=O)=O)C3([H])[H])c([H])c([H])c2C1([H])[H]

>  <smiles>  (45) 
[H]c1c([H])c([H])c2c(c1[H])C([H])([H])C([H])([H])C([H])([H])C2([H])N([H])C(=O)C1([H])N(C(=O)C([H])(N([H])C(=O)C([H])(N([H])C([H])([H])[H])C([H])([H])[H])C(C([H])([H])[H])(C([H])([H])[H])C([H])([H])[H])C([H])([H])c2c([H])c(OC3([H])C([H])([H])C([H])([H])[N+]([H])(C4([H])C([H])([H])C([H])([H])N(C(=O)N5C([H])([H])C([H])([H])C([H])([H])C([H])(n6nc(-c7c([H])c([H])c(Oc8c([H])c([H])c(F)c([H])c8F)c([H])c7[H])c(C(=O)N([H])[H])c6N([H])[H])C5([H])[H])S4(=O)=O)C3([H])[H])c([H])c([H])c2C1([H])[H]

$$$$
45:0:0
     RDKit          3D

 81 85  0  0  1  0  0  0  0  0999 V2000
  -28.1090  -24.6470   20.3000 O   0  0  0  0  0  1  0  0  0  0  0  0
  -24.7100  -31.7810   23.1610 C   0  0  0  0  0  0  0  0  0  0  0  0
  -27.2070  -26.1440   20.2640 C   0  0  0  0  0  0  0  0  0  0  0  0
  -23.5560  -30.3680   21.5220 C   0  0  0  0  0  3  0  0  0  0  0  0
  -25.0090  -28.5810   20.1690 C   0  0  0  0  0  0  0  0  0  0  0  0
  -26.1560  -30.3130   21.5020 C   0  0  0  0  0  2  0  0  0  0  0  0
  -26.2110  -28.8120   20.8490 C   0  0  0  0  0  0  0  0  0  0  0  0
  -27.2590  -27.6460   20.8460 C   0  0  0  0  0  3  0  0  0  0  0  0
  -25.9680  -26.2870   19.5230 C   0  0  0  0  0  3  0  0  0  0  0  0
  -24.9660  -27.3480   19.4800 C   0  0  0  0  0  3  0  0  0  0  0  0
  -23.8360  -29.6140   20.1780 C   0  0  0  0  0  2  0  0  0  0  0  0
  -24.8390  -30.8700   22.1140 N   0  0  0  0  0  0  0  0  0  0  0  0
  -23.6010  -32.1150   23.6230 O   0  0  0  0  0  0  0  0  0  0  0  0
  -22.7620  -29.4580   22.5040 C   0  0  0  0  0  0  0  0  0  0  0  0
  -21.4220  -29.3560   22.3730 N   0  0  0  0  0  0  0  0  0  0  0  0
  -23.3780  -28.8290   23.3670 O   0  0  0  0  0  0  0  0  0  0  0  0
  -20.9670  -29.9120   21.6630 H   0  0  0  0  0  0  0  0  0  0  0  0
  -17.9970  -28.2130   22.9010 C   0  0  0  0  0  0  0  0  0  0  0  0
  -20.5670  -28.4380   23.1430 C   0  0  0  0  0  3  0  0  0  0  0  0
  -20.6330  -27.0060   22.5600 C   0  0  0  0  0  2  0  0  0  0  0  0
  -19.5210  -26.7160   21.5460 C   0  0  0  0  0  2  0  0  0  0  0  0
  -18.1460  -26.8740   22.1990 C   0  0  0  0  0  2  0  0  0  0  0  0
  -19.1320  -28.9550   23.3290 C   0  0  0  0  0  0  0  0  0  0  0  0
  -18.9320  -30.2040   23.9560 C   0  0  0  0  0  3  0  0  0  0  0  0
  -17.6350  -30.7130   24.1530 C   0  0  0  0  0  3  0  0  0  0  0  0
  -16.5160  -29.9710   23.7350 C   0  0  0  0  0  3  0  0  0  0  0  0
  -16.6980  -28.7220   23.1160 C   0  0  0  0  0  3  0  0  0  0  0  0
  -25.9400  -32.4590   23.8420 C   0  0  0  0  0  3  0  0  0  0  0  0
  -25.5980  -33.8650   24.1720 N   0  0  0  0  0  0  0  0  0  0  0  0
  -25.9200  -34.9450   23.4450 C   0  0  0  0  0  0  0  0  0  0  0  0
  -26.5760  -34.8640   22.4040 O   0  0  0  0  0  0  0  0  0  0  0  0
  -25.0070  -33.9990   24.9800 H   0  0  0  0  0  0  0  0  0  0  0  0
  -24.1680  -36.7480   23.1980 C   0  0  0  0  0  1  0  0  0  0  0  0
  -25.4480  -36.3330   23.9420 C   0  0  0  0  0  3  0  0  0  0  0  0
  -27.6060  -37.2470   24.6880 C   0  0  0  0  0  1  0  0  0  0  0  0
  -26.4650  -37.3980   23.7880 N   0  0  0  0  0  0  0  0  0  0  0  0
  -26.0550  -38.3150   23.9480 H   0  0  0  0  0  0  0  0  0  0  0  0
  -26.3960  -31.7200   25.1620 C   0  0  1  0  0  0  0  0  0  0  0  0
  -25.2580  -31.5140   26.1910 C   0  0  0  0  0  1  0  0  0  0  0  0
  -26.9880  -30.3300   24.8490 C   0  0  0  0  0  1  0  0  0  0  0  0
  -27.5230  -32.5250   25.8520 C   0  0  0  0  0  1  0  0  0  0  0  0
  -28.1400  -22.5480   20.1630 C   0  0  0  0  0 15  0  0  0  0  0  0
  -29.1420  -20.4180   20.2160 C   0  0  0  0  0 15  0  0  0  0  0  0
  -29.9010  -16.6470   20.0860 C   0  0  0  0  0  0  0  0  0  0  0  0
  -30.2300  -13.8900   19.2940 C   0  0  0  0  0  2  0  0  0  0  0  0
  -29.4480  -13.0530   18.1990 C   0  0  0  0  0  2  0  0  0  0  0  0
  -28.1340  -12.4820   18.7300 C   0  0  0  0  0  2  0  0  0  0  0  0
  -27.5010  -13.5140   19.6750 C   0  0  0  0  0  3  0  0  0  0  0  0
  -28.4750  -14.2100   20.6950 C   0  0  0  0  0  2  0  0  0  0  0  0
  -29.4550  -15.1290   19.9600 N   0  0  0  0  0  0  0  0  0  0  0  0
  -31.1430  -16.3980   20.0040 O   0  0  0  0  0  0  0  0  0  0  0  0
  -29.2570  -18.3100   20.1340 N   0  0  0  0  0  2  0  0  0  0  0  0
  -30.2580  -18.4710   20.1320 H   0  0  0  0  0  0  0  0  0  0  0  0
  -25.1600  -13.9200   20.5080 C   0  0  0  0  0  0  0  0  0  0  0  0
  -24.1280  -13.1120   20.8810 C   0  0  0  0  0  0  0  0  0  0  0  0
  -24.6260  -11.7720   20.8220 C   0  0  0  0  0  0  0  0  0  0  0  0
  -26.2240  -13.0860   20.2420 N   0  0  0  0  0  0  0  0  0  0  0  0
  -25.9190  -11.7780   20.4820 N   0  0  0  0  0  0  0  0  0  0  0  0
  -23.9140  -10.4950   21.0120 C   0  0  0  0  0  0  0  0  0  0  0  0
  -24.3570   -9.5290   21.9420 C   0  0  0  0  0  3  0  0  0  0  0  0
  -23.6350   -8.3280   22.1300 C   0  0  0  0  0  3  0  0  0  0  0  0
  -22.4560   -8.0830   21.3870 C   0  0  0  0  0  0  0  0  0  0  0  0
  -22.0290   -9.0390   20.4470 C   0  0  0  0  0  3  0  0  0  0  0  0
  -22.7510  -10.2310   20.2590 C   0  0  0  0  0  3  0  0  0  0  0  0
  -21.7070   -6.9350   21.4820 O   0  0  0  0  0  0  0  0  0  0  0  0
  -21.6700   -6.1910   22.6350 C   0  0  0  0  0  0  0  0  0  0  0  0
  -21.2140   -6.7320   23.8560 C   0  0  0  0  0  3  0  0  0  0  0  0
  -21.1260   -5.9140   25.0000 C   0  0  0  0  0  3  0  0  0  0  0  0
  -21.4850   -4.5540   24.9250 C   0  0  0  0  0  0  0  0  0  0  0  0
  -21.9340   -4.0110   23.7070 C   0  0  0  0  0  3  0  0  0  0  0  0
  -22.0220   -4.8270   22.5660 C   0  0  0  0  0  0  0  0  0  0  0  0
  -22.4340   -4.2930   21.3900 F   0  0  0  0  0  0  0  0  0  0  0  0
  -21.3950   -3.7660   26.0220 F   0  0  0  0  0  0  0  0  0  0  0  0
  -22.7270  -13.5620   21.1730 C   0  0  0  0  0  0  0  0  0  0  0  0
  -22.0260  -12.8570   22.0520 N   0  0  0  0  0  0  0  0  0  0  0  0
  -22.2670  -14.5820   20.6590 O   0  0  0  0  0  0  0  0  0  0  0  0
  -22.4140  -12.0340   22.4890 H   0  0  0  0  0  0  0  0  0  0  0  0
  -21.0880  -13.1430   22.2910 H   0  0  0  0  0  0  0  0  0  0  0  0
  -25.2790  -15.2960   20.3350 N   0  0  0  0  0  0  0  0  0  0  0  0
  -24.4980  -15.9290   20.4650 H   0  0  0  0  0  0  0  0  0  0  0  0
  -26.1180  -15.7610   20.0090 H   0  0  0  0  0  0  0  0  0  0  0  0
  2 13  2  0
  3  1  1  0
  3  8  1  0
  4 12  1  0
  4 14  1  0
  5 11  1  0
  5  7  1  0
  6 12  1  0
  7  6  1  0
  8  7  2  0
  9  3  2  0
 10  9  1  0
 10  5  2  0
 11  4  1  0
 12  2  1  0
 14 16  2  0
 15 14  1  0
 17 15  1  0
 18 27  2  0
 18 23  1  0
 19 15  1  0
 19 23  1  0
 20 19  1  0
 21 22  1  0
 21 20  1  0
 22 18  1  0
 23 24  2  0
 24 25  1  0
 26 25  2  0
 27 26  1  0
 28  2  1  0
 28 29  1  0
 28 38  1  0
 29 32  1  0
 30 34  1  0
 30 29  1  0
 31 30  2  0
 34 33  1  0
 36 34  1  0
 36 37  1  0
 36 35  1  0
 38 41  1  1
 38 39  1  0
 40 38  1  0
 44 52  1  0
 45 50  1  0
 46 47  1  0
 46 45  1  0
 48 47  1  0
 48 57  1  0
 48 49  1  0
 50 44  1  0
 50 49  1  0
 51 44  2  0
 53 52  1  0
 54 55  2  0
 55 74  1  0
 56 55  1  0
 56 59  1  0
 57 58  1  0
 57 54  1  0
 58 56  2  0
 59 60  1  0
 60 61  2  0
 62 65  1  0
 62 61  1  0
 63 62  2  0
 64 63  1  0
 64 59  2  0
 65 66  1  0
 66 67  1  0
 67 68  2  0
 69 68  1  0
 69 73  1  0
 70 69  2  0
 71 66  2  0
 71 70  1  0
 72 71  1  0
 74 75  1  0
 75 78  1  0
 75 77  1  0
 76 74  2  0
 79 80  1  0
 79 54  1  0
 81 79  1  0
M  ISO  4   1 101  42 101  44 100  52 100
M  END
>  <TORSDO>  (46) 
F 17

>  <SCORE>  (46) 
-16.141

>  <name>  (46) 
45

>  <ligand_id>  (46) 
45

>  <original_smiles>  (46) 
[H]c1c([H])c([H])c2c(c1[H])C([H])([H])C([H])([H])C([H])([H])C2([H])N([H])C(=O)C1([H])N(C(=O)C([H])(N([H])C(=O)C([H])(N([H])C([H])([H])[H])C([H])([H])[H])C(C([H])([H])[H])(C([H])([H])[H])C([H])([H])[H])C([H])([H])c2c([H])c(OC([H])([H])C([H])([H])N([H])C(=O)N3C([H])([H])C([H])([H])C([H])([H])C([H])(n4nc(-c5c([H])c([H])c(Oc6c([H])c([H])c(F)c([H])c6F)c([H])c5[H])c(C(=O)N([H])[H])c4N([H])[H])C3([H])[H])c([H])c([H])c2C1([H])[H]

>  <smiles>  (46) 
[H]c1c([H])c([H])c2c(c1[H])C([H])([H])C([H])([H])C([H])([H])C2([H])N([H])C(=O)C1([H])N(C(=O)C([H])(N([H])C(=O)C([H])(N([H])C([H])([H])[H])C([H])([H])[H])C(C([H])([H])[H])(C([H])([H])[H])C([H])([H])[H])C([H])([H])c2c([H])c(OC([H])([H])C([H])([H])N([H])C(=O)N3C([H])([H])C([H])([H])C([H])([H])C([H])(n4nc(-c5c([H])c([H])c(Oc6c([H])c([H])c(F)c([H])c6F)c([H])c5[H])c(C(=O)N([H])[H])c4N([H])[H])C3([H])[H])c([H])c([H])c2C1([H])[H]

$$$$
46:0:0
     RDKit          3D

 92101  0  0  1  0  0  0  0  0999 V2000
  -28.6560  -19.2170   20.9580 C   0  0  0  0  0  3  0  0  0  0  0  0
  -28.5190  -20.6450   20.8500 C   0  0  0  0  0  3  0  0  0  0  0  0
  -29.4970  -20.5500   18.6720 C   0  0  0  0  0  3  0  0  0  0  0  0
  -29.2040  -18.4090   19.9170 C   0  0  0  0  0  0  0  0  0  0  0  0
  -28.9070  -21.3660   19.6830 C   0  0  0  0  0  0  0  0  0  0  0  0
  -29.6420  -19.1340   18.7780 C   0  0  0  0  0  0  0  0  0  0  0  0
  -30.1690  -18.4560   17.7300 F   0  0  0  0  0  0  0  0  0  0  0  0
  -28.5560  -24.8910   18.2350 C   0  0  0  0  0  2  0  0  0  0  0  0
  -28.9990  -23.4070   18.1790 C   0  0  0  0  0  2  0  0  0  0  0  0
  -28.2630  -23.8770   20.4100 C   0  0  0  0  0  2  0  0  0  0  0  0
  -28.6680  -25.2470   19.7180 C   0  0  0  0  0  3  0  0  0  0  0  0
  -28.7080  -22.7920   19.4800 N   0  0  0  0  0  0  0  0  0  0  0  0
  -28.4120  -26.6410   20.1790 O   0  0  0  0  0  0  0  0  0  0  0  0
  -24.5880  -31.9080   23.2250 C   0  0  0  0  0  0  0  0  0  0  0  0
  -27.2340  -27.3970   20.1200 C   0  0  0  0  0  0  0  0  0  0  0  0
  -23.3910  -30.5190   21.5680 C   0  0  0  0  0  3  0  0  0  0  0  0
  -24.8490  -28.9840   20.1260 C   0  0  0  0  0  0  0  0  0  0  0  0
  -25.9240  -30.8590   21.3820 C   0  0  0  0  0  2  0  0  0  0  0  0
  -26.0110  -29.4860   20.7220 C   0  0  0  0  0  0  0  0  0  0  0  0
  -27.2010  -28.7040   20.7030 C   0  0  0  0  0  3  0  0  0  0  0  0
  -26.0430  -26.9320   19.5260 C   0  0  0  0  0  3  0  0  0  0  0  0
  -24.8670  -27.7140   19.5210 C   0  0  0  0  0  3  0  0  0  0  0  0
  -23.6070  -29.8520   20.1820 C   0  0  0  0  0  2  0  0  0  0  0  0
  -24.6530  -31.1130   22.1160 N   0  0  0  0  0  0  0  0  0  0  0  0
  -23.5040  -32.1740   23.7640 O   0  0  0  0  0  0  0  0  0  0  0  0
  -22.7360  -29.4910   22.5200 C   0  0  0  0  0  0  0  0  0  0  0  0
  -21.4110  -29.3070   22.3900 N   0  0  0  0  0  0  0  0  0  0  0  0
  -23.4180  -28.8630   23.3350 O   0  0  0  0  0  0  0  0  0  0  0  0
  -20.9200  -29.8670   21.7080 H   0  0  0  0  0  0  0  0  0  0  0  0
  -18.0360  -28.1090   22.8980 C   0  0  0  0  0  0  0  0  0  0  0  0
  -20.5970  -28.3560   23.1500 C   0  0  0  0  0  3  0  0  0  0  0  0
  -20.6900  -26.9360   22.5450 C   0  0  0  0  0  2  0  0  0  0  0  0
  -19.5780  -26.6370   21.5340 C   0  0  0  0  0  2  0  0  0  0  0  0
  -18.2030  -26.7730   22.1930 C   0  0  0  0  0  2  0  0  0  0  0  0
  -19.1600  -28.8600   23.3320 C   0  0  0  0  0  0  0  0  0  0  0  0
  -18.9510  -30.1110   23.9520 C   0  0  0  0  0  3  0  0  0  0  0  0
  -17.6490  -30.6120   24.1390 C   0  0  0  0  0  3  0  0  0  0  0  0
  -16.5390  -29.8580   23.7210 C   0  0  0  0  0  3  0  0  0  0  0  0
  -16.7330  -28.6090   23.1060 C   0  0  0  0  0  3  0  0  0  0  0  0
  -25.8670  -32.5410   23.8540 C   0  0  0  0  0  3  0  0  0  0  0  0
  -25.5580  -33.9420   24.1790 N   0  0  0  0  0  0  0  0  0  0  0  0
  -25.8980  -34.9930   23.4200 C   0  0  0  0  0  0  0  0  0  0  0  0
  -26.5750  -34.8860   22.3940 O   0  0  0  0  0  0  0  0  0  0  0  0
  -24.9580  -34.1000   24.9740 H   0  0  0  0  0  0  0  0  0  0  0  0
  -24.1900  -36.7980   23.0360 C   0  0  0  0  0  1  0  0  0  0  0  0
  -25.4110  -36.3840   23.8720 C   0  0  0  0  0  3  0  0  0  0  0  0
  -27.5270  -37.2610   24.7570 C   0  0  0  0  0  1  0  0  0  0  0  0
  -26.4530  -37.4310   23.7820 N   0  0  0  0  0  0  0  0  0  0  0  0
  -26.0470  -38.3540   23.9140 H   0  0  0  0  0  0  0  0  0  0  0  0
  -26.3720  -31.7760   25.1380 C   0  0  1  0  0  0  0  0  0  0  0  0
  -25.2700  -31.5380   26.1960 C   0  0  0  0  0  1  0  0  0  0  0  0
  -26.9630  -30.3990   24.7560 C   0  0  0  0  0  1  0  0  0  0  0  0
  -27.5150  -32.5740   25.8110 C   0  0  0  0  0  1  0  0  0  0  0  0
  -29.1320  -16.8170   19.8930 C   0  0  0  0  0  2  0  0  0  0  0  0
  -30.6970  -14.7790   20.0070 C   0  0  0  0  0  0  0  0  0  0  0  0
  -30.3670  -12.5550   18.9310 C   0  0  0  0  0  2  0  0  0  0  0  0
  -29.3650  -12.6780   17.7650 C   0  0  0  0  0  2  0  0  0  0  0  0
  -27.9240  -12.5060   18.2770 C   0  0  0  0  0  2  0  0  0  0  0  0
  -27.6300  -13.3700   19.5330 C   0  0  0  0  0  3  0  0  0  0  0  0
  -28.7480  -13.2510   20.5900 C   0  0  0  0  0  2  0  0  0  0  0  0
  -30.0140  -13.5890   19.9300 N   0  0  0  0  0  0  0  0  0  0  0  0
  -31.8410  -14.8600   19.5480 O   0  0  0  0  0  0  0  0  0  0  0  0
  -30.8810  -16.5800   21.6260 C   0  0  0  0  0  1  0  0  0  0  0  0
  -30.1100  -15.8930   20.5900 N   0  0  0  0  0  0  0  0  0  0  0  0
  -25.2910  -13.9550   20.4070 C   0  0  0  0  0  0  0  0  0  0  0  0
  -24.2460  -13.1770   20.8230 C   0  0  0  0  0  0  0  0  0  0  0  0
  -24.7010  -11.8260   20.7400 C   0  0  0  0  0  0  0  0  0  0  0  0
  -26.3160  -13.0770   20.0950 N   0  0  0  0  0  0  0  0  0  0  0  0
  -25.9710  -11.7900   20.3560 N   0  0  0  0  0  0  0  0  0  0  0  0
  -23.9810  -10.5610   20.9440 C   0  0  0  0  0  0  0  0  0  0  0  0
  -24.4420   -9.5890   21.8580 C   0  0  0  0  0  3  0  0  0  0  0  0
  -23.7200   -8.3900   22.0520 C   0  0  0  0  0  3  0  0  0  0  0  0
  -22.5240   -8.1570   21.3300 C   0  0  0  0  0  0  0  0  0  0  0  0
  -22.0840   -9.1180   20.4050 C   0  0  0  0  0  3  0  0  0  0  0  0
  -22.8050  -10.3080   20.2100 C   0  0  0  0  0  3  0  0  0  0  0  0
  -21.7730   -7.0120   21.4350 O   0  0  0  0  0  0  0  0  0  0  0  0
  -21.7330   -6.2800   22.5950 C   0  0  0  0  0  0  0  0  0  0  0  0
  -21.2670   -6.8310   23.8080 C   0  0  0  0  0  3  0  0  0  0  0  0
  -21.1770   -6.0240   24.9590 C   0  0  0  0  0  3  0  0  0  0  0  0
  -21.5430   -4.6660   24.8990 C   0  0  0  0  0  0  0  0  0  0  0  0
  -22.0030   -4.1140   23.6890 C   0  0  0  0  0  3  0  0  0  0  0  0
  -22.0940   -4.9190   22.5400 C   0  0  0  0  0  0  0  0  0  0  0  0
  -22.5170   -4.3770   21.3730 F   0  0  0  0  0  0  0  0  0  0  0  0
  -21.4510   -3.8880   26.0020 F   0  0  0  0  0  0  0  0  0  0  0  0
  -22.8680  -13.6530   21.1820 C   0  0  0  0  0  0  0  0  0  0  0  0
  -22.1840  -12.9380   22.0680 N   0  0  0  0  0  0  0  0  0  0  0  0
  -22.4100  -14.6940   20.7130 O   0  0  0  0  0  0  0  0  0  0  0  0
  -22.5690  -12.0950   22.4670 H   0  0  0  0  0  0  0  0  0  0  0  0
  -21.2620  -13.2380   22.3500 H   0  0  0  0  0  0  0  0  0  0  0  0
  -25.4460  -15.3280   20.2450 N   0  0  0  0  0  0  0  0  0  0  0  0
  -24.6820  -15.9760   20.4040 H   0  0  0  0  0  0  0  0  0  0  0  0
  -26.2620  -15.7700   19.8440 H   0  0  0  0  0  0  0  0  0  0  0  0
  2  1  1  0
  3  6  2  0
  3  5  1  0
  4  1  2  0
  5  2  2  0
  6  4  1  0
  7  6  1  0
  8 11  1  0
  9  8  1  0
  9 12  1  0
 11 13  1  0
 11 10  1  0
 12  5  1  0
 12 10  1  0
 14 25  2  0
 15 13  1  0
 15 20  1  0
 16 24  1  0
 16 26  1  0
 17 23  1  0
 17 19  1  0
 18 24  1  0
 19 18  1  0
 20 19  2  0
 21 15  2  0
 22 21  1  0
 22 17  2  0
 23 16  1  0
 24 14  1  0
 26 28  2  0
 27 26  1  0
 29 27  1  0
 30 39  2  0
 30 35  1  0
 31 27  1  0
 31 35  1  0
 32 31  1  0
 33 34  1  0
 33 32  1  0
 34 30  1  0
 35 36  2  0
 36 37  1  0
 38 37  2  0
 39 38  1  0
 40 14  1  0
 40 41  1  0
 40 50  1  0
 41 44  1  0
 42 46  1  0
 42 41  1  0
 43 42  2  0
 46 45  1  0
 48 46  1  0
 48 49  1  0
 48 47  1  0
 50 53  1  1
 50 51  1  0
 52 50  1  0
 54  4  1  0
 54 64  1  0
 55 64  1  0
 56 61  1  0
 57 58  1  0
 57 56  1  0
 59 58  1  0
 59 68  1  0
 59 60  1  0
 61 55  1  0
 61 60  1  0
 62 55  2  0
 64 63  1  0
 65 66  2  0
 66 85  1  0
 67 66  1  0
 67 70  1  0
 68 69  1  0
 68 65  1  0
 69 67  2  0
 70 71  1  0
 71 72  2  0
 73 76  1  0
 73 72  1  0
 74 73  2  0
 75 74  1  0
 75 70  2  0
 76 77  1  0
 77 78  1  0
 78 79  2  0
 80 79  1  0
 80 84  1  0
 81 80  2  0
 82 77  2  0
 82 81  1  0
 83 82  1  0
 85 86  1  0
 86 89  1  0
 86 88  1  0
 87 85  2  0
 90 91  1  0
 90 65  1  0
 92 90  1  0
M  ISO  4  11 101  13 101  55 100  64 100
M  END
>  <TORSDO>  (47) 
F 18

>  <SCORE>  (47) 
-14.531

>  <name>  (47) 
46

>  <ligand_id>  (47) 
46

>  <original_smiles>  (47) 
[H]c1c([H])c([H])c2c(c1[H])C([H])([H])C([H])([H])C([H])([H])C2([H])N([H])C(=O)C1([H])N(C(=O)C([H])(N([H])C(=O)C([H])(N([H])C([H])([H])[H])C([H])([H])[H])C(C([H])([H])[H])(C([H])([H])[H])C([H])([H])[H])C([H])([H])c2c([H])c(OC3([H])C([H])([H])N(c4c([H])c([H])c(C([H])([H])N(C(=O)N5C([H])([H])C([H])([H])C([H])([H])C([H])(n6nc(-c7c([H])c([H])c(Oc8c([H])c([H])c(F)c([H])c8F)c([H])c7[H])c(C(=O)N([H])[H])c6N([H])[H])C5([H])[H])C([H])([H])[H])c(F)c4[H])C([H])([H])C3([H])[H])c([H])c([H])c2C1([H])[H]

>  <smiles>  (47) 
[H]c1c([H])c([H])c2c(c1[H])C([H])([H])C([H])([H])C([H])([H])C2([H])N([H])C(=O)C1([H])N(C(=O)C([H])(N([H])C(=O)C([H])(N([H])C([H])([H])[H])C([H])([H])[H])C(C([H])([H])[H])(C([H])([H])[H])C([H])([H])[H])C([H])([H])c2c([H])c(OC3([H])C([H])([H])N(c4c([H])c([H])c(C([H])([H])N(C(=O)N5C([H])([H])C([H])([H])C([H])([H])C([H])(n6nc(-c7c([H])c([H])c(Oc8c([H])c([H])c(F)c([H])c8F)c([H])c7[H])c(C(=O)N([H])[H])c6N([H])[H])C5([H])[H])C([H])([H])[H])c(F)c4[H])C([H])([H])C3([H])[H])c([H])c([H])c2C1([H])[H]

$$$$
47:0:0
     RDKit          3D

 91100  0  0  1  0  0  0  0  0999 V2000
  -29.2050  -24.4170   21.7210 C   0  0  0  0  0  2  0  0  0  0  0  0
  -29.2820  -22.8660   21.9110 C   0  0  0  0  0  2  0  0  0  0  0  0
  -28.3910  -23.3450   19.7840 C   0  0  0  0  0  2  0  0  0  0  0  0
  -28.1520  -24.7430   20.6430 C   0  0  0  0  0  3  0  0  0  0  0  0
  -29.0020  -22.2120   20.6290 N   0  0  0  0  0  0  0  0  0  0  0  0
  -30.2590  -19.9940   21.1420 C   0  0  0  0  0  3  0  0  0  0  0  0
  -30.4600  -18.5490   21.0980 C   0  0  0  0  0  3  0  0  0  0  0  0
  -28.3690  -19.8120   19.7630 C   0  0  0  0  0  3  0  0  0  0  0  0
  -29.2010  -20.7310   20.4880 C   0  0  0  0  0  0  0  0  0  0  0  0
  -29.5960  -17.6370   20.4060 C   0  0  0  0  0  0  0  0  0  0  0  0
  -28.5380  -18.3620   19.7470 C   0  0  0  0  0  0  0  0  0  0  0  0
  -27.6120  -17.6270   19.0850 F   0  0  0  0  0  0  0  0  0  0  0  0
  -30.4690  -14.9960   20.3510 C   0  0  0  0  0  0  0  0  0  0  0  0
  -30.4100  -12.6450   19.3920 C   0  0  0  0  0  2  0  0  0  0  0  0
  -29.4690  -12.5940   18.1640 C   0  0  0  0  0  2  0  0  0  0  0  0
  -28.0060  -12.3710   18.5980 C   0  0  0  0  0  2  0  0  0  0  0  0
  -27.5930  -13.2920   19.7760 C   0  0  0  0  0  3  0  0  0  0  0  0
  -28.6470  -13.2890   20.9030 C   0  0  0  0  0  2  0  0  0  0  0  0
  -29.9180  -13.7170   20.3000 N   0  0  0  0  0  0  0  0  0  0  0  0
  -31.6730  -15.1150   20.0920 O   0  0  0  0  0  0  0  0  0  0  0  0
  -29.5860  -16.1010   20.4670 N   0  0  0  0  0  0  0  0  0  0  0  0
  -28.6400  -15.7530   20.4890 H   0  0  0  0  0  0  0  0  0  0  0  0
  -25.2090  -13.8650   20.5130 C   0  0  0  0  0  0  0  0  0  0  0  0
  -24.1460  -13.0850   20.8780 C   0  0  0  0  0  0  0  0  0  0  0  0
  -24.6150  -11.7350   20.8430 C   0  0  0  0  0  0  0  0  0  0  0  0
  -26.2540  -12.9900   20.2690 N   0  0  0  0  0  0  0  0  0  0  0  0
  -25.9060  -11.7050   20.5350 N   0  0  0  0  0  0  0  0  0  0  0  0
  -23.8920  -10.4700   21.0270 C   0  0  0  0  0  0  0  0  0  0  0  0
  -24.3130   -9.5080   21.9710 C   0  0  0  0  0  3  0  0  0  0  0  0
  -23.5890   -8.3090   22.1420 C   0  0  0  0  0  3  0  0  0  0  0  0
  -22.4300   -8.0620   21.3690 C   0  0  0  0  0  0  0  0  0  0  0  0
  -22.0290   -9.0130   20.4130 C   0  0  0  0  0  3  0  0  0  0  0  0
  -22.7530  -10.2030   20.2400 C   0  0  0  0  0  3  0  0  0  0  0  0
  -21.6790   -6.9150   21.4480 O   0  0  0  0  0  0  0  0  0  0  0  0
  -21.6000   -6.1860   22.6080 C   0  0  0  0  0  0  0  0  0  0  0  0
  -21.1170   -6.7480   23.8110 C   0  0  0  0  0  3  0  0  0  0  0  0
  -20.9880   -5.9440   24.9600 C   0  0  0  0  0  3  0  0  0  0  0  0
  -21.3290   -4.5800   24.9090 C   0  0  0  0  0  0  0  0  0  0  0  0
  -21.8050   -4.0170   23.7110 C   0  0  0  0  0  3  0  0  0  0  0  0
  -21.9360   -4.8180   22.5630 C   0  0  0  0  0  0  0  0  0  0  0  0
  -22.3740   -4.2660   21.4060 F   0  0  0  0  0  0  0  0  0  0  0  0
  -21.1980   -3.8060   26.0110 F   0  0  0  0  0  0  0  0  0  0  0  0
  -22.7460  -13.5560   21.1450 C   0  0  0  0  0  0  0  0  0  0  0  0
  -22.0150  -12.8540   22.0020 N   0  0  0  0  0  0  0  0  0  0  0  0
  -22.3080  -14.5840   20.6290 O   0  0  0  0  0  0  0  0  0  0  0  0
  -22.3810  -12.0210   22.4410 H   0  0  0  0  0  0  0  0  0  0  0  0
  -21.0750  -13.1510   22.2240 H   0  0  0  0  0  0  0  0  0  0  0  0
  -25.3640  -15.2380   20.3410 N   0  0  0  0  0  0  0  0  0  0  0  0
  -24.5860  -15.8770   20.4650 H   0  0  0  0  0  0  0  0  0  0  0  0
  -26.1810  -15.6920   19.9530 H   0  0  0  0  0  0  0  0  0  0  0  0
  -28.2810  -26.2390   20.2200 O   0  0  0  0  0  0  0  0  0  0  0  0
  -24.6120  -31.8920   23.2410 C   0  0  0  0  0  0  0  0  0  0  0  0
  -27.1940  -27.1820   20.2270 C   0  0  0  0  0  0  0  0  0  0  0  0
  -23.4100  -30.4920   21.6040 C   0  0  0  0  0  3  0  0  0  0  0  0
  -24.8560  -28.9070   20.1890 C   0  0  0  0  0  0  0  0  0  0  0  0
  -25.9600  -30.7650   21.4290 C   0  0  0  0  0  2  0  0  0  0  0  0
  -26.0360  -29.3680   20.7870 C   0  0  0  0  0  0  0  0  0  0  0  0
  -27.2090  -28.5240   20.7820 C   0  0  0  0  0  3  0  0  0  0  0  0
  -25.9860  -26.8080   19.6040 C   0  0  0  0  0  3  0  0  0  0  0  0
  -24.8430  -27.6410   19.5820 C   0  0  0  0  0  3  0  0  0  0  0  0
  -23.6290  -29.8040   20.2290 C   0  0  0  0  0  2  0  0  0  0  0  0
  -24.6820  -31.0710   22.1480 N   0  0  0  0  0  0  0  0  0  0  0  0
  -23.5260  -32.1740   23.7700 O   0  0  0  0  0  0  0  0  0  0  0  0
  -22.7320  -29.4890   22.5720 C   0  0  0  0  0  0  0  0  0  0  0  0
  -21.4050  -29.3160   22.4440 N   0  0  0  0  0  0  0  0  0  0  0  0
  -23.4040  -28.8670   23.3990 O   0  0  0  0  0  0  0  0  0  0  0  0
  -20.9180  -29.8710   21.7540 H   0  0  0  0  0  0  0  0  0  0  0  0
  -18.0250  -28.1110   22.9460 C   0  0  0  0  0  0  0  0  0  0  0  0
  -20.5820  -28.3800   23.2170 C   0  0  0  0  0  3  0  0  0  0  0  0
  -20.6880  -26.9450   22.6490 C   0  0  0  0  0  2  0  0  0  0  0  0
  -19.5880  -26.6170   21.6340 C   0  0  0  0  0  2  0  0  0  0  0  0
  -18.2060  -26.7620   22.2740 C   0  0  0  0  0  2  0  0  0  0  0  0
  -19.1410  -28.8780   23.3750 C   0  0  0  0  0  0  0  0  0  0  0  0
  -18.9170  -30.1420   23.9650 C   0  0  0  0  0  3  0  0  0  0  0  0
  -17.6100  -30.6380   24.1290 C   0  0  0  0  0  3  0  0  0  0  0  0
  -16.5090  -29.8690   23.7150 C   0  0  0  0  0  3  0  0  0  0  0  0
  -16.7170  -28.6080   23.1300 C   0  0  0  0  0  3  0  0  0  0  0  0
  -25.8910  -32.5290   23.8660 C   0  0  0  0  0  3  0  0  0  0  0  0
  -25.5810  -33.9290   24.1950 N   0  0  0  0  0  0  0  0  0  0  0  0
  -25.9110  -34.9840   23.4370 C   0  0  0  0  0  0  0  0  0  0  0  0
  -26.5750  -34.8790   22.4020 O   0  0  0  0  0  0  0  0  0  0  0  0
  -24.9910  -34.0840   25.0000 H   0  0  0  0  0  0  0  0  0  0  0  0
  -24.1820  -36.7800   23.0960 C   0  0  0  0  0  1  0  0  0  0  0  0
  -25.4290  -36.3740   23.8980 C   0  0  0  0  0  3  0  0  0  0  0  0
  -27.5700  -37.2570   24.7130 C   0  0  0  0  0  1  0  0  0  0  0  0
  -26.4620  -37.4260   23.7780 N   0  0  0  0  0  0  0  0  0  0  0  0
  -26.0570  -38.3460   23.9310 H   0  0  0  0  0  0  0  0  0  0  0  0
  -26.3990  -31.7640   25.1500 C   0  0  1  0  0  0  0  0  0  0  0  0
  -25.3020  -31.5380   26.2170 C   0  0  0  0  0  1  0  0  0  0  0  0
  -26.9790  -30.3820   24.7710 C   0  0  0  0  0  1  0  0  0  0  0  0
  -27.5500  -32.5580   25.8120 C   0  0  0  0  0  1  0  0  0  0  0  0
  1  2  1  0
  3  5  1  0
  3  4  1  0
  4 51  1  0
  4  1  1  0
  5  2  1  0
  7  6  1  0
  8  9  1  0
  9  5  1  0
  9  6  2  0
 10 21  1  0
 10  7  2  0
 11  8  2  0
 11 10  1  0
 12 11  1  0
 13 21  1  0
 14 19  1  0
 15 16  1  0
 15 14  1  0
 17 16  1  0
 17 26  1  0
 17 18  1  0
 19 13  1  0
 19 18  1  0
 20 13  2  0
 21 22  1  0
 23 24  2  0
 24 43  1  0
 25 24  1  0
 25 28  1  0
 26 23  1  0
 26 27  1  0
 27 25  2  0
 28 29  1  0
 29 30  2  0
 31 34  1  0
 31 30  1  0
 32 31  2  0
 33 32  1  0
 33 28  2  0
 34 35  1  0
 35 36  1  0
 36 37  2  0
 38 37  1  0
 38 42  1  0
 39 38  2  0
 40 35  2  0
 40 39  1  0
 41 40  1  0
 43 44  1  0
 44 47  1  0
 44 46  1  0
 45 43  2  0
 48 49  1  0
 48 23  1  0
 50 48  1  0
 51 53  1  0
 52 63  2  0
 53 58  1  0
 54 62  1  0
 54 64  1  0
 55 61  1  0
 55 57  1  0
 56 62  1  0
 57 56  1  0
 58 57  2  0
 59 53  2  0
 60 59  1  0
 60 55  2  0
 61 54  1  0
 62 52  1  0
 64 66  2  0
 65 64  1  0
 67 65  1  0
 68 77  2  0
 68 73  1  0
 69 65  1  0
 69 73  1  0
 70 69  1  0
 71 72  1  0
 71 70  1  0
 72 68  1  0
 73 74  2  0
 74 75  1  0
 76 75  2  0
 77 76  1  0
 78 52  1  0
 78 79  1  0
 78 88  1  0
 79 82  1  0
 80 84  1  0
 80 79  1  0
 81 80  2  0
 84 83  1  0
 86 84  1  0
 86 87  1  0
 86 85  1  0
 88 91  1  1
 88 89  1  0
 90 88  1  0
M  ISO  4   4 101  13 100  21 100  51 101
M  END
>  <TORSDO>  (48) 
F 17

>  <SCORE>  (48) 
-15.443

>  <name>  (48) 
47

>  <ligand_id>  (48) 
47

>  <original_smiles>  (48) 
[H]c1c([H])c([H])c2c(c1[H])C([H])([H])C([H])([H])C([H])([H])C2([H])N([H])C(=O)C1([H])N(C(=O)C([H])(N([H])C(=O)C([H])(N([H])C([H])([H])[H])C([H])([H])[H])C(C([H])([H])[H])(C([H])([H])[H])C([H])([H])[H])C([H])([H])c2c([H])c(OC3([H])C([H])([H])N(c4c([H])c([H])c(N([H])C(=O)N5C([H])([H])C([H])([H])C([H])([H])C([H])(n6nc(-c7c([H])c([H])c(Oc8c([H])c([H])c(F)c([H])c8F)c([H])c7[H])c(C(=O)N([H])[H])c6N([H])[H])C5([H])[H])c(F)c4[H])C([H])([H])C3([H])[H])c([H])c([H])c2C1([H])[H]

>  <smiles>  (48) 
[H]c1c([H])c([H])c2c(c1[H])C([H])([H])C([H])([H])C([H])([H])C2([H])N([H])C(=O)C1([H])N(C(=O)C([H])(N([H])C(=O)C([H])(N([H])C([H])([H])[H])C([H])([H])[H])C(C([H])([H])[H])(C([H])([H])[H])C([H])([H])[H])C([H])([H])c2c([H])c(OC3([H])C([H])([H])N(c4c([H])c([H])c(N([H])C(=O)N5C([H])([H])C([H])([H])C([H])([H])C([H])(n6nc(-c7c([H])c([H])c(Oc8c([H])c([H])c(F)c([H])c8F)c([H])c7[H])c(C(=O)N([H])[H])c6N([H])[H])C5([H])[H])c(F)c4[H])C([H])([H])C3([H])[H])c([H])c([H])c2C1([H])[H]

$$$$
48:0:0
     RDKit          3D

 89 97  0  0  1  0  0  0  0  0999 V2000
  -30.5550  -19.5660   20.5170 C   0  0  0  0  0  3  0  0  0  0  0  0
  -28.4980  -18.8260   19.5110 C   0  0  0  0  0  3  0  0  0  0  0  0
  -30.0660  -20.9070   20.5740 C   0  0  0  0  0  3  0  0  0  0  0  0
  -28.0100  -20.1620   19.5750 C   0  0  0  0  0  3  0  0  0  0  0  0
  -29.7960  -18.4930   19.9690 C   0  0  0  0  0  0  0  0  0  0  0  0
  -28.7800  -21.2420   20.0810 C   0  0  0  0  0  0  0  0  0  0  0  0
  -30.4530  -17.0890   19.6960 C   0  0  0  0  0  2  0  0  0  0  0  0
  -30.7530  -14.6370   20.1080 C   0  0  0  0  0  0  0  0  0  0  0  0
  -30.3710  -12.4790   18.9360 C   0  0  0  0  0  2  0  0  0  0  0  0
  -29.3820  -12.7030   17.7730 C   0  0  0  0  0  2  0  0  0  0  0  0
  -27.9300  -12.5560   18.2660 C   0  0  0  0  0  2  0  0  0  0  0  0
  -27.6590  -13.3520   19.5730 C   0  0  0  0  0  3  0  0  0  0  0  0
  -28.7650  -13.1030   20.6160 C   0  0  0  0  0  2  0  0  0  0  0  0
  -30.0430  -13.4650   19.9910 N   0  0  0  0  0  0  0  0  0  0  0  0
  -31.8890  -14.7070   19.6290 O   0  0  0  0  0  0  0  0  0  0  0  0
  -29.5010  -16.0180   21.7440 C   0  0  0  0  0  1  0  0  0  0  0  0
  -30.0850  -15.8130   20.4170 N   0  0  0  0  0  0  0  0  0  0  0  0
  -25.3080  -13.9470   20.4150 C   0  0  0  0  0  0  0  0  0  0  0  0
  -24.2540  -13.1730   20.8170 C   0  0  0  0  0  0  0  0  0  0  0  0
  -24.7070  -11.8190   20.7450 C   0  0  0  0  0  0  0  0  0  0  0  0
  -26.3340  -13.0670   20.1160 N   0  0  0  0  0  0  0  0  0  0  0  0
  -25.9820  -11.7810   20.3770 N   0  0  0  0  0  0  0  0  0  0  0  0
  -23.9820  -10.5580   20.9490 C   0  0  0  0  0  0  0  0  0  0  0  0
  -24.4290   -9.5900   21.8760 C   0  0  0  0  0  3  0  0  0  0  0  0
  -23.7060   -8.3940   22.0670 C   0  0  0  0  0  3  0  0  0  0  0  0
  -22.5210   -8.1560   21.3310 C   0  0  0  0  0  0  0  0  0  0  0  0
  -22.0920   -9.1120   20.3930 C   0  0  0  0  0  3  0  0  0  0  0  0
  -22.8160  -10.3000   20.2000 C   0  0  0  0  0  3  0  0  0  0  0  0
  -21.7690   -7.0100   21.4290 O   0  0  0  0  0  0  0  0  0  0  0  0
  -21.7080   -6.2890   22.5940 C   0  0  0  0  0  0  0  0  0  0  0  0
  -21.2660   -6.8660   23.8050 C   0  0  0  0  0  3  0  0  0  0  0  0
  -21.1520   -6.0700   24.9620 C   0  0  0  0  0  3  0  0  0  0  0  0
  -21.4700   -4.6990   24.9100 C   0  0  0  0  0  0  0  0  0  0  0  0
  -21.9040   -4.1230   23.7030 C   0  0  0  0  0  3  0  0  0  0  0  0
  -22.0190   -4.9160   22.5480 C   0  0  0  0  0  0  0  0  0  0  0  0
  -22.4190   -4.3510   21.3830 F   0  0  0  0  0  0  0  0  0  0  0  0
  -21.3520   -3.9330   26.0190 F   0  0  0  0  0  0  0  0  0  0  0  0
  -22.8730  -13.6530   21.1580 C   0  0  0  0  0  0  0  0  0  0  0  0
  -22.1790  -12.9480   22.0460 N   0  0  0  0  0  0  0  0  0  0  0  0
  -22.4190  -14.6890   20.6730 O   0  0  0  0  0  0  0  0  0  0  0  0
  -22.5620  -12.1100   22.4560 H   0  0  0  0  0  0  0  0  0  0  0  0
  -21.2540  -13.2520   22.3180 H   0  0  0  0  0  0  0  0  0  0  0  0
  -25.4740  -15.3180   20.2540 N   0  0  0  0  0  0  0  0  0  0  0  0
  -24.7190  -15.9790   20.4080 H   0  0  0  0  0  0  0  0  0  0  0  0
  -26.3250  -15.7550   19.9250 H   0  0  0  0  0  0  0  0  0  0  0  0
  -28.2080  -22.5260   20.0500 O   0  0  0  0  0  0  0  0  0  0  0  0
  -28.9180  -23.7780   20.3230 C   0  0  0  0  0  2  0  0  0  0  0  0
  -27.9670  -24.9960   19.9630 C   0  0  0  0  0  2  0  0  0  0  0  0
  -28.2560  -26.4250   20.2470 O   0  0  0  0  0  0  0  0  0  0  0  0
  -24.5770  -31.8910   23.2320 C   0  0  0  0  0  0  0  0  0  0  0  0
  -27.1600  -27.3070   20.1810 C   0  0  0  0  0  0  0  0  0  0  0  0
  -23.3670  -30.4860   21.6050 C   0  0  0  0  0  3  0  0  0  0  0  0
  -24.8070  -28.9360   20.1780 C   0  0  0  0  0  0  0  0  0  0  0  0
  -25.9110  -30.7920   21.4200 C   0  0  0  0  0  2  0  0  0  0  0  0
  -25.9800  -29.4130   20.7770 C   0  0  0  0  0  0  0  0  0  0  0  0
  -27.1600  -28.6090   20.7740 C   0  0  0  0  0  3  0  0  0  0  0  0
  -25.9610  -26.8990   19.5460 C   0  0  0  0  0  3  0  0  0  0  0  0
  -24.7980  -27.6840   19.5550 C   0  0  0  0  0  3  0  0  0  0  0  0
  -23.5750  -29.8130   20.2250 C   0  0  0  0  0  2  0  0  0  0  0  0
  -24.6380  -31.0730   22.1420 N   0  0  0  0  0  0  0  0  0  0  0  0
  -23.4940  -32.1730   23.7660 O   0  0  0  0  0  0  0  0  0  0  0  0
  -22.7070  -29.4710   22.5700 C   0  0  0  0  0  0  0  0  0  0  0  0
  -21.3810  -29.2910   22.4440 N   0  0  0  0  0  0  0  0  0  0  0  0
  -23.3870  -28.8490   23.3910 O   0  0  0  0  0  0  0  0  0  0  0  0
  -20.8920  -29.8440   21.7540 H   0  0  0  0  0  0  0  0  0  0  0  0
  -17.9990  -28.1150   22.9690 C   0  0  0  0  0  0  0  0  0  0  0  0
  -20.5610  -28.3610   23.2230 C   0  0  0  0  0  3  0  0  0  0  0  0
  -20.6500  -26.9280   22.6490 C   0  0  0  0  0  2  0  0  0  0  0  0
  -19.5410  -26.6090   21.6430 C   0  0  0  0  0  2  0  0  0  0  0  0
  -18.1630  -26.7630   22.2950 C   0  0  0  0  0  2  0  0  0  0  0  0
  -19.1250  -28.8730   23.3900 C   0  0  0  0  0  0  0  0  0  0  0  0
  -18.9170  -30.1390   23.9780 C   0  0  0  0  0  3  0  0  0  0  0  0
  -17.6160  -30.6490   24.1450 C   0  0  0  0  0  3  0  0  0  0  0  0
  -16.5050  -29.8890   23.7400 C   0  0  0  0  0  3  0  0  0  0  0  0
  -16.6980  -28.6220   23.1610 C   0  0  0  0  0  3  0  0  0  0  0  0
  -25.8620  -32.5250   23.8490 C   0  0  0  0  0  3  0  0  0  0  0  0
  -26.3860  -31.7500   25.1210 C   0  0  1  0  0  0  0  0  0  0  0  0
  -25.2980  -31.5010   26.1920 C   0  0  0  0  0  1  0  0  0  0  0  0
  -26.9700  -30.3760   24.7190 C   0  0  0  0  0  1  0  0  0  0  0  0
  -27.5360  -32.5450   25.7800 C   0  0  0  0  0  1  0  0  0  0  0  0
  -25.5500  -33.9210   24.1860 N   0  0  0  0  0  0  0  0  0  0  0  0
  -25.8630  -34.9770   23.4240 C   0  0  0  0  0  0  0  0  0  0  0  0
  -26.5180  -34.8800   22.3820 O   0  0  0  0  0  0  0  0  0  0  0  0
  -24.9730  -34.0690   25.0020 H   0  0  0  0  0  0  0  0  0  0  0  0
  -24.1160  -36.7560   23.0980 C   0  0  0  0  0  1  0  0  0  0  0  0
  -25.3720  -36.3610   23.8910 C   0  0  0  0  0  3  0  0  0  0  0  0
  -27.5140  -37.2590   24.6890 C   0  0  0  0  0  1  0  0  0  0  0  0
  -26.3950  -37.4210   23.7620 N   0  0  0  0  0  0  0  0  0  0  0  0
  -25.9870  -38.3380   23.9160 H   0  0  0  0  0  0  0  0  0  0  0  0
  1  3  1  0
  2  4  2  0
  2  5  1  0
  4  6  1  0
  5  1  2  0
  6  3  2  0
  7  5  1  0
  7 17  1  0
  8 17  1  0
  9 14  1  0
 10 11  1  0
 10  9  1  0
 12 11  1  0
 12 21  1  0
 12 13  1  0
 14  8  1  0
 14 13  1  0
 15  8  2  0
 17 16  1  0
 18 19  2  0
 19 38  1  0
 20 19  1  0
 20 23  1  0
 21 22  1  0
 21 18  1  0
 22 20  2  0
 23 24  1  0
 24 25  2  0
 26 29  1  0
 26 25  1  0
 27 26  2  0
 28 27  1  0
 28 23  2  0
 29 30  1  0
 30 31  1  0
 31 32  2  0
 33 32  1  0
 33 37  1  0
 34 33  2  0
 35 30  2  0
 35 34  1  0
 36 35  1  0
 38 39  1  0
 39 42  1  0
 39 41  1  0
 40 38  2  0
 43 44  1  0
 43 18  1  0
 45 43  1  0
 46  6  1  0
 46 47  1  0
 48 49  1  0
 48 47  1  0
 50 61  2  0
 51 49  1  0
 51 56  1  0
 52 60  1  0
 52 62  1  0
 53 59  1  0
 53 55  1  0
 54 60  1  0
 55 54  1  0
 56 55  2  0
 57 58  1  0
 57 51  2  0
 58 53  2  0
 59 52  1  0
 60 50  1  0
 62 64  2  0
 63 62  1  0
 65 63  1  0
 66 75  2  0
 66 71  1  0
 67 63  1  0
 67 71  1  0
 68 67  1  0
 69 70  1  0
 69 68  1  0
 70 66  1  0
 71 72  2  0
 72 73  1  0
 74 73  2  0
 75 74  1  0
 76 50  1  0
 76 81  1  0
 76 77  1  0
 77 80  1  1
 77 78  1  0
 79 77  1  0
 81 84  1  0
 82 86  1  0
 82 81  1  0
 83 82  2  0
 86 85  1  0
 88 86  1  0
 88 89  1  0
 88 87  1  0
M  ISO  4   8 100  17 100  48 101  49 101
M  END
>  <TORSDO>  (49) 
F 20

>  <SCORE>  (49) 
-13.482

>  <name>  (49) 
48

>  <ligand_id>  (49) 
48

>  <original_smiles>  (49) 
[H]c1c([H])c([H])c2c(c1[H])C([H])([H])C([H])([H])C([H])([H])C2([H])N([H])C(=O)C1([H])N(C(=O)C([H])(N([H])C(=O)C([H])(N([H])C([H])([H])[H])C([H])([H])[H])C(C([H])([H])[H])(C([H])([H])[H])C([H])([H])[H])C([H])([H])c2c([H])c(OC([H])([H])C([H])([H])Oc3c([H])c([H])c(C([H])([H])N(C(=O)N4C([H])([H])C([H])([H])C([H])([H])C([H])(n5nc(-c6c([H])c([H])c(Oc7c([H])c([H])c(F)c([H])c7F)c([H])c6[H])c(C(=O)N([H])[H])c5N([H])[H])C4([H])[H])C([H])([H])[H])c([H])c3[H])c([H])c([H])c2C1([H])[H]

>  <smiles>  (49) 
[H]c1c([H])c([H])c2c(c1[H])C([H])([H])C([H])([H])C([H])([H])C2([H])N([H])C(=O)C1([H])N(C(=O)C([H])(N([H])C(=O)C([H])(N([H])C([H])([H])[H])C([H])([H])[H])C(C([H])([H])[H])(C([H])([H])[H])C([H])([H])[H])C([H])([H])c2c([H])c(OC([H])([H])C([H])([H])Oc3c([H])c([H])c(C([H])([H])N(C(=O)N4C([H])([H])C([H])([H])C([H])([H])C([H])(n5nc(-c6c([H])c([H])c(Oc7c([H])c([H])c(F)c([H])c7F)c([H])c6[H])c(C(=O)N([H])[H])c5N([H])[H])C4([H])[H])C([H])([H])[H])c([H])c3[H])c([H])c([H])c2C1([H])[H]

$$$$
49:0:0
     RDKit          3D

 91100  0  0  1  0  0  0  0  0999 V2000
  -29.4730  -20.9500   19.9350 N   0  0  0  0  0  0  0  0  0  0  0  0
  -29.5800  -21.0170   18.9240 H   0  0  0  0  0  0  0  0  0  0  0  0
  -30.8750  -14.8050   19.6070 C   0  0  0  0  0  0  0  0  0  0  0  0
  -30.5140  -12.5580   18.5790 C   0  0  0  0  0  2  0  0  0  0  0  0
  -29.4180  -12.6580   17.4950 C   0  0  0  0  0  2  0  0  0  0  0  0
  -28.0220  -12.4730   18.1230 C   0  0  0  0  0  2  0  0  0  0  0  0
  -27.8210  -13.3290   19.4020 C   0  0  0  0  0  3  0  0  0  0  0  0
  -29.0250  -13.2380   20.3620 C   0  0  0  0  0  2  0  0  0  0  0  0
  -30.2170  -13.5960   19.5910 N   0  0  0  0  0  0  0  0  0  0  0  0
  -32.0510  -14.8530   19.2320 O   0  0  0  0  0  0  0  0  0  0  0  0
  -29.8170  -18.2290   22.5770 C   0  0  0  0  0  3  0  0  0  0  0  0
  -30.0160  -17.0330   21.8470 C   0  0  0  0  0  3  0  0  0  0  0  0
  -29.6250  -19.4840   21.9410 C   0  0  0  0  0  3  0  0  0  0  0  0
  -29.8130  -18.3680   19.8200 C   0  0  0  0  0  0  0  0  0  0  0  0
  -30.0110  -17.0960   20.4430 C   0  0  0  0  0  0  0  0  0  0  0  0
  -29.6300  -19.6300   20.5300 C   0  0  0  0  0  0  0  0  0  0  0  0
  -29.8160  -18.1350   18.3350 C   0  0  0  0  0  3  0  0  0  0  0  0
  -29.9230  -16.5800   18.1790 C   0  0  0  0  0  3  0  0  0  0  0  0
  -30.1040  -15.9700   19.5180 N   0  0  0  0  0  0  0  0  0  0  0  0
  -25.6060  -13.8940   20.5600 C   0  0  0  0  0  0  0  0  0  0  0  0
  -24.5750  -13.1110   21.0020 C   0  0  0  0  0  0  0  0  0  0  0  0
  -24.9690  -11.7610   20.7530 C   0  0  0  0  0  0  0  0  0  0  0  0
  -26.5620  -13.0210   20.0690 N   0  0  0  0  0  0  0  0  0  0  0  0
  -26.1970  -11.7240   20.2490 N   0  0  0  0  0  0  0  0  0  0  0  0
  -24.2260  -10.5040   20.9130 C   0  0  0  0  0  0  0  0  0  0  0  0
  -24.6850   -9.4760   21.7650 C   0  0  0  0  0  3  0  0  0  0  0  0
  -23.9420   -8.2850   21.9160 C   0  0  0  0  0  3  0  0  0  0  0  0
  -22.7230   -8.1160   21.2160 C   0  0  0  0  0  0  0  0  0  0  0  0
  -22.2810   -9.1330   20.3520 C   0  0  0  0  0  3  0  0  0  0  0  0
  -23.0260  -10.3150   20.1980 C   0  0  0  0  0  3  0  0  0  0  0  0
  -21.9480   -6.9830   21.2810 O   0  0  0  0  0  0  0  0  0  0  0  0
  -21.8480   -6.2450   22.4330 C   0  0  0  0  0  0  0  0  0  0  0  0
  -21.3810   -6.8090   23.6400 C   0  0  0  0  0  3  0  0  0  0  0  0
  -21.2260   -5.9980   24.7830 C   0  0  0  0  0  3  0  0  0  0  0  0
  -21.5280   -4.6240   24.7180 C   0  0  0  0  0  0  0  0  0  0  0  0
  -21.9890   -4.0600   23.5150 C   0  0  0  0  0  3  0  0  0  0  0  0
  -22.1440   -4.8680   22.3750 C   0  0  0  0  0  0  0  0  0  0  0  0
  -22.5670   -4.3140   21.2130 F   0  0  0  0  0  0  0  0  0  0  0  0
  -21.3730   -3.8440   25.8130 F   0  0  0  0  0  0  0  0  0  0  0  0
  -23.2560  -13.5920   21.5350 C   0  0  0  0  0  0  0  0  0  0  0  0
  -22.6480  -12.8330   22.4400 N   0  0  0  0  0  0  0  0  0  0  0  0
  -22.7800  -14.6700   21.1850 O   0  0  0  0  0  0  0  0  0  0  0  0
  -23.0510  -11.9600   22.7440 H   0  0  0  0  0  0  0  0  0  0  0  0
  -21.7690  -13.1340   22.8370 H   0  0  0  0  0  0  0  0  0  0  0  0
  -25.8040  -15.2710   20.5110 N   0  0  0  0  0  0  0  0  0  0  0  0
  -25.1060  -15.9340   20.8280 H   0  0  0  0  0  0  0  0  0  0  0  0
  -26.6330  -15.7170   20.1370 H   0  0  0  0  0  0  0  0  0  0  0  0
  -28.9530  -22.1930   20.6470 C   0  0  0  0  0  2  0  0  0  0  0  0
  -29.1160  -23.6770   19.9940 C   0  0  0  0  0  3  0  0  0  0  0  0
  -28.3330  -24.9350   20.6670 C   0  0  0  0  0  3  0  0  0  0  0  0
  -28.5580  -26.3820   20.2940 O   0  0  0  0  0  0  0  0  0  0  0  0
  -24.6170  -31.8040   23.1290 C   0  0  0  0  0  0  0  0  0  0  0  0
  -27.4390  -27.2440   20.2280 C   0  0  0  0  0  0  0  0  0  0  0  0
  -23.5000  -30.3350   21.4900 C   0  0  0  0  0  3  0  0  0  0  0  0
  -25.0350  -28.8080   20.1200 C   0  0  0  0  0  0  0  0  0  0  0  0
  -26.0350  -30.7270   21.3580 C   0  0  0  0  0  2  0  0  0  0  0  0
  -26.1770  -29.3380   20.7370 C   0  0  0  0  0  0  0  0  0  0  0  0
  -27.3850  -28.5700   20.7760 C   0  0  0  0  0  3  0  0  0  0  0  0
  -26.2790  -26.7850   19.5670 C   0  0  0  0  0  3  0  0  0  0  0  0
  -25.0920  -27.5410   19.5200 C   0  0  0  0  0  3  0  0  0  0  0  0
  -23.7690  -29.6450   20.1260 C   0  0  0  0  0  2  0  0  0  0  0  0
  -24.7350  -30.9760   22.0490 N   0  0  0  0  0  0  0  0  0  0  0  0
  -23.5130  -32.0530   23.6340 O   0  0  0  0  0  0  0  0  0  0  0  0
  -22.8500  -29.3150   22.4550 C   0  0  0  0  0  0  0  0  0  0  0  0
  -21.5300  -29.1000   22.3130 N   0  0  0  0  0  0  0  0  0  0  0  0
  -23.5330  -28.7200   23.2930 O   0  0  0  0  0  0  0  0  0  0  0  0
  -21.0380  -29.6370   21.6140 H   0  0  0  0  0  0  0  0  0  0  0  0
  -18.1820  -27.8110   22.7770 C   0  0  0  0  0  0  0  0  0  0  0  0
  -20.7280  -28.1480   23.0830 C   0  0  0  0  0  3  0  0  0  0  0  0
  -20.8800  -26.7140   22.5280 C   0  0  0  0  0  2  0  0  0  0  0  0
  -19.8040  -26.3480   21.5010 C   0  0  0  0  0  2  0  0  0  0  0  0
  -18.4090  -26.4600   22.1190 C   0  0  0  0  0  2  0  0  0  0  0  0
  -19.2720  -28.6100   23.2140 C   0  0  0  0  0  0  0  0  0  0  0  0
  -19.0070  -29.8730   23.7870 C   0  0  0  0  0  3  0  0  0  0  0  0
  -17.6860  -30.3390   23.9270 C   0  0  0  0  0  3  0  0  0  0  0  0
  -16.6110  -29.5370   23.5050 C   0  0  0  0  0  3  0  0  0  0  0  0
  -16.8590  -28.2740   22.9370 C   0  0  0  0  0  3  0  0  0  0  0  0
  -25.8630  -32.4920   23.7670 C   0  0  0  0  0  3  0  0  0  0  0  0
  -26.4060  -31.7340   25.0410 C   0  0  1  0  0  0  0  0  0  0  0  0
  -25.3150  -31.4230   26.0920 C   0  0  0  0  0  1  0  0  0  0  0  0
  -27.0700  -30.3960   24.6410 C   0  0  0  0  0  1  0  0  0  0  0  0
  -27.5040  -32.5810   25.7260 C   0  0  0  0  0  1  0  0  0  0  0  0
  -25.4810  -33.8700   24.1130 N   0  0  0  0  0  0  0  0  0  0  0  0
  -25.7530  -34.9470   23.3630 C   0  0  0  0  0  0  0  0  0  0  0  0
  -26.4210  -34.8890   22.3280 O   0  0  0  0  0  0  0  0  0  0  0  0
  -24.8860  -33.9840   24.9190 H   0  0  0  0  0  0  0  0  0  0  0  0
  -23.9260  -36.6470   23.0450 C   0  0  0  0  0  1  0  0  0  0  0  0
  -25.1970  -36.3030   23.8370 C   0  0  0  0  0  3  0  0  0  0  0  0
  -27.2920  -37.2970   24.6500 C   0  0  0  0  0  1  0  0  0  0  0  0
  -26.1710  -37.4110   23.7200 N   0  0  0  0  0  0  0  0  0  0  0  0
  -25.7180  -38.3080   23.8770 H   0  0  0  0  0  0  0  0  0  0  0  0
  1 16  1  0
  1 48  1  0
  2  1  1  0
  4  9  1  0
  5  6  1  0
  5  4  1  0
  7  6  1  0
  7 23  1  0
  7  8  1  0
  9  3  1  0
  9  8  1  0
 10  3  2  0
 12 11  2  0
 13 11  1  0
 14 15  2  0
 14 16  1  0
 15 12  1  0
 16 13  2  0
 17 14  1  0
 18 17  2  0
 18 19  1  0
 19  3  1  0
 19 15  1  0
 20 21  2  0
 21 40  1  0
 22 25  1  0
 22 21  1  0
 23 24  1  0
 23 20  1  0
 24 22  2  0
 25 26  1  0
 26 27  2  0
 28 31  1  0
 28 27  1  0
 29 28  2  0
 30 29  1  0
 30 25  2  0
 31 32  1  0
 32 33  1  0
 33 34  2  0
 35 34  1  0
 35 39  1  0
 36 35  2  0
 37 32  2  0
 37 36  1  0
 38 37  1  0
 40 41  1  0
 41 43  1  0
 41 44  1  0
 42 40  2  0
 45 20  1  0
 45 46  1  0
 47 45  1  0
 49 48  1  0
 49 50  2  0
 51 50  1  0
 52 63  2  0
 53 51  1  0
 53 58  1  0
 54 62  1  0
 54 64  1  0
 55 61  1  0
 55 57  1  0
 56 62  1  0
 57 58  2  0
 57 56  1  0
 59 53  2  0
 60 59  1  0
 60 55  2  0
 61 54  1  0
 62 52  1  0
 64 66  2  0
 65 64  1  0
 67 65  1  0
 68 77  2  0
 68 73  1  0
 69 65  1  0
 69 73  1  0
 70 69  1  0
 71 72  1  0
 71 70  1  0
 72 68  1  0
 73 74  2  0
 74 75  1  0
 76 75  2  0
 77 76  1  0
 78 52  1  0
 78 83  1  0
 78 79  1  0
 79 82  1  1
 79 80  1  0
 81 79  1  0
 83 86  1  0
 84 88  1  0
 84 83  1  0
 85 84  2  0
 88 87  1  0
 90 88  1  0
 90 91  1  0
 90 89  1  0
M  ISO  4   3 100  19 100  50 101  51 101
M  END
>  <TORSDO>  (50) 
F 19

>  <SCORE>  (50) 
-10.893

>  <name>  (50) 
49

>  <ligand_id>  (50) 
49

>  <original_smiles>  (50) 
[H]c1c([H])c2c(c(N([H])C([H])([H])C([H])([H])C([H])([H])Oc3c([H])c([H])c4c(c3[H])C([H])([H])N(C(=O)C([H])(N([H])C(=O)C([H])(N([H])C([H])([H])[H])C([H])([H])[H])C(C([H])([H])[H])(C([H])([H])[H])C([H])([H])[H])C([H])(C(=O)N([H])C3([H])c5c([H])c([H])c([H])c([H])c5C([H])([H])C([H])([H])C3([H])[H])C4([H])[H])c1[H])C([H])([H])C([H])([H])N2C(=O)N1C([H])([H])C([H])([H])C([H])([H])C([H])(n2nc(-c3c([H])c([H])c(Oc4c([H])c([H])c(F)c([H])c4F)c([H])c3[H])c(C(=O)N([H])[H])c2N([H])[H])C1([H])[H]

>  <smiles>  (50) 
[H]c1c([H])c2c(c(N([H])C([H])([H])C([H])([H])C([H])([H])Oc3c([H])c([H])c4c(c3[H])C([H])([H])N(C(=O)C([H])(N([H])C(=O)C([H])(N([H])C([H])([H])[H])C([H])([H])[H])C(C([H])([H])[H])(C([H])([H])[H])C([H])([H])[H])C([H])(C(=O)N([H])C3([H])c5c([H])c([H])c([H])c([H])c5C([H])([H])C([H])([H])C3([H])[H])C4([H])[H])c1[H])C([H])([H])C([H])([H])N2C(=O)N1C([H])([H])C([H])([H])C([H])([H])C([H])(n2nc(-c3c([H])c([H])c(Oc4c([H])c([H])c(F)c([H])c4F)c([H])c3[H])c(C(=O)N([H])[H])c2N([H])[H])C1([H])[H]

$$$$
50:0:0
     RDKit          3D

 94102  0  0  1  0  0  0  0  0999 V2000
  -25.5580  -21.6770   19.5220 C   0  0  0  0  0  2  0  0  0  0  0  0
  -24.7630  -23.8890   20.2030 C   0  0  0  0  0  1  0  0  0  0  0  0
  -25.9440  -22.9940   20.0810 N   0  0  2  0  0  4  0  0  0  0  0  0
  -26.2690  -22.8150   21.0200 H   0  0  0  0  0  0  0  0  0  0  0  0
  -27.0730  -23.6120   19.3300 C   0  0  0  0  0  2  0  0  0  0  0  0
  -27.8560  -24.6630   20.1470 C   0  0  0  0  0  2  0  0  0  0  0  0
  -28.6100  -25.6760   19.2510 C   0  0  0  0  0  2  0  0  0  0  0  0
  -28.5460  -27.0100   19.7660 O   0  0  0  0  0  0  0  0  0  0  0  0
  -24.5520  -31.7990   23.1590 C   0  0  0  0  0  0  0  0  0  0  0  0
  -27.3250  -27.6590   19.7890 C   0  0  0  0  0  0  0  0  0  0  0  0
  -23.3720  -30.4270   21.4740 C   0  0  0  0  0  3  0  0  0  0  0  0
  -24.8600  -29.0370   19.9430 C   0  0  0  0  0  0  0  0  0  0  0  0
  -25.8750  -30.9110   21.2460 C   0  0  0  0  0  2  0  0  0  0  0  0
  -26.0050  -29.5810   20.5360 C   0  0  0  0  0  0  0  0  0  0  0  0
  -27.2370  -28.8940   20.4670 C   0  0  0  0  0  3  0  0  0  0  0  0
  -26.1590  -27.1390   19.1760 C   0  0  0  0  0  3  0  0  0  0  0  0
  -24.9290  -27.8120   19.2660 C   0  0  0  0  0  3  0  0  0  0  0  0
  -23.5790  -29.8310   20.0570 C   0  0  0  0  0  2  0  0  0  0  0  0
  -24.6180  -31.0580   22.0180 N   0  0  0  0  0  0  0  0  0  0  0  0
  -23.4730  -31.9970   23.7330 O   0  0  0  0  0  0  0  0  0  0  0  0
  -22.7910  -29.3290   22.3920 C   0  0  0  0  0  0  0  0  0  0  0  0
  -21.4750  -29.0870   22.2770 N   0  0  0  0  0  0  0  0  0  0  0  0
  -23.5190  -28.6980   23.1630 O   0  0  0  0  0  0  0  0  0  0  0  0
  -20.9440  -29.6600   21.6360 H   0  0  0  0  0  0  0  0  0  0  0  0
  -18.1780  -27.6910   22.7370 C   0  0  0  0  0  0  0  0  0  0  0  0
  -20.7200  -28.0700   23.0070 C   0  0  0  0  0  3  0  0  0  0  0  0
  -20.8950  -26.6760   22.3600 C   0  0  0  0  0  2  0  0  0  0  0  0
  -19.8030  -26.3450   21.3390 C   0  0  0  0  0  2  0  0  0  0  0  0
  -18.4190  -26.3890   21.9920 C   0  0  0  0  0  2  0  0  0  0  0  0
  -19.2590  -28.4880   23.1960 C   0  0  0  0  0  0  0  0  0  0  0  0
  -18.9800  -29.7120   23.8440 C   0  0  0  0  0  3  0  0  0  0  0  0
  -17.6550  -30.1410   24.0350 C   0  0  0  0  0  3  0  0  0  0  0  0
  -16.5870  -29.3400   23.5930 C   0  0  0  0  0  3  0  0  0  0  0  0
  -16.8500  -28.1170   22.9520 C   0  0  0  0  0  3  0  0  0  0  0  0
  -25.8240  -32.4560   23.7820 C   0  0  0  0  0  3  0  0  0  0  0  0
  -25.4790  -33.8380   24.1330 N   0  0  0  0  0  0  0  0  0  0  0  0
  -25.7770  -34.9090   23.3830 C   0  0  0  0  0  0  0  0  0  0  0  0
  -26.4410  -34.8360   22.3450 O   0  0  0  0  0  0  0  0  0  0  0  0
  -24.8880  -33.9670   24.9410 H   0  0  0  0  0  0  0  0  0  0  0  0
  -23.9900  -36.6500   23.0620 C   0  0  0  0  0  1  0  0  0  0  0  0
  -25.2510  -36.2760   23.8580 C   0  0  0  0  0  3  0  0  0  0  0  0
  -27.3640  -37.2190   24.6810 C   0  0  0  0  0  1  0  0  0  0  0  0
  -26.2500  -37.3610   23.7460 N   0  0  0  0  0  0  0  0  0  0  0  0
  -25.8180  -38.2670   23.9040 H   0  0  0  0  0  0  0  0  0  0  0  0
  -26.3700  -31.6780   25.0410 C   0  0  1  0  0  0  0  0  0  0  0  0
  -25.2910  -31.3930   26.1130 C   0  0  0  0  0  1  0  0  0  0  0  0
  -26.9890  -30.3250   24.6200 C   0  0  0  0  0  1  0  0  0  0  0  0
  -27.5030  -32.4920   25.7090 C   0  0  0  0  0  1  0  0  0  0  0  0
  -27.3440  -19.9320   19.1020 C   0  0  0  0  0  3  0  0  0  0  0  0
  -26.5400  -20.6040   19.9450 C   0  0  0  0  0  3  0  0  0  0  0  0
  -28.5890  -18.5540   20.8190 C   0  0  0  0  0  3  0  0  0  0  0  0
  -28.8800  -18.0960   18.4510 C   0  0  0  0  0  3  0  0  0  0  0  0
  -29.4160  -17.4600   21.1340 C   0  0  0  0  0  3  0  0  0  0  0  0
  -29.7180  -17.0080   18.7610 C   0  0  0  0  0  3  0  0  0  0  0  0
  -28.2870  -18.8640   19.4740 C   0  0  0  0  0  0  0  0  0  0  0  0
  -29.9650  -16.6610   20.1120 C   0  0  0  0  0  0  0  0  0  0  0  0
  -31.1400  -14.5680   19.6530 C   0  0  0  0  0  0  0  0  0  0  0  0
  -30.6820  -12.3960   18.5900 C   0  0  0  0  0  2  0  0  0  0  0  0
  -29.5970  -12.5910   17.5120 C   0  0  0  0  0  2  0  0  0  0  0  0
  -28.1880  -12.4790   18.1280 C   0  0  0  0  0  2  0  0  0  0  0  0
  -28.0200  -13.3590   19.3960 C   0  0  0  0  0  3  0  0  0  0  0  0
  -29.2000  -13.1310   20.3700 C   0  0  0  0  0  2  0  0  0  0  0  0
  -30.4620  -13.3910   19.6480 N   0  0  0  0  0  0  0  0  0  0  0  0
  -32.1010  -14.8130   18.9160 O   0  0  0  0  0  0  0  0  0  0  0  0
  -30.6620  -15.4870   20.5010 N   0  0  0  0  0  0  0  0  0  0  0  0
  -30.3070  -15.0840   21.3560 H   0  0  0  0  0  0  0  0  0  0  0  0
  -25.8180  -14.0310   20.5570 C   0  0  0  0  0  0  0  0  0  0  0  0
  -24.7530  -13.2900   20.9980 C   0  0  0  0  0  0  0  0  0  0  0  0
  -25.0820  -11.9270   20.7220 C   0  0  0  0  0  0  0  0  0  0  0  0
  -26.7330  -13.1210   20.0480 N   0  0  0  0  0  0  0  0  0  0  0  0
  -26.2980  -11.8440   20.1990 N   0  0  0  0  0  0  0  0  0  0  0  0
  -24.2870  -10.7000   20.8720 C   0  0  0  0  0  0  0  0  0  0  0  0
  -24.6750   -9.6740   21.7600 C   0  0  0  0  0  3  0  0  0  0  0  0
  -23.8850   -8.5130   21.9000 C   0  0  0  0  0  3  0  0  0  0  0  0
  -22.6920   -8.3700   21.1530 C   0  0  0  0  0  0  0  0  0  0  0  0
  -22.3220   -9.3860   20.2530 C   0  0  0  0  0  3  0  0  0  0  0  0
  -23.1120  -10.5400   20.1110 C   0  0  0  0  0  3  0  0  0  0  0  0
  -21.8770   -7.2660   21.2040 O   0  0  0  0  0  0  0  0  0  0  0  0
  -21.6810   -6.5690   22.3700 C   0  0  0  0  0  0  0  0  0  0  0  0
  -21.1440   -7.1820   23.5230 C   0  0  0  0  0  3  0  0  0  0  0  0
  -20.8940   -6.4130   24.6770 C   0  0  0  0  0  3  0  0  0  0  0  0
  -21.1710   -5.0320   24.6770 C   0  0  0  0  0  0  0  0  0  0  0  0
  -21.6990   -4.4190   23.5270 C   0  0  0  0  0  3  0  0  0  0  0  0
  -21.9510   -5.1860   22.3760 C   0  0  0  0  0  0  0  0  0  0  0  0
  -22.4410   -4.5870   21.2650 F   0  0  0  0  0  0  0  0  0  0  0  0
  -20.9230   -4.2920   25.7820 F   0  0  0  0  0  0  0  0  0  0  0  0
  -23.4640  -13.8160   21.5590 C   0  0  0  0  0  0  0  0  0  0  0  0
  -22.8440  -13.0760   22.4720 N   0  0  0  0  0  0  0  0  0  0  0  0
  -23.0230  -14.9150   21.2240 O   0  0  0  0  0  0  0  0  0  0  0  0
  -23.2180  -12.1840   22.7630 H   0  0  0  0  0  0  0  0  0  0  0  0
  -21.9840  -13.4070   22.8850 H   0  0  0  0  0  0  0  0  0  0  0  0
  -26.0750  -15.3990   20.5310 N   0  0  0  0  0  0  0  0  0  0  0  0
  -25.4060  -16.0800   20.8690 H   0  0  0  0  0  0  0  0  0  0  0  0
  -26.9260  -15.8190   20.1770 H   0  0  0  0  0  0  0  0  0  0  0  0
  1 50  1  0
  1  3  1  0
  3  2  1  0
  3  4  1  1
  5  3  1  0
  5  6  1  0
  7  8  1  0
  7  6  1  0
  8 10  1  0
  9 20  2  0
 10 15  1  0
 11 19  1  0
 11 21  1  0
 12 18  1  0
 12 14  1  0
 13 19  1  0
 14 13  1  0
 15 14  2  0
 16 17  1  0
 16 10  2  0
 17 12  2  0
 18 11  1  0
 19  9  1  0
 21 23  2  0
 22 21  1  0
 24 22  1  0
 25 34  2  0
 25 30  1  0
 26 22  1  0
 26 30  1  0
 27 26  1  0
 28 29  1  0
 28 27  1  0
 29 25  1  0
 30 31  2  0
 31 32  1  0
 33 32  2  0
 34 33  1  0
 35  9  1  0
 35 36  1  0
 35 45  1  0
 36 39  1  0
 37 41  1  0
 37 36  1  0
 38 37  2  0
 41 40  1  0
 43 41  1  0
 43 44  1  0
 43 42  1  0
 45 48  1  1
 45 46  1  0
 47 45  1  0
 49 55  1  0
 49 50  2  0
 51 53  1  0
 52 54  2  0
 52 55  1  0
 54 56  1  0
 55 51  2  0
 56 65  1  0
 56 53  2  0
 57 65  1  0
 58 63  1  0
 59 60  1  0
 59 58  1  0
 61 60  1  0
 61 70  1  0
 61 62  1  0
 63 57  1  0
 63 62  1  0
 64 57  2  0
 65 66  1  0
 67 68  2  0
 68 87  1  0
 69 72  1  0
 69 68  1  0
 70 71  1  0
 70 67  1  0
 71 69  2  0
 72 73  1  0
 73 74  2  0
 75 78  1  0
 75 74  1  0
 76 75  2  0
 77 76  1  0
 77 72  2  0
 78 79  1  0
 79 84  2  0
 79 80  1  0
 80 81  2  0
 81 82  1  0
 82 86  1  0
 83 82  2  0
 84 83  1  0
 85 84  1  0
 87 88  1  0
 88 90  1  0
 88 91  1  0
 89 87  2  0
 92 67  1  0
 92 93  1  0
 94 92  1  0
M  ISO  4   7 101   8 101  57 100  65 100
M  END
>  <TORSDO>  (51) 
F 22

>  <SCORE>  (51) 
-10.093

>  <name>  (51) 
50

>  <ligand_id>  (51) 
50

>  <original_smiles>  (51) 
[H]C(=C([H])C([H])([H])[N+]([H])(C([H])([H])[H])C([H])([H])C([H])([H])C([H])([H])Oc1c([H])c([H])c2c(c1[H])C([H])([H])N(C(=O)C([H])(N([H])C(=O)C([H])(N([H])C([H])([H])[H])C([H])([H])[H])C(C([H])([H])[H])(C([H])([H])[H])C([H])([H])[H])C([H])(C(=O)N([H])C1([H])c3c([H])c([H])c([H])c([H])c3C([H])([H])C([H])([H])C1([H])[H])C2([H])[H])c1c([H])c([H])c(N([H])C(=O)N2C([H])([H])C([H])([H])C([H])([H])C([H])(n3nc(-c4c([H])c([H])c(Oc5c([H])c([H])c(F)c([H])c5F)c([H])c4[H])c(C(=O)N([H])[H])c3N([H])[H])C2([H])[H])c([H])c1[H]

>  <smiles>  (51) 
[H]C(=C([H])C([H])([H])[N+]([H])(C([H])([H])[H])C([H])([H])C([H])([H])C([H])([H])Oc1c([H])c([H])c2c(c1[H])C([H])([H])N(C(=O)C([H])(N([H])C(=O)C([H])(N([H])C([H])([H])[H])C([H])([H])[H])C(C([H])([H])[H])(C([H])([H])[H])C([H])([H])[H])C([H])(C(=O)N([H])C1([H])c3c([H])c([H])c([H])c([H])c3C([H])([H])C([H])([H])C1([H])[H])C2([H])[H])c1c([H])c([H])c(N([H])C(=O)N2C([H])([H])C([H])([H])C([H])([H])C([H])(n3nc(-c4c([H])c([H])c(Oc5c([H])c([H])c(F)c([H])c5F)c([H])c4[H])c(C(=O)N([H])[H])c3N([H])[H])C2([H])[H])c([H])c1[H]

$$$$
51:0:0
     RDKit          3D

 90 99  0  0  1  0  0  0  0  0999 V2000
  -29.1270  -24.4210   21.7300 C   0  0  0  0  0  2  0  0  0  0  0  0
  -29.2060  -22.8660   21.8870 C   0  0  0  0  0  2  0  0  0  0  0  0
  -28.4420  -23.3910   19.7210 C   0  0  0  0  0  2  0  0  0  0  0  0
  -28.1410  -24.7640   20.5960 C   0  0  0  0  0  3  0  0  0  0  0  0
  -28.9880  -22.2370   20.5810 N   0  0  0  0  0  0  0  0  0  0  0  0
  -30.1550  -19.9910   21.1770 C   0  0  0  0  0  3  0  0  0  0  0  0
  -28.4820  -19.8780   19.5370 C   0  0  0  0  0  3  0  0  0  0  0  0
  -30.3590  -18.5470   21.1040 C   0  0  0  0  0  3  0  0  0  0  0  0
  -28.6590  -18.4290   19.4880 C   0  0  0  0  0  3  0  0  0  0  0  0
  -29.2000  -20.7620   20.4120 C   0  0  0  0  0  0  0  0  0  0  0  0
  -29.6080  -17.6650   20.2610 C   0  0  0  0  0  0  0  0  0  0  0  0
  -30.4700  -15.0200   20.1680 C   0  0  0  0  0  0  0  0  0  0  0  0
  -30.3850  -12.6760   19.1950 C   0  0  0  0  0  2  0  0  0  0  0  0
  -29.4100  -12.6390   17.9940 C   0  0  0  0  0  2  0  0  0  0  0  0
  -27.9600  -12.4140   18.4650 C   0  0  0  0  0  2  0  0  0  0  0  0
  -27.5810  -13.3190   19.6670 C   0  0  0  0  0  3  0  0  0  0  0  0
  -28.6700  -13.3050   20.7620 C   0  0  0  0  0  2  0  0  0  0  0  0
  -29.9200  -13.7410   20.1260 N   0  0  0  0  0  0  0  0  0  0  0  0
  -31.6660  -15.1410   19.8770 O   0  0  0  0  0  0  0  0  0  0  0  0
  -29.5890  -16.1270   20.3100 N   0  0  0  0  0  0  0  0  0  0  0  0
  -28.6480  -15.7720   20.3860 H   0  0  0  0  0  0  0  0  0  0  0  0
  -25.2170  -13.8810   20.4730 C   0  0  0  0  0  0  0  0  0  0  0  0
  -24.1680  -13.0970   20.8660 C   0  0  0  0  0  0  0  0  0  0  0  0
  -24.6390  -11.7490   20.8100 C   0  0  0  0  0  0  0  0  0  0  0  0
  -26.2580  -13.0100   20.1960 N   0  0  0  0  0  0  0  0  0  0  0  0
  -25.9210  -11.7220   20.4650 N   0  0  0  0  0  0  0  0  0  0  0  0
  -23.9240  -10.4820   21.0040 C   0  0  0  0  0  0  0  0  0  0  0  0
  -24.3720   -9.5140   21.9310 C   0  0  0  0  0  3  0  0  0  0  0  0
  -23.6560   -8.3120   22.1140 C   0  0  0  0  0  3  0  0  0  0  0  0
  -22.4760   -8.0680   21.3700 C   0  0  0  0  0  0  0  0  0  0  0  0
  -22.0470   -9.0230   20.4320 C   0  0  0  0  0  3  0  0  0  0  0  0
  -22.7640  -10.2170   20.2470 C   0  0  0  0  0  3  0  0  0  0  0  0
  -21.7300   -6.9180   21.4630 O   0  0  0  0  0  0  0  0  0  0  0  0
  -21.6810   -6.1840   22.6210 C   0  0  0  0  0  0  0  0  0  0  0  0
  -21.2370   -6.7430   23.8400 C   0  0  0  0  0  3  0  0  0  0  0  0
  -21.1380   -5.9330   24.9880 C   0  0  0  0  0  3  0  0  0  0  0  0
  -21.4710   -4.5670   24.9200 C   0  0  0  0  0  0  0  0  0  0  0  0
  -21.9090   -4.0090   23.7060 C   0  0  0  0  0  3  0  0  0  0  0  0
  -22.0100   -4.8150   22.5590 C   0  0  0  0  0  0  0  0  0  0  0  0
  -22.4120   -4.2670   21.3870 F   0  0  0  0  0  0  0  0  0  0  0  0
  -21.3680   -3.7880   26.0220 F   0  0  0  0  0  0  0  0  0  0  0  0
  -22.7750  -13.5640   21.1770 C   0  0  0  0  0  0  0  0  0  0  0  0
  -22.0720  -12.8550   22.0520 N   0  0  0  0  0  0  0  0  0  0  0  0
  -22.3210  -14.5930   20.6780 O   0  0  0  0  0  0  0  0  0  0  0  0
  -22.4530  -12.0220   22.4760 H   0  0  0  0  0  0  0  0  0  0  0  0
  -21.1380  -13.1510   22.3020 H   0  0  0  0  0  0  0  0  0  0  0  0
  -25.3620  -15.2540   20.2990 N   0  0  0  0  0  0  0  0  0  0  0  0
  -24.5780  -15.8870   20.4140 H   0  0  0  0  0  0  0  0  0  0  0  0
  -26.1610  -15.6970   19.8650 H   0  0  0  0  0  0  0  0  0  0  0  0
  -28.2900  -26.2670   20.2130 O   0  0  0  0  0  0  0  0  0  0  0  0
  -24.6360  -31.9120   23.2610 C   0  0  0  0  0  0  0  0  0  0  0  0
  -27.2050  -27.2100   20.2250 C   0  0  0  0  0  0  0  0  0  0  0  0
  -23.4290  -30.5170   21.6260 C   0  0  0  0  0  3  0  0  0  0  0  0
  -24.8690  -28.9350   20.2010 C   0  0  0  0  0  0  0  0  0  0  0  0
  -25.9790  -30.7890   21.4440 C   0  0  0  0  0  2  0  0  0  0  0  0
  -26.0520  -29.3950   20.7960 C   0  0  0  0  0  0  0  0  0  0  0  0
  -27.2230  -28.5500   20.7830 C   0  0  0  0  0  3  0  0  0  0  0  0
  -25.9950  -26.8400   19.6050 C   0  0  0  0  0  3  0  0  0  0  0  0
  -24.8530  -27.6710   19.5900 C   0  0  0  0  0  3  0  0  0  0  0  0
  -23.6420  -29.8330   20.2480 C   0  0  0  0  0  2  0  0  0  0  0  0
  -24.7020  -31.0940   22.1650 N   0  0  0  0  0  0  0  0  0  0  0  0
  -23.5530  -32.1960   23.7940 O   0  0  0  0  0  0  0  0  0  0  0  0
  -22.7540  -29.5120   22.5910 C   0  0  0  0  0  0  0  0  0  0  0  0
  -21.4260  -29.3370   22.4660 N   0  0  0  0  0  0  0  0  0  0  0  0
  -23.4270  -28.8890   23.4170 O   0  0  0  0  0  0  0  0  0  0  0  0
  -20.9370  -29.8900   21.7760 H   0  0  0  0  0  0  0  0  0  0  0  0
  -18.0500  -28.1200   22.9650 C   0  0  0  0  0  0  0  0  0  0  0  0
  -20.6080  -28.3990   23.2390 C   0  0  0  0  0  3  0  0  0  0  0  0
  -20.7190  -26.9640   22.6740 C   0  0  0  0  0  2  0  0  0  0  0  0
  -19.6220  -26.6300   21.6580 C   0  0  0  0  0  2  0  0  0  0  0  0
  -18.2380  -26.7690   22.2960 C   0  0  0  0  0  2  0  0  0  0  0  0
  -19.1630  -28.8920   23.3940 C   0  0  0  0  0  0  0  0  0  0  0  0
  -18.9340  -30.1560   23.9810 C   0  0  0  0  0  3  0  0  0  0  0  0
  -17.6240  -30.6480   24.1420 C   0  0  0  0  0  3  0  0  0  0  0  0
  -16.5260  -29.8740   23.7280 C   0  0  0  0  0  3  0  0  0  0  0  0
  -16.7400  -28.6120   23.1460 C   0  0  0  0  0  3  0  0  0  0  0  0
  -25.9170  -32.5480   23.8830 C   0  0  0  0  0  3  0  0  0  0  0  0
  -25.6090  -33.9480   24.2140 N   0  0  0  0  0  0  0  0  0  0  0  0
  -25.9370  -35.0030   23.4560 C   0  0  0  0  0  0  0  0  0  0  0  0
  -26.5960  -34.8990   22.4190 O   0  0  0  0  0  0  0  0  0  0  0  0
  -25.0230  -34.1010   25.0220 H   0  0  0  0  0  0  0  0  0  0  0  0
  -24.2060  -36.8000   23.1270 C   0  0  0  0  0  1  0  0  0  0  0  0
  -25.4580  -36.3920   23.9210 C   0  0  0  0  0  3  0  0  0  0  0  0
  -27.6040  -37.2780   24.7220 C   0  0  0  0  0  1  0  0  0  0  0  0
  -26.4900  -37.4450   23.7930 N   0  0  0  0  0  0  0  0  0  0  0  0
  -26.0870  -38.3650   23.9450 H   0  0  0  0  0  0  0  0  0  0  0  0
  -26.4280  -31.7800   25.1650 C   0  0  1  0  0  0  0  0  0  0  0  0
  -25.3330  -31.5590   26.2360 C   0  0  0  0  0  1  0  0  0  0  0  0
  -26.9980  -30.3950   24.7840 C   0  0  0  0  0  1  0  0  0  0  0  0
  -27.5850  -32.5690   25.8220 C   0  0  0  0  0  1  0  0  0  0  0  0
  1  2  1  0
  3  5  1  0
  3  4  1  0
  4 50  1  0
  4  1  1  0
  5  2  1  0
  7 10  1  0
  8  6  1  0
  9  7  2  0
  9 11  1  0
 10  5  1  0
 10  6  2  0
 11 20  1  0
 11  8  2  0
 12 20  1  0
 13 18  1  0
 14 15  1  0
 14 13  1  0
 16 15  1  0
 16 25  1  0
 16 17  1  0
 18 12  1  0
 18 17  1  0
 19 12  2  0
 20 21  1  0
 22 23  2  0
 23 42  1  0
 24 23  1  0
 24 27  1  0
 25 26  1  0
 25 22  1  0
 26 24  2  0
 27 28  1  0
 28 29  2  0
 30 33  1  0
 30 29  1  0
 31 30  2  0
 32 31  1  0
 32 27  2  0
 33 34  1  0
 34 35  1  0
 35 36  2  0
 37 36  1  0
 37 41  1  0
 38 37  2  0
 39 34  2  0
 39 38  1  0
 40 39  1  0
 42 43  1  0
 43 46  1  0
 43 45  1  0
 44 42  2  0
 47 48  1  0
 47 22  1  0
 49 47  1  0
 50 52  1  0
 51 62  2  0
 52 57  1  0
 53 61  1  0
 53 63  1  0
 54 60  1  0
 54 56  1  0
 55 61  1  0
 56 55  1  0
 57 56  2  0
 58 52  2  0
 59 58  1  0
 59 54  2  0
 60 53  1  0
 61 51  1  0
 63 65  2  0
 64 63  1  0
 66 64  1  0
 67 76  2  0
 67 72  1  0
 68 64  1  0
 68 72  1  0
 69 68  1  0
 70 71  1  0
 70 69  1  0
 71 67  1  0
 72 73  2  0
 73 74  1  0
 75 74  2  0
 76 75  1  0
 77 51  1  0
 77 78  1  0
 77 87  1  0
 78 81  1  0
 79 83  1  0
 79 78  1  0
 80 79  2  0
 83 82  1  0
 85 83  1  0
 85 86  1  0
 85 84  1  0
 87 90  1  1
 87 88  1  0
 89 87  1  0
M  ISO  4   4 101  12 100  20 100  50 101
M  END
>  <TORSDO>  (52) 
F 17

>  <SCORE>  (52) 
-15.242

>  <name>  (52) 
51

>  <ligand_id>  (52) 
51

>  <original_smiles>  (52) 
[H]c1c([H])c([H])c2c(c1[H])C([H])([H])C([H])([H])C([H])([H])C2([H])N([H])C(=O)C1([H])N(C(=O)C([H])(N([H])C(=O)C([H])(N([H])C([H])([H])[H])C([H])([H])[H])C(C([H])([H])[H])(C([H])([H])[H])C([H])([H])[H])C([H])([H])c2c([H])c(OC3([H])C([H])([H])N(c4c([H])c([H])c(N([H])C(=O)N5C([H])([H])C([H])([H])C([H])([H])C([H])(n6nc(-c7c([H])c([H])c(Oc8c([H])c([H])c(F)c([H])c8F)c([H])c7[H])c(C(=O)N([H])[H])c6N([H])[H])C5([H])[H])c([H])c4[H])C([H])([H])C3([H])[H])c([H])c([H])c2C1([H])[H]

>  <smiles>  (52) 
[H]c1c([H])c([H])c2c(c1[H])C([H])([H])C([H])([H])C([H])([H])C2([H])N([H])C(=O)C1([H])N(C(=O)C([H])(N([H])C(=O)C([H])(N([H])C([H])([H])[H])C([H])([H])[H])C(C([H])([H])[H])(C([H])([H])[H])C([H])([H])[H])C([H])([H])c2c([H])c(OC3([H])C([H])([H])N(c4c([H])c([H])c(N([H])C(=O)N5C([H])([H])C([H])([H])C([H])([H])C([H])(n6nc(-c7c([H])c([H])c(Oc8c([H])c([H])c(F)c([H])c8F)c([H])c7[H])c(C(=O)N([H])[H])c6N([H])[H])C5([H])[H])c([H])c4[H])C([H])([H])C3([H])[H])c([H])c([H])c2C1([H])[H]

$$$$
52:0:0
     RDKit          3D

 88 97  0  0  1  0  0  0  0  0999 V2000
  -28.4280  -23.7790   21.7100 C   0  0  0  0  0  2  0  0  0  0  0  0
  -28.4360  -22.1840   21.6950 C   0  0  0  0  0  2  0  0  0  0  0  0
  -28.7740  -22.9990   19.5590 C   0  0  0  0  0  2  0  0  0  0  0  0
  -28.0490  -24.3650   20.3260 C   0  0  0  0  0  3  0  0  0  0  0  0
  -28.8350  -21.6450   20.3790 N   0  0  0  0  0  0  0  0  0  0  0  0
  -29.8830  -17.7680   21.1800 C   0  0  0  0  0  3  0  0  0  0  0  0
  -29.4510  -17.8260   18.9270 C   0  0  0  0  0  3  0  0  0  0  0  0
  -29.5550  -19.2160   21.2680 C   0  0  0  0  0  3  0  0  0  0  0  0
  -29.1410  -19.2830   19.0140 C   0  0  0  0  0  3  0  0  0  0  0  0
  -29.8430  -16.9080   20.0040 C   0  0  0  0  0  0  0  0  0  0  0  0
  -29.1610  -20.1340   20.2010 C   0  0  0  0  0  0  0  0  0  0  0  0
  -30.4680  -15.3520   19.8380 C   0  0  0  0  0  0  0  0  0  0  0  0
  -30.3500  -12.9250   18.9520 C   0  0  0  0  0  2  0  0  0  0  0  0
  -29.3600  -12.7350   17.7770 C   0  0  0  0  0  2  0  0  0  0  0  0
  -27.9470  -12.4430   18.3100 C   0  0  0  0  0  2  0  0  0  0  0  0
  -27.5570  -13.3960   19.4660 C   0  0  0  0  0  3  0  0  0  0  0  0
  -28.6720  -13.5610   20.5170 C   0  0  0  0  0  2  0  0  0  0  0  0
  -29.8650  -14.0620   19.8190 N   0  0  0  0  0  0  0  0  0  0  0  0
  -31.6650  -15.2980   19.5200 O   0  0  0  0  0  0  0  0  0  0  0  0
  -25.2470  -13.9040   20.4240 C   0  0  0  0  0  0  0  0  0  0  0  0
  -24.2200  -13.1040   20.8450 C   0  0  0  0  0  0  0  0  0  0  0  0
  -24.6940  -11.7600   20.7330 C   0  0  0  0  0  0  0  0  0  0  0  0
  -26.2750  -13.0470   20.0690 N   0  0  0  0  0  0  0  0  0  0  0  0
  -25.9590  -11.7500   20.3260 N   0  0  0  0  0  0  0  0  0  0  0  0
  -23.9900  -10.4850   20.9320 C   0  0  0  0  0  0  0  0  0  0  0  0
  -24.4560   -9.5190   21.8500 C   0  0  0  0  0  3  0  0  0  0  0  0
  -23.7490   -8.3120   22.0410 C   0  0  0  0  0  3  0  0  0  0  0  0
  -22.5610   -8.0630   21.3140 C   0  0  0  0  0  0  0  0  0  0  0  0
  -22.1130   -9.0180   20.3850 C   0  0  0  0  0  3  0  0  0  0  0  0
  -22.8220  -10.2160   20.1930 C   0  0  0  0  0  3  0  0  0  0  0  0
  -21.8230   -6.9080   21.4160 O   0  0  0  0  0  0  0  0  0  0  0  0
  -21.7580   -6.1940   22.5850 C   0  0  0  0  0  0  0  0  0  0  0  0
  -21.2970   -6.7730   23.7880 C   0  0  0  0  0  3  0  0  0  0  0  0
  -21.1810   -5.9840   24.9500 C   0  0  0  0  0  3  0  0  0  0  0  0
  -21.5160   -4.6180   24.9110 C   0  0  0  0  0  0  0  0  0  0  0  0
  -21.9680   -4.0380   23.7120 C   0  0  0  0  0  3  0  0  0  0  0  0
  -22.0860   -4.8230   22.5540 C   0  0  0  0  0  0  0  0  0  0  0  0
  -22.5040   -4.2530   21.3960 F   0  0  0  0  0  0  0  0  0  0  0  0
  -21.3950   -3.8590   26.0260 F   0  0  0  0  0  0  0  0  0  0  0  0
  -22.8430  -13.5600   21.2300 C   0  0  0  0  0  0  0  0  0  0  0  0
  -22.1850  -12.8330   22.1240 N   0  0  0  0  0  0  0  0  0  0  0  0
  -22.3650  -14.5970   20.7740 O   0  0  0  0  0  0  0  0  0  0  0  0
  -22.5870  -11.9970   22.5210 H   0  0  0  0  0  0  0  0  0  0  0  0
  -21.2650  -13.1240   22.4230 H   0  0  0  0  0  0  0  0  0  0  0  0
  -25.3870  -15.2820   20.2800 N   0  0  0  0  0  0  0  0  0  0  0  0
  -24.6280  -15.9260   20.4740 H   0  0  0  0  0  0  0  0  0  0  0  0
  -26.2170  -15.7440   19.9270 H   0  0  0  0  0  0  0  0  0  0  0  0
  -28.2410  -25.9940   20.2280 O   0  0  0  0  0  0  0  0  0  0  0  0
  -24.6640  -31.9240   23.2420 C   0  0  0  0  0  0  0  0  0  0  0  0
  -27.2010  -27.0550   20.2240 C   0  0  0  0  0  0  0  0  0  0  0  0
  -23.4600  -30.5280   21.6120 C   0  0  0  0  0  3  0  0  0  0  0  0
  -24.8960  -28.9150   20.1900 C   0  0  0  0  0  0  0  0  0  0  0  0
  -26.0230  -30.7410   21.4470 C   0  0  0  0  0  2  0  0  0  0  0  0
  -26.0880  -29.3300   20.7970 C   0  0  0  0  0  0  0  0  0  0  0  0
  -27.2360  -28.4220   20.7840 C   0  0  0  0  0  3  0  0  0  0  0  0
  -25.9760  -26.7830   19.5760 C   0  0  0  0  0  3  0  0  0  0  0  0
  -24.8610  -27.6610   19.5610 C   0  0  0  0  0  3  0  0  0  0  0  0
  -23.6800  -29.8370   20.2390 C   0  0  0  0  0  2  0  0  0  0  0  0
  -24.7390  -31.0910   22.1550 N   0  0  0  0  0  0  0  0  0  0  0  0
  -23.5780  -32.2170   23.7690 O   0  0  0  0  0  0  0  0  0  0  0  0
  -22.7680  -29.5370   22.5850 C   0  0  0  0  0  0  0  0  0  0  0  0
  -21.4370  -29.3700   22.4620 N   0  0  0  0  0  0  0  0  0  0  0  0
  -23.4350  -28.9150   23.4140 O   0  0  0  0  0  0  0  0  0  0  0  0
  -20.9530  -29.9220   21.7680 H   0  0  0  0  0  0  0  0  0  0  0  0
  -18.0600  -28.1470   22.9710 C   0  0  0  0  0  0  0  0  0  0  0  0
  -20.6160  -28.4340   23.2390 C   0  0  0  0  0  3  0  0  0  0  0  0
  -20.7280  -26.9970   22.6770 C   0  0  0  0  0  2  0  0  0  0  0  0
  -19.6320  -26.6570   21.6640 C   0  0  0  0  0  2  0  0  0  0  0  0
  -18.2480  -26.7960   22.3050 C   0  0  0  0  0  2  0  0  0  0  0  0
  -19.1710  -28.9240   23.3950 C   0  0  0  0  0  0  0  0  0  0  0  0
  -18.9380  -30.1870   23.9820 C   0  0  0  0  0  3  0  0  0  0  0  0
  -17.6270  -30.6750   24.1440 C   0  0  0  0  0  3  0  0  0  0  0  0
  -16.5310  -29.8980   23.7310 C   0  0  0  0  0  3  0  0  0  0  0  0
  -16.7490  -28.6360   23.1520 C   0  0  0  0  0  3  0  0  0  0  0  0
  -25.9410  -32.5630   23.8690 C   0  0  0  0  0  3  0  0  0  0  0  0
  -25.6260  -33.9620   24.2090 N   0  0  0  0  0  0  0  0  0  0  0  0
  -25.9400  -35.0230   23.4540 C   0  0  0  0  0  0  0  0  0  0  0  0
  -26.5850  -34.9270   22.4070 O   0  0  0  0  0  0  0  0  0  0  0  0
  -25.0440  -34.1070   25.0210 H   0  0  0  0  0  0  0  0  0  0  0  0
  -24.1900  -36.8140   23.1740 C   0  0  0  0  0  1  0  0  0  0  0  0
  -25.4640  -36.4100   23.9330 C   0  0  0  0  0  3  0  0  0  0  0  0
  -27.6250  -37.3120   24.6800 C   0  0  0  0  0  1  0  0  0  0  0  0
  -26.4850  -37.4700   23.7780 N   0  0  0  0  0  0  0  0  0  0  0  0
  -26.0800  -38.3880   23.9350 H   0  0  0  0  0  0  0  0  0  0  0  0
  -26.4510  -31.7950   25.1520 C   0  0  1  0  0  0  0  0  0  0  0  0
  -25.3580  -31.5670   26.2240 C   0  0  0  0  0  1  0  0  0  0  0  0
  -27.0280  -30.4120   24.7740 C   0  0  0  0  0  1  0  0  0  0  0  0
  -27.6050  -32.5870   25.8100 C   0  0  0  0  0  1  0  0  0  0  0  0
  2  1  1  0
  3  4  1  0
  3  5  1  0
  4 48  1  0
  4  1  1  0
  5  2  1  0
  6  8  1  0
  7  9  2  0
  7 10  1  0
  9 11  1  0
 10  6  2  0
 11  5  1  0
 11  8  2  0
 12 10  1  0
 13 18  1  0
 14 15  1  0
 14 13  1  0
 16 15  1  0
 16 23  1  0
 16 17  1  0
 18 12  1  0
 18 17  1  0
 19 12  2  0
 20 21  2  0
 21 40  1  0
 22 21  1  0
 22 25  1  0
 23 24  1  0
 23 20  1  0
 24 22  2  0
 25 26  1  0
 26 27  2  0
 28 31  1  0
 28 27  1  0
 29 28  2  0
 30 29  1  0
 30 25  2  0
 31 32  1  0
 32 33  1  0
 33 34  2  0
 35 34  1  0
 35 39  1  0
 36 35  2  0
 37 32  2  0
 37 36  1  0
 38 37  1  0
 40 41  1  0
 41 44  1  0
 41 43  1  0
 42 40  2  0
 45 20  1  0
 45 46  1  0
 47 45  1  0
 49 60  2  0
 50 48  1  0
 50 55  1  0
 51 59  1  0
 51 61  1  0
 52 58  1  0
 52 54  1  0
 53 59  1  0
 54 53  1  0
 55 54  2  0
 56 50  2  0
 57 56  1  0
 57 52  2  0
 58 51  1  0
 59 49  1  0
 61 63  2  0
 62 61  1  0
 64 62  1  0
 65 74  2  0
 65 70  1  0
 66 62  1  0
 66 70  1  0
 67 66  1  0
 68 69  1  0
 68 67  1  0
 69 65  1  0
 70 71  2  0
 71 72  1  0
 73 72  2  0
 74 73  1  0
 75 49  1  0
 75 76  1  0
 75 85  1  0
 76 79  1  0
 77 81  1  0
 77 76  1  0
 78 77  2  0
 81 80  1  0
 83 81  1  0
 83 84  1  0
 83 82  1  0
 85 88  1  1
 85 86  1  0
 87 85  1  0
M  ISO  4   4 101  10 100  12 100  48 101
M  END
>  <TORSDO>  (53) 
F 17

>  <SCORE>  (53) 
-14.743

>  <name>  (53) 
52

>  <ligand_id>  (53) 
52

>  <original_smiles>  (53) 
[H]c1c([H])c([H])c2c(c1[H])C([H])([H])C([H])([H])C([H])([H])C2([H])N([H])C(=O)C1([H])N(C(=O)C([H])(N([H])C(=O)C([H])(N([H])C([H])([H])[H])C([H])([H])[H])C(C([H])([H])[H])(C([H])([H])[H])C([H])([H])[H])C([H])([H])c2c([H])c(OC3([H])C([H])([H])N(c4c([H])c([H])c(C(=O)N5C([H])([H])C([H])([H])C([H])([H])C([H])(n6nc(-c7c([H])c([H])c(Oc8c([H])c([H])c(F)c([H])c8F)c([H])c7[H])c(C(=O)N([H])[H])c6N([H])[H])C5([H])[H])c([H])c4[H])C([H])([H])C3([H])[H])c([H])c([H])c2C1([H])[H]

>  <smiles>  (53) 
[H]c1c([H])c([H])c2c(c1[H])C([H])([H])C([H])([H])C([H])([H])C2([H])N([H])C(=O)C1([H])N(C(=O)C([H])(N([H])C(=O)C([H])(N([H])C([H])([H])[H])C([H])([H])[H])C(C([H])([H])[H])(C([H])([H])[H])C([H])([H])[H])C([H])([H])c2c([H])c(OC3([H])C([H])([H])N(c4c([H])c([H])c(C(=O)N5C([H])([H])C([H])([H])C([H])([H])C([H])(n6nc(-c7c([H])c([H])c(Oc8c([H])c([H])c(F)c([H])c8F)c([H])c7[H])c(C(=O)N([H])[H])c6N([H])[H])C5([H])[H])c([H])c4[H])C([H])([H])C3([H])[H])c([H])c([H])c2C1([H])[H]

$$$$
53:0:0
     RDKit          3D

 90 98  0  0  1  0  0  0  0  0999 V2000
  -31.0900  -17.8700   19.9420 C   0  0  0  0  0  3  0  0  0  0  0  0
  -31.0830  -19.2900   19.8000 C   0  0  0  0  0  3  0  0  0  0  0  0
  -28.7210  -19.3530   20.2200 C   0  0  0  0  0  3  0  0  0  0  0  0
  -29.9060  -17.1450   20.2400 C   0  0  0  0  0  0  0  0  0  0  0  0
  -29.9050  -20.0780   19.9250 C   0  0  0  0  0  0  0  0  0  0  0  0
  -28.7270  -17.9340   20.3870 C   0  0  0  0  0  0  0  0  0  0  0  0
  -27.2410  -17.1560   20.7970 Cl  0  0  0  0  0  0  0  0  0  0  0  0
  -30.5490  -14.6370   19.9140 C   0  0  0  0  0  0  0  0  0  0  0  0
  -30.2370  -12.4090   18.8490 C   0  0  0  0  0  2  0  0  0  0  0  0
  -29.2080  -12.5570   17.7060 C   0  0  0  0  0  2  0  0  0  0  0  0
  -27.7700  -12.4040   18.2400 C   0  0  0  0  0  2  0  0  0  0  0  0
  -27.5090  -13.2570   19.5100 C   0  0  0  0  0  3  0  0  0  0  0  0
  -28.6460  -13.0840   20.5440 C   0  0  0  0  0  2  0  0  0  0  0  0
  -29.9140  -13.4210   19.8770 N   0  0  0  0  0  0  0  0  0  0  0  0
  -31.6700  -14.7840   19.4210 O   0  0  0  0  0  0  0  0  0  0  0  0
  -29.8090  -15.6880   20.3890 N   0  0  0  0  0  0  0  0  0  0  0  0
  -28.9500  -15.3920   20.8290 H   0  0  0  0  0  0  0  0  0  0  0  0
  -25.1790  -13.8640   20.4090 C   0  0  0  0  0  0  0  0  0  0  0  0
  -24.1340  -13.0970   20.8460 C   0  0  0  0  0  0  0  0  0  0  0  0
  -24.5790  -11.7420   20.7580 C   0  0  0  0  0  0  0  0  0  0  0  0
  -26.1960  -12.9800   20.0880 N   0  0  0  0  0  0  0  0  0  0  0  0
  -25.8430  -11.6970   20.3550 N   0  0  0  0  0  0  0  0  0  0  0  0
  -23.8520  -10.4850   20.9780 C   0  0  0  0  0  0  0  0  0  0  0  0
  -24.3380   -9.4980   21.8630 C   0  0  0  0  0  3  0  0  0  0  0  0
  -23.6110   -8.3050   22.0720 C   0  0  0  0  0  3  0  0  0  0  0  0
  -22.3850   -8.0940   21.3960 C   0  0  0  0  0  0  0  0  0  0  0  0
  -21.9190   -9.0700   20.5000 C   0  0  0  0  0  3  0  0  0  0  0  0
  -22.6450  -10.2540   20.2880 C   0  0  0  0  0  3  0  0  0  0  0  0
  -21.6250   -6.9560   21.5180 O   0  0  0  0  0  0  0  0  0  0  0  0
  -21.6420   -6.1970   22.6620 C   0  0  0  0  0  0  0  0  0  0  0  0
  -21.2990   -6.7390   23.9190 C   0  0  0  0  0  3  0  0  0  0  0  0
  -21.2630   -5.9070   25.0570 C   0  0  0  0  0  3  0  0  0  0  0  0
  -21.5580   -4.5360   24.9380 C   0  0  0  0  0  0  0  0  0  0  0  0
  -21.8950   -3.9940   23.6850 C   0  0  0  0  0  3  0  0  0  0  0  0
  -21.9330   -4.8230   22.5490 C   0  0  0  0  0  0  0  0  0  0  0  0
  -22.2370   -4.2920   21.3410 F   0  0  0  0  0  0  0  0  0  0  0  0
  -21.5160   -3.7360   26.0290 F   0  0  0  0  0  0  0  0  0  0  0  0
  -22.7680  -13.5860   21.2320 C   0  0  0  0  0  0  0  0  0  0  0  0
  -22.1050  -12.8870   22.1460 N   0  0  0  0  0  0  0  0  0  0  0  0
  -22.3010  -14.6200   20.7590 O   0  0  0  0  0  0  0  0  0  0  0  0
  -22.4970  -12.0500   22.5510 H   0  0  0  0  0  0  0  0  0  0  0  0
  -21.1910  -13.1950   22.4490 H   0  0  0  0  0  0  0  0  0  0  0  0
  -25.3370  -15.2340   20.2360 N   0  0  0  0  0  0  0  0  0  0  0  0
  -24.5960  -15.8930   20.4500 H   0  0  0  0  0  0  0  0  0  0  0  0
  -26.1880  -15.6870   19.9280 H   0  0  0  0  0  0  0  0  0  0  0  0
  -30.0120  -21.4800   19.7880 O   0  0  0  0  0  0  0  0  0  0  0  0
  -28.8630  -22.3870   19.7400 C   0  0  0  0  0  3  0  0  0  0  0  0
  -29.2230  -23.9470   19.7530 C   0  0  0  0  0  3  0  0  0  0  0  0
  -28.0460  -24.9850   19.5050 C   0  0  0  0  0  2  0  0  0  0  0  0
  -28.2630  -26.4430   19.6740 O   0  0  0  0  0  0  0  0  0  0  0  0
  -24.4980  -31.6200   23.0230 C   0  0  0  0  0  0  0  0  0  0  0  0
  -27.1280  -27.2740   19.6890 C   0  0  0  0  0  0  0  0  0  0  0  0
  -23.2890  -30.2960   21.3270 C   0  0  0  0  0  3  0  0  0  0  0  0
  -24.7390  -28.8480   19.8000 C   0  0  0  0  0  0  0  0  0  0  0  0
  -25.8220  -30.6610   21.1270 C   0  0  0  0  0  2  0  0  0  0  0  0
  -25.9110  -29.3220   20.4040 C   0  0  0  0  0  0  0  0  0  0  0  0
  -27.1080  -28.5480   20.3370 C   0  0  0  0  0  3  0  0  0  0  0  0
  -25.9270  -26.8560   19.0670 C   0  0  0  0  0  3  0  0  0  0  0  0
  -24.7490  -27.6210   19.1240 C   0  0  0  0  0  3  0  0  0  0  0  0
  -23.4910  -29.7010   19.9090 C   0  0  0  0  0  2  0  0  0  0  0  0
  -24.5560  -30.8730   21.8820 N   0  0  0  0  0  0  0  0  0  0  0  0
  -23.4180  -31.8540   23.5860 O   0  0  0  0  0  0  0  0  0  0  0  0
  -22.6540  -29.2190   22.2380 C   0  0  0  0  0  0  0  0  0  0  0  0
  -21.3250  -29.0420   22.1310 N   0  0  0  0  0  0  0  0  0  0  0  0
  -23.3530  -28.5480   23.0010 O   0  0  0  0  0  0  0  0  0  0  0  0
  -20.8200  -29.6370   21.4900 H   0  0  0  0  0  0  0  0  0  0  0  0
  -17.9610  -27.8230   22.6560 C   0  0  0  0  0  0  0  0  0  0  0  0
  -20.5270  -28.0580   22.8620 C   0  0  0  0  0  3  0  0  0  0  0  0
  -20.6050  -26.6670   22.1900 C   0  0  0  0  0  2  0  0  0  0  0  0
  -19.4700  -26.4150   21.1920 C   0  0  0  0  0  2  0  0  0  0  0  0
  -18.1090  -26.5220   21.8880 C   0  0  0  0  0  2  0  0  0  0  0  0
  -19.0950  -28.5520   23.1000 C   0  0  0  0  0  0  0  0  0  0  0  0
  -18.9000  -29.7740   23.7810 C   0  0  0  0  0  3  0  0  0  0  0  0
  -17.6040  -30.2670   24.0200 C   0  0  0  0  0  3  0  0  0  0  0  0
  -16.4830  -29.5330   23.5910 C   0  0  0  0  0  3  0  0  0  0  0  0
  -16.6630  -28.3130   22.9150 C   0  0  0  0  0  3  0  0  0  0  0  0
  -25.7800  -32.2350   23.6620 C   0  0  0  0  0  3  0  0  0  0  0  0
  -26.3140  -31.4130   24.8990 C   0  0  1  0  0  0  0  0  0  0  0  0
  -25.2330  -31.1250   25.9670 C   0  0  0  0  0  1  0  0  0  0  0  0
  -26.8990  -30.0550   24.4430 C   0  0  0  0  0  1  0  0  0  0  0  0
  -27.4670  -32.1830   25.5820 C   0  0  0  0  0  1  0  0  0  0  0  0
  -25.4630  -33.6140   24.0550 N   0  0  0  0  0  0  0  0  0  0  0  0
  -25.7690  -34.7020   23.3360 C   0  0  0  0  0  0  0  0  0  0  0  0
  -26.4190  -34.6490   22.2880 O   0  0  0  0  0  0  0  0  0  0  0  0
  -24.8820  -33.7290   24.8740 H   0  0  0  0  0  0  0  0  0  0  0  0
  -24.0060  -36.4820   23.1030 C   0  0  0  0  0  1  0  0  0  0  0  0
  -25.2770  -36.0650   23.8610 C   0  0  0  0  0  3  0  0  0  0  0  0
  -27.4210  -36.9520   24.6650 C   0  0  0  0  0  1  0  0  0  0  0  0
  -26.2910  -37.1370   23.7570 N   0  0  0  0  0  0  0  0  0  0  0  0
  -25.8760  -38.0450   23.9470 H   0  0  0  0  0  0  0  0  0  0  0  0
  1  4  1  0
  2  5  1  0
  2  1  2  0
  3  6  1  0
  4  6  2  0
  4 16  1  0
  5  3  2  0
  6  7  1  0
  8 16  1  0
  9 14  1  0
 10 11  1  0
 10  9  1  0
 12 11  1  0
 12 21  1  0
 12 13  1  0
 14  8  1  0
 14 13  1  0
 15  8  2  0
 16 17  1  0
 18 19  2  0
 19 38  1  0
 20 19  1  0
 20 23  1  0
 21 22  1  0
 21 18  1  0
 22 20  2  0
 23 24  1  0
 24 25  2  0
 26 29  1  0
 26 25  1  0
 27 26  2  0
 28 27  1  0
 28 23  2  0
 29 30  1  0
 30 31  1  0
 31 32  2  0
 33 32  1  0
 33 37  1  0
 34 33  2  0
 35 30  2  0
 35 34  1  0
 36 35  1  0
 38 39  1  0
 39 42  1  0
 39 41  1  0
 40 38  2  0
 43 18  1  0
 43 44  1  0
 45 43  1  0
 46  5  1  0
 47 48  2  0
 47 46  1  0
 49 50  1  0
 49 48  1  0
 50 52  1  0
 51 62  2  0
 52 57  1  0
 53 61  1  0
 53 63  1  0
 54 60  1  0
 54 56  1  0
 55 61  1  0
 56 55  1  0
 57 56  2  0
 58 59  1  0
 58 52  2  0
 59 54  2  0
 60 53  1  0
 61 51  1  0
 63 65  2  0
 64 63  1  0
 66 64  1  0
 67 76  2  0
 67 72  1  0
 68 64  1  0
 68 72  1  0
 69 68  1  0
 70 71  1  0
 70 69  1  0
 71 67  1  0
 72 73  2  0
 73 74  1  0
 75 74  2  0
 76 75  1  0
 77 51  1  0
 77 82  1  0
 77 78  1  0
 78 81  1  1
 78 79  1  0
 80 78  1  0
 82 85  1  0
 83 87  1  0
 83 82  1  0
 84 83  2  0
 87 86  1  0
 89 87  1  0
 89 90  1  0
 89 88  1  0
M  ISO  4   8 100  16 100  49 101  50 101
M  END
>  <TORSDO>  (54) 
F 20

>  <SCORE>  (54) 
-12.886

>  <name>  (54) 
53

>  <ligand_id>  (54) 
53

>  <original_smiles>  (54) 
[H]c1c([H])c([H])c2c(c1[H])C([H])([H])C([H])([H])C([H])([H])C2([H])N([H])C(=O)C1([H])N(C(=O)C([H])(N([H])C(=O)C([H])(N([H])C([H])([H])[H])C([H])([H])[H])C(C([H])([H])[H])(C([H])([H])[H])C([H])([H])[H])C([H])([H])c2c([H])c(OC([H])([H])C([H])([H])C([H])([H])Oc3c([H])c([H])c(N([H])C(=O)N4C([H])([H])C([H])([H])C([H])([H])C([H])(n5nc(-c6c([H])c([H])c(Oc7c([H])c([H])c(F)c([H])c7F)c([H])c6[H])c(C(=O)N([H])[H])c5N([H])[H])C4([H])[H])c(Cl)c3[H])c([H])c([H])c2C1([H])[H]

>  <smiles>  (54) 
[H]c1c([H])c([H])c2c(c1[H])C([H])([H])C([H])([H])C([H])([H])C2([H])N([H])C(=O)C1([H])N(C(=O)C([H])(N([H])C(=O)C([H])(N([H])C([H])([H])[H])C([H])([H])[H])C(C([H])([H])[H])(C([H])([H])[H])C([H])([H])[H])C([H])([H])c2c([H])c(OC([H])([H])C([H])([H])C([H])([H])Oc3c([H])c([H])c(N([H])C(=O)N4C([H])([H])C([H])([H])C([H])([H])C([H])(n5nc(-c6c([H])c([H])c(Oc7c([H])c([H])c(F)c([H])c7F)c([H])c6[H])c(C(=O)N([H])[H])c5N([H])[H])C4([H])[H])c(Cl)c3[H])c([H])c([H])c2C1([H])[H]

$$$$
54:0:0
     RDKit          3D

 89 97  0  0  1  0  0  0  0  0999 V2000
  -30.6180  -18.5840   20.2340 C   0  0  0  0  0  3  0  0  0  0  0  0
  -30.3220  -20.0210   20.1180 C   0  0  0  0  0  3  0  0  0  0  0  0
  -28.3230  -18.1100   19.9970 C   0  0  0  0  0  3  0  0  0  0  0  0
  -29.6220  -17.5390   20.1790 C   0  0  0  0  0  0  0  0  0  0  0  0
  -28.9990  -20.5680   19.9200 C   0  0  0  0  0  0  0  0  0  0  0  0
  -28.0300  -19.5160   19.8660 C   0  0  0  0  0  0  0  0  0  0  0  0
  -26.7350  -19.8670   19.6790 F   0  0  0  0  0  0  0  0  0  0  0  0
  -30.5800  -14.9230   20.0660 C   0  0  0  0  0  0  0  0  0  0  0  0
  -30.4510  -12.5660   19.1460 C   0  0  0  0  0  2  0  0  0  0  0  0
  -29.4680  -12.5400   17.9490 C   0  0  0  0  0  2  0  0  0  0  0  0
  -28.0140  -12.3550   18.4280 C   0  0  0  0  0  2  0  0  0  0  0  0
  -27.6620  -13.2860   19.6170 C   0  0  0  0  0  3  0  0  0  0  0  0
  -28.7540  -13.2570   20.7090 C   0  0  0  0  0  2  0  0  0  0  0  0
  -30.0190  -13.6500   20.0680 N   0  0  0  0  0  0  0  0  0  0  0  0
  -31.7560  -15.0460   19.7010 O   0  0  0  0  0  0  0  0  0  0  0  0
  -29.7160  -16.0150   20.3160 N   0  0  0  0  0  0  0  0  0  0  0  0
  -28.8300  -15.6250   20.5980 H   0  0  0  0  0  0  0  0  0  0  0  0
  -25.3230  -13.9140   20.4530 C   0  0  0  0  0  0  0  0  0  0  0  0
  -24.2550  -13.1600   20.8530 C   0  0  0  0  0  0  0  0  0  0  0  0
  -24.6820  -11.7990   20.7750 C   0  0  0  0  0  0  0  0  0  0  0  0
  -26.3340  -13.0150   20.1560 N   0  0  0  0  0  0  0  0  0  0  0  0
  -25.9580  -11.7360   20.4130 N   0  0  0  0  0  0  0  0  0  0  0  0
  -23.9310  -10.5510   20.9660 C   0  0  0  0  0  0  0  0  0  0  0  0
  -24.3600   -9.5610   21.8760 C   0  0  0  0  0  3  0  0  0  0  0  0
  -23.6090   -8.3800   22.0560 C   0  0  0  0  0  3  0  0  0  0  0  0
  -22.4150   -8.1800   21.3260 C   0  0  0  0  0  0  0  0  0  0  0  0
  -22.0020   -9.1580   20.4040 C   0  0  0  0  0  3  0  0  0  0  0  0
  -22.7540  -10.3310   20.2210 C   0  0  0  0  0  3  0  0  0  0  0  0
  -21.6350   -7.0520   21.4170 O   0  0  0  0  0  0  0  0  0  0  0  0
  -21.5790   -6.3060   22.5670 C   0  0  0  0  0  0  0  0  0  0  0  0
  -21.1440   -6.8560   23.7920 C   0  0  0  0  0  3  0  0  0  0  0  0
  -21.0370   -6.0370   24.9340 C   0  0  0  0  0  3  0  0  0  0  0  0
  -21.3540   -4.6680   24.8510 C   0  0  0  0  0  0  0  0  0  0  0  0
  -21.7830   -4.1170   23.6300 C   0  0  0  0  0  3  0  0  0  0  0  0
  -21.8920   -4.9330   22.4910 C   0  0  0  0  0  0  0  0  0  0  0  0
  -22.2850   -4.3930   21.3120 F   0  0  0  0  0  0  0  0  0  0  0  0
  -21.2440   -3.8790   25.9450 F   0  0  0  0  0  0  0  0  0  0  0  0
  -22.8820  -13.6670   21.1860 C   0  0  0  0  0  0  0  0  0  0  0  0
  -22.1720  -12.9770   22.0720 N   0  0  0  0  0  0  0  0  0  0  0  0
  -22.4480  -14.7080   20.6950 O   0  0  0  0  0  0  0  0  0  0  0  0
  -22.5360  -12.1340   22.4910 H   0  0  0  0  0  0  0  0  0  0  0  0
  -21.2520  -13.2980   22.3390 H   0  0  0  0  0  0  0  0  0  0  0  0
  -25.5110  -15.2840   20.2900 N   0  0  0  0  0  0  0  0  0  0  0  0
  -24.7430  -15.9360   20.4050 H   0  0  0  0  0  0  0  0  0  0  0  0
  -26.3000  -15.6870   19.8030 H   0  0  0  0  0  0  0  0  0  0  0  0
  -28.5040  -21.9350   19.7320 O   0  0  0  0  0  0  0  0  0  0  0  0
  -29.0950  -23.3350   19.9090 C   0  0  0  0  0  3  0  0  0  0  0  0
  -28.1160  -24.6810   19.6400 C   0  0  0  0  0  3  0  0  0  0  0  0
  -28.3620  -26.1910   19.9150 O   0  0  0  0  0  0  0  0  0  0  0  0
  -24.5360  -31.6270   23.0850 C   0  0  0  0  0  0  0  0  0  0  0  0
  -27.2770  -27.1420   19.8750 C   0  0  0  0  0  0  0  0  0  0  0  0
  -23.3960  -30.2890   21.3560 C   0  0  0  0  0  3  0  0  0  0  0  0
  -24.9060  -28.8230   19.8830 C   0  0  0  0  0  0  0  0  0  0  0  0
  -25.9460  -30.6220   21.2520 C   0  0  0  0  0  2  0  0  0  0  0  0
  -26.0640  -29.2680   20.5340 C   0  0  0  0  0  0  0  0  0  0  0  0
  -27.2500  -28.4450   20.5130 C   0  0  0  0  0  3  0  0  0  0  0  0
  -26.0890  -26.7970   19.1910 C   0  0  0  0  0  3  0  0  0  0  0  0
  -24.9310  -27.6010   19.1980 C   0  0  0  0  0  3  0  0  0  0  0  0
  -23.6570  -29.6880   19.9500 C   0  0  0  0  0  2  0  0  0  0  0  0
  -24.6450  -30.8640   21.9540 N   0  0  0  0  0  0  0  0  0  0  0  0
  -23.4340  -31.8620   23.6050 O   0  0  0  0  0  0  0  0  0  0  0  0
  -22.7240  -29.2200   22.2530 C   0  0  0  0  0  0  0  0  0  0  0  0
  -21.3950  -29.0550   22.1190 N   0  0  0  0  0  0  0  0  0  0  0  0
  -23.3990  -28.5440   23.0340 O   0  0  0  0  0  0  0  0  0  0  0  0
  -20.9070  -29.6540   21.4680 H   0  0  0  0  0  0  0  0  0  0  0  0
  -18.0080  -27.8640   22.6020 C   0  0  0  0  0  0  0  0  0  0  0  0
  -20.5770  -28.0710   22.8320 C   0  0  0  0  0  3  0  0  0  0  0  0
  -20.6440  -26.6870   22.1430 C   0  0  0  0  0  2  0  0  0  0  0  0
  -19.5160  -26.4610   21.1320 C   0  0  0  0  0  2  0  0  0  0  0  0
  -18.1500  -26.5720   21.8170 C   0  0  0  0  0  2  0  0  0  0  0  0
  -19.1480  -28.5760   23.0650 C   0  0  0  0  0  0  0  0  0  0  0  0
  -18.9590  -29.7890   23.7640 C   0  0  0  0  0  3  0  0  0  0  0  0
  -17.6650  -30.2900   24.0000 C   0  0  0  0  0  3  0  0  0  0  0  0
  -16.5420  -29.5740   23.5510 C   0  0  0  0  0  3  0  0  0  0  0  0
  -16.7140  -28.3630   22.8590 C   0  0  0  0  0  3  0  0  0  0  0  0
  -25.7880  -32.2560   23.7670 C   0  0  0  0  0  3  0  0  0  0  0  0
  -26.2640  -31.4600   25.0450 C   0  0  1  0  0  0  0  0  0  0  0  0
  -25.1360  -31.1940   26.0690 C   0  0  0  0  0  1  0  0  0  0  0  0
  -26.8680  -30.0930   24.6470 C   0  0  0  0  0  1  0  0  0  0  0  0
  -27.3860  -32.2460   25.7630 C   0  0  0  0  0  1  0  0  0  0  0  0
  -25.4530  -33.6440   24.1230 N   0  0  0  0  0  0  0  0  0  0  0  0
  -25.7720  -34.7190   23.3900 C   0  0  0  0  0  0  0  0  0  0  0  0
  -26.4450  -34.6480   22.3590 O   0  0  0  0  0  0  0  0  0  0  0  0
  -24.8550  -33.7720   24.9260 H   0  0  0  0  0  0  0  0  0  0  0  0
  -24.0050  -36.4870   23.0910 C   0  0  0  0  0  1  0  0  0  0  0  0
  -25.2650  -36.0920   23.8780 C   0  0  0  0  0  3  0  0  0  0  0  0
  -27.3890  -37.0120   24.7010 C   0  0  0  0  0  1  0  0  0  0  0  0
  -26.2770  -37.1660   23.7680 N   0  0  0  0  0  0  0  0  0  0  0  0
  -25.8530  -38.0770   23.9260 H   0  0  0  0  0  0  0  0  0  0  0  0
  2  1  2  0
  3  4  2  0
  4  1  1  0
  4 16  1  0
  5  2  1  0
  6  5  2  0
  6  3  1  0
  7  6  1  0
  8 14  1  0
  8 16  1  0
  9 14  1  0
 10 11  1  0
 10  9  1  0
 12 11  1  0
 12 21  1  0
 12 13  1  0
 14 13  1  0
 15  8  2  0
 16 17  1  0
 18 19  2  0
 19 38  1  0
 20 19  1  0
 20 23  1  0
 21 22  1  0
 21 18  1  0
 22 20  2  0
 23 24  1  0
 24 25  2  0
 26 29  1  0
 26 25  1  0
 27 26  2  0
 28 27  1  0
 28 23  2  0
 29 30  1  0
 30 31  1  0
 31 32  2  0
 33 32  1  0
 33 37  1  0
 34 33  2  0
 35 30  2  0
 35 34  1  0
 36 35  1  0
 38 39  1  0
 39 42  1  0
 39 41  1  0
 40 38  2  0
 43 44  1  0
 43 18  1  0
 45 43  1  0
 46 47  1  0
 46  5  1  0
 48 47  2  0
 48 49  1  0
 50 61  2  0
 51 49  1  0
 51 56  1  0
 52 60  1  0
 52 62  1  0
 53 59  1  0
 53 55  1  0
 54 60  1  0
 55 54  1  0
 56 55  2  0
 57 58  1  0
 57 51  2  0
 58 53  2  0
 59 52  1  0
 60 50  1  0
 62 64  2  0
 63 62  1  0
 65 63  1  0
 66 75  2  0
 66 71  1  0
 67 63  1  0
 67 71  1  0
 68 67  1  0
 69 70  1  0
 69 68  1  0
 70 66  1  0
 71 72  2  0
 72 73  1  0
 74 73  2  0
 75 74  1  0
 76 50  1  0
 76 81  1  0
 76 77  1  0
 77 80  1  1
 77 78  1  0
 79 77  1  0
 81 84  1  0
 82 86  1  0
 82 81  1  0
 83 82  2  0
 86 85  1  0
 88 86  1  0
 88 89  1  0
 88 87  1  0
M  ISO  4   8 100  16 100  48 101  49 101
M  END
>  <TORSDO>  (55) 
F 19

>  <SCORE>  (55) 
-13.742

>  <name>  (55) 
54

>  <ligand_id>  (55) 
54

>  <original_smiles>  (55) 
[H]c1c([H])c([H])c2c(c1[H])C([H])([H])C([H])([H])C([H])([H])C2([H])N([H])C(=O)C1([H])N(C(=O)C([H])(N([H])C(=O)C([H])(N([H])C([H])([H])[H])C([H])([H])[H])C(C([H])([H])[H])(C([H])([H])[H])C([H])([H])[H])C([H])([H])c2c([H])c(OC([H])([H])C([H])([H])Oc3c([H])c([H])c(N([H])C(=O)N4C([H])([H])C([H])([H])C([H])([H])C([H])(n5nc(-c6c([H])c([H])c(Oc7c([H])c([H])c(F)c([H])c7F)c([H])c6[H])c(C(=O)N([H])[H])c5N([H])[H])C4([H])[H])c([H])c3F)c([H])c([H])c2C1([H])[H]

>  <smiles>  (55) 
[H]c1c([H])c([H])c2c(c1[H])C([H])([H])C([H])([H])C([H])([H])C2([H])N([H])C(=O)C1([H])N(C(=O)C([H])(N([H])C(=O)C([H])(N([H])C([H])([H])[H])C([H])([H])[H])C(C([H])([H])[H])(C([H])([H])[H])C([H])([H])[H])C([H])([H])c2c([H])c(OC([H])([H])C([H])([H])Oc3c([H])c([H])c(N([H])C(=O)N4C([H])([H])C([H])([H])C([H])([H])C([H])(n5nc(-c6c([H])c([H])c(Oc7c([H])c([H])c(F)c([H])c7F)c([H])c6[H])c(C(=O)N([H])[H])c5N([H])[H])C4([H])[H])c([H])c3F)c([H])c([H])c2C1([H])[H]

$$$$
55:0:0
     RDKit          3D

 87 95  0  0  1  0  0  0  0  0999 V2000
  -28.2570  -18.7890   19.1560 C   0  0  0  0  0  2  0  0  0  0  0  0
  -27.9020  -20.3620   19.3470 C   0  0  0  0  0  2  0  0  0  0  0  0
  -29.6250  -19.8000   20.7700 C   0  0  0  0  0  2  0  0  0  0  0  0
  -29.5470  -18.2910   19.9320 C   0  0  0  0  0  3  0  0  0  0  0  0
  -29.0200  -21.0990   20.0060 N   0  0  2  0  0  4  0  0  0  0  0  0
  -29.6800  -21.2320   19.2500 H   0  0  0  0  0  0  0  0  0  0  0  0
  -30.3910  -15.3960   20.2550 C   0  0  0  0  0  0  0  0  0  0  0  0
  -30.4350  -12.9180   19.4560 C   0  0  0  0  0  2  0  0  0  0  0  0
  -29.5370  -12.6640   18.2160 C   0  0  0  0  0  2  0  0  0  0  0  0
  -28.0930  -12.3610   18.6440 C   0  0  0  0  0  2  0  0  0  0  0  0
  -27.6070  -13.3410   19.7390 C   0  0  0  0  0  3  0  0  0  0  0  0
  -28.6310  -13.5520   20.8780 C   0  0  0  0  0  2  0  0  0  0  0  0
  -29.8630  -14.0670   20.2570 N   0  0  0  0  0  0  0  0  0  0  0  0
  -31.5990  -15.4170   19.9700 O   0  0  0  0  0  0  0  0  0  0  0  0
  -29.5930  -16.6540   20.3880 N   0  0  0  0  0  0  0  0  0  0  0  0
  -28.6830  -16.3940   20.7390 H   0  0  0  0  0  0  0  0  0  0  0  0
  -25.2280  -13.8820   20.4680 C   0  0  0  0  0  0  0  0  0  0  0  0
  -24.1700  -13.0980   20.8360 C   0  0  0  0  0  0  0  0  0  0  0  0
  -24.6470  -11.7530   20.8130 C   0  0  0  0  0  0  0  0  0  0  0  0
  -26.2780  -13.0140   20.2370 N   0  0  0  0  0  0  0  0  0  0  0  0
  -25.9420  -11.7270   20.5150 N   0  0  0  0  0  0  0  0  0  0  0  0
  -23.9290  -10.4840   21.0010 C   0  0  0  0  0  0  0  0  0  0  0  0
  -24.3560   -9.5250   21.9460 C   0  0  0  0  0  3  0  0  0  0  0  0
  -23.6370   -8.3230   22.1240 C   0  0  0  0  0  3  0  0  0  0  0  0
  -22.4750   -8.0720   21.3550 C   0  0  0  0  0  0  0  0  0  0  0  0
  -22.0660   -9.0200   20.3990 C   0  0  0  0  0  3  0  0  0  0  0  0
  -22.7870  -10.2130   20.2220 C   0  0  0  0  0  3  0  0  0  0  0  0
  -21.7250   -6.9230   21.4420 O   0  0  0  0  0  0  0  0  0  0  0  0
  -21.6600   -6.1940   22.6020 C   0  0  0  0  0  0  0  0  0  0  0  0
  -21.1850   -6.7510   23.8090 C   0  0  0  0  0  3  0  0  0  0  0  0
  -21.0660   -5.9450   24.9590 C   0  0  0  0  0  3  0  0  0  0  0  0
  -21.4130   -4.5820   24.9030 C   0  0  0  0  0  0  0  0  0  0  0  0
  -21.8820   -4.0240   23.7010 C   0  0  0  0  0  3  0  0  0  0  0  0
  -22.0020   -4.8270   22.5530 C   0  0  0  0  0  0  0  0  0  0  0  0
  -22.4330   -4.2780   21.3930 F   0  0  0  0  0  0  0  0  0  0  0  0
  -21.2930   -3.8060   26.0060 F   0  0  0  0  0  0  0  0  0  0  0  0
  -22.7660  -13.5670   21.0860 C   0  0  0  0  0  0  0  0  0  0  0  0
  -22.0280  -12.8690   21.9420 N   0  0  0  0  0  0  0  0  0  0  0  0
  -22.3300  -14.5850   20.5540 O   0  0  0  0  0  0  0  0  0  0  0  0
  -22.3890  -12.0440   22.3940 H   0  0  0  0  0  0  0  0  0  0  0  0
  -21.0870  -13.1740   22.1520 H   0  0  0  0  0  0  0  0  0  0  0  0
  -25.3790  -15.2520   20.2790 N   0  0  0  0  0  0  0  0  0  0  0  0
  -24.5910  -15.8880   20.3360 H   0  0  0  0  0  0  0  0  0  0  0  0
  -26.1960  -15.6770   19.8650 H   0  0  0  0  0  0  0  0  0  0  0  0
  -28.8260  -22.6780   20.5910 C   0  0  0  0  0  3  0  0  0  0  0  0
  -28.0750  -24.2090   19.9480 C   0  0  0  0  0  3  0  0  0  0  0  0
  -28.1800  -25.8380   20.3140 O   0  0  0  0  0  0  0  0  0  0  0  0
  -24.6040  -31.8520   23.2180 C   0  0  0  0  0  0  0  0  0  0  0  0
  -27.1700  -26.9450   20.2120 C   0  0  0  0  0  0  0  0  0  0  0  0
  -23.4190  -30.4550   21.5780 C   0  0  0  0  0  3  0  0  0  0  0  0
  -24.8750  -28.8450   20.1570 C   0  0  0  0  0  0  0  0  0  0  0  0
  -25.9900  -30.6530   21.4430 C   0  0  0  0  0  2  0  0  0  0  0  0
  -26.0620  -29.2410   20.7880 C   0  0  0  0  0  0  0  0  0  0  0  0
  -27.2000  -28.3130   20.7880 C   0  0  0  0  0  3  0  0  0  0  0  0
  -25.9560  -26.7090   19.5250 C   0  0  0  0  0  3  0  0  0  0  0  0
  -24.8520  -27.6050   19.5000 C   0  0  0  0  0  3  0  0  0  0  0  0
  -23.6530  -29.7660   20.2060 C   0  0  0  0  0  2  0  0  0  0  0  0
  -24.6930  -31.0150   22.1340 N   0  0  0  0  0  0  0  0  0  0  0  0
  -23.5130  -32.1460   23.7340 O   0  0  0  0  0  0  0  0  0  0  0  0
  -22.7190  -29.4650   22.5450 C   0  0  0  0  0  0  0  0  0  0  0  0
  -21.3880  -29.3070   22.4180 N   0  0  0  0  0  0  0  0  0  0  0  0
  -23.3820  -28.8310   23.3710 O   0  0  0  0  0  0  0  0  0  0  0  0
  -20.9090  -29.8680   21.7270 H   0  0  0  0  0  0  0  0  0  0  0  0
  -18.0000  -28.1040   22.9380 C   0  0  0  0  0  0  0  0  0  0  0  0
  -20.5630  -28.3630   23.1780 C   0  0  0  0  0  3  0  0  0  0  0  0
  -20.6630  -26.9400   22.5750 C   0  0  0  0  0  2  0  0  0  0  0  0
  -19.5320  -26.6170   21.5890 C   0  0  0  0  0  2  0  0  0  0  0  0
  -18.1680  -26.7510   22.2670 C   0  0  0  0  0  2  0  0  0  0  0  0
  -19.1240  -28.8640   23.3570 C   0  0  0  0  0  0  0  0  0  0  0  0
  -18.9090  -30.1220   23.9620 C   0  0  0  0  0  3  0  0  0  0  0  0
  -17.6040  -30.6200   24.1430 C   0  0  0  0  0  3  0  0  0  0  0  0
  -16.4960  -29.8610   23.7290 C   0  0  0  0  0  3  0  0  0  0  0  0
  -16.6940  -28.6040   23.1320 C   0  0  0  0  0  3  0  0  0  0  0  0
  -25.8680  -32.5000   23.8580 C   0  0  0  0  0  3  0  0  0  0  0  0
  -25.5510  -33.9050   24.1770 N   0  0  0  0  0  0  0  0  0  0  0  0
  -25.8960  -34.9580   23.4250 C   0  0  0  0  0  0  0  0  0  0  0  0
  -26.5750  -34.8480   22.4020 O   0  0  0  0  0  0  0  0  0  0  0  0
  -24.9500  -34.0620   24.9720 H   0  0  0  0  0  0  0  0  0  0  0  0
  -24.1860  -36.7690   23.0490 C   0  0  0  0  0  1  0  0  0  0  0  0
  -25.4140  -36.3540   23.8760 C   0  0  0  0  0  3  0  0  0  0  0  0
  -27.5410  -37.2320   24.7350 C   0  0  0  0  0  1  0  0  0  0  0  0
  -26.4550  -37.4010   23.7730 N   0  0  0  0  0  0  0  0  0  0  0  0
  -26.0530  -38.3250   23.9060 H   0  0  0  0  0  0  0  0  0  0  0  0
  -26.3550  -31.7480   25.1570 C   0  0  1  0  0  0  0  0  0  0  0  0
  -25.2430  -31.5340   26.2120 C   0  0  0  0  0  1  0  0  0  0  0  0
  -26.9350  -30.3610   24.8020 C   0  0  0  0  0  1  0  0  0  0  0  0
  -27.4990  -32.5470   25.8230 C   0  0  0  0  0  1  0  0  0  0  0  0
  1  2  1  0
  1  4  1  0
  2  5  1  0
  4 15  1  0
  4  3  1  0
  5 45  1  0
  5  3  1  0
  5  6  1  6
  7 13  1  0
  7 15  1  0
  8 13  1  0
  9 10  1  0
  9  8  1  0
 11 10  1  0
 11 20  1  0
 11 12  1  0
 13 12  1  0
 14  7  2  0
 15 16  1  0
 17 18  2  0
 18 37  1  0
 19 18  1  0
 19 22  1  0
 20 17  1  0
 20 21  1  0
 21 19  2  0
 22 23  1  0
 23 24  2  0
 25 28  1  0
 25 24  1  0
 26 25  2  0
 27 26  1  0
 27 22  2  0
 28 29  1  0
 29 30  1  0
 30 31  2  0
 32 31  1  0
 32 36  1  0
 33 32  2  0
 34 29  2  0
 34 33  1  0
 35 34  1  0
 37 38  1  0
 38 41  1  0
 38 40  1  0
 39 37  2  0
 42 43  1  0
 42 17  1  0
 44 42  1  0
 46 47  1  0
 46 45  2  0
 48 59  2  0
 49 47  1  0
 49 54  1  0
 50 58  1  0
 50 60  1  0
 51 57  1  0
 51 53  1  0
 52 58  1  0
 53 54  2  0
 53 52  1  0
 55 49  2  0
 56 55  1  0
 56 51  2  0
 57 50  1  0
 58 48  1  0
 60 62  2  0
 61 60  1  0
 63 61  1  0
 64 73  2  0
 64 69  1  0
 65 61  1  0
 65 69  1  0
 66 65  1  0
 67 68  1  0
 67 66  1  0
 68 64  1  0
 69 70  2  0
 70 71  1  0
 72 71  2  0
 73 72  1  0
 74 48  1  0
 74 75  1  0
 74 84  1  0
 75 78  1  0
 76 80  1  0
 76 75  1  0
 77 76  2  0
 80 79  1  0
 82 80  1  0
 82 83  1  0
 82 81  1  0
 84 87  1  1
 84 85  1  0
 86 84  1  0
M  ISO  4   7 100  15 100  46 101  47 101
M  END
>  <TORSDO>  (56) 
F 18

>  <SCORE>  (56) 
-16.491

>  <name>  (56) 
55

>  <ligand_id>  (56) 
55

>  <original_smiles>  (56) 
[H]c1c([H])c([H])c2c(c1[H])C([H])([H])C([H])([H])C([H])([H])C2([H])N([H])C(=O)C1([H])N(C(=O)C([H])(N([H])C(=O)C([H])(N([H])C([H])([H])[H])C([H])([H])[H])C(C([H])([H])[H])(C([H])([H])[H])C([H])([H])[H])C([H])([H])c2c([H])c(OC([H])([H])C([H])([H])[N+]3([H])C([H])([H])C([H])([H])C([H])(N([H])C(=O)N4C([H])([H])C([H])([H])C([H])([H])C([H])(n5nc(-c6c([H])c([H])c(Oc7c([H])c([H])c(F)c([H])c7F)c([H])c6[H])c(C(=O)N([H])[H])c5N([H])[H])C4([H])[H])C3([H])[H])c([H])c([H])c2C1([H])[H]

>  <smiles>  (56) 
[H]c1c([H])c([H])c2c(c1[H])C([H])([H])C([H])([H])C([H])([H])C2([H])N([H])C(=O)C1([H])N(C(=O)C([H])(N([H])C(=O)C([H])(N([H])C([H])([H])[H])C([H])([H])[H])C(C([H])([H])[H])(C([H])([H])[H])C([H])([H])[H])C([H])([H])c2c([H])c(OC([H])([H])C([H])([H])[N+]3([H])C([H])([H])C([H])([H])C([H])(N([H])C(=O)N4C([H])([H])C([H])([H])C([H])([H])C([H])(n5nc(-c6c([H])c([H])c(Oc7c([H])c([H])c(F)c([H])c7F)c([H])c6[H])c(C(=O)N([H])[H])c5N([H])[H])C4([H])[H])C3([H])[H])c([H])c([H])c2C1([H])[H]

$$$$
56:0:0
     RDKit          3D

 90 99  0  0  1  0  0  0  0  0999 V2000
  -29.1270  -24.4210   21.7300 C   0  0  0  0  0  2  0  0  0  0  0  0
  -29.2060  -22.8660   21.8870 C   0  0  0  0  0  2  0  0  0  0  0  0
  -28.4420  -23.3910   19.7210 C   0  0  0  0  0  2  0  0  0  0  0  0
  -28.1410  -24.7640   20.5960 C   0  0  0  0  0  3  0  0  0  0  0  0
  -28.9880  -22.2370   20.5810 N   0  0  0  0  0  0  0  0  0  0  0  0
  -30.1550  -19.9910   21.1770 C   0  0  0  0  0  3  0  0  0  0  0  0
  -28.4820  -19.8780   19.5370 C   0  0  0  0  0  3  0  0  0  0  0  0
  -30.3590  -18.5470   21.1040 C   0  0  0  0  0  3  0  0  0  0  0  0
  -28.6590  -18.4290   19.4880 C   0  0  0  0  0  3  0  0  0  0  0  0
  -29.2000  -20.7620   20.4120 C   0  0  0  0  0  0  0  0  0  0  0  0
  -29.6080  -17.6650   20.2610 C   0  0  0  0  0  0  0  0  0  0  0  0
  -30.4700  -15.0200   20.1680 C   0  0  0  0  0  0  0  0  0  0  0  0
  -30.3850  -12.6760   19.1950 C   0  0  0  0  0  2  0  0  0  0  0  0
  -29.4100  -12.6390   17.9940 C   0  0  0  0  0  2  0  0  0  0  0  0
  -27.9600  -12.4140   18.4650 C   0  0  0  0  0  2  0  0  0  0  0  0
  -27.5810  -13.3190   19.6670 C   0  0  0  0  0  3  0  0  0  0  0  0
  -28.6700  -13.3050   20.7620 C   0  0  0  0  0  2  0  0  0  0  0  0
  -29.9200  -13.7410   20.1260 N   0  0  0  0  0  0  0  0  0  0  0  0
  -31.6660  -15.1410   19.8770 O   0  0  0  0  0  0  0  0  0  0  0  0
  -29.5890  -16.1270   20.3100 N   0  0  0  0  0  0  0  0  0  0  0  0
  -28.6480  -15.7720   20.3860 H   0  0  0  0  0  0  0  0  0  0  0  0
  -25.2170  -13.8810   20.4730 C   0  0  0  0  0  0  0  0  0  0  0  0
  -24.1680  -13.0970   20.8660 C   0  0  0  0  0  0  0  0  0  0  0  0
  -24.6390  -11.7490   20.8100 C   0  0  0  0  0  0  0  0  0  0  0  0
  -26.2580  -13.0100   20.1960 N   0  0  0  0  0  0  0  0  0  0  0  0
  -25.9210  -11.7220   20.4650 N   0  0  0  0  0  0  0  0  0  0  0  0
  -23.9240  -10.4820   21.0040 C   0  0  0  0  0  0  0  0  0  0  0  0
  -24.3720   -9.5140   21.9310 C   0  0  0  0  0  3  0  0  0  0  0  0
  -23.6560   -8.3120   22.1140 C   0  0  0  0  0  3  0  0  0  0  0  0
  -22.4760   -8.0680   21.3700 C   0  0  0  0  0  0  0  0  0  0  0  0
  -22.0470   -9.0230   20.4320 C   0  0  0  0  0  3  0  0  0  0  0  0
  -22.7640  -10.2170   20.2470 C   0  0  0  0  0  3  0  0  0  0  0  0
  -21.7300   -6.9180   21.4630 O   0  0  0  0  0  0  0  0  0  0  0  0
  -21.6810   -6.1840   22.6210 C   0  0  0  0  0  0  0  0  0  0  0  0
  -21.2370   -6.7430   23.8400 C   0  0  0  0  0  3  0  0  0  0  0  0
  -21.1380   -5.9330   24.9880 C   0  0  0  0  0  3  0  0  0  0  0  0
  -21.4710   -4.5670   24.9200 C   0  0  0  0  0  0  0  0  0  0  0  0
  -21.9090   -4.0090   23.7060 C   0  0  0  0  0  3  0  0  0  0  0  0
  -22.0100   -4.8150   22.5590 C   0  0  0  0  0  0  0  0  0  0  0  0
  -22.4120   -4.2670   21.3870 F   0  0  0  0  0  0  0  0  0  0  0  0
  -21.3680   -3.7880   26.0220 F   0  0  0  0  0  0  0  0  0  0  0  0
  -22.7750  -13.5640   21.1770 C   0  0  0  0  0  0  0  0  0  0  0  0
  -22.0720  -12.8550   22.0520 N   0  0  0  0  0  0  0  0  0  0  0  0
  -22.3210  -14.5930   20.6780 O   0  0  0  0  0  0  0  0  0  0  0  0
  -22.4530  -12.0220   22.4760 H   0  0  0  0  0  0  0  0  0  0  0  0
  -21.1380  -13.1510   22.3020 H   0  0  0  0  0  0  0  0  0  0  0  0
  -25.3620  -15.2540   20.2990 N   0  0  0  0  0  0  0  0  0  0  0  0
  -24.5780  -15.8870   20.4140 H   0  0  0  0  0  0  0  0  0  0  0  0
  -26.1610  -15.6970   19.8650 H   0  0  0  0  0  0  0  0  0  0  0  0
  -28.2900  -26.2670   20.2130 O   0  0  0  0  0  0  0  0  0  0  0  0
  -24.6360  -31.9120   23.2610 C   0  0  0  0  0  0  0  0  0  0  0  0
  -27.2050  -27.2100   20.2250 C   0  0  0  0  0  0  0  0  0  0  0  0
  -23.4290  -30.5170   21.6260 C   0  0  0  0  0  3  0  0  0  0  0  0
  -24.8690  -28.9350   20.2010 C   0  0  0  0  0  0  0  0  0  0  0  0
  -25.9790  -30.7890   21.4440 C   0  0  0  0  0  2  0  0  0  0  0  0
  -26.0520  -29.3950   20.7960 C   0  0  0  0  0  0  0  0  0  0  0  0
  -27.2230  -28.5500   20.7830 C   0  0  0  0  0  3  0  0  0  0  0  0
  -25.9950  -26.8400   19.6050 C   0  0  0  0  0  3  0  0  0  0  0  0
  -24.8530  -27.6710   19.5900 C   0  0  0  0  0  3  0  0  0  0  0  0
  -23.6420  -29.8330   20.2480 C   0  0  0  0  0  2  0  0  0  0  0  0
  -24.7020  -31.0940   22.1650 N   0  0  0  0  0  0  0  0  0  0  0  0
  -23.5530  -32.1960   23.7940 O   0  0  0  0  0  0  0  0  0  0  0  0
  -22.7540  -29.5120   22.5910 C   0  0  0  0  0  0  0  0  0  0  0  0
  -21.4260  -29.3370   22.4660 N   0  0  0  0  0  0  0  0  0  0  0  0
  -23.4270  -28.8890   23.4170 O   0  0  0  0  0  0  0  0  0  0  0  0
  -20.9370  -29.8900   21.7760 H   0  0  0  0  0  0  0  0  0  0  0  0
  -18.0500  -28.1200   22.9650 C   0  0  0  0  0  0  0  0  0  0  0  0
  -20.6080  -28.3990   23.2390 C   0  0  0  0  0  3  0  0  0  0  0  0
  -20.7190  -26.9640   22.6740 C   0  0  0  0  0  2  0  0  0  0  0  0
  -19.6220  -26.6300   21.6580 C   0  0  0  0  0  2  0  0  0  0  0  0
  -18.2380  -26.7690   22.2960 C   0  0  0  0  0  2  0  0  0  0  0  0
  -19.1630  -28.8920   23.3940 C   0  0  0  0  0  0  0  0  0  0  0  0
  -18.9340  -30.1560   23.9810 C   0  0  0  0  0  3  0  0  0  0  0  0
  -17.6240  -30.6480   24.1420 C   0  0  0  0  0  3  0  0  0  0  0  0
  -16.5260  -29.8740   23.7280 C   0  0  0  0  0  3  0  0  0  0  0  0
  -16.7400  -28.6120   23.1460 C   0  0  0  0  0  3  0  0  0  0  0  0
  -25.9170  -32.5480   23.8830 C   0  0  0  0  0  3  0  0  0  0  0  0
  -25.6090  -33.9480   24.2140 N   0  0  0  0  0  0  0  0  0  0  0  0
  -25.9370  -35.0030   23.4560 C   0  0  0  0  0  0  0  0  0  0  0  0
  -26.5960  -34.8990   22.4190 O   0  0  0  0  0  0  0  0  0  0  0  0
  -25.0230  -34.1010   25.0220 H   0  0  0  0  0  0  0  0  0  0  0  0
  -24.2060  -36.8000   23.1270 C   0  0  0  0  0  1  0  0  0  0  0  0
  -25.4580  -36.3920   23.9210 C   0  0  0  0  0  3  0  0  0  0  0  0
  -27.6040  -37.2780   24.7220 C   0  0  0  0  0  1  0  0  0  0  0  0
  -26.4900  -37.4450   23.7930 N   0  0  0  0  0  0  0  0  0  0  0  0
  -26.0870  -38.3650   23.9450 H   0  0  0  0  0  0  0  0  0  0  0  0
  -26.4280  -31.7800   25.1650 C   0  0  1  0  0  0  0  0  0  0  0  0
  -25.3330  -31.5590   26.2360 C   0  0  0  0  0  1  0  0  0  0  0  0
  -26.9980  -30.3950   24.7840 C   0  0  0  0  0  1  0  0  0  0  0  0
  -27.5850  -32.5690   25.8220 C   0  0  0  0  0  1  0  0  0  0  0  0
  1  2  1  0
  3  5  1  0
  3  4  1  0
  4 50  1  0
  4  1  1  0
  5  2  1  0
  7 10  1  0
  8  6  1  0
  9  7  2  0
  9 11  1  0
 10  5  1  0
 10  6  2  0
 11 20  1  0
 11  8  2  0
 12 20  1  0
 13 18  1  0
 14 15  1  0
 14 13  1  0
 16 15  1  0
 16 25  1  0
 16 17  1  0
 18 12  1  0
 18 17  1  0
 19 12  2  0
 20 21  1  0
 22 23  2  0
 23 42  1  0
 24 23  1  0
 24 27  1  0
 25 26  1  0
 25 22  1  0
 26 24  2  0
 27 28  1  0
 28 29  2  0
 30 33  1  0
 30 29  1  0
 31 30  2  0
 32 31  1  0
 32 27  2  0
 33 34  1  0
 34 35  1  0
 35 36  2  0
 37 36  1  0
 37 41  1  0
 38 37  2  0
 39 34  2  0
 39 38  1  0
 40 39  1  0
 42 43  1  0
 43 46  1  0
 43 45  1  0
 44 42  2  0
 47 48  1  0
 47 22  1  0
 49 47  1  0
 50 52  1  0
 51 62  2  0
 52 57  1  0
 53 61  1  0
 53 63  1  0
 54 60  1  0
 54 56  1  0
 55 61  1  0
 56 55  1  0
 57 56  2  0
 58 52  2  0
 59 58  1  0
 59 54  2  0
 60 53  1  0
 61 51  1  0
 63 65  2  0
 64 63  1  0
 66 64  1  0
 67 76  2  0
 67 72  1  0
 68 64  1  0
 68 72  1  0
 69 68  1  0
 70 71  1  0
 70 69  1  0
 71 67  1  0
 72 73  2  0
 73 74  1  0
 75 74  2  0
 76 75  1  0
 77 51  1  0
 77 78  1  0
 77 87  1  0
 78 81  1  0
 79 83  1  0
 79 78  1  0
 80 79  2  0
 83 82  1  0
 85 83  1  0
 85 86  1  0
 85 84  1  0
 87 90  1  1
 87 88  1  0
 89 87  1  0
M  ISO  4   4 101  12 100  20 100  50 101
M  END
>  <TORSDO>  (57) 
F 17

>  <SCORE>  (57) 
-15.242

>  <name>  (57) 
56

>  <ligand_id>  (57) 
56

>  <original_smiles>  (57) 
[H]c1c([H])c([H])c2c(c1[H])C([H])([H])C([H])([H])C([H])([H])C2([H])N([H])C(=O)C1([H])N(C(=O)C([H])(N([H])C(=O)C([H])(N([H])C([H])([H])[H])C([H])([H])[H])C(C([H])([H])[H])(C([H])([H])[H])C([H])([H])[H])C([H])([H])c2c([H])c(OC3([H])C([H])([H])N(c4c([H])c([H])c(N([H])C(=O)N5C([H])([H])C([H])([H])C([H])([H])C([H])(n6nc(-c7c([H])c([H])c(Oc8c([H])c([H])c(F)c([H])c8F)c([H])c7[H])c(C(=O)N([H])[H])c6N([H])[H])C5([H])[H])c([H])c4[H])C([H])([H])C3([H])[H])c([H])c([H])c2C1([H])[H]

>  <smiles>  (57) 
[H]c1c([H])c([H])c2c(c1[H])C([H])([H])C([H])([H])C([H])([H])C2([H])N([H])C(=O)C1([H])N(C(=O)C([H])(N([H])C(=O)C([H])(N([H])C([H])([H])[H])C([H])([H])[H])C(C([H])([H])[H])(C([H])([H])[H])C([H])([H])[H])C([H])([H])c2c([H])c(OC3([H])C([H])([H])N(c4c([H])c([H])c(N([H])C(=O)N5C([H])([H])C([H])([H])C([H])([H])C([H])(n6nc(-c7c([H])c([H])c(Oc8c([H])c([H])c(F)c([H])c8F)c([H])c7[H])c(C(=O)N([H])[H])c6N([H])[H])C5([H])[H])c([H])c4[H])C([H])([H])C3([H])[H])c([H])c([H])c2C1([H])[H]

$$$$
57:0:0
     RDKit          3D

 98107  0  0  1  0  0  0  0  0999 V2000
  -30.3130  -21.1060   19.0080 C   0  0  0  0  0  3  0  0  0  0  0  0
  -29.9500  -20.0600   19.8830 C   0  0  0  0  0  3  0  0  0  0  0  0
  -31.8640  -21.9510   20.6690 C   0  0  0  0  0  3  0  0  0  0  0  0
  -31.2810  -22.0560   19.3960 C   0  0  0  0  0  0  0  0  0  0  0  0
  -30.5390  -19.9310   21.1720 C   0  0  0  0  0  0  0  0  0  0  0  0
  -31.4770  -20.9320   21.5540 C   0  0  0  0  0  0  0  0  0  0  0  0
  -32.0180  -20.9610   22.7960 F   0  0  0  0  0  0  0  0  0  0  0  0
  -31.3820  -16.8430   22.6530 C   0  0  0  0  0  2  0  0  0  0  0  0
  -31.2510  -18.3450   22.9470 C   0  0  0  0  0  2  0  0  0  0  0  0
  -29.4510  -17.7050   21.6070 C   0  0  0  0  0  2  0  0  0  0  0  0
  -30.5270  -16.6540   21.3990 C   0  0  0  0  0  3  0  0  0  0  0  0
  -30.2000  -18.8700   22.0620 N   0  0  0  0  0  0  0  0  0  0  0  0
  -30.4100  -14.4900   20.2590 C   0  0  0  0  0  0  0  0  0  0  0  0
  -29.9470  -12.5130   18.8780 C   0  0  0  0  0  2  0  0  0  0  0  0
  -28.9240  -12.8590   17.7790 C   0  0  0  0  0  2  0  0  0  0  0  0
  -27.5000  -12.6170   18.3090 C   0  0  0  0  0  2  0  0  0  0  0  0
  -27.2470  -13.3360   19.6600 C   0  0  0  0  0  3  0  0  0  0  0  0
  -28.3820  -13.0310   20.6700 C   0  0  0  0  0  2  0  0  0  0  0  0
  -29.6740  -13.3700   20.0430 N   0  0  0  0  0  0  0  0  0  0  0  0
  -31.3920  -14.7900   19.5780 O   0  0  0  0  0  0  0  0  0  0  0  0
  -29.9920  -15.3020   21.2360 N   0  0  0  0  0  0  0  0  0  0  0  0
  -29.2030  -15.0130   21.7940 H   0  0  0  0  0  0  0  0  0  0  0  0
  -24.8610  -13.8160   20.5030 C   0  0  0  0  0  0  0  0  0  0  0  0
  -23.8450  -12.9850   20.8980 C   0  0  0  0  0  0  0  0  0  0  0  0
  -24.3630  -11.6570   20.7990 C   0  0  0  0  0  0  0  0  0  0  0  0
  -25.9310  -12.9900   20.1970 N   0  0  0  0  0  0  0  0  0  0  0  0
  -25.6370  -11.6850   20.4290 N   0  0  0  0  0  0  0  0  0  0  0  0
  -23.7030  -10.3570   20.9860 C   0  0  0  0  0  0  0  0  0  0  0  0
  -24.2070   -9.3950   21.8890 C   0  0  0  0  0  3  0  0  0  0  0  0
  -23.5450   -8.1610   22.0620 C   0  0  0  0  0  3  0  0  0  0  0  0
  -22.3670   -7.8780   21.3320 C   0  0  0  0  0  0  0  0  0  0  0  0
  -21.8820   -8.8290   20.4170 C   0  0  0  0  0  3  0  0  0  0  0  0
  -22.5440  -10.0560   20.2420 C   0  0  0  0  0  3  0  0  0  0  0  0
  -21.6730   -6.6950   21.4140 O   0  0  0  0  0  0  0  0  0  0  0  0
  -21.6840   -5.9340   22.5560 C   0  0  0  0  0  0  0  0  0  0  0  0
  -21.2410   -6.4450   23.7960 C   0  0  0  0  0  3  0  0  0  0  0  0
  -21.2030   -5.6080   24.9290 C   0  0  0  0  0  3  0  0  0  0  0  0
  -21.5990   -4.2620   24.8250 C   0  0  0  0  0  0  0  0  0  0  0  0
  -22.0370   -3.7490   23.5910 C   0  0  0  0  0  3  0  0  0  0  0  0
  -22.0770   -4.5850   22.4600 C   0  0  0  0  0  0  0  0  0  0  0  0
  -22.4780   -4.0810   21.2690 F   0  0  0  0  0  0  0  0  0  0  0  0
  -21.5570   -3.4550   25.9110 F   0  0  0  0  0  0  0  0  0  0  0  0
  -22.4460  -13.3910   21.2600 C   0  0  0  0  0  0  0  0  0  0  0  0
  -21.7970  -12.6350   22.1410 N   0  0  0  0  0  0  0  0  0  0  0  0
  -21.9360  -14.4100   20.7980 O   0  0  0  0  0  0  0  0  0  0  0  0
  -22.2270  -11.8120   22.5340 H   0  0  0  0  0  0  0  0  0  0  0  0
  -20.8640  -12.8910   22.4300 H   0  0  0  0  0  0  0  0  0  0  0  0
  -24.9610  -15.1960   20.3560 N   0  0  0  0  0  0  0  0  0  0  0  0
  -24.1720  -15.8170   20.5090 H   0  0  0  0  0  0  0  0  0  0  0  0
  -25.7780  -15.6710   19.9940 H   0  0  0  0  0  0  0  0  0  0  0  0
  -31.6740  -23.1950   18.4650 C   0  0  0  0  0  2  0  0  0  0  0  0
  -30.8400  -25.2730   17.4340 C   0  0  0  0  0  1  0  0  0  0  0  0
  -30.7450  -24.3470   18.5850 N   0  0  2  0  0  4  0  0  0  0  0  0
  -29.8250  -23.9400   18.5310 H   0  0  0  0  0  0  0  0  0  0  0  0
  -30.8270  -25.0710   19.8850 C   0  0  0  0  0  2  0  0  0  0  0  0
  -29.5800  -24.8690   20.7610 C   0  0  0  0  0  2  0  0  0  0  0  0
  -28.2950  -25.4390   20.1570 C   0  0  0  0  0  2  0  0  0  0  0  0
  -28.4040  -26.8550   20.1080 O   0  0  0  0  0  0  0  0  0  0  0  0
  -24.5690  -31.9230   23.2670 C   0  0  0  0  0  0  0  0  0  0  0  0
  -27.2160  -27.5470   20.1150 C   0  0  0  0  0  0  0  0  0  0  0  0
  -23.3600  -30.5330   21.6130 C   0  0  0  0  0  3  0  0  0  0  0  0
  -24.8120  -29.0170   20.1700 C   0  0  0  0  0  0  0  0  0  0  0  0
  -25.8840  -30.9050   21.4110 C   0  0  0  0  0  2  0  0  0  0  0  0
  -25.9700  -29.5460   20.7540 C   0  0  0  0  0  0  0  0  0  0  0  0
  -27.1780  -28.8160   20.7260 C   0  0  0  0  0  3  0  0  0  0  0  0
  -26.0400  -27.0230   19.5320 C   0  0  0  0  0  3  0  0  0  0  0  0
  -24.8380  -27.7510   19.5580 C   0  0  0  0  0  3  0  0  0  0  0  0
  -23.5670  -29.8730   20.2230 C   0  0  0  0  0  2  0  0  0  0  0  0
  -24.6220  -31.1350   22.1540 N   0  0  0  0  0  0  0  0  0  0  0  0
  -23.4890  -32.1830   23.8130 O   0  0  0  0  0  0  0  0  0  0  0  0
  -22.7220  -29.4920   22.5630 C   0  0  0  0  0  0  0  0  0  0  0  0
  -21.4010  -29.3010   22.4370 N   0  0  0  0  0  0  0  0  0  0  0  0
  -23.4130  -28.8620   23.3690 O   0  0  0  0  0  0  0  0  0  0  0  0
  -20.9040  -29.8650   21.7600 H   0  0  0  0  0  0  0  0  0  0  0  0
  -18.0310  -28.1000   22.9390 C   0  0  0  0  0  0  0  0  0  0  0  0
  -20.5900  -28.3530   23.2010 C   0  0  0  0  0  3  0  0  0  0  0  0
  -20.6860  -26.9270   22.6090 C   0  0  0  0  0  2  0  0  0  0  0  0
  -19.5810  -26.6180   21.5960 C   0  0  0  0  0  2  0  0  0  0  0  0
  -18.2040  -26.7570   22.2480 C   0  0  0  0  0  2  0  0  0  0  0  0
  -19.1530  -28.8560   23.3730 C   0  0  0  0  0  0  0  0  0  0  0  0
  -18.9370  -30.1130   23.9760 C   0  0  0  0  0  3  0  0  0  0  0  0
  -17.6340  -30.6150   24.1550 C   0  0  0  0  0  3  0  0  0  0  0  0
  -16.5270  -29.8540   23.7370 C   0  0  0  0  0  3  0  0  0  0  0  0
  -16.7270  -28.5980   23.1350 C   0  0  0  0  0  3  0  0  0  0  0  0
  -25.8590  -32.5430   23.8860 C   0  0  0  0  0  3  0  0  0  0  0  0
  -25.5600  -33.9440   24.2110 N   0  0  0  0  0  0  0  0  0  0  0  0
  -25.8990  -34.9910   23.4470 C   0  0  0  0  0  0  0  0  0  0  0  0
  -26.5730  -34.8800   22.4180 O   0  0  0  0  0  0  0  0  0  0  0  0
  -24.9670  -34.1080   25.0100 H   0  0  0  0  0  0  0  0  0  0  0  0
  -24.1910  -36.7910   23.0540 C   0  0  0  0  0  1  0  0  0  0  0  0
  -25.4120  -36.3810   23.8930 C   0  0  0  0  0  3  0  0  0  0  0  0
  -27.5360  -37.2570   24.7670 C   0  0  0  0  0  1  0  0  0  0  0  0
  -26.4540  -37.4280   23.8000 N   0  0  0  0  0  0  0  0  0  0  0  0
  -26.0500  -38.3500   23.9390 H   0  0  0  0  0  0  0  0  0  0  0  0
  -26.3710  -31.7680   25.1610 C   0  0  1  0  0  0  0  0  0  0  0  0
  -25.2730  -31.5420   26.2280 C   0  0  0  0  0  1  0  0  0  0  0  0
  -26.9400  -30.3820   24.7680 C   0  0  0  0  0  1  0  0  0  0  0  0
  -27.5300  -32.5500   25.8210 C   0  0  0  0  0  1  0  0  0  0  0  0
  1  4  2  0
  1  2  1  0
  2  5  2  0
  3  6  2  0
  4  3  1  0
  5  6  1  0
  5 12  1  0
  6  7  1  0
  8  9  1  0
 10 12  1  0
 11 21  1  0
 11 10  1  0
 11  8  1  0
 12  9  1  0
 13 21  1  0
 14 19  1  0
 15 16  1  0
 15 14  1  0
 17 16  1  0
 17 26  1  0
 17 18  1  0
 19 13  1  0
 19 18  1  0
 20 13  2  0
 21 22  1  0
 23 24  2  0
 24 43  1  0
 25 24  1  0
 25 28  1  0
 26 27  1  0
 26 23  1  0
 27 25  2  0
 28 29  1  0
 29 30  2  0
 31 34  1  0
 31 30  1  0
 32 31  2  0
 33 32  1  0
 33 28  2  0
 34 35  1  0
 35 36  1  0
 36 37  2  0
 38 37  1  0
 38 42  1  0
 39 38  2  0
 40 35  2  0
 40 39  1  0
 41 40  1  0
 43 44  1  0
 44 47  1  0
 44 46  1  0
 45 43  2  0
 48 23  1  0
 48 49  1  0
 50 48  1  0
 51 53  1  0
 51  4  1  0
 52 53  1  0
 53 55  1  0
 53 54  1  1
 55 56  1  0
 57 56  1  0
 58 60  1  0
 58 57  1  0
 59 70  2  0
 60 65  1  0
 61 69  1  0
 61 71  1  0
 62 68  1  0
 62 64  1  0
 63 69  1  0
 64 63  1  0
 65 64  2  0
 66 67  1  0
 66 60  2  0
 67 62  2  0
 68 61  1  0
 69 59  1  0
 71 73  2  0
 72 71  1  0
 74 72  1  0
 75 84  2  0
 75 80  1  0
 76 72  1  0
 76 80  1  0
 77 76  1  0
 78 79  1  0
 78 77  1  0
 79 75  1  0
 80 81  2  0
 81 82  1  0
 83 82  2  0
 84 83  1  0
 85 59  1  0
 85 86  1  0
 85 95  1  0
 86 89  1  0
 87 91  1  0
 87 86  1  0
 88 87  2  0
 91 90  1  0
 93 91  1  0
 93 94  1  0
 93 92  1  0
 95 98  1  1
 95 96  1  0
 97 95  1  0
M  ISO  4  13 100  21 100  57 101  58 101
M  END
>  <TORSDO>  (58) 
F 22

>  <SCORE>  (58) 
-11.641

>  <name>  (58) 
57

>  <ligand_id>  (58) 
57

>  <original_smiles>  (58) 
[H]c1c([H])c([H])c2c(c1[H])C([H])([H])C([H])([H])C([H])([H])C2([H])N([H])C(=O)C1([H])N(C(=O)C([H])(N([H])C(=O)C([H])(N([H])C([H])([H])[H])C([H])([H])[H])C(C([H])([H])[H])(C([H])([H])[H])C([H])([H])[H])C([H])([H])c2c([H])c(OC([H])([H])C([H])([H])C([H])([H])[N+]([H])(C([H])([H])[H])C([H])([H])c3c([H])c([H])c(N4C([H])([H])C([H])([H])C([H])(N([H])C(=O)N5C([H])([H])C([H])([H])C([H])([H])C([H])(n6nc(-c7c([H])c([H])c(Oc8c([H])c([H])c(F)c([H])c8F)c([H])c7[H])c(C(=O)N([H])[H])c6N([H])[H])C5([H])[H])C4([H])[H])c(F)c3[H])c([H])c([H])c2C1([H])[H]

>  <smiles>  (58) 
[H]c1c([H])c([H])c2c(c1[H])C([H])([H])C([H])([H])C([H])([H])C2([H])N([H])C(=O)C1([H])N(C(=O)C([H])(N([H])C(=O)C([H])(N([H])C([H])([H])[H])C([H])([H])[H])C(C([H])([H])[H])(C([H])([H])[H])C([H])([H])[H])C([H])([H])c2c([H])c(OC([H])([H])C([H])([H])C([H])([H])[N+]([H])(C([H])([H])[H])C([H])([H])c3c([H])c([H])c(N4C([H])([H])C([H])([H])C([H])(N([H])C(=O)N5C([H])([H])C([H])([H])C([H])([H])C([H])(n6nc(-c7c([H])c([H])c(Oc8c([H])c([H])c(F)c([H])c8F)c([H])c7[H])c(C(=O)N([H])[H])c6N([H])[H])C5([H])[H])C4([H])[H])c(F)c3[H])c([H])c([H])c2C1([H])[H]

$$$$
58:0:0
     RDKit          3D

 90 98  0  0  1  0  0  0  0  0999 V2000
  -29.9590  -20.1730   21.1340 C   0  0  0  0  0  3  0  0  0  0  0  0
  -30.3320  -18.7700   21.2540 C   0  0  0  0  0  3  0  0  0  0  0  0
  -28.5500  -19.5970   19.3460 C   0  0  0  0  0  3  0  0  0  0  0  0
  -29.0090  -20.6740   20.1890 C   0  0  0  0  0  0  0  0  0  0  0  0
  -29.8450  -17.6830   20.4360 C   0  0  0  0  0  0  0  0  0  0  0  0
  -28.9400  -18.1960   19.4440 C   0  0  0  0  0  0  0  0  0  0  0  0
  -28.1910  -17.0900   18.3530 Cl  0  0  0  0  0  0  0  0  0  0  0  0
  -30.6510  -15.0960   20.0760 C   0  0  0  0  0  0  0  0  0  0  0  0
  -30.4550  -12.7930   19.0150 C   0  0  0  0  0  2  0  0  0  0  0  0
  -29.4750  -12.8060   17.8180 C   0  0  0  0  0  2  0  0  0  0  0  0
  -28.0360  -12.5530   18.3010 C   0  0  0  0  0  2  0  0  0  0  0  0
  -27.6770  -13.4400   19.5200 C   0  0  0  0  0  3  0  0  0  0  0  0
  -28.7680  -13.4210   20.6050 C   0  0  0  0  0  2  0  0  0  0  0  0
  -30.0330  -13.8460   19.9880 N   0  0  0  0  0  0  0  0  0  0  0  0
  -31.7620  -15.2070   19.5400 O   0  0  0  0  0  0  0  0  0  0  0  0
  -30.2700  -16.0090   22.2340 C   0  0  0  0  0  1  0  0  0  0  0  0
  -30.0740  -16.1930   20.7860 N   0  0  0  0  0  0  0  0  0  0  0  0
  -25.3520  -14.0160   20.4110 C   0  0  0  0  0  0  0  0  0  0  0  0
  -24.3030  -13.2370   20.8180 C   0  0  0  0  0  0  0  0  0  0  0  0
  -24.7560  -11.8850   20.7210 C   0  0  0  0  0  0  0  0  0  0  0  0
  -26.3670  -13.1370   20.0770 N   0  0  0  0  0  0  0  0  0  0  0  0
  -26.0240  -11.8480   20.3300 N   0  0  0  0  0  0  0  0  0  0  0  0
  -24.0370  -10.6200   20.9210 C   0  0  0  0  0  0  0  0  0  0  0  0
  -24.4690   -9.6600   21.8630 C   0  0  0  0  0  3  0  0  0  0  0  0
  -23.7460   -8.4610   22.0440 C   0  0  0  0  0  3  0  0  0  0  0  0
  -22.5780   -8.2140   21.2830 C   0  0  0  0  0  0  0  0  0  0  0  0
  -22.1670   -9.1640   20.3300 C   0  0  0  0  0  3  0  0  0  0  0  0
  -22.8900  -10.3530   20.1470 C   0  0  0  0  0  3  0  0  0  0  0  0
  -21.8290   -7.0670   21.3740 O   0  0  0  0  0  0  0  0  0  0  0  0
  -21.7070   -6.3770   22.5560 C   0  0  0  0  0  0  0  0  0  0  0  0
  -21.1940   -6.9840   23.7230 C   0  0  0  0  0  3  0  0  0  0  0  0
  -21.0220   -6.2210   24.8950 C   0  0  0  0  0  3  0  0  0  0  0  0
  -21.3540   -4.8530   24.9000 C   0  0  0  0  0  0  0  0  0  0  0  0
  -21.8610   -4.2460   23.7370 C   0  0  0  0  0  3  0  0  0  0  0  0
  -22.0350   -5.0060   22.5680 C   0  0  0  0  0  0  0  0  0  0  0  0
  -22.5060   -4.4120   21.4440 F   0  0  0  0  0  0  0  0  0  0  0  0
  -21.1810   -4.1180   26.0240 F   0  0  0  0  0  0  0  0  0  0  0  0
  -22.9270  -13.7160   21.1740 C   0  0  0  0  0  0  0  0  0  0  0  0
  -22.2440  -13.0030   22.0640 N   0  0  0  0  0  0  0  0  0  0  0  0
  -22.4690  -14.7560   20.7050 O   0  0  0  0  0  0  0  0  0  0  0  0
  -22.6290  -12.1610   22.4660 H   0  0  0  0  0  0  0  0  0  0  0  0
  -21.3240  -13.3070   22.3470 H   0  0  0  0  0  0  0  0  0  0  0  0
  -25.5190  -15.3890   20.2710 N   0  0  0  0  0  0  0  0  0  0  0  0
  -24.7710  -16.0510   20.4390 H   0  0  0  0  0  0  0  0  0  0  0  0
  -26.3480  -15.8230   19.8810 H   0  0  0  0  0  0  0  0  0  0  0  0
  -26.9810  -21.9530   20.4210 C   0  0  0  0  0  1  0  0  0  0  0  0
  -28.4150  -22.0420   20.1360 N   0  0  0  0  0  0  0  0  0  0  0  0
  -28.9600  -23.4800   20.4040 C   0  0  0  0  0  3  0  0  0  0  0  0
  -28.0570  -24.8410   19.9780 C   0  0  0  0  0  3  0  0  0  0  0  0
  -28.3180  -26.3330   20.2840 O   0  0  0  0  0  0  0  0  0  0  0  0
  -24.6310  -31.9310   23.2930 C   0  0  0  0  0  0  0  0  0  0  0  0
  -27.2520  -27.2940   20.2140 C   0  0  0  0  0  0  0  0  0  0  0  0
  -23.4420  -30.5380   21.6380 C   0  0  0  0  0  3  0  0  0  0  0  0
  -24.9070  -29.0000   20.1970 C   0  0  0  0  0  0  0  0  0  0  0  0
  -25.9930  -30.8350   21.4820 C   0  0  0  0  0  2  0  0  0  0  0  0
  -26.0770  -29.4530   20.8190 C   0  0  0  0  0  0  0  0  0  0  0  0
  -27.2490  -28.6120   20.8190 C   0  0  0  0  0  3  0  0  0  0  0  0
  -26.0590  -26.9440   19.5440 C   0  0  0  0  0  3  0  0  0  0  0  0
  -24.9090  -27.7590   19.5460 C   0  0  0  0  0  3  0  0  0  0  0  0
  -23.6700  -29.8800   20.2530 C   0  0  0  0  0  2  0  0  0  0  0  0
  -24.7070  -31.1230   22.1920 N   0  0  0  0  0  0  0  0  0  0  0  0
  -23.5440  -32.2010   23.8250 O   0  0  0  0  0  0  0  0  0  0  0  0
  -22.7760  -29.5150   22.5920 C   0  0  0  0  0  0  0  0  0  0  0  0
  -21.4490  -29.3270   22.4660 N   0  0  0  0  0  0  0  0  0  0  0  0
  -23.4530  -28.8910   23.4130 O   0  0  0  0  0  0  0  0  0  0  0  0
  -20.9540  -29.8860   21.7840 H   0  0  0  0  0  0  0  0  0  0  0  0
  -18.0870  -28.0680   22.9500 C   0  0  0  0  0  0  0  0  0  0  0  0
  -20.6410  -28.3700   23.2300 C   0  0  0  0  0  3  0  0  0  0  0  0
  -20.7670  -26.9400   22.6520 C   0  0  0  0  0  2  0  0  0  0  0  0
  -19.6720  -26.6000   21.6370 C   0  0  0  0  0  2  0  0  0  0  0  0
  -18.2860  -26.7210   22.2760 C   0  0  0  0  0  2  0  0  0  0  0  0
  -19.1920  -28.8470   23.3860 C   0  0  0  0  0  0  0  0  0  0  0  0
  -18.9490  -30.1040   23.9790 C   0  0  0  0  0  3  0  0  0  0  0  0
  -17.6340  -30.5820   24.1400 C   0  0  0  0  0  3  0  0  0  0  0  0
  -16.5450  -29.8000   23.7170 C   0  0  0  0  0  3  0  0  0  0  0  0
  -16.7730  -28.5450   23.1280 C   0  0  0  0  0  3  0  0  0  0  0  0
  -25.9070  -32.5720   23.9190 C   0  0  0  0  0  3  0  0  0  0  0  0
  -26.4090  -31.8160   25.2100 C   0  0  1  0  0  0  0  0  0  0  0  0
  -25.3060  -31.5880   26.2700 C   0  0  0  0  0  1  0  0  0  0  0  0
  -27.0040  -30.4340   24.8470 C   0  0  0  0  0  1  0  0  0  0  0  0
  -27.5510  -32.6210   25.8730 C   0  0  0  0  0  1  0  0  0  0  0  0
  -25.5950  -33.9750   24.2370 N   0  0  0  0  0  0  0  0  0  0  0  0
  -25.8990  -35.0200   23.4560 C   0  0  0  0  0  0  0  0  0  0  0  0
  -26.5440  -34.9050   22.4110 O   0  0  0  0  0  0  0  0  0  0  0  0
  -25.0190  -34.1350   25.0520 H   0  0  0  0  0  0  0  0  0  0  0  0
  -24.1410  -36.7910   23.1300 C   0  0  0  0  0  1  0  0  0  0  0  0
  -25.4150  -36.4140   23.9040 C   0  0  0  0  0  3  0  0  0  0  0  0
  -27.5670  -37.3390   24.6430 C   0  0  0  0  0  1  0  0  0  0  0  0
  -26.4320  -37.4760   23.7330 N   0  0  0  0  0  0  0  0  0  0  0  0
  -26.0200  -38.3940   23.8770 H   0  0  0  0  0  0  0  0  0  0  0  0
  1  2  1  0
  3  6  2  0
  3  4  1  0
  4  1  2  0
  5 17  1  0
  5  2  2  0
  6  5  1  0
  7  6  1  0
  8 17  1  0
  9 14  1  0
 10 11  1  0
 10  9  1  0
 12 11  1  0
 12 21  1  0
 12 13  1  0
 14  8  1  0
 14 13  1  0
 15  8  2  0
 17 16  1  0
 18 19  2  0
 19 38  1  0
 20 19  1  0
 20 23  1  0
 21 22  1  0
 21 18  1  0
 22 20  2  0
 23 24  1  0
 24 25  2  0
 26 29  1  0
 26 25  1  0
 27 26  2  0
 28 27  1  0
 28 23  2  0
 29 30  1  0
 30 35  2  0
 30 31  1  0
 31 32  2  0
 32 33  1  0
 33 37  1  0
 34 33  2  0
 35 34  1  0
 36 35  1  0
 38 39  1  0
 39 42  1  0
 39 41  1  0
 40 38  2  0
 43 18  1  0
 43 44  1  0
 45 43  1  0
 47  4  1  0
 47 48  1  0
 47 46  1  0
 49 50  1  0
 49 48  2  0
 51 62  2  0
 52 50  1  0
 52 57  1  0
 53 61  1  0
 53 63  1  0
 54 60  1  0
 54 56  1  0
 55 61  1  0
 56 55  1  0
 57 56  2  0
 58 59  1  0
 58 52  2  0
 59 54  2  0
 60 53  1  0
 61 51  1  0
 63 65  2  0
 64 63  1  0
 66 64  1  0
 67 76  2  0
 67 72  1  0
 68 64  1  0
 68 72  1  0
 69 68  1  0
 70 71  1  0
 70 69  1  0
 71 67  1  0
 72 73  2  0
 73 74  1  0
 75 74  2  0
 76 75  1  0
 77 51  1  0
 77 82  1  0
 77 78  1  0
 78 81  1  1
 78 79  1  0
 80 78  1  0
 82 85  1  0
 83 87  1  0
 83 82  1  0
 84 83  2  0
 87 86  1  0
 89 90  1  0
 89 87  1  0
 89 88  1  0
M  ISO  4   8 100  17 100  49 101  50 101
M  END
>  <TORSDO>  (59) 
F 19

>  <SCORE>  (59) 
-13.620

>  <name>  (59) 
58

>  <ligand_id>  (59) 
58

>  <original_smiles>  (59) 
[H]c1c([H])c([H])c2c(c1[H])C([H])([H])C([H])([H])C([H])([H])C2([H])N([H])C(=O)C1([H])N(C(=O)C([H])(N([H])C(=O)C([H])(N([H])C([H])([H])[H])C([H])([H])[H])C(C([H])([H])[H])(C([H])([H])[H])C([H])([H])[H])C([H])([H])c2c([H])c(OC([H])([H])C([H])([H])N(c3c([H])c([H])c(N(C(=O)N4C([H])([H])C([H])([H])C([H])([H])C([H])(n5nc(-c6c([H])c([H])c(Oc7c([H])c([H])c(F)c([H])c7F)c([H])c6[H])c(C(=O)N([H])[H])c5N([H])[H])C4([H])[H])C([H])([H])[H])c(Cl)c3[H])C([H])([H])[H])c([H])c([H])c2C1([H])[H]

>  <smiles>  (59) 
[H]c1c([H])c([H])c2c(c1[H])C([H])([H])C([H])([H])C([H])([H])C2([H])N([H])C(=O)C1([H])N(C(=O)C([H])(N([H])C(=O)C([H])(N([H])C([H])([H])[H])C([H])([H])[H])C(C([H])([H])[H])(C([H])([H])[H])C([H])([H])[H])C([H])([H])c2c([H])c(OC([H])([H])C([H])([H])N(c3c([H])c([H])c(N(C(=O)N4C([H])([H])C([H])([H])C([H])([H])C([H])(n5nc(-c6c([H])c([H])c(Oc7c([H])c([H])c(F)c([H])c7F)c([H])c6[H])c(C(=O)N([H])[H])c5N([H])[H])C4([H])[H])C([H])([H])[H])c(Cl)c3[H])C([H])([H])[H])c([H])c([H])c2C1([H])[H]

$$$$
59:0:0
     RDKit          3D

 96105  0  0  1  0  0  0  0  0999 V2000
  -30.1010  -21.2570   19.5120 C   0  0  0  0  0  3  0  0  0  0  0  0
  -31.0220  -21.6240   21.7310 C   0  0  0  0  0  3  0  0  0  0  0  0
  -30.3800  -22.5920   19.1760 C   0  0  0  0  0  3  0  0  0  0  0  0
  -31.2950  -22.9650   21.3980 C   0  0  0  0  0  3  0  0  0  0  0  0
  -30.4340  -20.7520   20.7900 C   0  0  0  0  0  0  0  0  0  0  0  0
  -30.9860  -23.4540   20.1130 C   0  0  0  0  0  0  0  0  0  0  0  0
  -29.0610  -17.2340   20.8970 C   0  0  0  0  0  2  0  0  0  0  0  0
  -31.4750  -17.2670   21.5790 C   0  0  0  0  0  2  0  0  0  0  0  0
  -29.1840  -18.6910   20.4280 C   0  0  0  0  0  2  0  0  0  0  0  0
  -31.5780  -18.7330   21.1410 C   0  0  0  0  0  2  0  0  0  0  0  0
  -30.4220  -16.5500   20.7140 C   0  0  0  0  0  3  0  0  0  0  0  0
  -30.2690  -19.3960   21.1270 N   0  0  0  0  0  0  0  0  0  0  0  0
  -30.6840  -14.2850   19.8530 C   0  0  0  0  0  0  0  0  0  0  0  0
  -30.0530  -12.3590   18.4470 C   0  0  0  0  0  2  0  0  0  0  0  0
  -28.9900  -12.7430   17.4000 C   0  0  0  0  0  2  0  0  0  0  0  0
  -27.5780  -12.5850   17.9920 C   0  0  0  0  0  2  0  0  0  0  0  0
  -27.4270  -13.3050   19.3550 C   0  0  0  0  0  3  0  0  0  0  0  0
  -28.5850  -12.9360   20.3050 C   0  0  0  0  0  2  0  0  0  0  0  0
  -29.8720  -13.2140   19.6330 N   0  0  0  0  0  0  0  0  0  0  0  0
  -31.5990  -14.5900   19.0790 O   0  0  0  0  0  0  0  0  0  0  0  0
  -30.4860  -14.6070   22.2750 C   0  0  0  0  0  1  0  0  0  0  0  0
  -30.3590  -15.0880   20.8920 N   0  0  0  0  0  0  0  0  0  0  0  0
  -25.1230  -13.9030   20.3440 C   0  0  0  0  0  0  0  0  0  0  0  0
  -24.1020  -13.1220   20.8130 C   0  0  0  0  0  0  0  0  0  0  0  0
  -24.5530  -11.7700   20.7000 C   0  0  0  0  0  0  0  0  0  0  0  0
  -26.1320  -13.0250   19.9720 N   0  0  0  0  0  0  0  0  0  0  0  0
  -25.7970  -11.7370   20.2440 N   0  0  0  0  0  0  0  0  0  0  0  0
  -23.8500  -10.5040   20.9420 C   0  0  0  0  0  0  0  0  0  0  0  0
  -24.3510   -9.5400   21.8440 C   0  0  0  0  0  3  0  0  0  0  0  0
  -23.6460   -8.3380   22.0730 C   0  0  0  0  0  3  0  0  0  0  0  0
  -22.4280   -8.0910   21.3980 C   0  0  0  0  0  0  0  0  0  0  0  0
  -21.9450   -9.0440   20.4830 C   0  0  0  0  0  3  0  0  0  0  0  0
  -22.6490  -10.2370   20.2540 C   0  0  0  0  0  3  0  0  0  0  0  0
  -21.6910   -6.9400   21.5350 O   0  0  0  0  0  0  0  0  0  0  0  0
  -21.6970   -6.2150   22.6990 C   0  0  0  0  0  0  0  0  0  0  0  0
  -21.3190   -6.7850   23.9340 C   0  0  0  0  0  3  0  0  0  0  0  0
  -21.2730   -5.9860   25.0930 C   0  0  0  0  0  3  0  0  0  0  0  0
  -21.5960   -4.6170   25.0200 C   0  0  0  0  0  0  0  0  0  0  0  0
  -21.9680   -4.0470   23.7900 C   0  0  0  0  0  3  0  0  0  0  0  0
  -22.0160   -4.8420   22.6320 C   0  0  0  0  0  0  0  0  0  0  0  0
  -22.3550   -4.2820   21.4460 F   0  0  0  0  0  0  0  0  0  0  0  0
  -21.5460   -3.8490   26.1330 F   0  0  0  0  0  0  0  0  0  0  0  0
  -22.7460  -13.5930   21.2550 C   0  0  0  0  0  0  0  0  0  0  0  0
  -22.1340  -12.8990   22.2050 N   0  0  0  0  0  0  0  0  0  0  0  0
  -22.2430  -14.6160   20.7890 O   0  0  0  0  0  0  0  0  0  0  0  0
  -22.5580  -12.0720   22.6010 H   0  0  0  0  0  0  0  0  0  0  0  0
  -21.2310  -13.1990   22.5440 H   0  0  0  0  0  0  0  0  0  0  0  0
  -25.2710  -15.2750   20.1820 N   0  0  0  0  0  0  0  0  0  0  0  0
  -24.5230  -15.9270   20.3910 H   0  0  0  0  0  0  0  0  0  0  0  0
  -26.0880  -15.7230   19.7870 H   0  0  0  0  0  0  0  0  0  0  0  0
  -31.2990  -24.7810   19.8020 N   0  0  0  0  0  0  0  0  0  0  0  0
  -31.5400  -25.3810   20.5860 H   0  0  0  0  0  0  0  0  0  0  0  0
  -30.5950  -25.4140   18.6910 C   0  0  0  0  0  2  0  0  0  0  0  0
  -30.5170  -26.9410   18.8360 C   0  0  0  0  0  2  0  0  0  0  0  0
  -29.7720  -27.4090   20.0940 C   0  0  0  0  0  2  0  0  0  0  0  0
  -28.5280  -26.7140   20.1640 O   0  0  0  0  0  0  0  0  0  0  0  0
  -24.5950  -31.8510   23.1900 C   0  0  0  0  0  0  0  0  0  0  0  0
  -27.3690  -27.4480   20.2120 C   0  0  0  0  0  0  0  0  0  0  0  0
  -23.4280  -30.3980   21.5570 C   0  0  0  0  0  3  0  0  0  0  0  0
  -24.9270  -28.8590   20.1840 C   0  0  0  0  0  0  0  0  0  0  0  0
  -25.9410  -30.8100   21.3760 C   0  0  0  0  0  2  0  0  0  0  0  0
  -26.0610  -29.4280   20.7770 C   0  0  0  0  0  0  0  0  0  0  0  0
  -27.2790  -28.7250   20.8080 C   0  0  0  0  0  3  0  0  0  0  0  0
  -26.2170  -26.8710   19.6410 C   0  0  0  0  0  3  0  0  0  0  0  0
  -24.9950  -27.5720   19.6200 C   0  0  0  0  0  3  0  0  0  0  0  0
  -23.6680  -29.6940   20.1920 C   0  0  0  0  0  2  0  0  0  0  0  0
  -24.6710  -31.0350   22.1010 N   0  0  0  0  0  0  0  0  0  0  0  0
  -23.5060  -32.1130   23.7170 O   0  0  0  0  0  0  0  0  0  0  0  0
  -22.7890  -29.3840   22.5320 C   0  0  0  0  0  0  0  0  0  0  0  0
  -21.4690  -29.1820   22.3990 N   0  0  0  0  0  0  0  0  0  0  0  0
  -23.4760  -28.7820   23.3610 O   0  0  0  0  0  0  0  0  0  0  0  0
  -20.9770  -29.7210   21.7000 H   0  0  0  0  0  0  0  0  0  0  0  0
  -18.1030  -27.9750   22.9070 C   0  0  0  0  0  0  0  0  0  0  0  0
  -20.6590  -28.2490   23.1810 C   0  0  0  0  0  3  0  0  0  0  0  0
  -20.7710  -26.8120   22.6210 C   0  0  0  0  0  2  0  0  0  0  0  0
  -19.6720  -26.4720   21.6090 C   0  0  0  0  0  2  0  0  0  0  0  0
  -18.2880  -26.6190   22.2480 C   0  0  0  0  0  2  0  0  0  0  0  0
  -19.2170  -28.7470   23.3310 C   0  0  0  0  0  0  0  0  0  0  0  0
  -18.9920  -30.0160   23.9070 C   0  0  0  0  0  3  0  0  0  0  0  0
  -17.6850  -30.5140   24.0660 C   0  0  0  0  0  3  0  0  0  0  0  0
  -16.5850  -29.7400   23.6570 C   0  0  0  0  0  3  0  0  0  0  0  0
  -16.7950  -28.4740   23.0830 C   0  0  0  0  0  3  0  0  0  0  0  0
  -25.8660  -32.5130   23.8070 C   0  0  0  0  0  3  0  0  0  0  0  0
  -25.5230  -33.9010   24.1420 N   0  0  0  0  0  0  0  0  0  0  0  0
  -25.8450  -34.9650   23.3930 C   0  0  0  0  0  0  0  0  0  0  0  0
  -26.5360  -34.8820   22.3730 O   0  0  0  0  0  0  0  0  0  0  0  0
  -24.9090  -34.0380   24.9310 H   0  0  0  0  0  0  0  0  0  0  0  0
  -24.0960  -36.7300   23.0020 C   0  0  0  0  0  1  0  0  0  0  0  0
  -25.3180  -36.3390   23.8480 C   0  0  0  0  0  3  0  0  0  0  0  0
  -27.4130  -37.2500   24.7490 C   0  0  0  0  0  1  0  0  0  0  0  0
  -26.3340  -37.4120   23.7780 N   0  0  0  0  0  0  0  0  0  0  0  0
  -25.9070  -38.3220   23.9290 H   0  0  0  0  0  0  0  0  0  0  0  0
  -26.4120  -31.7490   25.0750 C   0  0  1  0  0  0  0  0  0  0  0  0
  -25.3310  -31.4640   26.1430 C   0  0  0  0  0  1  0  0  0  0  0  0
  -27.0440  -30.3980   24.6660 C   0  0  0  0  0  1  0  0  0  0  0  0
  -27.5350  -32.5780   25.7430 C   0  0  0  0  0  1  0  0  0  0  0  0
  1  5  1  0
  3  1  2  0
  3  6  1  0
  4  2  1  0
  5 12  1  0
  5  2  2  0
  6  4  2  0
  9  7  1  0
  9 12  1  0
 10  8  1  0
 11 22  1  0
 11  7  1  0
 11  8  1  0
 12 10  1  0
 13 22  1  0
 14 19  1  0
 15 16  1  0
 15 14  1  0
 17 16  1  0
 17 26  1  0
 17 18  1  0
 19 13  1  0
 19 18  1  0
 20 13  2  0
 22 21  1  0
 23 24  2  0
 24 43  1  0
 25 24  1  0
 25 28  1  0
 26 27  1  0
 26 23  1  0
 27 25  2  0
 28 29  1  0
 29 30  2  0
 31 34  1  0
 31 30  1  0
 32 31  2  0
 33 32  1  0
 33 28  2  0
 34 35  1  0
 35 36  1  0
 36 37  2  0
 38 37  1  0
 38 42  1  0
 39 38  2  0
 40 35  2  0
 40 39  1  0
 41 40  1  0
 43 44  1  0
 44 47  1  0
 44 46  1  0
 45 43  2  0
 48 23  1  0
 48 49  1  0
 50 48  1  0
 51  6  1  0
 51 52  1  0
 53 54  1  0
 53 51  1  0
 54 55  1  0
 55 56  1  0
 56 58  1  0
 57 68  2  0
 58 63  1  0
 59 67  1  0
 59 69  1  0
 60 66  1  0
 60 62  1  0
 61 67  1  0
 62 63  2  0
 62 61  1  0
 64 58  2  0
 65 64  1  0
 65 60  2  0
 66 59  1  0
 67 57  1  0
 69 71  2  0
 70 69  1  0
 72 70  1  0
 73 82  2  0
 73 78  1  0
 74 70  1  0
 74 78  1  0
 75 74  1  0
 76 77  1  0
 76 75  1  0
 77 73  1  0
 78 79  2  0
 79 80  1  0
 81 80  2  0
 82 81  1  0
 83 57  1  0
 83 84  1  0
 83 93  1  0
 84 87  1  0
 85 89  1  0
 85 84  1  0
 86 85  2  0
 89 88  1  0
 91 89  1  0
 91 92  1  0
 91 90  1  0
 93 96  1  1
 93 94  1  0
 95 93  1  0
M  ISO  4  13 100  22 100  55 101  56 101
M  END
>  <TORSDO>  (60) 
F 21

>  <SCORE>  (60) 
-11.865

>  <name>  (60) 
59

>  <ligand_id>  (60) 
59

>  <original_smiles>  (60) 
[H]c1c([H])c([H])c2c(c1[H])C([H])([H])C([H])([H])C([H])([H])C2([H])N([H])C(=O)C1([H])N(C(=O)C([H])(N([H])C(=O)C([H])(N([H])C([H])([H])[H])C([H])([H])[H])C(C([H])([H])[H])(C([H])([H])[H])C([H])([H])[H])C([H])([H])c2c([H])c(OC([H])([H])C([H])([H])C([H])([H])N([H])c3c([H])c([H])c(N4C([H])([H])C([H])([H])C([H])(N(C(=O)N5C([H])([H])C([H])([H])C([H])([H])C([H])(n6nc(-c7c([H])c([H])c(Oc8c([H])c([H])c(F)c([H])c8F)c([H])c7[H])c(C(=O)N([H])[H])c6N([H])[H])C5([H])[H])C([H])([H])[H])C([H])([H])C4([H])[H])c([H])c3[H])c([H])c([H])c2C1([H])[H]

>  <smiles>  (60) 
[H]c1c([H])c([H])c2c(c1[H])C([H])([H])C([H])([H])C([H])([H])C2([H])N([H])C(=O)C1([H])N(C(=O)C([H])(N([H])C(=O)C([H])(N([H])C([H])([H])[H])C([H])([H])[H])C(C([H])([H])[H])(C([H])([H])[H])C([H])([H])[H])C([H])([H])c2c([H])c(OC([H])([H])C([H])([H])C([H])([H])N([H])c3c([H])c([H])c(N4C([H])([H])C([H])([H])C([H])(N(C(=O)N5C([H])([H])C([H])([H])C([H])([H])C([H])(n6nc(-c7c([H])c([H])c(Oc8c([H])c([H])c(F)c([H])c8F)c([H])c7[H])c(C(=O)N([H])[H])c6N([H])[H])C5([H])[H])C([H])([H])[H])C([H])([H])C4([H])[H])c([H])c3[H])c([H])c([H])c2C1([H])[H]

$$$$
60:0:0
     RDKit          3D

 90 98  0  0  1  0  0  0  0  0999 V2000
  -29.5990  -19.5720   19.0110 C   0  0  0  0  0  3  0  0  0  0  0  0
  -30.0300  -19.3160   21.3510 C   0  0  0  0  0  3  0  0  0  0  0  0
  -29.3770  -20.9740   19.1890 C   0  0  0  0  0  3  0  0  0  0  0  0
  -29.8290  -20.7220   21.5250 C   0  0  0  0  0  3  0  0  0  0  0  0
  -29.9540  -18.6920   20.0740 C   0  0  0  0  0  0  0  0  0  0  0  0
  -29.5190  -21.6090   20.4500 C   0  0  0  0  0  0  0  0  0  0  0  0
  -30.2280  -23.5770   21.7420 C   0  0  0  0  0  1  0  0  0  0  0  0
  -29.4630  -23.0460   20.6140 N   0  0  0  0  0  0  0  0  0  0  0  0
  -28.3550  -23.9280   20.1190 C   0  0  0  0  0  2  0  0  0  0  0  0
  -28.7370  -25.3420   19.4730 C   0  0  0  0  0  2  0  0  0  0  0  0
  -28.5380  -26.6310   20.1650 O   0  0  0  0  0  0  0  0  0  0  0  0
  -24.5970  -31.8690   23.1080 C   0  0  0  0  0  0  0  0  0  0  0  0
  -27.3680  -27.3940   20.0720 C   0  0  0  0  0  0  0  0  0  0  0  0
  -23.4470  -30.4430   21.4490 C   0  0  0  0  0  3  0  0  0  0  0  0
  -24.9550  -28.9280   20.0360 C   0  0  0  0  0  0  0  0  0  0  0  0
  -25.9760  -30.8290   21.2930 C   0  0  0  0  0  2  0  0  0  0  0  0
  -26.0970  -29.4530   20.6500 C   0  0  0  0  0  0  0  0  0  0  0  0
  -27.3020  -28.6930   20.6620 C   0  0  0  0  0  3  0  0  0  0  0  0
  -26.2000  -26.9110   19.4440 C   0  0  0  0  0  3  0  0  0  0  0  0
  -25.0060  -27.6630   19.4260 C   0  0  0  0  0  3  0  0  0  0  0  0
  -23.6940  -29.7700   20.0700 C   0  0  0  0  0  2  0  0  0  0  0  0
  -24.6910  -31.0640   22.0080 N   0  0  0  0  0  0  0  0  0  0  0  0
  -23.5020  -32.1190   23.6300 O   0  0  0  0  0  0  0  0  0  0  0  0
  -22.7990  -29.4100   22.4000 C   0  0  0  0  0  0  0  0  0  0  0  0
  -21.4760  -29.2130   22.2650 N   0  0  0  0  0  0  0  0  0  0  0  0
  -23.4830  -28.7890   23.2180 O   0  0  0  0  0  0  0  0  0  0  0  0
  -20.9820  -29.7660   21.5780 H   0  0  0  0  0  0  0  0  0  0  0  0
  -18.1140  -27.9700   22.7470 C   0  0  0  0  0  0  0  0  0  0  0  0
  -20.6680  -28.2560   23.0230 C   0  0  0  0  0  3  0  0  0  0  0  0
  -20.7890  -26.8330   22.4320 C   0  0  0  0  0  2  0  0  0  0  0  0
  -19.6920  -26.5090   21.4130 C   0  0  0  0  0  2  0  0  0  0  0  0
  -18.3070  -26.6310   22.0570 C   0  0  0  0  0  2  0  0  0  0  0  0
  -19.2220  -28.7410   23.1870 C   0  0  0  0  0  0  0  0  0  0  0  0
  -18.9890  -29.9950   23.7950 C   0  0  0  0  0  3  0  0  0  0  0  0
  -17.6780  -30.4790   23.9630 C   0  0  0  0  0  3  0  0  0  0  0  0
  -16.5840  -29.7050   23.5380 C   0  0  0  0  0  3  0  0  0  0  0  0
  -16.8020  -28.4530   22.9370 C   0  0  0  0  0  3  0  0  0  0  0  0
  -25.8570  -32.5280   23.7490 C   0  0  0  0  0  3  0  0  0  0  0  0
  -26.3950  -31.7490   25.0110 C   0  0  1  0  0  0  0  0  0  0  0  0
  -25.3070  -31.4510   26.0680 C   0  0  0  0  0  1  0  0  0  0  0  0
  -27.0290  -30.4020   24.5930 C   0  0  0  0  0  1  0  0  0  0  0  0
  -27.5130  -32.5690   25.6970 C   0  0  0  0  0  1  0  0  0  0  0  0
  -25.5020  -33.9090   24.1080 N   0  0  0  0  0  0  0  0  0  0  0  0
  -25.8020  -34.9880   23.3720 C   0  0  0  0  0  0  0  0  0  0  0  0
  -26.4750  -34.9280   22.3390 O   0  0  0  0  0  0  0  0  0  0  0  0
  -24.9030  -34.0290   24.9110 H   0  0  0  0  0  0  0  0  0  0  0  0
  -24.0220  -36.7360   23.0450 C   0  0  0  0  0  1  0  0  0  0  0  0
  -25.2680  -36.3500   23.8580 C   0  0  0  0  0  3  0  0  0  0  0  0
  -27.3640  -37.2820   24.7330 C   0  0  0  0  0  1  0  0  0  0  0  0
  -26.2690  -37.4350   23.7790 N   0  0  0  0  0  0  0  0  0  0  0  0
  -25.8330  -38.3400   23.9410 H   0  0  0  0  0  0  0  0  0  0  0  0
  -30.2780  -17.1690   19.7390 C   0  0  0  0  0  2  0  0  0  0  0  0
  -30.9480  -14.7400   20.0390 C   0  0  0  0  0  0  0  0  0  0  0  0
  -30.6090  -12.5430   18.9060 C   0  0  0  0  0  2  0  0  0  0  0  0
  -29.6090  -12.7010   17.7390 C   0  0  0  0  0  2  0  0  0  0  0  0
  -28.1610  -12.5380   18.2380 C   0  0  0  0  0  2  0  0  0  0  0  0
  -27.8750  -13.3810   19.5090 C   0  0  0  0  0  3  0  0  0  0  0  0
  -28.9820  -13.1950   20.5650 C   0  0  0  0  0  2  0  0  0  0  0  0
  -30.2660  -13.5470   19.9390 N   0  0  0  0  0  0  0  0  0  0  0  0
  -32.0450  -14.8680   19.4850 O   0  0  0  0  0  0  0  0  0  0  0  0
  -30.0870  -15.9640   21.9770 C   0  0  0  0  0  1  0  0  0  0  0  0
  -30.2860  -15.8580   20.5220 N   0  0  0  0  0  0  0  0  0  0  0  0
  -25.5390  -13.9900   20.3820 C   0  0  0  0  0  0  0  0  0  0  0  0
  -24.4840  -13.2200   20.7890 C   0  0  0  0  0  0  0  0  0  0  0  0
  -24.9230  -11.8640   20.6950 C   0  0  0  0  0  0  0  0  0  0  0  0
  -26.5530  -13.1010   20.0610 N   0  0  0  0  0  0  0  0  0  0  0  0
  -26.1940  -11.8160   20.3110 N   0  0  0  0  0  0  0  0  0  0  0  0
  -24.1910  -10.6060   20.8920 C   0  0  0  0  0  0  0  0  0  0  0  0
  -24.5970   -9.6580   21.8560 C   0  0  0  0  0  3  0  0  0  0  0  0
  -23.8660   -8.4640   22.0400 C   0  0  0  0  0  3  0  0  0  0  0  0
  -22.7130   -8.2120   21.2580 C   0  0  0  0  0  0  0  0  0  0  0  0
  -22.3250   -9.1500   20.2850 C   0  0  0  0  0  3  0  0  0  0  0  0
  -23.0580  -10.3330   20.1000 C   0  0  0  0  0  3  0  0  0  0  0  0
  -21.9560   -7.0690   21.3490 O   0  0  0  0  0  0  0  0  0  0  0  0
  -21.7890   -6.4090   22.5400 C   0  0  0  0  0  0  0  0  0  0  0  0
  -21.2060   -7.0340   23.6640 C   0  0  0  0  0  3  0  0  0  0  0  0
  -20.9900   -6.2980   24.8450 C   0  0  0  0  0  3  0  0  0  0  0  0
  -21.3430   -4.9360   24.9020 C   0  0  0  0  0  0  0  0  0  0  0  0
  -21.9170   -4.3090   23.7810 C   0  0  0  0  0  3  0  0  0  0  0  0
  -22.1360   -5.0430   22.6030 C   0  0  0  0  0  0  0  0  0  0  0  0
  -22.6690   -4.4290   21.5190 F   0  0  0  0  0  0  0  0  0  0  0  0
  -21.1280   -4.2270   26.0340 F   0  0  0  0  0  0  0  0  0  0  0  0
  -23.1090  -13.7070   21.1510 C   0  0  0  0  0  0  0  0  0  0  0  0
  -22.4250  -13.0000   22.0420 N   0  0  0  0  0  0  0  0  0  0  0  0
  -22.6550  -14.7480   20.6790 O   0  0  0  0  0  0  0  0  0  0  0  0
  -22.8080  -12.1580   22.4450 H   0  0  0  0  0  0  0  0  0  0  0  0
  -21.5070  -13.3100   22.3290 H   0  0  0  0  0  0  0  0  0  0  0  0
  -25.7140  -15.3620   20.2380 N   0  0  0  0  0  0  0  0  0  0  0  0
  -24.9740  -16.0270   20.4310 H   0  0  0  0  0  0  0  0  0  0  0  0
  -26.5630  -15.8020   19.9030 H   0  0  0  0  0  0  0  0  0  0  0  0
  1  3  2  0
  1  5  1  0
  2  4  1  0
  3  6  1  0
  5  2  2  0
  6  8  1  0
  6  4  2  0
  8  7  1  0
  9  8  1  0
 10  9  1  0
 10 11  1  0
 12 23  2  0
 13 11  1  0
 13 18  1  0
 14 22  1  0
 14 24  1  0
 15 21  1  0
 15 17  1  0
 16 22  1  0
 17 18  2  0
 17 16  1  0
 19 13  2  0
 20 19  1  0
 20 15  2  0
 21 14  1  0
 22 12  1  0
 24 26  2  0
 25 24  1  0
 27 25  1  0
 28 37  2  0
 28 33  1  0
 29 25  1  0
 29 33  1  0
 30 29  1  0
 31 32  1  0
 31 30  1  0
 32 28  1  0
 33 34  2  0
 34 35  1  0
 36 35  2  0
 37 36  1  0
 38 12  1  0
 38 43  1  0
 38 39  1  0
 39 42  1  1
 39 40  1  0
 41 39  1  0
 43 46  1  0
 44 48  1  0
 44 43  1  0
 45 44  2  0
 48 47  1  0
 50 48  1  0
 50 51  1  0
 50 49  1  0
 52  5  1  0
 52 62  1  0
 53 62  1  0
 54 59  1  0
 55 56  1  0
 55 54  1  0
 57 56  1  0
 57 66  1  0
 57 58  1  0
 59 53  1  0
 59 58  1  0
 60 53  2  0
 62 61  1  0
 63 64  2  0
 64 83  1  0
 65 64  1  0
 65 68  1  0
 66 67  1  0
 66 63  1  0
 67 65  2  0
 68 69  1  0
 69 70  2  0
 71 74  1  0
 71 70  1  0
 72 71  2  0
 73 72  1  0
 73 68  2  0
 74 75  1  0
 75 80  2  0
 75 76  1  0
 76 77  2  0
 77 78  1  0
 78 82  1  0
 79 78  2  0
 80 79  1  0
 81 80  1  0
 83 84  1  0
 84 87  1  0
 84 86  1  0
 85 83  2  0
 88 63  1  0
 88 89  1  0
 90 88  1  0
M  ISO  4  10 101  11 101  53 100  62 100
M  END
>  <TORSDO>  (61) 
F 20

>  <SCORE>  (61) 
-13.269

>  <name>  (61) 
60

>  <ligand_id>  (61) 
60

>  <original_smiles>  (61) 
[H]c1c([H])c([H])c2c(c1[H])C([H])([H])C([H])([H])C([H])([H])C2([H])N([H])C(=O)C1([H])N(C(=O)C([H])(N([H])C(=O)C([H])(N([H])C([H])([H])[H])C([H])([H])[H])C(C([H])([H])[H])(C([H])([H])[H])C([H])([H])[H])C([H])([H])c2c([H])c(OC([H])([H])C([H])([H])N(c3c([H])c([H])c(C([H])([H])N(C(=O)N4C([H])([H])C([H])([H])C([H])([H])C([H])(n5nc(-c6c([H])c([H])c(Oc7c([H])c([H])c(F)c([H])c7F)c([H])c6[H])c(C(=O)N([H])[H])c5N([H])[H])C4([H])[H])C([H])([H])[H])c([H])c3[H])C([H])([H])[H])c([H])c([H])c2C1([H])[H]

>  <smiles>  (61) 
[H]c1c([H])c([H])c2c(c1[H])C([H])([H])C([H])([H])C([H])([H])C2([H])N([H])C(=O)C1([H])N(C(=O)C([H])(N([H])C(=O)C([H])(N([H])C([H])([H])[H])C([H])([H])[H])C(C([H])([H])[H])(C([H])([H])[H])C([H])([H])[H])C([H])([H])c2c([H])c(OC([H])([H])C([H])([H])N(c3c([H])c([H])c(C([H])([H])N(C(=O)N4C([H])([H])C([H])([H])C([H])([H])C([H])(n5nc(-c6c([H])c([H])c(Oc7c([H])c([H])c(F)c([H])c7F)c([H])c6[H])c(C(=O)N([H])[H])c5N([H])[H])C4([H])[H])C([H])([H])[H])c([H])c3[H])C([H])([H])[H])c([H])c([H])c2C1([H])[H]

$$$$
61:0:0
     RDKit          3D

 92102  0  0  1  0  0  0  0  0999 V2000
  -30.4910  -15.2620   20.4160 C   0  0  0  0  0  0  0  0  0  0  0  0
  -30.4800  -12.8190   19.6160 C   0  0  0  0  0  2  0  0  0  0  0  0
  -29.5830  -12.5650   18.3760 C   0  0  0  0  0  2  0  0  0  0  0  0
  -28.0870  -12.4510   18.7590 C   0  0  0  0  0  2  0  0  0  0  0  0
  -27.6320  -13.4060   19.9020 C   0  0  0  0  0  3  0  0  0  0  0  0
  -28.6760  -13.5200   21.0300 C   0  0  0  0  0  2  0  0  0  0  0  0
  -29.9270  -13.9680   20.3980 N   0  0  0  0  0  0  0  0  0  0  0  0
  -31.7310  -15.2830   20.4180 O   0  0  0  0  0  0  0  0  0  0  0  0
  -29.5160  -19.2440   20.5760 C   0  0  0  0  0  3  0  0  0  0  0  0
  -28.7750  -20.6420   18.6930 C   0  0  0  0  0  3  0  0  0  0  0  0
  -29.1200  -18.2380   18.4360 C   0  0  0  0  0  0  0  0  0  0  0  0
  -29.1440  -20.6370   20.0500 C   0  0  0  0  0  0  0  0  0  0  0  0
  -29.5360  -17.9610   19.7560 C   0  0  0  0  0  0  0  0  0  0  0  0
  -28.7590  -19.4880   17.9110 C   0  0  0  0  0  0  0  0  0  0  0  0
  -29.0240  -17.0530   17.5590 C   0  0  0  0  0  2  0  0  0  0  0  0
  -29.6090  -15.9450   18.3900 C   0  0  0  0  0  2  0  0  0  0  0  0
  -29.7590  -16.3720   19.8030 N   0  0  0  0  0  0  0  0  0  0  0  0
  -28.3630  -19.5780   16.6180 F   0  0  0  0  0  0  0  0  0  0  0  0
  -25.2490  -13.9950   20.5990 C   0  0  0  0  0  0  0  0  0  0  0  0
  -24.1760  -13.2240   20.9460 C   0  0  0  0  0  0  0  0  0  0  0  0
  -24.6410  -11.8730   20.9350 C   0  0  0  0  0  0  0  0  0  0  0  0
  -26.2950  -13.1110   20.3920 N   0  0  0  0  0  0  0  0  0  0  0  0
  -25.9390  -11.8310   20.6620 N   0  0  0  0  0  0  0  0  0  0  0  0
  -23.9120  -10.6120   21.1090 C   0  0  0  0  0  0  0  0  0  0  0  0
  -24.3320   -9.6400   22.0430 C   0  0  0  0  0  3  0  0  0  0  0  0
  -23.6010   -8.4450   22.2090 C   0  0  0  0  0  3  0  0  0  0  0  0
  -22.4380   -8.2120   21.4370 C   0  0  0  0  0  0  0  0  0  0  0  0
  -22.0380   -9.1720   20.4910 C   0  0  0  0  0  3  0  0  0  0  0  0
  -22.7710  -10.3590   20.3230 C   0  0  0  0  0  3  0  0  0  0  0  0
  -21.6790   -7.0710   21.5110 O   0  0  0  0  0  0  0  0  0  0  0  0
  -21.6190   -6.3200   22.6570 C   0  0  0  0  0  0  0  0  0  0  0  0
  -21.1780   -6.8650   23.8830 C   0  0  0  0  0  3  0  0  0  0  0  0
  -21.0700   -6.0400   25.0200 C   0  0  0  0  0  3  0  0  0  0  0  0
  -21.3890   -4.6730   24.9320 C   0  0  0  0  0  0  0  0  0  0  0  0
  -21.8250   -4.1270   23.7110 C   0  0  0  0  0  3  0  0  0  0  0  0
  -21.9360   -4.9490   22.5760 C   0  0  0  0  0  0  0  0  0  0  0  0
  -22.3360   -4.4150   21.3970 F   0  0  0  0  0  0  0  0  0  0  0  0
  -21.2760   -3.8790   26.0220 F   0  0  0  0  0  0  0  0  0  0  0  0
  -22.7730  -13.7060   21.1720 C   0  0  0  0  0  0  0  0  0  0  0  0
  -22.0200  -13.0200   22.0240 N   0  0  0  0  0  0  0  0  0  0  0  0
  -22.3530  -14.7260   20.6280 O   0  0  0  0  0  0  0  0  0  0  0  0
  -22.3750  -12.1990   22.4910 H   0  0  0  0  0  0  0  0  0  0  0  0
  -21.0770  -13.3270   22.2170 H   0  0  0  0  0  0  0  0  0  0  0  0
  -25.4120  -15.3650   20.4110 N   0  0  0  0  0  0  0  0  0  0  0  0
  -24.6260  -16.0040   20.4600 H   0  0  0  0  0  0  0  0  0  0  0  0
  -26.2720  -15.8180   20.1270 H   0  0  0  0  0  0  0  0  0  0  0  0
  -27.9710  -23.9180   21.8840 C   0  0  0  0  0  2  0  0  0  0  0  0
  -28.0760  -22.3420   21.7030 C   0  0  0  0  0  2  0  0  0  0  0  0
  -29.1410  -23.4180   19.9420 C   0  0  0  0  0  2  0  0  0  0  0  0
  -28.1220  -24.6080   20.5050 C   0  0  0  0  0  3  0  0  0  0  0  0
  -29.0530  -22.0260   20.6500 N   0  0  0  0  0  0  0  0  0  0  0  0
  -28.3260  -26.1920   20.4970 O   0  0  0  0  0  0  0  0  0  0  0  0
  -24.6540  -32.0250   23.2980 C   0  0  0  0  0  0  0  0  0  0  0  0
  -27.2700  -27.1970   20.4120 C   0  0  0  0  0  0  0  0  0  0  0  0
  -23.4830  -30.6000   21.6630 C   0  0  0  0  0  3  0  0  0  0  0  0
  -24.9550  -28.9920   20.2920 C   0  0  0  0  0  0  0  0  0  0  0  0
  -26.0430  -30.8440   21.5460 C   0  0  0  0  0  2  0  0  0  0  0  0
  -26.1250  -29.4330   20.9240 C   0  0  0  0  0  0  0  0  0  0  0  0
  -27.2820  -28.5530   20.9600 C   0  0  0  0  0  3  0  0  0  0  0  0
  -26.0750  -26.8790   19.7280 C   0  0  0  0  0  3  0  0  0  0  0  0
  -24.9490  -27.7330   19.6750 C   0  0  0  0  0  3  0  0  0  0  0  0
  -23.7320  -29.9000   20.3000 C   0  0  0  0  0  2  0  0  0  0  0  0
  -24.7460  -31.1810   22.2240 N   0  0  0  0  0  0  0  0  0  0  0  0
  -23.5590  -32.3220   23.7990 O   0  0  0  0  0  0  0  0  0  0  0  0
  -22.7830  -29.6130   22.6320 C   0  0  0  0  0  0  0  0  0  0  0  0
  -21.4570  -29.4420   22.4870 N   0  0  0  0  0  0  0  0  0  0  0  0
  -23.4380  -29.0020   23.4810 O   0  0  0  0  0  0  0  0  0  0  0  0
  -20.9840  -29.9820   21.7750 H   0  0  0  0  0  0  0  0  0  0  0  0
  -18.0660  -28.2570   22.9630 C   0  0  0  0  0  0  0  0  0  0  0  0
  -20.6220  -28.5180   23.2600 C   0  0  0  0  0  3  0  0  0  0  0  0
  -20.7280  -27.0780   22.7050 C   0  0  0  0  0  2  0  0  0  0  0  0
  -19.6390  -26.7450   21.6810 C   0  0  0  0  0  2  0  0  0  0  0  0
  -18.2490  -26.9000   22.3030 C   0  0  0  0  0  2  0  0  0  0  0  0
  -19.1800  -29.0230   23.3970 C   0  0  0  0  0  0  0  0  0  0  0  0
  -18.9540  -30.2930   23.9710 C   0  0  0  0  0  3  0  0  0  0  0  0
  -17.6470  -30.7970   24.1150 C   0  0  0  0  0  3  0  0  0  0  0  0
  -16.5480  -30.0280   23.6960 C   0  0  0  0  0  3  0  0  0  0  0  0
  -16.7580  -28.7590   23.1260 C   0  0  0  0  0  3  0  0  0  0  0  0
  -25.9210  -32.6730   23.9360 C   0  0  0  0  0  3  0  0  0  0  0  0
  -25.5990  -34.0760   24.2480 N   0  0  0  0  0  0  0  0  0  0  0  0
  -25.9200  -35.1250   23.4800 C   0  0  0  0  0  0  0  0  0  0  0  0
  -26.5870  -35.0150   22.4470 O   0  0  0  0  0  0  0  0  0  0  0  0
  -25.0080  -34.2340   25.0520 H   0  0  0  0  0  0  0  0  0  0  0  0
  -24.1690  -36.9000   23.1340 C   0  0  0  0  0  1  0  0  0  0  0  0
  -25.4290  -36.5170   23.9270 C   0  0  0  0  0  3  0  0  0  0  0  0
  -27.5650  -37.4420   24.7080 C   0  0  0  0  0  1  0  0  0  0  0  0
  -26.4480  -37.5780   23.7780 N   0  0  0  0  0  0  0  0  0  0  0  0
  -26.0330  -38.4960   23.9140 H   0  0  0  0  0  0  0  0  0  0  0  0
  -26.4120  -31.9230   25.2350 C   0  0  1  0  0  0  0  0  0  0  0  0
  -25.2930  -31.6870   26.2770 C   0  0  0  0  0  1  0  0  0  0  0  0
  -27.0210  -30.5470   24.8800 C   0  0  0  0  0  1  0  0  0  0  0  0
  -27.5330  -32.7400   25.9200 C   0  0  0  0  0  1  0  0  0  0  0  0
  1  8  2  0
  2  7  1  0
  3  4  1  0
  3  2  1  0
  5  4  1  0
  5 22  1  0
  5  6  1  0
  7  1  1  0
  7  6  1  0
 10 12  2  0
 11 13  1  0
 12  9  1  0
 12 51  1  0
 13 17  1  0
 13  9  2  0
 14 11  2  0
 14 10  1  0
 15 16  1  0
 15 11  1  0
 16 17  1  0
 17  1  1  0
 18 14  1  0
 19 20  2  0
 20 39  1  0
 21 20  1  0
 21 24  1  0
 22 19  1  0
 22 23  1  0
 23 21  2  0
 24 25  1  0
 25 26  2  0
 27 30  1  0
 27 26  1  0
 28 27  2  0
 29 28  1  0
 29 24  2  0
 30 31  1  0
 31 32  1  0
 32 33  2  0
 34 33  1  0
 34 38  1  0
 35 34  2  0
 36 31  2  0
 36 35  1  0
 37 36  1  0
 39 40  1  0
 40 43  1  0
 40 42  1  0
 41 39  2  0
 44 45  1  0
 44 19  1  0
 46 44  1  0
 48 47  1  0
 49 50  1  0
 49 51  1  0
 50 52  1  0
 50 47  1  0
 51 48  1  0
 53 64  2  0
 54 52  1  0
 54 59  1  0
 55 63  1  0
 55 65  1  0
 56 62  1  0
 56 58  1  0
 57 63  1  0
 58 59  2  0
 58 57  1  0
 60 54  2  0
 61 60  1  0
 61 56  2  0
 62 55  1  0
 63 53  1  0
 65 67  2  0
 66 65  1  0
 68 66  1  0
 69 78  2  0
 69 74  1  0
 70 66  1  0
 70 74  1  0
 71 70  1  0
 72 73  1  0
 72 71  1  0
 73 69  1  0
 74 75  2  0
 75 76  1  0
 77 76  2  0
 78 77  1  0
 79 53  1  0
 79 80  1  0
 79 89  1  0
 80 83  1  0
 81 85  1  0
 81 80  1  0
 82 81  2  0
 85 84  1  0
 87 88  1  0
 87 85  1  0
 87 86  1  0
 89 92  1  1
 89 90  1  0
 91 89  1  0
M  ISO  4   1 100  17 100  50 101  52 101
M  END
>  <TORSDO>  (62) 
F 16

>  <SCORE>  (62) 
-13.887

>  <name>  (62) 
61

>  <ligand_id>  (62) 
61

>  <original_smiles>  (62) 
[H]c1c([H])c([H])c2c(c1[H])C([H])([H])C([H])([H])C([H])([H])C2([H])N([H])C(=O)C1([H])N(C(=O)C([H])(N([H])C(=O)C([H])(N([H])C([H])([H])[H])C([H])([H])[H])C(C([H])([H])[H])(C([H])([H])[H])C([H])([H])[H])C([H])([H])c2c([H])c(OC3([H])C([H])([H])N(c4c([H])c(F)c5c(c4[H])N(C(=O)N4C([H])([H])C([H])([H])C([H])([H])C([H])(n6nc(-c7c([H])c([H])c(Oc8c([H])c([H])c(F)c([H])c8F)c([H])c7[H])c(C(=O)N([H])[H])c6N([H])[H])C4([H])[H])C([H])([H])C5([H])[H])C([H])([H])C3([H])[H])c([H])c([H])c2C1([H])[H]

>  <smiles>  (62) 
[H]c1c([H])c([H])c2c(c1[H])C([H])([H])C([H])([H])C([H])([H])C2([H])N([H])C(=O)C1([H])N(C(=O)C([H])(N([H])C(=O)C([H])(N([H])C([H])([H])[H])C([H])([H])[H])C(C([H])([H])[H])(C([H])([H])[H])C([H])([H])[H])C([H])([H])c2c([H])c(OC3([H])C([H])([H])N(c4c([H])c(F)c5c(c4[H])N(C(=O)N4C([H])([H])C([H])([H])C([H])([H])C([H])(n6nc(-c7c([H])c([H])c(Oc8c([H])c([H])c(F)c([H])c8F)c([H])c7[H])c(C(=O)N([H])[H])c6N([H])[H])C4([H])[H])C([H])([H])C5([H])[H])C([H])([H])C3([H])[H])c([H])c([H])c2C1([H])[H]

$$$$
62:0:0
     RDKit          3D

 96106  0  0  1  0  0  0  0  0999 V2000
  -27.4860  -21.3040   20.8580 C   0  0  0  0  0  3  0  0  0  0  0  0
  -27.7560  -20.0100   20.3750 C   0  0  0  0  0  3  0  0  0  0  0  0
  -29.7250  -21.4180   21.7700 C   0  0  0  0  0  3  0  0  0  0  0  0
  -28.4970  -22.0490   21.5030 C   0  0  0  0  0  0  0  0  0  0  0  0
  -29.0380  -19.4080   20.5180 C   0  0  0  0  0  0  0  0  0  0  0  0
  -29.9890  -20.1150   21.3110 C   0  0  0  0  0  0  0  0  0  0  0  0
  -31.1830  -19.5870   21.6590 F   0  0  0  0  0  0  0  0  0  0  0  0
  -29.8960  -17.5080   17.6600 C   0  0  0  0  0  2  0  0  0  0  0  0
  -31.1130  -17.5350   18.5780 C   0  0  0  0  0  2  0  0  0  0  0  0
  -28.7280  -17.8830   18.5710 C   0  0  0  0  0  2  0  0  0  0  0  0
  -30.5560  -17.3790   20.0000 C   0  0  0  0  0  3  0  0  0  0  0  0
  -29.3080  -18.1560   19.8960 N   0  0  0  0  0  0  0  0  0  0  0  0
  -30.1920  -15.9510   20.5380 C   0  0  0  0  0  2  0  0  0  0  0  0
  -31.0170  -14.7060   20.1530 C   0  0  0  0  0  0  0  0  0  0  0  0
  -30.7200  -12.4690   19.1100 C   0  0  0  0  0  2  0  0  0  0  0  0
  -29.7670  -12.6900   17.9150 C   0  0  0  0  0  2  0  0  0  0  0  0
  -28.2880  -12.5910   18.3570 C   0  0  0  0  0  2  0  0  0  0  0  0
  -27.9760  -13.4440   19.6090 C   0  0  0  0  0  3  0  0  0  0  0  0
  -29.0600  -13.2460   20.7040 C   0  0  0  0  0  2  0  0  0  0  0  0
  -30.3830  -13.5000   20.1070 N   0  0  0  0  0  0  0  0  0  0  0  0
  -32.1740  -14.8450   19.7580 O   0  0  0  0  0  0  0  0  0  0  0  0
  -25.6000  -14.1130   20.3590 C   0  0  0  0  0  0  0  0  0  0  0  0
  -24.5200  -13.3670   20.7330 C   0  0  0  0  0  0  0  0  0  0  0  0
  -24.9540  -12.0060   20.6990 C   0  0  0  0  0  0  0  0  0  0  0  0
  -26.6280  -13.2080   20.1170 N   0  0  0  0  0  0  0  0  0  0  0  0
  -26.2410  -11.9340   20.3840 N   0  0  0  0  0  0  0  0  0  0  0  0
  -24.1990  -10.7600   20.8900 C   0  0  0  0  0  0  0  0  0  0  0  0
  -24.5850   -9.8060   21.8580 C   0  0  0  0  0  3  0  0  0  0  0  0
  -23.8350   -8.6250   22.0370 C   0  0  0  0  0  3  0  0  0  0  0  0
  -22.6840   -8.3880   21.2500 C   0  0  0  0  0  0  0  0  0  0  0  0
  -22.3150   -9.3290   20.2720 C   0  0  0  0  0  3  0  0  0  0  0  0
  -23.0650  -10.5030   20.0910 C   0  0  0  0  0  3  0  0  0  0  0  0
  -21.9110   -7.2570   21.3380 O   0  0  0  0  0  0  0  0  0  0  0  0
  -21.7620   -6.5750   22.5210 C   0  0  0  0  0  0  0  0  0  0  0  0
  -21.2430   -7.1970   23.6770 C   0  0  0  0  0  3  0  0  0  0  0  0
  -21.0400   -6.4420   24.8510 C   0  0  0  0  0  3  0  0  0  0  0  0
  -21.3510   -5.0700   24.8680 C   0  0  0  0  0  0  0  0  0  0  0  0
  -21.8630   -4.4480   23.7170 C   0  0  0  0  0  3  0  0  0  0  0  0
  -22.0670   -5.2000   22.5460 C   0  0  0  0  0  0  0  0  0  0  0  0
  -22.5420   -4.5930   21.4320 F   0  0  0  0  0  0  0  0  0  0  0  0
  -21.1510   -4.3430   25.9920 F   0  0  0  0  0  0  0  0  0  0  0  0
  -23.1320  -13.8690   21.0200 C   0  0  0  0  0  0  0  0  0  0  0  0
  -22.4070  -13.2000   21.9070 N   0  0  0  0  0  0  0  0  0  0  0  0
  -22.7050  -14.8960   20.4940 O   0  0  0  0  0  0  0  0  0  0  0  0
  -22.7620  -12.3670   22.3530 H   0  0  0  0  0  0  0  0  0  0  0  0
  -21.4810  -13.5240   22.1460 H   0  0  0  0  0  0  0  0  0  0  0  0
  -25.7890  -15.4810   20.1770 N   0  0  0  0  0  0  0  0  0  0  0  0
  -25.0250  -16.1370   20.2780 H   0  0  0  0  0  0  0  0  0  0  0  0
  -26.6530  -15.9150   19.8830 H   0  0  0  0  0  0  0  0  0  0  0  0
  -28.2600  -23.4750   22.0040 C   0  0  0  0  0  2  0  0  0  0  0  0
  -29.2620  -24.6110   19.8900 C   0  0  0  0  0  2  0  0  0  0  0  0
  -27.2310  -24.6170   20.0310 C   0  0  0  0  0  2  0  0  0  0  0  0
  -28.1840  -25.4390   19.1430 C   0  0  0  0  0  3  0  0  0  0  0  0
  -28.3060  -24.5730   21.0000 N   0  0  1  0  0  4  0  0  0  0  0  0
  -28.3460  -25.4640   21.4720 H   0  0  0  0  0  0  0  0  0  0  0  0
  -28.2670  -26.8640   19.3960 O   0  0  0  0  0  0  0  0  0  0  0  0
  -24.5670  -31.7100   23.0470 C   0  0  0  0  0  0  0  0  0  0  0  0
  -27.0960  -27.6060   19.4340 C   0  0  0  0  0  0  0  0  0  0  0  0
  -23.2910  -30.4340   21.3580 C   0  0  0  0  0  3  0  0  0  0  0  0
  -24.6860  -29.0730   19.7120 C   0  0  0  0  0  0  0  0  0  0  0  0
  -25.8010  -30.8530   21.0570 C   0  0  0  0  0  2  0  0  0  0  0  0
  -25.8690  -29.5470   20.2920 C   0  0  0  0  0  0  0  0  0  0  0  0
  -27.0710  -28.8170   20.1640 C   0  0  0  0  0  3  0  0  0  0  0  0
  -25.9060  -27.1910   18.7910 C   0  0  0  0  0  3  0  0  0  0  0  0
  -24.6980  -27.8900   18.9610 C   0  0  0  0  0  3  0  0  0  0  0  0
  -23.4320  -29.8910   19.9120 C   0  0  0  0  0  2  0  0  0  0  0  0
  -24.5750  -31.0110   21.8770 N   0  0  0  0  0  0  0  0  0  0  0  0
  -23.5130  -31.9160   23.6660 O   0  0  0  0  0  0  0  0  0  0  0  0
  -22.7130  -29.3170   22.2560 C   0  0  0  0  0  0  0  0  0  0  0  0
  -21.3900  -29.1100   22.1710 N   0  0  0  0  0  0  0  0  0  0  0  0
  -23.4480  -28.6460   22.9840 O   0  0  0  0  0  0  0  0  0  0  0  0
  -20.8520  -29.7140   21.5650 H   0  0  0  0  0  0  0  0  0  0  0  0
  -18.0860  -27.7340   22.6570 C   0  0  0  0  0  0  0  0  0  0  0  0
  -20.6350  -28.0820   22.8880 C   0  0  0  0  0  3  0  0  0  0  0  0
  -20.7840  -26.7010   22.2080 C   0  0  0  0  0  2  0  0  0  0  0  0
  -19.6640  -26.3810   21.2110 C   0  0  0  0  0  2  0  0  0  0  0  0
  -18.2930  -26.4390   21.8910 C   0  0  0  0  0  2  0  0  0  0  0  0
  -19.1830  -28.5110   23.1100 C   0  0  0  0  0  0  0  0  0  0  0  0
  -18.9270  -29.7310   23.7800 C   0  0  0  0  0  3  0  0  0  0  0  0
  -17.6120  -30.1690   24.0060 C   0  0  0  0  0  3  0  0  0  0  0  0
  -16.5260  -29.3830   23.5720 C   0  0  0  0  0  3  0  0  0  0  0  0
  -16.7650  -28.1710   22.9070 C   0  0  0  0  0  3  0  0  0  0  0  0
  -25.8780  -32.3120   23.6460 C   0  0  0  0  0  3  0  0  0  0  0  0
  -26.4660  -31.4570   24.8350 C   0  0  1  0  0  0  0  0  0  0  0  0
  -25.4330  -31.1370   25.9410 C   0  0  0  0  0  1  0  0  0  0  0  0
  -27.0330  -30.1160   24.3150 C   0  0  0  0  0  1  0  0  0  0  0  0
  -27.6480  -32.2140   25.4870 C   0  0  0  0  0  1  0  0  0  0  0  0
  -25.5750  -33.6800   24.0860 N   0  0  0  0  0  0  0  0  0  0  0  0
  -25.8760  -34.7870   23.3940 C   0  0  0  0  0  0  0  0  0  0  0  0
  -26.5110  -34.7620   22.3360 O   0  0  0  0  0  0  0  0  0  0  0  0
  -25.0090  -33.7720   24.9180 H   0  0  0  0  0  0  0  0  0  0  0  0
  -24.1270  -36.5820   23.2290 C   0  0  0  0  0  1  0  0  0  0  0  0
  -25.3990  -36.1350   23.9660 C   0  0  0  0  0  3  0  0  0  0  0  0
  -27.5540  -36.9740   24.7850 C   0  0  0  0  0  1  0  0  0  0  0  0
  -26.4200  -37.2000   23.8910 N   0  0  0  0  0  0  0  0  0  0  0  0
  -26.0150  -38.1050   24.1180 H   0  0  0  0  0  0  0  0  0  0  0  0
  1  4  1  0
  2  5  1  0
  2  1  2  0
  4  3  2  0
  4 50  1  0
  5  6  2  0
  6  7  1  0
  6  3  1  0
  8 10  1  0
  8  9  1  0
  9 11  1  0
 10 12  1  0
 11 13  1  0
 12 11  1  0
 12  5  1  0
 14 13  1  0
 15 20  1  0
 16 17  1  0
 16 15  1  0
 18 17  1  0
 18 25  1  0
 18 19  1  0
 20 14  1  0
 20 19  1  0
 21 14  2  0
 22 23  2  0
 23 42  1  0
 24 23  1  0
 24 27  1  0
 25 22  1  0
 25 26  1  0
 26 24  2  0
 27 28  1  0
 28 29  2  0
 30 33  1  0
 30 29  1  0
 31 30  2  0
 32 31  1  0
 32 27  2  0
 33 34  1  0
 34 39  2  0
 34 35  1  0
 35 36  2  0
 36 37  1  0
 37 41  1  0
 38 37  2  0
 39 38  1  0
 40 39  1  0
 42 43  1  0
 43 46  1  0
 43 45  1  0
 44 42  2  0
 47 48  1  0
 47 22  1  0
 49 47  1  0
 51 54  1  0
 52 54  1  0
 53 56  1  0
 53 51  1  0
 53 52  1  0
 54 55  1  1
 54 50  1  0
 56 58  1  0
 57 68  2  0
 58 63  1  0
 59 67  1  0
 59 69  1  0
 60 66  1  0
 60 62  1  0
 61 67  1  0
 62 61  1  0
 63 62  2  0
 64 65  1  0
 64 58  2  0
 65 60  2  0
 66 59  1  0
 67 57  1  0
 69 71  2  0
 70 69  1  0
 72 70  1  0
 73 82  2  0
 73 78  1  0
 74 70  1  0
 74 78  1  0
 75 74  1  0
 76 77  1  0
 76 75  1  0
 77 73  1  0
 78 79  2  0
 79 80  1  0
 81 80  2  0
 82 81  1  0
 83 57  1  0
 83 88  1  0
 83 84  1  0
 84 87  1  1
 84 85  1  0
 86 84  1  0
 88 91  1  0
 89 93  1  0
 89 88  1  0
 90 89  2  0
 93 92  1  0
 95 93  1  0
 95 96  1  0
 95 94  1  0
M  ISO  4  13 100  14 100  53 101  56 101
M  END
>  <TORSDO>  (63) 
F 20

>  <SCORE>  (63) 
-12.726

>  <name>  (63) 
62

>  <ligand_id>  (63) 
62

>  <original_smiles>  (63) 
[H]c1c([H])c([H])c2c(c1[H])C([H])([H])C([H])([H])C([H])([H])C2([H])N([H])C(=O)C1([H])N(C(=O)C([H])(N([H])C(=O)C([H])(N([H])C([H])([H])[H])C([H])([H])[H])C(C([H])([H])[H])(C([H])([H])[H])C([H])([H])[H])C([H])([H])c2c([H])c(OC3([H])C([H])([H])[N+]([H])(C([H])([H])c4c([H])c([H])c(N5C([H])([H])C([H])([H])C([H])([H])C5([H])C([H])([H])C(=O)N5C([H])([H])C([H])([H])C([H])([H])C([H])(n6nc(-c7c([H])c([H])c(Oc8c([H])c([H])c(F)c([H])c8F)c([H])c7[H])c(C(=O)N([H])[H])c6N([H])[H])C5([H])[H])c(F)c4[H])C3([H])[H])c([H])c([H])c2C1([H])[H]

>  <smiles>  (63) 
[H]c1c([H])c([H])c2c(c1[H])C([H])([H])C([H])([H])C([H])([H])C2([H])N([H])C(=O)C1([H])N(C(=O)C([H])(N([H])C(=O)C([H])(N([H])C([H])([H])[H])C([H])([H])[H])C(C([H])([H])[H])(C([H])([H])[H])C([H])([H])[H])C([H])([H])c2c([H])c(OC3([H])C([H])([H])[N+]([H])(C([H])([H])c4c([H])c([H])c(N5C([H])([H])C([H])([H])C([H])([H])C5([H])C([H])([H])C(=O)N5C([H])([H])C([H])([H])C([H])([H])C([H])(n6nc(-c7c([H])c([H])c(Oc8c([H])c([H])c(F)c([H])c8F)c([H])c7[H])c(C(=O)N([H])[H])c6N([H])[H])C5([H])[H])c(F)c4[H])C3([H])[H])c([H])c([H])c2C1([H])[H]

$$$$
63:0:0
     RDKit          3D

 90 98  0  0  1  0  0  0  0  0999 V2000
  -30.8550  -19.7640   19.8250 C   0  0  0  0  0  3  0  0  0  0  0  0
  -30.3200  -21.0850   19.8360 C   0  0  0  0  0  3  0  0  0  0  0  0
  -28.6970  -18.8320   20.3210 C   0  0  0  0  0  3  0  0  0  0  0  0
  -30.0720  -18.6010   20.0720 C   0  0  0  0  0  0  0  0  0  0  0  0
  -28.9510  -21.3210   20.1080 C   0  0  0  0  0  0  0  0  0  0  0  0
  -28.1570  -20.1560   20.3400 C   0  0  0  0  0  0  0  0  0  0  0  0
  -26.8380  -20.3100   20.6030 F   0  0  0  0  0  0  0  0  0  0  0  0
  -30.7990  -17.2060   20.1360 C   0  0  0  0  0  2  0  0  0  0  0  0
  -30.7840  -14.6930   20.0130 C   0  0  0  0  0  0  0  0  0  0  0  0
  -30.4230  -12.4670   18.9840 C   0  0  0  0  0  2  0  0  0  0  0  0
  -29.4240  -12.5980   17.8160 C   0  0  0  0  0  2  0  0  0  0  0  0
  -27.9800  -12.4480   18.3300 C   0  0  0  0  0  2  0  0  0  0  0  0
  -27.6940  -13.3260   19.5790 C   0  0  0  0  0  3  0  0  0  0  0  0
  -28.8140  -13.2110   20.6370 C   0  0  0  0  0  2  0  0  0  0  0  0
  -30.0840  -13.5170   19.9680 N   0  0  0  0  0  0  0  0  0  0  0  0
  -31.9460  -14.7410   19.6030 O   0  0  0  0  0  0  0  0  0  0  0  0
  -30.1300  -15.8660   20.3030 N   0  0  0  0  0  0  0  0  0  0  0  0
  -29.1620  -15.8320   20.5800 H   0  0  0  0  0  0  0  0  0  0  0  0
  -25.3610  -13.9260   20.4670 C   0  0  0  0  0  0  0  0  0  0  0  0
  -24.3100  -13.1560   20.8810 C   0  0  0  0  0  0  0  0  0  0  0  0
  -24.7530  -11.8010   20.7880 C   0  0  0  0  0  0  0  0  0  0  0  0
  -26.3770  -13.0420   20.1450 N   0  0  0  0  0  0  0  0  0  0  0  0
  -26.0210  -11.7560   20.3990 N   0  0  0  0  0  0  0  0  0  0  0  0
  -24.0220  -10.5420   20.9880 C   0  0  0  0  0  0  0  0  0  0  0  0
  -24.4740   -9.5620   21.9010 C   0  0  0  0  0  3  0  0  0  0  0  0
  -23.7430   -8.3700   22.0900 C   0  0  0  0  0  3  0  0  0  0  0  0
  -22.5470   -8.1470   21.3680 C   0  0  0  0  0  0  0  0  0  0  0  0
  -22.1130   -9.1160   20.4440 C   0  0  0  0  0  3  0  0  0  0  0  0
  -22.8450  -10.3000   20.2530 C   0  0  0  0  0  3  0  0  0  0  0  0
  -21.7850   -7.0080   21.4680 O   0  0  0  0  0  0  0  0  0  0  0  0
  -21.7380   -6.2740   22.6260 C   0  0  0  0  0  0  0  0  0  0  0  0
  -21.2930   -6.8310   23.8440 C   0  0  0  0  0  3  0  0  0  0  0  0
  -21.1950   -6.0220   24.9940 C   0  0  0  0  0  3  0  0  0  0  0  0
  -21.5300   -4.6560   24.9270 C   0  0  0  0  0  0  0  0  0  0  0  0
  -21.9680   -4.0990   23.7130 C   0  0  0  0  0  3  0  0  0  0  0  0
  -22.0680   -4.9050   22.5650 C   0  0  0  0  0  0  0  0  0  0  0  0
  -22.4700   -4.3570   21.3930 F   0  0  0  0  0  0  0  0  0  0  0  0
  -21.4280   -3.8780   26.0290 F   0  0  0  0  0  0  0  0  0  0  0  0
  -22.9380  -13.6420   21.2480 C   0  0  0  0  0  0  0  0  0  0  0  0
  -22.2550  -12.9330   22.1400 N   0  0  0  0  0  0  0  0  0  0  0  0
  -22.4830  -14.6850   20.7800 O   0  0  0  0  0  0  0  0  0  0  0  0
  -22.6380  -12.0890   22.5410 H   0  0  0  0  0  0  0  0  0  0  0  0
  -21.3360  -13.2410   22.4280 H   0  0  0  0  0  0  0  0  0  0  0  0
  -25.5330  -15.3000   20.3130 N   0  0  0  0  0  0  0  0  0  0  0  0
  -24.7780  -15.9570   20.4800 H   0  0  0  0  0  0  0  0  0  0  0  0
  -26.3550  -15.7350   19.9180 H   0  0  0  0  0  0  0  0  0  0  0  0
  -28.3390  -22.5910   20.1810 O   0  0  0  0  0  0  0  0  0  0  0  0
  -29.0060  -23.8620   19.8730 C   0  0  0  0  0  2  0  0  0  0  0  0
  -28.1420  -25.1160   20.3420 C   0  0  0  0  0  2  0  0  0  0  0  0
  -28.3800  -26.4890   19.8250 O   0  0  0  0  0  0  0  0  0  0  0  0
  -24.6020  -31.7140   23.0720 C   0  0  0  0  0  0  0  0  0  0  0  0
  -27.2680  -27.3410   19.8200 C   0  0  0  0  0  0  0  0  0  0  0  0
  -23.4130  -30.3650   21.3800 C   0  0  0  0  0  3  0  0  0  0  0  0
  -24.8810  -28.9070   19.8800 C   0  0  0  0  0  0  0  0  0  0  0  0
  -25.9440  -30.7380   21.1980 C   0  0  0  0  0  2  0  0  0  0  0  0
  -26.0440  -29.3900   20.4950 C   0  0  0  0  0  0  0  0  0  0  0  0
  -27.2430  -28.6190   20.4560 C   0  0  0  0  0  3  0  0  0  0  0  0
  -26.0910  -26.9210   19.1650 C   0  0  0  0  0  3  0  0  0  0  0  0
  -24.9070  -27.6770   19.2050 C   0  0  0  0  0  3  0  0  0  0  0  0
  -23.6300  -29.7540   19.9710 C   0  0  0  0  0  2  0  0  0  0  0  0
  -24.6720  -30.9530   21.9410 N   0  0  0  0  0  0  0  0  0  0  0  0
  -23.5190  -31.9500   23.6240 O   0  0  0  0  0  0  0  0  0  0  0  0
  -22.7750  -29.2960   22.2990 C   0  0  0  0  0  0  0  0  0  0  0  0
  -21.4460  -29.1270   22.1970 N   0  0  0  0  0  0  0  0  0  0  0  0
  -23.4730  -28.6260   23.0650 O   0  0  0  0  0  0  0  0  0  0  0  0
  -20.9410  -29.7210   21.5540 H   0  0  0  0  0  0  0  0  0  0  0  0
  -18.0720  -27.9520   22.7660 C   0  0  0  0  0  0  0  0  0  0  0  0
  -20.6440  -28.1500   22.9360 C   0  0  0  0  0  3  0  0  0  0  0  0
  -20.6930  -26.7610   22.2570 C   0  0  0  0  0  2  0  0  0  0  0  0
  -19.5400  -26.5290   21.2740 C   0  0  0  0  0  2  0  0  0  0  0  0
  -18.1910  -26.6520   21.9900 C   0  0  0  0  0  2  0  0  0  0  0  0
  -19.2230  -28.6630   23.1960 C   0  0  0  0  0  0  0  0  0  0  0  0
  -19.0560  -29.8840   23.8850 C   0  0  0  0  0  3  0  0  0  0  0  0
  -17.7700  -30.3950   24.1450 C   0  0  0  0  0  3  0  0  0  0  0  0
  -16.6330  -29.6790   23.7290 C   0  0  0  0  0  3  0  0  0  0  0  0
  -16.7860  -28.4590   23.0450 C   0  0  0  0  0  3  0  0  0  0  0  0
  -25.8790  -32.3400   23.7140 C   0  0  0  0  0  3  0  0  0  0  0  0
  -26.4160  -31.5240   24.9530 C   0  0  1  0  0  0  0  0  0  0  0  0
  -25.3340  -31.2250   26.0170 C   0  0  0  0  0  1  0  0  0  0  0  0
  -27.0180  -30.1750   24.5000 C   0  0  0  0  0  1  0  0  0  0  0  0
  -27.5580  -32.3090   25.6410 C   0  0  0  0  0  1  0  0  0  0  0  0
  -25.5480  -33.7170   24.1050 N   0  0  0  0  0  0  0  0  0  0  0  0
  -25.8340  -34.8060   23.3770 C   0  0  0  0  0  0  0  0  0  0  0  0
  -26.4760  -34.7560   22.3240 O   0  0  0  0  0  0  0  0  0  0  0  0
  -24.9730  -33.8280   24.9270 H   0  0  0  0  0  0  0  0  0  0  0  0
  -24.0470  -36.5620   23.1540 C   0  0  0  0  0  1  0  0  0  0  0  0
  -25.3300  -36.1650   23.9010 C   0  0  0  0  0  3  0  0  0  0  0  0
  -27.4690  -37.0840   24.6810 C   0  0  0  0  0  1  0  0  0  0  0  0
  -26.3290  -37.2480   23.7830 N   0  0  0  0  0  0  0  0  0  0  0  0
  -25.9040  -38.1520   23.9710 H   0  0  0  0  0  0  0  0  0  0  0  0
  1  2  2  0
  1  4  1  0
  2  5  1  0
  3  6  1  0
  4  8  1  0
  4  3  2  0
  5 47  1  0
  5  6  2  0
  6  7  1  0
  8 17  1  0
  9 17  1  0
 10 15  1  0
 11 12  1  0
 11 10  1  0
 13 12  1  0
 13 22  1  0
 13 14  1  0
 15  9  1  0
 15 14  1  0
 16  9  2  0
 17 18  1  0
 19 20  2  0
 20 39  1  0
 21 20  1  0
 21 24  1  0
 22 23  1  0
 22 19  1  0
 23 21  2  0
 24 25  1  0
 25 26  2  0
 27 30  1  0
 27 26  1  0
 28 27  2  0
 29 28  1  0
 29 24  2  0
 30 31  1  0
 31 32  1  0
 32 33  2  0
 34 33  1  0
 34 38  1  0
 35 34  2  0
 36 31  2  0
 36 35  1  0
 37 36  1  0
 39 40  1  0
 40 43  1  0
 40 42  1  0
 41 39  2  0
 44 19  1  0
 44 45  1  0
 46 44  1  0
 48 47  1  0
 48 49  1  0
 50 49  1  0
 51 62  2  0
 52 50  1  0
 52 57  1  0
 53 61  1  0
 53 63  1  0
 54 60  1  0
 54 56  1  0
 55 61  1  0
 56 55  1  0
 57 56  2  0
 58 59  1  0
 58 52  2  0
 59 54  2  0
 60 53  1  0
 61 51  1  0
 63 65  2  0
 64 63  1  0
 66 64  1  0
 67 76  2  0
 67 72  1  0
 68 64  1  0
 68 72  1  0
 69 68  1  0
 70 71  1  0
 70 69  1  0
 71 67  1  0
 72 73  2  0
 73 74  1  0
 75 74  2  0
 76 75  1  0
 77 51  1  0
 77 82  1  0
 77 78  1  0
 78 81  1  1
 78 79  1  0
 80 78  1  0
 82 85  1  0
 83 87  1  0
 83 82  1  0
 84 83  2  0
 87 86  1  0
 89 87  1  0
 89 90  1  0
 89 88  1  0
M  ISO  4   9 100  17 100  49 101  50 101
M  END
>  <TORSDO>  (64) 
F 20

>  <SCORE>  (64) 
-12.872

>  <name>  (64) 
63

>  <ligand_id>  (64) 
63

>  <original_smiles>  (64) 
[H]c1c([H])c([H])c2c(c1[H])C([H])([H])C([H])([H])C([H])([H])C2([H])N([H])C(=O)C1([H])N(C(=O)C([H])(N([H])C(=O)C([H])(N([H])C([H])([H])[H])C([H])([H])[H])C(C([H])([H])[H])(C([H])([H])[H])C([H])([H])[H])C([H])([H])c2c([H])c(OC([H])([H])C([H])([H])Oc3c([H])c([H])c(C([H])([H])N([H])C(=O)N4C([H])([H])C([H])([H])C([H])([H])C([H])(n5nc(-c6c([H])c([H])c(Oc7c([H])c([H])c(F)c([H])c7F)c([H])c6[H])c(C(=O)N([H])[H])c5N([H])[H])C4([H])[H])c([H])c3F)c([H])c([H])c2C1([H])[H]

>  <smiles>  (64) 
[H]c1c([H])c([H])c2c(c1[H])C([H])([H])C([H])([H])C([H])([H])C2([H])N([H])C(=O)C1([H])N(C(=O)C([H])(N([H])C(=O)C([H])(N([H])C([H])([H])[H])C([H])([H])[H])C(C([H])([H])[H])(C([H])([H])[H])C([H])([H])[H])C([H])([H])c2c([H])c(OC([H])([H])C([H])([H])Oc3c([H])c([H])c(C([H])([H])N([H])C(=O)N4C([H])([H])C([H])([H])C([H])([H])C([H])(n5nc(-c6c([H])c([H])c(Oc7c([H])c([H])c(F)c([H])c7F)c([H])c6[H])c(C(=O)N([H])[H])c5N([H])[H])C4([H])[H])c([H])c3F)c([H])c([H])c2C1([H])[H]

$$$$
64:0:0
     RDKit          3D

 93102  0  0  1  0  0  0  0  0999 V2000
  -29.2140  -22.9290   20.8970 C   0  0  0  0  0  0  0  0  0  0  0  0
  -30.4070  -24.2090   19.2620 C   0  0  0  0  0  2  0  0  0  0  0  0
  -30.8620  -22.7410   19.2950 C   0  0  0  0  0  2  0  0  0  0  0  0
  -29.4890  -24.3820   20.4740 C   0  0  0  0  0  3  0  0  0  0  0  0
  -30.0130  -22.0380   20.2590 N   0  0  0  0  0  0  0  0  0  0  0  0
  -28.3430  -22.6690   21.7340 O   0  0  0  0  0  0  0  0  0  0  0  0
  -29.7030  -18.5420   21.7790 C   0  0  0  0  0  3  0  0  0  0  0  0
  -31.4350  -18.5260   20.0870 C   0  0  0  0  0  3  0  0  0  0  0  0
  -29.4290  -19.8970   21.4860 C   0  0  0  0  0  3  0  0  0  0  0  0
  -31.1620  -19.8800   19.7980 C   0  0  0  0  0  3  0  0  0  0  0  0
  -30.7340  -17.8530   21.1080 C   0  0  0  0  0  0  0  0  0  0  0  0
  -30.1780  -20.6150   20.5140 C   0  0  0  0  0  0  0  0  0  0  0  0
  -31.1700  -16.4580   21.5600 C   0  0  0  0  0  2  0  0  0  0  0  0
  -30.9280  -14.4170   20.1410 C   0  0  0  0  0  0  0  0  0  0  0  0
  -30.4880  -12.3090   18.9240 C   0  0  0  0  0  2  0  0  0  0  0  0
  -29.5000  -12.5510   17.7660 C   0  0  0  0  0  2  0  0  0  0  0  0
  -28.0430  -12.4490   18.2590 C   0  0  0  0  0  2  0  0  0  0  0  0
  -27.7860  -13.2780   19.5460 C   0  0  0  0  0  3  0  0  0  0  0  0
  -28.8790  -13.0090   20.6020 C   0  0  0  0  0  2  0  0  0  0  0  0
  -30.1870  -13.2860   19.9820 N   0  0  0  0  0  0  0  0  0  0  0  0
  -31.9870  -14.6150   19.5370 O   0  0  0  0  0  0  0  0  0  0  0  0
  -30.4310  -15.3240   20.9960 N   0  0  0  0  0  0  0  0  0  0  0  0
  -29.5390  -15.1090   21.4130 H   0  0  0  0  0  0  0  0  0  0  0  0
  -25.4380  -13.9430   20.3660 C   0  0  0  0  0  0  0  0  0  0  0  0
  -24.3650  -13.1950   20.7690 C   0  0  0  0  0  0  0  0  0  0  0  0
  -24.7840  -11.8310   20.6990 C   0  0  0  0  0  0  0  0  0  0  0  0
  -26.4460  -13.0350   20.0780 N   0  0  0  0  0  0  0  0  0  0  0  0
  -26.0580  -11.7600   20.3340 N   0  0  0  0  0  0  0  0  0  0  0  0
  -24.0320  -10.5870   20.9040 C   0  0  0  0  0  0  0  0  0  0  0  0
  -24.4430   -9.6190   21.8470 C   0  0  0  0  0  3  0  0  0  0  0  0
  -23.6910   -8.4410   22.0370 C   0  0  0  0  0  3  0  0  0  0  0  0
  -22.5120   -8.2200   21.2850 C   0  0  0  0  0  0  0  0  0  0  0  0
  -22.1200   -9.1760   20.3310 C   0  0  0  0  0  3  0  0  0  0  0  0
  -22.8740  -10.3470   20.1380 C   0  0  0  0  0  3  0  0  0  0  0  0
  -21.7330   -7.0930   21.3830 O   0  0  0  0  0  0  0  0  0  0  0  0
  -21.6220   -6.3960   22.5600 C   0  0  0  0  0  0  0  0  0  0  0  0
  -21.1420   -7.0010   23.7430 C   0  0  0  0  0  3  0  0  0  0  0  0
  -20.9770   -6.2310   24.9110 C   0  0  0  0  0  3  0  0  0  0  0  0
  -21.2830   -4.8580   24.8970 C   0  0  0  0  0  0  0  0  0  0  0  0
  -21.7560   -4.2520   23.7210 C   0  0  0  0  0  3  0  0  0  0  0  0
  -21.9230   -5.0190   22.5540 C   0  0  0  0  0  0  0  0  0  0  0  0
  -22.3590   -4.4260   21.4170 F   0  0  0  0  0  0  0  0  0  0  0  0
  -21.1180   -4.1160   26.0180 F   0  0  0  0  0  0  0  0  0  0  0  0
  -22.9950  -13.7070   21.1120 C   0  0  0  0  0  0  0  0  0  0  0  0
  -22.2920  -13.0250   22.0090 N   0  0  0  0  0  0  0  0  0  0  0  0
  -22.5600  -14.7470   20.6200 O   0  0  0  0  0  0  0  0  0  0  0  0
  -22.6560  -12.1830   22.4290 H   0  0  0  0  0  0  0  0  0  0  0  0
  -21.3750  -13.3500   22.2810 H   0  0  0  0  0  0  0  0  0  0  0  0
  -25.6360  -15.3110   20.2020 N   0  0  0  0  0  0  0  0  0  0  0  0
  -24.9000  -15.9890   20.3620 H   0  0  0  0  0  0  0  0  0  0  0  0
  -26.4940  -15.7280   19.8610 H   0  0  0  0  0  0  0  0  0  0  0  0
  -28.2070  -25.2110   20.1980 C   0  0  0  0  0  2  0  0  0  0  0  0
  -28.4060  -26.6410   20.1360 O   0  0  0  0  0  0  0  0  0  0  0  0
  -24.5420  -31.8390   23.1410 C   0  0  0  0  0  0  0  0  0  0  0  0
  -27.2440  -27.3950   20.0940 C   0  0  0  0  0  0  0  0  0  0  0  0
  -23.3640  -30.4240   21.4940 C   0  0  0  0  0  3  0  0  0  0  0  0
  -24.8410  -28.9030   20.0840 C   0  0  0  0  0  0  0  0  0  0  0  0
  -25.8910  -30.8010   21.3160 C   0  0  0  0  0  2  0  0  0  0  0  0
  -25.9950  -29.4300   20.6780 C   0  0  0  0  0  0  0  0  0  0  0  0
  -27.2020  -28.6870   20.6750 C   0  0  0  0  0  3  0  0  0  0  0  0
  -26.0650  -26.8940   19.4900 C   0  0  0  0  0  3  0  0  0  0  0  0
  -24.8730  -27.6350   19.4860 C   0  0  0  0  0  3  0  0  0  0  0  0
  -23.5910  -29.7500   20.1170 C   0  0  0  0  0  2  0  0  0  0  0  0
  -24.6180  -31.0360   22.0430 N   0  0  0  0  0  0  0  0  0  0  0  0
  -23.4540  -32.1020   23.6700 O   0  0  0  0  0  0  0  0  0  0  0  0
  -22.7140  -29.3970   22.4490 C   0  0  0  0  0  0  0  0  0  0  0  0
  -21.3930  -29.1970   22.3080 N   0  0  0  0  0  0  0  0  0  0  0  0
  -23.3960  -28.7830   23.2740 O   0  0  0  0  0  0  0  0  0  0  0  0
  -20.9060  -29.7420   21.6110 H   0  0  0  0  0  0  0  0  0  0  0  0
  -18.0340  -27.9440   22.7530 C   0  0  0  0  0  0  0  0  0  0  0  0
  -20.5800  -28.2530   23.0730 C   0  0  0  0  0  3  0  0  0  0  0  0
  -20.7210  -26.8180   22.5170 C   0  0  0  0  0  2  0  0  0  0  0  0
  -19.6470  -26.4620   21.4850 C   0  0  0  0  0  2  0  0  0  0  0  0
  -18.2490  -26.5900   22.0980 C   0  0  0  0  0  2  0  0  0  0  0  0
  -19.1290  -28.7320   23.1960 C   0  0  0  0  0  0  0  0  0  0  0  0
  -18.8760  -29.9990   23.7660 C   0  0  0  0  0  3  0  0  0  0  0  0
  -17.5590  -30.4790   23.8970 C   0  0  0  0  0  3  0  0  0  0  0  0
  -16.4770  -29.6890   23.4700 C   0  0  0  0  0  3  0  0  0  0  0  0
  -16.7150  -28.4240   22.9040 C   0  0  0  0  0  3  0  0  0  0  0  0
  -25.8170  -32.4860   23.7690 C   0  0  0  0  0  3  0  0  0  0  0  0
  -26.3510  -31.7040   25.0320 C   0  0  1  0  0  0  0  0  0  0  0  0
  -25.2640  -31.4220   26.0960 C   0  0  0  0  0  1  0  0  0  0  0  0
  -26.9610  -30.3470   24.6110 C   0  0  0  0  0  1  0  0  0  0  0  0
  -27.4860  -32.5110   25.7060 C   0  0  0  0  0  1  0  0  0  0  0  0
  -25.4820  -33.8720   24.1190 N   0  0  0  0  0  0  0  0  0  0  0  0
  -25.8140  -34.9420   23.3830 C   0  0  0  0  0  0  0  0  0  0  0  0
  -26.5060  -34.8670   22.3640 O   0  0  0  0  0  0  0  0  0  0  0  0
  -24.8730  -34.0050   24.9120 H   0  0  0  0  0  0  0  0  0  0  0  0
  -24.0840  -36.7280   23.0050 C   0  0  0  0  0  1  0  0  0  0  0  0
  -25.2960  -36.3140   23.8550 C   0  0  0  0  0  3  0  0  0  0  0  0
  -27.3880  -37.1940   24.7920 C   0  0  0  0  0  1  0  0  0  0  0  0
  -26.3220  -37.3780   23.8090 N   0  0  0  0  0  0  0  0  0  0  0  0
  -25.9020  -38.2900   23.9650 H   0  0  0  0  0  0  0  0  0  0  0  0
  1  6  2  0
  2  3  1  0
  2  4  1  0
  3  5  1  0
  4 52  1  0
  4  1  1  0
  5 12  1  0
  5  1  1  0
  8 11  1  0
  9  7  1  0
 10  8  2  0
 10 12  1  0
 11 13  1  0
 11  7  2  0
 12  9  2  0
 14 22  1  0
 15 20  1  0
 16 17  1  0
 16 15  1  0
 18 17  1  0
 18 27  1  0
 18 19  1  0
 20 14  1  0
 20 19  1  0
 21 14  2  0
 22 23  1  0
 22 13  1  0
 24 25  2  0
 25 44  1  0
 26 25  1  0
 26 29  1  0
 27 28  1  0
 27 24  1  0
 28 26  2  0
 29 30  1  0
 30 31  2  0
 32 35  1  0
 32 31  1  0
 33 32  2  0
 34 33  1  0
 34 29  2  0
 35 36  1  0
 36 37  1  0
 37 38  2  0
 39 38  1  0
 39 43  1  0
 40 39  2  0
 41 36  2  0
 41 40  1  0
 42 41  1  0
 44 45  1  0
 45 48  1  0
 45 47  1  0
 46 44  2  0
 49 50  1  0
 49 24  1  0
 51 49  1  0
 53 52  1  0
 54 65  2  0
 55 53  1  0
 55 60  1  0
 56 64  1  0
 56 66  1  0
 57 63  1  0
 57 59  1  0
 58 64  1  0
 59 58  1  0
 60 59  2  0
 61 55  2  0
 62 61  1  0
 62 57  2  0
 63 56  1  0
 64 54  1  0
 66 68  2  0
 67 66  1  0
 69 67  1  0
 70 79  2  0
 70 75  1  0
 71 67  1  0
 71 75  1  0
 72 71  1  0
 73 74  1  0
 73 72  1  0
 74 70  1  0
 75 76  2  0
 76 77  1  0
 78 77  2  0
 79 78  1  0
 80 54  1  0
 80 85  1  0
 80 81  1  0
 81 84  1  1
 81 82  1  0
 83 81  1  0
 85 88  1  0
 86 90  1  0
 86 85  1  0
 87 86  2  0
 90 89  1  0
 92 90  1  0
 92 93  1  0
 92 91  1  0
M  ISO  4  14 100  22 100  52 101  53 101
M  END
>  <TORSDO>  (65) 
F 19

>  <SCORE>  (65) 
-13.405

>  <name>  (65) 
64

>  <ligand_id>  (65) 
64

>  <original_smiles>  (65) 
[H]c1c([H])c([H])c2c(c1[H])C([H])([H])C([H])([H])C([H])([H])C2([H])N([H])C(=O)C1([H])N(C(=O)C([H])(N([H])C(=O)C([H])(N([H])C([H])([H])[H])C([H])([H])[H])C(C([H])([H])[H])(C([H])([H])[H])C([H])([H])[H])C([H])([H])c2c([H])c(OC([H])([H])C3([H])C(=O)N(c4c([H])c([H])c(C([H])([H])N([H])C(=O)N5C([H])([H])C([H])([H])C([H])([H])C([H])(n6nc(-c7c([H])c([H])c(Oc8c([H])c([H])c(F)c([H])c8F)c([H])c7[H])c(C(=O)N([H])[H])c6N([H])[H])C5([H])[H])c([H])c4[H])C([H])([H])C3([H])[H])c([H])c([H])c2C1([H])[H]

>  <smiles>  (65) 
[H]c1c([H])c([H])c2c(c1[H])C([H])([H])C([H])([H])C([H])([H])C2([H])N([H])C(=O)C1([H])N(C(=O)C([H])(N([H])C(=O)C([H])(N([H])C([H])([H])[H])C([H])([H])[H])C(C([H])([H])[H])(C([H])([H])[H])C([H])([H])[H])C([H])([H])c2c([H])c(OC([H])([H])C3([H])C(=O)N(c4c([H])c([H])c(C([H])([H])N([H])C(=O)N5C([H])([H])C([H])([H])C([H])([H])C([H])(n6nc(-c7c([H])c([H])c(Oc8c([H])c([H])c(F)c([H])c8F)c([H])c7[H])c(C(=O)N([H])[H])c6N([H])[H])C5([H])[H])c([H])c4[H])C([H])([H])C3([H])[H])c([H])c([H])c2C1([H])[H]

$$$$
65:0:0
     RDKit          3D

 90 99  0  0  1  0  0  0  0  0999 V2000
  -30.5780  -14.9190   20.5020 C   0  0  0  0  0  0  0  0  0  0  0  0
  -30.4360  -12.5800   19.5100 C   0  0  0  0  0  2  0  0  0  0  0  0
  -29.5230  -12.5460   18.2620 C   0  0  0  0  0  2  0  0  0  0  0  0
  -28.0550  -12.3280   18.6690 C   0  0  0  0  0  2  0  0  0  0  0  0
  -27.6330  -13.2480   19.8420 C   0  0  0  0  0  3  0  0  0  0  0  0
  -28.6650  -13.2480   20.9860 C   0  0  0  0  0  2  0  0  0  0  0  0
  -29.9610  -13.6650   20.4230 N   0  0  0  0  0  0  0  0  0  0  0  0
  -31.7100  -15.0140   20.0140 O   0  0  0  0  0  0  0  0  0  0  0  0
  -29.6510  -18.0850   19.4700 C   0  0  0  0  0  3  0  0  0  0  0  0
  -29.3610  -19.4890   19.1980 C   0  0  0  0  0  3  0  0  0  0  0  0
  -29.2730  -19.9730   21.4890 C   0  0  0  0  0  3  0  0  0  0  0  0
  -29.5300  -18.5640   21.7750 C   0  0  0  0  0  0  0  0  0  0  0  0
  -29.7520  -17.5210   20.7850 C   0  0  0  0  0  0  0  0  0  0  0  0
  -29.1540  -20.5270   20.1780 C   0  0  0  0  0  0  0  0  0  0  0  0
  -29.5370  -18.1850   23.2430 C   0  0  0  0  0  2  0  0  0  0  0  0
  -29.1890  -16.7140   23.4570 C   0  0  0  0  0  2  0  0  0  0  0  0
  -30.1110  -15.8160   22.6280 C   0  0  0  0  0  2  0  0  0  0  0  0
  -29.9850  -16.0330   21.1710 N   0  0  0  0  0  0  0  0  0  0  0  0
  -25.2470  -13.8220   20.5700 C   0  0  0  0  0  0  0  0  0  0  0  0
  -24.1780  -13.0440   20.9200 C   0  0  0  0  0  0  0  0  0  0  0  0
  -24.6400  -11.6930   20.8730 C   0  0  0  0  0  0  0  0  0  0  0  0
  -26.2890  -12.9450   20.3220 N   0  0  0  0  0  0  0  0  0  0  0  0
  -25.9330  -11.6580   20.5700 N   0  0  0  0  0  0  0  0  0  0  0  0
  -23.9080  -10.4300   21.0400 C   0  0  0  0  0  0  0  0  0  0  0  0
  -24.3630   -9.4210   21.9180 C   0  0  0  0  0  3  0  0  0  0  0  0
  -23.6300   -8.2250   22.0750 C   0  0  0  0  0  3  0  0  0  0  0  0
  -22.4280   -8.0290   21.3540 C   0  0  0  0  0  0  0  0  0  0  0  0
  -21.9920   -9.0260   20.4650 C   0  0  0  0  0  3  0  0  0  0  0  0
  -22.7250  -10.2140   20.3050 C   0  0  0  0  0  3  0  0  0  0  0  0
  -21.6640   -6.8880   21.4240 O   0  0  0  0  0  0  0  0  0  0  0  0
  -21.6860   -6.0740   22.5280 C   0  0  0  0  0  0  0  0  0  0  0  0
  -21.4020   -6.5640   23.8210 C   0  0  0  0  0  3  0  0  0  0  0  0
  -21.3660   -5.6790   24.9170 C   0  0  0  0  0  3  0  0  0  0  0  0
  -21.6050   -4.3060   24.7220 C   0  0  0  0  0  0  0  0  0  0  0  0
  -21.8820   -3.8150   23.4340 C   0  0  0  0  0  3  0  0  0  0  0  0
  -21.9190   -4.6970   22.3400 C   0  0  0  0  0  0  0  0  0  0  0  0
  -22.1660   -4.2150   21.0980 F   0  0  0  0  0  0  0  0  0  0  0  0
  -21.5630   -3.4540   25.7740 F   0  0  0  0  0  0  0  0  0  0  0  0
  -22.7800  -13.5210   21.1880 C   0  0  0  0  0  0  0  0  0  0  0  0
  -22.0460  -12.8190   22.0440 N   0  0  0  0  0  0  0  0  0  0  0  0
  -22.3480  -14.5520   20.6730 O   0  0  0  0  0  0  0  0  0  0  0  0
  -22.4090  -11.9860   22.4820 H   0  0  0  0  0  0  0  0  0  0  0  0
  -21.1080  -13.1210   22.2650 H   0  0  0  0  0  0  0  0  0  0  0  0
  -25.4170  -15.1950   20.4190 N   0  0  0  0  0  0  0  0  0  0  0  0
  -24.6570  -15.8540   20.5490 H   0  0  0  0  0  0  0  0  0  0  0  0
  -26.2810  -15.6390   20.1320 H   0  0  0  0  0  0  0  0  0  0  0  0
  -28.7940  -21.8930   19.7750 O   0  0  0  0  0  0  0  0  0  0  0  0
  -28.8430  -23.2480   20.5100 C   0  0  0  0  0  2  0  0  0  0  0  0
  -28.0230  -24.6250   19.9580 C   0  0  0  0  0  2  0  0  0  0  0  0
  -28.2640  -26.1410   20.2480 O   0  0  0  0  0  0  0  0  0  0  0  0
  -24.6430  -31.8440   23.1890 C   0  0  0  0  0  0  0  0  0  0  0  0
  -27.2180  -27.1330   20.1510 C   0  0  0  0  0  0  0  0  0  0  0  0
  -23.4470  -30.4630   21.5340 C   0  0  0  0  0  3  0  0  0  0  0  0
  -24.8980  -28.8910   20.1080 C   0  0  0  0  0  0  0  0  0  0  0  0
  -26.0030  -30.7150   21.3890 C   0  0  0  0  0  2  0  0  0  0  0  0
  -26.0740  -29.3270   20.7310 C   0  0  0  0  0  0  0  0  0  0  0  0
  -27.2330  -28.4630   20.7380 C   0  0  0  0  0  3  0  0  0  0  0  0
  -26.0200  -26.8070   19.4750 C   0  0  0  0  0  3  0  0  0  0  0  0
  -24.8840  -27.6450   19.4650 C   0  0  0  0  0  3  0  0  0  0  0  0
  -23.6740  -29.7930   20.1530 C   0  0  0  0  0  2  0  0  0  0  0  0
  -24.7180  -31.0290   22.0920 N   0  0  0  0  0  0  0  0  0  0  0  0
  -23.5550  -32.1320   23.7100 O   0  0  0  0  0  0  0  0  0  0  0  0
  -22.7570  -29.4550   22.4850 C   0  0  0  0  0  0  0  0  0  0  0  0
  -21.4260  -29.3050   22.3600 N   0  0  0  0  0  0  0  0  0  0  0  0
  -23.4210  -28.8090   23.3000 O   0  0  0  0  0  0  0  0  0  0  0  0
  -20.9470  -29.8760   21.6780 H   0  0  0  0  0  0  0  0  0  0  0  0
  -18.0300  -28.1400   22.8480 C   0  0  0  0  0  0  0  0  0  0  0  0
  -20.5920  -28.3730   23.1230 C   0  0  0  0  0  3  0  0  0  0  0  0
  -20.6790  -26.9430   22.5400 C   0  0  0  0  0  2  0  0  0  0  0  0
  -19.5760  -26.6380   21.5210 C   0  0  0  0  0  2  0  0  0  0  0  0
  -18.1940  -26.7940   22.1620 C   0  0  0  0  0  2  0  0  0  0  0  0
  -19.1560  -28.8880   23.2850 C   0  0  0  0  0  0  0  0  0  0  0  0
  -18.9480  -30.1480   23.8870 C   0  0  0  0  0  3  0  0  0  0  0  0
  -17.6480  -30.6600   24.0560 C   0  0  0  0  0  3  0  0  0  0  0  0
  -16.5370  -29.9090   23.6340 C   0  0  0  0  0  3  0  0  0  0  0  0
  -16.7290  -28.6510   23.0360 C   0  0  0  0  0  3  0  0  0  0  0  0
  -25.9210  -32.4690   23.8280 C   0  0  0  0  0  3  0  0  0  0  0  0
  -25.5950  -33.8500   24.2190 N   0  0  0  0  0  0  0  0  0  0  0  0
  -25.9070  -34.9410   23.5060 C   0  0  0  0  0  0  0  0  0  0  0  0
  -26.5660  -34.8900   22.4640 O   0  0  0  0  0  0  0  0  0  0  0  0
  -25.0070  -33.9620   25.0320 H   0  0  0  0  0  0  0  0  0  0  0  0
  -24.1490  -36.7250   23.2640 C   0  0  0  0  0  1  0  0  0  0  0  0
  -25.4120  -36.3030   24.0320 C   0  0  0  0  0  3  0  0  0  0  0  0
  -27.5580  -37.1780   24.8460 C   0  0  0  0  0  1  0  0  0  0  0  0
  -26.4280  -37.3740   23.9410 N   0  0  0  0  0  0  0  0  0  0  0  0
  -26.0150  -38.2810   24.1420 H   0  0  0  0  0  0  0  0  0  0  0  0
  -26.4530  -31.6570   25.0720 C   0  0  1  0  0  0  0  0  0  0  0  0
  -25.3700  -31.3760   26.1410 C   0  0  0  0  0  1  0  0  0  0  0  0
  -27.0400  -30.2960   24.6320 C   0  0  0  0  0  1  0  0  0  0  0  0
  -27.6060  -32.4340   25.7500 C   0  0  0  0  0  1  0  0  0  0  0  0
  1 18  1  0
  2  7  1  0
  3  4  1  0
  3  2  1  0
  5  4  1  0
  5 22  1  0
  5  6  1  0
  7  1  1  0
  7  6  1  0
  8  1  2  0
  9 13  1  0
 10  9  2  0
 10 14  1  0
 11 12  1  0
 12 15  1  0
 13 18  1  0
 13 12  2  0
 14 11  2  0
 15 16  1  0
 17 16  1  0
 18 17  1  0
 19 20  2  0
 20 39  1  0
 21 20  1  0
 21 24  1  0
 22 23  1  0
 22 19  1  0
 23 21  2  0
 24 25  1  0
 25 26  2  0
 27 30  1  0
 27 26  1  0
 28 27  2  0
 29 28  1  0
 29 24  2  0
 30 31  1  0
 31 32  1  0
 32 33  2  0
 34 33  1  0
 34 38  1  0
 35 34  2  0
 36 31  2  0
 36 35  1  0
 37 36  1  0
 39 40  1  0
 40 43  1  0
 40 42  1  0
 41 39  2  0
 44 45  1  0
 44 19  1  0
 46 44  1  0
 47 14  1  0
 47 48  1  0
 49 50  1  0
 49 48  1  0
 51 62  2  0
 52 50  1  0
 52 57  1  0
 53 61  1  0
 53 63  1  0
 54 60  1  0
 54 56  1  0
 55 61  1  0
 56 57  2  0
 56 55  1  0
 58 52  2  0
 59 58  1  0
 59 54  2  0
 60 53  1  0
 61 51  1  0
 63 65  2  0
 64 63  1  0
 66 64  1  0
 67 76  2  0
 67 72  1  0
 68 64  1  0
 68 72  1  0
 69 68  1  0
 70 71  1  0
 70 69  1  0
 71 67  1  0
 72 73  2  0
 73 74  1  0
 75 74  2  0
 76 75  1  0
 77 51  1  0
 77 78  1  0
 77 87  1  0
 78 81  1  0
 79 83  1  0
 79 78  1  0
 80 79  2  0
 83 82  1  0
 85 83  1  0
 85 86  1  0
 85 84  1  0
 87 90  1  1
 87 88  1  0
 89 87  1  0
M  ISO  4   1 100  18 100  49 101  50 101
M  END
>  <TORSDO>  (66) 
F 18

>  <SCORE>  (66) 
-5.246

>  <name>  (66) 
65

>  <ligand_id>  (66) 
65

>  <original_smiles>  (66) 
[H]c1c([H])c([H])c2c(c1[H])C([H])([H])C([H])([H])C([H])([H])C2([H])N([H])C(=O)C1([H])N(C(=O)C([H])(N([H])C(=O)C([H])(N([H])C([H])([H])[H])C([H])([H])[H])C(C([H])([H])[H])(C([H])([H])[H])C([H])([H])[H])C([H])([H])c2c([H])c(OC([H])([H])C([H])([H])Oc3c([H])c([H])c4c(c3[H])C([H])([H])C([H])([H])C([H])([H])N4C(=O)N3C([H])([H])C([H])([H])C([H])([H])C([H])(n4nc(-c5c([H])c([H])c(Oc6c([H])c([H])c(F)c([H])c6F)c([H])c5[H])c(C(=O)N([H])[H])c4N([H])[H])C3([H])[H])c([H])c([H])c2C1([H])[H]

>  <smiles>  (66) 
[H]c1c([H])c([H])c2c(c1[H])C([H])([H])C([H])([H])C([H])([H])C2([H])N([H])C(=O)C1([H])N(C(=O)C([H])(N([H])C(=O)C([H])(N([H])C([H])([H])[H])C([H])([H])[H])C(C([H])([H])[H])(C([H])([H])[H])C([H])([H])[H])C([H])([H])c2c([H])c(OC([H])([H])C([H])([H])Oc3c([H])c([H])c4c(c3[H])C([H])([H])C([H])([H])C([H])([H])N4C(=O)N3C([H])([H])C([H])([H])C([H])([H])C([H])(n4nc(-c5c([H])c([H])c(Oc6c([H])c([H])c(F)c([H])c6F)c([H])c5[H])c(C(=O)N([H])[H])c4N([H])[H])C3([H])[H])c([H])c([H])c2C1([H])[H]

$$$$
66:0:0
     RDKit          3D

 91100  0  0  1  0  0  0  0  0999 V2000
  -28.3000  -24.1870   18.1660 C   0  0  0  0  0  2  0  0  0  0  0  0
  -28.9830  -22.7710   18.0480 C   0  0  0  0  0  2  0  0  0  0  0  0
  -28.7610  -23.3150   20.3370 C   0  0  0  0  0  2  0  0  0  0  0  0
  -28.7200  -24.7500   19.5300 C   0  0  0  0  0  3  0  0  0  0  0  0
  -29.1000  -22.1580   19.3820 N   0  0  0  0  0  0  0  0  0  0  0  0
  -29.8160  -19.8500   18.4180 C   0  0  0  0  0  3  0  0  0  0  0  0
  -30.1070  -18.4210   18.4920 C   0  0  0  0  0  3  0  0  0  0  0  0
  -29.4190  -19.9240   20.7270 C   0  0  0  0  0  3  0  0  0  0  0  0
  -29.6730  -18.4860   20.8090 C   0  0  0  0  0  0  0  0  0  0  0  0
  -29.4460  -20.7050   19.5230 C   0  0  0  0  0  0  0  0  0  0  0  0
  -30.0390  -17.6410   19.6950 C   0  0  0  0  0  0  0  0  0  0  0  0
  -29.5210  -17.8290   22.1710 C   0  0  0  0  0  1  0  0  0  0  0  0
  -30.9440  -15.0240   19.3850 C   0  0  0  0  0  0  0  0  0  0  0  0
  -30.7640  -12.6590   18.4840 C   0  0  0  0  0  2  0  0  0  0  0  0
  -29.6210  -12.5970   17.4410 C   0  0  0  0  0  2  0  0  0  0  0  0
  -28.2640  -12.3540   18.1290 C   0  0  0  0  0  2  0  0  0  0  0  0
  -28.0570  -13.2700   19.3650 C   0  0  0  0  0  3  0  0  0  0  0  0
  -29.2970  -13.2810   20.2850 C   0  0  0  0  0  2  0  0  0  0  0  0
  -30.4350  -13.7280   19.4680 N   0  0  0  0  0  0  0  0  0  0  0  0
  -32.0350  -15.1720   18.8220 O   0  0  0  0  0  0  0  0  0  0  0  0
  -30.1460  -16.1100   19.8370 N   0  0  0  0  0  0  0  0  0  0  0  0
  -29.4010  -15.7410   20.4070 H   0  0  0  0  0  0  0  0  0  0  0  0
  -25.9630  -13.8090   20.7330 C   0  0  0  0  0  0  0  0  0  0  0  0
  -24.9320  -13.0310   21.1840 C   0  0  0  0  0  0  0  0  0  0  0  0
  -25.2400  -11.6950   20.7830 C   0  0  0  0  0  0  0  0  0  0  0  0
  -26.8350  -12.9470   20.0900 N   0  0  0  0  0  0  0  0  0  0  0  0
  -26.4220  -11.6560   20.1790 N   0  0  0  0  0  0  0  0  0  0  0  0
  -24.4490  -10.4610   20.8880 C   0  0  0  0  0  0  0  0  0  0  0  0
  -24.8440   -9.3990   21.7310 C   0  0  0  0  0  3  0  0  0  0  0  0
  -24.0560   -8.2330   21.8290 C   0  0  0  0  0  3  0  0  0  0  0  0
  -22.8570   -8.1200   21.0840 C   0  0  0  0  0  0  0  0  0  0  0  0
  -22.4800   -9.1720   20.2290 C   0  0  0  0  0  3  0  0  0  0  0  0
  -23.2690  -10.3290   20.1290 C   0  0  0  0  0  3  0  0  0  0  0  0
  -22.0410   -7.0150   21.0970 O   0  0  0  0  0  0  0  0  0  0  0  0
  -21.7650   -6.3380   22.2580 C   0  0  0  0  0  0  0  0  0  0  0  0
  -21.1500   -6.9690   23.3600 C   0  0  0  0  0  3  0  0  0  0  0  0
  -20.8210   -6.2200   24.5070 C   0  0  0  0  0  3  0  0  0  0  0  0
  -21.0970   -4.8410   24.5510 C   0  0  0  0  0  0  0  0  0  0  0  0
  -21.7040   -4.2090   23.4520 C   0  0  0  0  0  3  0  0  0  0  0  0
  -22.0340   -4.9550   22.3070 C   0  0  0  0  0  0  0  0  0  0  0  0
  -22.6000   -4.3370   21.2430 F   0  0  0  0  0  0  0  0  0  0  0  0
  -20.7740   -4.1180   25.6490 F   0  0  0  0  0  0  0  0  0  0  0  0
  -23.6820  -13.5140   21.8610 C   0  0  0  0  0  0  0  0  0  0  0  0
  -23.1250  -12.7140   22.7620 N   0  0  0  0  0  0  0  0  0  0  0  0
  -23.2210  -14.6310   21.6270 O   0  0  0  0  0  0  0  0  0  0  0  0
  -23.5150  -11.8070   22.9680 H   0  0  0  0  0  0  0  0  0  0  0  0
  -22.2950  -13.0150   23.2550 H   0  0  0  0  0  0  0  0  0  0  0  0
  -26.2190  -15.1760   20.7910 N   0  0  0  0  0  0  0  0  0  0  0  0
  -25.5520  -15.8270   21.1900 H   0  0  0  0  0  0  0  0  0  0  0  0
  -26.9870  -15.6370   20.3190 H   0  0  0  0  0  0  0  0  0  0  0  0
  -28.4890  -26.2410   19.9570 O   0  0  0  0  0  0  0  0  0  0  0  0
  -24.7040  -31.5770   23.2700 C   0  0  0  0  0  0  0  0  0  0  0  0
  -27.3510  -27.1200   19.9310 C   0  0  0  0  0  0  0  0  0  0  0  0
  -23.5140  -30.2610   21.5560 C   0  0  0  0  0  3  0  0  0  0  0  0
  -24.9760  -28.7980   20.0230 C   0  0  0  0  0  0  0  0  0  0  0  0
  -26.0560  -30.5920   21.3800 C   0  0  0  0  0  2  0  0  0  0  0  0
  -26.1480  -29.2430   20.6450 C   0  0  0  0  0  0  0  0  0  0  0  0
  -27.3290  -28.4180   20.5800 C   0  0  0  0  0  3  0  0  0  0  0  0
  -26.1510  -26.7640   19.2820 C   0  0  0  0  0  3  0  0  0  0  0  0
  -24.9900  -27.5750   19.3260 C   0  0  0  0  0  3  0  0  0  0  0  0
  -23.7310  -29.6660   20.1350 C   0  0  0  0  0  2  0  0  0  0  0  0
  -24.7780  -30.8290   22.1250 N   0  0  0  0  0  0  0  0  0  0  0  0
  -23.6190  -31.8050   23.8260 O   0  0  0  0  0  0  0  0  0  0  0  0
  -22.8650  -29.1870   22.4630 C   0  0  0  0  0  0  0  0  0  0  0  0
  -21.5470  -28.9690   22.3080 N   0  0  0  0  0  0  0  0  0  0  0  0
  -23.5510  -28.5510   23.2680 O   0  0  0  0  0  0  0  0  0  0  0  0
  -21.0490  -29.5360   21.6360 H   0  0  0  0  0  0  0  0  0  0  0  0
  -18.2090  -27.6210   22.7120 C   0  0  0  0  0  0  0  0  0  0  0  0
  -20.7550  -27.9650   23.0220 C   0  0  0  0  0  3  0  0  0  0  0  0
  -20.9150  -26.5680   22.3760 C   0  0  0  0  0  2  0  0  0  0  0  0
  -19.8360  -26.2580   21.3340 C   0  0  0  0  0  2  0  0  0  0  0  0
  -18.4440  -26.3180   21.9680 C   0  0  0  0  0  2  0  0  0  0  0  0
  -19.2940  -28.4020   23.1930 C   0  0  0  0  0  0  0  0  0  0  0  0
  -19.0210  -29.6220   23.8490 C   0  0  0  0  0  3  0  0  0  0  0  0
  -17.6970  -30.0630   24.0280 C   0  0  0  0  0  3  0  0  0  0  0  0
  -16.6260  -29.2800   23.5620 C   0  0  0  0  0  3  0  0  0  0  0  0
  -16.8830  -28.0600   22.9110 C   0  0  0  0  0  3  0  0  0  0  0  0
  -25.9770  -32.1970   23.9250 C   0  0  0  0  0  3  0  0  0  0  0  0
  -25.6640  -33.5900   24.2840 N   0  0  0  0  0  0  0  0  0  0  0  0
  -25.9370  -34.6560   23.5220 C   0  0  0  0  0  0  0  0  0  0  0  0
  -26.5470  -34.5730   22.4520 O   0  0  0  0  0  0  0  0  0  0  0  0
  -25.1190  -33.7270   25.1220 H   0  0  0  0  0  0  0  0  0  0  0  0
  -24.1610  -36.4260   23.3050 C   0  0  0  0  0  1  0  0  0  0  0  0
  -25.4630  -36.0340   24.0240 C   0  0  0  0  0  3  0  0  0  0  0  0
  -27.6290  -36.9600   24.7200 C   0  0  0  0  0  1  0  0  0  0  0  0
  -26.4680  -37.1060   23.8470 N   0  0  0  0  0  0  0  0  0  0  0  0
  -26.0550  -38.0190   24.0180 H   0  0  0  0  0  0  0  0  0  0  0  0
  -26.4710  -31.4020   25.1960 C   0  0  1  0  0  0  0  0  0  0  0  0
  -25.3650  -31.1620   26.2500 C   0  0  0  0  0  1  0  0  0  0  0  0
  -27.0410  -30.0230   24.7910 C   0  0  0  0  0  1  0  0  0  0  0  0
  -27.6250  -32.1710   25.8810 C   0  0  0  0  0  1  0  0  0  0  0  0
  1  4  1  0
  2  1  1  0
  2  5  1  0
  4 51  1  0
  4  3  1  0
  5 10  1  0
  5  3  1  0
  6  7  2  0
  6 10  1  0
  7 11  1  0
  8  9  1  0
  9 12  1  0
 10  8  2  0
 11 21  1  0
 11  9  2  0
 13 19  1  0
 13 21  1  0
 14 19  1  0
 15 16  1  0
 15 14  1  0
 17 16  1  0
 17 26  1  0
 17 18  1  0
 19 18  1  0
 20 13  2  0
 21 22  1  0
 23 48  1  0
 23 24  2  0
 24 43  1  0
 25 28  1  0
 25 24  1  0
 26 27  1  0
 26 23  1  0
 27 25  2  0
 28 29  1  0
 29 30  2  0
 31 34  1  0
 31 30  1  0
 32 31  2  0
 33 32  1  0
 33 28  2  0
 34 35  1  0
 35 40  2  0
 35 36  1  0
 36 37  2  0
 37 38  1  0
 38 42  1  0
 39 38  2  0
 40 39  1  0
 41 40  1  0
 43 44  1  0
 44 46  1  0
 44 47  1  0
 45 43  2  0
 48 49  1  0
 50 48  1  0
 52 63  2  0
 53 51  1  0
 53 58  1  0
 54 62  1  0
 54 64  1  0
 55 61  1  0
 55 57  1  0
 56 62  1  0
 57 56  1  0
 58 57  2  0
 59 60  1  0
 59 53  2  0
 60 55  2  0
 61 54  1  0
 62 52  1  0
 64 66  2  0
 65 64  1  0
 67 65  1  0
 68 77  2  0
 68 73  1  0
 69 65  1  0
 69 73  1  0
 70 69  1  0
 71 72  1  0
 71 70  1  0
 72 68  1  0
 73 74  2  0
 74 75  1  0
 76 75  2  0
 77 76  1  0
 78 52  1  0
 78 79  1  0
 78 88  1  0
 79 82  1  0
 80 84  1  0
 80 79  1  0
 81 80  2  0
 84 83  1  0
 86 87  1  0
 86 84  1  0
 86 85  1  0
 88 91  1  1
 88 89  1  0
 90 88  1  0
M  ISO  4   4 101  13 100  21 100  51 101
M  END
>  <TORSDO>  (67) 
F 17

>  <SCORE>  (67) 
-10.960

>  <name>  (67) 
66

>  <ligand_id>  (67) 
66

>  <original_smiles>  (67) 
[H]c1c([H])c([H])c2c(c1[H])C([H])([H])C([H])([H])C([H])([H])C2([H])N([H])C(=O)C1([H])N(C(=O)C([H])(N([H])C(=O)C([H])(N([H])C([H])([H])[H])C([H])([H])[H])C(C([H])([H])[H])(C([H])([H])[H])C([H])([H])[H])C([H])([H])c2c([H])c(OC3([H])C([H])([H])N(c4c([H])c([H])c(N([H])C(=O)N5C([H])([H])C([H])([H])C([H])([H])C([H])(n6nc(-c7c([H])c([H])c(Oc8c([H])c([H])c(F)c([H])c8F)c([H])c7[H])c(C(=O)N([H])[H])c6N([H])[H])C5([H])[H])c(C([H])([H])[H])c4[H])C([H])([H])C3([H])[H])c([H])c([H])c2C1([H])[H]

>  <smiles>  (67) 
[H]c1c([H])c([H])c2c(c1[H])C([H])([H])C([H])([H])C([H])([H])C2([H])N([H])C(=O)C1([H])N(C(=O)C([H])(N([H])C(=O)C([H])(N([H])C([H])([H])[H])C([H])([H])[H])C(C([H])([H])[H])(C([H])([H])[H])C([H])([H])[H])C([H])([H])c2c([H])c(OC3([H])C([H])([H])N(c4c([H])c([H])c(N([H])C(=O)N5C([H])([H])C([H])([H])C([H])([H])C([H])(n6nc(-c7c([H])c([H])c(Oc8c([H])c([H])c(F)c([H])c8F)c([H])c7[H])c(C(=O)N([H])[H])c6N([H])[H])C5([H])[H])c(C([H])([H])[H])c4[H])C([H])([H])C3([H])[H])c([H])c([H])c2C1([H])[H]

$$$$
67:0:0
     RDKit          3D

 95104  0  0  1  0  0  0  0  0999 V2000
  -29.4030  -20.5160   20.7190 C   0  0  0  0  0  0  0  0  0  0  0  0
  -27.2820  -21.0530   19.8510 C   0  0  0  0  0  2  0  0  0  0  0  0
  -28.5430  -17.4590   18.8030 C   0  0  0  0  0  2  0  0  0  0  0  0
  -28.3200  -21.6250   20.8290 C   0  0  0  0  0  3  0  0  0  0  0  0
  -29.5280  -18.0880   19.8060 C   0  0  0  0  0  3  0  0  0  0  0  0
  -27.4880  -19.5270   19.9290 C   0  0  0  0  0  3  0  0  0  0  0  0
  -28.8720  -19.3260   20.3360 N   0  0  0  0  0  0  0  0  0  0  0  0
  -30.5990  -20.7370   20.9340 O   0  0  0  0  0  0  0  0  0  0  0  0
  -27.3060  -18.6870   18.3440 S   0  0  0  0  0  0  0  0  0  0  0  0
  -27.9270  -24.1430   20.5420 C   0  0  0  0  0  0  0  0  0  0  0  0
  -28.7330  -23.0440   20.5690 N   0  0  0  0  0  0  0  0  0  0  0  0
  -26.7080  -24.0270   20.4140 O   0  0  0  0  0  0  0  0  0  0  0  0
  -29.7290  -23.2100   20.6180 H   0  0  0  0  0  0  0  0  0  0  0  0
  -28.5220  -25.5680   20.8250 C   0  0  0  0  0  2  0  0  0  0  0  0
  -28.2990  -26.5900   19.8110 O   0  0  0  0  0  0  0  0  0  0  0  0
  -24.6210  -31.7980   23.1640 C   0  0  0  0  0  0  0  0  0  0  0  0
  -27.1720  -27.3900   19.9210 C   0  0  0  0  0  0  0  0  0  0  0  0
  -23.3890  -30.4750   21.4800 C   0  0  0  0  0  3  0  0  0  0  0  0
  -24.8140  -28.9670   19.9940 C   0  0  0  0  0  0  0  0  0  0  0  0
  -25.9230  -30.7960   21.2820 C   0  0  0  0  0  2  0  0  0  0  0  0
  -25.9870  -29.4400   20.5980 C   0  0  0  0  0  0  0  0  0  0  0  0
  -27.1730  -28.6590   20.5590 C   0  0  0  0  0  3  0  0  0  0  0  0
  -25.9870  -26.9530   19.2970 C   0  0  0  0  0  3  0  0  0  0  0  0
  -24.8120  -27.7240   19.3420 C   0  0  0  0  0  3  0  0  0  0  0  0
  -23.5840  -29.8460   20.0760 C   0  0  0  0  0  2  0  0  0  0  0  0
  -24.6640  -31.0370   22.0340 N   0  0  0  0  0  0  0  0  0  0  0  0
  -23.5450  -32.0630   23.7210 O   0  0  0  0  0  0  0  0  0  0  0  0
  -22.7270  -29.4260   22.4050 C   0  0  0  0  0  0  0  0  0  0  0  0
  -21.3980  -29.2760   22.2890 N   0  0  0  0  0  0  0  0  0  0  0  0
  -23.4080  -28.7530   23.1830 O   0  0  0  0  0  0  0  0  0  0  0  0
  -20.9120  -29.8670   21.6300 H   0  0  0  0  0  0  0  0  0  0  0  0
  -18.0070  -28.1310   22.7950 C   0  0  0  0  0  0  0  0  0  0  0  0
  -20.5740  -28.3210   23.0320 C   0  0  0  0  0  3  0  0  0  0  0  0
  -20.6360  -26.9160   22.3900 C   0  0  0  0  0  2  0  0  0  0  0  0
  -19.5090  -26.6650   21.3820 C   0  0  0  0  0  2  0  0  0  0  0  0
  -18.1420  -26.8100   22.0550 C   0  0  0  0  0  2  0  0  0  0  0  0
  -19.1480  -28.8480   23.2390 C   0  0  0  0  0  0  0  0  0  0  0  0
  -18.9690  -30.0870   23.8910 C   0  0  0  0  0  3  0  0  0  0  0  0
  -17.6800  -30.6090   24.1030 C   0  0  0  0  0  3  0  0  0  0  0  0
  -16.5510  -29.8890   23.6750 C   0  0  0  0  0  3  0  0  0  0  0  0
  -16.7150  -28.6510   23.0280 C   0  0  0  0  0  3  0  0  0  0  0  0
  -25.9160  -32.3920   23.8000 C   0  0  0  0  0  3  0  0  0  0  0  0
  -26.4150  -31.5860   25.0630 C   0  0  1  0  0  0  0  0  0  0  0  0
  -25.3170  -31.3620   26.1300 C   0  0  0  0  0  1  0  0  0  0  0  0
  -26.9560  -30.2000   24.6450 C   0  0  0  0  0  1  0  0  0  0  0  0
  -27.5920  -32.3360   25.7300 C   0  0  0  0  0  1  0  0  0  0  0  0
  -25.6350  -33.7900   24.1530 N   0  0  0  0  0  0  0  0  0  0  0  0
  -25.9900  -34.8480   23.4110 C   0  0  0  0  0  0  0  0  0  0  0  0
  -26.6590  -34.7470   22.3790 O   0  0  0  0  0  0  0  0  0  0  0  0
  -25.0450  -33.9460   24.9580 H   0  0  0  0  0  0  0  0  0  0  0  0
  -24.2950  -36.6760   23.0870 C   0  0  0  0  0  1  0  0  0  0  0  0
  -25.5300  -36.2390   23.8900 C   0  0  0  0  0  3  0  0  0  0  0  0
  -27.6790  -37.0750   24.7310 C   0  0  0  0  0  1  0  0  0  0  0  0
  -26.5810  -37.2740   23.7890 N   0  0  0  0  0  0  0  0  0  0  0  0
  -26.1910  -38.1990   23.9490 H   0  0  0  0  0  0  0  0  0  0  0  0
  -30.0760  -17.0060   20.8490 C   0  0  0  0  0  2  0  0  0  0  0  0
  -31.1620  -14.7170   21.0880 C   0  0  0  0  0  0  0  0  0  0  0  0
  -30.9430  -12.3890   20.3070 C   0  0  0  0  0  2  0  0  0  0  0  0
  -30.1820  -12.2820   18.9720 C   0  0  0  0  0  2  0  0  0  0  0  0
  -28.6560  -12.2690   19.1870 C   0  0  0  0  0  2  0  0  0  0  0  0
  -28.1480  -13.3040   20.2320 C   0  0  0  0  0  3  0  0  0  0  0  0
  -29.0530  -13.3660   21.4790 C   0  0  0  0  0  2  0  0  0  0  0  0
  -30.4220  -13.5730   21.0030 N   0  0  0  0  0  0  0  0  0  0  0  0
  -32.3670  -14.6430   21.3260 O   0  0  0  0  0  0  0  0  0  0  0  0
  -30.7570  -15.7740   20.2950 N   0  0  0  0  0  0  0  0  0  0  0  0
  -25.7040  -13.9860   20.6560 C   0  0  0  0  0  0  0  0  0  0  0  0
  -24.5760  -13.2520   20.9030 C   0  0  0  0  0  0  0  0  0  0  0  0
  -24.9990  -11.8900   20.9700 C   0  0  0  0  0  0  0  0  0  0  0  0
  -26.7440  -13.0740   20.5770 N   0  0  0  0  0  0  0  0  0  0  0  0
  -26.3170  -11.8110   20.8400 N   0  0  0  0  0  0  0  0  0  0  0  0
  -24.2170  -10.6530   21.0910 C   0  0  0  0  0  0  0  0  0  0  0  0
  -24.5510   -9.6600   22.0380 C   0  0  0  0  0  3  0  0  0  0  0  0
  -23.7710   -8.4890   22.1520 C   0  0  0  0  0  3  0  0  0  0  0  0
  -22.6430   -8.3020   21.3180 C   0  0  0  0  0  0  0  0  0  0  0  0
  -22.3290   -9.2840   20.3610 C   0  0  0  0  0  3  0  0  0  0  0  0
  -23.1090  -10.4460   20.2460 C   0  0  0  0  0  3  0  0  0  0  0  0
  -21.8430   -7.1850   21.3410 O   0  0  0  0  0  0  0  0  0  0  0  0
  -21.7300   -6.4030   22.4620 C   0  0  0  0  0  0  0  0  0  0  0  0
  -21.2720   -6.9250   23.6910 C   0  0  0  0  0  3  0  0  0  0  0  0
  -21.1040   -6.0710   24.7990 C   0  0  0  0  0  3  0  0  0  0  0  0
  -21.3810   -4.6960   24.6790 C   0  0  0  0  0  0  0  0  0  0  0  0
  -21.8310   -4.1730   23.4520 C   0  0  0  0  0  3  0  0  0  0  0  0
  -22.0010   -5.0250   22.3460 C   0  0  0  0  0  0  0  0  0  0  0  0
  -22.4130   -4.5120   21.1620 F   0  0  0  0  0  0  0  0  0  0  0  0
  -21.2140   -3.8730   25.7410 F   0  0  0  0  0  0  0  0  0  0  0  0
  -23.1700  -13.7740   20.9700 C   0  0  0  0  0  0  0  0  0  0  0  0
  -22.3170  -13.1380   21.7640 N   0  0  0  0  0  0  0  0  0  0  0  0
  -22.8310  -14.7820   20.3510 O   0  0  0  0  0  0  0  0  0  0  0  0
  -22.5960  -12.3230   22.2900 H   0  0  0  0  0  0  0  0  0  0  0  0
  -21.3660  -13.4700   21.8460 H   0  0  0  0  0  0  0  0  0  0  0  0
  -25.9240  -15.3450   20.4620 N   0  0  0  0  0  0  0  0  0  0  0  0
  -25.1620  -16.0120   20.4280 H   0  0  0  0  0  0  0  0  0  0  0  0
  -26.8190  -15.7530   20.2340 H   0  0  0  0  0  0  0  0  0  0  0  0
  -31.2510  -15.4630   17.8440 C   0  0  0  0  0  1  0  0  0  0  0  0
  -31.6870  -16.0990   19.1710 C   0  0  0  0  0  2  0  0  0  0  0  0
  1  4  1  0
  1  8  2  0
  2  4  1  0
  3  5  1  0
  4 11  1  0
  5  7  1  0
  5 56  1  0
  6  2  1  0
  6  7  1  0
  7  1  1  0
  9  3  1  0
  9  6  1  0
 10 11  1  0
 10 14  1  0
 11 13  1  0
 12 10  2  0
 15 17  1  0
 15 14  1  0
 16 27  2  0
 17 22  1  0
 18 26  1  0
 18 28  1  0
 19 25  1  0
 19 21  1  0
 20 26  1  0
 21 20  1  0
 22 21  2  0
 23 24  1  0
 23 17  2  0
 24 19  2  0
 25 18  1  0
 26 16  1  0
 28 30  2  0
 29 28  1  0
 31 29  1  0
 32 41  2  0
 32 37  1  0
 33 29  1  0
 33 37  1  0
 34 33  1  0
 35 36  1  0
 35 34  1  0
 36 32  1  0
 37 38  2  0
 38 39  1  0
 40 39  2  0
 41 40  1  0
 42 16  1  0
 42 47  1  0
 42 43  1  0
 43 46  1  1
 43 44  1  0
 45 43  1  0
 47 50  1  0
 48 52  1  0
 48 47  1  0
 49 48  2  0
 52 51  1  0
 54 52  1  0
 54 55  1  0
 54 53  1  0
 57 64  2  0
 58 63  1  0
 59 60  1  0
 59 58  1  0
 61 60  1  0
 61 69  1  0
 61 62  1  0
 63 57  1  0
 63 62  1  0
 65 56  1  0
 65 57  1  0
 66 67  2  0
 67 68  1  0
 67 86  1  0
 68 71  1  0
 69 66  1  0
 69 70  1  0
 70 68  2  0
 71 72  1  0
 72 73  2  0
 74 77  1  0
 74 73  1  0
 75 74  2  0
 76 75  1  0
 76 71  2  0
 77 78  1  0
 78 79  1  0
 79 80  2  0
 81 80  1  0
 81 85  1  0
 82 81  2  0
 83 78  2  0
 83 82  1  0
 84 83  1  0
 86 87  1  0
 87 90  1  0
 87 89  1  0
 88 86  2  0
 91 66  1  0
 92 91  1  0
 93 91  1  0
 94 95  1  0
 95 65  1  0
M  ISO  4  14 101  15 101  57 100  65 100
M  END
>  <TORSDO>  (68) 
F 20

>  <SCORE>  (68) 
-12.661

>  <name>  (68) 
67

>  <ligand_id>  (68) 
67

>  <original_smiles>  (68) 
[H]c1c([H])c([H])c2c(c1[H])C([H])([H])C([H])([H])C([H])([H])C2([H])N([H])C(=O)C1([H])N(C(=O)C([H])(N([H])C(=O)C([H])(N([H])C([H])([H])[H])C([H])([H])[H])C(C([H])([H])[H])(C([H])([H])[H])C([H])([H])[H])C([H])([H])c2c([H])c(OC([H])([H])C(=O)N([H])C3([H])C(=O)N4C([H])(SC([H])([H])C4([H])C([H])([H])N(C(=O)N4C([H])([H])C([H])([H])C([H])([H])C([H])(n5nc(-c6c([H])c([H])c(Oc7c([H])c([H])c(F)c([H])c7F)c([H])c6[H])c(C(=O)N([H])[H])c5N([H])[H])C4([H])[H])C([H])([H])C([H])([H])[H])C3([H])[H])c([H])c([H])c2C1([H])[H]

>  <smiles>  (68) 
[H]c1c([H])c([H])c2c(c1[H])C([H])([H])C([H])([H])C([H])([H])C2([H])N([H])C(=O)C1([H])N(C(=O)C([H])(N([H])C(=O)C([H])(N([H])C([H])([H])[H])C([H])([H])[H])C(C([H])([H])[H])(C([H])([H])[H])C([H])([H])[H])C([H])([H])c2c([H])c(OC([H])([H])C(=O)N([H])C3([H])C(=O)N4C([H])(SC([H])([H])C4([H])C([H])([H])N(C(=O)N4C([H])([H])C([H])([H])C([H])([H])C([H])(n5nc(-c6c([H])c([H])c(Oc7c([H])c([H])c(F)c([H])c7F)c([H])c6[H])c(C(=O)N([H])[H])c5N([H])[H])C4([H])[H])C([H])([H])C([H])([H])[H])C3([H])[H])c([H])c([H])c2C1([H])[H]

$$$$
68:0:0
     RDKit          3D

 95104  0  0  1  0  0  0  0  0999 V2000
  -31.5750  -17.1840   21.2720 C   0  0  0  0  0  3  0  0  0  0  0  0
  -31.7360  -18.5800   21.2080 C   0  0  0  0  0  3  0  0  0  0  0  0
  -29.2190  -17.5360   20.8900 C   0  0  0  0  0  3  0  0  0  0  0  0
  -30.2830  -16.6410   21.1020 C   0  0  0  0  0  0  0  0  0  0  0  0
  -30.6120  -19.3980   20.9760 C   0  0  0  0  0  0  0  0  0  0  0  0
  -31.3200  -22.9120   21.8700 C   0  0  0  0  0  2  0  0  0  0  0  0
  -31.8130  -21.4790   21.6160 C   0  0  0  0  0  2  0  0  0  0  0  0
  -29.5600  -21.6690   20.8210 C   0  0  0  0  0  2  0  0  0  0  0  0
  -29.8000  -22.7290   21.8970 C   0  0  0  0  0  3  0  0  0  0  0  0
  -29.3800  -18.8730   20.8160 N   0  0  0  0  0  0  0  0  0  0  0  0
  -30.7350  -20.8000   20.8940 N   0  0  0  0  0  0  0  0  0  0  0  0
  -30.6060  -14.3140   20.3810 C   0  0  0  0  0  0  0  0  0  0  0  0
  -30.2870  -12.1560   19.2370 C   0  0  0  0  0  2  0  0  0  0  0  0
  -29.3160  -12.3280   18.0520 C   0  0  0  0  0  2  0  0  0  0  0  0
  -27.8550  -12.1750   18.5150 C   0  0  0  0  0  2  0  0  0  0  0  0
  -27.5320  -13.0360   19.7650 C   0  0  0  0  0  3  0  0  0  0  0  0
  -28.6090  -12.8440   20.8580 C   0  0  0  0  0  2  0  0  0  0  0  0
  -29.9270  -13.1420   20.2650 N   0  0  0  0  0  0  0  0  0  0  0  0
  -31.6630  -14.5420   19.7870 O   0  0  0  0  0  0  0  0  0  0  0  0
  -30.0140  -15.2450   21.1450 N   0  0  0  0  0  0  0  0  0  0  0  0
  -29.1320  -14.9640   21.5460 H   0  0  0  0  0  0  0  0  0  0  0  0
  -25.1520  -13.6290   20.5520 C   0  0  0  0  0  0  0  0  0  0  0  0
  -24.0930  -12.8490   20.9340 C   0  0  0  0  0  0  0  0  0  0  0  0
  -24.5500  -11.4980   20.8560 C   0  0  0  0  0  0  0  0  0  0  0  0
  -26.1890  -12.7530   20.2720 N   0  0  0  0  0  0  0  0  0  0  0  0
  -25.8310  -11.4650   20.5100 N   0  0  0  0  0  0  0  0  0  0  0  0
  -23.8280  -10.2320   21.0350 C   0  0  0  0  0  0  0  0  0  0  0  0
  -24.2680   -9.2560   21.9570 C   0  0  0  0  0  3  0  0  0  0  0  0
  -23.5480   -8.0540   22.1250 C   0  0  0  0  0  3  0  0  0  0  0  0
  -22.3740   -7.8190   21.3700 C   0  0  0  0  0  0  0  0  0  0  0  0
  -21.9540   -8.7830   20.4370 C   0  0  0  0  0  3  0  0  0  0  0  0
  -22.6750   -9.9770   20.2680 C   0  0  0  0  0  3  0  0  0  0  0  0
  -21.6250   -6.6700   21.4470 O   0  0  0  0  0  0  0  0  0  0  0  0
  -21.5420   -5.9410   22.6060 C   0  0  0  0  0  0  0  0  0  0  0  0
  -21.0500   -6.5010   23.8060 C   0  0  0  0  0  3  0  0  0  0  0  0
  -20.9170   -5.6960   24.9550 C   0  0  0  0  0  3  0  0  0  0  0  0
  -21.2670   -4.3340   24.9060 C   0  0  0  0  0  0  0  0  0  0  0  0
  -21.7510   -3.7740   23.7120 C   0  0  0  0  0  3  0  0  0  0  0  0
  -21.8860   -4.5740   22.5650 C   0  0  0  0  0  0  0  0  0  0  0  0
  -22.3340   -4.0240   21.4090 F   0  0  0  0  0  0  0  0  0  0  0  0
  -21.1320   -3.5590   26.0080 F   0  0  0  0  0  0  0  0  0  0  0  0
  -22.7040  -13.3210   21.2600 C   0  0  0  0  0  0  0  0  0  0  0  0
  -22.0080  -12.6140   22.1430 N   0  0  0  0  0  0  0  0  0  0  0  0
  -22.2480  -14.3510   20.7660 O   0  0  0  0  0  0  0  0  0  0  0  0
  -22.3890  -11.7800   22.5640 H   0  0  0  0  0  0  0  0  0  0  0  0
  -21.0780  -12.9140   22.4020 H   0  0  0  0  0  0  0  0  0  0  0  0
  -25.3140  -15.0030   20.4010 N   0  0  0  0  0  0  0  0  0  0  0  0
  -24.5470  -15.6540   20.5350 H   0  0  0  0  0  0  0  0  0  0  0  0
  -26.1460  -15.4430   20.0300 H   0  0  0  0  0  0  0  0  0  0  0  0
  -28.9710  -24.7690   23.0070 C   0  0  0  0  0  1  0  0  0  0  0  0
  -28.9650  -23.9570   21.7650 N   0  0  1  0  0  4  0  0  0  0  0  0
  -28.0230  -23.5980   21.6990 H   0  0  0  0  0  0  0  0  0  0  0  0
  -29.1780  -24.7870   20.5390 C   0  0  0  0  0  2  0  0  0  0  0  0
  -27.8430  -25.3090   19.9750 C   0  0  0  0  0  2  0  0  0  0  0  0
  -28.0010  -26.5890   19.3570 O   0  0  0  0  0  0  0  0  0  0  0  0
  -24.4720  -31.5640   22.9740 C   0  0  0  0  0  0  0  0  0  0  0  0
  -26.8620  -27.3570   19.4260 C   0  0  0  0  0  0  0  0  0  0  0  0
  -23.1570  -30.3360   21.2760 C   0  0  0  0  0  3  0  0  0  0  0  0
  -24.5070  -28.8930   19.6620 C   0  0  0  0  0  0  0  0  0  0  0  0
  -25.6790  -30.6590   20.9920 C   0  0  0  0  0  2  0  0  0  0  0  0
  -25.7020  -29.3480   20.2360 C   0  0  0  0  0  0  0  0  0  0  0  0
  -26.8850  -28.5890   20.1100 C   0  0  0  0  0  3  0  0  0  0  0  0
  -25.6540  -26.9090   18.8460 C   0  0  0  0  0  3  0  0  0  0  0  0
  -24.4780  -27.6730   18.9630 C   0  0  0  0  0  3  0  0  0  0  0  0
  -23.2870  -29.7680   19.8370 C   0  0  0  0  0  2  0  0  0  0  0  0
  -24.4580  -30.8620   21.8060 N   0  0  0  0  0  0  0  0  0  0  0  0
  -23.4230  -31.8160   23.5830 O   0  0  0  0  0  0  0  0  0  0  0  0
  -22.5200  -29.2540   22.1750 C   0  0  0  0  0  0  0  0  0  0  0  0
  -21.1860  -29.1280   22.1040 N   0  0  0  0  0  0  0  0  0  0  0  0
  -23.2220  -28.5340   22.8900 O   0  0  0  0  0  0  0  0  0  0  0  0
  -20.6820  -29.7620   21.4980 H   0  0  0  0  0  0  0  0  0  0  0  0
  -17.7940  -28.0370   22.7000 C   0  0  0  0  0  0  0  0  0  0  0  0
  -20.3730  -28.1540   22.8300 C   0  0  0  0  0  3  0  0  0  0  0  0
  -20.3700  -26.7860   22.1100 C   0  0  0  0  0  2  0  0  0  0  0  0
  -19.1940  -26.6150   21.1430 C   0  0  0  0  0  2  0  0  0  0  0  0
  -17.8630  -26.7560   21.8870 C   0  0  0  0  0  2  0  0  0  0  0  0
  -18.9730  -28.7020   23.1290 C   0  0  0  0  0  0  0  0  0  0  0  0
  -18.8540  -29.9100   23.8510 C   0  0  0  0  0  3  0  0  0  0  0  0
  -17.5890  -30.4490   24.1490 C   0  0  0  0  0  3  0  0  0  0  0  0
  -16.4240  -29.7780   23.7350 C   0  0  0  0  0  3  0  0  0  0  0  0
  -16.5290  -28.5740   23.0150 C   0  0  0  0  0  3  0  0  0  0  0  0
  -25.8020  -32.1060   23.5870 C   0  0  0  0  0  3  0  0  0  0  0  0
  -26.3460  -31.2180   24.7720 C   0  0  1  0  0  0  0  0  0  0  0  0
  -25.2950  -30.9320   25.8690 C   0  0  0  0  0  1  0  0  0  0  0  0
  -26.8600  -29.8590   24.2420 C   0  0  0  0  0  1  0  0  0  0  0  0
  -27.5560  -31.9160   25.4360 C   0  0  0  0  0  1  0  0  0  0  0  0
  -25.5520  -33.4810   24.0380 N   0  0  0  0  0  0  0  0  0  0  0  0
  -25.8990  -34.5780   23.3520 C   0  0  0  0  0  0  0  0  0  0  0  0
  -26.5350  -34.5350   22.2960 O   0  0  0  0  0  0  0  0  0  0  0  0
  -24.9840  -33.5900   24.8650 H   0  0  0  0  0  0  0  0  0  0  0  0
  -24.2320  -36.4520   23.1840 C   0  0  0  0  0  1  0  0  0  0  0  0
  -25.4720  -35.9400   23.9320 C   0  0  0  0  0  3  0  0  0  0  0  0
  -27.6520  -36.6810   24.7860 C   0  0  0  0  0  1  0  0  0  0  0  0
  -26.5410  -36.9620   23.8800 N   0  0  0  0  0  0  0  0  0  0  0  0
  -26.1720  -37.8810   24.1060 H   0  0  0  0  0  0  0  0  0  0  0  0
  2  1  1  0
  3  4  1  0
  4 20  1  0
  4  1  2  0
  5  2  2  0
  6  9  1  0
  7  6  1  0
  8 11  1  0
  8  9  1  0
  9 51  1  0
 10  3  2  0
 10  5  1  0
 11  5  1  0
 11  7  1  0
 12 20  1  0
 13 18  1  0
 14 15  1  0
 14 13  1  0
 16 15  1  0
 16 25  1  0
 16 17  1  0
 18 12  1  0
 18 17  1  0
 19 12  2  0
 20 21  1  0
 22 23  2  0
 23 42  1  0
 24 23  1  0
 24 27  1  0
 25 26  1  0
 25 22  1  0
 26 24  2  0
 27 28  1  0
 28 29  2  0
 30 33  1  0
 30 29  1  0
 31 30  2  0
 32 31  1  0
 32 27  2  0
 33 34  1  0
 34 35  1  0
 35 36  2  0
 37 36  1  0
 37 41  1  0
 38 37  2  0
 39 34  2  0
 39 38  1  0
 40 39  1  0
 42 43  1  0
 43 46  1  0
 43 45  1  0
 44 42  2  0
 47 48  1  0
 47 22  1  0
 49 47  1  0
 51 50  1  0
 51 52  1  6
 53 51  1  0
 54 53  1  0
 55 57  1  0
 55 54  1  0
 56 67  2  0
 57 62  1  0
 58 66  1  0
 58 68  1  0
 59 65  1  0
 59 61  1  0
 60 66  1  0
 61 60  1  0
 62 61  2  0
 63 64  1  0
 63 57  2  0
 64 59  2  0
 65 58  1  0
 66 56  1  0
 68 70  2  0
 69 68  1  0
 71 69  1  0
 72 81  2  0
 72 77  1  0
 73 69  1  0
 73 77  1  0
 74 73  1  0
 75 76  1  0
 75 74  1  0
 76 72  1  0
 77 78  2  0
 78 79  1  0
 80 79  2  0
 81 80  1  0
 82 56  1  0
 82 87  1  0
 82 83  1  0
 83 86  1  1
 83 84  1  0
 85 83  1  0
 87 90  1  0
 88 92  1  0
 88 87  1  0
 89 88  2  0
 92 91  1  0
 94 92  1  0
 94 95  1  0
 94 93  1  0
M  ISO  4  12 100  20 100  54 101  55 101
M  END
>  <TORSDO>  (69) 
F 19

>  <SCORE>  (69) 
-13.257

>  <name>  (69) 
68

>  <ligand_id>  (69) 
68

>  <original_smiles>  (69) 
[H]c1nc(N2C([H])([H])C([H])([H])C([H])([N+]([H])(C([H])([H])[H])C([H])([H])C([H])([H])Oc3c([H])c([H])c4c(c3[H])C([H])([H])N(C(=O)C([H])(N([H])C(=O)C([H])(N([H])C([H])([H])[H])C([H])([H])[H])C(C([H])([H])[H])(C([H])([H])[H])C([H])([H])[H])C([H])(C(=O)N([H])C3([H])c5c([H])c([H])c([H])c([H])c5C([H])([H])C([H])([H])C3([H])[H])C4([H])[H])C2([H])[H])c([H])c([H])c1N([H])C(=O)N1C([H])([H])C([H])([H])C([H])([H])C([H])(n2nc(-c3c([H])c([H])c(Oc4c([H])c([H])c(F)c([H])c4F)c([H])c3[H])c(C(=O)N([H])[H])c2N([H])[H])C1([H])[H]

>  <smiles>  (69) 
[H]c1nc(N2C([H])([H])C([H])([H])C([H])([N+]([H])(C([H])([H])[H])C([H])([H])C([H])([H])Oc3c([H])c([H])c4c(c3[H])C([H])([H])N(C(=O)C([H])(N([H])C(=O)C([H])(N([H])C([H])([H])[H])C([H])([H])[H])C(C([H])([H])[H])(C([H])([H])[H])C([H])([H])[H])C([H])(C(=O)N([H])C3([H])c5c([H])c([H])c([H])c([H])c5C([H])([H])C([H])([H])C3([H])[H])C4([H])[H])C2([H])[H])c([H])c([H])c1N([H])C(=O)N1C([H])([H])C([H])([H])C([H])([H])C([H])(n2nc(-c3c([H])c([H])c(Oc4c([H])c([H])c(F)c([H])c4F)c([H])c3[H])c(C(=O)N([H])[H])c2N([H])[H])C1([H])[H]

$$$$
69:0:0
     RDKit          3D

 90 98  0  0  1  0  0  0  0  0999 V2000
  -28.5680  -20.3390   20.7820 C   0  0  0  0  0  3  0  0  0  0  0  0
  -30.6230  -20.0990   20.1530 C   0  0  0  0  0  3  0  0  0  0  0  0
  -29.1340  -21.5920   20.6360 C   0  0  0  0  0  0  0  0  0  0  0  0
  -30.4570  -21.4240   20.2370 N   0  0  0  0  0  0  0  0  0  0  0  0
  -29.5290  -19.3770   20.4450 N   0  0  0  0  0  0  0  0  0  0  0  0
  -28.5160  -22.8500   20.8350 N   0  0  0  0  0  0  0  0  0  0  0  0
  -27.5480  -22.8270   21.1500 H   0  0  0  0  0  0  0  0  0  0  0  0
  -28.9520  -24.1400   20.2630 C   0  0  0  0  0  2  0  0  0  0  0  0
  -28.2150  -25.3630   20.8990 C   0  0  0  0  0  2  0  0  0  0  0  0
  -28.3840  -26.6390   20.2270 O   0  0  0  0  0  0  0  0  0  0  0  0
  -24.5970  -31.9030   23.2430 C   0  0  0  0  0  0  0  0  0  0  0  0
  -27.2470  -27.4290   20.1920 C   0  0  0  0  0  0  0  0  0  0  0  0
  -23.3980  -30.4970   21.6010 C   0  0  0  0  0  3  0  0  0  0  0  0
  -24.8580  -28.9550   20.1820 C   0  0  0  0  0  0  0  0  0  0  0  0
  -25.9270  -30.8510   21.4110 C   0  0  0  0  0  2  0  0  0  0  0  0
  -26.0160  -29.4770   20.7730 C   0  0  0  0  0  0  0  0  0  0  0  0
  -27.2180  -28.7230   20.7700 C   0  0  0  0  0  3  0  0  0  0  0  0
  -26.0750  -26.9380   19.5790 C   0  0  0  0  0  3  0  0  0  0  0  0
  -24.8840  -27.6860   19.5810 C   0  0  0  0  0  3  0  0  0  0  0  0
  -23.6120  -29.8150   20.2230 C   0  0  0  0  0  2  0  0  0  0  0  0
  -24.6590  -31.0990   22.1420 N   0  0  0  0  0  0  0  0  0  0  0  0
  -23.5150  -32.1750   23.7800 O   0  0  0  0  0  0  0  0  0  0  0  0
  -22.7420  -29.4780   22.5620 C   0  0  0  0  0  0  0  0  0  0  0  0
  -21.4170  -29.3010   22.4370 N   0  0  0  0  0  0  0  0  0  0  0  0
  -23.4250  -28.8510   23.3760 O   0  0  0  0  0  0  0  0  0  0  0  0
  -20.9280  -29.8620   21.7540 H   0  0  0  0  0  0  0  0  0  0  0  0
  -18.0380  -28.1190   22.9430 C   0  0  0  0  0  0  0  0  0  0  0  0
  -20.5990  -28.3650   23.2080 C   0  0  0  0  0  3  0  0  0  0  0  0
  -20.6920  -26.9340   22.6290 C   0  0  0  0  0  2  0  0  0  0  0  0
  -19.5860  -26.6190   21.6170 C   0  0  0  0  0  2  0  0  0  0  0  0
  -18.2070  -26.7700   22.2650 C   0  0  0  0  0  2  0  0  0  0  0  0
  -19.1630  -28.8750   23.3710 C   0  0  0  0  0  0  0  0  0  0  0  0
  -18.9520  -30.1380   23.9650 C   0  0  0  0  0  3  0  0  0  0  0  0
  -17.6500  -30.6460   24.1340 C   0  0  0  0  0  3  0  0  0  0  0  0
  -16.5410  -29.8870   23.7220 C   0  0  0  0  0  3  0  0  0  0  0  0
  -16.7370  -28.6260   23.1330 C   0  0  0  0  0  3  0  0  0  0  0  0
  -25.8810  -32.5370   23.8640 C   0  0  0  0  0  3  0  0  0  0  0  0
  -25.5720  -33.9360   24.1900 N   0  0  0  0  0  0  0  0  0  0  0  0
  -25.9080  -34.9860   23.4280 C   0  0  0  0  0  0  0  0  0  0  0  0
  -26.5820  -34.8780   22.4010 O   0  0  0  0  0  0  0  0  0  0  0  0
  -24.9740  -34.0930   24.9890 H   0  0  0  0  0  0  0  0  0  0  0  0
  -24.1840  -36.7790   23.0570 C   0  0  0  0  0  1  0  0  0  0  0  0
  -25.4170  -36.3760   23.8800 C   0  0  0  0  0  3  0  0  0  0  0  0
  -27.5480  -37.2580   24.7230 C   0  0  0  0  0  1  0  0  0  0  0  0
  -26.4520  -37.4270   23.7720 N   0  0  0  0  0  0  0  0  0  0  0  0
  -26.0460  -38.3480   23.9170 H   0  0  0  0  0  0  0  0  0  0  0  0
  -26.3980  -31.7690   25.1420 C   0  0  1  0  0  0  0  0  0  0  0  0
  -25.3050  -31.5330   26.2110 C   0  0  0  0  0  1  0  0  0  0  0  0
  -26.9820  -30.3910   24.7520 C   0  0  0  0  0  1  0  0  0  0  0  0
  -27.5460  -32.5660   25.8040 C   0  0  0  0  0  1  0  0  0  0  0  0
  -29.3250  -17.9180   20.3190 C   0  0  0  0  0  2  0  0  0  0  0  0
  -30.3110  -16.9930   21.0960 C   0  0  0  0  0  2  0  0  0  0  0  0
  -30.6570  -14.5400   20.4640 C   0  0  0  0  0  0  0  0  0  0  0  0
  -30.3740  -12.3710   19.3030 C   0  0  0  0  0  2  0  0  0  0  0  0
  -29.4320  -12.5740   18.0980 C   0  0  0  0  0  2  0  0  0  0  0  0
  -27.9550  -12.4360   18.5230 C   0  0  0  0  0  2  0  0  0  0  0  0
  -27.6190  -13.2620   19.7960 C   0  0  0  0  0  3  0  0  0  0  0  0
  -28.6760  -13.0340   20.9000 C   0  0  0  0  0  2  0  0  0  0  0  0
  -29.9960  -13.3530   20.3350 N   0  0  0  0  0  0  0  0  0  0  0  0
  -31.7810  -14.7290   19.9920 O   0  0  0  0  0  0  0  0  0  0  0  0
  -29.9450  -15.5540   21.0030 N   0  0  0  0  0  0  0  0  0  0  0  0
  -29.0310  -15.3050   21.3540 H   0  0  0  0  0  0  0  0  0  0  0  0
  -25.2190  -13.8690   20.5020 C   0  0  0  0  0  0  0  0  0  0  0  0
  -24.1520  -13.0980   20.8730 C   0  0  0  0  0  0  0  0  0  0  0  0
  -24.6120  -11.7470   20.8470 C   0  0  0  0  0  0  0  0  0  0  0  0
  -26.2650  -12.9880   20.2730 N   0  0  0  0  0  0  0  0  0  0  0  0
  -25.9030  -11.7070   20.5380 N   0  0  0  0  0  0  0  0  0  0  0  0
  -23.8880  -10.4840   21.0400 C   0  0  0  0  0  0  0  0  0  0  0  0
  -24.3260   -9.5160   21.9700 C   0  0  0  0  0  3  0  0  0  0  0  0
  -23.6000   -8.3180   22.1530 C   0  0  0  0  0  3  0  0  0  0  0  0
  -22.4210   -8.0810   21.4040 C   0  0  0  0  0  0  0  0  0  0  0  0
  -22.0030   -9.0390   20.4640 C   0  0  0  0  0  3  0  0  0  0  0  0
  -22.7300  -10.2260   20.2800 C   0  0  0  0  0  3  0  0  0  0  0  0
  -21.6680   -6.9360   21.4950 O   0  0  0  0  0  0  0  0  0  0  0  0
  -21.6310   -6.1880   22.6450 C   0  0  0  0  0  0  0  0  0  0  0  0
  -21.2200   -6.7390   23.8790 C   0  0  0  0  0  3  0  0  0  0  0  0
  -21.1290   -5.9180   25.0200 C   0  0  0  0  0  3  0  0  0  0  0  0
  -21.4380   -4.5470   24.9290 C   0  0  0  0  0  0  0  0  0  0  0  0
  -21.8420   -3.9960   23.7000 C   0  0  0  0  0  3  0  0  0  0  0  0
  -21.9350   -4.8150   22.5610 C   0  0  0  0  0  0  0  0  0  0  0  0
  -22.3030   -4.2750   21.3730 F   0  0  0  0  0  0  0  0  0  0  0  0
  -21.3440   -3.7570   26.0230 F   0  0  0  0  0  0  0  0  0  0  0  0
  -22.7540  -13.5760   21.1430 C   0  0  0  0  0  0  0  0  0  0  0  0
  -22.0240  -12.8820   22.0110 N   0  0  0  0  0  0  0  0  0  0  0  0
  -22.3170  -14.6010   20.6220 O   0  0  0  0  0  0  0  0  0  0  0  0
  -22.3920  -12.0550   22.4580 H   0  0  0  0  0  0  0  0  0  0  0  0
  -21.0870  -13.1860   22.2320 H   0  0  0  0  0  0  0  0  0  0  0  0
  -25.3870  -15.2390   20.3180 N   0  0  0  0  0  0  0  0  0  0  0  0
  -24.6230  -15.8970   20.4210 H   0  0  0  0  0  0  0  0  0  0  0  0
  -26.2360  -15.6700   19.9750 H   0  0  0  0  0  0  0  0  0  0  0  0
  2  4  2  0
  2  5  1  0
  3  1  2  0
  3  6  1  0
  4  3  1  0
  5  1  1  0
  6  7  1  0
  8  6  1  0
  8  9  1  0
 10  9  1  0
 11 22  2  0
 12 10  1  0
 12 17  1  0
 13 21  1  0
 13 23  1  0
 14 20  1  0
 14 16  1  0
 15 21  1  0
 16 15  1  0
 17 16  2  0
 18 19  1  0
 18 12  2  0
 19 14  2  0
 20 13  1  0
 21 11  1  0
 23 25  2  0
 24 23  1  0
 26 24  1  0
 27 36  2  0
 27 32  1  0
 28 24  1  0
 28 32  1  0
 29 28  1  0
 30 31  1  0
 30 29  1  0
 31 27  1  0
 32 33  2  0
 33 34  1  0
 35 34  2  0
 36 35  1  0
 37 11  1  0
 37 38  1  0
 37 47  1  0
 38 41  1  0
 39 43  1  0
 39 38  1  0
 40 39  2  0
 43 42  1  0
 45 43  1  0
 45 46  1  0
 45 44  1  0
 47 50  1  1
 47 48  1  0
 49 47  1  0
 51  5  1  0
 51 52  1  0
 53 61  1  0
 54 59  1  0
 55 56  1  0
 55 54  1  0
 57 56  1  0
 57 66  1  0
 57 58  1  0
 59 53  1  0
 59 58  1  0
 60 53  2  0
 61 52  1  0
 61 62  1  0
 63 64  2  0
 64 83  1  0
 65 64  1  0
 65 68  1  0
 66 63  1  0
 66 67  1  0
 67 65  2  0
 68 69  1  0
 69 70  2  0
 71 74  1  0
 71 70  1  0
 72 71  2  0
 73 72  1  0
 73 68  2  0
 74 75  1  0
 75 76  1  0
 76 77  2  0
 78 77  1  0
 78 82  1  0
 79 78  2  0
 80 75  2  0
 80 79  1  0
 81 80  1  0
 83 84  1  0
 84 87  1  0
 84 86  1  0
 85 83  2  0
 88 89  1  0
 88 63  1  0
 90 88  1  0
M  ISO  4   9 101  10 101  53 100  61 100
M  END
>  <TORSDO>  (70) 
F 21

>  <SCORE>  (70) 
-13.581

>  <name>  (70) 
69

>  <ligand_id>  (70) 
69

>  <original_smiles>  (70) 
[H]c1c([H])c([H])c2c(c1[H])C([H])([H])C([H])([H])C([H])([H])C2([H])N([H])C(=O)C1([H])N(C(=O)C([H])(N([H])C(=O)C([H])(N([H])C([H])([H])[H])C([H])([H])[H])C(C([H])([H])[H])(C([H])([H])[H])C([H])([H])[H])C([H])([H])c2c([H])c(OC([H])([H])C([H])([H])N([H])c3nc([H])n(C([H])([H])C([H])([H])N([H])C(=O)N4C([H])([H])C([H])([H])C([H])([H])C([H])(n5nc(-c6c([H])c([H])c(Oc7c([H])c([H])c(F)c([H])c7F)c([H])c6[H])c(C(=O)N([H])[H])c5N([H])[H])C4([H])[H])c3[H])c([H])c([H])c2C1([H])[H]

>  <smiles>  (70) 
[H]c1c([H])c([H])c2c(c1[H])C([H])([H])C([H])([H])C([H])([H])C2([H])N([H])C(=O)C1([H])N(C(=O)C([H])(N([H])C(=O)C([H])(N([H])C([H])([H])[H])C([H])([H])[H])C(C([H])([H])[H])(C([H])([H])[H])C([H])([H])[H])C([H])([H])c2c([H])c(OC([H])([H])C([H])([H])N([H])c3nc([H])n(C([H])([H])C([H])([H])N([H])C(=O)N4C([H])([H])C([H])([H])C([H])([H])C([H])(n5nc(-c6c([H])c([H])c(Oc7c([H])c([H])c(F)c([H])c7F)c([H])c6[H])c(C(=O)N([H])[H])c5N([H])[H])C4([H])[H])c3[H])c([H])c([H])c2C1([H])[H]

$$$$
70:0:0
     RDKit          3D

 93102  0  0  1  0  0  0  0  0999 V2000
  -29.5090  -23.7960   22.2090 C   0  0  0  0  0  2  0  0  0  0  0  0
  -29.1310  -23.8270   19.7100 C   0  0  0  0  0  2  0  0  0  0  0  0
  -30.3380  -22.5170   22.0320 C   0  0  0  0  0  2  0  0  0  0  0  0
  -29.9640  -22.5260   19.6070 C   0  0  0  0  0  2  0  0  0  0  0  0
  -29.4990  -24.6870   20.9450 C   0  0  0  0  0  3  0  0  0  0  0  0
  -29.8770  -21.7790   20.8610 N   0  0  0  0  0  0  0  0  0  0  0  0
  -30.0350  -18.2420   21.9910 C   0  0  0  0  0  3  0  0  0  0  0  0
  -31.7520  -18.5770   20.2980 C   0  0  0  0  0  3  0  0  0  0  0  0
  -29.6040  -19.5720   21.8110 C   0  0  0  0  0  3  0  0  0  0  0  0
  -31.3140  -19.9070   20.1110 C   0  0  0  0  0  3  0  0  0  0  0  0
  -31.1350  -17.7490   21.2620 C   0  0  0  0  0  0  0  0  0  0  0  0
  -30.2560  -20.4250   20.8930 C   0  0  0  0  0  0  0  0  0  0  0  0
  -31.6960  -16.3690   21.5740 C   0  0  0  0  0  2  0  0  0  0  0  0
  -31.2540  -14.4620   20.0410 C   0  0  0  0  0  0  0  0  0  0  0  0
  -30.7730  -12.3520   18.8520 C   0  0  0  0  0  2  0  0  0  0  0  0
  -29.7860  -12.5640   17.6890 C   0  0  0  0  0  2  0  0  0  0  0  0
  -28.3300  -12.4860   18.1830 C   0  0  0  0  0  2  0  0  0  0  0  0
  -28.0780  -13.3720   19.4310 C   0  0  0  0  0  3  0  0  0  0  0  0
  -29.1620  -13.1240   20.5020 C   0  0  0  0  0  2  0  0  0  0  0  0
  -30.4850  -13.3530   19.8910 N   0  0  0  0  0  0  0  0  0  0  0  0
  -32.2500  -14.6950   19.3490 O   0  0  0  0  0  0  0  0  0  0  0  0
  -30.9010  -15.2640   21.0520 N   0  0  0  0  0  0  0  0  0  0  0  0
  -30.0860  -14.9930   21.5810 H   0  0  0  0  0  0  0  0  0  0  0  0
  -25.7460  -14.1010   20.2480 C   0  0  0  0  0  0  0  0  0  0  0  0
  -24.6560  -13.3810   20.6570 C   0  0  0  0  0  0  0  0  0  0  0  0
  -25.0440  -12.0070   20.5960 C   0  0  0  0  0  0  0  0  0  0  0  0
  -26.7340  -13.1680   19.9660 N   0  0  0  0  0  0  0  0  0  0  0  0
  -26.3150  -11.9040   20.2300 N   0  0  0  0  0  0  0  0  0  0  0  0
  -24.2630  -10.7820   20.8070 C   0  0  0  0  0  0  0  0  0  0  0  0
  -24.6580   -9.8090   21.7510 C   0  0  0  0  0  3  0  0  0  0  0  0
  -23.8820   -8.6470   21.9500 C   0  0  0  0  0  3  0  0  0  0  0  0
  -22.6960   -8.4500   21.2030 C   0  0  0  0  0  0  0  0  0  0  0  0
  -22.3200   -9.4100   20.2470 C   0  0  0  0  0  3  0  0  0  0  0  0
  -23.0970  -10.5640   20.0480 C   0  0  0  0  0  3  0  0  0  0  0  0
  -21.8920   -7.3420   21.3100 O   0  0  0  0  0  0  0  0  0  0  0  0
  -21.7700   -6.6510   22.4900 C   0  0  0  0  0  0  0  0  0  0  0  0
  -21.3350   -7.2790   23.6780 C   0  0  0  0  0  3  0  0  0  0  0  0
  -21.1580   -6.5180   24.8510 C   0  0  0  0  0  3  0  0  0  0  0  0
  -21.4040   -5.1310   24.8370 C   0  0  0  0  0  0  0  0  0  0  0  0
  -21.8300   -4.5050   23.6520 C   0  0  0  0  0  3  0  0  0  0  0  0
  -22.0090   -5.2620   22.4820 C   0  0  0  0  0  0  0  0  0  0  0  0
  -22.4000   -4.6500   21.3380 F   0  0  0  0  0  0  0  0  0  0  0  0
  -21.2260   -4.3990   25.9610 F   0  0  0  0  0  0  0  0  0  0  0  0
  -23.3000  -13.9260   20.9990 C   0  0  0  0  0  0  0  0  0  0  0  0
  -22.5820  -13.2640   21.9010 N   0  0  0  0  0  0  0  0  0  0  0  0
  -22.8860  -14.9730   20.5030 O   0  0  0  0  0  0  0  0  0  0  0  0
  -22.9310  -12.4150   22.3240 H   0  0  0  0  0  0  0  0  0  0  0  0
  -21.6720  -13.6090   22.1740 H   0  0  0  0  0  0  0  0  0  0  0  0
  -25.9790  -15.4610   20.0730 N   0  0  0  0  0  0  0  0  0  0  0  0
  -25.2620  -16.1640   20.2180 H   0  0  0  0  0  0  0  0  0  0  0  0
  -26.8490  -15.8500   19.7290 H   0  0  0  0  0  0  0  0  0  0  0  0
  -28.5190  -25.8600   21.1720 C   0  0  0  0  0  2  0  0  0  0  0  0
  -28.5300  -26.8320   20.1280 O   0  0  0  0  0  0  0  0  0  0  0  0
  -24.6350  -31.9170   23.2390 C   0  0  0  0  0  0  0  0  0  0  0  0
  -27.3750  -27.5740   20.1200 C   0  0  0  0  0  0  0  0  0  0  0  0
  -23.4590  -30.5050   21.5800 C   0  0  0  0  0  3  0  0  0  0  0  0
  -24.9480  -29.0120   20.1450 C   0  0  0  0  0  0  0  0  0  0  0  0
  -25.9750  -30.9210   21.3920 C   0  0  0  0  0  2  0  0  0  0  0  0
  -26.0920  -29.5590   20.7410 C   0  0  0  0  0  0  0  0  0  0  0  0
  -27.3110  -28.8460   20.7310 C   0  0  0  0  0  3  0  0  0  0  0  0
  -26.2190  -27.0330   19.5220 C   0  0  0  0  0  3  0  0  0  0  0  0
  -25.0050  -27.7440   19.5330 C   0  0  0  0  0  3  0  0  0  0  0  0
  -23.6840  -29.8390   20.1960 C   0  0  0  0  0  2  0  0  0  0  0  0
  -24.7070  -31.1290   22.1280 N   0  0  0  0  0  0  0  0  0  0  0  0
  -23.5460  -32.1610   23.7790 O   0  0  0  0  0  0  0  0  0  0  0  0
  -22.8270  -29.4630   22.5300 C   0  0  0  0  0  0  0  0  0  0  0  0
  -21.5060  -29.2570   22.3950 N   0  0  0  0  0  0  0  0  0  0  0  0
  -23.5200  -28.8460   23.3420 O   0  0  0  0  0  0  0  0  0  0  0  0
  -21.0070  -29.8100   21.7130 H   0  0  0  0  0  0  0  0  0  0  0  0
  -18.1560  -27.9840   22.8470 C   0  0  0  0  0  0  0  0  0  0  0  0
  -20.7040  -28.2970   23.1530 C   0  0  0  0  0  3  0  0  0  0  0  0
  -20.8470  -26.8700   22.5740 C   0  0  0  0  0  2  0  0  0  0  0  0
  -19.7650  -26.5250   21.5460 C   0  0  0  0  0  2  0  0  0  0  0  0
  -18.3720  -26.6380   22.1730 C   0  0  0  0  0  2  0  0  0  0  0  0
  -19.2510  -28.7690   23.2930 C   0  0  0  0  0  0  0  0  0  0  0  0
  -18.9970  -30.0250   23.8820 C   0  0  0  0  0  3  0  0  0  0  0  0
  -17.6790  -30.4980   24.0310 C   0  0  0  0  0  3  0  0  0  0  0  0
  -16.5970  -29.7070   23.6060 C   0  0  0  0  0  3  0  0  0  0  0  0
  -16.8370  -28.4530   23.0180 C   0  0  0  0  0  3  0  0  0  0  0  0
  -25.9080  -32.5660   23.8650 C   0  0  0  0  0  3  0  0  0  0  0  0
  -26.4230  -31.8070   25.1480 C   0  0  1  0  0  0  0  0  0  0  0  0
  -25.3230  -31.5570   26.2060 C   0  0  0  0  0  1  0  0  0  0  0  0
  -27.0300  -30.4390   24.7630 C   0  0  0  0  0  1  0  0  0  0  0  0
  -27.5540  -32.6200   25.8210 C   0  0  0  0  0  1  0  0  0  0  0  0
  -25.5810  -33.9620   24.1820 N   0  0  0  0  0  0  0  0  0  0  0  0
  -25.9170  -35.0120   23.4200 C   0  0  0  0  0  0  0  0  0  0  0  0
  -26.6030  -34.9070   22.3990 O   0  0  0  0  0  0  0  0  0  0  0  0
  -24.9770  -34.1180   24.9740 H   0  0  0  0  0  0  0  0  0  0  0  0
  -24.1810  -36.7860   23.0200 C   0  0  0  0  0  1  0  0  0  0  0  0
  -25.4070  -36.3970   23.8610 C   0  0  0  0  0  3  0  0  0  0  0  0
  -27.5180  -37.3000   24.7280 C   0  0  0  0  0  1  0  0  0  0  0  0
  -26.4310  -37.4610   23.7660 N   0  0  0  0  0  0  0  0  0  0  0  0
  -26.0140  -38.3760   23.9090 H   0  0  0  0  0  0  0  0  0  0  0  0
  2  5  1  0
  3  1  1  0
  4  2  1  0
  4  6  1  0
  5 52  1  0
  5  1  1  0
  6 12  1  0
  6  3  1  0
  8 11  1  0
  9  7  1  0
 10  8  2  0
 10 12  1  0
 11 13  1  0
 11  7  2  0
 12  9  2  0
 14 22  1  0
 15 20  1  0
 16 17  1  0
 16 15  1  0
 18 17  1  0
 18 27  1  0
 18 19  1  0
 20 14  1  0
 20 19  1  0
 21 14  2  0
 22 13  1  0
 22 23  1  0
 24 25  2  0
 25 44  1  0
 26 25  1  0
 26 29  1  0
 27 28  1  0
 27 24  1  0
 28 26  2  0
 29 30  1  0
 30 31  2  0
 32 35  1  0
 32 31  1  0
 33 32  2  0
 34 33  1  0
 34 29  2  0
 35 36  1  0
 36 37  1  0
 37 38  2  0
 39 38  1  0
 39 43  1  0
 40 39  2  0
 41 36  2  0
 41 40  1  0
 42 41  1  0
 44 45  1  0
 45 48  1  0
 45 47  1  0
 46 44  2  0
 49 50  1  0
 49 24  1  0
 51 49  1  0
 53 52  1  0
 54 65  2  0
 55 53  1  0
 55 60  1  0
 56 64  1  0
 56 66  1  0
 57 63  1  0
 57 59  1  0
 58 64  1  0
 59 58  1  0
 60 59  2  0
 61 62  1  0
 61 55  2  0
 62 57  2  0
 63 56  1  0
 64 54  1  0
 66 68  2  0
 67 66  1  0
 69 67  1  0
 70 79  2  0
 70 75  1  0
 71 67  1  0
 71 75  1  0
 72 71  1  0
 73 74  1  0
 73 72  1  0
 74 70  1  0
 75 76  2  0
 76 77  1  0
 78 77  2  0
 79 78  1  0
 80 54  1  0
 80 85  1  0
 80 81  1  0
 81 84  1  1
 81 82  1  0
 83 81  1  0
 85 88  1  0
 86 90  1  0
 86 85  1  0
 87 86  2  0
 90 89  1  0
 92 90  1  0
 92 93  1  0
 92 91  1  0
M  ISO  4  14 100  22 100  52 101  53 101
M  END
>  <TORSDO>  (71) 
F 19

>  <SCORE>  (71) 
-12.844

>  <name>  (71) 
70

>  <ligand_id>  (71) 
70

>  <original_smiles>  (71) 
[H]c1c([H])c([H])c2c(c1[H])C([H])([H])C([H])([H])C([H])([H])C2([H])N([H])C(=O)C1([H])N(C(=O)C([H])(N([H])C(=O)C([H])(N([H])C([H])([H])[H])C([H])([H])[H])C(C([H])([H])[H])(C([H])([H])[H])C([H])([H])[H])C([H])([H])c2c([H])c(OC([H])([H])C3([H])C([H])([H])C([H])([H])N(c4c([H])c([H])c(C([H])([H])N([H])C(=O)N5C([H])([H])C([H])([H])C([H])([H])C([H])(n6nc(-c7c([H])c([H])c(Oc8c([H])c([H])c(F)c([H])c8F)c([H])c7[H])c(C(=O)N([H])[H])c6N([H])[H])C5([H])[H])c([H])c4[H])C([H])([H])C3([H])[H])c([H])c([H])c2C1([H])[H]

>  <smiles>  (71) 
[H]c1c([H])c([H])c2c(c1[H])C([H])([H])C([H])([H])C([H])([H])C2([H])N([H])C(=O)C1([H])N(C(=O)C([H])(N([H])C(=O)C([H])(N([H])C([H])([H])[H])C([H])([H])[H])C(C([H])([H])[H])(C([H])([H])[H])C([H])([H])[H])C([H])([H])c2c([H])c(OC([H])([H])C3([H])C([H])([H])C([H])([H])N(c4c([H])c([H])c(C([H])([H])N([H])C(=O)N5C([H])([H])C([H])([H])C([H])([H])C([H])(n6nc(-c7c([H])c([H])c(Oc8c([H])c([H])c(F)c([H])c8F)c([H])c7[H])c(C(=O)N([H])[H])c6N([H])[H])C5([H])[H])c([H])c4[H])C([H])([H])C3([H])[H])c([H])c([H])c2C1([H])[H]

$$$$
71:0:0
     RDKit          3D

 90 98  0  0  1  0  0  0  0  0999 V2000
  -31.0370  -17.9100   19.9770 C   0  0  0  0  0  3  0  0  0  0  0  0
  -31.0130  -19.3290   19.8310 C   0  0  0  0  0  3  0  0  0  0  0  0
  -28.7300  -17.9770   20.6360 C   0  0  0  0  0  3  0  0  0  0  0  0
  -29.8880  -17.1860   20.3860 C   0  0  0  0  0  0  0  0  0  0  0  0
  -29.8590  -20.1220   20.0780 C   0  0  0  0  0  0  0  0  0  0  0  0
  -28.7050  -19.3980   20.4900 C   0  0  0  0  0  0  0  0  0  0  0  0
  -27.5490  -20.0520   20.7580 F   0  0  0  0  0  0  0  0  0  0  0  0
  -30.5980  -14.6850   20.1250 C   0  0  0  0  0  0  0  0  0  0  0  0
  -30.3560  -12.4480   19.0640 C   0  0  0  0  0  2  0  0  0  0  0  0
  -29.3690  -12.5900   17.8830 C   0  0  0  0  0  2  0  0  0  0  0  0
  -27.9110  -12.4310   18.3610 C   0  0  0  0  0  2  0  0  0  0  0  0
  -27.6000  -13.2790   19.6230 C   0  0  0  0  0  3  0  0  0  0  0  0
  -28.6980  -13.1110   20.6970 C   0  0  0  0  0  2  0  0  0  0  0  0
  -29.9860  -13.4590   20.0760 N   0  0  0  0  0  0  0  0  0  0  0  0
  -31.7390  -14.8470   19.6810 O   0  0  0  0  0  0  0  0  0  0  0  0
  -29.8100  -15.7270   20.5450 N   0  0  0  0  0  0  0  0  0  0  0  0
  -28.9370  -15.4010   20.9340 H   0  0  0  0  0  0  0  0  0  0  0  0
  -25.2380  -13.8750   20.4420 C   0  0  0  0  0  0  0  0  0  0  0  0
  -24.1830  -13.1000   20.8410 C   0  0  0  0  0  0  0  0  0  0  0  0
  -24.6380  -11.7470   20.7700 C   0  0  0  0  0  0  0  0  0  0  0  0
  -26.2690  -12.9940   20.1530 N   0  0  0  0  0  0  0  0  0  0  0  0
  -25.9140  -11.7080   20.4090 N   0  0  0  0  0  0  0  0  0  0  0  0
  -23.9120  -10.4850   20.9680 C   0  0  0  0  0  0  0  0  0  0  0  0
  -24.3650   -9.5090   21.8830 C   0  0  0  0  0  3  0  0  0  0  0  0
  -23.6420   -8.3110   22.0690 C   0  0  0  0  0  3  0  0  0  0  0  0
  -22.4500   -8.0820   21.3400 C   0  0  0  0  0  0  0  0  0  0  0  0
  -22.0150   -9.0480   20.4150 C   0  0  0  0  0  3  0  0  0  0  0  0
  -22.7400  -10.2360   20.2260 C   0  0  0  0  0  3  0  0  0  0  0  0
  -21.6950   -6.9380   21.4370 O   0  0  0  0  0  0  0  0  0  0  0  0
  -21.6530   -6.1990   22.5920 C   0  0  0  0  0  0  0  0  0  0  0  0
  -21.2070   -6.7480   23.8130 C   0  0  0  0  0  3  0  0  0  0  0  0
  -21.1150   -5.9340   24.9610 C   0  0  0  0  0  3  0  0  0  0  0  0
  -21.4580   -4.5710   24.8850 C   0  0  0  0  0  0  0  0  0  0  0  0
  -21.8970   -4.0200   23.6680 C   0  0  0  0  0  3  0  0  0  0  0  0
  -21.9910   -4.8310   22.5240 C   0  0  0  0  0  0  0  0  0  0  0  0
  -22.3940   -4.2910   21.3490 F   0  0  0  0  0  0  0  0  0  0  0  0
  -21.3620   -3.7860   25.9840 F   0  0  0  0  0  0  0  0  0  0  0  0
  -22.7990  -13.5780   21.1750 C   0  0  0  0  0  0  0  0  0  0  0  0
  -22.1060  -12.8780   22.0650 N   0  0  0  0  0  0  0  0  0  0  0  0
  -22.3450  -14.6100   20.6840 O   0  0  0  0  0  0  0  0  0  0  0  0
  -22.4870  -12.0440   22.4880 H   0  0  0  0  0  0  0  0  0  0  0  0
  -21.1790  -13.1820   22.3300 H   0  0  0  0  0  0  0  0  0  0  0  0
  -25.4000  -15.2470   20.2780 N   0  0  0  0  0  0  0  0  0  0  0  0
  -24.6340  -15.8960   20.4170 H   0  0  0  0  0  0  0  0  0  0  0  0
  -26.2220  -15.6840   19.8800 H   0  0  0  0  0  0  0  0  0  0  0  0
  -29.9680  -21.5220   19.9050 O   0  0  0  0  0  0  0  0  0  0  0  0
  -28.8750  -22.4670   20.1420 C   0  0  0  0  0  3  0  0  0  0  0  0
  -29.2270  -24.0020   19.8750 C   0  0  0  0  0  3  0  0  0  0  0  0
  -28.0550  -25.0580   20.0540 C   0  0  0  0  0  2  0  0  0  0  0  0
  -28.3030  -26.5080   19.8500 O   0  0  0  0  0  0  0  0  0  0  0  0
  -24.6700  -31.8010   23.1690 C   0  0  0  0  0  0  0  0  0  0  0  0
  -27.1900  -27.3650   19.8710 C   0  0  0  0  0  0  0  0  0  0  0  0
  -23.4280  -30.4940   21.4830 C   0  0  0  0  0  3  0  0  0  0  0  0
  -24.8410  -28.9990   19.9700 C   0  0  0  0  0  0  0  0  0  0  0  0
  -25.9690  -30.7950   21.2790 C   0  0  0  0  0  2  0  0  0  0  0  0
  -26.0250  -29.4470   20.5710 C   0  0  0  0  0  0  0  0  0  0  0  0
  -27.2020  -28.6430   20.5130 C   0  0  0  0  0  3  0  0  0  0  0  0
  -25.9840  -26.9800   19.2380 C   0  0  0  0  0  3  0  0  0  0  0  0
  -24.8230  -27.7710   19.2960 C   0  0  0  0  0  3  0  0  0  0  0  0
  -23.6170  -29.8840   20.0710 C   0  0  0  0  0  2  0  0  0  0  0  0
  -24.7090  -31.0450   22.0350 N   0  0  0  0  0  0  0  0  0  0  0  0
  -23.5980  -32.0660   23.7310 O   0  0  0  0  0  0  0  0  0  0  0  0
  -22.7670  -29.4390   22.4030 C   0  0  0  0  0  0  0  0  0  0  0  0
  -21.4370  -29.2880   22.2910 N   0  0  0  0  0  0  0  0  0  0  0  0
  -23.4500  -28.7630   23.1770 O   0  0  0  0  0  0  0  0  0  0  0  0
  -20.9460  -29.8860   21.6410 H   0  0  0  0  0  0  0  0  0  0  0  0
  -18.0450  -28.1480   22.8170 C   0  0  0  0  0  0  0  0  0  0  0  0
  -20.6160  -28.3280   23.0300 C   0  0  0  0  0  3  0  0  0  0  0  0
  -20.6640  -26.9300   22.3690 C   0  0  0  0  0  2  0  0  0  0  0  0
  -19.5260  -26.6940   21.3700 C   0  0  0  0  0  2  0  0  0  0  0  0
  -18.1670  -26.8370   22.0610 C   0  0  0  0  0  2  0  0  0  0  0  0
  -19.1950  -28.8560   23.2580 C   0  0  0  0  0  0  0  0  0  0  0  0
  -19.0250  -30.0880   23.9270 C   0  0  0  0  0  3  0  0  0  0  0  0
  -17.7390  -30.6110   24.1590 C   0  0  0  0  0  3  0  0  0  0  0  0
  -16.6040  -29.8990   23.7320 C   0  0  0  0  0  3  0  0  0  0  0  0
  -16.7580  -28.6700   23.0680 C   0  0  0  0  0  3  0  0  0  0  0  0
  -25.9690  -32.3900   23.8020 C   0  0  0  0  0  3  0  0  0  0  0  0
  -26.4820  -31.5600   25.0420 C   0  0  1  0  0  0  0  0  0  0  0  0
  -25.3960  -31.3020   26.1120 C   0  0  0  0  0  1  0  0  0  0  0  0
  -27.0380  -30.1900   24.5940 C   0  0  0  0  0  1  0  0  0  0  0  0
  -27.6520  -32.3110   25.7230 C   0  0  0  0  0  1  0  0  0  0  0  0
  -25.6830  -33.7790   24.1890 N   0  0  0  0  0  0  0  0  0  0  0  0
  -25.9950  -34.8530   23.4520 C   0  0  0  0  0  0  0  0  0  0  0  0
  -26.6230  -34.7770   22.3920 O   0  0  0  0  0  0  0  0  0  0  0  0
  -25.1190  -33.9120   25.0150 H   0  0  0  0  0  0  0  0  0  0  0  0
  -24.2570  -36.6600   23.2380 C   0  0  0  0  0  1  0  0  0  0  0  0
  -25.5380  -36.2290   23.9710 C   0  0  0  0  0  3  0  0  0  0  0  0
  -27.7130  -37.0900   24.7190 C   0  0  0  0  0  1  0  0  0  0  0  0
  -26.5670  -37.2830   23.8340 N   0  0  0  0  0  0  0  0  0  0  0  0
  -26.1720  -38.2000   24.0220 H   0  0  0  0  0  0  0  0  0  0  0  0
  1  4  1  0
  2  1  2  0
  2  5  1  0
  4 16  1  0
  4  3  2  0
  5  6  2  0
  6  3  1  0
  6  7  1  0
  8 16  1  0
  9 14  1  0
 10 11  1  0
 10  9  1  0
 12 11  1  0
 12 21  1  0
 12 13  1  0
 14  8  1  0
 14 13  1  0
 15  8  2  0
 16 17  1  0
 18 19  2  0
 19 38  1  0
 20 19  1  0
 20 23  1  0
 21 22  1  0
 21 18  1  0
 22 20  2  0
 23 24  1  0
 24 25  2  0
 26 29  1  0
 26 25  1  0
 27 26  2  0
 28 27  1  0
 28 23  2  0
 29 30  1  0
 30 31  1  0
 31 32  2  0
 33 32  1  0
 33 37  1  0
 34 33  2  0
 35 30  2  0
 35 34  1  0
 36 35  1  0
 38 39  1  0
 39 42  1  0
 39 41  1  0
 40 38  2  0
 43 44  1  0
 43 18  1  0
 45 43  1  0
 46  5  1  0
 46 47  1  0
 48 49  1  0
 48 47  2  0
 50 52  1  0
 50 49  1  0
 51 62  2  0
 52 57  1  0
 53 61  1  0
 53 63  1  0
 54 60  1  0
 54 56  1  0
 55 61  1  0
 56 55  1  0
 57 56  2  0
 58 59  1  0
 58 52  2  0
 59 54  2  0
 60 53  1  0
 61 51  1  0
 63 65  2  0
 64 63  1  0
 66 64  1  0
 67 76  2  0
 67 72  1  0
 68 64  1  0
 68 72  1  0
 69 68  1  0
 70 71  1  0
 70 69  1  0
 71 67  1  0
 72 73  2  0
 73 74  1  0
 75 74  2  0
 76 75  1  0
 77 51  1  0
 77 82  1  0
 77 78  1  0
 78 81  1  1
 78 79  1  0
 80 78  1  0
 82 85  1  0
 83 87  1  0
 83 82  1  0
 84 83  2  0
 87 86  1  0
 89 87  1  0
 89 90  1  0
 89 88  1  0
M  ISO  4   8 100  16 100  49 101  50 101
M  END
>  <TORSDO>  (72) 
F 20

>  <SCORE>  (72) 
-13.622

>  <name>  (72) 
71

>  <ligand_id>  (72) 
71

>  <original_smiles>  (72) 
[H]c1c([H])c([H])c2c(c1[H])C([H])([H])C([H])([H])C([H])([H])C2([H])N([H])C(=O)C1([H])N(C(=O)C([H])(N([H])C(=O)C([H])(N([H])C([H])([H])[H])C([H])([H])[H])C(C([H])([H])[H])(C([H])([H])[H])C([H])([H])[H])C([H])([H])c2c([H])c(OC([H])([H])C([H])([H])C([H])([H])Oc3c([H])c([H])c(N([H])C(=O)N4C([H])([H])C([H])([H])C([H])([H])C([H])(n5nc(-c6c([H])c([H])c(Oc7c([H])c([H])c(F)c([H])c7F)c([H])c6[H])c(C(=O)N([H])[H])c5N([H])[H])C4([H])[H])c([H])c3F)c([H])c([H])c2C1([H])[H]

>  <smiles>  (72) 
[H]c1c([H])c([H])c2c(c1[H])C([H])([H])C([H])([H])C([H])([H])C2([H])N([H])C(=O)C1([H])N(C(=O)C([H])(N([H])C(=O)C([H])(N([H])C([H])([H])[H])C([H])([H])[H])C(C([H])([H])[H])(C([H])([H])[H])C([H])([H])[H])C([H])([H])c2c([H])c(OC([H])([H])C([H])([H])C([H])([H])Oc3c([H])c([H])c(N([H])C(=O)N4C([H])([H])C([H])([H])C([H])([H])C([H])(n5nc(-c6c([H])c([H])c(Oc7c([H])c([H])c(F)c([H])c7F)c([H])c6[H])c(C(=O)N([H])[H])c5N([H])[H])C4([H])[H])c([H])c3F)c([H])c([H])c2C1([H])[H]

$$$$
72:0:0
     RDKit          3D

 90 98  0  0  1  0  0  0  0  0999 V2000
  -30.6620  -18.5820   20.4600 C   0  0  0  0  0  3  0  0  0  0  0  0
  -30.3710  -20.0190   20.4070 C   0  0  0  0  0  3  0  0  0  0  0  0
  -28.4640  -18.1370   19.7410 C   0  0  0  0  0  3  0  0  0  0  0  0
  -29.7020  -17.5530   20.1530 C   0  0  0  0  0  0  0  0  0  0  0  0
  -29.0980  -20.5920   20.0360 C   0  0  0  0  0  0  0  0  0  0  0  0
  -28.1730  -19.5490   19.6740 C   0  0  0  0  0  0  0  0  0  0  0  0
  -26.5780  -19.9780   19.1490 Cl  0  0  0  0  0  0  0  0  0  0  0  0
  -30.6530  -14.9440   20.0550 C   0  0  0  0  0  0  0  0  0  0  0  0
  -30.5320  -12.5890   19.1330 C   0  0  0  0  0  2  0  0  0  0  0  0
  -29.5460  -12.5570   17.9400 C   0  0  0  0  0  2  0  0  0  0  0  0
  -28.0940  -12.3650   18.4230 C   0  0  0  0  0  2  0  0  0  0  0  0
  -27.7390  -13.2950   19.6120 C   0  0  0  0  0  3  0  0  0  0  0  0
  -28.8350  -13.2720   20.7000 C   0  0  0  0  0  2  0  0  0  0  0  0
  -30.0960  -13.6700   20.0560 N   0  0  0  0  0  0  0  0  0  0  0  0
  -31.8300  -15.0740   19.7000 O   0  0  0  0  0  0  0  0  0  0  0  0
  -29.7760  -16.0290   20.2730 N   0  0  0  0  0  0  0  0  0  0  0  0
  -28.8760  -15.6420   20.5080 H   0  0  0  0  0  0  0  0  0  0  0  0
  -25.3960  -13.9070   20.4520 C   0  0  0  0  0  0  0  0  0  0  0  0
  -24.3350  -13.1450   20.8570 C   0  0  0  0  0  0  0  0  0  0  0  0
  -24.7740  -11.7880   20.7840 C   0  0  0  0  0  0  0  0  0  0  0  0
  -26.4140  -13.0150   20.1550 N   0  0  0  0  0  0  0  0  0  0  0  0
  -26.0500  -11.7340   20.4200 N   0  0  0  0  0  0  0  0  0  0  0  0
  -24.0330  -10.5340   20.9820 C   0  0  0  0  0  0  0  0  0  0  0  0
  -24.4760   -9.5520   21.8960 C   0  0  0  0  0  3  0  0  0  0  0  0
  -23.7360   -8.3650   22.0840 C   0  0  0  0  0  3  0  0  0  0  0  0
  -22.5390   -8.1510   21.3570 C   0  0  0  0  0  0  0  0  0  0  0  0
  -22.1160   -9.1220   20.4330 C   0  0  0  0  0  3  0  0  0  0  0  0
  -22.8570  -10.3010   20.2430 C   0  0  0  0  0  3  0  0  0  0  0  0
  -21.7710   -7.0180   21.4560 O   0  0  0  0  0  0  0  0  0  0  0  0
  -21.7230   -6.2780   22.6100 C   0  0  0  0  0  0  0  0  0  0  0  0
  -21.2860   -6.8320   23.8330 C   0  0  0  0  0  3  0  0  0  0  0  0
  -21.1870   -6.0180   24.9800 C   0  0  0  0  0  3  0  0  0  0  0  0
  -21.5130   -4.6510   24.9040 C   0  0  0  0  0  0  0  0  0  0  0  0
  -21.9440   -4.0970   23.6860 C   0  0  0  0  0  3  0  0  0  0  0  0
  -22.0450   -4.9070   22.5410 C   0  0  0  0  0  0  0  0  0  0  0  0
  -22.4390   -4.3630   21.3650 F   0  0  0  0  0  0  0  0  0  0  0  0
  -21.4110   -3.8670   26.0020 F   0  0  0  0  0  0  0  0  0  0  0  0
  -22.9580  -13.6410   21.1900 C   0  0  0  0  0  0  0  0  0  0  0  0
  -22.2560  -12.9490   22.0800 N   0  0  0  0  0  0  0  0  0  0  0  0
  -22.5150  -14.6770   20.6960 O   0  0  0  0  0  0  0  0  0  0  0  0
  -22.6280  -12.1110   22.5010 H   0  0  0  0  0  0  0  0  0  0  0  0
  -21.3330  -13.2620   22.3450 H   0  0  0  0  0  0  0  0  0  0  0  0
  -25.5720  -15.2770   20.2830 N   0  0  0  0  0  0  0  0  0  0  0  0
  -24.8000  -15.9240   20.4000 H   0  0  0  0  0  0  0  0  0  0  0  0
  -26.3580  -15.6850   19.7950 H   0  0  0  0  0  0  0  0  0  0  0  0
  -27.9830  -22.1440   21.4900 C   0  0  0  0  0  1  0  0  0  0  0  0
  -28.6410  -22.0050   20.1890 N   0  0  0  0  0  0  0  0  0  0  0  0
  -29.0560  -23.3870   19.6090 C   0  0  0  0  0  3  0  0  0  0  0  0
  -27.9810  -24.6820   19.6450 C   0  0  0  0  0  3  0  0  0  0  0  0
  -28.2570  -26.2030   19.5000 O   0  0  0  0  0  0  0  0  0  0  0  0
  -24.6880  -31.6110   23.0030 C   0  0  0  0  0  0  0  0  0  0  0  0
  -27.1830  -27.1600   19.5610 C   0  0  0  0  0  0  0  0  0  0  0  0
  -23.4380  -30.3330   21.3070 C   0  0  0  0  0  3  0  0  0  0  0  0
  -24.8440  -28.8750   19.7300 C   0  0  0  0  0  0  0  0  0  0  0  0
  -25.9840  -30.6280   21.0790 C   0  0  0  0  0  2  0  0  0  0  0  0
  -26.0400  -29.2880   20.3290 C   0  0  0  0  0  0  0  0  0  0  0  0
  -27.2120  -28.4480   20.2280 C   0  0  0  0  0  3  0  0  0  0  0  0
  -25.9570  -26.8510   18.9280 C   0  0  0  0  0  3  0  0  0  0  0  0
  -24.8130  -27.6710   19.0140 C   0  0  0  0  0  3  0  0  0  0  0  0
  -23.6160  -29.7580   19.8770 C   0  0  0  0  0  2  0  0  0  0  0  0
  -24.7250  -30.8740   21.8520 N   0  0  0  0  0  0  0  0  0  0  0  0
  -23.6190  -31.8520   23.5850 O   0  0  0  0  0  0  0  0  0  0  0  0
  -22.7940  -29.2540   22.2130 C   0  0  0  0  0  0  0  0  0  0  0  0
  -21.4630  -29.0830   22.1120 N   0  0  0  0  0  0  0  0  0  0  0  0
  -23.4920  -28.5760   22.9720 O   0  0  0  0  0  0  0  0  0  0  0  0
  -20.9560  -29.6830   21.4760 H   0  0  0  0  0  0  0  0  0  0  0  0
  -18.1000  -27.8470   22.6400 C   0  0  0  0  0  0  0  0  0  0  0  0
  -20.6680  -28.0910   22.8380 C   0  0  0  0  0  3  0  0  0  0  0  0
  -20.7470  -26.7060   22.1550 C   0  0  0  0  0  2  0  0  0  0  0  0
  -19.6100  -26.4570   21.1580 C   0  0  0  0  0  2  0  0  0  0  0  0
  -18.2510  -26.5520   21.8590 C   0  0  0  0  0  2  0  0  0  0  0  0
  -19.2340  -28.5770   23.0860 C   0  0  0  0  0  0  0  0  0  0  0  0
  -19.0370  -29.7900   23.7800 C   0  0  0  0  0  3  0  0  0  0  0  0
  -17.7380  -30.2730   24.0300 C   0  0  0  0  0  3  0  0  0  0  0  0
  -16.6190  -29.5400   23.5980 C   0  0  0  0  0  3  0  0  0  0  0  0
  -16.8020  -28.3280   22.9090 C   0  0  0  0  0  3  0  0  0  0  0  0
  -25.9850  -32.2040   23.6330 C   0  0  0  0  0  3  0  0  0  0  0  0
  -26.5420  -31.3420   24.8320 C   0  0  1  0  0  0  0  0  0  0  0  0
  -25.4830  -31.0250   25.9160 C   0  0  0  0  0  1  0  0  0  0  0  0
  -27.1100  -29.9970   24.3260 C   0  0  0  0  0  1  0  0  0  0  0  0
  -27.7140  -32.0870   25.5130 C   0  0  0  0  0  1  0  0  0  0  0  0
  -25.6790  -33.5710   24.0830 N   0  0  0  0  0  0  0  0  0  0  0  0
  -25.9560  -34.6840   23.3890 C   0  0  0  0  0  0  0  0  0  0  0  0
  -26.5630  -34.6670   22.3160 O   0  0  0  0  0  0  0  0  0  0  0  0
  -25.1310  -33.6570   24.9260 H   0  0  0  0  0  0  0  0  0  0  0  0
  -24.1830  -36.4680   23.2920 C   0  0  0  0  0  1  0  0  0  0  0  0
  -25.4860  -36.0280   23.9800 C   0  0  0  0  0  3  0  0  0  0  0  0
  -27.6600  -36.8970   24.7220 C   0  0  0  0  0  1  0  0  0  0  0  0
  -26.4940  -37.1050   23.8670 N   0  0  0  0  0  0  0  0  0  0  0  0
  -26.0860  -38.0060   24.1020 H   0  0  0  0  0  0  0  0  0  0  0  0
  2  1  1  0
  3  4  1  0
  4 16  1  0
  4  1  2  0
  5 47  1  0
  5  2  2  0
  6  3  2  0
  6  5  1  0
  7  6  1  0
  8 14  1  0
  8 16  1  0
  9 14  1  0
 10 11  1  0
 10  9  1  0
 12 11  1  0
 12 21  1  0
 12 13  1  0
 14 13  1  0
 15  8  2  0
 16 17  1  0
 18 19  2  0
 19 38  1  0
 20 19  1  0
 20 23  1  0
 21 22  1  0
 21 18  1  0
 22 20  2  0
 23 24  1  0
 24 25  2  0
 26 29  1  0
 26 25  1  0
 27 26  2  0
 28 27  1  0
 28 23  2  0
 29 30  1  0
 30 31  1  0
 31 32  2  0
 33 32  1  0
 33 37  1  0
 34 33  2  0
 35 30  2  0
 35 34  1  0
 36 35  1  0
 38 39  1  0
 39 42  1  0
 39 41  1  0
 40 38  2  0
 43 44  1  0
 43 18  1  0
 45 43  1  0
 47 46  1  0
 48 49  2  0
 48 47  1  0
 50 52  1  0
 50 49  1  0
 51 62  2  0
 52 57  1  0
 53 61  1  0
 53 63  1  0
 54 60  1  0
 54 56  1  0
 55 61  1  0
 56 55  1  0
 57 56  2  0
 58 59  1  0
 58 52  2  0
 59 54  2  0
 60 53  1  0
 61 51  1  0
 63 65  2  0
 64 63  1  0
 66 64  1  0
 67 76  2  0
 67 72  1  0
 68 64  1  0
 68 72  1  0
 69 68  1  0
 70 71  1  0
 70 69  1  0
 71 67  1  0
 72 73  2  0
 73 74  1  0
 75 74  2  0
 76 75  1  0
 77 51  1  0
 77 82  1  0
 77 78  1  0
 78 81  1  1
 78 79  1  0
 80 78  1  0
 82 85  1  0
 83 87  1  0
 83 82  1  0
 84 83  2  0
 87 86  1  0
 89 87  1  0
 89 90  1  0
 89 88  1  0
M  ISO  4   8 100  16 100  49 101  50 101
M  END
>  <TORSDO>  (73) 
F 19

>  <SCORE>  (73) 
-13.568

>  <name>  (73) 
72

>  <ligand_id>  (73) 
72

>  <original_smiles>  (73) 
[H]c1c([H])c([H])c2c(c1[H])C([H])([H])C([H])([H])C([H])([H])C2([H])N([H])C(=O)C1([H])N(C(=O)C([H])(N([H])C(=O)C([H])(N([H])C([H])([H])[H])C([H])([H])[H])C(C([H])([H])[H])(C([H])([H])[H])C([H])([H])[H])C([H])([H])c2c([H])c(OC([H])([H])C([H])([H])N(c3c([H])c([H])c(N([H])C(=O)N4C([H])([H])C([H])([H])C([H])([H])C([H])(n5nc(-c6c([H])c([H])c(Oc7c([H])c([H])c(F)c([H])c7F)c([H])c6[H])c(C(=O)N([H])[H])c5N([H])[H])C4([H])[H])c([H])c3Cl)C([H])([H])[H])c([H])c([H])c2C1([H])[H]

>  <smiles>  (73) 
[H]c1c([H])c([H])c2c(c1[H])C([H])([H])C([H])([H])C([H])([H])C2([H])N([H])C(=O)C1([H])N(C(=O)C([H])(N([H])C(=O)C([H])(N([H])C([H])([H])[H])C([H])([H])[H])C(C([H])([H])[H])(C([H])([H])[H])C([H])([H])[H])C([H])([H])c2c([H])c(OC([H])([H])C([H])([H])N(c3c([H])c([H])c(N([H])C(=O)N4C([H])([H])C([H])([H])C([H])([H])C([H])(n5nc(-c6c([H])c([H])c(Oc7c([H])c([H])c(F)c([H])c7F)c([H])c6[H])c(C(=O)N([H])[H])c5N([H])[H])C4([H])[H])c([H])c3Cl)C([H])([H])[H])c([H])c([H])c2C1([H])[H]

$$$$
73:0:0
     RDKit          3D

 88 96  0  0  1  0  0  0  0  0999 V2000
  -28.2700  -18.1960   20.5690 C   0  0  0  0  0  3  0  0  0  0  0  0
  -30.5440  -18.6580   20.1620 C   0  0  0  0  0  3  0  0  0  0  0  0
  -27.9690  -19.6050   20.5110 C   0  0  0  0  0  3  0  0  0  0  0  0
  -30.2360  -20.0970   20.1140 C   0  0  0  0  0  3  0  0  0  0  0  0
  -29.5660  -17.6210   20.3920 C   0  0  0  0  0  0  0  0  0  0  0  0
  -28.9130  -20.6520   20.2830 C   0  0  0  0  0  0  0  0  0  0  0  0
  -30.5640  -15.0240   20.2100 C   0  0  0  0  0  0  0  0  0  0  0  0
  -30.4770  -12.6790   19.2500 C   0  0  0  0  0  2  0  0  0  0  0  0
  -29.4990  -12.6500   18.0480 C   0  0  0  0  0  2  0  0  0  0  0  0
  -28.0470  -12.4370   18.5210 C   0  0  0  0  0  2  0  0  0  0  0  0
  -27.6750  -13.3480   19.7200 C   0  0  0  0  0  3  0  0  0  0  0  0
  -28.7640  -13.3150   20.8150 C   0  0  0  0  0  2  0  0  0  0  0  0
  -30.0230  -13.7410   20.1870 N   0  0  0  0  0  0  0  0  0  0  0  0
  -31.7370  -15.1720   19.8490 O   0  0  0  0  0  0  0  0  0  0  0  0
  -29.6830  -16.0950   20.4860 N   0  0  0  0  0  0  0  0  0  0  0  0
  -28.8050  -15.6890   20.7700 H   0  0  0  0  0  0  0  0  0  0  0  0
  -25.3170  -13.9250   20.5440 C   0  0  0  0  0  0  0  0  0  0  0  0
  -24.2620  -13.1460   20.9340 C   0  0  0  0  0  0  0  0  0  0  0  0
  -24.7190  -11.7940   20.8530 C   0  0  0  0  0  0  0  0  0  0  0  0
  -26.3480  -13.0470   20.2490 N   0  0  0  0  0  0  0  0  0  0  0  0
  -25.9980  -11.7600   20.4990 N   0  0  0  0  0  0  0  0  0  0  0  0
  -23.9930  -10.5300   21.0340 C   0  0  0  0  0  0  0  0  0  0  0  0
  -24.4280   -9.5560   21.9590 C   0  0  0  0  0  3  0  0  0  0  0  0
  -23.7020   -8.3560   22.1280 C   0  0  0  0  0  3  0  0  0  0  0  0
  -22.5270   -8.1240   21.3750 C   0  0  0  0  0  0  0  0  0  0  0  0
  -22.1100   -9.0890   20.4410 C   0  0  0  0  0  3  0  0  0  0  0  0
  -22.8370  -10.2790   20.2680 C   0  0  0  0  0  3  0  0  0  0  0  0
  -21.7730   -6.9790   21.4560 O   0  0  0  0  0  0  0  0  0  0  0  0
  -21.6880   -6.2530   22.6170 C   0  0  0  0  0  0  0  0  0  0  0  0
  -21.1540   -6.8030   23.8030 C   0  0  0  0  0  3  0  0  0  0  0  0
  -21.0220   -6.0010   24.9530 C   0  0  0  0  0  3  0  0  0  0  0  0
  -21.4140   -4.6490   24.9190 C   0  0  0  0  0  0  0  0  0  0  0  0
  -21.9400   -4.0980   23.7370 C   0  0  0  0  0  3  0  0  0  0  0  0
  -22.0740   -4.8980   22.5890 C   0  0  0  0  0  0  0  0  0  0  0  0
  -22.5620   -4.3560   21.4470 F   0  0  0  0  0  0  0  0  0  0  0  0
  -21.2790   -3.8750   26.0220 F   0  0  0  0  0  0  0  0  0  0  0  0
  -22.8760  -13.6220   21.2610 C   0  0  0  0  0  0  0  0  0  0  0  0
  -22.1760  -12.9110   22.1370 N   0  0  0  0  0  0  0  0  0  0  0  0
  -22.4260  -14.6590   20.7750 O   0  0  0  0  0  0  0  0  0  0  0  0
  -22.5530  -12.0730   22.5520 H   0  0  0  0  0  0  0  0  0  0  0  0
  -21.2460  -13.2120   22.3990 H   0  0  0  0  0  0  0  0  0  0  0  0
  -25.4790  -15.2980   20.3870 N   0  0  0  0  0  0  0  0  0  0  0  0
  -24.6990  -15.9360   20.5080 H   0  0  0  0  0  0  0  0  0  0  0  0
  -26.2670  -15.7220   19.9170 H   0  0  0  0  0  0  0  0  0  0  0  0
  -28.3850  -22.0170   20.2260 O   0  0  0  0  0  0  0  0  0  0  0  0
  -29.0060  -23.4170   20.2140 C   0  0  0  0  0  3  0  0  0  0  0  0
  -28.0130  -24.7620   20.0050 C   0  0  0  0  0  3  0  0  0  0  0  0
  -28.2930  -26.2800   20.1940 O   0  0  0  0  0  0  0  0  0  0  0  0
  -24.6160  -31.8830   23.2510 C   0  0  0  0  0  0  0  0  0  0  0  0
  -27.2250  -27.2480   20.1450 C   0  0  0  0  0  0  0  0  0  0  0  0
  -23.4230  -30.5100   21.5880 C   0  0  0  0  0  3  0  0  0  0  0  0
  -24.8820  -28.9690   20.1390 C   0  0  0  0  0  0  0  0  0  0  0  0
  -25.9760  -30.7940   21.4300 C   0  0  0  0  0  2  0  0  0  0  0  0
  -26.0590  -29.4160   20.7540 C   0  0  0  0  0  0  0  0  0  0  0  0
  -27.2310  -28.5720   20.7390 C   0  0  0  0  0  3  0  0  0  0  0  0
  -26.0180  -26.9000   19.4960 C   0  0  0  0  0  3  0  0  0  0  0  0
  -24.8750  -27.7250   19.4950 C   0  0  0  0  0  3  0  0  0  0  0  0
  -23.6490  -29.8570   20.1990 C   0  0  0  0  0  2  0  0  0  0  0  0
  -24.6910  -31.0830   22.1440 N   0  0  0  0  0  0  0  0  0  0  0  0
  -23.5270  -32.1530   23.7830 O   0  0  0  0  0  0  0  0  0  0  0  0
  -22.7510  -29.4810   22.5320 C   0  0  0  0  0  0  0  0  0  0  0  0
  -21.4240  -29.3020   22.3970 N   0  0  0  0  0  0  0  0  0  0  0  0
  -23.4240  -28.8480   23.3490 O   0  0  0  0  0  0  0  0  0  0  0  0
  -20.9370  -29.8650   21.7140 H   0  0  0  0  0  0  0  0  0  0  0  0
  -18.0440  -28.1000   22.8940 C   0  0  0  0  0  0  0  0  0  0  0  0
  -20.6060  -28.3490   23.1520 C   0  0  0  0  0  3  0  0  0  0  0  0
  -20.6990  -26.9300   22.5440 C   0  0  0  0  0  2  0  0  0  0  0  0
  -19.5900  -26.6350   21.5290 C   0  0  0  0  0  2  0  0  0  0  0  0
  -18.2130  -26.7680   22.1850 C   0  0  0  0  0  2  0  0  0  0  0  0
  -19.1680  -28.8500   23.3340 C   0  0  0  0  0  0  0  0  0  0  0  0
  -18.9540  -30.0990   23.9590 C   0  0  0  0  0  3  0  0  0  0  0  0
  -17.6520  -30.5970   24.1490 C   0  0  0  0  0  3  0  0  0  0  0  0
  -16.5430  -29.8440   23.7240 C   0  0  0  0  0  3  0  0  0  0  0  0
  -16.7410  -28.5970   23.1030 C   0  0  0  0  0  3  0  0  0  0  0  0
  -25.8900  -32.5140   23.8890 C   0  0  0  0  0  3  0  0  0  0  0  0
  -26.3890  -31.7410   25.1720 C   0  0  1  0  0  0  0  0  0  0  0  0
  -25.2800  -31.5020   26.2240 C   0  0  0  0  0  1  0  0  0  0  0  0
  -26.9790  -30.3650   24.7900 C   0  0  0  0  0  1  0  0  0  0  0  0
  -27.5300  -32.5350   25.8510 C   0  0  0  0  0  1  0  0  0  0  0  0
  -25.5790  -33.9130   24.2220 N   0  0  0  0  0  0  0  0  0  0  0  0
  -25.8850  -34.9680   23.4560 C   0  0  0  0  0  0  0  0  0  0  0  0
  -26.5270  -34.8660   22.4060 O   0  0  0  0  0  0  0  0  0  0  0  0
  -25.0080  -34.0650   25.0400 H   0  0  0  0  0  0  0  0  0  0  0  0
  -24.1320  -36.7490   23.1580 C   0  0  0  0  0  1  0  0  0  0  0  0
  -25.4060  -36.3550   23.9250 C   0  0  0  0  0  3  0  0  0  0  0  0
  -27.5520  -37.2720   24.6870 C   0  0  0  0  0  1  0  0  0  0  0  0
  -26.4250  -37.4160   23.7700 N   0  0  0  0  0  0  0  0  0  0  0  0
  -26.0150  -38.3350   23.9150 H   0  0  0  0  0  0  0  0  0  0  0  0
  2  5  1  0
  3  1  1  0
  4  2  2  0
  4  6  1  0
  5 15  1  0
  5  1  2  0
  6  3  2  0
  7 15  1  0
  8 13  1  0
  9 10  1  0
  9  8  1  0
 11 10  1  0
 11 20  1  0
 11 12  1  0
 13  7  1  0
 13 12  1  0
 14  7  2  0
 15 16  1  0
 17 18  2  0
 18 37  1  0
 19 18  1  0
 19 22  1  0
 20 21  1  0
 20 17  1  0
 21 19  2  0
 22 23  1  0
 23 24  2  0
 25 28  1  0
 25 24  1  0
 26 25  2  0
 27 26  1  0
 27 22  2  0
 28 29  1  0
 29 30  1  0
 30 31  2  0
 32 31  1  0
 32 36  1  0
 33 32  2  0
 34 29  2  0
 34 33  1  0
 35 34  1  0
 37 38  1  0
 38 41  1  0
 38 40  1  0
 39 37  2  0
 42 43  1  0
 42 17  1  0
 44 42  1  0
 45  6  1  0
 46 45  1  0
 47 48  1  0
 47 46  2  0
 49 60  2  0
 50 48  1  0
 50 55  1  0
 51 59  1  0
 51 61  1  0
 52 58  1  0
 52 54  1  0
 53 59  1  0
 54 53  1  0
 55 54  2  0
 56 50  2  0
 57 56  1  0
 57 52  2  0
 58 51  1  0
 59 49  1  0
 61 63  2  0
 62 61  1  0
 64 62  1  0
 65 74  2  0
 65 70  1  0
 66 62  1  0
 66 70  1  0
 67 66  1  0
 68 69  1  0
 68 67  1  0
 69 65  1  0
 70 71  2  0
 71 72  1  0
 73 72  2  0
 74 73  1  0
 75 49  1  0
 75 80  1  0
 75 76  1  0
 76 79  1  1
 76 77  1  0
 78 76  1  0
 80 83  1  0
 81 85  1  0
 81 80  1  0
 82 81  2  0
 85 84  1  0
 87 88  1  0
 87 85  1  0
 87 86  1  0
M  ISO  4   7 100  15 100  47 101  48 101
M  END
>  <TORSDO>  (74) 
F 19

>  <SCORE>  (74) 
-14.020

>  <name>  (74) 
73

>  <ligand_id>  (74) 
73

>  <original_smiles>  (74) 
[H]c1c([H])c([H])c2c(c1[H])C([H])([H])C([H])([H])C([H])([H])C2([H])N([H])C(=O)C1([H])N(C(=O)C([H])(N([H])C(=O)C([H])(N([H])C([H])([H])[H])C([H])([H])[H])C(C([H])([H])[H])(C([H])([H])[H])C([H])([H])[H])C([H])([H])c2c([H])c(OC([H])([H])C([H])([H])Oc3c([H])c([H])c(N([H])C(=O)N4C([H])([H])C([H])([H])C([H])([H])C([H])(n5nc(-c6c([H])c([H])c(Oc7c([H])c([H])c(F)c([H])c7F)c([H])c6[H])c(C(=O)N([H])[H])c5N([H])[H])C4([H])[H])c([H])c3[H])c([H])c([H])c2C1([H])[H]

>  <smiles>  (74) 
[H]c1c([H])c([H])c2c(c1[H])C([H])([H])C([H])([H])C([H])([H])C2([H])N([H])C(=O)C1([H])N(C(=O)C([H])(N([H])C(=O)C([H])(N([H])C([H])([H])[H])C([H])([H])[H])C(C([H])([H])[H])(C([H])([H])[H])C([H])([H])[H])C([H])([H])c2c([H])c(OC([H])([H])C([H])([H])Oc3c([H])c([H])c(N([H])C(=O)N4C([H])([H])C([H])([H])C([H])([H])C([H])(n5nc(-c6c([H])c([H])c(Oc7c([H])c([H])c(F)c([H])c7F)c([H])c6[H])c(C(=O)N([H])[H])c5N([H])[H])C4([H])[H])c([H])c3[H])c([H])c([H])c2C1([H])[H]

$$$$
74:0:0
     RDKit          3D

 94103  0  0  1  0  0  0  0  0999 V2000
  -31.5490  -23.4480   20.7950 C   0  0  0  0  0  2  0  0  0  0  0  0
  -30.7350  -24.6070   20.2300 C   0  0  0  0  0  2  0  0  0  0  0  0
  -30.4780  -22.5350   21.3850 C   0  0  0  0  0  2  0  0  0  0  0  0
  -29.3650  -24.0080   19.8400 C   0  0  0  0  0  3  0  0  0  0  0  0
  -29.3470  -22.5870   20.4310 N   0  0  1  0  0  4  0  0  0  0  0  0
  -28.4980  -22.4550   20.9610 H   0  0  0  0  0  0  0  0  0  0  0  0
  -29.3920  -21.4430   19.4300 C   0  0  0  0  0  2  0  0  0  0  0  0
  -30.8390  -19.2580   19.6460 C   0  0  0  0  0  3  0  0  0  0  0  0
  -30.9940  -17.8530   19.8670 C   0  0  0  0  0  3  0  0  0  0  0  0
  -28.5590  -19.1480   20.4010 C   0  0  0  0  0  3  0  0  0  0  0  0
  -29.6130  -19.9450   19.8860 C   0  0  0  0  0  0  0  0  0  0  0  0
  -29.9170  -17.0550   20.3400 C   0  0  0  0  0  0  0  0  0  0  0  0
  -28.7100  -17.7470   20.6180 C   0  0  0  0  0  0  0  0  0  0  0  0
  -27.6500  -17.0350   21.0730 F   0  0  0  0  0  0  0  0  0  0  0  0
  -30.6840  -14.5810   20.0630 C   0  0  0  0  0  0  0  0  0  0  0  0
  -30.4060  -12.3630   18.9730 C   0  0  0  0  0  2  0  0  0  0  0  0
  -29.4060  -12.5290   17.8050 C   0  0  0  0  0  2  0  0  0  0  0  0
  -27.9540  -12.3810   18.3000 C   0  0  0  0  0  2  0  0  0  0  0  0
  -27.6660  -13.2250   19.5700 C   0  0  0  0  0  3  0  0  0  0  0  0
  -28.7710  -13.0260   20.6330 C   0  0  0  0  0  2  0  0  0  0  0  0
  -30.0610  -13.3610   20.0050 N   0  0  0  0  0  0  0  0  0  0  0  0
  -31.8120  -14.7500   19.5920 O   0  0  0  0  0  0  0  0  0  0  0  0
  -29.9220  -15.6080   20.5480 N   0  0  0  0  0  0  0  0  0  0  0  0
  -29.0700  -15.2820   20.9790 H   0  0  0  0  0  0  0  0  0  0  0  0
  -25.3120  -13.8450   20.3990 C   0  0  0  0  0  0  0  0  0  0  0  0
  -24.2520  -13.0810   20.8050 C   0  0  0  0  0  0  0  0  0  0  0  0
  -24.6970  -11.7250   20.7390 C   0  0  0  0  0  0  0  0  0  0  0  0
  -26.3350  -12.9560   20.1090 N   0  0  0  0  0  0  0  0  0  0  0  0
  -25.9720  -11.6750   20.3720 N   0  0  0  0  0  0  0  0  0  0  0  0
  -23.9640  -10.4690   20.9470 C   0  0  0  0  0  0  0  0  0  0  0  0
  -24.4100   -9.4970   21.8700 C   0  0  0  0  0  3  0  0  0  0  0  0
  -23.6770   -8.3070   22.0650 C   0  0  0  0  0  3  0  0  0  0  0  0
  -22.4830   -8.0810   21.3390 C   0  0  0  0  0  0  0  0  0  0  0  0
  -22.0560   -9.0420   20.4060 C   0  0  0  0  0  3  0  0  0  0  0  0
  -22.7900  -10.2240   20.2090 C   0  0  0  0  0  3  0  0  0  0  0  0
  -21.7210   -6.9420   21.4440 O   0  0  0  0  0  0  0  0  0  0  0  0
  -21.6740   -6.2130   22.6050 C   0  0  0  0  0  0  0  0  0  0  0  0
  -21.2750   -6.7890   23.8310 C   0  0  0  0  0  3  0  0  0  0  0  0
  -21.1720   -5.9870   24.9860 C   0  0  0  0  0  3  0  0  0  0  0  0
  -21.4590   -4.6100   24.9150 C   0  0  0  0  0  0  0  0  0  0  0  0
  -21.8530   -4.0340   23.6940 C   0  0  0  0  0  3  0  0  0  0  0  0
  -21.9570   -4.8340   22.5420 C   0  0  0  0  0  0  0  0  0  0  0  0
  -22.3150   -4.2700   21.3630 F   0  0  0  0  0  0  0  0  0  0  0  0
  -21.3540   -3.8390   26.0220 F   0  0  0  0  0  0  0  0  0  0  0  0
  -22.8750  -13.5720   21.1470 C   0  0  0  0  0  0  0  0  0  0  0  0
  -22.1800  -12.8780   22.0410 N   0  0  0  0  0  0  0  0  0  0  0  0
  -22.4270  -14.6090   20.6580 O   0  0  0  0  0  0  0  0  0  0  0  0
  -22.5570  -12.0410   22.4590 H   0  0  0  0  0  0  0  0  0  0  0  0
  -21.2590  -13.1910   22.3140 H   0  0  0  0  0  0  0  0  0  0  0  0
  -25.4840  -15.2160   20.2360 N   0  0  0  0  0  0  0  0  0  0  0  0
  -24.7430  -15.8770   20.4370 H   0  0  0  0  0  0  0  0  0  0  0  0
  -26.3540  -15.6680   19.9870 H   0  0  0  0  0  0  0  0  0  0  0  0
  -28.1990  -25.0010   20.2800 C   0  0  0  0  0  2  0  0  0  0  0  0
  -28.3510  -26.4320   19.9180 O   0  0  0  0  0  0  0  0  0  0  0  0
  -24.5220  -31.6900   23.0520 C   0  0  0  0  0  0  0  0  0  0  0  0
  -27.2100  -27.2420   19.9210 C   0  0  0  0  0  0  0  0  0  0  0  0
  -23.3440  -30.3140   21.3730 C   0  0  0  0  0  3  0  0  0  0  0  0
  -24.8210  -28.8090   19.9280 C   0  0  0  0  0  0  0  0  0  0  0  0
  -25.8790  -30.6690   21.2110 C   0  0  0  0  0  2  0  0  0  0  0  0
  -25.9790  -29.3060   20.5400 C   0  0  0  0  0  0  0  0  0  0  0  0
  -27.1780  -28.5350   20.5250 C   0  0  0  0  0  3  0  0  0  0  0  0
  -26.0320  -26.7970   19.2790 C   0  0  0  0  0  3  0  0  0  0  0  0
  -24.8490  -27.5590   19.2890 C   0  0  0  0  0  3  0  0  0  0  0  0
  -23.5750  -29.6690   19.9820 C   0  0  0  0  0  2  0  0  0  0  0  0
  -24.6000  -30.9070   21.9360 N   0  0  0  0  0  0  0  0  0  0  0  0
  -23.4330  -31.9440   23.5860 O   0  0  0  0  0  0  0  0  0  0  0  0
  -22.6870  -29.2700   22.3070 C   0  0  0  0  0  0  0  0  0  0  0  0
  -21.3590  -29.1010   22.1840 N   0  0  0  0  0  0  0  0  0  0  0  0
  -23.3700  -28.6150   23.0990 O   0  0  0  0  0  0  0  0  0  0  0  0
  -20.8680  -29.6810   21.5170 H   0  0  0  0  0  0  0  0  0  0  0  0
  -17.9770  -27.9240   22.6890 C   0  0  0  0  0  0  0  0  0  0  0  0
  -20.5410  -28.1430   22.9300 C   0  0  0  0  0  3  0  0  0  0  0  0
  -20.6180  -26.7340   22.2990 C   0  0  0  0  0  2  0  0  0  0  0  0
  -19.4970  -26.4630   21.2900 C   0  0  0  0  0  2  0  0  0  0  0  0
  -18.1270  -26.5990   21.9600 C   0  0  0  0  0  2  0  0  0  0  0  0
  -19.1110  -28.6570   23.1310 C   0  0  0  0  0  0  0  0  0  0  0  0
  -18.9160  -29.8980   23.7730 C   0  0  0  0  0  3  0  0  0  0  0  0
  -17.6190  -30.4080   23.9770 C   0  0  0  0  0  3  0  0  0  0  0  0
  -16.5000  -29.6720   23.5510 C   0  0  0  0  0  3  0  0  0  0  0  0
  -16.6800  -28.4310   22.9130 C   0  0  0  0  0  3  0  0  0  0  0  0
  -25.7940  -32.3200   23.6970 C   0  0  0  0  0  3  0  0  0  0  0  0
  -26.3170  -31.5180   24.9520 C   0  0  1  0  0  0  0  0  0  0  0  0
  -25.2240  -31.2370   26.0090 C   0  0  0  0  0  1  0  0  0  0  0  0
  -26.9170  -30.1600   24.5210 C   0  0  0  0  0  1  0  0  0  0  0  0
  -27.4560  -32.3070   25.6400 C   0  0  0  0  0  1  0  0  0  0  0  0
  -25.4650  -33.7030   24.0680 N   0  0  0  0  0  0  0  0  0  0  0  0
  -25.7910  -34.7840   23.3450 C   0  0  0  0  0  0  0  0  0  0  0  0
  -26.4710  -34.7210   22.3180 O   0  0  0  0  0  0  0  0  0  0  0  0
  -24.8610  -33.8250   24.8680 H   0  0  0  0  0  0  0  0  0  0  0  0
  -24.0460  -36.5690   23.0290 C   0  0  0  0  0  1  0  0  0  0  0  0
  -25.2820  -36.1520   23.8420 C   0  0  0  0  0  3  0  0  0  0  0  0
  -27.3980  -37.0320   24.7250 C   0  0  0  0  0  1  0  0  0  0  0  0
  -26.3040  -37.2190   23.7750 N   0  0  0  0  0  0  0  0  0  0  0  0
  -25.8860  -38.1290   23.9460 H   0  0  0  0  0  0  0  0  0  0  0  0
  1  3  1  0
  2  1  1  0
  4  2  1  0
  4 53  1  0
  4  5  1  0
  5  6  1  1
  5  3  1  0
  7 11  1  0
  7  5  1  0
  8  9  2  0
  8 11  1  0
  9 12  1  0
 10 13  1  0
 11 10  2  0
 12 23  1  0
 12 13  2  0
 13 14  1  0
 15 23  1  0
 16 21  1  0
 17 18  1  0
 17 16  1  0
 19 18  1  0
 19 28  1  0
 19 20  1  0
 21 15  1  0
 21 20  1  0
 22 15  2  0
 23 24  1  0
 25 26  2  0
 26 45  1  0
 27 26  1  0
 27 30  1  0
 28 29  1  0
 28 25  1  0
 29 27  2  0
 30 31  1  0
 31 32  2  0
 33 36  1  0
 33 32  1  0
 34 33  2  0
 35 34  1  0
 35 30  2  0
 36 37  1  0
 37 38  1  0
 38 39  2  0
 40 39  1  0
 40 44  1  0
 41 40  2  0
 42 37  2  0
 42 41  1  0
 43 42  1  0
 45 46  1  0
 46 49  1  0
 46 48  1  0
 47 45  2  0
 50 25  1  0
 50 51  1  0
 52 50  1  0
 54 56  1  0
 54 53  1  0
 55 66  2  0
 56 61  1  0
 57 65  1  0
 57 67  1  0
 58 64  1  0
 58 60  1  0
 59 65  1  0
 60 59  1  0
 61 60  2  0
 62 63  1  0
 62 56  2  0
 63 58  2  0
 64 57  1  0
 65 55  1  0
 67 69  2  0
 68 67  1  0
 70 68  1  0
 71 80  2  0
 71 76  1  0
 72 68  1  0
 72 76  1  0
 73 72  1  0
 74 75  1  0
 74 73  1  0
 75 71  1  0
 76 77  2  0
 77 78  1  0
 79 78  2  0
 80 79  1  0
 81 55  1  0
 81 86  1  0
 81 82  1  0
 82 85  1  1
 82 83  1  0
 84 82  1  0
 86 89  1  0
 87 91  1  0
 87 86  1  0
 88 87  2  0
 91 90  1  0
 93 91  1  0
 93 94  1  0
 93 92  1  0
M  ISO  4  15 100  23 100  53 101  54 101
M  END
>  <TORSDO>  (75) 
F 19

>  <SCORE>  (75) 
-13.893

>  <name>  (75) 
74

>  <ligand_id>  (75) 
74

>  <original_smiles>  (75) 
[H]c1c([H])c([H])c2c(c1[H])C([H])([H])C([H])([H])C([H])([H])C2([H])N([H])C(=O)C1([H])N(C(=O)C([H])(N([H])C(=O)C([H])(N([H])C([H])([H])[H])C([H])([H])[H])C(C([H])([H])[H])(C([H])([H])[H])C([H])([H])[H])C([H])([H])c2c([H])c(OC([H])([H])C3([H])C([H])([H])C([H])([H])C([H])([H])[N+]3([H])C([H])([H])c3c([H])c([H])c(N([H])C(=O)N4C([H])([H])C([H])([H])C([H])([H])C([H])(n5nc(-c6c([H])c([H])c(Oc7c([H])c([H])c(F)c([H])c7F)c([H])c6[H])c(C(=O)N([H])[H])c5N([H])[H])C4([H])[H])c(F)c3[H])c([H])c([H])c2C1([H])[H]

>  <smiles>  (75) 
[H]c1c([H])c([H])c2c(c1[H])C([H])([H])C([H])([H])C([H])([H])C2([H])N([H])C(=O)C1([H])N(C(=O)C([H])(N([H])C(=O)C([H])(N([H])C([H])([H])[H])C([H])([H])[H])C(C([H])([H])[H])(C([H])([H])[H])C([H])([H])[H])C([H])([H])c2c([H])c(OC([H])([H])C3([H])C([H])([H])C([H])([H])C([H])([H])[N+]3([H])C([H])([H])c3c([H])c([H])c(N([H])C(=O)N4C([H])([H])C([H])([H])C([H])([H])C([H])(n5nc(-c6c([H])c([H])c(Oc7c([H])c([H])c(F)c([H])c7F)c([H])c6[H])c(C(=O)N([H])[H])c5N([H])[H])C4([H])[H])c(F)c3[H])c([H])c([H])c2C1([H])[H]

$$$$
75:0:0
     RDKit          3D

 92101  0  0  1  0  0  0  0  0999 V2000
  -28.8490  -22.3840   21.4320 C   0  0  0  0  0  2  0  0  0  0  0  0
  -29.1840  -18.6020   20.3760 C   0  0  0  0  0  3  0  0  0  0  0  0
  -30.8390  -19.1150   22.0600 C   0  0  0  0  0  3  0  0  0  0  0  0
  -28.8020  -19.9780   20.3490 C   0  0  0  0  0  3  0  0  0  0  0  0
  -30.4640  -20.4760   22.0310 C   0  0  0  0  0  3  0  0  0  0  0  0
  -30.2220  -18.1500   21.2350 C   0  0  0  0  0  0  0  0  0  0  0  0
  -29.4130  -20.9420   21.2040 C   0  0  0  0  0  0  0  0  0  0  0  0
  -30.6970  -16.6770   21.3750 C   0  0  0  0  0  2  0  0  0  0  0  0
  -31.0300  -14.5860   20.0500 C   0  0  0  0  0  0  0  0  0  0  0  0
  -30.7010  -12.3850   18.9650 C   0  0  0  0  0  2  0  0  0  0  0  0
  -29.7240  -12.5720   17.7880 C   0  0  0  0  0  2  0  0  0  0  0  0
  -28.2570  -12.4770   18.2580 C   0  0  0  0  0  2  0  0  0  0  0  0
  -27.9760  -13.3190   19.5330 C   0  0  0  0  0  3  0  0  0  0  0  0
  -29.0680  -13.1100   20.6050 C   0  0  0  0  0  2  0  0  0  0  0  0
  -30.3590  -13.4060   19.9690 N   0  0  0  0  0  0  0  0  0  0  0  0
  -32.1850  -14.7180   19.6400 O   0  0  0  0  0  0  0  0  0  0  0  0
  -30.2920  -15.6780   20.3670 N   0  0  0  0  0  0  0  0  0  0  0  0
  -29.8560  -16.0850   19.5460 H   0  0  0  0  0  0  0  0  0  0  0  0
  -25.6290  -13.9920   20.3420 C   0  0  0  0  0  0  0  0  0  0  0  0
  -24.5510  -13.2450   20.7440 C   0  0  0  0  0  0  0  0  0  0  0  0
  -24.9680  -11.8840   20.6730 C   0  0  0  0  0  0  0  0  0  0  0  0
  -26.6360  -13.0790   20.0630 N   0  0  0  0  0  0  0  0  0  0  0  0
  -26.2430  -11.8060   20.3150 N   0  0  0  0  0  0  0  0  0  0  0  0
  -24.2080  -10.6420   20.8780 C   0  0  0  0  0  0  0  0  0  0  0  0
  -24.6060   -9.6830   21.8360 C   0  0  0  0  0  3  0  0  0  0  0  0
  -23.8510   -8.5050   22.0270 C   0  0  0  0  0  3  0  0  0  0  0  0
  -22.6840   -8.2770   21.2610 C   0  0  0  0  0  0  0  0  0  0  0  0
  -22.3030   -9.2240   20.2950 C   0  0  0  0  0  3  0  0  0  0  0  0
  -23.0580  -10.3950   20.1010 C   0  0  0  0  0  3  0  0  0  0  0  0
  -21.9040   -7.1500   21.3590 O   0  0  0  0  0  0  0  0  0  0  0  0
  -21.7670   -6.4710   22.5430 C   0  0  0  0  0  0  0  0  0  0  0  0
  -21.2480   -7.0890   23.7010 C   0  0  0  0  0  3  0  0  0  0  0  0
  -21.0550   -6.3350   24.8750 C   0  0  0  0  0  3  0  0  0  0  0  0
  -21.3720   -4.9630   24.8930 C   0  0  0  0  0  0  0  0  0  0  0  0
  -21.8890   -4.3470   23.7410 C   0  0  0  0  0  3  0  0  0  0  0  0
  -22.0820   -5.0970   22.5690 C   0  0  0  0  0  0  0  0  0  0  0  0
  -22.5570   -4.4910   21.4530 F   0  0  0  0  0  0  0  0  0  0  0  0
  -21.1820   -4.2380   26.0200 F   0  0  0  0  0  0  0  0  0  0  0  0
  -23.1800  -13.7630   21.0740 C   0  0  0  0  0  0  0  0  0  0  0  0
  -22.4700  -13.0810   21.9700 N   0  0  0  0  0  0  0  0  0  0  0  0
  -22.7520  -14.8050   20.5770 O   0  0  0  0  0  0  0  0  0  0  0  0
  -22.8350  -12.2390   22.3870 H   0  0  0  0  0  0  0  0  0  0  0  0
  -21.5530  -13.4090   22.2380 H   0  0  0  0  0  0  0  0  0  0  0  0
  -25.8340  -15.3550   20.1750 N   0  0  0  0  0  0  0  0  0  0  0  0
  -25.1000  -16.0380   20.3170 H   0  0  0  0  0  0  0  0  0  0  0  0
  -26.6950  -15.7670   19.8360 H   0  0  0  0  0  0  0  0  0  0  0  0
  -29.6410  -24.7080   20.6650 C   0  0  0  0  0  2  0  0  0  0  0  0
  -27.7440  -24.2430   20.1340 C   0  0  0  0  0  2  0  0  0  0  0  0
  -28.6400  -25.4270   19.7430 C   0  0  0  0  0  3  0  0  0  0  0  0
  -28.9620  -23.4350   20.3600 N   0  0  2  0  0  4  0  0  0  0  0  0
  -29.3240  -23.0710   19.4930 H   0  0  0  0  0  0  0  0  0  0  0  0
  -28.4290  -26.7680   20.2380 O   0  0  0  0  0  0  0  0  0  0  0  0
  -24.6250  -31.9180   23.2500 C   0  0  0  0  0  0  0  0  0  0  0  0
  -27.2280  -27.4530   20.1510 C   0  0  0  0  0  0  0  0  0  0  0  0
  -23.3950  -30.5230   21.6190 C   0  0  0  0  0  3  0  0  0  0  0  0
  -24.8220  -28.9620   20.1720 C   0  0  0  0  0  0  0  0  0  0  0  0
  -25.9130  -30.8490   21.4080 C   0  0  0  0  0  2  0  0  0  0  0  0
  -25.9750  -29.4760   20.7720 C   0  0  0  0  0  0  0  0  0  0  0  0
  -27.1700  -28.7250   20.7640 C   0  0  0  0  0  3  0  0  0  0  0  0
  -26.0680  -26.9730   19.4980 C   0  0  0  0  0  3  0  0  0  0  0  0
  -24.8650  -27.7100   19.5290 C   0  0  0  0  0  3  0  0  0  0  0  0
  -23.5720  -29.8160   20.2430 C   0  0  0  0  0  2  0  0  0  0  0  0
  -24.6630  -31.1150   22.1480 N   0  0  0  0  0  0  0  0  0  0  0  0
  -23.5540  -32.2000   23.8070 O   0  0  0  0  0  0  0  0  0  0  0  0
  -22.7460  -29.5250   22.5980 C   0  0  0  0  0  0  0  0  0  0  0  0
  -21.4250  -29.3390   22.4680 N   0  0  0  0  0  0  0  0  0  0  0  0
  -23.4360  -28.9190   23.4260 O   0  0  0  0  0  0  0  0  0  0  0  0
  -20.9400  -29.9130   21.7920 H   0  0  0  0  0  0  0  0  0  0  0  0
  -18.0820  -28.0100   22.9250 C   0  0  0  0  0  0  0  0  0  0  0  0
  -20.6290  -28.3620   23.2050 C   0  0  0  0  0  3  0  0  0  0  0  0
  -20.8060  -26.9460   22.5970 C   0  0  0  0  0  2  0  0  0  0  0  0
  -19.6820  -26.5650   21.6310 C   0  0  0  0  0  2  0  0  0  0  0  0
  -18.3030  -26.6520   22.2900 C   0  0  0  0  0  2  0  0  0  0  0  0
  -19.1720  -28.8170   23.3450 C   0  0  0  0  0  0  0  0  0  0  0  0
  -18.9140  -30.0910   23.8850 C   0  0  0  0  0  3  0  0  0  0  0  0
  -17.5970  -30.5700   24.0010 C   0  0  0  0  0  3  0  0  0  0  0  0
  -16.5150  -29.7630   23.5950 C   0  0  0  0  0  3  0  0  0  0  0  0
  -16.7580  -28.4810   23.0690 C   0  0  0  0  0  3  0  0  0  0  0  0
  -25.9240  -32.5370   23.8520 C   0  0  0  0  0  3  0  0  0  0  0  0
  -26.4570  -31.7600   25.1200 C   0  0  1  0  0  0  0  0  0  0  0  0
  -25.3790  -31.5160   26.2040 C   0  0  0  0  0  1  0  0  0  0  0  0
  -27.0350  -30.3810   24.7190 C   0  0  0  0  0  1  0  0  0  0  0  0
  -27.6150  -32.5570   25.7660 C   0  0  0  0  0  1  0  0  0  0  0  0
  -25.6270  -33.9390   24.1790 N   0  0  0  0  0  0  0  0  0  0  0  0
  -25.9730  -34.9890   23.4180 C   0  0  0  0  0  0  0  0  0  0  0  0
  -26.6470  -34.8760   22.3910 O   0  0  0  0  0  0  0  0  0  0  0  0
  -25.0090  -34.0960   24.9640 H   0  0  0  0  0  0  0  0  0  0  0  0
  -24.2730  -36.8030   23.0350 C   0  0  0  0  0  1  0  0  0  0  0  0
  -25.4960  -36.3840   23.8670 C   0  0  0  0  0  3  0  0  0  0  0  0
  -27.6290  -37.2370   24.7350 C   0  0  0  0  0  1  0  0  0  0  0  0
  -26.5480  -37.4190   23.7710 N   0  0  0  0  0  0  0  0  0  0  0  0
  -26.1510  -38.3450   23.9060 H   0  0  0  0  0  0  0  0  0  0  0  0
  2  6  1  0
  4  2  2  0
  4  7  1  0
  5  3  1  0
  6  8  1  0
  6  3  2  0
  7  1  1  0
  7  5  2  0
  9 17  1  0
 10 15  1  0
 11 12  1  0
 11 10  1  0
 13 12  1  0
 13 22  1  0
 13 14  1  0
 15  9  1  0
 15 14  1  0
 16  9  2  0
 17  8  1  0
 18 17  1  0
 19 20  2  0
 20 39  1  0
 21 20  1  0
 21 24  1  0
 22 23  1  0
 22 19  1  0
 23 21  2  0
 24 25  1  0
 25 26  2  0
 27 30  1  0
 27 26  1  0
 28 27  2  0
 29 28  1  0
 29 24  2  0
 30 31  1  0
 31 36  2  0
 31 32  1  0
 32 33  2  0
 33 34  1  0
 34 38  1  0
 35 34  2  0
 36 35  1  0
 37 36  1  0
 39 40  1  0
 40 43  1  0
 40 42  1  0
 41 39  2  0
 44 45  1  0
 44 19  1  0
 46 44  1  0
 48 50  1  0
 49 48  1  0
 49 52  1  0
 49 47  1  0
 50 47  1  0
 50  1  1  0
 50 51  1  6
 53 64  2  0
 54 52  1  0
 54 59  1  0
 55 63  1  0
 55 65  1  0
 56 62  1  0
 56 58  1  0
 57 63  1  0
 58 57  1  0
 59 58  2  0
 60 61  1  0
 60 54  2  0
 61 56  2  0
 62 55  1  0
 63 53  1  0
 65 67  2  0
 66 65  1  0
 68 66  1  0
 69 78  2  0
 69 74  1  0
 70 66  1  0
 70 74  1  0
 71 70  1  0
 72 73  1  0
 72 71  1  0
 73 69  1  0
 74 75  2  0
 75 76  1  0
 77 76  2  0
 78 77  1  0
 79 53  1  0
 79 84  1  0
 79 80  1  0
 80 83  1  1
 80 81  1  0
 82 80  1  0
 84 87  1  0
 85 89  1  0
 85 84  1  0
 86 85  2  0
 89 88  1  0
 91 89  1  0
 91 92  1  0
 91 90  1  0
M  ISO  4   9 100  17 100  49 101  52 101
M  END
>  <TORSDO>  (76) 
F 19

>  <SCORE>  (76) 
-14.133

>  <name>  (76) 
75

>  <ligand_id>  (76) 
75

>  <original_smiles>  (76) 
[H]c1c([H])c([H])c2c(c1[H])C([H])([H])C([H])([H])C([H])([H])C2([H])N([H])C(=O)C1([H])N(C(=O)C([H])(N([H])C(=O)C([H])(N([H])C([H])([H])[H])C([H])([H])[H])C(C([H])([H])[H])(C([H])([H])[H])C([H])([H])[H])C([H])([H])c2c([H])c(OC3([H])C([H])([H])[N+]([H])(C([H])([H])c4c([H])c([H])c(C([H])([H])N([H])C(=O)N5C([H])([H])C([H])([H])C([H])([H])C([H])(n6nc(-c7c([H])c([H])c(Oc8c([H])c([H])c(F)c([H])c8F)c([H])c7[H])c(C(=O)N([H])[H])c6N([H])[H])C5([H])[H])c([H])c4[H])C3([H])[H])c([H])c([H])c2C1([H])[H]

>  <smiles>  (76) 
[H]c1c([H])c([H])c2c(c1[H])C([H])([H])C([H])([H])C([H])([H])C2([H])N([H])C(=O)C1([H])N(C(=O)C([H])(N([H])C(=O)C([H])(N([H])C([H])([H])[H])C([H])([H])[H])C(C([H])([H])[H])(C([H])([H])[H])C([H])([H])[H])C([H])([H])c2c([H])c(OC3([H])C([H])([H])[N+]([H])(C([H])([H])c4c([H])c([H])c(C([H])([H])N([H])C(=O)N5C([H])([H])C([H])([H])C([H])([H])C([H])(n6nc(-c7c([H])c([H])c(Oc8c([H])c([H])c(F)c([H])c8F)c([H])c7[H])c(C(=O)N([H])[H])c6N([H])[H])C5([H])[H])c([H])c4[H])C3([H])[H])c([H])c([H])c2C1([H])[H]

$$$$
76:0:0
     RDKit          3D

 90 98  0  0  1  0  0  0  0  0999 V2000
  -29.5440  -18.1180   21.4500 C   0  0  0  0  0  3  0  0  0  0  0  0
  -29.3420  -19.5070   21.1780 C   0  0  0  0  0  3  0  0  0  0  0  0
  -30.3080  -17.7510   19.2130 C   0  0  0  0  0  3  0  0  0  0  0  0
  -30.0500  -17.1810   20.4910 C   0  0  0  0  0  0  0  0  0  0  0  0
  -29.6330  -20.0710   19.9110 C   0  0  0  0  0  0  0  0  0  0  0  0
  -30.1120  -19.1430   18.9400 C   0  0  0  0  0  0  0  0  0  0  0  0
  -30.4010  -19.6000   17.6960 F   0  0  0  0  0  0  0  0  0  0  0  0
  -30.8040  -14.7500   20.0400 C   0  0  0  0  0  0  0  0  0  0  0  0
  -30.4600  -12.5680   18.8610 C   0  0  0  0  0  2  0  0  0  0  0  0
  -29.4390  -12.7240   17.7140 C   0  0  0  0  0  2  0  0  0  0  0  0
  -28.0000  -12.5430   18.2340 C   0  0  0  0  0  2  0  0  0  0  0  0
  -27.7290  -13.3720   19.5160 C   0  0  0  0  0  3  0  0  0  0  0  0
  -28.8510  -13.1800   20.5520 C   0  0  0  0  0  2  0  0  0  0  0  0
  -30.1270  -13.5540   19.9160 N   0  0  0  0  0  0  0  0  0  0  0  0
  -31.8580  -14.9310   19.4230 O   0  0  0  0  0  0  0  0  0  0  0  0
  -30.3360  -15.4510   22.2860 C   0  0  0  0  0  1  0  0  0  0  0  0
  -30.2760  -15.7500   20.8440 N   0  0  0  0  0  0  0  0  0  0  0  0
  -25.3970  -13.9580   20.4210 C   0  0  0  0  0  0  0  0  0  0  0  0
  -24.3550  -13.1770   20.8420 C   0  0  0  0  0  0  0  0  0  0  0  0
  -24.8060  -11.8250   20.7400 C   0  0  0  0  0  0  0  0  0  0  0  0
  -26.4160  -13.0800   20.0850 N   0  0  0  0  0  0  0  0  0  0  0  0
  -26.0700  -11.7910   20.3380 N   0  0  0  0  0  0  0  0  0  0  0  0
  -24.0870  -10.5620   20.9460 C   0  0  0  0  0  0  0  0  0  0  0  0
  -24.5520   -9.5870   21.8570 C   0  0  0  0  0  3  0  0  0  0  0  0
  -23.8320   -8.3880   22.0500 C   0  0  0  0  0  3  0  0  0  0  0  0
  -22.6360   -8.1530   21.3320 C   0  0  0  0  0  0  0  0  0  0  0  0
  -22.1910   -9.1160   20.4090 C   0  0  0  0  0  3  0  0  0  0  0  0
  -22.9110  -10.3070   20.2140 C   0  0  0  0  0  3  0  0  0  0  0  0
  -21.8860   -7.0070   21.4350 O   0  0  0  0  0  0  0  0  0  0  0  0
  -21.8370   -6.2810   22.5980 C   0  0  0  0  0  0  0  0  0  0  0  0
  -21.3930   -6.8480   23.8120 C   0  0  0  0  0  3  0  0  0  0  0  0
  -21.2920   -6.0470   24.9680 C   0  0  0  0  0  3  0  0  0  0  0  0
  -21.6260   -4.6820   24.9100 C   0  0  0  0  0  0  0  0  0  0  0  0
  -22.0640   -4.1140   23.7000 C   0  0  0  0  0  3  0  0  0  0  0  0
  -22.1660   -4.9120   22.5470 C   0  0  0  0  0  0  0  0  0  0  0  0
  -22.5680   -4.3550   21.3790 F   0  0  0  0  0  0  0  0  0  0  0  0
  -21.5220   -3.9100   26.0170 F   0  0  0  0  0  0  0  0  0  0  0  0
  -22.9830  -13.6520   21.2260 C   0  0  0  0  0  0  0  0  0  0  0  0
  -22.3170  -12.9360   22.1250 N   0  0  0  0  0  0  0  0  0  0  0  0
  -22.5140  -14.6920   20.7660 O   0  0  0  0  0  0  0  0  0  0  0  0
  -22.7100  -12.0930   22.5170 H   0  0  0  0  0  0  0  0  0  0  0  0
  -21.3990  -13.2350   22.4250 H   0  0  0  0  0  0  0  0  0  0  0  0
  -25.5600  -15.3320   20.2770 N   0  0  0  0  0  0  0  0  0  0  0  0
  -24.8150  -15.9910   20.4750 H   0  0  0  0  0  0  0  0  0  0  0  0
  -26.4010  -15.7780   19.9310 H   0  0  0  0  0  0  0  0  0  0  0  0
  -29.4980  -21.4370   19.5570 O   0  0  0  0  0  0  0  0  0  0  0  0
  -28.9230  -22.4710   20.4280 C   0  0  0  0  0  3  0  0  0  0  0  0
  -29.0120  -23.9710   19.8610 C   0  0  0  0  0  3  0  0  0  0  0  0
  -28.2850  -25.1540   20.6530 C   0  0  0  0  0  2  0  0  0  0  0  0
  -28.4820  -26.5690   20.2380 O   0  0  0  0  0  0  0  0  0  0  0  0
  -24.6410  -31.9150   23.2270 C   0  0  0  0  0  0  0  0  0  0  0  0
  -27.3600  -27.4070   20.2040 C   0  0  0  0  0  0  0  0  0  0  0  0
  -23.4870  -30.5230   21.5440 C   0  0  0  0  0  3  0  0  0  0  0  0
  -24.9840  -28.9940   20.1420 C   0  0  0  0  0  0  0  0  0  0  0  0
  -26.0270  -30.8650   21.4240 C   0  0  0  0  0  2  0  0  0  0  0  0
  -26.1340  -29.4920   20.7700 C   0  0  0  0  0  0  0  0  0  0  0  0
  -27.3280  -28.7110   20.7870 C   0  0  0  0  0  3  0  0  0  0  0  0
  -26.1920  -26.9610   19.5500 C   0  0  0  0  0  3  0  0  0  0  0  0
  -25.0160  -27.7340   19.5220 C   0  0  0  0  0  3  0  0  0  0  0  0
  -23.7410  -29.8590   20.1640 C   0  0  0  0  0  2  0  0  0  0  0  0
  -24.7360  -31.1190   22.1230 N   0  0  0  0  0  0  0  0  0  0  0  0
  -23.5420  -32.1790   23.7380 O   0  0  0  0  0  0  0  0  0  0  0  0
  -22.8090  -29.4940   22.4790 C   0  0  0  0  0  0  0  0  0  0  0  0
  -21.4880  -29.3050   22.3130 N   0  0  0  0  0  0  0  0  0  0  0  0
  -23.4700  -28.8690   23.3120 O   0  0  0  0  0  0  0  0  0  0  0  0
  -21.0140  -29.8630   21.6170 H   0  0  0  0  0  0  0  0  0  0  0  0
  -18.1140  -28.0620   22.6940 C   0  0  0  0  0  0  0  0  0  0  0  0
  -20.6580  -28.3540   23.0520 C   0  0  0  0  0  3  0  0  0  0  0  0
  -20.7990  -26.9250   22.4760 C   0  0  0  0  0  2  0  0  0  0  0  0
  -19.7370  -26.5930   21.4230 C   0  0  0  0  0  2  0  0  0  0  0  0
  -18.3320  -26.7160   22.0200 C   0  0  0  0  0  2  0  0  0  0  0  0
  -19.2070  -28.8370   23.1630 C   0  0  0  0  0  0  0  0  0  0  0  0
  -18.9500  -30.0950   23.7520 C   0  0  0  0  0  3  0  0  0  0  0  0
  -17.6340  -30.5780   23.8740 C   0  0  0  0  0  3  0  0  0  0  0  0
  -16.5560  -29.8000   23.4200 C   0  0  0  0  0  3  0  0  0  0  0  0
  -16.7950  -28.5430   22.8360 C   0  0  0  0  0  3  0  0  0  0  0  0
  -25.9030  -32.5500   23.8880 C   0  0  0  0  0  3  0  0  0  0  0  0
  -26.3990  -31.7630   25.1630 C   0  0  1  0  0  0  0  0  0  0  0  0
  -25.2810  -31.4850   26.1950 C   0  0  0  0  0  1  0  0  0  0  0  0
  -27.0170  -30.4030   24.7610 C   0  0  0  0  0  1  0  0  0  0  0  0
  -27.5160  -32.5640   25.8710 C   0  0  0  0  0  1  0  0  0  0  0  0
  -25.5720  -33.9400   24.2340 N   0  0  0  0  0  0  0  0  0  0  0  0
  -25.9070  -35.0080   23.4970 C   0  0  0  0  0  0  0  0  0  0  0  0
  -26.5960  -34.9280   22.4770 O   0  0  0  0  0  0  0  0  0  0  0  0
  -24.9630  -34.0760   25.0270 H   0  0  0  0  0  0  0  0  0  0  0  0
  -24.1630  -36.7860   23.1450 C   0  0  0  0  0  1  0  0  0  0  0  0
  -25.3970  -36.3840   23.9680 C   0  0  0  0  0  3  0  0  0  0  0  0
  -27.5090  -37.2830   24.8420 C   0  0  0  0  0  1  0  0  0  0  0  0
  -26.4190  -37.4500   23.8840 N   0  0  0  0  0  0  0  0  0  0  0  0
  -26.0000  -38.3640   24.0360 H   0  0  0  0  0  0  0  0  0  0  0  0
  2  1  1  0
  3  4  1  0
  4 17  1  0
  4  1  2  0
  5  2  2  0
  6  3  2  0
  6  5  1  0
  7  6  1  0
  8 17  1  0
  9 14  1  0
 10 11  1  0
 10  9  1  0
 12 11  1  0
 12 21  1  0
 12 13  1  0
 14  8  1  0
 14 13  1  0
 15  8  2  0
 17 16  1  0
 18 19  2  0
 19 38  1  0
 20 19  1  0
 20 23  1  0
 21 22  1  0
 21 18  1  0
 22 20  2  0
 23 24  1  0
 24 25  2  0
 26 29  1  0
 26 25  1  0
 27 26  2  0
 28 27  1  0
 28 23  2  0
 29 30  1  0
 30 31  1  0
 31 32  2  0
 33 32  1  0
 33 37  1  0
 34 33  2  0
 35 30  2  0
 35 34  1  0
 36 35  1  0
 38 39  1  0
 39 42  1  0
 39 41  1  0
 40 38  2  0
 43 18  1  0
 43 44  1  0
 45 43  1  0
 46  5  1  0
 46 47  1  0
 48 47  2  0
 48 49  1  0
 50 49  1  0
 51 62  2  0
 52 50  1  0
 52 57  1  0
 53 61  1  0
 53 63  1  0
 54 60  1  0
 54 56  1  0
 55 61  1  0
 56 57  2  0
 56 55  1  0
 58 52  2  0
 59 58  1  0
 59 54  2  0
 60 53  1  0
 61 51  1  0
 63 65  2  0
 64 63  1  0
 66 64  1  0
 67 76  2  0
 67 72  1  0
 68 64  1  0
 68 72  1  0
 69 68  1  0
 70 71  1  0
 70 69  1  0
 71 67  1  0
 72 73  2  0
 73 74  1  0
 75 74  2  0
 76 75  1  0
 77 51  1  0
 77 82  1  0
 77 78  1  0
 78 81  1  1
 78 79  1  0
 80 78  1  0
 82 85  1  0
 83 87  1  0
 83 82  1  0
 84 83  2  0
 87 86  1  0
 89 87  1  0
 89 90  1  0
 89 88  1  0
M  ISO  4   8 100  17 100  49 101  50 101
M  END
>  <TORSDO>  (77) 
F 20

>  <SCORE>  (77) 
-12.362

>  <name>  (77) 
76

>  <ligand_id>  (77) 
76

>  <original_smiles>  (77) 
[H]c1c([H])c([H])c2c(c1[H])C([H])([H])C([H])([H])C([H])([H])C2([H])N([H])C(=O)C1([H])N(C(=O)C([H])(N([H])C(=O)C([H])(N([H])C([H])([H])[H])C([H])([H])[H])C(C([H])([H])[H])(C([H])([H])[H])C([H])([H])[H])C([H])([H])c2c([H])c(OC([H])([H])C([H])([H])C([H])([H])Oc3c([H])c([H])c(N(C(=O)N4C([H])([H])C([H])([H])C([H])([H])C([H])(n5nc(-c6c([H])c([H])c(Oc7c([H])c([H])c(F)c([H])c7F)c([H])c6[H])c(C(=O)N([H])[H])c5N([H])[H])C4([H])[H])C([H])([H])[H])c([H])c3F)c([H])c([H])c2C1([H])[H]

>  <smiles>  (77) 
[H]c1c([H])c([H])c2c(c1[H])C([H])([H])C([H])([H])C([H])([H])C2([H])N([H])C(=O)C1([H])N(C(=O)C([H])(N([H])C(=O)C([H])(N([H])C([H])([H])[H])C([H])([H])[H])C(C([H])([H])[H])(C([H])([H])[H])C([H])([H])[H])C([H])([H])c2c([H])c(OC([H])([H])C([H])([H])C([H])([H])Oc3c([H])c([H])c(N(C(=O)N4C([H])([H])C([H])([H])C([H])([H])C([H])(n5nc(-c6c([H])c([H])c(Oc7c([H])c([H])c(F)c([H])c7F)c([H])c6[H])c(C(=O)N([H])[H])c5N([H])[H])C4([H])[H])C([H])([H])[H])c([H])c3F)c([H])c([H])c2C1([H])[H]

$$$$
77:0:0
     RDKit          3D

 91100  0  0  1  0  0  0  0  0999 V2000
  -29.2050  -24.4170   21.7210 C   0  0  0  0  0  2  0  0  0  0  0  0
  -29.2820  -22.8660   21.9110 C   0  0  0  0  0  2  0  0  0  0  0  0
  -28.3910  -23.3450   19.7840 C   0  0  0  0  0  2  0  0  0  0  0  0
  -28.1520  -24.7430   20.6430 C   0  0  0  0  0  3  0  0  0  0  0  0
  -29.0020  -22.2120   20.6290 N   0  0  0  0  0  0  0  0  0  0  0  0
  -30.2590  -19.9940   21.1420 C   0  0  0  0  0  3  0  0  0  0  0  0
  -30.4600  -18.5490   21.0980 C   0  0  0  0  0  3  0  0  0  0  0  0
  -28.3690  -19.8120   19.7630 C   0  0  0  0  0  3  0  0  0  0  0  0
  -29.2010  -20.7310   20.4880 C   0  0  0  0  0  0  0  0  0  0  0  0
  -29.5960  -17.6370   20.4060 C   0  0  0  0  0  0  0  0  0  0  0  0
  -28.5380  -18.3620   19.7470 C   0  0  0  0  0  0  0  0  0  0  0  0
  -27.6120  -17.6270   19.0850 F   0  0  0  0  0  0  0  0  0  0  0  0
  -30.4690  -14.9960   20.3510 C   0  0  0  0  0  0  0  0  0  0  0  0
  -30.4100  -12.6450   19.3920 C   0  0  0  0  0  2  0  0  0  0  0  0
  -29.4690  -12.5940   18.1640 C   0  0  0  0  0  2  0  0  0  0  0  0
  -28.0060  -12.3710   18.5980 C   0  0  0  0  0  2  0  0  0  0  0  0
  -27.5930  -13.2920   19.7760 C   0  0  0  0  0  3  0  0  0  0  0  0
  -28.6470  -13.2890   20.9030 C   0  0  0  0  0  2  0  0  0  0  0  0
  -29.9180  -13.7170   20.3000 N   0  0  0  0  0  0  0  0  0  0  0  0
  -31.6730  -15.1150   20.0920 O   0  0  0  0  0  0  0  0  0  0  0  0
  -29.5860  -16.1010   20.4670 N   0  0  0  0  0  0  0  0  0  0  0  0
  -28.6400  -15.7530   20.4890 H   0  0  0  0  0  0  0  0  0  0  0  0
  -25.2090  -13.8650   20.5130 C   0  0  0  0  0  0  0  0  0  0  0  0
  -24.1460  -13.0850   20.8780 C   0  0  0  0  0  0  0  0  0  0  0  0
  -24.6150  -11.7350   20.8430 C   0  0  0  0  0  0  0  0  0  0  0  0
  -26.2540  -12.9900   20.2690 N   0  0  0  0  0  0  0  0  0  0  0  0
  -25.9060  -11.7050   20.5350 N   0  0  0  0  0  0  0  0  0  0  0  0
  -23.8920  -10.4700   21.0270 C   0  0  0  0  0  0  0  0  0  0  0  0
  -24.3130   -9.5080   21.9710 C   0  0  0  0  0  3  0  0  0  0  0  0
  -23.5890   -8.3090   22.1420 C   0  0  0  0  0  3  0  0  0  0  0  0
  -22.4300   -8.0620   21.3690 C   0  0  0  0  0  0  0  0  0  0  0  0
  -22.0290   -9.0130   20.4130 C   0  0  0  0  0  3  0  0  0  0  0  0
  -22.7530  -10.2030   20.2400 C   0  0  0  0  0  3  0  0  0  0  0  0
  -21.6790   -6.9150   21.4480 O   0  0  0  0  0  0  0  0  0  0  0  0
  -21.6000   -6.1860   22.6080 C   0  0  0  0  0  0  0  0  0  0  0  0
  -21.1170   -6.7480   23.8110 C   0  0  0  0  0  3  0  0  0  0  0  0
  -20.9880   -5.9440   24.9600 C   0  0  0  0  0  3  0  0  0  0  0  0
  -21.3290   -4.5800   24.9090 C   0  0  0  0  0  0  0  0  0  0  0  0
  -21.8050   -4.0170   23.7110 C   0  0  0  0  0  3  0  0  0  0  0  0
  -21.9360   -4.8180   22.5630 C   0  0  0  0  0  0  0  0  0  0  0  0
  -22.3740   -4.2660   21.4060 F   0  0  0  0  0  0  0  0  0  0  0  0
  -21.1980   -3.8060   26.0110 F   0  0  0  0  0  0  0  0  0  0  0  0
  -22.7460  -13.5560   21.1450 C   0  0  0  0  0  0  0  0  0  0  0  0
  -22.0150  -12.8540   22.0020 N   0  0  0  0  0  0  0  0  0  0  0  0
  -22.3080  -14.5840   20.6290 O   0  0  0  0  0  0  0  0  0  0  0  0
  -22.3810  -12.0210   22.4410 H   0  0  0  0  0  0  0  0  0  0  0  0
  -21.0750  -13.1510   22.2240 H   0  0  0  0  0  0  0  0  0  0  0  0
  -25.3640  -15.2380   20.3410 N   0  0  0  0  0  0  0  0  0  0  0  0
  -24.5860  -15.8770   20.4650 H   0  0  0  0  0  0  0  0  0  0  0  0
  -26.1810  -15.6920   19.9530 H   0  0  0  0  0  0  0  0  0  0  0  0
  -28.2810  -26.2390   20.2200 O   0  0  0  0  0  0  0  0  0  0  0  0
  -24.6120  -31.8920   23.2410 C   0  0  0  0  0  0  0  0  0  0  0  0
  -27.1940  -27.1820   20.2270 C   0  0  0  0  0  0  0  0  0  0  0  0
  -23.4100  -30.4920   21.6040 C   0  0  0  0  0  3  0  0  0  0  0  0
  -24.8560  -28.9070   20.1890 C   0  0  0  0  0  0  0  0  0  0  0  0
  -25.9600  -30.7650   21.4290 C   0  0  0  0  0  2  0  0  0  0  0  0
  -26.0360  -29.3680   20.7870 C   0  0  0  0  0  0  0  0  0  0  0  0
  -27.2090  -28.5240   20.7820 C   0  0  0  0  0  3  0  0  0  0  0  0
  -25.9860  -26.8080   19.6040 C   0  0  0  0  0  3  0  0  0  0  0  0
  -24.8430  -27.6410   19.5820 C   0  0  0  0  0  3  0  0  0  0  0  0
  -23.6290  -29.8040   20.2290 C   0  0  0  0  0  2  0  0  0  0  0  0
  -24.6820  -31.0710   22.1480 N   0  0  0  0  0  0  0  0  0  0  0  0
  -23.5260  -32.1740   23.7700 O   0  0  0  0  0  0  0  0  0  0  0  0
  -22.7320  -29.4890   22.5720 C   0  0  0  0  0  0  0  0  0  0  0  0
  -21.4050  -29.3160   22.4440 N   0  0  0  0  0  0  0  0  0  0  0  0
  -23.4040  -28.8670   23.3990 O   0  0  0  0  0  0  0  0  0  0  0  0
  -20.9180  -29.8710   21.7540 H   0  0  0  0  0  0  0  0  0  0  0  0
  -18.0250  -28.1110   22.9460 C   0  0  0  0  0  0  0  0  0  0  0  0
  -20.5820  -28.3800   23.2170 C   0  0  0  0  0  3  0  0  0  0  0  0
  -20.6880  -26.9450   22.6490 C   0  0  0  0  0  2  0  0  0  0  0  0
  -19.5880  -26.6170   21.6340 C   0  0  0  0  0  2  0  0  0  0  0  0
  -18.2060  -26.7620   22.2740 C   0  0  0  0  0  2  0  0  0  0  0  0
  -19.1410  -28.8780   23.3750 C   0  0  0  0  0  0  0  0  0  0  0  0
  -18.9170  -30.1420   23.9650 C   0  0  0  0  0  3  0  0  0  0  0  0
  -17.6100  -30.6380   24.1290 C   0  0  0  0  0  3  0  0  0  0  0  0
  -16.5090  -29.8690   23.7150 C   0  0  0  0  0  3  0  0  0  0  0  0
  -16.7170  -28.6080   23.1300 C   0  0  0  0  0  3  0  0  0  0  0  0
  -25.8910  -32.5290   23.8660 C   0  0  0  0  0  3  0  0  0  0  0  0
  -25.5810  -33.9290   24.1950 N   0  0  0  0  0  0  0  0  0  0  0  0
  -25.9110  -34.9840   23.4370 C   0  0  0  0  0  0  0  0  0  0  0  0
  -26.5750  -34.8790   22.4020 O   0  0  0  0  0  0  0  0  0  0  0  0
  -24.9910  -34.0840   25.0000 H   0  0  0  0  0  0  0  0  0  0  0  0
  -24.1820  -36.7800   23.0960 C   0  0  0  0  0  1  0  0  0  0  0  0
  -25.4290  -36.3740   23.8980 C   0  0  0  0  0  3  0  0  0  0  0  0
  -27.5700  -37.2570   24.7130 C   0  0  0  0  0  1  0  0  0  0  0  0
  -26.4620  -37.4260   23.7780 N   0  0  0  0  0  0  0  0  0  0  0  0
  -26.0570  -38.3460   23.9310 H   0  0  0  0  0  0  0  0  0  0  0  0
  -26.3990  -31.7640   25.1500 C   0  0  1  0  0  0  0  0  0  0  0  0
  -25.3020  -31.5380   26.2170 C   0  0  0  0  0  1  0  0  0  0  0  0
  -26.9790  -30.3820   24.7710 C   0  0  0  0  0  1  0  0  0  0  0  0
  -27.5500  -32.5580   25.8120 C   0  0  0  0  0  1  0  0  0  0  0  0
  1  2  1  0
  3  5  1  0
  3  4  1  0
  4 51  1  0
  4  1  1  0
  5  2  1  0
  7  6  1  0
  8  9  1  0
  9  5  1  0
  9  6  2  0
 10 21  1  0
 10  7  2  0
 11  8  2  0
 11 10  1  0
 12 11  1  0
 13 21  1  0
 14 19  1  0
 15 16  1  0
 15 14  1  0
 17 16  1  0
 17 26  1  0
 17 18  1  0
 19 13  1  0
 19 18  1  0
 20 13  2  0
 21 22  1  0
 23 24  2  0
 24 43  1  0
 25 24  1  0
 25 28  1  0
 26 23  1  0
 26 27  1  0
 27 25  2  0
 28 29  1  0
 29 30  2  0
 31 34  1  0
 31 30  1  0
 32 31  2  0
 33 32  1  0
 33 28  2  0
 34 35  1  0
 35 36  1  0
 36 37  2  0
 38 37  1  0
 38 42  1  0
 39 38  2  0
 40 35  2  0
 40 39  1  0
 41 40  1  0
 43 44  1  0
 44 47  1  0
 44 46  1  0
 45 43  2  0
 48 49  1  0
 48 23  1  0
 50 48  1  0
 51 53  1  0
 52 63  2  0
 53 58  1  0
 54 62  1  0
 54 64  1  0
 55 61  1  0
 55 57  1  0
 56 62  1  0
 57 56  1  0
 58 57  2  0
 59 53  2  0
 60 59  1  0
 60 55  2  0
 61 54  1  0
 62 52  1  0
 64 66  2  0
 65 64  1  0
 67 65  1  0
 68 77  2  0
 68 73  1  0
 69 65  1  0
 69 73  1  0
 70 69  1  0
 71 72  1  0
 71 70  1  0
 72 68  1  0
 73 74  2  0
 74 75  1  0
 76 75  2  0
 77 76  1  0
 78 52  1  0
 78 79  1  0
 78 88  1  0
 79 82  1  0
 80 84  1  0
 80 79  1  0
 81 80  2  0
 84 83  1  0
 86 84  1  0
 86 87  1  0
 86 85  1  0
 88 91  1  1
 88 89  1  0
 90 88  1  0
M  ISO  4   4 101  13 100  21 100  51 101
M  END
>  <TORSDO>  (78) 
F 17

>  <SCORE>  (78) 
-15.443

>  <name>  (78) 
77

>  <ligand_id>  (78) 
77

>  <original_smiles>  (78) 
[H]c1c([H])c([H])c2c(c1[H])C([H])([H])C([H])([H])C([H])([H])C2([H])N([H])C(=O)C1([H])N(C(=O)C([H])(N([H])C(=O)C([H])(N([H])C([H])([H])[H])C([H])([H])[H])C(C([H])([H])[H])(C([H])([H])[H])C([H])([H])[H])C([H])([H])c2c([H])c(OC3([H])C([H])([H])N(c4c([H])c([H])c(N([H])C(=O)N5C([H])([H])C([H])([H])C([H])([H])C([H])(n6nc(-c7c([H])c([H])c(Oc8c([H])c([H])c(F)c([H])c8F)c([H])c7[H])c(C(=O)N([H])[H])c6N([H])[H])C5([H])[H])c(F)c4[H])C([H])([H])C3([H])[H])c([H])c([H])c2C1([H])[H]

>  <smiles>  (78) 
[H]c1c([H])c([H])c2c(c1[H])C([H])([H])C([H])([H])C([H])([H])C2([H])N([H])C(=O)C1([H])N(C(=O)C([H])(N([H])C(=O)C([H])(N([H])C([H])([H])[H])C([H])([H])[H])C(C([H])([H])[H])(C([H])([H])[H])C([H])([H])[H])C([H])([H])c2c([H])c(OC3([H])C([H])([H])N(c4c([H])c([H])c(N([H])C(=O)N5C([H])([H])C([H])([H])C([H])([H])C([H])(n6nc(-c7c([H])c([H])c(Oc8c([H])c([H])c(F)c([H])c8F)c([H])c7[H])c(C(=O)N([H])[H])c6N([H])[H])C5([H])[H])c(F)c4[H])C([H])([H])C3([H])[H])c([H])c([H])c2C1([H])[H]

$$$$
78:0:0
     RDKit          3D

 96105  0  0  1  0  0  0  0  0999 V2000
  -30.9500  -18.0910   19.1930 C   0  0  0  0  0  3  0  0  0  0  0  0
  -30.4840  -20.5320   19.2350 C   0  0  0  0  0  3  0  0  0  0  0  0
  -29.1570  -18.9880   20.5450 C   0  0  0  0  0  3  0  0  0  0  0  0
  -31.2120  -19.4140   18.7410 C   0  0  0  0  0  0  0  0  0  0  0  0
  -29.9300  -17.7690   20.1190 C   0  0  0  0  0  0  0  0  0  0  0  0
  -29.4020  -20.4140   20.1320 C   0  0  0  0  0  0  0  0  0  0  0  0
  -30.4860  -15.0560   20.2960 C   0  0  0  0  0  0  0  0  0  0  0  0
  -30.3840  -12.6800   19.3940 C   0  0  0  0  0  2  0  0  0  0  0  0
  -29.4600  -12.6160   18.1540 C   0  0  0  0  0  2  0  0  0  0  0  0
  -28.0010  -12.3860   18.5850 C   0  0  0  0  0  2  0  0  0  0  0  0
  -27.5790  -13.3150   19.7510 C   0  0  0  0  0  3  0  0  0  0  0  0
  -28.6290  -13.3580   20.8810 C   0  0  0  0  0  2  0  0  0  0  0  0
  -29.8960  -13.7860   20.2730 N   0  0  0  0  0  0  0  0  0  0  0  0
  -31.6910  -15.0930   20.0220 O   0  0  0  0  0  0  0  0  0  0  0  0
  -29.7150  -16.2640   20.4640 N   0  0  0  0  0  0  0  0  0  0  0  0
  -28.7810  -16.0590   20.7870 H   0  0  0  0  0  0  0  0  0  0  0  0
  -25.1950  -13.8860   20.4780 C   0  0  0  0  0  0  0  0  0  0  0  0
  -24.1310  -13.1060   20.8420 C   0  0  0  0  0  0  0  0  0  0  0  0
  -24.6020  -11.7580   20.8250 C   0  0  0  0  0  0  0  0  0  0  0  0
  -26.2420  -13.0090   20.2450 N   0  0  0  0  0  0  0  0  0  0  0  0
  -25.8960  -11.7260   20.5240 N   0  0  0  0  0  0  0  0  0  0  0  0
  -23.8790  -10.4930   21.0160 C   0  0  0  0  0  0  0  0  0  0  0  0
  -24.3080   -9.5340   21.9600 C   0  0  0  0  0  3  0  0  0  0  0  0
  -23.5840   -8.3370   22.1420 C   0  0  0  0  0  3  0  0  0  0  0  0
  -22.4190   -8.0880   21.3780 C   0  0  0  0  0  0  0  0  0  0  0  0
  -22.0100   -9.0350   20.4230 C   0  0  0  0  0  3  0  0  0  0  0  0
  -22.7350  -10.2240   20.2390 C   0  0  0  0  0  3  0  0  0  0  0  0
  -21.6690   -6.9400   21.4650 O   0  0  0  0  0  0  0  0  0  0  0  0
  -21.6090   -6.2050   22.6220 C   0  0  0  0  0  0  0  0  0  0  0  0
  -21.1580   -6.7650   23.8370 C   0  0  0  0  0  3  0  0  0  0  0  0
  -21.0470   -5.9570   24.9860 C   0  0  0  0  0  3  0  0  0  0  0  0
  -21.3790   -4.5910   24.9210 C   0  0  0  0  0  0  0  0  0  0  0  0
  -21.8240   -4.0300   23.7100 C   0  0  0  0  0  3  0  0  0  0  0  0
  -21.9360   -4.8360   22.5640 C   0  0  0  0  0  0  0  0  0  0  0  0
  -22.3450   -4.2870   21.3950 F   0  0  0  0  0  0  0  0  0  0  0  0
  -21.2650   -3.8120   26.0230 F   0  0  0  0  0  0  0  0  0  0  0  0
  -22.7300  -13.5810   21.0990 C   0  0  0  0  0  0  0  0  0  0  0  0
  -21.9960  -12.8880   21.9620 N   0  0  0  0  0  0  0  0  0  0  0  0
  -22.2940  -14.6010   20.5680 O   0  0  0  0  0  0  0  0  0  0  0  0
  -22.3630  -12.0620   22.4130 H   0  0  0  0  0  0  0  0  0  0  0  0
  -21.0540  -13.1870   22.1750 H   0  0  0  0  0  0  0  0  0  0  0  0
  -25.3520  -15.2550   20.2930 N   0  0  0  0  0  0  0  0  0  0  0  0
  -24.5750  -15.9020   20.3790 H   0  0  0  0  0  0  0  0  0  0  0  0
  -26.1910  -15.6930   19.9330 H   0  0  0  0  0  0  0  0  0  0  0  0
  -28.6690  -21.6800   20.4860 N   0  0  0  0  0  0  0  0  0  0  0  0
  -27.8350  -21.5550   21.0590 H   0  0  0  0  0  0  0  0  0  0  0  0
  -29.0030  -23.2050   20.1860 C   0  0  0  0  0  3  0  0  0  0  0  0
  -27.9570  -24.5480   20.4090 C   0  0  0  0  0  3  0  0  0  0  0  0
  -28.2410  -26.1040   20.2740 O   0  0  0  0  0  0  0  0  0  0  0  0
  -24.6270  -31.8900   23.2190 C   0  0  0  0  0  0  0  0  0  0  0  0
  -27.1950  -27.1140   20.2290 C   0  0  0  0  0  0  0  0  0  0  0  0
  -23.4300  -30.4870   21.5870 C   0  0  0  0  0  3  0  0  0  0  0  0
  -24.8800  -28.8990   20.1730 C   0  0  0  0  0  0  0  0  0  0  0  0
  -25.9890  -30.7350   21.4300 C   0  0  0  0  0  2  0  0  0  0  0  0
  -26.0610  -29.3350   20.7870 C   0  0  0  0  0  0  0  0  0  0  0  0
  -27.2190  -28.4620   20.7930 C   0  0  0  0  0  3  0  0  0  0  0  0
  -25.9880  -26.7970   19.5680 C   0  0  0  0  0  3  0  0  0  0  0  0
  -24.8600  -27.6450   19.5470 C   0  0  0  0  0  3  0  0  0  0  0  0
  -23.6560  -29.8040   20.2120 C   0  0  0  0  0  2  0  0  0  0  0  0
  -24.7030  -31.0630   22.1310 N   0  0  0  0  0  0  0  0  0  0  0  0
  -23.5400  -32.1780   23.7440 O   0  0  0  0  0  0  0  0  0  0  0  0
  -22.7460  -29.4870   22.5520 C   0  0  0  0  0  0  0  0  0  0  0  0
  -21.4160  -29.3230   22.4290 N   0  0  0  0  0  0  0  0  0  0  0  0
  -23.4160  -28.8600   23.3770 O   0  0  0  0  0  0  0  0  0  0  0  0
  -20.9320  -29.8820   21.7400 H   0  0  0  0  0  0  0  0  0  0  0  0
  -18.0270  -28.1470   22.9540 C   0  0  0  0  0  0  0  0  0  0  0  0
  -20.5910  -28.3910   23.2050 C   0  0  0  0  0  3  0  0  0  0  0  0
  -20.6770  -26.9580   22.6280 C   0  0  0  0  0  2  0  0  0  0  0  0
  -19.5670  -26.6440   21.6210 C   0  0  0  0  0  2  0  0  0  0  0  0
  -18.1900  -26.7980   22.2730 C   0  0  0  0  0  2  0  0  0  0  0  0
  -19.1530  -28.9020   23.3760 C   0  0  0  0  0  0  0  0  0  0  0  0
  -18.9470  -30.1650   23.9720 C   0  0  0  0  0  3  0  0  0  0  0  0
  -17.6450  -30.6730   24.1490 C   0  0  0  0  0  3  0  0  0  0  0  0
  -16.5340  -29.9160   23.7420 C   0  0  0  0  0  3  0  0  0  0  0  0
  -16.7250  -28.6540   23.1500 C   0  0  0  0  0  3  0  0  0  0  0  0
  -25.9030  -32.5300   23.8460 C   0  0  0  0  0  3  0  0  0  0  0  0
  -25.5890  -33.9320   24.1740 N   0  0  0  0  0  0  0  0  0  0  0  0
  -25.9210  -34.9870   23.4180 C   0  0  0  0  0  0  0  0  0  0  0  0
  -26.5860  -34.8840   22.3850 O   0  0  0  0  0  0  0  0  0  0  0  0
  -24.9970  -34.0840   24.9750 H   0  0  0  0  0  0  0  0  0  0  0  0
  -24.1940  -36.7860   23.0710 C   0  0  0  0  0  1  0  0  0  0  0  0
  -25.4360  -36.3760   23.8790 C   0  0  0  0  0  3  0  0  0  0  0  0
  -27.5700  -37.2600   24.7110 C   0  0  0  0  0  1  0  0  0  0  0  0
  -26.4690  -37.4280   23.7660 N   0  0  0  0  0  0  0  0  0  0  0  0
  -26.0650  -38.3500   23.9140 H   0  0  0  0  0  0  0  0  0  0  0  0
  -26.4100  -31.7680   25.1310 C   0  0  1  0  0  0  0  0  0  0  0  0
  -25.3110  -31.5410   26.1950 C   0  0  0  0  0  1  0  0  0  0  0  0
  -26.9950  -30.3860   24.7580 C   0  0  0  0  0  1  0  0  0  0  0  0
  -27.5600  -32.5650   25.7930 C   0  0  0  0  0  1  0  0  0  0  0  0
  -32.3060  -19.5930   17.6800 C   0  0  0  0  0  2  0  0  0  0  0  0
  -32.4700  -22.1600   14.9200 C   0  0  0  0  0  2  0  0  0  0  0  0
  -33.1010  -22.9170   16.0980 C   0  0  0  0  0  2  0  0  0  0  0  0
  -32.1820  -20.7440   15.4450 C   0  0  0  0  0  2  0  0  0  0  0  0
  -33.2160  -21.8790   17.2200 C   0  0  0  0  0  2  0  0  0  0  0  0
  -32.1900  -20.8630   16.9160 N   0  0  2  0  0  4  0  0  0  0  0  0
  -31.2920  -21.2510   17.1600 H   0  0  0  0  0  0  0  0  0  0  0  0
  1  5  1  0
  2  6  2  0
  4  1  2  0
  4  2  1  0
  5 15  1  0
  5  3  2  0
  6 45  1  0
  6  3  1  0
  7 15  1  0
  8 13  1  0
  9 10  1  0
  9  8  1  0
 11 10  1  0
 11 20  1  0
 11 12  1  0
 13  7  1  0
 13 12  1  0
 14  7  2  0
 15 16  1  0
 17 18  2  0
 18 37  1  0
 19 18  1  0
 19 22  1  0
 20 17  1  0
 20 21  1  0
 21 19  2  0
 22 23  1  0
 23 24  2  0
 25 28  1  0
 25 24  1  0
 26 25  2  0
 27 26  1  0
 27 22  2  0
 28 29  1  0
 29 30  1  0
 30 31  2  0
 32 31  1  0
 32 36  1  0
 33 32  2  0
 34 29  2  0
 34 33  1  0
 35 34  1  0
 37 38  1  0
 38 41  1  0
 38 40  1  0
 39 37  2  0
 42 43  1  0
 42 17  1  0
 44 42  1  0
 45 46  1  0
 47 48  2  0
 47 45  1  0
 49 48  1  0
 50 61  2  0
 51 49  1  0
 51 56  1  0
 52 60  1  0
 52 62  1  0
 53 59  1  0
 53 55  1  0
 54 60  1  0
 55 56  2  0
 55 54  1  0
 57 51  2  0
 58 57  1  0
 58 53  2  0
 59 52  1  0
 60 50  1  0
 62 64  2  0
 63 62  1  0
 65 63  1  0
 66 75  2  0
 66 71  1  0
 67 63  1  0
 67 71  1  0
 68 67  1  0
 69 70  1  0
 69 68  1  0
 70 66  1  0
 71 72  2  0
 72 73  1  0
 74 73  2  0
 75 74  1  0
 76 50  1  0
 76 77  1  0
 76 86  1  0
 77 80  1  0
 78 82  1  0
 78 77  1  0
 79 78  2  0
 82 81  1  0
 84 82  1  0
 84 85  1  0
 84 83  1  0
 86 89  1  1
 86 87  1  0
 88 86  1  0
 90  4  1  0
 91 93  1  0
 91 92  1  0
 92 94  1  0
 93 95  1  0
 95 96  1  1
 95 94  1  0
 95 90  1  0
M  ISO  4   7 100  15 100  48 101  49 101
M  END
>  <TORSDO>  (79) 
F 21

>  <SCORE>  (79) 
-14.183

>  <name>  (79) 
78

>  <ligand_id>  (79) 
78

>  <original_smiles>  (79) 
[H]c1c([H])c([H])c2c(c1[H])C([H])([H])C([H])([H])C([H])([H])C2([H])N([H])C(=O)C1([H])N(C(=O)C([H])(N([H])C(=O)C([H])(N([H])C([H])([H])[H])C([H])([H])[H])C(C([H])([H])[H])(C([H])([H])[H])C([H])([H])[H])C([H])([H])c2c([H])c(OC([H])([H])C([H])([H])N([H])c3c([H])c(N([H])C(=O)N4C([H])([H])C([H])([H])C([H])([H])C([H])(n5nc(-c6c([H])c([H])c(Oc7c([H])c([H])c(F)c([H])c7F)c([H])c6[H])c(C(=O)N([H])[H])c5N([H])[H])C4([H])[H])c([H])c(C([H])([H])[N+]4([H])C([H])([H])C([H])([H])C([H])([H])C4([H])[H])c3[H])c([H])c([H])c2C1([H])[H]

>  <smiles>  (79) 
[H]c1c([H])c([H])c2c(c1[H])C([H])([H])C([H])([H])C([H])([H])C2([H])N([H])C(=O)C1([H])N(C(=O)C([H])(N([H])C(=O)C([H])(N([H])C([H])([H])[H])C([H])([H])[H])C(C([H])([H])[H])(C([H])([H])[H])C([H])([H])[H])C([H])([H])c2c([H])c(OC([H])([H])C([H])([H])N([H])c3c([H])c(N([H])C(=O)N4C([H])([H])C([H])([H])C([H])([H])C([H])(n5nc(-c6c([H])c([H])c(Oc7c([H])c([H])c(F)c([H])c7F)c([H])c6[H])c(C(=O)N([H])[H])c5N([H])[H])C4([H])[H])c([H])c(C([H])([H])[N+]4([H])C([H])([H])C([H])([H])C([H])([H])C4([H])[H])c3[H])c([H])c([H])c2C1([H])[H]

$$$$
