0:0:0
     RDKit          3D

 90 98  0  0  1  0  0  0  0  0999 V2000
  -31.5410  -21.9910   19.8470 C   0  0  0  0  0  1  0  0  0  0  0  0
  -30.1780  -21.4790   20.0070 N   0  0  0  0  0  0  0  0  0  0  0  0
  -29.1340  -17.9190   20.9180 C   0  0  0  0  0  3  0  0  0  0  0  0
  -31.0270  -17.7790   19.4590 C   0  0  0  0  0  3  0  0  0  0  0  0
  -29.1010  -19.3390   20.7700 C   0  0  0  0  0  3  0  0  0  0  0  0
  -31.0060  -19.2010   19.3290 C   0  0  0  0  0  3  0  0  0  0  0  0
  -30.1230  -17.0880   20.3100 C   0  0  0  0  0  0  0  0  0  0  0  0
  -30.0720  -20.0380   20.0120 C   0  0  0  0  0  0  0  0  0  0  0  0
  -30.7290  -14.6240   19.8800 C   0  0  0  0  0  0  0  0  0  0  0  0
  -30.3120  -12.4670   18.6880 C   0  0  0  0  0  2  0  0  0  0  0  0
  -29.2710  -12.6550   17.5640 C   0  0  0  0  0  2  0  0  0  0  0  0
  -27.8390  -12.4950   18.1110 C   0  0  0  0  0  2  0  0  0  0  0  0
  -27.6070  -13.3180   19.4040 C   0  0  0  0  0  3  0  0  0  0  0  0
  -28.7470  -13.0910   20.4130 C   0  0  0  0  0  2  0  0  0  0  0  0
  -30.0170  -13.4480   19.7570 N   0  0  0  0  0  0  0  0  0  0  0  0
  -31.7900  -14.7650   19.2620 O   0  0  0  0  0  0  0  0  0  0  0  0
  -30.1970  -15.3910   22.1050 C   0  0  0  0  0  1  0  0  0  0  0  0
  -30.2200  -15.6520   20.6570 N   0  0  0  0  0  0  0  0  0  0  0  0
  -25.2940  -13.9310   20.3420 C   0  0  0  0  0  0  0  0  0  0  0  0
  -24.2510  -13.1640   20.7840 C   0  0  0  0  0  0  0  0  0  0  0  0
  -24.6870  -11.8070   20.6830 C   0  0  0  0  0  0  0  0  0  0  0  0
  -26.3000  -13.0430   19.9960 N   0  0  0  0  0  0  0  0  0  0  0  0
  -25.9450  -11.7590   20.2600 N   0  0  0  0  0  0  0  0  0  0  0  0
  -23.9610  -10.5500   20.9050 C   0  0  0  0  0  0  0  0  0  0  0  0
  -24.4250   -9.5780   21.8200 C   0  0  0  0  0  3  0  0  0  0  0  0
  -23.6970   -8.3870   22.0310 C   0  0  0  0  0  3  0  0  0  0  0  0
  -22.4920   -8.1580   21.3270 C   0  0  0  0  0  0  0  0  0  0  0  0
  -22.0450   -9.1180   20.4020 C   0  0  0  0  0  3  0  0  0  0  0  0
  -22.7730  -10.3000   20.1880 C   0  0  0  0  0  3  0  0  0  0  0  0
  -21.7320   -7.0190   21.4480 O   0  0  0  0  0  0  0  0  0  0  0  0
  -21.6920   -6.3000   22.6160 C   0  0  0  0  0  0  0  0  0  0  0  0
  -21.2840   -6.8830   23.8370 C   0  0  0  0  0  3  0  0  0  0  0  0
  -21.1910   -6.0900   24.9990 C   0  0  0  0  0  3  0  0  0  0  0  0
  -21.4980   -4.7180   24.9410 C   0  0  0  0  0  0  0  0  0  0  0  0
  -21.9010   -4.1350   23.7270 C   0  0  0  0  0  3  0  0  0  0  0  0
  -21.9950   -4.9240   22.5670 C   0  0  0  0  0  0  0  0  0  0  0  0
  -22.3620   -4.3530   21.3950 F   0  0  0  0  0  0  0  0  0  0  0  0
  -21.4010   -3.9560   26.0550 F   0  0  0  0  0  0  0  0  0  0  0  0
  -22.8880  -13.6530   21.1840 C   0  0  0  0  0  0  0  0  0  0  0  0
  -22.2380  -12.9640   22.1150 N   0  0  0  0  0  0  0  0  0  0  0  0
  -22.4120  -14.6810   20.7060 O   0  0  0  0  0  0  0  0  0  0  0  0
  -22.6400  -12.1340   22.5240 H   0  0  0  0  0  0  0  0  0  0  0  0
  -21.3270  -13.2730   22.4240 H   0  0  0  0  0  0  0  0  0  0  0  0
  -25.4650  -15.3040   20.1870 N   0  0  0  0  0  0  0  0  0  0  0  0
  -24.7210  -15.9660   20.3740 H   0  0  0  0  0  0  0  0  0  0  0  0
  -26.2970  -15.7390   19.8080 H   0  0  0  0  0  0  0  0  0  0  0  0
  -29.0220  -22.4290   19.8620 C   0  0  0  0  0  2  0  0  0  0  0  0
  -29.3100  -23.9930   20.0560 C   0  0  0  0  0  3  0  0  0  0  0  0
  -28.1060  -24.9980   19.8230 C   0  0  0  0  0  3  0  0  0  0  0  0
  -28.3070  -26.4580   19.9820 O   0  0  0  0  0  0  0  0  0  0  0  0
  -24.4830  -31.7240   23.1020 C   0  0  0  0  0  0  0  0  0  0  0  0
  -27.1680  -27.2800   19.9530 C   0  0  0  0  0  0  0  0  0  0  0  0
  -23.2990  -30.3400   21.4360 C   0  0  0  0  0  3  0  0  0  0  0  0
  -24.7730  -28.8480   19.9800 C   0  0  0  0  0  0  0  0  0  0  0  0
  -25.8340  -30.7080   21.2570 C   0  0  0  0  0  2  0  0  0  0  0  0
  -25.9360  -29.3470   20.5790 C   0  0  0  0  0  0  0  0  0  0  0  0
  -27.1370  -28.5770   20.5530 C   0  0  0  0  0  3  0  0  0  0  0  0
  -25.9750  -26.8330   19.3350 C   0  0  0  0  0  3  0  0  0  0  0  0
  -24.7950  -27.5960   19.3480 C   0  0  0  0  0  3  0  0  0  0  0  0
  -23.5230  -29.6990   20.0430 C   0  0  0  0  0  2  0  0  0  0  0  0
  -24.5570  -30.9400   21.9890 N   0  0  0  0  0  0  0  0  0  0  0  0
  -23.3950  -31.9740   23.6430 O   0  0  0  0  0  0  0  0  0  0  0  0
  -22.6560  -29.2920   22.3760 C   0  0  0  0  0  0  0  0  0  0  0  0
  -21.3330  -29.0970   22.2480 N   0  0  0  0  0  0  0  0  0  0  0  0
  -23.3470  -28.6570   23.1770 O   0  0  0  0  0  0  0  0  0  0  0  0
  -20.8370  -29.6620   21.5730 H   0  0  0  0  0  0  0  0  0  0  0  0
  -17.9700  -27.8650   22.7460 C   0  0  0  0  0  0  0  0  0  0  0  0
  -20.5280  -28.1340   23.0000 C   0  0  0  0  0  3  0  0  0  0  0  0
  -20.6350  -26.7200   22.3850 C   0  0  0  0  0  2  0  0  0  0  0  0
  -19.5250  -26.4170   21.3730 C   0  0  0  0  0  2  0  0  0  0  0  0
  -18.1480  -26.5350   22.0340 C   0  0  0  0  0  2  0  0  0  0  0  0
  -19.0870  -28.6230   23.1860 C   0  0  0  0  0  0  0  0  0  0  0  0
  -18.8640  -29.8680   23.8130 C   0  0  0  0  0  3  0  0  0  0  0  0
  -17.5580  -30.3560   24.0040 C   0  0  0  0  0  3  0  0  0  0  0  0
  -16.4550  -29.5940   23.5810 C   0  0  0  0  0  3  0  0  0  0  0  0
  -16.6610  -28.3510   22.9580 C   0  0  0  0  0  3  0  0  0  0  0  0
  -25.7540  -32.3660   23.7360 C   0  0  0  0  0  3  0  0  0  0  0  0
  -26.2790  -31.5830   25.0010 C   0  0  1  0  0  0  0  0  0  0  0  0
  -25.1870  -31.3140   26.0620 C   0  0  0  0  0  1  0  0  0  0  0  0
  -26.8820  -30.2190   24.5900 C   0  0  0  0  0  1  0  0  0  0  0  0
  -27.4160  -32.3830   25.6780 C   0  0  0  0  0  1  0  0  0  0  0  0
  -25.4250  -33.7540   24.0870 N   0  0  0  0  0  0  0  0  0  0  0  0
  -25.7330  -34.8230   23.3410 C   0  0  0  0  0  0  0  0  0  0  0  0
  -26.3980  -34.7450   22.3030 O   0  0  0  0  0  0  0  0  0  0  0  0
  -24.8340  -33.8870   24.8970 H   0  0  0  0  0  0  0  0  0  0  0  0
  -23.9690  -36.5890   23.0290 C   0  0  0  0  0  1  0  0  0  0  0  0
  -25.2260  -36.1970   23.8230 C   0  0  0  0  0  3  0  0  0  0  0  0
  -27.3530  -37.1090   24.6470 C   0  0  0  0  0  1  0  0  0  0  0  0
  -26.2390  -37.2690   23.7140 N   0  0  0  0  0  0  0  0  0  0  0  0
  -25.8190  -38.1800   23.8770 H   0  0  0  0  0  0  0  0  0  0  0  0
  1  2  1  0
  2  8  1  0
  4  7  1  0
  5  3  1  0
  6  4  2  0
  6  8  1  0
  7 18  1  0
  7  3  2  0
  8  5  2  0
  9 18  1  0
 10 15  1  0
 11 12  1  0
 11 10  1  0
 13 12  1  0
 13 22  1  0
 13 14  1  0
 15  9  1  0
 15 14  1  0
 16  9  2  0
 18 17  1  0
 19 20  2  0
 20 39  1  0
 21 20  1  0
 21 24  1  0
 22 23  1  0
 22 19  1  0
 23 21  2  0
 24 25  1  0
 25 26  2  0
 27 30  1  0
 27 26  1  0
 28 27  2  0
 29 28  1  0
 29 24  2  0
 30 31  1  0
 31 32  1  0
 32 33  2  0
 34 33  1  0
 34 38  1  0
 35 34  2  0
 36 31  2  0
 36 35  1  0
 37 36  1  0
 39 40  1  0
 40 43  1  0
 40 42  1  0
 41 39  2  0
 44 19  1  0
 44 45  1  0
 46 44  1  0
 47  2  1  0
 47 48  1  0
 49 50  1  0
 49 48  2  0
 51 62  2  0
 52 50  1  0
 52 57  1  0
 53 61  1  0
 53 63  1  0
 54 60  1  0
 54 56  1  0
 55 61  1  0
 56 55  1  0
 57 56  2  0
 58 59  1  0
 58 52  2  0
 59 54  2  0
 60 53  1  0
 61 51  1  0
 63 65  2  0
 64 63  1  0
 66 64  1  0
 67 76  2  0
 67 72  1  0
 68 64  1  0
 68 72  1  0
 69 68  1  0
 70 71  1  0
 70 69  1  0
 71 67  1  0
 72 73  2  0
 73 74  1  0
 75 74  2  0
 76 75  1  0
 77 51  1  0
 77 82  1  0
 77 78  1  0
 78 81  1  1
 78 79  1  0
 80 78  1  0
 82 85  1  0
 83 87  1  0
 83 82  1  0
 84 83  2  0
 87 86  1  0
 89 87  1  0
 89 90  1  0
 89 88  1  0
M  ISO  4   9 100  18 100  49 101  50 101
M  END
>  <TORSDO>  (1) 
F 20

>  <SCORE>  (1) 
-12.667

>  <name>  (1) 
0

>  <ligand_id>  (1) 
0

>  <original_smiles>  (1) 
[H]c1c([H])c([H])c2c(c1[H])C([H])([H])C([H])([H])C([H])([H])C2([H])N([H])C(=O)C1([H])N(C(=O)C([H])(N([H])C(=O)C([H])(N([H])C([H])([H])[H])C([H])([H])[H])C(C([H])([H])[H])(C([H])([H])[H])C([H])([H])[H])C([H])([H])c2c([H])c(OC([H])([H])C([H])([H])C([H])([H])N(c3c([H])c([H])c(N(C(=O)N4C([H])([H])C([H])([H])C([H])([H])C([H])(n5nc(-c6c([H])c([H])c(Oc7c([H])c([H])c(F)c([H])c7F)c([H])c6[H])c(C(=O)N([H])[H])c5N([H])[H])C4([H])[H])C([H])([H])[H])c([H])c3[H])C([H])([H])[H])c([H])c([H])c2C1([H])[H]

>  <smiles>  (1) 
[H]c1c([H])c([H])c2c(c1[H])C([H])([H])C([H])([H])C([H])([H])C2([H])N([H])C(=O)C1([H])N(C(=O)C([H])(N([H])C(=O)C([H])(N([H])C([H])([H])[H])C([H])([H])[H])C(C([H])([H])[H])(C([H])([H])[H])C([H])([H])[H])C([H])([H])c2c([H])c(OC([H])([H])C([H])([H])C([H])([H])N(c3c([H])c([H])c(N(C(=O)N4C([H])([H])C([H])([H])C([H])([H])C([H])(n5nc(-c6c([H])c([H])c(Oc7c([H])c([H])c(F)c([H])c7F)c([H])c6[H])c(C(=O)N([H])[H])c5N([H])[H])C4([H])[H])C([H])([H])[H])c([H])c3[H])C([H])([H])[H])c([H])c([H])c2C1([H])[H]

$$$$
1:0:0
     RDKit          3D

 86 94  0  0  1  0  0  0  0  0999 V2000
  -29.9510  -21.6520   19.5160 C   0  0  0  0  0  2  0  0  0  0  0  0
  -28.3320  -21.3140   21.0940 C   0  0  0  0  0  2  0  0  0  0  0  0
  -30.0100  -19.9510   19.1970 C   0  0  0  0  0  2  0  0  0  0  0  0
  -28.3630  -19.6590   20.7590 C   0  0  0  0  0  2  0  0  0  0  0  0
  -28.6300  -22.5320   20.0260 C   0  0  0  0  0  3  0  0  0  0  0  0
  -29.6620  -18.7200   20.2740 C   0  0  0  0  0  3  0  0  0  0  0  0
  -30.2960  -15.6550   19.8580 C   0  0  0  0  0  0  0  0  0  0  0  0
  -30.3090  -13.1690   18.9150 C   0  0  0  0  0  2  0  0  0  0  0  0
  -29.3060  -12.8180   17.7790 C   0  0  0  0  0  2  0  0  0  0  0  0
  -27.9380  -12.4110   18.3580 C   0  0  0  0  0  2  0  0  0  0  0  0
  -27.5020  -13.3970   19.4550 C   0  0  0  0  0  3  0  0  0  0  0  0
  -28.6340  -13.6580   20.4940 C   0  0  0  0  0  2  0  0  0  0  0  0
  -29.7570  -14.3040   19.7720 N   0  0  0  0  0  0  0  0  0  0  0  0
  -31.5180  -15.6180   19.6040 O   0  0  0  0  0  0  0  0  0  0  0  0
  -28.0940  -16.8050   20.2340 C   0  0  0  0  0  1  0  0  0  0  0  0
  -29.5240  -16.9920   20.0290 N   0  0  0  0  0  0  0  0  0  0  0  0
  -25.1980  -13.9550   20.4140 C   0  0  0  0  0  0  0  0  0  0  0  0
  -24.1740  -13.1720   20.8540 C   0  0  0  0  0  0  0  0  0  0  0  0
  -24.6390  -11.8270   20.7480 C   0  0  0  0  0  0  0  0  0  0  0  0
  -26.2240  -13.0850   20.0720 N   0  0  0  0  0  0  0  0  0  0  0  0
  -25.9010  -11.7970   20.3380 N   0  0  0  0  0  0  0  0  0  0  0  0
  -23.9300  -10.5630   20.9510 C   0  0  0  0  0  0  0  0  0  0  0  0
  -24.4090   -9.5840   21.8490 C   0  0  0  0  0  3  0  0  0  0  0  0
  -23.6970   -8.3820   22.0420 C   0  0  0  0  0  3  0  0  0  0  0  0
  -22.4910   -8.1520   21.3370 C   0  0  0  0  0  0  0  0  0  0  0  0
  -22.0310   -9.1190   20.4260 C   0  0  0  0  0  3  0  0  0  0  0  0
  -22.7450  -10.3130   20.2310 C   0  0  0  0  0  3  0  0  0  0  0  0
  -21.7440   -7.0040   21.4460 O   0  0  0  0  0  0  0  0  0  0  0  0
  -21.7230   -6.2680   22.6030 C   0  0  0  0  0  0  0  0  0  0  0  0
  -21.2830   -6.8150   23.8280 C   0  0  0  0  0  3  0  0  0  0  0  0
  -21.2130   -6.0010   24.9760 C   0  0  0  0  0  3  0  0  0  0  0  0
  -21.5730   -4.6430   24.9000 C   0  0  0  0  0  0  0  0  0  0  0  0
  -22.0040   -4.0950   23.6790 C   0  0  0  0  0  3  0  0  0  0  0  0
  -22.0770   -4.9060   22.5320 C   0  0  0  0  0  0  0  0  0  0  0  0
  -22.4750   -4.3690   21.3550 F   0  0  0  0  0  0  0  0  0  0  0  0
  -21.4970   -3.8590   26.0000 F   0  0  0  0  0  0  0  0  0  0  0  0
  -22.8010  -13.6400   21.2420 C   0  0  0  0  0  0  0  0  0  0  0  0
  -22.1410  -12.9220   22.1420 N   0  0  0  0  0  0  0  0  0  0  0  0
  -22.3290  -14.6810   20.7820 O   0  0  0  0  0  0  0  0  0  0  0  0
  -22.5330  -12.0750   22.5260 H   0  0  0  0  0  0  0  0  0  0  0  0
  -21.2270  -13.2180   22.4520 H   0  0  0  0  0  0  0  0  0  0  0  0
  -25.3130  -15.3300   20.2380 N   0  0  0  0  0  0  0  0  0  0  0  0
  -24.5300  -15.9530   20.4050 H   0  0  0  0  0  0  0  0  0  0  0  0
  -26.0800  -15.7820   19.7630 H   0  0  0  0  0  0  0  0  0  0  0  0
  -28.3950  -24.3020   20.5720 C   0  0  0  0  0  2  0  0  0  0  0  0
  -28.3890  -25.9230   20.1230 O   0  0  0  0  0  0  0  0  0  0  0  0
  -24.6890  -31.8820   23.2020 C   0  0  0  0  0  0  0  0  0  0  0  0
  -27.3330  -27.0000   20.1910 C   0  0  0  0  0  0  0  0  0  0  0  0
  -23.5260  -30.4780   21.5500 C   0  0  0  0  0  3  0  0  0  0  0  0
  -25.0030  -28.8800   20.1410 C   0  0  0  0  0  0  0  0  0  0  0  0
  -26.0940  -30.7090   21.4220 C   0  0  0  0  0  2  0  0  0  0  0  0
  -26.1880  -29.2930   20.7660 C   0  0  0  0  0  0  0  0  0  0  0  0
  -27.3460  -28.3820   20.7550 C   0  0  0  0  0  3  0  0  0  0  0  0
  -26.1070  -26.7470   19.5320 C   0  0  0  0  0  3  0  0  0  0  0  0
  -24.9910  -27.6280   19.5020 C   0  0  0  0  0  3  0  0  0  0  0  0
  -23.7770  -29.7970   20.1760 C   0  0  0  0  0  2  0  0  0  0  0  0
  -24.7930  -31.0500   22.1120 N   0  0  0  0  0  0  0  0  0  0  0  0
  -23.5920  -32.1580   23.7140 O   0  0  0  0  0  0  0  0  0  0  0  0
  -22.8330  -29.4750   22.5110 C   0  0  0  0  0  0  0  0  0  0  0  0
  -21.5040  -29.3070   22.3820 N   0  0  0  0  0  0  0  0  0  0  0  0
  -23.5000  -28.8460   23.3380 O   0  0  0  0  0  0  0  0  0  0  0  0
  -21.0220  -29.8660   21.6940 H   0  0  0  0  0  0  0  0  0  0  0  0
  -18.1200  -28.0940   22.8930 C   0  0  0  0  0  0  0  0  0  0  0  0
  -20.6820  -28.3580   23.1430 C   0  0  0  0  0  3  0  0  0  0  0  0
  -20.7810  -26.9370   22.5440 C   0  0  0  0  0  2  0  0  0  0  0  0
  -19.6710  -26.6310   21.5330 C   0  0  0  0  0  2  0  0  0  0  0  0
  -18.2940  -26.7600   22.1890 C   0  0  0  0  0  2  0  0  0  0  0  0
  -19.2420  -28.8520   23.3270 C   0  0  0  0  0  0  0  0  0  0  0  0
  -19.0230  -30.0990   23.9510 C   0  0  0  0  0  3  0  0  0  0  0  0
  -17.7190  -30.5890   24.1450 C   0  0  0  0  0  3  0  0  0  0  0  0
  -16.6120  -29.8280   23.7280 C   0  0  0  0  0  3  0  0  0  0  0  0
  -16.8140  -28.5830   23.1050 C   0  0  0  0  0  3  0  0  0  0  0  0
  -25.9440  -32.5400   23.8500 C   0  0  0  0  0  3  0  0  0  0  0  0
  -25.6110  -33.9400   24.1710 N   0  0  0  0  0  0  0  0  0  0  0  0
  -25.9360  -35.0000   23.4210 C   0  0  0  0  0  0  0  0  0  0  0  0
  -26.6110  -34.9040   22.3930 O   0  0  0  0  0  0  0  0  0  0  0  0
  -25.0100  -34.0800   24.9690 H   0  0  0  0  0  0  0  0  0  0  0  0
  -24.1930  -36.7860   23.0740 C   0  0  0  0  0  1  0  0  0  0  0  0
  -25.4400  -36.3870   23.8800 C   0  0  0  0  0  3  0  0  0  0  0  0
  -27.5650  -37.3000   24.7100 C   0  0  0  0  0  1  0  0  0  0  0  0
  -26.4630  -37.4500   23.7630 N   0  0  0  0  0  0  0  0  0  0  0  0
  -26.0500  -38.3680   23.9020 H   0  0  0  0  0  0  0  0  0  0  0  0
  -26.4290  -31.7880   25.1520 C   0  0  1  0  0  0  0  0  0  0  0  0
  -25.3090  -31.5590   26.1960 C   0  0  0  0  0  1  0  0  0  0  0  0
  -27.0300  -30.4090   24.8010 C   0  0  0  0  0  1  0  0  0  0  0  0
  -27.5610  -32.5950   25.8300 C   0  0  0  0  0  1  0  0  0  0  0  0
  1  5  1  0
  3  1  1  0
  3  6  1  0
  4  2  1  0
  5 45  1  0
  5  2  1  0
  6 16  1  0
  6  4  1  0
  7 16  1  0
  8 13  1  0
  9 10  1  0
  9  8  1  0
 11 10  1  0
 11 20  1  0
 11 12  1  0
 13  7  1  0
 13 12  1  0
 14  7  2  0
 16 15  1  0
 17 18  2  0
 18 37  1  0
 19 18  1  0
 19 22  1  0
 20 21  1  0
 20 17  1  0
 21 19  2  0
 22 23  1  0
 23 24  2  0
 25 28  1  0
 25 24  1  0
 26 25  2  0
 27 26  1  0
 27 22  2  0
 28 29  1  0
 29 30  1  0
 30 31  2  0
 32 31  1  0
 32 36  1  0
 33 32  2  0
 34 29  2  0
 34 33  1  0
 35 34  1  0
 37 38  1  0
 38 41  1  0
 38 40  1  0
 39 37  2  0
 42 43  1  0
 42 17  1  0
 44 42  1  0
 46 48  1  0
 46 45  1  0
 47 58  2  0
 48 53  1  0
 49 57  1  0
 49 59  1  0
 50 56  1  0
 50 52  1  0
 51 57  1  0
 52 51  1  0
 53 52  2  0
 54 48  2  0
 55 54  1  0
 55 50  2  0
 56 49  1  0
 57 47  1  0
 59 61  2  0
 60 59  1  0
 62 60  1  0
 63 72  2  0
 63 68  1  0
 64 60  1  0
 64 68  1  0
 65 64  1  0
 66 67  1  0
 66 65  1  0
 67 63  1  0
 68 69  2  0
 69 70  1  0
 71 70  2  0
 72 71  1  0
 73 47  1  0
 73 74  1  0
 73 83  1  0
 74 77  1  0
 75 79  1  0
 75 74  1  0
 76 75  2  0
 79 78  1  0
 81 79  1  0
 81 82  1  0
 81 80  1  0
 83 86  1  1
 83 84  1  0
 85 83  1  0
M  ISO  4   7 100  16 100  45 101  46 101
M  END
>  <TORSDO>  (2) 
F 17

>  <SCORE>  (2) 
-16.386

>  <name>  (2) 
1

>  <ligand_id>  (2) 
1

>  <original_smiles>  (2) 
[H]c1c([H])c([H])c2c(c1[H])C([H])([H])C([H])([H])C([H])([H])C2([H])N([H])C(=O)C1([H])N(C(=O)C([H])(N([H])C(=O)C([H])(N([H])C([H])([H])[H])C([H])([H])[H])C(C([H])([H])[H])(C([H])([H])[H])C([H])([H])[H])C([H])([H])c2c([H])c(OC([H])([H])C3([H])C([H])([H])C([H])([H])C([H])(N(C(=O)N4C([H])([H])C([H])([H])C([H])([H])C([H])(n5nc(-c6c([H])c([H])c(Oc7c([H])c([H])c(F)c([H])c7F)c([H])c6[H])c(C(=O)N([H])[H])c5N([H])[H])C4([H])[H])C([H])([H])[H])C([H])([H])C3([H])[H])c([H])c([H])c2C1([H])[H]

>  <smiles>  (2) 
[H]c1c([H])c([H])c2c(c1[H])C([H])([H])C([H])([H])C([H])([H])C2([H])N([H])C(=O)C1([H])N(C(=O)C([H])(N([H])C(=O)C([H])(N([H])C([H])([H])[H])C([H])([H])[H])C(C([H])([H])[H])(C([H])([H])[H])C([H])([H])[H])C([H])([H])c2c([H])c(OC([H])([H])C3([H])C([H])([H])C([H])([H])C([H])(N(C(=O)N4C([H])([H])C([H])([H])C([H])([H])C([H])(n5nc(-c6c([H])c([H])c(Oc7c([H])c([H])c(F)c([H])c7F)c([H])c6[H])c(C(=O)N([H])[H])c5N([H])[H])C4([H])[H])C([H])([H])[H])C([H])([H])C3([H])[H])c([H])c([H])c2C1([H])[H]

$$$$
2:0:0
     RDKit          3D

 98107  0  0  1  0  0  0  0  0999 V2000
  -28.6560  -20.1310   21.3030 C   0  0  0  0  0  3  0  0  0  0  0  0
  -28.5690  -19.1450   22.2990 C   0  0  0  0  0  3  0  0  0  0  0  0
  -31.0470  -20.3280   21.7240 C   0  0  0  0  0  3  0  0  0  0  0  0
  -29.8850  -20.7620   21.0420 C   0  0  0  0  0  0  0  0  0  0  0  0
  -29.7150  -18.7270   23.0140 C   0  0  0  0  0  0  0  0  0  0  0  0
  -30.9730  -19.3030   22.7020 C   0  0  0  0  0  0  0  0  0  0  0  0
  -32.2520  -18.8930   23.4300 C   0  0  0  0  0  1  0  0  0  0  0  0
  -29.5050  -17.7880   24.2090 C   0  0  0  0  0  2  0  0  0  0  0  0
  -29.4420  -15.7270   22.6280 C   0  0  0  0  0  0  0  0  0  0  0  0
  -30.5190  -15.1610   22.0110 C   0  0  0  0  0  3  0  0  0  0  0  0
  -27.9330  -15.6950   22.4430 C   0  0  0  0  0  2  0  0  0  0  0  0
  -27.3560  -15.4800   23.8560 C   0  0  0  0  0  2  0  0  0  0  0  0
  -28.5640  -15.6140   24.7980 C   0  0  0  0  0  2  0  0  0  0  0  0
  -29.5890  -16.3070   23.9990 N   0  0  2  0  0  4  0  0  0  0  0  0
  -30.4800  -16.0370   24.3830 H   0  0  0  0  0  0  0  0  0  0  0  0
  -30.7230  -14.4100   20.7550 C   0  0  0  0  0  0  0  0  0  0  0  0
  -30.4290  -12.3510   19.3910 C   0  0  0  0  0  2  0  0  0  0  0  0
  -29.4850  -12.5760   18.1950 C   0  0  0  0  0  2  0  0  0  0  0  0
  -28.0080  -12.4060   18.6090 C   0  0  0  0  0  2  0  0  0  0  0  0
  -27.6760  -13.1790   19.9140 C   0  0  0  0  0  3  0  0  0  0  0  0
  -28.7270  -12.8340   21.0090 C   0  0  0  0  0  2  0  0  0  0  0  0
  -30.0360  -13.2550   20.4990 N   0  0  0  0  0  0  0  0  0  0  0  0
  -31.6640  -14.7340   20.0210 O   0  0  0  0  0  0  0  0  0  0  0  0
  -25.2560  -13.8110   20.5490 C   0  0  0  0  0  0  0  0  0  0  0  0
  -24.1840  -13.0420   20.9090 C   0  0  0  0  0  0  0  0  0  0  0  0
  -24.6350  -11.6890   20.8690 C   0  0  0  0  0  0  0  0  0  0  0  0
  -26.3080  -12.9250   20.3520 N   0  0  0  0  0  0  0  0  0  0  0  0
  -25.9300  -11.6450   20.5830 N   0  0  0  0  0  0  0  0  0  0  0  0
  -23.8990  -10.4290   21.0370 C   0  0  0  0  0  0  0  0  0  0  0  0
  -24.3570   -9.4250   21.9170 C   0  0  0  0  0  3  0  0  0  0  0  0
  -23.6290   -8.2270   22.0720 C   0  0  0  0  0  3  0  0  0  0  0  0
  -22.4310   -8.0230   21.3480 C   0  0  0  0  0  0  0  0  0  0  0  0
  -21.9880   -9.0200   20.4620 C   0  0  0  0  0  3  0  0  0  0  0  0
  -22.7170  -10.2110   20.3030 C   0  0  0  0  0  3  0  0  0  0  0  0
  -21.6720   -6.8810   21.4180 O   0  0  0  0  0  0  0  0  0  0  0  0
  -21.6850   -6.0690   22.5230 C   0  0  0  0  0  0  0  0  0  0  0  0
  -21.3980   -6.5610   23.8150 C   0  0  0  0  0  3  0  0  0  0  0  0
  -21.3650   -5.6790   24.9120 C   0  0  0  0  0  3  0  0  0  0  0  0
  -21.6030   -4.3060   24.7200 C   0  0  0  0  0  0  0  0  0  0  0  0
  -21.8870   -3.8110   23.4330 C   0  0  0  0  0  3  0  0  0  0  0  0
  -21.9240   -4.6900   22.3380 C   0  0  0  0  0  0  0  0  0  0  0  0
  -22.1740   -4.2090   21.0970 F   0  0  0  0  0  0  0  0  0  0  0  0
  -21.5650   -3.4580   25.7730 F   0  0  0  0  0  0  0  0  0  0  0  0
  -22.7860  -13.5220   21.1690 C   0  0  0  0  0  0  0  0  0  0  0  0
  -22.0480  -12.8220   22.0200 N   0  0  0  0  0  0  0  0  0  0  0  0
  -22.3580  -14.5580   20.6590 O   0  0  0  0  0  0  0  0  0  0  0  0
  -22.4150  -11.9980   22.4710 H   0  0  0  0  0  0  0  0  0  0  0  0
  -21.1090  -13.1220   22.2450 H   0  0  0  0  0  0  0  0  0  0  0  0
  -25.4120  -15.1810   20.3470 N   0  0  0  0  0  0  0  0  0  0  0  0
  -26.2570  -15.6310   20.0150 H   0  0  0  0  0  0  0  0  0  0  0  0
  -24.6070  -15.7990   20.3630 H   0  0  0  0  0  0  0  0  0  0  0  0
  -29.9000  -21.9580   20.0950 C   0  0  0  0  0  2  0  0  0  0  0  0
  -29.2770  -23.1190   20.7730 N   0  0  0  0  0  4  0  0  0  0  0  0
  -29.9430  -23.4480   21.4540 H   0  0  0  0  0  0  0  0  0  0  0  0
  -28.4790  -22.7660   21.2750 H   0  0  0  0  0  0  0  0  0  0  0  0
  -28.8360  -24.2570   19.9180 C   0  0  0  0  0  2  0  0  0  0  0  0
  -28.3960  -25.4740   20.7800 C   0  0  0  0  0  2  0  0  0  0  0  0
  -28.4080  -26.7130   20.0530 O   0  0  0  0  0  0  0  0  0  0  0  0
  -24.6160  -31.8670   23.2070 C   0  0  0  0  0  0  0  0  0  0  0  0
  -27.2410  -27.4410   20.0940 C   0  0  0  0  0  0  0  0  0  0  0  0
  -23.4040  -30.4920   21.5490 C   0  0  0  0  0  3  0  0  0  0  0  0
  -24.8510  -28.9490   20.1210 C   0  0  0  0  0  0  0  0  0  0  0  0
  -25.9300  -30.8370   21.3590 C   0  0  0  0  0  2  0  0  0  0  0  0
  -26.0110  -29.4690   20.7110 C   0  0  0  0  0  0  0  0  0  0  0  0
  -27.2110  -28.7200   20.6960 C   0  0  0  0  0  3  0  0  0  0  0  0
  -26.0650  -26.9320   19.5030 C   0  0  0  0  0  3  0  0  0  0  0  0
  -24.8700  -27.6770   19.5190 C   0  0  0  0  0  3  0  0  0  0  0  0
  -23.6140  -29.8190   20.1660 C   0  0  0  0  0  2  0  0  0  0  0  0
  -24.6690  -31.0770   22.0990 N   0  0  0  0  0  0  0  0  0  0  0  0
  -23.5360  -32.1420   23.7470 O   0  0  0  0  0  0  0  0  0  0  0  0
  -22.7410  -29.4680   22.4970 C   0  0  0  0  0  0  0  0  0  0  0  0
  -21.4130  -29.3060   22.3730 N   0  0  0  0  0  0  0  0  0  0  0  0
  -23.4180  -28.8210   23.3020 O   0  0  0  0  0  0  0  0  0  0  0  0
  -20.9310  -29.8850   21.6980 H   0  0  0  0  0  0  0  0  0  0  0  0
  -18.0250  -28.1390   22.8500 C   0  0  0  0  0  0  0  0  0  0  0  0
  -20.5850  -28.3690   23.1310 C   0  0  0  0  0  3  0  0  0  0  0  0
  -20.6740  -26.9420   22.5430 C   0  0  0  0  0  2  0  0  0  0  0  0
  -19.5720  -26.6410   21.5220 C   0  0  0  0  0  2  0  0  0  0  0  0
  -18.1900  -26.7930   22.1640 C   0  0  0  0  0  2  0  0  0  0  0  0
  -19.1510  -28.8860   23.2890 C   0  0  0  0  0  0  0  0  0  0  0  0
  -18.9430  -30.1460   23.8920 C   0  0  0  0  0  3  0  0  0  0  0  0
  -17.6440  -30.6600   24.0590 C   0  0  0  0  0  3  0  0  0  0  0  0
  -16.5340  -29.9130   23.6320 C   0  0  0  0  0  3  0  0  0  0  0  0
  -16.7250  -28.6540   23.0340 C   0  0  0  0  0  3  0  0  0  0  0  0
  -25.9060  -32.4810   23.8380 C   0  0  0  0  0  3  0  0  0  0  0  0
  -25.5870  -33.8600   24.2300 N   0  0  0  0  0  0  0  0  0  0  0  0
  -25.9030  -34.9470   23.5120 C   0  0  0  0  0  0  0  0  0  0  0  0
  -26.5640  -34.8950   22.4710 O   0  0  0  0  0  0  0  0  0  0  0  0
  -24.9900  -33.9760   25.0350 H   0  0  0  0  0  0  0  0  0  0  0  0
  -24.1490  -36.7340   23.2630 C   0  0  0  0  0  1  0  0  0  0  0  0
  -25.4110  -36.3110   24.0330 C   0  0  0  0  0  3  0  0  0  0  0  0
  -27.5580  -37.1820   24.8460 C   0  0  0  0  0  1  0  0  0  0  0  0
  -26.4290  -37.3810   23.9390 N   0  0  0  0  0  0  0  0  0  0  0  0
  -26.0170  -38.2900   24.1380 H   0  0  0  0  0  0  0  0  0  0  0  0
  -26.4480  -31.6570   25.0710 C   0  0  1  0  0  0  0  0  0  0  0  0
  -25.3730  -31.3690   26.1440 C   0  0  0  0  0  1  0  0  0  0  0  0
  -27.0290  -30.3000   24.6070 C   0  0  0  0  0  1  0  0  0  0  0  0
  -27.6090  -32.4260   25.7450 C   0  0  0  0  0  1  0  0  0  0  0  0
  1  2  1  0
  2  5  2  0
  3  6  2  0
  4  1  2  0
  4  3  1  0
  5  8  1  0
  6  5  1  0
  6  7  1  0
  9 14  1  0
 10  9  2  0
 11  9  1  0
 11 12  1  0
 12 13  1  0
 14  8  1  0
 14 15  1  1
 14 13  1  0
 16 10  1  0
 17 22  1  0
 18 19  1  0
 18 17  1  0
 20 19  1  0
 20 27  1  0
 20 21  1  0
 22 16  1  0
 22 21  1  0
 23 16  2  0
 24 25  2  0
 25 44  1  0
 26 25  1  0
 26 29  1  0
 27 24  1  0
 27 28  1  0
 28 26  2  0
 29 30  1  0
 30 31  2  0
 32 35  1  0
 32 31  1  0
 33 32  2  0
 34 33  1  0
 34 29  2  0
 35 36  1  0
 36 37  1  0
 37 38  2  0
 39 38  1  0
 39 43  1  0
 40 39  2  0
 41 36  2  0
 41 40  1  0
 42 41  1  0
 44 45  1  0
 45 48  1  0
 45 47  1  0
 46 44  2  0
 49 51  1  0
 49 24  1  0
 50 49  1  0
 52 53  1  0
 52  4  1  0
 53 55  1  0
 53 54  1  0
 56 53  1  0
 56 57  1  0
 58 60  1  0
 58 57  1  0
 59 70  2  0
 60 65  1  0
 61 69  1  0
 61 71  1  0
 62 68  1  0
 62 64  1  0
 63 69  1  0
 64 63  1  0
 65 64  2  0
 66 67  1  0
 66 60  2  0
 67 62  2  0
 68 61  1  0
 69 59  1  0
 71 73  2  0
 72 71  1  0
 74 72  1  0
 75 84  2  0
 75 80  1  0
 76 72  1  0
 76 80  1  0
 77 76  1  0
 78 79  1  0
 78 77  1  0
 79 75  1  0
 80 81  2  0
 81 82  1  0
 83 82  2  0
 84 83  1  0
 85 59  1  0
 85 86  1  0
 85 95  1  0
 86 89  1  0
 87 91  1  0
 87 86  1  0
 88 87  2  0
 91 90  1  0
 93 91  1  0
 93 94  1  0
 93 92  1  0
 95 98  1  1
 95 96  1  0
 97 95  1  0
M  ISO  4  10 100  16 100  57 101  58 101
M  END
>  <TORSDO>  (3) 
F 22

>  <SCORE>  (3) 
26.609

>  <name>  (3) 
2

>  <ligand_id>  (3) 
2

>  <original_smiles>  (3) 
[H]C(C(=O)N1C([H])([H])C([H])([H])C([H])([H])C([H])(n2nc(-c3c([H])c([H])c(Oc4c([H])c([H])c(F)c([H])c4F)c([H])c3[H])c(C(=O)N([H])[H])c2N([H])[H])C1([H])[H])=C1C([H])([H])C([H])([H])C([H])([H])[N+]1([H])C([H])([H])c1c([H])c([H])c(C([H])([H])[N+]([H])([H])C([H])([H])C([H])([H])Oc2c([H])c([H])c3c(c2[H])C([H])([H])N(C(=O)C([H])(N([H])C(=O)C([H])(N([H])C([H])([H])[H])C([H])([H])[H])C(C([H])([H])[H])(C([H])([H])[H])C([H])([H])[H])C([H])(C(=O)N([H])C2([H])c4c([H])c([H])c([H])c([H])c4C([H])([H])C([H])([H])C2([H])[H])C3([H])[H])c([H])c1C([H])([H])[H]

>  <smiles>  (3) 
[H]C(C(=O)N1C([H])([H])C([H])([H])C([H])([H])C([H])(n2nc(-c3c([H])c([H])c(Oc4c([H])c([H])c(F)c([H])c4F)c([H])c3[H])c(C(=O)N([H])[H])c2N([H])[H])C1([H])[H])=C1C([H])([H])C([H])([H])C([H])([H])[N+]1([H])C([H])([H])c1c([H])c([H])c(C([H])([H])[N+]([H])([H])C([H])([H])C([H])([H])Oc2c([H])c([H])c3c(c2[H])C([H])([H])N(C(=O)C([H])(N([H])C(=O)C([H])(N([H])C([H])([H])[H])C([H])([H])[H])C(C([H])([H])[H])(C([H])([H])[H])C([H])([H])[H])C([H])(C(=O)N([H])C2([H])c4c([H])c([H])c([H])c([H])c4C([H])([H])C([H])([H])C2([H])[H])C3([H])[H])c([H])c1C([H])([H])[H]

$$$$
3:0:0
     RDKit          3D

 94102  0  0  1  0  0  0  0  0999 V2000
  -30.3190  -21.9820   20.1070 N   0  0  0  0  0  0  0  0  0  0  0  0
  -30.7090  -18.2250   19.7170 C   0  0  0  0  0  3  0  0  0  0  0  0
  -28.8220  -18.6620   21.1620 C   0  0  0  0  0  3  0  0  0  0  0  0
  -30.9550  -19.6110   19.6290 C   0  0  0  0  0  3  0  0  0  0  0  0
  -29.0570  -20.0510   21.0560 C   0  0  0  0  0  3  0  0  0  0  0  0
  -29.6330  -17.7350   20.4810 C   0  0  0  0  0  0  0  0  0  0  0  0
  -30.1150  -20.5720   20.2640 C   0  0  0  0  0  0  0  0  0  0  0  0
  -29.3050  -16.2400   20.5310 C   0  0  0  0  0  2  0  0  0  0  0  0
  -30.8300  -14.3690   20.0320 C   0  0  0  0  0  0  0  0  0  0  0  0
  -30.3940  -12.1890   18.9480 C   0  0  0  0  0  2  0  0  0  0  0  0
  -29.4140  -12.3340   17.7680 C   0  0  0  0  0  2  0  0  0  0  0  0
  -27.9570  -12.2350   18.2540 C   0  0  0  0  0  2  0  0  0  0  0  0
  -27.6740  -13.1510   19.4720 C   0  0  0  0  0  3  0  0  0  0  0  0
  -28.7630  -12.9940   20.5580 C   0  0  0  0  0  2  0  0  0  0  0  0
  -30.0770  -13.2350   19.9370 N   0  0  0  0  0  0  0  0  0  0  0  0
  -31.9030  -14.4990   19.4340 O   0  0  0  0  0  0  0  0  0  0  0  0
  -31.3570  -15.9020   21.8530 C   0  0  0  0  0  1  0  0  0  0  0  0
  -30.4080  -15.3280   20.8930 N   0  0  0  0  0  0  0  0  0  0  0  0
  -25.3430  -13.8690   20.2920 C   0  0  0  0  0  0  0  0  0  0  0  0
  -24.2590  -13.1450   20.7070 C   0  0  0  0  0  0  0  0  0  0  0  0
  -24.6570  -11.7720   20.6540 C   0  0  0  0  0  0  0  0  0  0  0  0
  -26.3330  -12.9400   20.0110 N   0  0  0  0  0  0  0  0  0  0  0  0
  -25.9280  -11.6760   20.2880 N   0  0  0  0  0  0  0  0  0  0  0  0
  -23.8850  -10.5430   20.8730 C   0  0  0  0  0  0  0  0  0  0  0  0
  -24.2950   -9.5710   21.8100 C   0  0  0  0  0  3  0  0  0  0  0  0
  -23.5250   -8.4070   22.0160 C   0  0  0  0  0  3  0  0  0  0  0  0
  -22.3310   -8.2060   21.2830 C   0  0  0  0  0  0  0  0  0  0  0  0
  -21.9390   -9.1680   20.3340 C   0  0  0  0  0  3  0  0  0  0  0  0
  -22.7100  -10.3250   20.1270 C   0  0  0  0  0  3  0  0  0  0  0  0
  -21.5320   -7.0960   21.3980 O   0  0  0  0  0  0  0  0  0  0  0  0
  -21.4550   -6.3830   22.5680 C   0  0  0  0  0  0  0  0  0  0  0  0
  -21.0540   -6.9810   23.7820 C   0  0  0  0  0  3  0  0  0  0  0  0
  -20.9230   -6.1960   24.9440 C   0  0  0  0  0  3  0  0  0  0  0  0
  -21.1830   -4.8130   24.8940 C   0  0  0  0  0  0  0  0  0  0  0  0
  -21.5770   -4.2150   23.6850 C   0  0  0  0  0  3  0  0  0  0  0  0
  -21.7100   -4.9960   22.5240 C   0  0  0  0  0  0  0  0  0  0  0  0
  -22.0690   -4.4110   21.3570 F   0  0  0  0  0  0  0  0  0  0  0  0
  -21.0480   -4.0570   26.0090 F   0  0  0  0  0  0  0  0  0  0  0  0
  -22.8980  -13.6830   21.0420 C   0  0  0  0  0  0  0  0  0  0  0  0
  -22.1780  -13.0160   21.9370 N   0  0  0  0  0  0  0  0  0  0  0  0
  -22.4840  -14.7290   20.5430 O   0  0  0  0  0  0  0  0  0  0  0  0
  -22.5260  -12.1700   22.3610 H   0  0  0  0  0  0  0  0  0  0  0  0
  -21.2650  -13.3590   22.2040 H   0  0  0  0  0  0  0  0  0  0  0  0
  -25.5620  -15.2340   20.1090 N   0  0  0  0  0  0  0  0  0  0  0  0
  -24.8330  -15.9220   20.2600 H   0  0  0  0  0  0  0  0  0  0  0  0
  -26.4110  -15.6340   19.7290 H   0  0  0  0  0  0  0  0  0  0  0  0
  -29.1430  -22.8690   20.2500 C   0  0  0  0  0  2  0  0  0  0  0  0
  -29.4360  -24.4020   20.2950 C   0  0  0  0  0  2  0  0  0  0  0  0
  -28.1410  -25.2290   20.2100 C   0  0  0  0  0  2  0  0  0  0  0  0
  -28.3480  -26.6580   20.1720 O   0  0  0  0  0  0  0  0  0  0  0  0
  -24.5700  -31.8880   23.2160 C   0  0  0  0  0  0  0  0  0  0  0  0
  -27.1930  -27.4210   20.1330 C   0  0  0  0  0  0  0  0  0  0  0  0
  -23.3610  -30.4790   21.5900 C   0  0  0  0  0  3  0  0  0  0  0  0
  -24.8070  -28.9560   20.1500 C   0  0  0  0  0  0  0  0  0  0  0  0
  -25.8920  -30.8350   21.3830 C   0  0  0  0  0  2  0  0  0  0  0  0
  -25.9730  -29.4670   20.7350 C   0  0  0  0  0  0  0  0  0  0  0  0
  -27.1690  -28.7110   20.7180 C   0  0  0  0  0  3  0  0  0  0  0  0
  -26.0060  -26.9380   19.5310 C   0  0  0  0  0  3  0  0  0  0  0  0
  -24.8230  -27.6930   19.5390 C   0  0  0  0  0  3  0  0  0  0  0  0
  -23.5640  -29.8150   20.2030 C   0  0  0  0  0  2  0  0  0  0  0  0
  -24.6280  -31.0820   22.1190 N   0  0  0  0  0  0  0  0  0  0  0  0
  -23.4900  -32.1570   23.7600 O   0  0  0  0  0  0  0  0  0  0  0  0
  -22.7210  -29.4510   22.5490 C   0  0  0  0  0  0  0  0  0  0  0  0
  -21.3970  -29.2640   22.4290 N   0  0  0  0  0  0  0  0  0  0  0  0
  -23.4100  -28.8270   23.3590 O   0  0  0  0  0  0  0  0  0  0  0  0
  -20.9030  -29.8210   21.7460 H   0  0  0  0  0  0  0  0  0  0  0  0
  -18.0240  -28.0640   22.9460 C   0  0  0  0  0  0  0  0  0  0  0  0
  -20.5840  -28.3260   23.2030 C   0  0  0  0  0  3  0  0  0  0  0  0
  -20.6850  -26.8930   22.6300 C   0  0  0  0  0  2  0  0  0  0  0  0
  -19.5790  -26.5660   21.6230 C   0  0  0  0  0  2  0  0  0  0  0  0
  -18.2000  -26.7110   22.2740 C   0  0  0  0  0  2  0  0  0  0  0  0
  -19.1460  -28.8280   23.3670 C   0  0  0  0  0  0  0  0  0  0  0  0
  -18.9300  -30.0910   23.9590 C   0  0  0  0  0  3  0  0  0  0  0  0
  -17.6260  -30.5950   24.1290 C   0  0  0  0  0  3  0  0  0  0  0  0
  -16.5200  -29.8280   23.7240 C   0  0  0  0  0  3  0  0  0  0  0  0
  -16.7190  -28.5640   23.1400 C   0  0  0  0  0  3  0  0  0  0  0  0
  -25.8550  -32.5290   23.8230 C   0  0  0  0  0  3  0  0  0  0  0  0
  -25.5390  -33.9260   24.1530 N   0  0  0  0  0  0  0  0  0  0  0  0
  -25.8580  -34.9780   23.3880 C   0  0  0  0  0  0  0  0  0  0  0  0
  -26.5230  -34.8760   22.3530 O   0  0  0  0  0  0  0  0  0  0  0  0
  -24.9490  -34.0780   24.9560 H   0  0  0  0  0  0  0  0  0  0  0  0
  -24.1150  -36.7550   23.0260 C   0  0  0  0  0  1  0  0  0  0  0  0
  -25.3580  -36.3640   23.8420 C   0  0  0  0  0  3  0  0  0  0  0  0
  -27.4910  -37.2510   24.6700 C   0  0  0  0  0  1  0  0  0  0  0  0
  -26.3830  -37.4250   23.7370 N   0  0  0  0  0  0  0  0  0  0  0  0
  -25.9710  -38.3390   23.9070 H   0  0  0  0  0  0  0  0  0  0  0  0
  -26.3850  -31.7640   25.0980 C   0  0  1  0  0  0  0  0  0  0  0  0
  -25.2950  -31.5210   26.1690 C   0  0  0  0  0  1  0  0  0  0  0  0
  -26.9740  -30.3910   24.6990 C   0  0  0  0  0  1  0  0  0  0  0  0
  -27.5370  -32.5640   25.7480 C   0  0  0  0  0  1  0  0  0  0  0  0
  -31.3520  -22.3920   19.1410 C   0  0  0  0  0  2  0  0  0  0  0  0
  -30.9180  -22.2330   17.6670 C   0  0  0  0  0  3  0  0  0  0  0  0
  -31.9360  -22.5410   16.8650 F   0  0  0  0  0  0  0  0  0  0  0  0
  -29.8900  -23.0240   17.3610 F   0  0  0  0  0  0  0  0  0  0  0  0
  1 47  1  0
  1  7  1  0
  2  6  1  0
  4  2  2  0
  4  7  1  0
  5  3  1  0
  6  8  1  0
  6  3  2  0
  7  5  2  0
  8 18  1  0
  9 18  1  0
 10 15  1  0
 11 12  1  0
 11 10  1  0
 13 12  1  0
 13 22  1  0
 13 14  1  0
 15  9  1  0
 15 14  1  0
 16  9  2  0
 18 17  1  0
 19 20  2  0
 20 39  1  0
 21 20  1  0
 21 24  1  0
 22 23  1  0
 22 19  1  0
 23 21  2  0
 24 25  1  0
 25 26  2  0
 27 30  1  0
 27 26  1  0
 28 27  2  0
 29 28  1  0
 29 24  2  0
 30 31  1  0
 31 32  1  0
 32 33  2  0
 34 33  1  0
 34 38  1  0
 35 34  2  0
 36 31  2  0
 36 35  1  0
 37 36  1  0
 39 40  1  0
 40 43  1  0
 40 42  1  0
 41 39  2  0
 44 45  1  0
 44 19  1  0
 46 44  1  0
 47 48  1  0
 49 48  1  0
 50 49  1  0
 51 62  2  0
 52 50  1  0
 52 57  1  0
 53 61  1  0
 53 63  1  0
 54 60  1  0
 54 56  1  0
 55 61  1  0
 56 55  1  0
 57 56  2  0
 58 59  1  0
 58 52  2  0
 59 54  2  0
 60 53  1  0
 61 51  1  0
 63 65  2  0
 64 63  1  0
 66 64  1  0
 67 76  2  0
 67 72  1  0
 68 64  1  0
 68 72  1  0
 69 68  1  0
 70 71  1  0
 70 69  1  0
 71 67  1  0
 72 73  2  0
 73 74  1  0
 75 74  2  0
 76 75  1  0
 77 51  1  0
 77 78  1  0
 77 87  1  0
 78 81  1  0
 79 83  1  0
 79 78  1  0
 80 79  2  0
 83 82  1  0
 85 83  1  0
 85 86  1  0
 85 84  1  0
 87 90  1  1
 87 88  1  0
 89 87  1  0
 91  1  1  0
 92 91  1  0
 93 92  1  0
 94 92  1  0
M  ISO  4   9 100  18 100  49 101  50 101
M  END
>  <TORSDO>  (4) 
F 23

>  <SCORE>  (4) 
-12.072

>  <name>  (4) 
3

>  <ligand_id>  (4) 
3

>  <original_smiles>  (4) 
[H]c1c([H])c([H])c2c(c1[H])C([H])([H])C([H])([H])C([H])([H])C2([H])N([H])C(=O)C1([H])N(C(=O)C([H])(N([H])C(=O)C([H])(N([H])C([H])([H])[H])C([H])([H])[H])C(C([H])([H])[H])(C([H])([H])[H])C([H])([H])[H])C([H])([H])c2c([H])c(OC([H])([H])C([H])([H])C([H])([H])N(c3c([H])c([H])c(C([H])([H])N(C(=O)N4C([H])([H])C([H])([H])C([H])([H])C([H])(n5nc(-c6c([H])c([H])c(Oc7c([H])c([H])c(F)c([H])c7F)c([H])c6[H])c(C(=O)N([H])[H])c5N([H])[H])C4([H])[H])C([H])([H])[H])c([H])c3[H])C([H])([H])C([H])(F)F)c([H])c([H])c2C1([H])[H]

>  <smiles>  (4) 
[H]c1c([H])c([H])c2c(c1[H])C([H])([H])C([H])([H])C([H])([H])C2([H])N([H])C(=O)C1([H])N(C(=O)C([H])(N([H])C(=O)C([H])(N([H])C([H])([H])[H])C([H])([H])[H])C(C([H])([H])[H])(C([H])([H])[H])C([H])([H])[H])C([H])([H])c2c([H])c(OC([H])([H])C([H])([H])C([H])([H])N(c3c([H])c([H])c(C([H])([H])N(C(=O)N4C([H])([H])C([H])([H])C([H])([H])C([H])(n5nc(-c6c([H])c([H])c(Oc7c([H])c([H])c(F)c([H])c7F)c([H])c6[H])c(C(=O)N([H])[H])c5N([H])[H])C4([H])[H])C([H])([H])[H])c([H])c3[H])C([H])([H])C([H])(F)F)c([H])c([H])c2C1([H])[H]

$$$$
4:0:0
     RDKit          3D

 90 98  0  0  1  0  0  0  0  0999 V2000
  -29.6340  -21.4160   19.8200 N   0  0  0  0  0  0  0  0  0  0  0  0
  -30.1340  -21.7260   18.9900 H   0  0  0  0  0  0  0  0  0  0  0  0
  -30.8210  -17.8240   19.5300 C   0  0  0  0  0  3  0  0  0  0  0  0
  -29.1680  -17.9040   21.2760 C   0  0  0  0  0  3  0  0  0  0  0  0
  -30.6830  -19.2340   19.3600 C   0  0  0  0  0  3  0  0  0  0  0  0
  -29.0480  -19.3190   21.1230 C   0  0  0  0  0  3  0  0  0  0  0  0
  -30.0360  -17.1120   20.4730 C   0  0  0  0  0  0  0  0  0  0  0  0
  -29.7800  -20.0200   20.1280 C   0  0  0  0  0  0  0  0  0  0  0  0
  -30.7130  -14.6430   20.0390 C   0  0  0  0  0  0  0  0  0  0  0  0
  -30.4010  -12.4420   18.9220 C   0  0  0  0  0  2  0  0  0  0  0  0
  -29.3870  -12.6400   17.7730 C   0  0  0  0  0  2  0  0  0  0  0  0
  -27.9420  -12.4720   18.2850 C   0  0  0  0  0  2  0  0  0  0  0  0
  -27.6740  -13.2860   19.5790 C   0  0  0  0  0  3  0  0  0  0  0  0
  -28.8030  -13.0770   20.6150 C   0  0  0  0  0  2  0  0  0  0  0  0
  -30.0800  -13.4260   19.9720 N   0  0  0  0  0  0  0  0  0  0  0  0
  -31.8150  -14.8200   19.5110 O   0  0  0  0  0  0  0  0  0  0  0  0
  -30.0100  -15.6550   20.6290 N   0  0  0  0  0  0  0  0  0  0  0  0
  -29.2260  -15.3110   21.1620 H   0  0  0  0  0  0  0  0  0  0  0  0
  -25.3320  -13.8690   20.4670 C   0  0  0  0  0  0  0  0  0  0  0  0
  -24.2850  -13.0890   20.8770 C   0  0  0  0  0  0  0  0  0  0  0  0
  -24.7360  -11.7360   20.7720 C   0  0  0  0  0  0  0  0  0  0  0  0
  -26.3550  -12.9930   20.1360 N   0  0  0  0  0  0  0  0  0  0  0  0
  -26.0040  -11.7030   20.3790 N   0  0  0  0  0  0  0  0  0  0  0  0
  -24.0150  -10.4700   20.9660 C   0  0  0  0  0  0  0  0  0  0  0  0
  -24.4660   -9.5000   21.8880 C   0  0  0  0  0  3  0  0  0  0  0  0
  -23.7470   -8.2980   22.0690 C   0  0  0  0  0  3  0  0  0  0  0  0
  -22.5640   -8.0610   21.3300 C   0  0  0  0  0  0  0  0  0  0  0  0
  -22.1330   -9.0210   20.3970 C   0  0  0  0  0  3  0  0  0  0  0  0
  -22.8520  -10.2140   20.2140 C   0  0  0  0  0  3  0  0  0  0  0  0
  -21.8140   -6.9150   21.4240 O   0  0  0  0  0  0  0  0  0  0  0  0
  -21.7380   -6.1970   22.5900 C   0  0  0  0  0  0  0  0  0  0  0  0
  -21.2550   -6.7660   23.7890 C   0  0  0  0  0  3  0  0  0  0  0  0
  -21.1320   -5.9710   24.9450 C   0  0  0  0  0  3  0  0  0  0  0  0
  -21.4800   -4.6070   24.9050 C   0  0  0  0  0  0  0  0  0  0  0  0
  -21.9560   -4.0380   23.7120 C   0  0  0  0  0  3  0  0  0  0  0  0
  -22.0810   -4.8290   22.5560 C   0  0  0  0  0  0  0  0  0  0  0  0
  -22.5200   -4.2710   21.4040 F   0  0  0  0  0  0  0  0  0  0  0  0
  -21.3540   -3.8410   26.0150 F   0  0  0  0  0  0  0  0  0  0  0  0
  -22.9100  -13.5630   21.2480 C   0  0  0  0  0  0  0  0  0  0  0  0
  -22.2280  -12.8440   22.1330 N   0  0  0  0  0  0  0  0  0  0  0  0
  -22.4500  -14.6080   20.7900 O   0  0  0  0  0  0  0  0  0  0  0  0
  -22.6110  -12.0010   22.5340 H   0  0  0  0  0  0  0  0  0  0  0  0
  -21.3070  -13.1470   22.4170 H   0  0  0  0  0  0  0  0  0  0  0  0
  -25.5000  -15.2440   20.3270 N   0  0  0  0  0  0  0  0  0  0  0  0
  -24.7560  -15.9080   20.5120 H   0  0  0  0  0  0  0  0  0  0  0  0
  -26.3390  -15.6810   19.9680 H   0  0  0  0  0  0  0  0  0  0  0  0
  -29.1150  -22.5150   20.6920 C   0  0  0  0  0  2  0  0  0  0  0  0
  -28.9140  -23.9370   19.9780 C   0  0  0  0  0  3  0  0  0  0  0  0
  -28.3480  -25.1710   20.8140 C   0  0  0  0  0  3  0  0  0  0  0  0
  -28.4670  -26.5320   20.2450 O   0  0  0  0  0  0  0  0  0  0  0  0
  -24.6800  -31.9040   23.1960 C   0  0  0  0  0  0  0  0  0  0  0  0
  -27.3280  -27.3450   20.2220 C   0  0  0  0  0  0  0  0  0  0  0  0
  -23.4820  -30.4760   21.5730 C   0  0  0  0  0  3  0  0  0  0  0  0
  -24.9460  -28.9150   20.1720 C   0  0  0  0  0  0  0  0  0  0  0  0
  -26.0150  -30.8210   21.3810 C   0  0  0  0  0  2  0  0  0  0  0  0
  -26.1080  -29.4340   20.7580 C   0  0  0  0  0  0  0  0  0  0  0  0
  -27.3040  -28.6610   20.7690 C   0  0  0  0  0  3  0  0  0  0  0  0
  -26.1470  -26.8640   19.6190 C   0  0  0  0  0  3  0  0  0  0  0  0
  -24.9660  -27.6350   19.5950 C   0  0  0  0  0  3  0  0  0  0  0  0
  -23.7030  -29.7820   20.2010 C   0  0  0  0  0  2  0  0  0  0  0  0
  -24.7440  -31.0860   22.1060 N   0  0  0  0  0  0  0  0  0  0  0  0
  -23.5970  -32.1810   23.7320 O   0  0  0  0  0  0  0  0  0  0  0  0
  -22.8310  -29.4660   22.5470 C   0  0  0  0  0  0  0  0  0  0  0  0
  -21.5040  -29.2890   22.4330 N   0  0  0  0  0  0  0  0  0  0  0  0
  -23.5180  -28.8460   23.3610 O   0  0  0  0  0  0  0  0  0  0  0  0
  -21.0100  -29.8400   21.7450 H   0  0  0  0  0  0  0  0  0  0  0  0
  -18.1290  -28.1050   22.9700 C   0  0  0  0  0  0  0  0  0  0  0  0
  -20.6910  -28.3580   23.2160 C   0  0  0  0  0  3  0  0  0  0  0  0
  -20.7830  -26.9230   22.6480 C   0  0  0  0  0  2  0  0  0  0  0  0
  -19.6710  -26.5970   21.6460 C   0  0  0  0  0  2  0  0  0  0  0  0
  -18.2950  -26.7500   22.3010 C   0  0  0  0  0  2  0  0  0  0  0  0
  -19.2540  -28.8670   23.3850 C   0  0  0  0  0  0  0  0  0  0  0  0
  -19.0440  -30.1340   23.9690 C   0  0  0  0  0  3  0  0  0  0  0  0
  -17.7420  -30.6400   24.1460 C   0  0  0  0  0  3  0  0  0  0  0  0
  -16.6320  -29.8750   23.7490 C   0  0  0  0  0  3  0  0  0  0  0  0
  -16.8260  -28.6100   23.1660 C   0  0  0  0  0  3  0  0  0  0  0  0
  -25.9620  -32.5500   23.8110 C   0  0  0  0  0  3  0  0  0  0  0  0
  -26.5040  -31.7760   25.0750 C   0  0  1  0  0  0  0  0  0  0  0  0
  -25.4260  -31.5120   26.1530 C   0  0  0  0  0  1  0  0  0  0  0  0
  -27.1070  -30.4120   24.6660 C   0  0  0  0  0  1  0  0  0  0  0  0
  -27.6490  -32.5830   25.7320 C   0  0  0  0  0  1  0  0  0  0  0  0
  -25.6380  -33.9420   24.1540 N   0  0  0  0  0  0  0  0  0  0  0  0
  -25.9390  -35.0030   23.3950 C   0  0  0  0  0  0  0  0  0  0  0  0
  -26.5900  -34.9150   22.3490 O   0  0  0  0  0  0  0  0  0  0  0  0
  -25.0590  -34.0830   24.9690 H   0  0  0  0  0  0  0  0  0  0  0  0
  -24.1760  -36.7680   23.0860 C   0  0  0  0  0  1  0  0  0  0  0  0
  -25.4390  -36.3800   23.8690 C   0  0  0  0  0  3  0  0  0  0  0  0
  -27.5730  -37.2960   24.6640 C   0  0  0  0  0  1  0  0  0  0  0  0
  -26.4500  -37.4510   23.7420 N   0  0  0  0  0  0  0  0  0  0  0  0
  -26.0330  -38.3640   23.9020 H   0  0  0  0  0  0  0  0  0  0  0  0
  1  8  1  0
  1 47  1  0
  2  1  1  0
  3  7  1  0
  5  3  2  0
  5  8  1  0
  6  4  1  0
  7 17  1  0
  7  4  2  0
  8  6  2  0
  9 17  1  0
 10 15  1  0
 11 12  1  0
 11 10  1  0
 13 12  1  0
 13 22  1  0
 13 14  1  0
 15  9  1  0
 15 14  1  0
 16  9  2  0
 17 18  1  0
 19 20  2  0
 20 39  1  0
 21 20  1  0
 21 24  1  0
 22 23  1  0
 22 19  1  0
 23 21  2  0
 24 25  1  0
 25 26  2  0
 27 30  1  0
 27 26  1  0
 28 27  2  0
 29 28  1  0
 29 24  2  0
 30 31  1  0
 31 32  1  0
 32 33  2  0
 34 33  1  0
 34 38  1  0
 35 34  2  0
 36 31  2  0
 36 35  1  0
 37 36  1  0
 39 40  1  0
 40 43  1  0
 40 42  1  0
 41 39  2  0
 44 19  1  0
 44 45  1  0
 46 44  1  0
 48 47  1  0
 48 49  2  0
 50 49  1  0
 51 62  2  0
 52 50  1  0
 52 57  1  0
 53 61  1  0
 53 63  1  0
 54 60  1  0
 54 56  1  0
 55 61  1  0
 56 57  2  0
 56 55  1  0
 58 52  2  0
 59 58  1  0
 59 54  2  0
 60 53  1  0
 61 51  1  0
 63 65  2  0
 64 63  1  0
 66 64  1  0
 67 76  2  0
 67 72  1  0
 68 64  1  0
 68 72  1  0
 69 68  1  0
 70 71  1  0
 70 69  1  0
 71 67  1  0
 72 73  2  0
 73 74  1  0
 75 74  2  0
 76 75  1  0
 77 51  1  0
 77 82  1  0
 77 78  1  0
 78 81  1  1
 78 79  1  0
 80 78  1  0
 82 85  1  0
 83 87  1  0
 83 82  1  0
 84 83  2  0
 87 86  1  0
 89 87  1  0
 89 90  1  0
 89 88  1  0
M  ISO  4   9 100  17 100  49 101  50 101
M  END
>  <TORSDO>  (5) 
F 20

>  <SCORE>  (5) 
-13.017

>  <name>  (5) 
4

>  <ligand_id>  (5) 
4

>  <original_smiles>  (5) 
[H]c1c([H])c([H])c2c(c1[H])C([H])([H])C([H])([H])C([H])([H])C2([H])N([H])C(=O)C1([H])N(C(=O)C([H])(N([H])C(=O)C([H])(N([H])C([H])([H])[H])C([H])([H])[H])C(C([H])([H])[H])(C([H])([H])[H])C([H])([H])[H])C([H])([H])c2c([H])c(OC([H])([H])C([H])([H])C([H])([H])N([H])c3c([H])c([H])c(N([H])C(=O)N4C([H])([H])C([H])([H])C([H])([H])C([H])(n5nc(-c6c([H])c([H])c(Oc7c([H])c([H])c(F)c([H])c7F)c([H])c6[H])c(C(=O)N([H])[H])c5N([H])[H])C4([H])[H])c([H])c3[H])c([H])c([H])c2C1([H])[H]

>  <smiles>  (5) 
[H]c1c([H])c([H])c2c(c1[H])C([H])([H])C([H])([H])C([H])([H])C2([H])N([H])C(=O)C1([H])N(C(=O)C([H])(N([H])C(=O)C([H])(N([H])C([H])([H])[H])C([H])([H])[H])C(C([H])([H])[H])(C([H])([H])[H])C([H])([H])[H])C([H])([H])c2c([H])c(OC([H])([H])C([H])([H])C([H])([H])N([H])c3c([H])c([H])c(N([H])C(=O)N4C([H])([H])C([H])([H])C([H])([H])C([H])(n5nc(-c6c([H])c([H])c(Oc7c([H])c([H])c(F)c([H])c7F)c([H])c6[H])c(C(=O)N([H])[H])c5N([H])[H])C4([H])[H])c([H])c3[H])c([H])c([H])c2C1([H])[H]

$$$$
5:0:0
     RDKit          3D

 89 97  0  0  1  0  0  0  0  0999 V2000
  -27.2260  -20.5340   19.1810 C   0  0  0  0  0  1  0  0  0  0  0  0
  -28.5290  -20.6220   19.8360 N   0  0  0  0  0  0  0  0  0  0  0  0
  -28.7710  -16.7730   20.6530 C   0  0  0  0  0  3  0  0  0  0  0  0
  -28.3350  -18.1630   20.6360 C   0  0  0  0  0  3  0  0  0  0  0  0
  -30.7500  -17.4340   19.5490 C   0  0  0  0  0  3  0  0  0  0  0  0
  -30.0050  -16.3230   20.0760 C   0  0  0  0  0  0  0  0  0  0  0  0
  -29.0760  -19.2620   20.0660 C   0  0  0  0  0  0  0  0  0  0  0  0
  -30.3270  -18.8130   19.5360 C   0  0  0  0  0  0  0  0  0  0  0  0
  -31.3710  -19.9640   18.7770 Cl  0  0  0  0  0  0  0  0  0  0  0  0
  -30.6240  -14.8460   20.0150 C   0  0  0  0  0  0  0  0  0  0  0  0
  -30.3720  -12.5400   19.0510 C   0  0  0  0  0  2  0  0  0  0  0  0
  -29.3980  -12.5670   17.8540 C   0  0  0  0  0  2  0  0  0  0  0  0
  -27.9450  -12.3900   18.3380 C   0  0  0  0  0  2  0  0  0  0  0  0
  -27.6100  -13.2810   19.5630 C   0  0  0  0  0  3  0  0  0  0  0  0
  -28.7100  -13.2320   20.6380 C   0  0  0  0  0  2  0  0  0  0  0  0
  -29.9610  -13.6250   19.9880 N   0  0  0  0  0  0  0  0  0  0  0  0
  -31.8230  -14.8080   19.7210 O   0  0  0  0  0  0  0  0  0  0  0  0
  -25.2670  -13.8500   20.4190 C   0  0  0  0  0  0  0  0  0  0  0  0
  -24.2190  -13.0720   20.8270 C   0  0  0  0  0  0  0  0  0  0  0  0
  -24.6810  -11.7210   20.7580 C   0  0  0  0  0  0  0  0  0  0  0  0
  -26.2960  -12.9750   20.1180 N   0  0  0  0  0  0  0  0  0  0  0  0
  -25.9560  -11.6880   20.3880 N   0  0  0  0  0  0  0  0  0  0  0  0
  -23.9620  -10.4570   20.9600 C   0  0  0  0  0  0  0  0  0  0  0  0
  -24.4230   -9.4820   21.8710 C   0  0  0  0  0  3  0  0  0  0  0  0
  -23.7020   -8.2830   22.0650 C   0  0  0  0  0  3  0  0  0  0  0  0
  -22.5050   -8.0510   21.3480 C   0  0  0  0  0  0  0  0  0  0  0  0
  -22.0610   -9.0140   20.4250 C   0  0  0  0  0  3  0  0  0  0  0  0
  -22.7840  -10.2050   20.2290 C   0  0  0  0  0  3  0  0  0  0  0  0
  -21.7540   -6.9050   21.4530 O   0  0  0  0  0  0  0  0  0  0  0  0
  -21.7250   -6.1630   22.6060 C   0  0  0  0  0  0  0  0  0  0  0  0
  -21.3230   -6.7200   23.8400 C   0  0  0  0  0  3  0  0  0  0  0  0
  -21.2410   -5.9050   24.9870 C   0  0  0  0  0  3  0  0  0  0  0  0
  -21.5500   -4.5340   24.9020 C   0  0  0  0  0  0  0  0  0  0  0  0
  -21.9450   -3.9770   23.6730 C   0  0  0  0  0  3  0  0  0  0  0  0
  -22.0280   -4.7880   22.5290 C   0  0  0  0  0  0  0  0  0  0  0  0
  -22.3870   -4.2390   21.3420 F   0  0  0  0  0  0  0  0  0  0  0  0
  -21.4650   -3.7510   26.0020 F   0  0  0  0  0  0  0  0  0  0  0  0
  -22.8350  -13.5470   21.1580 C   0  0  0  0  0  0  0  0  0  0  0  0
  -22.1420  -12.8490   22.0490 N   0  0  0  0  0  0  0  0  0  0  0  0
  -22.3790  -14.5760   20.6610 O   0  0  0  0  0  0  0  0  0  0  0  0
  -22.5240  -12.0210   22.4790 H   0  0  0  0  0  0  0  0  0  0  0  0
  -21.2130  -13.1530   22.3040 H   0  0  0  0  0  0  0  0  0  0  0  0
  -25.4270  -15.2210   20.2490 N   0  0  0  0  0  0  0  0  0  0  0  0
  -24.6650  -15.8750   20.3900 H   0  0  0  0  0  0  0  0  0  0  0  0
  -26.2460  -15.6560   19.8410 H   0  0  0  0  0  0  0  0  0  0  0  0
  -28.7600  -21.9510   20.5890 C   0  0  0  0  0  2  0  0  0  0  0  0
  -28.5150  -23.4360   19.8640 C   0  0  0  0  0  3  0  0  0  0  0  0
  -28.2400  -24.8430   20.6970 C   0  0  0  0  0  3  0  0  0  0  0  0
  -28.3890  -26.2800   20.1820 O   0  0  0  0  0  0  0  0  0  0  0  0
  -24.5990  -31.8000   23.1520 C   0  0  0  0  0  0  0  0  0  0  0  0
  -27.2940  -27.1900   20.1660 C   0  0  0  0  0  0  0  0  0  0  0  0
  -23.4440  -30.3990   21.4820 C   0  0  0  0  0  3  0  0  0  0  0  0
  -24.9380  -28.8520   20.0830 C   0  0  0  0  0  0  0  0  0  0  0  0
  -25.9900  -30.7190   21.3580 C   0  0  0  0  0  2  0  0  0  0  0  0
  -26.0970  -29.3340   20.7080 C   0  0  0  0  0  0  0  0  0  0  0  0
  -27.2810  -28.5200   20.7270 C   0  0  0  0  0  3  0  0  0  0  0  0
  -26.1150  -26.7820   19.5160 C   0  0  0  0  0  3  0  0  0  0  0  0
  -24.9560  -27.5880   19.4730 C   0  0  0  0  0  3  0  0  0  0  0  0
  -23.6940  -29.7260   20.1070 C   0  0  0  0  0  2  0  0  0  0  0  0
  -24.6960  -30.9930   22.0530 N   0  0  0  0  0  0  0  0  0  0  0  0
  -23.5030  -32.0680   23.6640 O   0  0  0  0  0  0  0  0  0  0  0  0
  -22.7660  -29.3790   22.4280 C   0  0  0  0  0  0  0  0  0  0  0  0
  -21.4430  -29.1980   22.2820 N   0  0  0  0  0  0  0  0  0  0  0  0
  -23.4340  -28.7490   23.2540 O   0  0  0  0  0  0  0  0  0  0  0  0
  -20.9620  -29.7570   21.5910 H   0  0  0  0  0  0  0  0  0  0  0  0
  -18.0660  -27.9770   22.7270 C   0  0  0  0  0  0  0  0  0  0  0  0
  -20.6180  -28.2510   23.0340 C   0  0  0  0  0  3  0  0  0  0  0  0
  -20.7380  -26.8240   22.4500 C   0  0  0  0  0  2  0  0  0  0  0  0
  -19.6530  -26.5020   21.4180 C   0  0  0  0  0  2  0  0  0  0  0  0
  -18.2600  -26.6360   22.0430 C   0  0  0  0  0  2  0  0  0  0  0  0
  -19.1730  -28.7430   23.1790 C   0  0  0  0  0  0  0  0  0  0  0  0
  -18.9390  -29.9990   23.7790 C   0  0  0  0  0  3  0  0  0  0  0  0
  -17.6290  -30.4900   23.9330 C   0  0  0  0  0  3  0  0  0  0  0  0
  -16.5350  -29.7210   23.4990 C   0  0  0  0  0  3  0  0  0  0  0  0
  -16.7540  -28.4690   22.9000 C   0  0  0  0  0  3  0  0  0  0  0  0
  -25.8610  -32.4460   23.8040 C   0  0  0  0  0  3  0  0  0  0  0  0
  -26.3630  -31.6710   25.0840 C   0  0  1  0  0  0  0  0  0  0  0  0
  -25.2520  -31.4170   26.1300 C   0  0  0  0  0  1  0  0  0  0  0  0
  -26.9670  -30.3010   24.6980 C   0  0  0  0  0  1  0  0  0  0  0  0
  -27.4920  -32.4720   25.7740 C   0  0  0  0  0  1  0  0  0  0  0  0
  -25.5250  -33.8360   24.1440 N   0  0  0  0  0  0  0  0  0  0  0  0
  -25.8520  -34.9050   23.4040 C   0  0  0  0  0  0  0  0  0  0  0  0
  -26.5320  -34.8230   22.3780 O   0  0  0  0  0  0  0  0  0  0  0  0
  -24.9210  -33.9730   24.9410 H   0  0  0  0  0  0  0  0  0  0  0  0
  -24.0950  -36.6730   23.0650 C   0  0  0  0  0  1  0  0  0  0  0  0
  -25.3410  -36.2800   23.8760 C   0  0  0  0  0  3  0  0  0  0  0  0
  -27.4570  -37.1930   24.7230 C   0  0  0  0  0  1  0  0  0  0  0  0
  -26.3560  -37.3520   23.7770 N   0  0  0  0  0  0  0  0  0  0  0  0
  -25.9330  -38.2620   23.9360 H   0  0  0  0  0  0  0  0  0  0  0  0
  1  2  1  0
  2  7  1  0
  2 46  1  0
  4  3  1  0
  5  6  1  0
  6  3  2  0
  7  4  2  0
  8  5  2  0
  8  7  1  0
  9  8  1  0
 10  6  1  0
 11 16  1  0
 12 13  1  0
 12 11  1  0
 14 13  1  0
 14 21  1  0
 14 15  1  0
 16 10  1  0
 16 15  1  0
 17 10  2  0
 18 19  2  0
 19 38  1  0
 20 19  1  0
 20 23  1  0
 21 22  1  0
 21 18  1  0
 22 20  2  0
 23 24  1  0
 24 25  2  0
 26 29  1  0
 26 25  1  0
 27 26  2  0
 28 27  1  0
 28 23  2  0
 29 30  1  0
 30 31  1  0
 31 32  2  0
 33 32  1  0
 33 37  1  0
 34 33  2  0
 35 30  2  0
 35 34  1  0
 36 35  1  0
 38 39  1  0
 39 42  1  0
 39 41  1  0
 40 38  2  0
 43 44  1  0
 43 18  1  0
 45 43  1  0
 47 46  1  0
 47 48  2  0
 49 48  1  0
 50 61  2  0
 51 49  1  0
 51 56  1  0
 52 60  1  0
 52 62  1  0
 53 59  1  0
 53 55  1  0
 54 60  1  0
 55 56  2  0
 55 54  1  0
 57 51  2  0
 58 57  1  0
 58 53  2  0
 59 52  1  0
 60 50  1  0
 62 64  2  0
 63 62  1  0
 65 63  1  0
 66 75  2  0
 66 71  1  0
 67 63  1  0
 67 71  1  0
 68 67  1  0
 69 70  1  0
 69 68  1  0
 70 66  1  0
 71 72  2  0
 72 73  1  0
 74 73  2  0
 75 74  1  0
 76 50  1  0
 76 81  1  0
 76 77  1  0
 77 80  1  1
 77 78  1  0
 79 77  1  0
 81 84  1  0
 82 86  1  0
 82 81  1  0
 83 82  2  0
 86 85  1  0
 88 86  1  0
 88 89  1  0
 88 87  1  0
M  ISO  4   6 100  10 100  48 101  49 101
M  END
>  <TORSDO>  (6) 
F 20

>  <SCORE>  (6) 
-13.667

>  <name>  (6) 
5

>  <ligand_id>  (6) 
5

>  <original_smiles>  (6) 
[H]c1c([H])c([H])c2c(c1[H])C([H])([H])C([H])([H])C([H])([H])C2([H])N([H])C(=O)C1([H])N(C(=O)C([H])(N([H])C(=O)C([H])(N([H])C([H])([H])[H])C([H])([H])[H])C(C([H])([H])[H])(C([H])([H])[H])C([H])([H])[H])C([H])([H])c2c([H])c(OC([H])([H])C([H])([H])C([H])([H])N(c3c([H])c([H])c(C(=O)N4C([H])([H])C([H])([H])C([H])([H])C([H])(n5nc(-c6c([H])c([H])c(Oc7c([H])c([H])c(F)c([H])c7F)c([H])c6[H])c(C(=O)N([H])[H])c5N([H])[H])C4([H])[H])c([H])c3Cl)C([H])([H])[H])c([H])c([H])c2C1([H])[H]

>  <smiles>  (6) 
[H]c1c([H])c([H])c2c(c1[H])C([H])([H])C([H])([H])C([H])([H])C2([H])N([H])C(=O)C1([H])N(C(=O)C([H])(N([H])C(=O)C([H])(N([H])C([H])([H])[H])C([H])([H])[H])C(C([H])([H])[H])(C([H])([H])[H])C([H])([H])[H])C([H])([H])c2c([H])c(OC([H])([H])C([H])([H])C([H])([H])N(c3c([H])c([H])c(C(=O)N4C([H])([H])C([H])([H])C([H])([H])C([H])(n5nc(-c6c([H])c([H])c(Oc7c([H])c([H])c(F)c([H])c7F)c([H])c6[H])c(C(=O)N([H])[H])c5N([H])[H])C4([H])[H])c([H])c3Cl)C([H])([H])[H])c([H])c([H])c2C1([H])[H]

$$$$
6:0:0
     RDKit          3D

 92101  0  0  1  0  0  0  0  0999 V2000
  -28.9360  -24.0310   18.9430 C   0  0  0  0  0  2  0  0  0  0  0  0
  -29.1060  -24.0560   21.3500 C   0  0  0  0  0  2  0  0  0  0  0  0
  -28.8210  -22.4330   18.9570 C   0  0  0  0  0  2  0  0  0  0  0  0
  -28.9530  -22.4690   21.3770 C   0  0  0  0  0  2  0  0  0  0  0  0
  -28.3780  -24.8120   20.1890 C   0  0  0  0  0  3  0  0  0  0  0  0
  -29.3730  -21.7360   20.1490 N   0  0  0  0  0  0  0  0  0  0  0  0
  -30.0010  -19.4630   19.0690 C   0  0  0  0  0  3  0  0  0  0  0  0
  -30.2670  -18.0370   19.1460 C   0  0  0  0  0  3  0  0  0  0  0  0
  -29.4110  -19.4870   21.3520 C   0  0  0  0  0  3  0  0  0  0  0  0
  -29.5820  -20.2740   20.1780 C   0  0  0  0  0  0  0  0  0  0  0  0
  -30.1390  -17.2630   20.3470 C   0  0  0  0  0  0  0  0  0  0  0  0
  -29.6560  -18.0740   21.4370 C   0  0  0  0  0  0  0  0  0  0  0  0
  -29.3920  -17.5130   22.6400 F   0  0  0  0  0  0  0  0  0  0  0  0
  -30.9230  -14.8160   19.6210 C   0  0  0  0  0  0  0  0  0  0  0  0
  -30.5910  -12.5930   18.4710 C   0  0  0  0  0  2  0  0  0  0  0  0
  -29.4870  -12.6920   17.3940 C   0  0  0  0  0  2  0  0  0  0  0  0
  -28.0980  -12.4540   18.0130 C   0  0  0  0  0  2  0  0  0  0  0  0
  -27.8870  -13.2740   19.3110 C   0  0  0  0  0  3  0  0  0  0  0  0
  -29.0880  -13.1420   20.2690 C   0  0  0  0  0  2  0  0  0  0  0  0
  -30.2930  -13.5790   19.5440 N   0  0  0  0  0  0  0  0  0  0  0  0
  -31.9250  -15.0180   18.9270 O   0  0  0  0  0  0  0  0  0  0  0  0
  -30.8030  -15.3760   21.9100 C   0  0  0  0  0  1  0  0  0  0  0  0
  -30.4740  -15.7860   20.5280 N   0  0  0  0  0  0  0  0  0  0  0  0
  -25.6660  -13.7920   20.4820 C   0  0  0  0  0  0  0  0  0  0  0  0
  -24.6480  -12.9900   20.9210 C   0  0  0  0  0  0  0  0  0  0  0  0
  -25.0570  -11.6490   20.6480 C   0  0  0  0  0  0  0  0  0  0  0  0
  -26.6290  -12.9390   19.9700 N   0  0  0  0  0  0  0  0  0  0  0  0
  -26.2790  -11.6360   20.1290 N   0  0  0  0  0  0  0  0  0  0  0  0
  -24.3300  -10.3810   20.7970 C   0  0  0  0  0  0  0  0  0  0  0  0
  -24.8190   -9.3390   21.6170 C   0  0  0  0  0  3  0  0  0  0  0  0
  -24.0920   -8.1380   21.7580 C   0  0  0  0  0  3  0  0  0  0  0  0
  -22.8620   -7.9680   21.0790 C   0  0  0  0  0  0  0  0  0  0  0  0
  -22.3900   -8.9990   20.2470 C   0  0  0  0  0  3  0  0  0  0  0  0
  -23.1180  -10.1920   20.1030 C   0  0  0  0  0  3  0  0  0  0  0  0
  -22.1000   -6.8270   21.1360 O   0  0  0  0  0  0  0  0  0  0  0  0
  -22.0530   -6.0480   22.2640 C   0  0  0  0  0  0  0  0  0  0  0  0
  -21.6450   -6.5690   23.5120 C   0  0  0  0  0  3  0  0  0  0  0  0
  -21.5440   -5.7180   24.6300 C   0  0  0  0  0  3  0  0  0  0  0  0
  -21.8390   -4.3480   24.5030 C   0  0  0  0  0  0  0  0  0  0  0  0
  -22.2400   -3.8260   23.2610 C   0  0  0  0  0  3  0  0  0  0  0  0
  -22.3440   -4.6740   22.1430 C   0  0  0  0  0  0  0  0  0  0  0  0
  -22.7080   -4.1630   20.9430 F   0  0  0  0  0  0  0  0  0  0  0  0
  -21.7350   -3.5290   25.5760 F   0  0  0  0  0  0  0  0  0  0  0  0
  -23.3290  -13.4450   21.4750 C   0  0  0  0  0  0  0  0  0  0  0  0
  -22.7380  -12.6640   22.3710 N   0  0  0  0  0  0  0  0  0  0  0  0
  -22.8370  -14.5240   21.1470 O   0  0  0  0  0  0  0  0  0  0  0  0
  -23.1510  -11.7870   22.6530 H   0  0  0  0  0  0  0  0  0  0  0  0
  -21.8600  -12.9460   22.7840 H   0  0  0  0  0  0  0  0  0  0  0  0
  -25.8450  -15.1720   20.4530 N   0  0  0  0  0  0  0  0  0  0  0  0
  -25.1360  -15.8200   20.7760 H   0  0  0  0  0  0  0  0  0  0  0  0
  -26.6600  -15.6340   20.0700 H   0  0  0  0  0  0  0  0  0  0  0  0
  -28.5360  -26.3320   20.1970 O   0  0  0  0  0  0  0  0  0  0  0  0
  -24.7440  -31.8330   23.1280 C   0  0  0  0  0  0  0  0  0  0  0  0
  -27.4280  -27.2230   20.1280 C   0  0  0  0  0  0  0  0  0  0  0  0
  -23.5830  -30.4340   21.4590 C   0  0  0  0  0  3  0  0  0  0  0  0
  -25.0690  -28.8840   20.0580 C   0  0  0  0  0  0  0  0  0  0  0  0
  -26.1310  -30.7430   21.3370 C   0  0  0  0  0  2  0  0  0  0  0  0
  -26.2270  -29.3600   20.6860 C   0  0  0  0  0  0  0  0  0  0  0  0
  -27.4080  -28.5430   20.7040 C   0  0  0  0  0  3  0  0  0  0  0  0
  -26.2490  -26.8270   19.4600 C   0  0  0  0  0  3  0  0  0  0  0  0
  -25.0880  -27.6270   19.4320 C   0  0  0  0  0  3  0  0  0  0  0  0
  -23.8310  -29.7610   20.0830 C   0  0  0  0  0  2  0  0  0  0  0  0
  -24.8370  -31.0240   22.0310 N   0  0  0  0  0  0  0  0  0  0  0  0
  -23.6480  -32.1050   23.6400 O   0  0  0  0  0  0  0  0  0  0  0  0
  -22.8990  -29.4170   22.4030 C   0  0  0  0  0  0  0  0  0  0  0  0
  -21.5670  -29.2760   22.2850 N   0  0  0  0  0  0  0  0  0  0  0  0
  -23.5670  -28.7570   23.2050 O   0  0  0  0  0  0  0  0  0  0  0  0
  -21.0870  -29.8590   21.6140 H   0  0  0  0  0  0  0  0  0  0  0  0
  -18.1600  -28.1810   22.8270 C   0  0  0  0  0  0  0  0  0  0  0  0
  -20.7320  -28.3410   23.0420 C   0  0  0  0  0  3  0  0  0  0  0  0
  -20.7690  -26.9280   22.4130 C   0  0  0  0  0  2  0  0  0  0  0  0
  -19.6330  -26.6820   21.4150 C   0  0  0  0  0  2  0  0  0  0  0  0
  -18.2730  -26.8520   22.0970 C   0  0  0  0  0  2  0  0  0  0  0  0
  -19.3150  -28.8870   23.2560 C   0  0  0  0  0  0  0  0  0  0  0  0
  -19.1550  -30.1330   23.8990 C   0  0  0  0  0  3  0  0  0  0  0  0
  -17.8730  -30.6720   24.1170 C   0  0  0  0  0  3  0  0  0  0  0  0
  -16.7330  -29.9610   23.7040 C   0  0  0  0  0  3  0  0  0  0  0  0
  -16.8770  -28.7170   23.0640 C   0  0  0  0  0  3  0  0  0  0  0  0
  -26.0090  -32.4710   23.7810 C   0  0  0  0  0  3  0  0  0  0  0  0
  -25.6750  -33.8570   24.1410 N   0  0  0  0  0  0  0  0  0  0  0  0
  -25.9810  -34.9330   23.4040 C   0  0  0  0  0  0  0  0  0  0  0  0
  -26.6430  -34.8640   22.3650 O   0  0  0  0  0  0  0  0  0  0  0  0
  -25.0850  -33.9840   24.9520 H   0  0  0  0  0  0  0  0  0  0  0  0
  -24.2120  -36.6970   23.1090 C   0  0  0  0  0  1  0  0  0  0  0  0
  -25.4730  -36.3030   23.8950 C   0  0  0  0  0  3  0  0  0  0  0  0
  -27.6000  -37.2160   24.7130 C   0  0  0  0  0  1  0  0  0  0  0  0
  -26.4810  -37.3790   23.7890 N   0  0  0  0  0  0  0  0  0  0  0  0
  -26.0570  -38.2870   23.9600 H   0  0  0  0  0  0  0  0  0  0  0  0
  -26.5180  -31.6810   25.0500 C   0  0  1  0  0  0  0  0  0  0  0  0
  -25.4150  -31.4090   26.0990 C   0  0  0  0  0  1  0  0  0  0  0  0
  -27.1240  -30.3190   24.6400 C   0  0  0  0  0  1  0  0  0  0  0  0
  -27.6500  -32.4760   25.7410 C   0  0  0  0  0  1  0  0  0  0  0  0
  1  3  1  0
  1  5  1  0
  2  4  1  0
  3  6  1  0
  5 52  1  0
  5  2  1  0
  6 10  1  0
  6  4  1  0
  7  8  2  0
  7 10  1  0
  8 11  1  0
  9 12  1  0
 10  9  2  0
 11 23  1  0
 11 12  2  0
 12 13  1  0
 14 23  1  0
 15 20  1  0
 16 17  1  0
 16 15  1  0
 18 17  1  0
 18 27  1  0
 18 19  1  0
 20 14  1  0
 20 19  1  0
 21 14  2  0
 23 22  1  0
 24 25  2  0
 25 44  1  0
 26 29  1  0
 26 25  1  0
 27 28  1  0
 27 24  1  0
 28 26  2  0
 29 30  1  0
 30 31  2  0
 32 35  1  0
 32 31  1  0
 33 32  2  0
 34 33  1  0
 34 29  2  0
 35 36  1  0
 36 37  1  0
 37 38  2  0
 39 38  1  0
 39 43  1  0
 40 39  2  0
 41 36  2  0
 41 40  1  0
 42 41  1  0
 44 45  1  0
 45 47  1  0
 45 48  1  0
 46 44  2  0
 49 24  1  0
 49 50  1  0
 51 49  1  0
 53 64  2  0
 54 52  1  0
 54 59  1  0
 55 63  1  0
 55 65  1  0
 56 62  1  0
 56 58  1  0
 57 63  1  0
 58 59  2  0
 58 57  1  0
 60 54  2  0
 61 60  1  0
 61 56  2  0
 62 55  1  0
 63 53  1  0
 65 67  2  0
 66 65  1  0
 68 66  1  0
 69 78  2  0
 69 74  1  0
 70 66  1  0
 70 74  1  0
 71 70  1  0
 72 73  1  0
 72 71  1  0
 73 69  1  0
 74 75  2  0
 75 76  1  0
 77 76  2  0
 78 77  1  0
 79 53  1  0
 79 80  1  0
 79 89  1  0
 80 83  1  0
 81 85  1  0
 81 80  1  0
 82 81  2  0
 85 84  1  0
 87 85  1  0
 87 88  1  0
 87 86  1  0
 89 92  1  1
 89 90  1  0
 91 89  1  0
M  ISO  4   5 101  14 100  23 100  52 101
M  END
>  <TORSDO>  (7) 
F 17

>  <SCORE>  (7) 
-12.045

>  <name>  (7) 
6

>  <ligand_id>  (7) 
6

>  <original_smiles>  (7) 
[H]c1c([H])c([H])c2c(c1[H])C([H])([H])C([H])([H])C([H])([H])C2([H])N([H])C(=O)C1([H])N(C(=O)C([H])(N([H])C(=O)C([H])(N([H])C([H])([H])[H])C([H])([H])[H])C(C([H])([H])[H])(C([H])([H])[H])C([H])([H])[H])C([H])([H])c2c([H])c(OC3([H])C([H])([H])C([H])([H])N(c4c([H])c([H])c(N(C(=O)N5C([H])([H])C([H])([H])C([H])([H])C([H])(n6nc(-c7c([H])c([H])c(Oc8c([H])c([H])c(F)c([H])c8F)c([H])c7[H])c(C(=O)N([H])[H])c6N([H])[H])C5([H])[H])C([H])([H])[H])c(F)c4[H])C([H])([H])C3([H])[H])c([H])c([H])c2C1([H])[H]

>  <smiles>  (7) 
[H]c1c([H])c([H])c2c(c1[H])C([H])([H])C([H])([H])C([H])([H])C2([H])N([H])C(=O)C1([H])N(C(=O)C([H])(N([H])C(=O)C([H])(N([H])C([H])([H])[H])C([H])([H])[H])C(C([H])([H])[H])(C([H])([H])[H])C([H])([H])[H])C([H])([H])c2c([H])c(OC3([H])C([H])([H])C([H])([H])N(c4c([H])c([H])c(N(C(=O)N5C([H])([H])C([H])([H])C([H])([H])C([H])(n6nc(-c7c([H])c([H])c(Oc8c([H])c([H])c(F)c([H])c8F)c([H])c7[H])c(C(=O)N([H])[H])c6N([H])[H])C5([H])[H])C([H])([H])[H])c(F)c4[H])C([H])([H])C3([H])[H])c([H])c([H])c2C1([H])[H]

$$$$
7:0:0
     RDKit          3D

 93101  0  0  1  0  0  0  0  0999 V2000
  -26.6870  -21.4180   21.3360 C   0  0  0  0  0  1  0  0  0  0  0  0
  -27.8270  -21.1590   20.4120 N   0  0  1  0  0  4  0  0  0  0  0  0
  -28.5570  -20.7550   20.9820 H   0  0  0  0  0  0  0  0  0  0  0  0
  -27.4840  -20.1090   19.4240 C   0  0  0  0  0  2  0  0  0  0  0  0
  -29.3970  -18.9130   18.2630 C   0  0  0  0  0  3  0  0  0  0  0  0
  -28.6790  -18.1150   20.4450 C   0  0  0  0  0  3  0  0  0  0  0  0
  -30.2970  -17.8360   18.1850 C   0  0  0  0  0  3  0  0  0  0  0  0
  -29.6000  -17.0540   20.3750 C   0  0  0  0  0  3  0  0  0  0  0  0
  -28.5510  -19.0290   19.3780 C   0  0  0  0  0  0  0  0  0  0  0  0
  -30.3890  -16.8660   19.2140 C   0  0  0  0  0  0  0  0  0  0  0  0
  -31.6510  -14.9120   20.0550 C   0  0  0  0  0  0  0  0  0  0  0  0
  -31.2540  -12.6390   19.3130 C   0  0  0  0  0  2  0  0  0  0  0  0
  -30.3290  -12.6840   18.0780 C   0  0  0  0  0  2  0  0  0  0  0  0
  -28.8440  -12.6960   18.4990 C   0  0  0  0  0  2  0  0  0  0  0  0
  -28.5120  -13.7060   19.6350 C   0  0  0  0  0  3  0  0  0  0  0  0
  -29.5640  -13.6370   20.7620 C   0  0  0  0  0  2  0  0  0  0  0  0
  -30.8940  -13.7870   20.1520 N   0  0  0  0  0  0  0  0  0  0  0  0
  -32.8650  -14.9150   20.2520 O   0  0  0  0  0  0  0  0  0  0  0  0
  -32.0730  -15.6780   17.8220 C   0  0  0  0  0  1  0  0  0  0  0  0
  -31.2440  -15.7260   19.0480 N   0  0  0  0  0  0  0  0  0  0  0  0
  -26.1530  -14.4660   20.3460 C   0  0  0  0  0  0  0  0  0  0  0  0
  -25.0300  -13.7620   20.6880 C   0  0  0  0  0  0  0  0  0  0  0  0
  -25.4020  -12.3850   20.6520 C   0  0  0  0  0  0  0  0  0  0  0  0
  -27.1440  -13.5200   20.1230 N   0  0  0  0  0  0  0  0  0  0  0  0
  -26.6880  -12.2640   20.3660 N   0  0  0  0  0  0  0  0  0  0  0  0
  -24.5980  -11.1660   20.8260 C   0  0  0  0  0  0  0  0  0  0  0  0
  -24.9380  -10.1840   21.7840 C   0  0  0  0  0  3  0  0  0  0  0  0
  -24.1350   -9.0350   21.9500 C   0  0  0  0  0  3  0  0  0  0  0  0
  -22.9770   -8.8560   21.1560 C   0  0  0  0  0  0  0  0  0  0  0  0
  -22.6530   -9.8260   20.1910 C   0  0  0  0  0  3  0  0  0  0  0  0
  -23.4550  -10.9700   20.0270 C   0  0  0  0  0  3  0  0  0  0  0  0
  -22.1620   -7.7530   21.2240 O   0  0  0  0  0  0  0  0  0  0  0  0
  -21.9700   -7.0660   22.3940 C   0  0  0  0  0  0  0  0  0  0  0  0
  -21.4360   -7.6940   23.5410 C   0  0  0  0  0  3  0  0  0  0  0  0
  -21.1820   -6.9410   24.7050 C   0  0  0  0  0  3  0  0  0  0  0  0
  -21.4610   -5.5630   24.7240 C   0  0  0  0  0  0  0  0  0  0  0  0
  -21.9820   -4.9320   23.5820 C   0  0  0  0  0  3  0  0  0  0  0  0
  -22.2300   -5.6820   22.4170 C   0  0  0  0  0  0  0  0  0  0  0  0
  -22.7170   -5.0650   21.3120 F   0  0  0  0  0  0  0  0  0  0  0  0
  -21.2130   -4.8420   25.8420 F   0  0  0  0  0  0  0  0  0  0  0  0
  -23.6620  -14.3250   20.9470 C   0  0  0  0  0  0  0  0  0  0  0  0
  -22.9000  -13.6860   21.8260 N   0  0  0  0  0  0  0  0  0  0  0  0
  -23.2780  -15.3620   20.4100 O   0  0  0  0  0  0  0  0  0  0  0  0
  -23.2220  -12.8380   22.2670 H   0  0  0  0  0  0  0  0  0  0  0  0
  -21.9880  -14.0530   22.0550 H   0  0  0  0  0  0  0  0  0  0  0  0
  -26.4100  -15.8220   20.1970 N   0  0  0  0  0  0  0  0  0  0  0  0
  -25.6820  -16.5150   20.3220 H   0  0  0  0  0  0  0  0  0  0  0  0
  -27.3210  -16.2290   20.0270 H   0  0  0  0  0  0  0  0  0  0  0  0
  -28.4090  -22.3730   19.7620 C   0  0  0  0  0  2  0  0  0  0  0  0
  -28.8880  -23.4570   20.7580 C   0  0  0  0  0  2  0  0  0  0  0  0
  -29.3540  -24.7660   20.0890 C   0  0  0  0  0  2  0  0  0  0  0  0
  -29.3420  -25.9560   21.0760 C   0  0  0  0  0  2  0  0  0  0  0  0
  -29.3060  -27.2310   20.4310 O   0  0  0  0  0  0  0  0  0  0  0  0
  -24.8810  -31.9350   23.4480 C   0  0  0  0  0  0  0  0  0  0  0  0
  -28.0740  -27.8420   20.4100 C   0  0  0  0  0  0  0  0  0  0  0  0
  -23.8960  -30.4930   21.6930 C   0  0  0  0  0  3  0  0  0  0  0  0
  -25.5590  -29.1240   20.3300 C   0  0  0  0  0  0  0  0  0  0  0  0
  -26.3930  -31.0630   21.6710 C   0  0  0  0  0  2  0  0  0  0  0  0
  -26.6300  -29.7320   20.9930 C   0  0  0  0  0  0  0  0  0  0  0  0
  -27.8960  -29.1020   21.0260 C   0  0  0  0  0  3  0  0  0  0  0  0
  -26.9820  -27.2360   19.7520 C   0  0  0  0  0  3  0  0  0  0  0  0
  -25.7280  -27.8740   19.7020 C   0  0  0  0  0  3  0  0  0  0  0  0
  -24.2470  -29.8720   20.3160 C   0  0  0  0  0  2  0  0  0  0  0  0
  -25.0690  -31.1780   22.3290 N   0  0  0  0  0  0  0  0  0  0  0  0
  -23.7510  -32.1060   23.9240 O   0  0  0  0  0  0  0  0  0  0  0  0
  -23.2740  -29.3950   22.5860 C   0  0  0  0  0  0  0  0  0  0  0  0
  -21.9800  -29.1110   22.3660 N   0  0  0  0  0  0  0  0  0  0  0  0
  -23.9530  -28.8010   23.4290 O   0  0  0  0  0  0  0  0  0  0  0  0
  -21.4930  -29.6480   21.6640 H   0  0  0  0  0  0  0  0  0  0  0  0
  -18.6750  -27.6730   22.6440 C   0  0  0  0  0  0  0  0  0  0  0  0
  -21.1940  -28.0880   23.0520 C   0  0  0  0  0  3  0  0  0  0  0  0
  -21.4220  -26.6940   22.4230 C   0  0  0  0  0  2  0  0  0  0  0  0
  -20.3940  -26.3450   21.3410 C   0  0  0  0  0  2  0  0  0  0  0  0
  -18.9760  -26.3680   21.9220 C   0  0  0  0  0  2  0  0  0  0  0  0
  -19.7180  -28.4870   23.1590 C   0  0  0  0  0  0  0  0  0  0  0  0
  -19.3870  -29.7050   23.7900 C   0  0  0  0  0  3  0  0  0  0  0  0
  -18.0450  -30.1110   23.9110 C   0  0  0  0  0  3  0  0  0  0  0  0
  -17.0160  -29.2950   23.4120 C   0  0  0  0  0  3  0  0  0  0  0  0
  -17.3320  -28.0760   22.7850 C   0  0  0  0  0  3  0  0  0  0  0  0
  -26.0740  -32.6450   24.1650 C   0  0  0  0  0  3  0  0  0  0  0  0
  -25.6790  -34.0390   24.4080 N   0  0  0  0  0  0  0  0  0  0  0  0
  -26.0210  -35.0730   23.6260 C   0  0  0  0  0  0  0  0  0  0  0  0
  -26.7720  -34.9570   22.6530 O   0  0  0  0  0  0  0  0  0  0  0  0
  -25.0240  -34.1990   25.1580 H   0  0  0  0  0  0  0  0  0  0  0  0
  -24.2260  -36.7410   23.0700 C   0  0  0  0  0  1  0  0  0  0  0  0
  -25.4330  -36.4520   23.9780 C   0  0  0  0  0  3  0  0  0  0  0  0
  -27.4580  -37.4970   24.8920 C   0  0  0  0  0  1  0  0  0  0  0  0
  -26.4160  -37.5540   23.8710 N   0  0  0  0  0  0  0  0  0  0  0  0
  -25.9530  -38.4570   23.9370 H   0  0  0  0  0  0  0  0  0  0  0  0
  -26.4940  -31.9430   25.5150 C   0  0  1  0  0  0  0  0  0  0  0  0
  -25.3040  -31.6650   26.4620 C   0  0  0  0  0  1  0  0  0  0  0  0
  -27.2030  -30.5950   25.2370 C   0  0  0  0  0  1  0  0  0  0  0  0
  -27.5140  -32.8290   26.2710 C   0  0  0  0  0  1  0  0  0  0  0  0
  2  3  1  1
  2  1  1  0
  4  2  1  0
  5  9  1  0
  7  5  2  0
  7 10  1  0
  8  6  1  0
  9  4  1  0
  9  6  2  0
 10  8  2  0
 11 17  1  0
 11 18  2  0
 12 17  1  0
 13 14  1  0
 13 12  1  0
 15 14  1  0
 15 24  1  0
 15 16  1  0
 17 16  1  0
 19 20  1  0
 20 10  1  0
 20 11  1  0
 21 22  2  0
 22 41  1  0
 23 22  1  0
 23 26  1  0
 24 21  1  0
 24 25  1  0
 25 23  2  0
 26 27  1  0
 27 28  2  0
 29 32  1  0
 29 28  1  0
 30 29  2  0
 31 30  1  0
 31 26  2  0
 32 33  1  0
 33 38  2  0
 33 34  1  0
 34 35  2  0
 35 36  1  0
 36 40  1  0
 37 36  2  0
 38 37  1  0
 39 38  1  0
 41 42  1  0
 42 45  1  0
 42 44  1  0
 43 41  2  0
 46 47  1  0
 46 21  1  0
 48 46  1  0
 49  2  1  0
 49 50  1  0
 51 50  1  0
 51 52  1  0
 53 52  1  0
 54 65  2  0
 55 53  1  0
 55 60  1  0
 56 64  1  0
 56 66  1  0
 57 59  1  0
 58 64  1  0
 59 60  2  0
 59 58  1  0
 61 55  2  0
 62 61  1  0
 62 57  2  0
 63 57  1  0
 63 56  1  0
 64 54  1  0
 66 68  2  0
 67 66  1  0
 69 67  1  0
 70 79  2  0
 70 75  1  0
 71 67  1  0
 71 75  1  0
 72 71  1  0
 73 74  1  0
 73 72  1  0
 74 70  1  0
 75 76  2  0
 76 77  1  0
 78 77  2  0
 79 78  1  0
 80 54  1  0
 80 81  1  0
 80 90  1  0
 81 84  1  0
 82 86  1  0
 82 81  1  0
 83 82  2  0
 86 85  1  0
 88 89  1  0
 88 86  1  0
 88 87  1  0
 90 93  1  1
 90 91  1  0
 92 90  1  0
M  ISO  4  11 100  20 100  52 101  53 101
M  END
>  <TORSDO>  (8) 
F 22

>  <SCORE>  (8) 
-9.992

>  <name>  (8) 
7

>  <ligand_id>  (8) 
7

>  <original_smiles>  (8) 
[H]c1c([H])c([H])c2c(c1[H])C([H])([H])C([H])([H])C([H])([H])C2([H])N([H])C(=O)C1([H])N(C(=O)C([H])(N([H])C(=O)C([H])(N([H])C([H])([H])[H])C([H])([H])[H])C(C([H])([H])[H])(C([H])([H])[H])C([H])([H])[H])C([H])([H])c2c([H])c(OC([H])([H])C([H])([H])C([H])([H])C([H])([H])[N+]([H])(C([H])([H])[H])C([H])([H])c3c([H])c([H])c(N(C(=O)N4C([H])([H])C([H])([H])C([H])([H])C([H])(n5nc(-c6c([H])c([H])c(Oc7c([H])c([H])c(F)c([H])c7F)c([H])c6[H])c(C(=O)N([H])[H])c5N([H])[H])C4([H])[H])C([H])([H])[H])c([H])c3[H])c([H])c([H])c2C1([H])[H]

>  <smiles>  (8) 
[H]c1c([H])c([H])c2c(c1[H])C([H])([H])C([H])([H])C([H])([H])C2([H])N([H])C(=O)C1([H])N(C(=O)C([H])(N([H])C(=O)C([H])(N([H])C([H])([H])[H])C([H])([H])[H])C(C([H])([H])[H])(C([H])([H])[H])C([H])([H])[H])C([H])([H])c2c([H])c(OC([H])([H])C([H])([H])C([H])([H])C([H])([H])[N+]([H])(C([H])([H])[H])C([H])([H])c3c([H])c([H])c(N(C(=O)N4C([H])([H])C([H])([H])C([H])([H])C([H])(n5nc(-c6c([H])c([H])c(Oc7c([H])c([H])c(F)c([H])c7F)c([H])c6[H])c(C(=O)N([H])[H])c5N([H])[H])C4([H])[H])C([H])([H])[H])c([H])c3[H])c([H])c([H])c2C1([H])[H]

$$$$
8:0:0
     RDKit          3D

 93101  0  0  1  0  0  0  0  0999 V2000
  -28.2930  -21.7160   19.6550 C   0  0  0  0  0  1  0  0  0  0  0  0
  -29.7420  -22.0160   19.6610 N   0  0  1  0  0  4  0  0  0  0  0  0
  -30.0370  -22.0720   20.6240 H   0  0  0  0  0  0  0  0  0  0  0  0
  -30.5600  -20.9170   19.0580 C   0  0  0  0  0  2  0  0  0  0  0  0
  -30.6290  -19.0890   20.8830 C   0  0  0  0  0  3  0  0  0  0  0  0
  -29.9060  -18.4680   18.6620 C   0  0  0  0  0  3  0  0  0  0  0  0
  -30.5710  -17.7300   21.2770 C   0  0  0  0  0  3  0  0  0  0  0  0
  -29.8650  -17.1090   19.0500 C   0  0  0  0  0  3  0  0  0  0  0  0
  -30.3250  -19.4760   19.5600 C   0  0  0  0  0  0  0  0  0  0  0  0
  -30.2410  -16.6940   20.3560 C   0  0  0  0  0  0  0  0  0  0  0  0
  -30.6360  -14.3550   19.7660 C   0  0  0  0  0  0  0  0  0  0  0  0
  -30.0240  -12.3260   18.4910 C   0  0  0  0  0  2  0  0  0  0  0  0
  -28.9680  -12.6410   17.4150 C   0  0  0  0  0  2  0  0  0  0  0  0
  -27.5500  -12.5220   18.0010 C   0  0  0  0  0  2  0  0  0  0  0  0
  -27.3940  -13.2820   19.3420 C   0  0  0  0  0  3  0  0  0  0  0  0
  -28.5600  -12.9840   20.3080 C   0  0  0  0  0  2  0  0  0  0  0  0
  -29.8310  -13.2600   19.6160 N   0  0  0  0  0  0  0  0  0  0  0  0
  -31.6150  -14.5430   19.0360 O   0  0  0  0  0  0  0  0  0  0  0  0
  -30.3150  -15.2830   20.7150 N   0  0  0  0  0  0  0  0  0  0  0  0
  -25.0950  -13.8870   20.3260 C   0  0  0  0  0  0  0  0  0  0  0  0
  -24.0700  -13.1150   20.8030 C   0  0  0  0  0  0  0  0  0  0  0  0
  -24.5170  -11.7620   20.7070 C   0  0  0  0  0  0  0  0  0  0  0  0
  -26.1020  -13.0050   19.9670 N   0  0  0  0  0  0  0  0  0  0  0  0
  -25.7650  -11.7210   20.2540 N   0  0  0  0  0  0  0  0  0  0  0  0
  -23.8080  -10.5020   20.9670 C   0  0  0  0  0  0  0  0  0  0  0  0
  -24.3300   -9.5280   21.8480 C   0  0  0  0  0  3  0  0  0  0  0  0
  -23.6230   -8.3310   22.0930 C   0  0  0  0  0  3  0  0  0  0  0  0
  -22.3790   -8.1000   21.4590 C   0  0  0  0  0  0  0  0  0  0  0  0
  -21.8750   -9.0610   20.5660 C   0  0  0  0  0  3  0  0  0  0  0  0
  -22.5830  -10.2500   20.3200 C   0  0  0  0  0  3  0  0  0  0  0  0
  -21.6330   -6.9560   21.6160 O   0  0  0  0  0  0  0  0  0  0  0  0
  -21.6940   -6.2070   22.7640 C   0  0  0  0  0  0  0  0  0  0  0  0
  -21.4170   -6.7640   24.0310 C   0  0  0  0  0  3  0  0  0  0  0  0
  -21.4250   -5.9430   25.1770 C   0  0  0  0  0  3  0  0  0  0  0  0
  -21.6990   -4.5670   25.0570 C   0  0  0  0  0  0  0  0  0  0  0  0
  -21.9680   -4.0100   23.7940 C   0  0  0  0  0  3  0  0  0  0  0  0
  -21.9640   -4.8280   22.6500 C   0  0  0  0  0  0  0  0  0  0  0  0
  -22.2050   -4.2830   21.4340 F   0  0  0  0  0  0  0  0  0  0  0  0
  -21.6970   -3.7770   26.1550 F   0  0  0  0  0  0  0  0  0  0  0  0
  -22.7150  -13.5930   21.2380 C   0  0  0  0  0  0  0  0  0  0  0  0
  -22.0960  -12.8980   22.1850 N   0  0  0  0  0  0  0  0  0  0  0  0
  -22.2200  -14.6180   20.7740 O   0  0  0  0  0  0  0  0  0  0  0  0
  -22.5120  -12.0680   22.5800 H   0  0  0  0  0  0  0  0  0  0  0  0
  -21.1930  -13.2010   22.5230 H   0  0  0  0  0  0  0  0  0  0  0  0
  -25.2550  -15.2600   20.1530 N   0  0  0  0  0  0  0  0  0  0  0  0
  -24.5280  -15.9310   20.3750 H   0  0  0  0  0  0  0  0  0  0  0  0
  -26.0860  -15.6920   19.7690 H   0  0  0  0  0  0  0  0  0  0  0  0
  -32.1070  -14.8970   22.4410 C   0  0  0  0  0  1  0  0  0  0  0  0
  -30.6000  -14.9020   22.1160 C   0  0  0  0  0  2  0  0  0  0  0  0
  -30.0520  -23.3410   19.0240 C   0  0  0  0  0  2  0  0  0  0  0  0
  -29.6900  -24.6200   19.8440 C   0  0  0  0  0  2  0  0  0  0  0  0
  -28.3410  -25.3140   19.5310 C   0  0  0  0  0  2  0  0  0  0  0  0
  -28.3270  -26.6580   20.0480 O   0  0  0  0  0  0  0  0  0  0  0  0
  -24.5420  -31.8270   23.1820 C   0  0  0  0  0  0  0  0  0  0  0  0
  -27.1370  -27.3690   20.0520 C   0  0  0  0  0  0  0  0  0  0  0  0
  -23.3110  -30.4330   21.5540 C   0  0  0  0  0  3  0  0  0  0  0  0
  -24.7420  -28.8930   20.1100 C   0  0  0  0  0  0  0  0  0  0  0  0
  -25.8390  -30.7770   21.3300 C   0  0  0  0  0  2  0  0  0  0  0  0
  -25.9100  -29.4060   20.6850 C   0  0  0  0  0  0  0  0  0  0  0  0
  -27.1060  -28.6490   20.6570 C   0  0  0  0  0  3  0  0  0  0  0  0
  -25.9430  -26.8730   19.4740 C   0  0  0  0  0  3  0  0  0  0  0  0
  -24.7530  -27.6250   19.5030 C   0  0  0  0  0  3  0  0  0  0  0  0
  -23.5020  -29.7550   20.1720 C   0  0  0  0  0  2  0  0  0  0  0  0
  -24.5830  -31.0280   22.0800 N   0  0  0  0  0  0  0  0  0  0  0  0
  -23.4680  -32.1040   23.7350 O   0  0  0  0  0  0  0  0  0  0  0  0
  -22.6650  -29.4130   22.5200 C   0  0  0  0  0  0  0  0  0  0  0  0
  -21.3390  -29.2380   22.4050 N   0  0  0  0  0  0  0  0  0  0  0  0
  -23.3540  -28.7820   23.3260 O   0  0  0  0  0  0  0  0  0  0  0  0
  -20.8450  -29.7990   21.7250 H   0  0  0  0  0  0  0  0  0  0  0  0
  -17.9630  -28.0610   22.9270 C   0  0  0  0  0  0  0  0  0  0  0  0
  -20.5230  -28.3040   23.1810 C   0  0  0  0  0  3  0  0  0  0  0  0
  -20.6140  -26.8720   22.6020 C   0  0  0  0  0  2  0  0  0  0  0  0
  -19.5020  -26.5580   21.5960 C   0  0  0  0  0  2  0  0  0  0  0  0
  -18.1250  -26.7120   22.2490 C   0  0  0  0  0  2  0  0  0  0  0  0
  -19.0880  -28.8170   23.3500 C   0  0  0  0  0  0  0  0  0  0  0  0
  -18.8800  -30.0830   23.9390 C   0  0  0  0  0  3  0  0  0  0  0  0
  -17.5790  -30.5910   24.1130 C   0  0  0  0  0  3  0  0  0  0  0  0
  -16.4680  -29.8300   23.7100 C   0  0  0  0  0  3  0  0  0  0  0  0
  -16.6610  -28.5690   23.1200 C   0  0  0  0  0  3  0  0  0  0  0  0
  -25.8370  -32.4510   23.7900 C   0  0  0  0  0  3  0  0  0  0  0  0
  -25.5370  -33.8450   24.1420 N   0  0  0  0  0  0  0  0  0  0  0  0
  -25.8560  -34.9050   23.3890 C   0  0  0  0  0  0  0  0  0  0  0  0
  -26.5080  -34.8130   22.3440 O   0  0  0  0  0  0  0  0  0  0  0  0
  -24.9590  -33.9920   24.9560 H   0  0  0  0  0  0  0  0  0  0  0  0
  -24.1200  -36.6980   23.0870 C   0  0  0  0  0  1  0  0  0  0  0  0
  -25.3770  -36.2880   23.8700 C   0  0  0  0  0  3  0  0  0  0  0  0
  -27.5280  -37.1590   24.6670 C   0  0  0  0  0  1  0  0  0  0  0  0
  -26.4060  -37.3440   23.7520 N   0  0  0  0  0  0  0  0  0  0  0  0
  -26.0030  -38.2600   23.9280 H   0  0  0  0  0  0  0  0  0  0  0  0
  -26.3780  -31.6640   25.0450 C   0  0  1  0  0  0  0  0  0  0  0  0
  -25.3070  -31.4100   26.1300 C   0  0  0  0  0  1  0  0  0  0  0  0
  -26.9520  -30.2920   24.6200 C   0  0  0  0  0  1  0  0  0  0  0  0
  -27.5420  -32.4480   25.6940 C   0  0  0  0  0  1  0  0  0  0  0  0
  1  2  1  0
  2  3  1  1
  4  9  1  0
  4  2  1  0
  5  7  1  0
  6  8  2  0
  6  9  1  0
  8 10  1  0
  9  5  2  0
 10 19  1  0
 10  7  2  0
 11 19  1  0
 12 17  1  0
 13 14  1  0
 13 12  1  0
 15 14  1  0
 15 23  1  0
 15 16  1  0
 17 11  1  0
 17 16  1  0
 18 11  2  0
 19 49  1  0
 20 21  2  0
 21 40  1  0
 22 21  1  0
 22 25  1  0
 23 24  1  0
 23 20  1  0
 24 22  2  0
 25 26  1  0
 26 27  2  0
 28 31  1  0
 28 27  1  0
 29 28  2  0
 30 29  1  0
 30 25  2  0
 31 32  1  0
 32 33  1  0
 33 34  2  0
 35 34  1  0
 35 39  1  0
 36 35  2  0
 37 32  2  0
 37 36  1  0
 38 37  1  0
 40 41  1  0
 41 44  1  0
 41 43  1  0
 42 40  2  0
 45 20  1  0
 45 46  1  0
 47 45  1  0
 49 48  1  0
 50  2  1  0
 50 51  1  0
 52 51  1  0
 52 53  1  0
 53 55  1  0
 54 65  2  0
 55 60  1  0
 56 64  1  0
 56 66  1  0
 57 63  1  0
 57 59  1  0
 58 64  1  0
 59 58  1  0
 60 59  2  0
 61 62  1  0
 61 55  2  0
 62 57  2  0
 63 56  1  0
 64 54  1  0
 66 68  2  0
 67 66  1  0
 69 67  1  0
 70 79  2  0
 70 75  1  0
 71 67  1  0
 71 75  1  0
 72 71  1  0
 73 74  1  0
 73 72  1  0
 74 70  1  0
 75 76  2  0
 76 77  1  0
 78 77  2  0
 79 78  1  0
 80 54  1  0
 80 81  1  0
 80 90  1  0
 81 84  1  0
 82 86  1  0
 82 81  1  0
 83 82  2  0
 86 85  1  0
 88 86  1  0
 88 89  1  0
 88 87  1  0
 90 93  1  1
 90 91  1  0
 92 90  1  0
M  ISO  4  11 100  19 100  52 101  53 101
M  END
>  <TORSDO>  (9) 
F 22

>  <SCORE>  (9) 
-9.993

>  <name>  (9) 
8

>  <ligand_id>  (9) 
8

>  <original_smiles>  (9) 
[H]c1c([H])c([H])c2c(c1[H])C([H])([H])C([H])([H])C([H])([H])C2([H])N([H])C(=O)C1([H])N(C(=O)C([H])(N([H])C(=O)C([H])(N([H])C([H])([H])[H])C([H])([H])[H])C(C([H])([H])[H])(C([H])([H])[H])C([H])([H])[H])C([H])([H])c2c([H])c(OC([H])([H])C([H])([H])C([H])([H])[N+]([H])(C([H])([H])[H])C([H])([H])c3c([H])c([H])c(N(C(=O)N4C([H])([H])C([H])([H])C([H])([H])C([H])(n5nc(-c6c([H])c([H])c(Oc7c([H])c([H])c(F)c([H])c7F)c([H])c6[H])c(C(=O)N([H])[H])c5N([H])[H])C4([H])[H])C([H])([H])C([H])([H])[H])c([H])c3[H])c([H])c([H])c2C1([H])[H]

>  <smiles>  (9) 
[H]c1c([H])c([H])c2c(c1[H])C([H])([H])C([H])([H])C([H])([H])C2([H])N([H])C(=O)C1([H])N(C(=O)C([H])(N([H])C(=O)C([H])(N([H])C([H])([H])[H])C([H])([H])[H])C(C([H])([H])[H])(C([H])([H])[H])C([H])([H])[H])C([H])([H])c2c([H])c(OC([H])([H])C([H])([H])C([H])([H])[N+]([H])(C([H])([H])[H])C([H])([H])c3c([H])c([H])c(N(C(=O)N4C([H])([H])C([H])([H])C([H])([H])C([H])(n5nc(-c6c([H])c([H])c(Oc7c([H])c([H])c(F)c([H])c7F)c([H])c6[H])c(C(=O)N([H])[H])c5N([H])[H])C4([H])[H])C([H])([H])C([H])([H])[H])c([H])c3[H])c([H])c([H])c2C1([H])[H]

$$$$
10:0:0
     RDKit          3D

 96105  0  0  1  0  0  0  0  0999 V2000
  -29.8110  -21.5540   20.1770 C   0  0  0  0  0  2  0  0  0  0  0  0
  -30.2090  -19.2270   18.9400 C   0  0  0  0  0  3  0  0  0  0  0  0
  -30.3520  -17.7960   18.9720 C   0  0  0  0  0  3  0  0  0  0  0  0
  -29.3670  -17.7690   21.1490 C   0  0  0  0  0  3  0  0  0  0  0  0
  -29.6870  -19.9740   20.0370 C   0  0  0  0  0  0  0  0  0  0  0  0
  -29.9980  -17.0110   20.1130 C   0  0  0  0  0  0  0  0  0  0  0  0
  -29.2360  -19.1860   21.1270 C   0  0  0  0  0  0  0  0  0  0  0  0
  -28.7260  -19.8000   22.2200 F   0  0  0  0  0  0  0  0  0  0  0  0
  -30.6220  -14.6590   19.3110 C   0  0  0  0  0  0  0  0  0  0  0  0
  -30.0510  -12.5560   18.0800 C   0  0  0  0  0  2  0  0  0  0  0  0
  -28.9240  -12.7840   17.0520 C   0  0  0  0  0  2  0  0  0  0  0  0
  -27.5470  -12.6070   17.7140 C   0  0  0  0  0  2  0  0  0  0  0  0
  -27.4270  -13.3990   19.0420 C   0  0  0  0  0  3  0  0  0  0  0  0
  -28.6480  -13.1780   19.9540 C   0  0  0  0  0  2  0  0  0  0  0  0
  -29.8630  -13.5150   19.1940 N   0  0  0  0  0  0  0  0  0  0  0  0
  -31.5840  -14.8450   18.5600 O   0  0  0  0  0  0  0  0  0  0  0  0
  -30.3370  -15.5670   20.3200 N   0  0  0  0  0  0  0  0  0  0  0  0
  -25.2040  -13.9850   20.1830 C   0  0  0  0  0  0  0  0  0  0  0  0
  -24.2050  -13.2050   20.6980 C   0  0  0  0  0  0  0  0  0  0  0  0
  -24.6350  -11.8520   20.5430 C   0  0  0  0  0  0  0  0  0  0  0  0
  -26.1790  -13.1050   19.7400 N   0  0  0  0  0  0  0  0  0  0  0  0
  -25.8550  -11.8150   20.0180 N   0  0  0  0  0  0  0  0  0  0  0  0
  -23.9330  -10.5890   20.8080 C   0  0  0  0  0  0  0  0  0  0  0  0
  -24.4170   -9.6590   21.7550 C   0  0  0  0  0  3  0  0  0  0  0  0
  -23.7120   -8.4610   22.0070 C   0  0  0  0  0  3  0  0  0  0  0  0
  -22.5110   -8.1860   21.3120 C   0  0  0  0  0  0  0  0  0  0  0  0
  -22.0460   -9.1050   20.3550 C   0  0  0  0  0  3  0  0  0  0  0  0
  -22.7510  -10.2940   20.1020 C   0  0  0  0  0  3  0  0  0  0  0  0
  -21.7740   -7.0370   21.4710 O   0  0  0  0  0  0  0  0  0  0  0  0
  -21.7120   -6.3830   22.6750 C   0  0  0  0  0  0  0  0  0  0  0  0
  -21.2590   -7.0240   23.8490 C   0  0  0  0  0  3  0  0  0  0  0  0
  -21.1450   -6.2950   25.0500 C   0  0  0  0  0  3  0  0  0  0  0  0
  -21.4750   -4.9260   25.0770 C   0  0  0  0  0  0  0  0  0  0  0  0
  -21.9200   -4.2860   23.9080 C   0  0  0  0  0  3  0  0  0  0  0  0
  -22.0360   -5.0120   22.7100 C   0  0  0  0  0  0  0  0  0  0  0  0
  -22.4460   -4.3850   21.5810 F   0  0  0  0  0  0  0  0  0  0  0  0
  -21.3580   -4.2240   26.2280 F   0  0  0  0  0  0  0  0  0  0  0  0
  -22.8780  -13.6830   21.2160 C   0  0  0  0  0  0  0  0  0  0  0  0
  -22.3240  -12.9960   22.2080 N   0  0  0  0  0  0  0  0  0  0  0  0
  -22.3510  -14.7030   20.7750 O   0  0  0  0  0  0  0  0  0  0  0  0
  -22.7690  -12.1710   22.5830 H   0  0  0  0  0  0  0  0  0  0  0  0
  -21.4440  -13.2980   22.5970 H   0  0  0  0  0  0  0  0  0  0  0  0
  -25.3580  -15.3600   20.0300 N   0  0  0  0  0  0  0  0  0  0  0  0
  -24.6360  -16.0180   20.2990 H   0  0  0  0  0  0  0  0  0  0  0  0
  -26.1580  -15.8020   19.5960 H   0  0  0  0  0  0  0  0  0  0  0  0
  -31.4760  -13.8280   21.9180 C   0  0  0  0  0  1  0  0  0  0  0  0
  -32.0520  -16.2770   22.0140 C   0  0  0  0  0  1  0  0  0  0  0  0
  -30.9400  -15.2620   21.6620 C   0  0  0  0  0  3  0  0  0  0  0  0
  -26.8840  -22.6530   21.0290 C   0  0  0  0  0  2  0  0  0  0  0  0
  -27.5700  -24.0120   21.1560 C   0  0  0  0  0  2  0  0  0  0  0  0
  -27.4040  -22.0950   19.7080 C   0  0  0  0  0  2  0  0  0  0  0  0
  -28.8070  -23.9690   20.2310 C   0  0  0  0  0  3  0  0  0  0  0  0
  -28.8020  -22.5570   19.6110 N   0  0  1  0  0  4  0  0  0  0  0  0
  -29.0240  -22.6240   18.6270 H   0  0  0  0  0  0  0  0  0  0  0  0
  -28.7770  -25.2300   19.2400 C   0  0  0  0  0  2  0  0  0  0  0  0
  -28.6510  -26.6010   19.8090 O   0  0  0  0  0  0  0  0  0  0  0  0
  -24.7550  -31.7450   23.0480 C   0  0  0  0  0  0  0  0  0  0  0  0
  -27.4640  -27.3550   19.8090 C   0  0  0  0  0  0  0  0  0  0  0  0
  -23.5650  -30.3410   21.4020 C   0  0  0  0  0  3  0  0  0  0  0  0
  -25.0350  -28.8730   19.9090 C   0  0  0  0  0  0  0  0  0  0  0  0
  -26.0860  -30.7520   21.1710 C   0  0  0  0  0  2  0  0  0  0  0  0
  -26.1980  -29.3920   20.4870 C   0  0  0  0  0  0  0  0  0  0  0  0
  -27.4100  -28.6420   20.4310 C   0  0  0  0  0  3  0  0  0  0  0  0
  -26.2670  -26.8810   19.2230 C   0  0  0  0  0  3  0  0  0  0  0  0
  -25.0710  -27.6240   19.2730 C   0  0  0  0  0  3  0  0  0  0  0  0
  -23.7690  -29.6990   20.0040 C   0  0  0  0  0  2  0  0  0  0  0  0
  -24.8220  -30.9640   21.9310 N   0  0  0  0  0  0  0  0  0  0  0  0
  -23.6730  -31.9760   23.6100 O   0  0  0  0  0  0  0  0  0  0  0  0
  -22.9610  -29.2810   22.3550 C   0  0  0  0  0  0  0  0  0  0  0  0
  -21.6440  -29.0390   22.2330 N   0  0  0  0  0  0  0  0  0  0  0  0
  -23.6760  -28.6760   23.1580 O   0  0  0  0  0  0  0  0  0  0  0  0
  -21.1250  -29.5830   21.5590 H   0  0  0  0  0  0  0  0  0  0  0  0
  -18.3360  -27.6580   22.7250 C   0  0  0  0  0  0  0  0  0  0  0  0
  -20.8790  -28.0510   22.9960 C   0  0  0  0  0  3  0  0  0  0  0  0
  -21.0540  -26.6320   22.4070 C   0  0  0  0  0  2  0  0  0  0  0  0
  -19.9700  -26.2600   21.3900 C   0  0  0  0  0  2  0  0  0  0  0  0
  -18.5840  -26.3260   22.0370 C   0  0  0  0  0  2  0  0  0  0  0  0
  -19.4130  -28.4760   23.1600 C   0  0  0  0  0  0  0  0  0  0  0  0
  -19.1280  -29.7200   23.7630 C   0  0  0  0  0  3  0  0  0  0  0  0
  -17.8000  -30.1490   23.9360 C   0  0  0  0  0  3  0  0  0  0  0  0
  -16.7370  -29.3300   23.5160 C   0  0  0  0  0  3  0  0  0  0  0  0
  -17.0060  -28.0850   22.9190 C   0  0  0  0  0  3  0  0  0  0  0  0
  -26.0280  -32.4100   23.6580 C   0  0  0  0  0  3  0  0  0  0  0  0
  -26.6150  -31.6160   24.8900 C   0  0  1  0  0  0  0  0  0  0  0  0
  -25.5580  -31.2710   25.9660 C   0  0  0  0  0  1  0  0  0  0  0  0
  -27.2660  -30.2920   24.4290 C   0  0  0  0  0  1  0  0  0  0  0  0
  -27.7350  -32.4440   25.5610 C   0  0  0  0  0  1  0  0  0  0  0  0
  -25.6720  -33.7820   24.0480 N   0  0  0  0  0  0  0  0  0  0  0  0
  -25.9640  -34.8770   23.3360 C   0  0  0  0  0  0  0  0  0  0  0  0
  -26.6320  -34.8410   22.2990 O   0  0  0  0  0  0  0  0  0  0  0  0
  -25.0770  -33.8830   24.8580 H   0  0  0  0  0  0  0  0  0  0  0  0
  -24.1960  -36.6420   23.0420 C   0  0  0  0  0  1  0  0  0  0  0  0
  -25.4320  -36.2270   23.8550 C   0  0  0  0  0  3  0  0  0  0  0  0
  -27.5250  -37.1190   24.7780 C   0  0  0  0  0  1  0  0  0  0  0  0
  -26.4400  -37.3080   23.8180 N   0  0  0  0  0  0  0  0  0  0  0  0
  -26.0080  -38.2080   24.0070 H   0  0  0  0  0  0  0  0  0  0  0  0
  2  3  2  0
  2  5  1  0
  3  6  1  0
  5  1  1  0
  5  7  2  0
  6 17  1  0
  6  4  2  0
  7  4  1  0
  7  8  1  0
  9 17  1  0
 10 15  1  0
 11 12  1  0
 11 10  1  0
 13 12  1  0
 13 21  1  0
 13 14  1  0
 15  9  1  0
 15 14  1  0
 16  9  2  0
 17 48  1  0
 18 19  2  0
 19 38  1  0
 20 19  1  0
 20 23  1  0
 21 22  1  0
 21 18  1  0
 22 20  2  0
 23 24  1  0
 24 25  2  0
 26 29  1  0
 26 25  1  0
 27 26  2  0
 28 27  1  0
 28 23  2  0
 29 30  1  0
 30 35  2  0
 30 31  1  0
 31 32  2  0
 32 33  1  0
 33 37  1  0
 34 33  2  0
 35 34  1  0
 36 35  1  0
 38 39  1  0
 39 41  1  0
 39 42  1  0
 40 38  2  0
 43 18  1  0
 43 44  1  0
 45 43  1  0
 48 46  1  0
 48 47  1  0
 49 50  1  0
 51 49  1  0
 52 55  1  0
 52 50  1  0
 53 51  1  0
 53  1  1  0
 53 52  1  0
 53 54  1  6
 55 56  1  0
 56 58  1  0
 57 68  2  0
 58 63  1  0
 59 67  1  0
 59 69  1  0
 60 66  1  0
 60 62  1  0
 61 67  1  0
 62 61  1  0
 63 62  2  0
 64 65  1  0
 64 58  2  0
 65 60  2  0
 66 59  1  0
 67 57  1  0
 69 71  2  0
 70 69  1  0
 72 70  1  0
 73 82  2  0
 73 78  1  0
 74 70  1  0
 74 78  1  0
 75 74  1  0
 76 77  1  0
 76 75  1  0
 77 73  1  0
 78 79  2  0
 79 80  1  0
 81 80  2  0
 82 81  1  0
 83 57  1  0
 83 88  1  0
 83 84  1  0
 84 87  1  1
 84 85  1  0
 86 84  1  0
 88 91  1  0
 89 93  1  0
 89 88  1  0
 90 89  2  0
 93 92  1  0
 95 93  1  0
 95 96  1  0
 95 94  1  0
M  ISO  4   9 100  17 100  55 101  56 101
M  END
>  <TORSDO>  (10) 
F 20

>  <SCORE>  (10) 
-8.414

>  <name>  (10) 
10

>  <ligand_id>  (10) 
10

>  <original_smiles>  (10) 
[H]c1c([H])c([H])c2c(c1[H])C([H])([H])C([H])([H])C([H])([H])C2([H])N([H])C(=O)C1([H])N(C(=O)C([H])(N([H])C(=O)C([H])(N([H])C([H])([H])[H])C([H])([H])[H])C(C([H])([H])[H])(C([H])([H])[H])C([H])([H])[H])C([H])([H])c2c([H])c(OC([H])([H])C3([H])C([H])([H])C([H])([H])C([H])([H])[N+]3([H])C([H])([H])c3c([H])c([H])c(N(C(=O)N4C([H])([H])C([H])([H])C([H])([H])C([H])(n5nc(-c6c([H])c([H])c(Oc7c([H])c([H])c(F)c([H])c7F)c([H])c6[H])c(C(=O)N([H])[H])c5N([H])[H])C4([H])[H])C([H])(C([H])([H])[H])C([H])([H])[H])c([H])c3F)c([H])c([H])c2C1([H])[H]

>  <smiles>  (10) 
[H]c1c([H])c([H])c2c(c1[H])C([H])([H])C([H])([H])C([H])([H])C2([H])N([H])C(=O)C1([H])N(C(=O)C([H])(N([H])C(=O)C([H])(N([H])C([H])([H])[H])C([H])([H])[H])C(C([H])([H])[H])(C([H])([H])[H])C([H])([H])[H])C([H])([H])c2c([H])c(OC([H])([H])C3([H])C([H])([H])C([H])([H])C([H])([H])[N+]3([H])C([H])([H])c3c([H])c([H])c(N(C(=O)N4C([H])([H])C([H])([H])C([H])([H])C([H])(n5nc(-c6c([H])c([H])c(Oc7c([H])c([H])c(F)c([H])c7F)c([H])c6[H])c(C(=O)N([H])[H])c5N([H])[H])C4([H])[H])C([H])(C([H])([H])[H])C([H])([H])[H])c([H])c3F)c([H])c([H])c2C1([H])[H]

$$$$
11:0:0
     RDKit          3D

 90 98  0  0  1  0  0  0  0  0999 V2000
  -27.8170  -21.8590   21.4820 C   0  0  0  0  0  1  0  0  0  0  0  0
  -28.8510  -21.5230   20.5000 N   0  0  0  0  0  0  0  0  0  0  0  0
  -28.7220  -17.7450   21.0840 C   0  0  0  0  0  3  0  0  0  0  0  0
  -30.7610  -18.1740   19.9040 C   0  0  0  0  0  3  0  0  0  0  0  0
  -28.4120  -19.1270   21.0620 C   0  0  0  0  0  3  0  0  0  0  0  0
  -30.4460  -19.5830   19.8980 C   0  0  0  0  0  3  0  0  0  0  0  0
  -29.8940  -17.2100   20.5020 C   0  0  0  0  0  0  0  0  0  0  0  0
  -29.2500  -20.1210   20.4770 C   0  0  0  0  0  0  0  0  0  0  0  0
  -30.8040  -14.7780   20.0020 C   0  0  0  0  0  0  0  0  0  0  0  0
  -30.5680  -12.5550   18.8950 C   0  0  0  0  0  2  0  0  0  0  0  0
  -29.5430  -12.6930   17.7450 C   0  0  0  0  0  2  0  0  0  0  0  0
  -28.0960  -12.5270   18.2590 C   0  0  0  0  0  2  0  0  0  0  0  0
  -27.8160  -13.3560   19.5390 C   0  0  0  0  0  3  0  0  0  0  0  0
  -28.9430  -13.1550   20.5780 C   0  0  0  0  0  2  0  0  0  0  0  0
  -30.2160  -13.5380   19.9390 N   0  0  0  0  0  0  0  0  0  0  0  0
  -31.9070  -14.9980   19.4920 O   0  0  0  0  0  0  0  0  0  0  0  0
  -30.0250  -15.7490   20.5770 N   0  0  0  0  0  0  0  0  0  0  0  0
  -29.2520  -15.3170   21.0570 H   0  0  0  0  0  0  0  0  0  0  0  0
  -25.4770  -13.9400   20.4360 C   0  0  0  0  0  0  0  0  0  0  0  0
  -24.4300  -13.1580   20.8450 C   0  0  0  0  0  0  0  0  0  0  0  0
  -24.8770  -11.8060   20.7260 C   0  0  0  0  0  0  0  0  0  0  0  0
  -26.4970  -13.0630   20.0970 N   0  0  0  0  0  0  0  0  0  0  0  0
  -26.1430  -11.7730   20.3300 N   0  0  0  0  0  0  0  0  0  0  0  0
  -24.1550  -10.5410   20.9120 C   0  0  0  0  0  0  0  0  0  0  0  0
  -24.5700   -9.5860   21.8660 C   0  0  0  0  0  3  0  0  0  0  0  0
  -23.8490   -8.3850   22.0370 C   0  0  0  0  0  3  0  0  0  0  0  0
  -22.6960   -8.1310   21.2560 C   0  0  0  0  0  0  0  0  0  0  0  0
  -22.3000   -9.0750   20.2930 C   0  0  0  0  0  3  0  0  0  0  0  0
  -23.0220  -10.2670   20.1180 C   0  0  0  0  0  3  0  0  0  0  0  0
  -21.9470   -6.9820   21.3370 O   0  0  0  0  0  0  0  0  0  0  0  0
  -21.7830   -6.3130   22.5230 C   0  0  0  0  0  0  0  0  0  0  0  0
  -21.2160   -6.9340   23.6580 C   0  0  0  0  0  3  0  0  0  0  0  0
  -21.0030   -6.1890   24.8340 C   0  0  0  0  0  3  0  0  0  0  0  0
  -21.3430   -4.8240   24.8770 C   0  0  0  0  0  0  0  0  0  0  0  0
  -21.9000   -4.2020   23.7460 C   0  0  0  0  0  3  0  0  0  0  0  0
  -22.1170   -4.9440   22.5710 C   0  0  0  0  0  0  0  0  0  0  0  0
  -22.6350   -4.3350   21.4780 F   0  0  0  0  0  0  0  0  0  0  0  0
  -21.1300   -4.1060   26.0040 F   0  0  0  0  0  0  0  0  0  0  0  0
  -23.0560  -13.6310   21.2290 C   0  0  0  0  0  0  0  0  0  0  0  0
  -22.3810  -12.9020   22.1100 N   0  0  0  0  0  0  0  0  0  0  0  0
  -22.5940  -14.6800   20.7830 O   0  0  0  0  0  0  0  0  0  0  0  0
  -22.7660  -12.0500   22.4920 H   0  0  0  0  0  0  0  0  0  0  0  0
  -21.4620  -13.1980   22.4070 H   0  0  0  0  0  0  0  0  0  0  0  0
  -25.6430  -15.3160   20.3050 N   0  0  0  0  0  0  0  0  0  0  0  0
  -24.8930  -15.9730   20.4890 H   0  0  0  0  0  0  0  0  0  0  0  0
  -26.4660  -15.7550   19.9150 H   0  0  0  0  0  0  0  0  0  0  0  0
  -29.6530  -22.6970   20.0230 C   0  0  0  0  0  2  0  0  0  0  0  0
  -28.8940  -24.0390   19.5470 C   0  0  0  0  0  2  0  0  0  0  0  0
  -28.5450  -25.2350   20.5460 C   0  0  0  0  0  2  0  0  0  0  0  0
  -28.5920  -26.6390   20.0720 O   0  0  0  0  0  0  0  0  0  0  0  0
  -24.7880  -31.8390   23.3650 C   0  0  0  0  0  0  0  0  0  0  0  0
  -27.4430  -27.4370   20.1310 C   0  0  0  0  0  0  0  0  0  0  0  0
  -23.5970  -30.5090   21.6570 C   0  0  0  0  0  3  0  0  0  0  0  0
  -25.0610  -29.0190   20.1780 C   0  0  0  0  0  0  0  0  0  0  0  0
  -26.1320  -30.8500   21.4970 C   0  0  0  0  0  2  0  0  0  0  0  0
  -26.2240  -29.4970   20.7980 C   0  0  0  0  0  0  0  0  0  0  0  0
  -27.4180  -28.7190   20.7590 C   0  0  0  0  0  3  0  0  0  0  0  0
  -26.2560  -26.9960   19.5080 C   0  0  0  0  0  3  0  0  0  0  0  0
  -25.0780  -27.7730   19.5280 C   0  0  0  0  0  3  0  0  0  0  0  0
  -23.8200  -29.8880   20.2520 C   0  0  0  0  0  2  0  0  0  0  0  0
  -24.8570  -31.0810   22.2320 N   0  0  0  0  0  0  0  0  0  0  0  0
  -23.7020  -32.0930   23.9060 O   0  0  0  0  0  0  0  0  0  0  0  0
  -22.9320  -29.4510   22.5700 C   0  0  0  0  0  0  0  0  0  0  0  0
  -21.6070  -29.2760   22.4240 N   0  0  0  0  0  0  0  0  0  0  0  0
  -23.6040  -28.7930   23.3670 O   0  0  0  0  0  0  0  0  0  0  0  0
  -21.1260  -29.8590   21.7520 H   0  0  0  0  0  0  0  0  0  0  0  0
  -18.2290  -28.0480   22.8280 C   0  0  0  0  0  0  0  0  0  0  0  0
  -20.7820  -28.3050   23.1450 C   0  0  0  0  0  3  0  0  0  0  0  0
  -20.8980  -26.8990   22.5110 C   0  0  0  0  0  2  0  0  0  0  0  0
  -19.8110  -26.6160   21.4700 C   0  0  0  0  0  2  0  0  0  0  0  0
  -18.4190  -26.7280   22.1000 C   0  0  0  0  0  2  0  0  0  0  0  0
  -19.3390  -28.7960   23.3030 C   0  0  0  0  0  0  0  0  0  0  0  0
  -19.1070  -30.0330   23.9430 C   0  0  0  0  0  3  0  0  0  0  0  0
  -17.7980  -30.5220   24.1150 C   0  0  0  0  0  3  0  0  0  0  0  0
  -16.7020  -29.7700   23.6570 C   0  0  0  0  0  3  0  0  0  0  0  0
  -16.9180  -28.5350   23.0190 C   0  0  0  0  0  3  0  0  0  0  0  0
  -26.0670  -32.4430   24.0250 C   0  0  0  0  0  3  0  0  0  0  0  0
  -26.5630  -31.6270   25.2810 C   0  0  1  0  0  0  0  0  0  0  0  0
  -25.4530  -31.3550   26.3250 C   0  0  0  0  0  1  0  0  0  0  0  0
  -27.1460  -30.2630   24.8440 C   0  0  0  0  0  1  0  0  0  0  0  0
  -27.7090  -32.3910   25.9840 C   0  0  0  0  0  1  0  0  0  0  0  0
  -25.7600  -33.8310   24.3990 N   0  0  0  0  0  0  0  0  0  0  0  0
  -26.1160  -34.9080   23.6890 C   0  0  0  0  0  0  0  0  0  0  0  0
  -26.8050  -34.8380   22.6660 O   0  0  0  0  0  0  0  0  0  0  0  0
  -25.1460  -33.9580   25.1900 H   0  0  0  0  0  0  0  0  0  0  0  0
  -24.4150  -36.7330   23.3560 C   0  0  0  0  0  1  0  0  0  0  0  0
  -25.6280  -36.2820   24.1870 C   0  0  0  0  0  3  0  0  0  0  0  0
  -27.7440  -37.1110   25.1140 C   0  0  0  0  0  1  0  0  0  0  0  0
  -26.6720  -37.3290   24.1460 N   0  0  0  0  0  0  0  0  0  0  0  0
  -26.2710  -38.2470   24.3180 H   0  0  0  0  0  0  0  0  0  0  0  0
  2  1  1  0
  4  7  1  0
  5  3  1  0
  6  4  2  0
  6  8  1  0
  7 17  1  0
  7  3  2  0
  8  2  1  0
  8  5  2  0
  9 17  1  0
 10 15  1  0
 11 12  1  0
 11 10  1  0
 13 12  1  0
 13 22  1  0
 13 14  1  0
 15  9  1  0
 15 14  1  0
 16  9  2  0
 17 18  1  0
 19 20  2  0
 20 39  1  0
 21 20  1  0
 21 24  1  0
 22 23  1  0
 22 19  1  0
 23 21  2  0
 24 25  1  0
 25 26  2  0
 27 30  1  0
 27 26  1  0
 28 27  2  0
 29 28  1  0
 29 24  2  0
 30 31  1  0
 31 36  2  0
 31 32  1  0
 32 33  2  0
 33 34  1  0
 34 38  1  0
 35 34  2  0
 36 35  1  0
 37 36  1  0
 39 40  1  0
 40 43  1  0
 40 42  1  0
 41 39  2  0
 44 19  1  0
 44 45  1  0
 46 44  1  0
 47  2  1  0
 48 47  1  0
 48 49  1  0
 50 52  1  0
 50 49  1  0
 51 62  2  0
 52 57  1  0
 53 61  1  0
 53 63  1  0
 54 60  1  0
 54 56  1  0
 55 61  1  0
 56 55  1  0
 57 56  2  0
 58 59  1  0
 58 52  2  0
 59 54  2  0
 60 53  1  0
 61 51  1  0
 63 65  2  0
 64 63  1  0
 66 64  1  0
 67 76  2  0
 67 72  1  0
 68 64  1  0
 68 72  1  0
 69 68  1  0
 70 71  1  0
 70 69  1  0
 71 67  1  0
 72 73  2  0
 73 74  1  0
 75 74  2  0
 76 75  1  0
 77 51  1  0
 77 82  1  0
 77 78  1  0
 78 81  1  1
 78 79  1  0
 80 78  1  0
 82 85  1  0
 83 87  1  0
 83 82  1  0
 84 83  2  0
 87 86  1  0
 89 87  1  0
 89 90  1  0
 89 88  1  0
M  ISO  4   9 100  17 100  49 101  50 101
M  END
>  <TORSDO>  (11) 
F 20

>  <SCORE>  (11) 
-12.465

>  <name>  (11) 
11

>  <ligand_id>  (11) 
11

>  <original_smiles>  (11) 
[H]c1c([H])c([H])c2c(c1[H])C([H])([H])C([H])([H])C([H])([H])C2([H])N([H])C(=O)C1([H])N(C(=O)C([H])(N([H])C(=O)C([H])(N([H])C([H])([H])[H])C([H])([H])[H])C(C([H])([H])[H])(C([H])([H])[H])C([H])([H])[H])C([H])([H])c2c([H])c(OC([H])([H])C([H])([H])C([H])([H])N(c3c([H])c([H])c(N([H])C(=O)N4C([H])([H])C([H])([H])C([H])([H])C([H])(n5nc(-c6c([H])c([H])c(Oc7c([H])c([H])c(F)c([H])c7F)c([H])c6[H])c(C(=O)N([H])[H])c5N([H])[H])C4([H])[H])c([H])c3[H])C([H])([H])[H])c([H])c([H])c2C1([H])[H]

>  <smiles>  (11) 
[H]c1c([H])c([H])c2c(c1[H])C([H])([H])C([H])([H])C([H])([H])C2([H])N([H])C(=O)C1([H])N(C(=O)C([H])(N([H])C(=O)C([H])(N([H])C([H])([H])[H])C([H])([H])[H])C(C([H])([H])[H])(C([H])([H])[H])C([H])([H])[H])C([H])([H])c2c([H])c(OC([H])([H])C([H])([H])C([H])([H])N(c3c([H])c([H])c(N([H])C(=O)N4C([H])([H])C([H])([H])C([H])([H])C([H])(n5nc(-c6c([H])c([H])c(Oc7c([H])c([H])c(F)c([H])c7F)c([H])c6[H])c(C(=O)N([H])[H])c5N([H])[H])C4([H])[H])c([H])c3[H])C([H])([H])[H])c([H])c([H])c2C1([H])[H]

$$$$
12:0:0
     RDKit          3D

 92100  0  0  1  0  0  0  0  0999 V2000
  -30.7600  -18.7520   20.6120 C   0  0  0  0  0  3  0  0  0  0  0  0
  -30.5290  -20.1880   20.7440 C   0  0  0  0  0  3  0  0  0  0  0  0
  -28.4510  -18.4420   20.2980 C   0  0  0  0  0  3  0  0  0  0  0  0
  -29.7320  -17.7810   20.3730 C   0  0  0  0  0  0  0  0  0  0  0  0
  -29.2510  -20.8490   20.6170 C   0  0  0  0  0  0  0  0  0  0  0  0
  -28.2180  -19.8800   20.3890 C   0  0  0  0  0  0  0  0  0  0  0  0
  -26.9390  -20.3200   20.2920 F   0  0  0  0  0  0  0  0  0  0  0  0
  -30.6970  -15.1940   20.4080 C   0  0  0  0  0  0  0  0  0  0  0  0
  -30.6530  -12.8030   19.5420 C   0  0  0  0  0  2  0  0  0  0  0  0
  -29.7630  -12.6280   18.2840 C   0  0  0  0  0  2  0  0  0  0  0  0
  -28.2690  -12.5170   18.6670 C   0  0  0  0  0  2  0  0  0  0  0  0
  -27.8230  -13.4780   19.8010 C   0  0  0  0  0  3  0  0  0  0  0  0
  -28.8410  -13.5140   20.9520 C   0  0  0  0  0  2  0  0  0  0  0  0
  -30.1150  -13.9290   20.3560 N   0  0  0  0  0  0  0  0  0  0  0  0
  -31.9350  -15.2280   20.3610 O   0  0  0  0  0  0  0  0  0  0  0  0
  -29.9490  -16.3240   19.9130 N   0  0  0  0  0  0  0  0  0  0  0  0
  -25.4210  -14.0530   20.4760 C   0  0  0  0  0  0  0  0  0  0  0  0
  -24.3510  -13.2740   20.8220 C   0  0  0  0  0  0  0  0  0  0  0  0
  -24.8270  -11.9270   20.8210 C   0  0  0  0  0  0  0  0  0  0  0  0
  -26.4750  -13.1810   20.2730 N   0  0  0  0  0  0  0  0  0  0  0  0
  -26.1300  -11.8990   20.5590 N   0  0  0  0  0  0  0  0  0  0  0  0
  -24.1090  -10.6580   20.9980 C   0  0  0  0  0  0  0  0  0  0  0  0
  -24.5150   -9.7100   21.9640 C   0  0  0  0  0  3  0  0  0  0  0  0
  -23.7990   -8.5050   22.1290 C   0  0  0  0  0  3  0  0  0  0  0  0
  -22.6630   -8.2390   21.3300 C   0  0  0  0  0  0  0  0  0  0  0  0
  -22.2770   -9.1720   20.3520 C   0  0  0  0  0  3  0  0  0  0  0  0
  -22.9920  -10.3690   20.1840 C   0  0  0  0  0  3  0  0  0  0  0  0
  -21.9170   -7.0870   21.4070 O   0  0  0  0  0  0  0  0  0  0  0  0
  -21.8300   -6.3610   22.5680 C   0  0  0  0  0  0  0  0  0  0  0  0
  -21.3170   -6.9210   23.7600 C   0  0  0  0  0  3  0  0  0  0  0  0
  -21.1810   -6.1190   24.9120 C   0  0  0  0  0  3  0  0  0  0  0  0
  -21.5440   -4.7600   24.8720 C   0  0  0  0  0  0  0  0  0  0  0  0
  -22.0450   -4.1980   23.6850 C   0  0  0  0  0  3  0  0  0  0  0  0
  -22.1860   -4.9970   22.5350 C   0  0  0  0  0  0  0  0  0  0  0  0
  -22.6510   -4.4470   21.3880 F   0  0  0  0  0  0  0  0  0  0  0  0
  -21.4050   -3.9880   25.9740 F   0  0  0  0  0  0  0  0  0  0  0  0
  -22.9390  -13.7380   21.0380 C   0  0  0  0  0  0  0  0  0  0  0  0
  -22.1860  -13.0480   21.8870 N   0  0  0  0  0  0  0  0  0  0  0  0
  -22.5080  -14.7480   20.4810 O   0  0  0  0  0  0  0  0  0  0  0  0
  -22.5390  -12.2330   22.3650 H   0  0  0  0  0  0  0  0  0  0  0  0
  -21.2350  -13.3440   22.0690 H   0  0  0  0  0  0  0  0  0  0  0  0
  -25.5910  -15.4210   20.2860 N   0  0  0  0  0  0  0  0  0  0  0  0
  -24.8380  -16.1000   20.3630 H   0  0  0  0  0  0  0  0  0  0  0  0
  -26.4630  -15.8250   19.9790 H   0  0  0  0  0  0  0  0  0  0  0  0
  -29.3200  -17.3960   17.6220 C   0  0  0  0  0  1  0  0  0  0  0  0
  -29.9910  -16.2640   18.4260 C   0  0  0  0  0  2  0  0  0  0  0  0
  -28.6920  -23.5220   20.3110 C   0  0  0  0  0  0  0  0  0  0  0  0
  -29.2100  -22.5140   22.4590 C   0  0  0  0  0  1  0  0  0  0  0  0
  -29.0040  -22.3180   21.0250 N   0  0  0  0  0  0  0  0  0  0  0  0
  -28.7040  -23.5230   19.0750 O   0  0  0  0  0  0  0  0  0  0  0  0
  -28.2520  -24.9560   21.0470 C   0  0  0  0  0  2  0  0  0  0  0  0
  -28.4880  -26.3790   20.4760 O   0  0  0  0  0  0  0  0  0  0  0  0
  -24.6080  -31.9970   23.2780 C   0  0  0  0  0  0  0  0  0  0  0  0
  -27.4180  -27.3340   20.4220 C   0  0  0  0  0  0  0  0  0  0  0  0
  -23.5110  -30.5550   21.6030 C   0  0  0  0  0  3  0  0  0  0  0  0
  -25.0560  -29.0010   20.2650 C   0  0  0  0  0  0  0  0  0  0  0  0
  -26.0620  -30.8930   21.5410 C   0  0  0  0  0  2  0  0  0  0  0  0
  -26.1970  -29.4970   20.9090 C   0  0  0  0  0  0  0  0  0  0  0  0
  -27.3860  -28.6800   20.9670 C   0  0  0  0  0  3  0  0  0  0  0  0
  -26.2550  -26.9300   19.7430 C   0  0  0  0  0  3  0  0  0  0  0  0
  -25.0970  -27.7330   19.6610 C   0  0  0  0  0  3  0  0  0  0  0  0
  -23.8060  -29.8650   20.2440 C   0  0  0  0  0  2  0  0  0  0  0  0
  -24.7430  -31.1750   22.1920 N   0  0  0  0  0  0  0  0  0  0  0  0
  -23.4950  -32.2540   23.7610 O   0  0  0  0  0  0  0  0  0  0  0  0
  -22.8180  -29.5410   22.5510 C   0  0  0  0  0  0  0  0  0  0  0  0
  -21.5030  -29.3270   22.3660 N   0  0  0  0  0  0  0  0  0  0  0  0
  -23.4720  -28.9440   23.4110 O   0  0  0  0  0  0  0  0  0  0  0  0
  -21.0280  -29.8640   21.6530 H   0  0  0  0  0  0  0  0  0  0  0  0
  -18.1420  -28.0360   22.7480 C   0  0  0  0  0  0  0  0  0  0  0  0
  -20.6790  -28.3750   23.1170 C   0  0  0  0  0  3  0  0  0  0  0  0
  -20.8440  -26.9380   22.5690 C   0  0  0  0  0  2  0  0  0  0  0  0
  -19.7970  -26.5710   21.5130 C   0  0  0  0  0  2  0  0  0  0  0  0
  -18.3850  -26.6860   22.0960 C   0  0  0  0  0  2  0  0  0  0  0  0
  -19.2200  -28.8360   23.2140 C   0  0  0  0  0  0  0  0  0  0  0  0
  -18.9390  -30.0970   23.7810 C   0  0  0  0  0  3  0  0  0  0  0  0
  -17.6140  -30.5590   23.8910 C   0  0  0  0  0  3  0  0  0  0  0  0
  -16.5500  -29.7580   23.4390 C   0  0  0  0  0  3  0  0  0  0  0  0
  -16.8150  -28.5000   22.8720 C   0  0  0  0  0  3  0  0  0  0  0  0
  -25.8440  -32.6690   23.9510 C   0  0  0  0  0  3  0  0  0  0  0  0
  -26.2940  -31.9550   25.2850 C   0  0  1  0  0  0  0  0  0  0  0  0
  -25.1430  -31.7360   26.2930 C   0  0  0  0  0  1  0  0  0  0  0  0
  -26.9220  -30.5730   24.9920 C   0  0  0  0  0  1  0  0  0  0  0  0
  -27.3830  -32.7980   25.9890 C   0  0  0  0  0  1  0  0  0  0  0  0
  -25.4960  -34.0730   24.2130 N   0  0  0  0  0  0  0  0  0  0  0  0
  -25.8450  -35.1080   23.4370 C   0  0  0  0  0  0  0  0  0  0  0  0
  -26.5620  -34.9830   22.4400 O   0  0  0  0  0  0  0  0  0  0  0  0
  -24.8630  -34.2460   24.9810 H   0  0  0  0  0  0  0  0  0  0  0  0
  -24.1120  -36.8690   22.9520 C   0  0  0  0  0  1  0  0  0  0  0  0
  -25.3190  -36.5030   23.8290 C   0  0  0  0  0  3  0  0  0  0  0  0
  -27.3950  -37.4580   24.7320 C   0  0  0  0  0  1  0  0  0  0  0  0
  -26.3400  -37.5690   23.7300 N   0  0  0  0  0  0  0  0  0  0  0  0
  -25.9090  -38.4850   23.8200 H   0  0  0  0  0  0  0  0  0  0  0  0
  1  2  1  0
  3  4  1  0
  3  6  2  0
  4  1  2  0
  5  2  2  0
  5 49  1  0
  6  5  1  0
  7  6  1  0
  9 14  1  0
 10 11  1  0
 10  9  1  0
 12 11  1  0
 12 20  1  0
 12 13  1  0
 14  8  1  0
 14 13  1  0
 15  8  2  0
 16  4  1  0
 16  8  1  0
 17 18  2  0
 18 37  1  0
 19 18  1  0
 19 22  1  0
 20 17  1  0
 20 21  1  0
 21 19  2  0
 22 23  1  0
 23 24  2  0
 25 28  1  0
 25 24  1  0
 26 25  2  0
 27 26  1  0
 27 22  2  0
 28 29  1  0
 29 30  1  0
 30 31  2  0
 32 31  1  0
 32 36  1  0
 33 32  2  0
 34 29  2  0
 34 33  1  0
 35 34  1  0
 37 38  1  0
 38 41  1  0
 38 40  1  0
 39 37  2  0
 42 43  1  0
 42 17  1  0
 44 42  1  0
 45 46  1  0
 46 16  1  0
 47 49  1  0
 47 51  1  0
 49 48  1  0
 50 47  2  0
 52 51  1  0
 53 64  2  0
 54 52  1  0
 54 59  1  0
 55 63  1  0
 55 65  1  0
 56 58  1  0
 57 63  1  0
 58 59  2  0
 58 57  1  0
 60 54  2  0
 61 60  1  0
 61 56  2  0
 62 56  1  0
 62 55  1  0
 63 53  1  0
 65 67  2  0
 66 65  1  0
 68 66  1  0
 69 78  2  0
 69 74  1  0
 70 66  1  0
 70 74  1  0
 71 70  1  0
 72 73  1  0
 72 71  1  0
 73 69  1  0
 74 75  2  0
 75 76  1  0
 77 76  2  0
 78 77  1  0
 79 53  1  0
 79 84  1  0
 79 80  1  0
 80 83  1  1
 80 81  1  0
 82 80  1  0
 84 87  1  0
 85 89  1  0
 85 84  1  0
 86 85  2  0
 89 88  1  0
 91 92  1  0
 91 89  1  0
 91 90  1  0
M  ISO  4   8 100  16 100  51 101  52 101
M  END
>  <TORSDO>  (12) 
F 19

>  <SCORE>  (12) 
-13.108

>  <name>  (12) 
12

>  <ligand_id>  (12) 
12

>  <original_smiles>  (12) 
[H]c1c([H])c([H])c2c(c1[H])C([H])([H])C([H])([H])C([H])([H])C2([H])N([H])C(=O)C1([H])N(C(=O)C([H])(N([H])C(=O)C([H])(N([H])C([H])([H])[H])C([H])([H])[H])C(C([H])([H])[H])(C([H])([H])[H])C([H])([H])[H])C([H])([H])c2c([H])c(OC([H])([H])C(=O)N(c3c([H])c([H])c(N(C(=O)N4C([H])([H])C([H])([H])C([H])([H])C([H])(n5nc(-c6c([H])c([H])c(Oc7c([H])c([H])c(F)c([H])c7F)c([H])c6[H])c(C(=O)N([H])[H])c5N([H])[H])C4([H])[H])C([H])([H])C([H])([H])[H])c([H])c3F)C([H])([H])[H])c([H])c([H])c2C1([H])[H]

>  <smiles>  (12) 
[H]c1c([H])c([H])c2c(c1[H])C([H])([H])C([H])([H])C([H])([H])C2([H])N([H])C(=O)C1([H])N(C(=O)C([H])(N([H])C(=O)C([H])(N([H])C([H])([H])[H])C([H])([H])[H])C(C([H])([H])[H])(C([H])([H])[H])C([H])([H])[H])C([H])([H])c2c([H])c(OC([H])([H])C(=O)N(c3c([H])c([H])c(N(C(=O)N4C([H])([H])C([H])([H])C([H])([H])C([H])(n5nc(-c6c([H])c([H])c(Oc7c([H])c([H])c(F)c([H])c7F)c([H])c6[H])c(C(=O)N([H])[H])c5N([H])[H])C4([H])[H])C([H])([H])C([H])([H])[H])c([H])c3F)C([H])([H])[H])c([H])c([H])c2C1([H])[H]

$$$$
13:0:0
     RDKit          3D

 92100  0  0  1  0  0  0  0  0999 V2000
  -28.7710  -19.2220   20.5060 C   0  0  0  0  0  3  0  0  0  0  0  0
  -31.1960  -17.8600   20.1320 C   0  0  0  0  0  3  0  0  0  0  0  0
  -29.9230  -20.0070   20.2310 C   0  0  0  0  0  0  0  0  0  0  0  0
  -30.0590  -17.0770   20.4680 C   0  0  0  0  0  0  0  0  0  0  0  0
  -31.1270  -19.2790   20.0200 C   0  0  0  0  0  0  0  0  0  0  0  0
  -28.8390  -17.7980   20.6250 C   0  0  0  0  0  0  0  0  0  0  0  0
  -32.2630  -19.9660   19.7340 F   0  0  0  0  0  0  0  0  0  0  0  0
  -27.7060  -17.1160   20.9210 F   0  0  0  0  0  0  0  0  0  0  0  0
  -30.6860  -14.6470   20.0460 C   0  0  0  0  0  0  0  0  0  0  0  0
  -30.3040  -12.5180   18.8040 C   0  0  0  0  0  2  0  0  0  0  0  0
  -29.2640  -12.7250   17.6800 C   0  0  0  0  0  2  0  0  0  0  0  0
  -27.8280  -12.5590   18.2140 C   0  0  0  0  0  2  0  0  0  0  0  0
  -27.5870  -13.3400   19.5320 C   0  0  0  0  0  3  0  0  0  0  0  0
  -28.7240  -13.0760   20.5360 C   0  0  0  0  0  2  0  0  0  0  0  0
  -29.9940  -13.4650   19.8970 N   0  0  0  0  0  0  0  0  0  0  0  0
  -31.7420  -14.8300   19.4330 O   0  0  0  0  0  0  0  0  0  0  0  0
  -30.0550  -15.4040   22.2650 C   0  0  0  0  0  1  0  0  0  0  0  0
  -30.1410  -15.6510   20.8180 N   0  0  0  0  0  0  0  0  0  0  0  0
  -25.2610  -13.9190   20.4620 C   0  0  0  0  0  0  0  0  0  0  0  0
  -24.2180  -13.1330   20.8740 C   0  0  0  0  0  0  0  0  0  0  0  0
  -24.6670  -11.7830   20.7510 C   0  0  0  0  0  0  0  0  0  0  0  0
  -26.2770  -13.0440   20.1080 N   0  0  0  0  0  0  0  0  0  0  0  0
  -25.9300  -11.7520   20.3420 N   0  0  0  0  0  0  0  0  0  0  0  0
  -23.9470  -10.5180   20.9440 C   0  0  0  0  0  0  0  0  0  0  0  0
  -24.4310   -9.5190   21.8180 C   0  0  0  0  0  3  0  0  0  0  0  0
  -23.7110   -8.3180   22.0000 C   0  0  0  0  0  3  0  0  0  0  0  0
  -22.4930   -8.1080   21.3110 C   0  0  0  0  0  0  0  0  0  0  0  0
  -22.0280   -9.0960   20.4250 C   0  0  0  0  0  3  0  0  0  0  0  0
  -22.7480  -10.2880   20.2410 C   0  0  0  0  0  3  0  0  0  0  0  0
  -21.7420   -6.9610   21.4050 O   0  0  0  0  0  0  0  0  0  0  0  0
  -21.7400   -6.1930   22.5420 C   0  0  0  0  0  0  0  0  0  0  0  0
  -21.3860   -6.7260   23.8010 C   0  0  0  0  0  3  0  0  0  0  0  0
  -21.3300   -5.8860   24.9300 C   0  0  0  0  0  3  0  0  0  0  0  0
  -21.6200   -4.5130   24.8020 C   0  0  0  0  0  0  0  0  0  0  0  0
  -21.9670   -3.9810   23.5490 C   0  0  0  0  0  3  0  0  0  0  0  0
  -22.0250   -4.8190   22.4210 C   0  0  0  0  0  0  0  0  0  0  0  0
  -22.3400   -4.2960   21.2120 F   0  0  0  0  0  0  0  0  0  0  0  0
  -21.5580   -3.7040   25.8870 F   0  0  0  0  0  0  0  0  0  0  0  0
  -22.8520  -13.6060   21.2740 C   0  0  0  0  0  0  0  0  0  0  0  0
  -22.1970  -12.8900   22.1810 N   0  0  0  0  0  0  0  0  0  0  0  0
  -22.3750  -14.6460   20.8210 O   0  0  0  0  0  0  0  0  0  0  0  0
  -22.5980  -12.0520   22.5750 H   0  0  0  0  0  0  0  0  0  0  0  0
  -21.2810  -13.1860   22.4870 H   0  0  0  0  0  0  0  0  0  0  0  0
  -25.4200  -15.2940   20.3420 N   0  0  0  0  0  0  0  0  0  0  0  0
  -24.6890  -15.9420   20.6100 H   0  0  0  0  0  0  0  0  0  0  0  0
  -26.3020  -15.7560   20.1570 H   0  0  0  0  0  0  0  0  0  0  0  0
  -29.9660  -21.4440   20.1720 N   0  0  0  0  0  0  0  0  0  0  0  0
  -30.8930  -21.8290   20.0020 H   0  0  0  0  0  0  0  0  0  0  0  0
  -28.8300  -22.4150   20.2130 C   0  0  0  0  0  2  0  0  0  0  0  0
  -29.2340  -23.9630   20.2550 C   0  0  0  0  0  3  0  0  0  0  0  0
  -28.0670  -25.0300   20.0830 C   0  0  0  0  0  3  0  0  0  0  0  0
  -28.3250  -26.4900   20.1820 O   0  0  0  0  0  0  0  0  0  0  0  0
  -24.6240  -31.9500   23.1630 C   0  0  0  0  0  0  0  0  0  0  0  0
  -27.2120  -27.3490   20.1380 C   0  0  0  0  0  0  0  0  0  0  0  0
  -23.4110  -30.5390   21.5440 C   0  0  0  0  0  3  0  0  0  0  0  0
  -24.8510  -28.9760   20.1290 C   0  0  0  0  0  0  0  0  0  0  0  0
  -25.9530  -30.8470   21.3470 C   0  0  0  0  0  2  0  0  0  0  0  0
  -26.0260  -29.4620   20.7150 C   0  0  0  0  0  0  0  0  0  0  0  0
  -27.2100  -28.6610   20.7100 C   0  0  0  0  0  3  0  0  0  0  0  0
  -26.0050  -26.9210   19.5340 C   0  0  0  0  0  3  0  0  0  0  0  0
  -24.8420  -27.7100   19.5320 C   0  0  0  0  0  3  0  0  0  0  0  0
  -23.6180  -29.8540   20.1710 C   0  0  0  0  0  2  0  0  0  0  0  0
  -24.6830  -31.1290   22.0740 N   0  0  0  0  0  0  0  0  0  0  0  0
  -23.5420  -32.2360   23.6960 O   0  0  0  0  0  0  0  0  0  0  0  0
  -22.7500  -29.5310   22.5130 C   0  0  0  0  0  0  0  0  0  0  0  0
  -21.4250  -29.3490   22.3860 N   0  0  0  0  0  0  0  0  0  0  0  0
  -23.4290  -28.9170   23.3380 O   0  0  0  0  0  0  0  0  0  0  0  0
  -20.9340  -29.8990   21.6950 H   0  0  0  0  0  0  0  0  0  0  0  0
  -18.0480  -28.1520   22.9000 C   0  0  0  0  0  0  0  0  0  0  0  0
  -20.6060  -28.4220   23.1710 C   0  0  0  0  0  3  0  0  0  0  0  0
  -20.7130  -26.9800   22.6210 C   0  0  0  0  0  2  0  0  0  0  0  0
  -19.6120  -26.6390   21.6110 C   0  0  0  0  0  2  0  0  0  0  0  0
  -18.2290  -26.7920   22.2480 C   0  0  0  0  0  2  0  0  0  0  0  0
  -19.1640  -28.9230   23.3210 C   0  0  0  0  0  0  0  0  0  0  0  0
  -18.9420  -30.1940   23.8910 C   0  0  0  0  0  3  0  0  0  0  0  0
  -17.6340  -30.6950   24.0460 C   0  0  0  0  0  3  0  0  0  0  0  0
  -16.5340  -29.9210   23.6420 C   0  0  0  0  0  3  0  0  0  0  0  0
  -16.7420  -28.6520   23.0740 C   0  0  0  0  0  3  0  0  0  0  0  0
  -25.9100  -32.5850   23.7750 C   0  0  0  0  0  3  0  0  0  0  0  0
  -26.4410  -31.8130   25.0440 C   0  0  1  0  0  0  0  0  0  0  0  0
  -25.3580  -31.5660   26.1190 C   0  0  0  0  0  1  0  0  0  0  0  0
  -27.0290  -30.4390   24.6470 C   0  0  0  0  0  1  0  0  0  0  0  0
  -27.5930  -32.6120   25.6950 C   0  0  0  0  0  1  0  0  0  0  0  0
  -25.5950  -33.9810   24.1100 N   0  0  0  0  0  0  0  0  0  0  0  0
  -25.9150  -35.0370   23.3500 C   0  0  0  0  0  0  0  0  0  0  0  0
  -26.5750  -34.9390   22.3130 O   0  0  0  0  0  0  0  0  0  0  0  0
  -24.9980  -34.1290   24.9110 H   0  0  0  0  0  0  0  0  0  0  0  0
  -24.1770  -36.8290   23.0170 C   0  0  0  0  0  1  0  0  0  0  0  0
  -25.4260  -36.4230   23.8150 C   0  0  0  0  0  3  0  0  0  0  0  0
  -27.5690  -37.3110   24.6230 C   0  0  0  0  0  1  0  0  0  0  0  0
  -26.4540  -37.4820   23.6960 N   0  0  0  0  0  0  0  0  0  0  0  0
  -26.0450  -38.3990   23.8570 H   0  0  0  0  0  0  0  0  0  0  0  0
  1  6  1  0
  2  4  1  0
  3  1  2  0
  4  6  2  0
  4 18  1  0
  5  2  2  0
  5  3  1  0
  6  8  1  0
  7  5  1  0
  9 18  1  0
 10 15  1  0
 11 12  1  0
 11 10  1  0
 13 12  1  0
 13 22  1  0
 13 14  1  0
 15  9  1  0
 15 14  1  0
 16  9  2  0
 18 17  1  0
 19 20  2  0
 20 39  1  0
 21 20  1  0
 21 24  1  0
 22 23  1  0
 22 19  1  0
 23 21  2  0
 24 25  1  0
 25 26  2  0
 27 30  1  0
 27 26  1  0
 28 27  2  0
 29 28  1  0
 29 24  2  0
 30 31  1  0
 31 32  1  0
 32 33  2  0
 34 33  1  0
 34 38  1  0
 35 34  2  0
 36 31  2  0
 36 35  1  0
 37 36  1  0
 39 40  1  0
 40 43  1  0
 40 42  1  0
 41 39  2  0
 44 19  1  0
 44 45  1  0
 46 44  1  0
 47 49  1  0
 47  3  1  0
 48 47  1  0
 49 50  1  0
 51 52  1  0
 51 50  2  0
 53 64  2  0
 54 52  1  0
 54 59  1  0
 55 63  1  0
 55 65  1  0
 56 62  1  0
 56 58  1  0
 57 63  1  0
 58 57  1  0
 59 58  2  0
 60 54  2  0
 61 60  1  0
 61 56  2  0
 62 55  1  0
 63 53  1  0
 65 67  2  0
 66 65  1  0
 68 66  1  0
 69 78  2  0
 69 74  1  0
 70 66  1  0
 70 74  1  0
 71 70  1  0
 72 73  1  0
 72 71  1  0
 73 69  1  0
 74 75  2  0
 75 76  1  0
 77 76  2  0
 78 77  1  0
 79 53  1  0
 79 84  1  0
 79 80  1  0
 80 83  1  1
 80 81  1  0
 82 80  1  0
 84 87  1  0
 85 89  1  0
 85 84  1  0
 86 85  2  0
 89 88  1  0
 91 89  1  0
 91 92  1  0
 91 90  1  0
M  ISO  4   9 100  18 100  51 101  52 101
M  END
>  <TORSDO>  (13) 
F 20

>  <SCORE>  (13) 
-12.758

>  <name>  (13) 
13

>  <ligand_id>  (13) 
13

>  <original_smiles>  (13) 
[H]c1c([H])c([H])c2c(c1[H])C([H])([H])C([H])([H])C([H])([H])C2([H])N([H])C(=O)C1([H])N(C(=O)C([H])(N([H])C(=O)C([H])(N([H])C([H])([H])[H])C([H])([H])[H])C(C([H])([H])[H])(C([H])([H])[H])C([H])([H])[H])C([H])([H])c2c([H])c(OC([H])([H])C([H])([H])C([H])([H])N([H])c3c([H])c(F)c(N(C(=O)N4C([H])([H])C([H])([H])C([H])([H])C([H])(n5nc(-c6c([H])c([H])c(Oc7c([H])c([H])c(F)c([H])c7F)c([H])c6[H])c(C(=O)N([H])[H])c5N([H])[H])C4([H])[H])C([H])([H])[H])c([H])c3F)c([H])c([H])c2C1([H])[H]

>  <smiles>  (13) 
[H]c1c([H])c([H])c2c(c1[H])C([H])([H])C([H])([H])C([H])([H])C2([H])N([H])C(=O)C1([H])N(C(=O)C([H])(N([H])C(=O)C([H])(N([H])C([H])([H])[H])C([H])([H])[H])C(C([H])([H])[H])(C([H])([H])[H])C([H])([H])[H])C([H])([H])c2c([H])c(OC([H])([H])C([H])([H])C([H])([H])N([H])c3c([H])c(F)c(N(C(=O)N4C([H])([H])C([H])([H])C([H])([H])C([H])(n5nc(-c6c([H])c([H])c(Oc7c([H])c([H])c(F)c([H])c7F)c([H])c6[H])c(C(=O)N([H])[H])c5N([H])[H])C4([H])[H])C([H])([H])[H])c([H])c3F)c([H])c([H])c2C1([H])[H]

$$$$
14:0:0
     RDKit          3D

 91 99  0  0  1  0  0  0  0  0999 V2000
  -28.9340  -18.9160   20.5020 C   0  0  0  0  0  3  0  0  0  0  0  0
  -28.4630  -20.2520   20.6560 C   0  0  0  0  0  3  0  0  0  0  0  0
  -30.5130  -21.1160   19.7610 C   0  0  0  0  0  3  0  0  0  0  0  0
  -30.2340  -18.6370   20.0130 C   0  0  0  0  0  0  0  0  0  0  0  0
  -29.2340  -21.3980   20.2980 C   0  0  0  0  0  0  0  0  0  0  0  0
  -31.0010  -19.7820   19.6310 C   0  0  0  0  0  0  0  0  0  0  0  0
  -32.5900  -19.5800   18.9790 Cl  0  0  0  0  0  0  0  0  0  0  0  0
  -28.0290  -22.8570   21.8150 C   0  0  0  0  0  1  0  0  0  0  0  0
  -28.7300  -22.7280   20.5340 N   0  0  0  0  0  0  0  0  0  0  0  0
  -29.2450  -24.0060   19.9410 C   0  0  0  0  0  2  0  0  0  0  0  0
  -28.1240  -25.0900   19.6300 C   0  0  0  0  0  2  0  0  0  0  0  0
  -28.3990  -26.5440   19.6880 O   0  0  0  0  0  0  0  0  0  0  0  0
  -24.6270  -31.6760   23.0660 C   0  0  0  0  0  0  0  0  0  0  0  0
  -27.2740  -27.3840   19.6900 C   0  0  0  0  0  0  0  0  0  0  0  0
  -23.4260  -30.3740   21.3490 C   0  0  0  0  0  3  0  0  0  0  0  0
  -24.8840  -28.9510   19.8090 C   0  0  0  0  0  0  0  0  0  0  0  0
  -25.9590  -30.7460   21.1610 C   0  0  0  0  0  2  0  0  0  0  0  0
  -26.0540  -29.4170   20.4250 C   0  0  0  0  0  0  0  0  0  0  0  0
  -27.2520  -28.6470   20.3560 C   0  0  0  0  0  3  0  0  0  0  0  0
  -26.0800  -26.9790   19.0460 C   0  0  0  0  0  3  0  0  0  0  0  0
  -24.8990  -27.7380   19.1100 C   0  0  0  0  0  3  0  0  0  0  0  0
  -23.6340  -29.7960   19.9250 C   0  0  0  0  0  2  0  0  0  0  0  0
  -24.6910  -30.9440   21.9170 N   0  0  0  0  0  0  0  0  0  0  0  0
  -23.5460  -31.9010   23.6270 O   0  0  0  0  0  0  0  0  0  0  0  0
  -22.7900  -29.2820   22.2420 C   0  0  0  0  0  0  0  0  0  0  0  0
  -21.4620  -29.1130   22.1350 N   0  0  0  0  0  0  0  0  0  0  0  0
  -23.4890  -28.5950   22.9920 O   0  0  0  0  0  0  0  0  0  0  0  0
  -20.9590  -29.7230   21.5040 H   0  0  0  0  0  0  0  0  0  0  0  0
  -18.0870  -27.9150   22.6520 C   0  0  0  0  0  0  0  0  0  0  0  0
  -20.6570  -28.1210   22.8480 C   0  0  0  0  0  3  0  0  0  0  0  0
  -20.7190  -26.7440   22.1450 C   0  0  0  0  0  2  0  0  0  0  0  0
  -19.5760  -26.5260   21.1480 C   0  0  0  0  0  2  0  0  0  0  0  0
  -18.2200  -26.6290   21.8540 C   0  0  0  0  0  2  0  0  0  0  0  0
  -19.2330  -28.6230   23.1050 C   0  0  0  0  0  0  0  0  0  0  0  0
  -19.0550  -29.8330   23.8130 C   0  0  0  0  0  3  0  0  0  0  0  0
  -17.7660  -30.3320   24.0720 C   0  0  0  0  0  3  0  0  0  0  0  0
  -16.6350  -29.6170   23.6370 C   0  0  0  0  0  3  0  0  0  0  0  0
  -16.7980  -28.4110   22.9310 C   0  0  0  0  0  3  0  0  0  0  0  0
  -25.9080  -32.2810   23.7180 C   0  0  0  0  0  3  0  0  0  0  0  0
  -26.4210  -31.4540   24.9620 C   0  0  1  0  0  0  0  0  0  0  0  0
  -25.3250  -31.1700   26.0150 C   0  0  0  0  0  1  0  0  0  0  0  0
  -27.0060  -30.0950   24.5110 C   0  0  0  0  0  1  0  0  0  0  0  0
  -27.5690  -32.2210   25.6620 C   0  0  0  0  0  1  0  0  0  0  0  0
  -25.5950  -33.6630   24.1080 N   0  0  0  0  0  0  0  0  0  0  0  0
  -25.9280  -34.7480   23.3960 C   0  0  0  0  0  0  0  0  0  0  0  0
  -26.6010  -34.6910   22.3620 O   0  0  0  0  0  0  0  0  0  0  0  0
  -25.0010  -33.7810   24.9160 H   0  0  0  0  0  0  0  0  0  0  0  0
  -24.1990  -36.5540   23.1150 C   0  0  0  0  0  1  0  0  0  0  0  0
  -25.4360  -36.1140   23.9130 C   0  0  0  0  0  3  0  0  0  0  0  0
  -27.5590  -36.9720   24.8010 C   0  0  0  0  0  1  0  0  0  0  0  0
  -26.4670  -37.1730   23.8500 N   0  0  0  0  0  0  0  0  0  0  0  0
  -26.0580  -38.0850   24.0290 H   0  0  0  0  0  0  0  0  0  0  0  0
  -30.8510  -17.1910   19.8400 C   0  0  0  0  0  2  0  0  0  0  0  0
  -30.9150  -14.7050   20.0020 C   0  0  0  0  0  0  0  0  0  0  0  0
  -30.5580  -12.4890   18.9230 C   0  0  0  0  0  2  0  0  0  0  0  0
  -29.5450  -12.6140   17.7660 C   0  0  0  0  0  2  0  0  0  0  0  0
  -28.1020  -12.4560   18.2850 C   0  0  0  0  0  2  0  0  0  0  0  0
  -27.8270  -13.3160   19.5460 C   0  0  0  0  0  3  0  0  0  0  0  0
  -28.9520  -13.1390   20.5860 C   0  0  0  0  0  2  0  0  0  0  0  0
  -30.2150  -13.5190   19.9330 N   0  0  0  0  0  0  0  0  0  0  0  0
  -32.0290  -14.7700   19.4670 O   0  0  0  0  0  0  0  0  0  0  0  0
  -29.6790  -16.0120   21.7110 C   0  0  0  0  0  1  0  0  0  0  0  0
  -30.2950  -15.8880   20.3840 N   0  0  0  0  0  0  0  0  0  0  0  0
  -25.4970  -13.9170   20.4410 C   0  0  0  0  0  0  0  0  0  0  0  0
  -24.4490  -13.1430   20.8620 C   0  0  0  0  0  0  0  0  0  0  0  0
  -24.8940  -11.7890   20.7630 C   0  0  0  0  0  0  0  0  0  0  0  0
  -26.5130  -13.0340   20.1130 N   0  0  0  0  0  0  0  0  0  0  0  0
  -26.1590  -11.7470   20.3660 N   0  0  0  0  0  0  0  0  0  0  0  0
  -24.1680  -10.5280   20.9680 C   0  0  0  0  0  0  0  0  0  0  0  0
  -24.6100   -9.5620   21.8990 C   0  0  0  0  0  3  0  0  0  0  0  0
  -23.8830   -8.3680   22.0920 C   0  0  0  0  0  3  0  0  0  0  0  0
  -22.6990   -8.1300   21.3540 C   0  0  0  0  0  0  0  0  0  0  0  0
  -22.2760   -9.0840   20.4110 C   0  0  0  0  0  3  0  0  0  0  0  0
  -23.0040  -10.2700   20.2170 C   0  0  0  0  0  3  0  0  0  0  0  0
  -21.9440   -6.9870   21.4550 O   0  0  0  0  0  0  0  0  0  0  0  0
  -21.8600   -6.2830   22.6290 C   0  0  0  0  0  0  0  0  0  0  0  0
  -21.3360   -6.8570   23.8070 C   0  0  0  0  0  3  0  0  0  0  0  0
  -21.2030   -6.0770   24.9740 C   0  0  0  0  0  3  0  0  0  0  0  0
  -21.5840   -4.7220   24.9610 C   0  0  0  0  0  0  0  0  0  0  0  0
  -22.1020   -4.1460   23.7890 C   0  0  0  0  0  3  0  0  0  0  0  0
  -22.2370   -4.9240   22.6240 C   0  0  0  0  0  0  0  0  0  0  0  0
  -22.7150   -4.3580   21.4910 F   0  0  0  0  0  0  0  0  0  0  0  0
  -21.4500   -3.9700   26.0790 F   0  0  0  0  0  0  0  0  0  0  0  0
  -23.0790  -13.6260   21.2420 C   0  0  0  0  0  0  0  0  0  0  0  0
  -22.4100  -12.9200   22.1470 N   0  0  0  0  0  0  0  0  0  0  0  0
  -22.6140  -14.6640   20.7740 O   0  0  0  0  0  0  0  0  0  0  0  0
  -22.8000  -12.0780   22.5440 H   0  0  0  0  0  0  0  0  0  0  0  0
  -21.4950  -13.2250   22.4460 H   0  0  0  0  0  0  0  0  0  0  0  0
  -25.6640  -15.2900   20.2900 N   0  0  0  0  0  0  0  0  0  0  0  0
  -24.9160  -15.9490   20.4740 H   0  0  0  0  0  0  0  0  0  0  0  0
  -26.4980  -15.7290   19.9220 H   0  0  0  0  0  0  0  0  0  0  0  0
  1  2  1  0
  3  5  1  0
  4  1  2  0
  5  9  1  0
  5  2  2  0
  6  3  2  0
  6  4  1  0
  7  6  1  0
  9  8  1  0
 10  9  1  0
 11 12  1  0
 11 10  1  0
 12 14  1  0
 13 24  2  0
 14 19  1  0
 15 23  1  0
 15 25  1  0
 16 22  1  0
 16 18  1  0
 17 23  1  0
 18 17  1  0
 19 18  2  0
 20 21  1  0
 20 14  2  0
 21 16  2  0
 22 15  1  0
 23 13  1  0
 25 27  2  0
 26 25  1  0
 28 26  1  0
 29 38  2  0
 29 34  1  0
 30 26  1  0
 30 34  1  0
 31 30  1  0
 32 33  1  0
 32 31  1  0
 33 29  1  0
 34 35  2  0
 35 36  1  0
 37 36  2  0
 38 37  1  0
 39 13  1  0
 39 44  1  0
 39 40  1  0
 40 43  1  1
 40 41  1  0
 42 40  1  0
 44 47  1  0
 45 49  1  0
 45 44  1  0
 46 45  2  0
 49 48  1  0
 51 49  1  0
 51 52  1  0
 51 50  1  0
 53  4  1  0
 53 63  1  0
 54 63  1  0
 55 60  1  0
 56 57  1  0
 56 55  1  0
 58 57  1  0
 58 67  1  0
 58 59  1  0
 60 54  1  0
 60 59  1  0
 61 54  2  0
 63 62  1  0
 64 65  2  0
 65 84  1  0
 66 65  1  0
 66 69  1  0
 67 68  1  0
 67 64  1  0
 68 66  2  0
 69 70  1  0
 70 71  2  0
 72 75  1  0
 72 71  1  0
 73 72  2  0
 74 73  1  0
 74 69  2  0
 75 76  1  0
 76 77  1  0
 77 78  2  0
 79 78  1  0
 79 83  1  0
 80 79  2  0
 81 76  2  0
 81 80  1  0
 82 81  1  0
 84 85  1  0
 85 88  1  0
 85 87  1  0
 86 84  2  0
 89 64  1  0
 89 90  1  0
 91 89  1  0
M  ISO  4  11 101  12 101  54 100  63 100
M  END
>  <TORSDO>  (14) 
F 20

>  <SCORE>  (14) 
-13.114

>  <name>  (14) 
14

>  <ligand_id>  (14) 
14

>  <original_smiles>  (14) 
[H]c1c([H])c([H])c2c(c1[H])C([H])([H])C([H])([H])C([H])([H])C2([H])N([H])C(=O)C1([H])N(C(=O)C([H])(N([H])C(=O)C([H])(N([H])C([H])([H])[H])C([H])([H])[H])C(C([H])([H])[H])(C([H])([H])[H])C([H])([H])[H])C([H])([H])c2c([H])c(OC([H])([H])C([H])([H])N(c3c([H])c([H])c(C([H])([H])N(C(=O)N4C([H])([H])C([H])([H])C([H])([H])C([H])(n5nc(-c6c([H])c([H])c(Oc7c([H])c([H])c(F)c([H])c7F)c([H])c6[H])c(C(=O)N([H])[H])c5N([H])[H])C4([H])[H])C([H])([H])[H])c(Cl)c3[H])C([H])([H])[H])c([H])c([H])c2C1([H])[H]

>  <smiles>  (14) 
[H]c1c([H])c([H])c2c(c1[H])C([H])([H])C([H])([H])C([H])([H])C2([H])N([H])C(=O)C1([H])N(C(=O)C([H])(N([H])C(=O)C([H])(N([H])C([H])([H])[H])C([H])([H])[H])C(C([H])([H])[H])(C([H])([H])[H])C([H])([H])[H])C([H])([H])c2c([H])c(OC([H])([H])C([H])([H])N(c3c([H])c([H])c(C([H])([H])N(C(=O)N4C([H])([H])C([H])([H])C([H])([H])C([H])(n5nc(-c6c([H])c([H])c(Oc7c([H])c([H])c(F)c([H])c7F)c([H])c6[H])c(C(=O)N([H])[H])c5N([H])[H])C4([H])[H])C([H])([H])[H])c(Cl)c3[H])C([H])([H])[H])c([H])c([H])c2C1([H])[H]

$$$$
15:0:0
     RDKit          3D

 94102  0  0  1  0  0  0  0  0999 V2000
  -31.2420  -21.3850   21.3100 C   0  0  0  0  0  2  0  0  0  0  0  0
  -31.1630  -19.2380   19.9570 C   0  0  0  0  0  3  0  0  0  0  0  0
  -31.0390  -17.8410   19.8240 C   0  0  0  0  0  3  0  0  0  0  0  0
  -30.5560  -17.6710   22.1950 C   0  0  0  0  0  3  0  0  0  0  0  0
  -30.9930  -19.8730   21.2080 C   0  0  0  0  0  0  0  0  0  0  0  0
  -30.6720  -19.0730   22.3370 C   0  0  0  0  0  0  0  0  0  0  0  0
  -30.7470  -17.0360   20.9500 C   0  0  0  0  0  0  0  0  0  0  0  0
  -31.1970  -14.6960   20.1330 C   0  0  0  0  0  0  0  0  0  0  0  0
  -30.8100  -12.5710   18.9400 C   0  0  0  0  0  2  0  0  0  0  0  0
  -29.8080  -12.8200   17.7940 C   0  0  0  0  0  2  0  0  0  0  0  0
  -28.3560  -12.6940   18.2940 C   0  0  0  0  0  2  0  0  0  0  0  0
  -28.0970  -13.5080   19.5900 C   0  0  0  0  0  3  0  0  0  0  0  0
  -29.2020  -13.2320   20.6350 C   0  0  0  0  0  2  0  0  0  0  0  0
  -30.5090  -13.5280   20.0150 N   0  0  0  0  0  0  0  0  0  0  0  0
  -32.2550  -14.9070   19.5330 O   0  0  0  0  0  0  0  0  0  0  0  0
  -30.6060  -15.6150   20.9190 N   0  0  0  0  0  0  0  0  0  0  0  0
  -29.8350  -15.2480   21.4540 H   0  0  0  0  0  0  0  0  0  0  0  0
  -25.7550  -14.1390   20.4560 C   0  0  0  0  0  0  0  0  0  0  0  0
  -24.6910  -13.3750   20.8550 C   0  0  0  0  0  0  0  0  0  0  0  0
  -25.1170  -12.0160   20.7400 C   0  0  0  0  0  0  0  0  0  0  0  0
  -26.7650  -13.2450   20.1310 N   0  0  0  0  0  0  0  0  0  0  0  0
  -26.3860  -11.9600   20.3560 N   0  0  0  0  0  0  0  0  0  0  0  0
  -24.3730  -10.7630   20.9200 C   0  0  0  0  0  0  0  0  0  0  0  0
  -24.7410   -9.8210   21.9060 C   0  0  0  0  0  3  0  0  0  0  0  0
  -24.0010   -8.6310   22.0730 C   0  0  0  0  0  3  0  0  0  0  0  0
  -22.8780   -8.3740   21.2520 C   0  0  0  0  0  0  0  0  0  0  0  0
  -22.5280   -9.3040   20.2560 C   0  0  0  0  0  3  0  0  0  0  0  0
  -23.2680  -10.4860   20.0890 C   0  0  0  0  0  3  0  0  0  0  0  0
  -22.1140   -7.2350   21.3240 O   0  0  0  0  0  0  0  0  0  0  0  0
  -21.8400   -6.6280   22.5240 C   0  0  0  0  0  0  0  0  0  0  0  0
  -21.1790   -7.3080   23.5690 C   0  0  0  0  0  3  0  0  0  0  0  0
  -20.8550   -6.6260   24.7590 C   0  0  0  0  0  3  0  0  0  0  0  0
  -21.1790   -5.2630   24.9010 C   0  0  0  0  0  0  0  0  0  0  0  0
  -21.8300   -4.5820   23.8570 C   0  0  0  0  0  3  0  0  0  0  0  0
  -22.1560   -5.2620   22.6710 C   0  0  0  0  0  0  0  0  0  0  0  0
  -22.7650   -4.5960   21.6610 F   0  0  0  0  0  0  0  0  0  0  0  0
  -20.8590   -4.6040   26.0390 F   0  0  0  0  0  0  0  0  0  0  0  0
  -23.3230  -13.8700   21.2290 C   0  0  0  0  0  0  0  0  0  0  0  0
  -22.6420  -13.1690   22.1270 N   0  0  0  0  0  0  0  0  0  0  0  0
  -22.8700  -14.9110   20.7580 O   0  0  0  0  0  0  0  0  0  0  0  0
  -23.0210  -12.3250   22.5310 H   0  0  0  0  0  0  0  0  0  0  0  0
  -21.7250  -13.4830   22.4170 H   0  0  0  0  0  0  0  0  0  0  0  0
  -25.9450  -15.5120   20.3280 N   0  0  0  0  0  0  0  0  0  0  0  0
  -25.2080  -16.1830   20.5140 H   0  0  0  0  0  0  0  0  0  0  0  0
  -26.7960  -15.9430   19.9890 H   0  0  0  0  0  0  0  0  0  0  0  0
  -31.8030  -19.9670   24.4270 C   0  0  0  0  0  1  0  0  0  0  0  0
  -30.4720  -19.6650   23.7250 C   0  0  0  0  0  2  0  0  0  0  0  0
  -30.3010  -22.1710   19.1650 C   0  0  0  0  0  1  0  0  0  0  0  0
  -30.2230  -22.2460   20.6460 N   0  0  2  0  0  4  0  0  0  0  0  0
  -29.3240  -21.8650   20.9020 H   0  0  0  0  0  0  0  0  0  0  0  0
  -30.2710  -23.6400   21.1900 C   0  0  0  0  0  2  0  0  0  0  0  0
  -29.5070  -24.7190   20.3780 C   0  0  0  0  0  2  0  0  0  0  0  0
  -29.3770  -26.0600   21.1310 C   0  0  0  0  0  2  0  0  0  0  0  0
  -29.1400  -27.1160   20.2030 O   0  0  0  0  0  0  0  0  0  0  0  0
  -24.6210  -31.6770   23.2930 C   0  0  0  0  0  0  0  0  0  0  0  0
  -27.8890  -27.6770   20.2370 C   0  0  0  0  0  0  0  0  0  0  0  0
  -23.6590  -30.2210   21.5370 C   0  0  0  0  0  3  0  0  0  0  0  0
  -25.3440  -28.8920   20.1590 C   0  0  0  0  0  0  0  0  0  0  0  0
  -26.1340  -30.8550   21.4950 C   0  0  0  0  0  2  0  0  0  0  0  0
  -26.4010  -29.5220   20.8290 C   0  0  0  0  0  0  0  0  0  0  0  0
  -27.6760  -28.9190   20.8700 C   0  0  0  0  0  3  0  0  0  0  0  0
  -26.8210  -27.0470   19.5700 C   0  0  0  0  0  3  0  0  0  0  0  0
  -25.5470  -27.6500   19.5290 C   0  0  0  0  0  3  0  0  0  0  0  0
  -24.0140  -29.6100   20.1540 C   0  0  0  0  0  2  0  0  0  0  0  0
  -24.8170  -30.9320   22.1690 N   0  0  0  0  0  0  0  0  0  0  0  0
  -23.4920  -31.8160   23.7810 O   0  0  0  0  0  0  0  0  0  0  0  0
  -23.0670  -29.1060   22.4270 C   0  0  0  0  0  0  0  0  0  0  0  0
  -21.7990  -28.7450   22.1690 N   0  0  0  0  0  0  0  0  0  0  0  0
  -23.7500  -28.5640   23.3000 O   0  0  0  0  0  0  0  0  0  0  0  0
  -21.3050  -29.2420   21.4410 H   0  0  0  0  0  0  0  0  0  0  0  0
  -18.6090  -27.0580   22.2900 C   0  0  0  0  0  0  0  0  0  0  0  0
  -21.0510  -27.6910   22.8500 C   0  0  0  0  0  3  0  0  0  0  0  0
  -21.4310  -26.2960   22.3020 C   0  0  0  0  0  2  0  0  0  0  0  0
  -20.5130  -25.8220   21.1720 C   0  0  0  0  0  2  0  0  0  0  0  0
  -19.0590  -25.7560   21.6520 C   0  0  0  0  0  2  0  0  0  0  0  0
  -19.5450  -27.9740   22.8390 C   0  0  0  0  0  0  0  0  0  0  0  0
  -19.0760  -29.1870   23.3890 C   0  0  0  0  0  3  0  0  0  0  0  0
  -17.7020  -29.4890   23.3990 C   0  0  0  0  0  3  0  0  0  0  0  0
  -16.7770  -28.5730   22.8680 C   0  0  0  0  0  3  0  0  0  0  0  0
  -17.2310  -27.3590   22.3210 C   0  0  0  0  0  3  0  0  0  0  0  0
  -25.8010  -32.4110   24.0070 C   0  0  0  0  0  3  0  0  0  0  0  0
  -25.3690  -33.7880   24.2740 N   0  0  0  0  0  0  0  0  0  0  0  0
  -25.6910  -34.8460   23.5150 C   0  0  0  0  0  0  0  0  0  0  0  0
  -26.4510  -34.7680   22.5460 O   0  0  0  0  0  0  0  0  0  0  0  0
  -24.7010  -33.9160   25.0180 H   0  0  0  0  0  0  0  0  0  0  0  0
  -23.8710  -36.4940   22.9730 C   0  0  0  0  0  1  0  0  0  0  0  0
  -25.0690  -36.2030   23.8920 C   0  0  0  0  0  3  0  0  0  0  0  0
  -27.0580  -37.2640   24.8640 C   0  0  0  0  0  1  0  0  0  0  0  0
  -26.0280  -37.3280   23.8310 N   0  0  0  0  0  0  0  0  0  0  0  0
  -25.5450  -38.2170   23.9180 H   0  0  0  0  0  0  0  0  0  0  0  0
  -26.2640  -31.7000   25.3380 C   0  0  1  0  0  0  0  0  0  0  0  0
  -25.1010  -31.3860   26.3080 C   0  0  0  0  0  1  0  0  0  0  0  0
  -26.9880  -30.3700   25.0240 C   0  0  0  0  0  1  0  0  0  0  0  0
  -27.2810  -32.5940   26.0850 C   0  0  0  0  0  1  0  0  0  0  0  0
  2  5  1  0
  3  2  2  0
  3  7  1  0
  4  6  1  0
  5  1  1  0
  5  6  2  0
  6 47  1  0
  7  4  2  0
  8 16  1  0
  9 14  1  0
 10 11  1  0
 10  9  1  0
 12 11  1  0
 12 21  1  0
 12 13  1  0
 14  8  1  0
 14 13  1  0
 15  8  2  0
 16  7  1  0
 16 17  1  0
 18 19  2  0
 19 38  1  0
 20 19  1  0
 20 23  1  0
 21 22  1  0
 21 18  1  0
 22 20  2  0
 23 24  1  0
 24 25  2  0
 26 29  1  0
 26 25  1  0
 27 26  2  0
 28 27  1  0
 28 23  2  0
 29 30  1  0
 30 35  2  0
 30 31  1  0
 31 32  2  0
 32 33  1  0
 33 37  1  0
 34 33  2  0
 35 34  1  0
 36 35  1  0
 38 39  1  0
 39 42  1  0
 39 41  1  0
 40 38  2  0
 43 18  1  0
 43 44  1  0
 45 43  1  0
 47 46  1  0
 48 49  1  0
 49 50  1  1
 49 51  1  0
 49  1  1  0
 52 53  1  0
 52 51  1  0
 54 56  1  0
 54 53  1  0
 55 66  2  0
 56 61  1  0
 57 65  1  0
 57 67  1  0
 58 60  1  0
 59 65  1  0
 60 61  2  0
 60 59  1  0
 62 56  2  0
 63 62  1  0
 63 58  2  0
 64 58  1  0
 64 57  1  0
 65 55  1  0
 67 69  2  0
 68 67  1  0
 70 68  1  0
 71 80  2  0
 71 76  1  0
 72 68  1  0
 73 72  1  0
 74 75  1  0
 74 73  1  0
 75 71  1  0
 76 72  1  0
 76 77  2  0
 77 78  1  0
 79 78  2  0
 80 79  1  0
 81 55  1  0
 81 82  1  0
 81 91  1  0
 82 85  1  0
 83 87  1  0
 83 82  1  0
 84 83  2  0
 87 86  1  0
 89 87  1  0
 89 90  1  0
 89 88  1  0
 91 94  1  1
 91 92  1  0
 93 91  1  0
M  ISO  4   8 100  16 100  53 101  54 101
M  END
>  <TORSDO>  (15) 
F 22

>  <SCORE>  (15) 
-10.421

>  <name>  (15) 
15

>  <ligand_id>  (15) 
15

>  <original_smiles>  (15) 
[H]c1c([H])c([H])c2c(c1[H])C([H])([H])C([H])([H])C([H])([H])C2([H])N([H])C(=O)C1([H])N(C(=O)C([H])(N([H])C(=O)C([H])(N([H])C([H])([H])[H])C([H])([H])[H])C(C([H])([H])[H])(C([H])([H])[H])C([H])([H])[H])C([H])([H])c2c([H])c(OC([H])([H])C([H])([H])C([H])([H])[N+]([H])(C([H])([H])[H])C([H])([H])c3c([H])c([H])c(N([H])C(=O)N4C([H])([H])C([H])([H])C([H])([H])C([H])(n5nc(-c6c([H])c([H])c(Oc7c([H])c([H])c(F)c([H])c7F)c([H])c6[H])c(C(=O)N([H])[H])c5N([H])[H])C4([H])[H])c([H])c3C([H])([H])C([H])([H])[H])c([H])c([H])c2C1([H])[H]

>  <smiles>  (15) 
[H]c1c([H])c([H])c2c(c1[H])C([H])([H])C([H])([H])C([H])([H])C2([H])N([H])C(=O)C1([H])N(C(=O)C([H])(N([H])C(=O)C([H])(N([H])C([H])([H])[H])C([H])([H])[H])C(C([H])([H])[H])(C([H])([H])[H])C([H])([H])[H])C([H])([H])c2c([H])c(OC([H])([H])C([H])([H])C([H])([H])[N+]([H])(C([H])([H])[H])C([H])([H])c3c([H])c([H])c(N([H])C(=O)N4C([H])([H])C([H])([H])C([H])([H])C([H])(n5nc(-c6c([H])c([H])c(Oc7c([H])c([H])c(F)c([H])c7F)c([H])c6[H])c(C(=O)N([H])[H])c5N([H])[H])C4([H])[H])c([H])c3C([H])([H])C([H])([H])[H])c([H])c([H])c2C1([H])[H]

$$$$
16:0:0
     RDKit          3D

 95103  0  0  1  0  0  0  0  0999 V2000
  -30.9550  -21.6010   21.2370 C   0  0  0  0  0  3  0  0  0  0  0  0
  -30.6280  -22.9430   21.5020 C   0  0  0  0  0  3  0  0  0  0  0  0
  -28.3790  -22.2770   22.1180 C   0  0  0  0  0  3  0  0  0  0  0  0
  -29.9910  -20.5880   21.3940 C   0  0  0  0  0  0  0  0  0  0  0  0
  -29.3270  -23.3170   21.9270 C   0  0  0  0  0  0  0  0  0  0  0  0
  -28.7040  -20.9310   21.8480 C   0  0  0  0  0  0  0  0  0  0  0  0
  -27.7750  -19.9610   22.0280 F   0  0  0  0  0  0  0  0  0  0  0  0
  -27.6130  -24.9680   22.5850 C   0  0  0  0  0  1  0  0  0  0  0  0
  -28.9790  -24.6770   22.1460 N   0  0  0  0  0  0  0  0  0  0  0  0
  -29.6660  -25.7340   21.3990 C   0  0  0  0  0  2  0  0  0  0  0  0
  -28.9990  -26.0130   20.0400 C   0  0  0  0  0  2  0  0  0  0  0  0
  -29.5380  -27.2760   19.3470 C   0  0  0  0  0  2  0  0  0  0  0  0
  -28.6810  -27.6220   18.2580 O   0  0  0  0  0  0  0  0  0  0  0  0
  -24.5610  -31.0030   22.9720 C   0  0  0  0  0  0  0  0  0  0  0  0
  -27.4260  -28.0410   18.6200 C   0  0  0  0  0  0  0  0  0  0  0  0
  -23.3750  -29.6930   21.2370 C   0  0  0  0  0  3  0  0  0  0  0  0
  -24.8170  -28.8550   19.3050 C   0  0  0  0  0  0  0  0  0  0  0  0
  -25.6780  -30.6940   20.7710 C   0  0  0  0  0  2  0  0  0  0  0  0
  -25.9230  -29.5330   19.8330 C   0  0  0  0  0  0  0  0  0  0  0  0
  -27.2290  -29.1330   19.4920 C   0  0  0  0  0  3  0  0  0  0  0  0
  -26.3090  -27.3710   18.0830 C   0  0  0  0  0  3  0  0  0  0  0  0
  -25.0030  -27.7690   18.4300 C   0  0  0  0  0  3  0  0  0  0  0  0
  -23.4520  -29.3540   19.7220 C   0  0  0  0  0  2  0  0  0  0  0  0
  -24.5630  -30.4690   21.7180 N   0  0  0  0  0  0  0  0  0  0  0  0
  -23.5720  -30.8980   23.7090 O   0  0  0  0  0  0  0  0  0  0  0  0
  -23.1440  -28.3810   22.0200 C   0  0  0  0  0  0  0  0  0  0  0  0
  -21.9120  -27.8520   21.9440 N   0  0  0  0  0  0  0  0  0  0  0  0
  -24.0610  -27.8500   22.6500 O   0  0  0  0  0  0  0  0  0  0  0  0
  -21.2140  -28.3550   21.4130 H   0  0  0  0  0  0  0  0  0  0  0  0
  -19.1070  -25.6030   22.2910 C   0  0  0  0  0  0  0  0  0  0  0  0
  -21.4720  -26.6050   22.5660 C   0  0  0  0  0  3  0  0  0  0  0  0
  -21.9730  -25.3790   21.7690 C   0  0  0  0  0  2  0  0  0  0  0  0
  -20.9640  -24.8800   20.7310 C   0  0  0  0  0  2  0  0  0  0  0  0
  -19.6450  -24.4910   21.4060 C   0  0  0  0  0  2  0  0  0  0  0  0
  -19.9620  -26.6060   22.8210 C   0  0  0  0  0  0  0  0  0  0  0  0
  -19.4040  -27.6370   23.6080 C   0  0  0  0  0  3  0  0  0  0  0  0
  -18.0210  -27.6780   23.8670 C   0  0  0  0  0  3  0  0  0  0  0  0
  -17.1810  -26.6750   23.3520 C   0  0  0  0  0  3  0  0  0  0  0  0
  -17.7240  -25.6380   22.5730 C   0  0  0  0  0  3  0  0  0  0  0  0
  -25.7880  -31.7930   23.5290 C   0  0  0  0  0  3  0  0  0  0  0  0
  -25.3070  -33.1130   23.9560 N   0  0  0  0  0  0  0  0  0  0  0  0
  -25.4900  -34.2480   23.2660 C   0  0  0  0  0  0  0  0  0  0  0  0
  -26.1540  -34.3010   22.2260 O   0  0  0  0  0  0  0  0  0  0  0  0
  -24.7130  -33.1370   24.7710 H   0  0  0  0  0  0  0  0  0  0  0  0
  -23.5510  -35.8300   23.0270 C   0  0  0  0  0  1  0  0  0  0  0  0
  -24.8340  -35.5270   23.8170 C   0  0  0  0  0  3  0  0  0  0  0  0
  -26.8480  -36.6040   24.7180 C   0  0  0  0  0  1  0  0  0  0  0  0
  -25.7260  -36.7070   23.7890 N   0  0  0  0  0  0  0  0  0  0  0  0
  -25.2090  -37.5540   24.0100 H   0  0  0  0  0  0  0  0  0  0  0  0
  -26.5200  -31.0540   24.7150 C   0  0  1  0  0  0  0  0  0  0  0  0
  -25.5700  -30.6090   25.8500 C   0  0  0  0  0  1  0  0  0  0  0  0
  -27.2620  -29.7990   24.1990 C   0  0  0  0  0  1  0  0  0  0  0  0
  -27.5940  -31.9840   25.3290 C   0  0  0  0  0  1  0  0  0  0  0  0
  -30.3370  -19.1440   21.0410 C   0  0  0  0  0  2  0  0  0  0  0  0
  -31.5810  -18.9350   23.1890 C   0  0  0  0  0  1  0  0  0  0  0  0
  -30.6920  -18.2740   22.1980 N   0  0  2  0  0  4  0  0  0  0  0  0
  -29.8360  -18.0840   22.6980 H   0  0  0  0  0  0  0  0  0  0  0  0
  -31.2580  -16.9660   21.7570 C   0  0  0  0  0  2  0  0  0  0  0  0
  -30.1940  -15.9100   21.3520 C   0  0  0  0  0  2  0  0  0  0  0  0
  -30.6780  -14.9110   20.2790 C   0  0  0  0  0  0  0  0  0  0  0  0
  -30.3740  -12.7780   19.0580 C   0  0  0  0  0  2  0  0  0  0  0  0
  -29.3690  -12.9180   17.9000 C   0  0  0  0  0  2  0  0  0  0  0  0
  -27.9260  -12.7180   18.3990 C   0  0  0  0  0  2  0  0  0  0  0  0
  -27.6090  -13.5720   19.6550 C   0  0  0  0  0  3  0  0  0  0  0  0
  -28.7120  -13.4070   20.7230 C   0  0  0  0  0  2  0  0  0  0  0  0
  -30.0070  -13.7420   20.1060 N   0  0  0  0  0  0  0  0  0  0  0  0
  -31.6620  -15.2060   19.5910 O   0  0  0  0  0  0  0  0  0  0  0  0
  -25.2820  -14.1140   20.6170 C   0  0  0  0  0  0  0  0  0  0  0  0
  -24.2280  -13.3120   20.9650 C   0  0  0  0  0  0  0  0  0  0  0  0
  -24.6560  -11.9700   20.7230 C   0  0  0  0  0  0  0  0  0  0  0  0
  -26.2870  -13.2580   20.1940 N   0  0  0  0  0  0  0  0  0  0  0  0
  -25.9170  -11.9570   20.3110 N   0  0  0  0  0  0  0  0  0  0  0  0
  -23.9200  -10.7020   20.8040 C   0  0  0  0  0  0  0  0  0  0  0  0
  -24.3980   -9.6180   21.5730 C   0  0  0  0  0  3  0  0  0  0  0  0
  -23.6640   -8.4150   21.6470 C   0  0  0  0  0  3  0  0  0  0  0  0
  -22.4360   -8.2880   20.9540 C   0  0  0  0  0  0  0  0  0  0  0  0
  -21.9760   -9.3630   20.1730 C   0  0  0  0  0  3  0  0  0  0  0  0
  -22.7110  -10.5580   20.0940 C   0  0  0  0  0  3  0  0  0  0  0  0
  -21.6670   -7.1490   20.9480 O   0  0  0  0  0  0  0  0  0  0  0  0
  -21.6720   -6.2740   22.0040 C   0  0  0  0  0  0  0  0  0  0  0  0
  -21.3360   -6.6830   23.3130 C   0  0  0  0  0  3  0  0  0  0  0  0
  -21.2850   -5.7360   24.3550 C   0  0  0  0  0  3  0  0  0  0  0  0
  -21.5590   -4.3810   24.0900 C   0  0  0  0  0  0  0  0  0  0  0  0
  -21.8890   -3.9710   22.7870 C   0  0  0  0  0  3  0  0  0  0  0  0
  -21.9420   -4.9140   21.7460 C   0  0  0  0  0  0  0  0  0  0  0  0
  -22.2390   -4.5100   20.4880 F   0  0  0  0  0  0  0  0  0  0  0  0
  -21.5040   -3.4690   25.0900 F   0  0  0  0  0  0  0  0  0  0  0  0
  -22.8650  -13.7650   21.4060 C   0  0  0  0  0  0  0  0  0  0  0  0
  -22.2000  -12.9810   22.2460 N   0  0  0  0  0  0  0  0  0  0  0  0
  -22.4010  -14.8450   21.0430 O   0  0  0  0  0  0  0  0  0  0  0  0
  -22.5890  -12.1030   22.5610 H   0  0  0  0  0  0  0  0  0  0  0  0
  -21.2890  -13.2620   22.5820 H   0  0  0  0  0  0  0  0  0  0  0  0
  -25.4640  -15.4940   20.6070 N   0  0  0  0  0  0  0  0  0  0  0  0
  -24.7260  -16.1410   20.8630 H   0  0  0  0  0  0  0  0  0  0  0  0
  -26.2990  -15.9570   20.2710 H   0  0  0  0  0  0  0  0  0  0  0  0
  1  4  2  0
  1  2  1  0
  2  5  2  0
  4  6  1  0
  5  3  1  0
  5  9  1  0
  6  7  1  0
  6  3  2  0
  9  8  1  0
 10  9  1  0
 11 10  1  0
 12 11  1  0
 13 15  1  0
 13 12  1  0
 14 25  2  0
 15 20  1  0
 16 24  1  0
 16 26  1  0
 17 23  1  0
 17 19  1  0
 18 24  1  0
 19 18  1  0
 20 19  2  0
 21 22  1  0
 21 15  2  0
 22 17  2  0
 23 16  1  0
 24 14  1  0
 26 28  2  0
 27 26  1  0
 29 27  1  0
 30 39  2  0
 30 35  1  0
 31 27  1  0
 31 35  1  0
 32 31  1  0
 33 34  1  0
 33 32  1  0
 34 30  1  0
 35 36  2  0
 36 37  1  0
 38 37  2  0
 39 38  1  0
 40 14  1  0
 40 41  1  0
 40 50  1  0
 41 44  1  0
 42 46  1  0
 42 41  1  0
 43 42  2  0
 46 45  1  0
 48 46  1  0
 48 49  1  0
 48 47  1  0
 50 53  1  1
 50 51  1  0
 52 50  1  0
 54  4  1  0
 54 56  1  0
 56 57  1  1
 56 55  1  0
 58 56  1  0
 59 58  1  0
 60 59  1  0
 61 66  1  0
 62 63  1  0
 62 61  1  0
 64 63  1  0
 64 71  1  0
 64 65  1  0
 66 60  1  0
 66 65  1  0
 67 60  2  0
 68 69  2  0
 69 88  1  0
 70 73  1  0
 70 69  1  0
 71 72  1  0
 71 68  1  0
 72 70  2  0
 73 74  1  0
 74 75  2  0
 76 75  1  0
 77 76  2  0
 78 77  1  0
 78 73  2  0
 79 76  1  0
 79 80  1  0
 80 81  1  0
 81 82  2  0
 83 82  1  0
 83 87  1  0
 84 83  2  0
 85 80  2  0
 85 84  1  0
 86 85  1  0
 88 89  1  0
 89 91  1  0
 89 92  1  0
 90 88  2  0
 93 68  1  0
 93 94  1  0
 95 93  1  0
M  ISO  4  12 101  13 101  59 100  60 100
M  END
>  <TORSDO>  (16) 
F 24

>  <SCORE>  (16) 
-6.228

>  <name>  (16) 
16

>  <ligand_id>  (16) 
16

>  <original_smiles>  (16) 
[H]c1c([H])c([H])c2c(c1[H])C([H])([H])C([H])([H])C([H])([H])C2([H])N([H])C(=O)C1([H])N(C(=O)C([H])(N([H])C(=O)C([H])(N([H])C([H])([H])[H])C([H])([H])[H])C(C([H])([H])[H])(C([H])([H])[H])C([H])([H])[H])C([H])([H])c2c([H])c(OC([H])([H])C([H])([H])C([H])([H])N(c3c([H])c([H])c(C([H])([H])[N+]([H])(C([H])([H])[H])C([H])([H])C([H])([H])C(=O)N4C([H])([H])C([H])([H])C([H])([H])C([H])(n5nc(-c6c([H])c([H])c(Oc7c([H])c([H])c(F)c([H])c7F)c([H])c6[H])c(C(=O)N([H])[H])c5N([H])[H])C4([H])[H])c(F)c3[H])C([H])([H])[H])c([H])c([H])c2C1([H])[H]

>  <smiles>  (16) 
[H]c1c([H])c([H])c2c(c1[H])C([H])([H])C([H])([H])C([H])([H])C2([H])N([H])C(=O)C1([H])N(C(=O)C([H])(N([H])C(=O)C([H])(N([H])C([H])([H])[H])C([H])([H])[H])C(C([H])([H])[H])(C([H])([H])[H])C([H])([H])[H])C([H])([H])c2c([H])c(OC([H])([H])C([H])([H])C([H])([H])N(c3c([H])c([H])c(C([H])([H])[N+]([H])(C([H])([H])[H])C([H])([H])C([H])([H])C(=O)N4C([H])([H])C([H])([H])C([H])([H])C([H])(n5nc(-c6c([H])c([H])c(Oc7c([H])c([H])c(F)c([H])c7F)c([H])c6[H])c(C(=O)N([H])[H])c5N([H])[H])C4([H])[H])c(F)c3[H])C([H])([H])[H])c([H])c([H])c2C1([H])[H]

$$$$
17:0:0
     RDKit          3D

 91 99  0  0  1  0  0  0  0  0999 V2000
  -27.2750  -21.0580   18.5080 C   0  0  0  0  0  1  0  0  0  0  0  0
  -28.3980  -21.0830   19.4550 N   0  0  0  0  0  0  0  0  0  0  0  0
  -29.5430  -19.4250   21.0030 C   0  0  0  0  0  3  0  0  0  0  0  0
  -29.9690  -18.0960   21.3130 C   0  0  0  0  0  3  0  0  0  0  0  0
  -28.7370  -18.6330   18.9000 C   0  0  0  0  0  3  0  0  0  0  0  0
  -28.8920  -19.7530   19.7850 C   0  0  0  0  0  0  0  0  0  0  0  0
  -29.7940  -16.9760   20.4370 C   0  0  0  0  0  0  0  0  0  0  0  0
  -29.1650  -17.2980   19.2070 C   0  0  0  0  0  0  0  0  0  0  0  0
  -28.9200  -16.3170   18.3060 F   0  0  0  0  0  0  0  0  0  0  0  0
  -30.6760  -14.6000   20.0180 C   0  0  0  0  0  0  0  0  0  0  0  0
  -30.3140  -12.3990   18.8910 C   0  0  0  0  0  2  0  0  0  0  0  0
  -29.2840  -12.5490   17.7510 C   0  0  0  0  0  2  0  0  0  0  0  0
  -27.8470  -12.4000   18.2860 C   0  0  0  0  0  2  0  0  0  0  0  0
  -27.5970  -13.2480   19.5590 C   0  0  0  0  0  3  0  0  0  0  0  0
  -28.7310  -13.0650   20.5900 C   0  0  0  0  0  2  0  0  0  0  0  0
  -29.9980  -13.4070   19.9260 N   0  0  0  0  0  0  0  0  0  0  0  0
  -31.7370  -14.7660   19.4060 O   0  0  0  0  0  0  0  0  0  0  0  0
  -30.4900  -15.3860   22.2600 C   0  0  0  0  0  1  0  0  0  0  0  0
  -30.1740  -15.5960   20.8370 N   0  0  0  0  0  0  0  0  0  0  0  0
  -25.2820  -13.8720   20.4820 C   0  0  0  0  0  0  0  0  0  0  0  0
  -24.2300  -13.1080   20.9100 C   0  0  0  0  0  0  0  0  0  0  0  0
  -24.6560  -11.7490   20.7980 C   0  0  0  0  0  0  0  0  0  0  0  0
  -26.2850  -12.9790   20.1370 N   0  0  0  0  0  0  0  0  0  0  0  0
  -25.9160  -11.6950   20.3880 N   0  0  0  0  0  0  0  0  0  0  0  0
  -23.9170  -10.4980   21.0060 C   0  0  0  0  0  0  0  0  0  0  0  0
  -24.3810   -9.5030   21.8950 C   0  0  0  0  0  3  0  0  0  0  0  0
  -23.6420   -8.3170   22.0920 C   0  0  0  0  0  3  0  0  0  0  0  0
  -22.4230   -8.1140   21.4000 C   0  0  0  0  0  0  0  0  0  0  0  0
  -21.9790   -9.0980   20.4970 C   0  0  0  0  0  3  0  0  0  0  0  0
  -22.7190  -10.2750   20.2980 C   0  0  0  0  0  3  0  0  0  0  0  0
  -21.6530   -6.9800   21.5100 O   0  0  0  0  0  0  0  0  0  0  0  0
  -21.6220   -6.2400   22.6650 C   0  0  0  0  0  0  0  0  0  0  0  0
  -21.2530   -6.8080   23.9040 C   0  0  0  0  0  3  0  0  0  0  0  0
  -21.1650   -5.9970   25.0530 C   0  0  0  0  0  3  0  0  0  0  0  0
  -21.4340   -4.6190   24.9650 C   0  0  0  0  0  0  0  0  0  0  0  0
  -21.7940   -4.0490   23.7320 C   0  0  0  0  0  3  0  0  0  0  0  0
  -21.8870   -4.8570   22.5850 C   0  0  0  0  0  0  0  0  0  0  0  0
  -22.2180   -4.3010   21.3950 F   0  0  0  0  0  0  0  0  0  0  0  0
  -21.3390   -3.8370   26.0660 F   0  0  0  0  0  0  0  0  0  0  0  0
  -22.8690  -13.6040   21.3030 C   0  0  0  0  0  0  0  0  0  0  0  0
  -22.2030  -12.9110   22.2210 N   0  0  0  0  0  0  0  0  0  0  0  0
  -22.4030  -14.6380   20.8250 O   0  0  0  0  0  0  0  0  0  0  0  0
  -22.5880  -12.0770   22.6390 H   0  0  0  0  0  0  0  0  0  0  0  0
  -21.2890  -13.2240   22.5180 H   0  0  0  0  0  0  0  0  0  0  0  0
  -25.4650  -15.2450   20.3350 N   0  0  0  0  0  0  0  0  0  0  0  0
  -24.7250  -15.9100   20.5250 H   0  0  0  0  0  0  0  0  0  0  0  0
  -26.2970  -15.6720   19.9500 H   0  0  0  0  0  0  0  0  0  0  0  0
  -28.4560  -22.3010   20.3480 C   0  0  0  0  0  2  0  0  0  0  0  0
  -28.3900  -23.7640   19.6670 C   0  0  0  0  0  3  0  0  0  0  0  0
  -28.2980  -25.0450   20.6230 C   0  0  0  0  0  3  0  0  0  0  0  0
  -28.4330  -26.4360   20.1100 O   0  0  0  0  0  0  0  0  0  0  0  0
  -24.5170  -31.7120   23.1250 C   0  0  0  0  0  0  0  0  0  0  0  0
  -27.2960  -27.2500   20.0950 C   0  0  0  0  0  0  0  0  0  0  0  0
  -23.3750  -30.2780   21.4680 C   0  0  0  0  0  3  0  0  0  0  0  0
  -24.8890  -28.7800   20.0550 C   0  0  0  0  0  0  0  0  0  0  0  0
  -25.9030  -30.6870   21.3090 C   0  0  0  0  0  2  0  0  0  0  0  0
  -26.0350  -29.3120   20.6610 C   0  0  0  0  0  0  0  0  0  0  0  0
  -27.2470  -28.5620   20.6650 C   0  0  0  0  0  3  0  0  0  0  0  0
  -26.1320  -26.7640   19.4720 C   0  0  0  0  0  3  0  0  0  0  0  0
  -24.9400  -27.5140   19.4480 C   0  0  0  0  0  3  0  0  0  0  0  0
  -23.6240  -29.6130   20.0890 C   0  0  0  0  0  2  0  0  0  0  0  0
  -24.6170  -30.9130   22.0240 N   0  0  0  0  0  0  0  0  0  0  0  0
  -23.4200  -31.9460   23.6540 O   0  0  0  0  0  0  0  0  0  0  0  0
  -22.7410  -29.2380   22.4220 C   0  0  0  0  0  0  0  0  0  0  0  0
  -21.4200  -29.0230   22.2930 N   0  0  0  0  0  0  0  0  0  0  0  0
  -23.4360  -28.6260   23.2380 O   0  0  0  0  0  0  0  0  0  0  0  0
  -20.9170  -29.5700   21.6090 H   0  0  0  0  0  0  0  0  0  0  0  0
  -18.0760  -27.7280   22.7750 C   0  0  0  0  0  0  0  0  0  0  0  0
  -20.6270  -28.0550   23.0530 C   0  0  0  0  0  3  0  0  0  0  0  0
  -20.7690  -26.6310   22.4660 C   0  0  0  0  0  2  0  0  0  0  0  0
  -19.6780  -26.2880   21.4480 C   0  0  0  0  0  2  0  0  0  0  0  0
  -18.2910  -26.3890   22.0900 C   0  0  0  0  0  2  0  0  0  0  0  0
  -19.1730  -28.5170   23.2130 C   0  0  0  0  0  0  0  0  0  0  0  0
  -18.9170  -29.7700   23.8150 C   0  0  0  0  0  3  0  0  0  0  0  0
  -17.5980  -30.2320   23.9830 C   0  0  0  0  0  3  0  0  0  0  0  0
  -16.5160  -29.4410   23.5600 C   0  0  0  0  0  3  0  0  0  0  0  0
  -16.7570  -28.1910   22.9610 C   0  0  0  0  0  3  0  0  0  0  0  0
  -25.7710  -32.3840   23.7670 C   0  0  0  0  0  3  0  0  0  0  0  0
  -26.3060  -31.6220   25.0400 C   0  0  1  0  0  0  0  0  0  0  0  0
  -25.2170  -31.3400   26.1010 C   0  0  0  0  0  1  0  0  0  0  0  0
  -26.9350  -30.2670   24.6430 C   0  0  0  0  0  1  0  0  0  0  0  0
  -27.4260  -32.4490   25.7130 C   0  0  0  0  0  1  0  0  0  0  0  0
  -25.4080  -33.7680   24.1060 N   0  0  0  0  0  0  0  0  0  0  0  0
  -25.6960  -34.8400   23.3560 C   0  0  0  0  0  0  0  0  0  0  0  0
  -26.3690  -34.7740   22.3230 O   0  0  0  0  0  0  0  0  0  0  0  0
  -24.8220  -33.8930   24.9180 H   0  0  0  0  0  0  0  0  0  0  0  0
  -23.9000  -36.5650   23.0180 C   0  0  0  0  0  1  0  0  0  0  0  0
  -25.1560  -36.2050   23.8260 C   0  0  0  0  0  3  0  0  0  0  0  0
  -27.2560  -37.1650   24.6580 C   0  0  0  0  0  1  0  0  0  0  0  0
  -26.1460  -37.3000   23.7190 N   0  0  0  0  0  0  0  0  0  0  0  0
  -25.7050  -38.2040   23.8750 H   0  0  0  0  0  0  0  0  0  0  0  0
  1  2  1  0
  2  6  1  0
  2 48  1  0
  3  4  1  0
  5  8  2  0
  5  6  1  0
  6  3  2  0
  7 19  1  0
  7  4  2  0
  8  7  1  0
  9  8  1  0
 10 19  1  0
 11 16  1  0
 12 13  1  0
 12 11  1  0
 14 13  1  0
 14 23  1  0
 14 15  1  0
 16 10  1  0
 16 15  1  0
 17 10  2  0
 19 18  1  0
 20 21  2  0
 21 40  1  0
 22 21  1  0
 22 25  1  0
 23 24  1  0
 23 20  1  0
 24 22  2  0
 25 26  1  0
 26 27  2  0
 28 31  1  0
 28 27  1  0
 29 28  2  0
 30 29  1  0
 30 25  2  0
 31 32  1  0
 32 33  1  0
 33 34  2  0
 35 34  1  0
 35 39  1  0
 36 35  2  0
 37 32  2  0
 37 36  1  0
 38 37  1  0
 40 41  1  0
 41 44  1  0
 41 43  1  0
 42 40  2  0
 45 20  1  0
 45 46  1  0
 47 45  1  0
 49 48  1  0
 49 50  2  0
 51 50  1  0
 52 63  2  0
 53 51  1  0
 53 58  1  0
 54 62  1  0
 54 64  1  0
 55 61  1  0
 55 57  1  0
 56 62  1  0
 57 58  2  0
 57 56  1  0
 59 53  2  0
 60 59  1  0
 60 55  2  0
 61 54  1  0
 62 52  1  0
 64 66  2  0
 65 64  1  0
 67 65  1  0
 68 77  2  0
 68 73  1  0
 69 65  1  0
 69 73  1  0
 70 69  1  0
 71 72  1  0
 71 70  1  0
 72 68  1  0
 73 74  2  0
 74 75  1  0
 76 75  2  0
 77 76  1  0
 78 52  1  0
 78 83  1  0
 78 79  1  0
 79 82  1  1
 79 80  1  0
 81 79  1  0
 83 86  1  0
 84 88  1  0
 84 83  1  0
 85 84  2  0
 88 87  1  0
 90 88  1  0
 90 91  1  0
 90 89  1  0
M  ISO  4  10 100  19 100  50 101  51 101
M  END
>  <TORSDO>  (17) 
F 20

>  <SCORE>  (17) 
-12.737

>  <name>  (17) 
17

>  <ligand_id>  (17) 
17

>  <original_smiles>  (17) 
[H]c1c([H])c([H])c2c(c1[H])C([H])([H])C([H])([H])C([H])([H])C2([H])N([H])C(=O)C1([H])N(C(=O)C([H])(N([H])C(=O)C([H])(N([H])C([H])([H])[H])C([H])([H])[H])C(C([H])([H])[H])(C([H])([H])[H])C([H])([H])[H])C([H])([H])c2c([H])c(OC([H])([H])C([H])([H])C([H])([H])N(c3c([H])c([H])c(N(C(=O)N4C([H])([H])C([H])([H])C([H])([H])C([H])(n5nc(-c6c([H])c([H])c(Oc7c([H])c([H])c(F)c([H])c7F)c([H])c6[H])c(C(=O)N([H])[H])c5N([H])[H])C4([H])[H])C([H])([H])[H])c(F)c3[H])C([H])([H])[H])c([H])c([H])c2C1([H])[H]

>  <smiles>  (17) 
[H]c1c([H])c([H])c2c(c1[H])C([H])([H])C([H])([H])C([H])([H])C2([H])N([H])C(=O)C1([H])N(C(=O)C([H])(N([H])C(=O)C([H])(N([H])C([H])([H])[H])C([H])([H])[H])C(C([H])([H])[H])(C([H])([H])[H])C([H])([H])[H])C([H])([H])c2c([H])c(OC([H])([H])C([H])([H])C([H])([H])N(c3c([H])c([H])c(N(C(=O)N4C([H])([H])C([H])([H])C([H])([H])C([H])(n5nc(-c6c([H])c([H])c(Oc7c([H])c([H])c(F)c([H])c7F)c([H])c6[H])c(C(=O)N([H])[H])c5N([H])[H])C4([H])[H])C([H])([H])[H])c(F)c3[H])C([H])([H])[H])c([H])c([H])c2C1([H])[H]

$$$$
18:0:0
     RDKit          3D

 91 99  0  0  1  0  0  0  0  0999 V2000
  -27.2750  -21.0580   18.5080 C   0  0  0  0  0  1  0  0  0  0  0  0
  -28.3980  -21.0830   19.4550 N   0  0  0  0  0  0  0  0  0  0  0  0
  -29.5430  -19.4250   21.0030 C   0  0  0  0  0  3  0  0  0  0  0  0
  -29.9690  -18.0960   21.3130 C   0  0  0  0  0  3  0  0  0  0  0  0
  -28.7370  -18.6330   18.9000 C   0  0  0  0  0  3  0  0  0  0  0  0
  -28.8920  -19.7530   19.7850 C   0  0  0  0  0  0  0  0  0  0  0  0
  -29.7940  -16.9760   20.4370 C   0  0  0  0  0  0  0  0  0  0  0  0
  -29.1650  -17.2980   19.2070 C   0  0  0  0  0  0  0  0  0  0  0  0
  -28.9200  -16.3170   18.3060 F   0  0  0  0  0  0  0  0  0  0  0  0
  -30.6760  -14.6000   20.0180 C   0  0  0  0  0  0  0  0  0  0  0  0
  -30.3140  -12.3990   18.8910 C   0  0  0  0  0  2  0  0  0  0  0  0
  -29.2840  -12.5490   17.7510 C   0  0  0  0  0  2  0  0  0  0  0  0
  -27.8470  -12.4000   18.2860 C   0  0  0  0  0  2  0  0  0  0  0  0
  -27.5970  -13.2480   19.5590 C   0  0  0  0  0  3  0  0  0  0  0  0
  -28.7310  -13.0650   20.5900 C   0  0  0  0  0  2  0  0  0  0  0  0
  -29.9980  -13.4070   19.9260 N   0  0  0  0  0  0  0  0  0  0  0  0
  -31.7370  -14.7660   19.4060 O   0  0  0  0  0  0  0  0  0  0  0  0
  -30.4900  -15.3860   22.2600 C   0  0  0  0  0  1  0  0  0  0  0  0
  -30.1740  -15.5960   20.8370 N   0  0  0  0  0  0  0  0  0  0  0  0
  -25.2820  -13.8720   20.4820 C   0  0  0  0  0  0  0  0  0  0  0  0
  -24.2300  -13.1080   20.9100 C   0  0  0  0  0  0  0  0  0  0  0  0
  -24.6560  -11.7490   20.7980 C   0  0  0  0  0  0  0  0  0  0  0  0
  -26.2850  -12.9790   20.1370 N   0  0  0  0  0  0  0  0  0  0  0  0
  -25.9160  -11.6950   20.3880 N   0  0  0  0  0  0  0  0  0  0  0  0
  -23.9170  -10.4980   21.0060 C   0  0  0  0  0  0  0  0  0  0  0  0
  -24.3810   -9.5030   21.8950 C   0  0  0  0  0  3  0  0  0  0  0  0
  -23.6420   -8.3170   22.0920 C   0  0  0  0  0  3  0  0  0  0  0  0
  -22.4230   -8.1140   21.4000 C   0  0  0  0  0  0  0  0  0  0  0  0
  -21.9790   -9.0980   20.4970 C   0  0  0  0  0  3  0  0  0  0  0  0
  -22.7190  -10.2750   20.2980 C   0  0  0  0  0  3  0  0  0  0  0  0
  -21.6530   -6.9800   21.5100 O   0  0  0  0  0  0  0  0  0  0  0  0
  -21.6220   -6.2400   22.6650 C   0  0  0  0  0  0  0  0  0  0  0  0
  -21.2530   -6.8080   23.9040 C   0  0  0  0  0  3  0  0  0  0  0  0
  -21.1650   -5.9970   25.0530 C   0  0  0  0  0  3  0  0  0  0  0  0
  -21.4340   -4.6190   24.9650 C   0  0  0  0  0  0  0  0  0  0  0  0
  -21.7940   -4.0490   23.7320 C   0  0  0  0  0  3  0  0  0  0  0  0
  -21.8870   -4.8570   22.5850 C   0  0  0  0  0  0  0  0  0  0  0  0
  -22.2180   -4.3010   21.3950 F   0  0  0  0  0  0  0  0  0  0  0  0
  -21.3390   -3.8370   26.0660 F   0  0  0  0  0  0  0  0  0  0  0  0
  -22.8690  -13.6040   21.3030 C   0  0  0  0  0  0  0  0  0  0  0  0
  -22.2030  -12.9110   22.2210 N   0  0  0  0  0  0  0  0  0  0  0  0
  -22.4030  -14.6380   20.8250 O   0  0  0  0  0  0  0  0  0  0  0  0
  -22.5880  -12.0770   22.6390 H   0  0  0  0  0  0  0  0  0  0  0  0
  -21.2890  -13.2240   22.5180 H   0  0  0  0  0  0  0  0  0  0  0  0
  -25.4650  -15.2450   20.3350 N   0  0  0  0  0  0  0  0  0  0  0  0
  -24.7250  -15.9100   20.5250 H   0  0  0  0  0  0  0  0  0  0  0  0
  -26.2970  -15.6720   19.9500 H   0  0  0  0  0  0  0  0  0  0  0  0
  -28.4560  -22.3010   20.3480 C   0  0  0  0  0  2  0  0  0  0  0  0
  -28.3900  -23.7640   19.6670 C   0  0  0  0  0  3  0  0  0  0  0  0
  -28.2980  -25.0450   20.6230 C   0  0  0  0  0  3  0  0  0  0  0  0
  -28.4330  -26.4360   20.1100 O   0  0  0  0  0  0  0  0  0  0  0  0
  -24.5170  -31.7120   23.1250 C   0  0  0  0  0  0  0  0  0  0  0  0
  -27.2960  -27.2500   20.0950 C   0  0  0  0  0  0  0  0  0  0  0  0
  -23.3750  -30.2780   21.4680 C   0  0  0  0  0  3  0  0  0  0  0  0
  -24.8890  -28.7800   20.0550 C   0  0  0  0  0  0  0  0  0  0  0  0
  -25.9030  -30.6870   21.3090 C   0  0  0  0  0  2  0  0  0  0  0  0
  -26.0350  -29.3120   20.6610 C   0  0  0  0  0  0  0  0  0  0  0  0
  -27.2470  -28.5620   20.6650 C   0  0  0  0  0  3  0  0  0  0  0  0
  -26.1320  -26.7640   19.4720 C   0  0  0  0  0  3  0  0  0  0  0  0
  -24.9400  -27.5140   19.4480 C   0  0  0  0  0  3  0  0  0  0  0  0
  -23.6240  -29.6130   20.0890 C   0  0  0  0  0  2  0  0  0  0  0  0
  -24.6170  -30.9130   22.0240 N   0  0  0  0  0  0  0  0  0  0  0  0
  -23.4200  -31.9460   23.6540 O   0  0  0  0  0  0  0  0  0  0  0  0
  -22.7410  -29.2380   22.4220 C   0  0  0  0  0  0  0  0  0  0  0  0
  -21.4200  -29.0230   22.2930 N   0  0  0  0  0  0  0  0  0  0  0  0
  -23.4360  -28.6260   23.2380 O   0  0  0  0  0  0  0  0  0  0  0  0
  -20.9170  -29.5700   21.6090 H   0  0  0  0  0  0  0  0  0  0  0  0
  -18.0760  -27.7280   22.7750 C   0  0  0  0  0  0  0  0  0  0  0  0
  -20.6270  -28.0550   23.0530 C   0  0  0  0  0  3  0  0  0  0  0  0
  -20.7690  -26.6310   22.4660 C   0  0  0  0  0  2  0  0  0  0  0  0
  -19.6780  -26.2880   21.4480 C   0  0  0  0  0  2  0  0  0  0  0  0
  -18.2910  -26.3890   22.0900 C   0  0  0  0  0  2  0  0  0  0  0  0
  -19.1730  -28.5170   23.2130 C   0  0  0  0  0  0  0  0  0  0  0  0
  -18.9170  -29.7700   23.8150 C   0  0  0  0  0  3  0  0  0  0  0  0
  -17.5980  -30.2320   23.9830 C   0  0  0  0  0  3  0  0  0  0  0  0
  -16.5160  -29.4410   23.5600 C   0  0  0  0  0  3  0  0  0  0  0  0
  -16.7570  -28.1910   22.9610 C   0  0  0  0  0  3  0  0  0  0  0  0
  -25.7710  -32.3840   23.7670 C   0  0  0  0  0  3  0  0  0  0  0  0
  -26.3060  -31.6220   25.0400 C   0  0  1  0  0  0  0  0  0  0  0  0
  -25.2170  -31.3400   26.1010 C   0  0  0  0  0  1  0  0  0  0  0  0
  -26.9350  -30.2670   24.6430 C   0  0  0  0  0  1  0  0  0  0  0  0
  -27.4260  -32.4490   25.7130 C   0  0  0  0  0  1  0  0  0  0  0  0
  -25.4080  -33.7680   24.1060 N   0  0  0  0  0  0  0  0  0  0  0  0
  -25.6960  -34.8400   23.3560 C   0  0  0  0  0  0  0  0  0  0  0  0
  -26.3690  -34.7740   22.3230 O   0  0  0  0  0  0  0  0  0  0  0  0
  -24.8220  -33.8930   24.9180 H   0  0  0  0  0  0  0  0  0  0  0  0
  -23.9000  -36.5650   23.0180 C   0  0  0  0  0  1  0  0  0  0  0  0
  -25.1560  -36.2050   23.8260 C   0  0  0  0  0  3  0  0  0  0  0  0
  -27.2560  -37.1650   24.6580 C   0  0  0  0  0  1  0  0  0  0  0  0
  -26.1460  -37.3000   23.7190 N   0  0  0  0  0  0  0  0  0  0  0  0
  -25.7050  -38.2040   23.8750 H   0  0  0  0  0  0  0  0  0  0  0  0
  1  2  1  0
  2  6  1  0
  2 48  1  0
  3  4  1  0
  5  8  2  0
  5  6  1  0
  6  3  2  0
  7 19  1  0
  7  4  2  0
  8  7  1  0
  9  8  1  0
 10 19  1  0
 11 16  1  0
 12 13  1  0
 12 11  1  0
 14 13  1  0
 14 23  1  0
 14 15  1  0
 16 10  1  0
 16 15  1  0
 17 10  2  0
 19 18  1  0
 20 21  2  0
 21 40  1  0
 22 21  1  0
 22 25  1  0
 23 24  1  0
 23 20  1  0
 24 22  2  0
 25 26  1  0
 26 27  2  0
 28 31  1  0
 28 27  1  0
 29 28  2  0
 30 29  1  0
 30 25  2  0
 31 32  1  0
 32 33  1  0
 33 34  2  0
 35 34  1  0
 35 39  1  0
 36 35  2  0
 37 32  2  0
 37 36  1  0
 38 37  1  0
 40 41  1  0
 41 44  1  0
 41 43  1  0
 42 40  2  0
 45 20  1  0
 45 46  1  0
 47 45  1  0
 49 48  1  0
 49 50  2  0
 51 50  1  0
 52 63  2  0
 53 51  1  0
 53 58  1  0
 54 62  1  0
 54 64  1  0
 55 61  1  0
 55 57  1  0
 56 62  1  0
 57 58  2  0
 57 56  1  0
 59 53  2  0
 60 59  1  0
 60 55  2  0
 61 54  1  0
 62 52  1  0
 64 66  2  0
 65 64  1  0
 67 65  1  0
 68 77  2  0
 68 73  1  0
 69 65  1  0
 69 73  1  0
 70 69  1  0
 71 72  1  0
 71 70  1  0
 72 68  1  0
 73 74  2  0
 74 75  1  0
 76 75  2  0
 77 76  1  0
 78 52  1  0
 78 83  1  0
 78 79  1  0
 79 82  1  1
 79 80  1  0
 81 79  1  0
 83 86  1  0
 84 88  1  0
 84 83  1  0
 85 84  2  0
 88 87  1  0
 90 88  1  0
 90 91  1  0
 90 89  1  0
M  ISO  4  10 100  19 100  50 101  51 101
M  END
>  <TORSDO>  (18) 
F 20

>  <SCORE>  (18) 
-12.737

>  <name>  (18) 
18

>  <ligand_id>  (18) 
18

>  <original_smiles>  (18) 
[H]c1c([H])c([H])c2c(c1[H])C([H])([H])C([H])([H])C([H])([H])C2([H])N([H])C(=O)C1([H])N(C(=O)C([H])(N([H])C(=O)C([H])(N([H])C([H])([H])[H])C([H])([H])[H])C(C([H])([H])[H])(C([H])([H])[H])C([H])([H])[H])C([H])([H])c2c([H])c(OC([H])([H])C([H])([H])C([H])([H])N(c3c([H])c([H])c(N(C(=O)N4C([H])([H])C([H])([H])C([H])([H])C([H])(n5nc(-c6c([H])c([H])c(Oc7c([H])c([H])c(F)c([H])c7F)c([H])c6[H])c(C(=O)N([H])[H])c5N([H])[H])C4([H])[H])C([H])([H])[H])c(F)c3[H])C([H])([H])[H])c([H])c([H])c2C1([H])[H]

>  <smiles>  (18) 
[H]c1c([H])c([H])c2c(c1[H])C([H])([H])C([H])([H])C([H])([H])C2([H])N([H])C(=O)C1([H])N(C(=O)C([H])(N([H])C(=O)C([H])(N([H])C([H])([H])[H])C([H])([H])[H])C(C([H])([H])[H])(C([H])([H])[H])C([H])([H])[H])C([H])([H])c2c([H])c(OC([H])([H])C([H])([H])C([H])([H])N(c3c([H])c([H])c(N(C(=O)N4C([H])([H])C([H])([H])C([H])([H])C([H])(n5nc(-c6c([H])c([H])c(Oc7c([H])c([H])c(F)c([H])c7F)c([H])c6[H])c(C(=O)N([H])[H])c5N([H])[H])C4([H])[H])C([H])([H])[H])c(F)c3[H])C([H])([H])[H])c([H])c([H])c2C1([H])[H]

$$$$
19:0:0
     RDKit          3D

 95103  0  0  1  0  0  0  0  0999 V2000
  -28.0200  -22.5550   20.1410 N   0  0  0  0  0  0  0  0  0  0  0  0
  -29.5660  -19.4530   21.6580 C   0  0  0  0  0  3  0  0  0  0  0  0
  -30.9360  -20.2070   19.8140 C   0  0  0  0  0  3  0  0  0  0  0  0
  -28.7470  -20.5990   21.5110 C   0  0  0  0  0  3  0  0  0  0  0  0
  -30.0850  -21.3230   19.6360 C   0  0  0  0  0  3  0  0  0  0  0  0
  -30.6590  -19.2270   20.7950 C   0  0  0  0  0  0  0  0  0  0  0  0
  -28.9490  -21.5250   20.4570 C   0  0  0  0  0  0  0  0  0  0  0  0
  -31.5320  -17.9560   20.9310 C   0  0  0  0  0  2  0  0  0  0  0  0
  -31.9480  -15.6540   20.1320 C   0  0  0  0  0  0  0  0  0  0  0  0
  -31.7570  -13.2910   19.4280 C   0  0  0  0  0  2  0  0  0  0  0  0
  -30.8670  -13.2210   18.1700 C   0  0  0  0  0  2  0  0  0  0  0  0
  -29.3760  -13.1260   18.5610 C   0  0  0  0  0  2  0  0  0  0  0  0
  -28.9590  -14.1600   19.6400 C   0  0  0  0  0  3  0  0  0  0  0  0
  -29.9800  -14.2220   20.7980 C   0  0  0  0  0  2  0  0  0  0  0  0
  -31.3080  -14.4510   20.2140 N   0  0  0  0  0  0  0  0  0  0  0  0
  -33.1430  -15.7480   19.8370 O   0  0  0  0  0  0  0  0  0  0  0  0
  -30.5590  -17.1050   18.8210 C   0  0  0  0  0  1  0  0  0  0  0  0
  -31.1530  -16.7630   20.1240 N   0  0  0  0  0  0  0  0  0  0  0  0
  -26.5930  -14.8610   20.3500 C   0  0  0  0  0  0  0  0  0  0  0  0
  -25.4930  -14.1310   20.7010 C   0  0  0  0  0  0  0  0  0  0  0  0
  -25.8960  -12.7600   20.6530 C   0  0  0  0  0  0  0  0  0  0  0  0
  -27.5990  -13.9360   20.1150 N   0  0  0  0  0  0  0  0  0  0  0  0
  -27.1860  -12.6680   20.3560 N   0  0  0  0  0  0  0  0  0  0  0  0
  -25.1180  -11.5300   20.8180 C   0  0  0  0  0  0  0  0  0  0  0  0
  -25.4490  -10.5750   21.8050 C   0  0  0  0  0  3  0  0  0  0  0  0
  -24.6780   -9.4050   21.9560 C   0  0  0  0  0  3  0  0  0  0  0  0
  -23.5570   -9.1820   21.1220 C   0  0  0  0  0  0  0  0  0  0  0  0
  -23.2440  -10.1240   20.1250 C   0  0  0  0  0  3  0  0  0  0  0  0
  -24.0160  -11.2870   19.9730 C   0  0  0  0  0  3  0  0  0  0  0  0
  -22.7640   -8.0620   21.1820 O   0  0  0  0  0  0  0  0  0  0  0  0
  -22.4530   -7.4660   22.3770 C   0  0  0  0  0  0  0  0  0  0  0  0
  -21.7790   -8.1590   23.4060 C   0  0  0  0  0  3  0  0  0  0  0  0
  -21.4160   -7.4840   24.5890 C   0  0  0  0  0  3  0  0  0  0  0  0
  -21.7190   -6.1180   24.7420 C   0  0  0  0  0  0  0  0  0  0  0  0
  -22.3860   -5.4260   23.7170 C   0  0  0  0  0  3  0  0  0  0  0  0
  -22.7490   -6.0970   22.5370 C   0  0  0  0  0  0  0  0  0  0  0  0
  -23.3720   -5.4190   21.5430 F   0  0  0  0  0  0  0  0  0  0  0  0
  -21.3630   -5.4690   25.8750 F   0  0  0  0  0  0  0  0  0  0  0  0
  -24.1170  -14.6640   20.9710 C   0  0  0  0  0  0  0  0  0  0  0  0
  -23.3670  -14.0080   21.8500 N   0  0  0  0  0  0  0  0  0  0  0  0
  -23.7130  -15.6960   20.4360 O   0  0  0  0  0  0  0  0  0  0  0  0
  -23.7050  -13.1730   22.3060 H   0  0  0  0  0  0  0  0  0  0  0  0
  -22.4440  -14.3510   22.0730 H   0  0  0  0  0  0  0  0  0  0  0  0
  -26.8160  -16.2270   20.1880 N   0  0  0  0  0  0  0  0  0  0  0  0
  -26.0760  -16.9120   20.2940 H   0  0  0  0  0  0  0  0  0  0  0  0
  -27.6920  -16.6360   19.8930 H   0  0  0  0  0  0  0  0  0  0  0  0
  -26.5830  -21.1440   18.6490 C   0  0  0  0  0  1  0  0  0  0  0  0
  -27.3850  -22.4440   18.8230 C   0  0  0  0  0  2  0  0  0  0  0  0
  -27.5430  -23.5420   21.1350 C   0  0  0  0  0  3  0  0  0  0  0  0
  -25.1750  -22.5910   21.8240 C   0  0  0  0  0  1  0  0  0  0  0  0
  -25.9950  -23.6950   21.1530 C   0  0  0  0  0  2  0  0  0  0  0  0
  -28.1120  -24.9810   20.8870 C   0  0  0  0  0  2  0  0  0  0  0  0
  -29.6380  -25.1670   20.7600 C   0  0  0  0  0  2  0  0  0  0  0  0
  -30.0840  -26.6510   20.6400 C   0  0  0  0  0  2  0  0  0  0  0  0
  -29.5560  -27.2910   19.4730 O   0  0  0  0  0  0  0  0  0  0  0  0
  -25.0080  -31.4240   23.1290 C   0  0  0  0  0  0  0  0  0  0  0  0
  -28.3100  -27.8630   19.5920 C   0  0  0  0  0  0  0  0  0  0  0  0
  -24.0400  -30.0890   21.2850 C   0  0  0  0  0  3  0  0  0  0  0  0
  -25.7220  -28.9850   19.7140 C   0  0  0  0  0  0  0  0  0  0  0  0
  -26.4800  -30.8440   21.2010 C   0  0  0  0  0  2  0  0  0  0  0  0
  -26.7790  -29.5880   20.4090 C   0  0  0  0  0  0  0  0  0  0  0  0
  -28.0760  -29.0310   20.3550 C   0  0  0  0  0  3  0  0  0  0  0  0
  -27.2450  -27.2810   18.8800 C   0  0  0  0  0  3  0  0  0  0  0  0
  -25.9480  -27.8280   18.9490 C   0  0  0  0  0  3  0  0  0  0  0  0
  -24.3600  -29.6350   19.8340 C   0  0  0  0  0  2  0  0  0  0  0  0
  -25.1920  -30.7950   21.9330 N   0  0  0  0  0  0  0  0  0  0  0  0
  -23.8940  -31.4600   23.6710 O   0  0  0  0  0  0  0  0  0  0  0  0
  -23.5420  -28.8660   22.0880 C   0  0  0  0  0  0  0  0  0  0  0  0
  -22.2690  -28.4900   21.8790 N   0  0  0  0  0  0  0  0  0  0  0  0
  -24.2980  -28.2600   22.8510 O   0  0  0  0  0  0  0  0  0  0  0  0
  -21.7130  -29.0470   21.2440 H   0  0  0  0  0  0  0  0  0  0  0  0
  -19.1240  -26.7220   22.0720 C   0  0  0  0  0  0  0  0  0  0  0  0
  -21.5970  -27.3460   22.4920 C   0  0  0  0  0  3  0  0  0  0  0  0
  -21.9470  -26.0340   21.7520 C   0  0  0  0  0  2  0  0  0  0  0  0
  -20.9410  -25.6710   20.6560 C   0  0  0  0  0  2  0  0  0  0  0  0
  -19.5370  -25.5140   21.2480 C   0  0  0  0  0  2  0  0  0  0  0  0
  -20.0920  -27.5910   22.6420 C   0  0  0  0  0  0  0  0  0  0  0  0
  -19.6550  -28.7180   23.3690 C   0  0  0  0  0  3  0  0  0  0  0  0
  -18.2820  -28.9830   23.5310 C   0  0  0  0  0  3  0  0  0  0  0  0
  -17.3290  -28.1100   22.9790 C   0  0  0  0  0  3  0  0  0  0  0  0
  -17.7490  -26.9810   22.2540 C   0  0  0  0  0  3  0  0  0  0  0  0
  -26.1810  -32.1480   23.8620 C   0  0  0  0  0  3  0  0  0  0  0  0
  -25.7460  -33.5200   24.1470 N   0  0  0  0  0  0  0  0  0  0  0  0
  -26.0520  -34.5860   23.3960 C   0  0  0  0  0  0  0  0  0  0  0  0
  -26.8030  -34.5230   22.4180 O   0  0  0  0  0  0  0  0  0  0  0  0
  -25.0850  -33.6390   24.9010 H   0  0  0  0  0  0  0  0  0  0  0  0
  -24.2150  -36.2280   22.8850 C   0  0  0  0  0  1  0  0  0  0  0  0
  -25.4240  -35.9380   23.7890 C   0  0  0  0  0  3  0  0  0  0  0  0
  -27.4200  -37.0020   24.7450 C   0  0  0  0  0  1  0  0  0  0  0  0
  -26.3740  -37.0690   23.7270 N   0  0  0  0  0  0  0  0  0  0  0  0
  -25.8870  -37.9550   23.8280 H   0  0  0  0  0  0  0  0  0  0  0  0
  -26.6340  -31.4150   25.1840 C   0  0  1  0  0  0  0  0  0  0  0  0
  -25.4730  -31.1050   26.1590 C   0  0  0  0  0  1  0  0  0  0  0  0
  -27.3340  -30.0760   24.8480 C   0  0  0  0  0  1  0  0  0  0  0  0
  -27.6760  -32.2790   25.9340 C   0  0  0  0  0  1  0  0  0  0  0  0
  1  7  1  0
  1 49  1  0
  3  6  1  0
  4  2  1  0
  5  3  2  0
  5  7  1  0
  6  8  1  0
  6  2  2  0
  7  4  2  0
  9 15  1  0
 10 15  1  0
 11 12  1  0
 11 10  1  0
 13 12  1  0
 13 22  1  0
 13 14  1  0
 15 14  1  0
 16  9  2  0
 17 18  1  0
 18  9  1  0
 18  8  1  0
 19 20  2  0
 20 39  1  0
 21 20  1  0
 21 24  1  0
 22 19  1  0
 22 23  1  0
 23 21  2  0
 24 25  1  0
 25 26  2  0
 27 30  1  0
 27 26  1  0
 28 27  2  0
 29 28  1  0
 29 24  2  0
 30 31  1  0
 31 36  2  0
 31 32  1  0
 32 33  2  0
 33 34  1  0
 34 38  1  0
 35 34  2  0
 36 35  1  0
 37 36  1  0
 39 40  1  0
 40 43  1  0
 40 42  1  0
 41 39  2  0
 44 45  1  0
 44 19  1  0
 46 44  1  0
 47 48  1  0
 48  1  1  0
 49 52  1  0
 49 51  1  0
 51 50  1  0
 53 52  1  0
 54 53  1  0
 55 57  1  0
 55 54  1  0
 56 67  2  0
 57 62  1  0
 58 66  1  0
 58 68  1  0
 59 65  1  0
 59 61  1  0
 60 66  1  0
 61 60  1  0
 62 61  2  0
 63 64  1  0
 63 57  2  0
 64 59  2  0
 65 58  1  0
 66 56  1  0
 68 70  2  0
 69 68  1  0
 71 69  1  0
 72 81  2  0
 72 77  1  0
 73 69  1  0
 73 77  1  0
 74 73  1  0
 75 76  1  0
 75 74  1  0
 76 72  1  0
 77 78  2  0
 78 79  1  0
 80 79  2  0
 81 80  1  0
 82 56  1  0
 82 83  1  0
 82 92  1  0
 83 86  1  0
 84 88  1  0
 84 83  1  0
 85 84  2  0
 88 87  1  0
 90 88  1  0
 90 91  1  0
 90 89  1  0
 92 95  1  1
 92 93  1  0
 94 92  1  0
M  ISO  4   9 100  18 100  54 101  55 101
M  END
>  <TORSDO>  (19) 
F 24

>  <SCORE>  (19) 
-6.092

>  <name>  (19) 
19

>  <ligand_id>  (19) 
19

>  <original_smiles>  (19) 
[H]c1c([H])c([H])c2c(c1[H])C([H])([H])C([H])([H])C([H])([H])C2([H])N([H])C(=O)C1([H])N(C(=O)C([H])(N([H])C(=O)C([H])(N([H])C([H])([H])[H])C([H])([H])[H])C(C([H])([H])[H])(C([H])([H])[H])C([H])([H])[H])C([H])([H])c2c([H])c(OC([H])([H])C([H])([H])C([H])([H])C([H])(N(c3c([H])c([H])c(C([H])([H])N(C(=O)N4C([H])([H])C([H])([H])C([H])([H])C([H])(n5nc(-c6c([H])c([H])c(Oc7c([H])c([H])c(F)c([H])c7F)c([H])c6[H])c(C(=O)N([H])[H])c5N([H])[H])C4([H])[H])C([H])([H])[H])c([H])c3[H])C([H])([H])C([H])([H])[H])C([H])([H])C([H])([H])[H])c([H])c([H])c2C1([H])[H]

>  <smiles>  (19) 
[H]c1c([H])c([H])c2c(c1[H])C([H])([H])C([H])([H])C([H])([H])C2([H])N([H])C(=O)C1([H])N(C(=O)C([H])(N([H])C(=O)C([H])(N([H])C([H])([H])[H])C([H])([H])[H])C(C([H])([H])[H])(C([H])([H])[H])C([H])([H])[H])C([H])([H])c2c([H])c(OC([H])([H])C([H])([H])C([H])([H])C([H])(N(c3c([H])c([H])c(C([H])([H])N(C(=O)N4C([H])([H])C([H])([H])C([H])([H])C([H])(n5nc(-c6c([H])c([H])c(Oc7c([H])c([H])c(F)c([H])c7F)c([H])c6[H])c(C(=O)N([H])[H])c5N([H])[H])C4([H])[H])C([H])([H])[H])c([H])c3[H])C([H])([H])C([H])([H])[H])C([H])([H])C([H])([H])[H])c([H])c([H])c2C1([H])[H]

$$$$
20:0:0
     RDKit          3D

 93101  0  0  1  0  0  0  0  0999 V2000
  -30.4210  -19.8900   18.9170 C   0  0  0  0  0  3  0  0  0  0  0  0
  -28.5040  -19.8970   20.3940 C   0  0  0  0  0  3  0  0  0  0  0  0
  -29.4580  -17.7510   19.6550 C   0  0  0  0  0  0  0  0  0  0  0  0
  -29.4620  -20.6300   19.6550 C   0  0  0  0  0  0  0  0  0  0  0  0
  -30.4170  -18.4750   18.9130 C   0  0  0  0  0  0  0  0  0  0  0  0
  -28.5000  -18.4830   20.3960 C   0  0  0  0  0  0  0  0  0  0  0  0
  -31.3330  -17.8100   18.1700 F   0  0  0  0  0  0  0  0  0  0  0  0
  -27.5530  -17.8310   21.1120 F   0  0  0  0  0  0  0  0  0  0  0  0
  -30.7290  -22.7110   19.3770 C   0  0  0  0  0  1  0  0  0  0  0  0
  -29.4610  -22.0520   19.6860 N   0  0  0  0  0  0  0  0  0  0  0  0
  -28.2090  -22.7410   19.3260 C   0  0  0  0  0  2  0  0  0  0  0  0
  -28.0060  -24.1360   19.9850 C   0  0  0  0  0  2  0  0  0  0  0  0
  -28.4190  -25.3520   19.1130 C   0  0  0  0  0  2  0  0  0  0  0  0
  -28.2860  -26.6110   19.7910 O   0  0  0  0  0  0  0  0  0  0  0  0
  -24.5050  -31.6560   23.0750 C   0  0  0  0  0  0  0  0  0  0  0  0
  -27.0840  -27.2990   19.8120 C   0  0  0  0  0  0  0  0  0  0  0  0
  -23.2680  -30.3250   21.3970 C   0  0  0  0  0  3  0  0  0  0  0  0
  -24.6920  -28.8220   19.9060 C   0  0  0  0  0  0  0  0  0  0  0  0
  -25.7930  -30.6680   21.1830 C   0  0  0  0  0  2  0  0  0  0  0  0
  -25.8600  -29.3170   20.4980 C   0  0  0  0  0  0  0  0  0  0  0  0
  -27.0530  -28.5630   20.4480 C   0  0  0  0  0  3  0  0  0  0  0  0
  -25.8920  -26.8120   19.2270 C   0  0  0  0  0  3  0  0  0  0  0  0
  -24.7030  -27.5680   19.2700 C   0  0  0  0  0  3  0  0  0  0  0  0
  -23.4560  -29.6890   19.9920 C   0  0  0  0  0  2  0  0  0  0  0  0
  -24.5410  -30.8950   21.9440 N   0  0  0  0  0  0  0  0  0  0  0  0
  -23.4320  -31.9170   23.6350 O   0  0  0  0  0  0  0  0  0  0  0  0
  -22.6160  -29.2770   22.3280 C   0  0  0  0  0  0  0  0  0  0  0  0
  -21.2870  -29.1250   22.2190 N   0  0  0  0  0  0  0  0  0  0  0  0
  -23.3030  -28.6060   23.1030 O   0  0  0  0  0  0  0  0  0  0  0  0
  -20.7950  -29.7200   21.5660 H   0  0  0  0  0  0  0  0  0  0  0  0
  -17.8970  -27.9940   22.7510 C   0  0  0  0  0  0  0  0  0  0  0  0
  -20.4670  -28.1710   22.9640 C   0  0  0  0  0  3  0  0  0  0  0  0
  -20.5160  -26.7690   22.3140 C   0  0  0  0  0  2  0  0  0  0  0  0
  -19.3790  -26.5250   21.3170 C   0  0  0  0  0  2  0  0  0  0  0  0
  -18.0190  -26.6750   22.0060 C   0  0  0  0  0  2  0  0  0  0  0  0
  -19.0480  -28.7030   23.1870 C   0  0  0  0  0  0  0  0  0  0  0  0
  -18.8800  -29.9410   23.8460 C   0  0  0  0  0  3  0  0  0  0  0  0
  -17.5960  -30.4690   24.0710 C   0  0  0  0  0  3  0  0  0  0  0  0
  -16.4600  -29.7550   23.6520 C   0  0  0  0  0  3  0  0  0  0  0  0
  -16.6120  -28.5200   22.9980 C   0  0  0  0  0  3  0  0  0  0  0  0
  -25.8030  -32.2520   23.7040 C   0  0  0  0  0  3  0  0  0  0  0  0
  -25.5180  -33.6450   24.0720 N   0  0  0  0  0  0  0  0  0  0  0  0
  -25.8640  -34.7100   23.3380 C   0  0  0  0  0  0  0  0  0  0  0  0
  -26.5260  -34.6230   22.3010 O   0  0  0  0  0  0  0  0  0  0  0  0
  -24.9310  -33.7890   24.8810 H   0  0  0  0  0  0  0  0  0  0  0  0
  -24.1560  -36.5330   23.0420 C   0  0  0  0  0  1  0  0  0  0  0  0
  -25.3990  -36.0940   23.8330 C   0  0  0  0  0  3  0  0  0  0  0  0
  -27.5450  -36.9340   24.6750 C   0  0  0  0  0  1  0  0  0  0  0  0
  -26.4440  -37.1350   23.7360 N   0  0  0  0  0  0  0  0  0  0  0  0
  -26.0520  -38.0570   23.9000 H   0  0  0  0  0  0  0  0  0  0  0  0
  -26.3190  -31.4400   24.9560 C   0  0  1  0  0  0  0  0  0  0  0  0
  -25.2290  -31.1790   26.0210 C   0  0  0  0  0  1  0  0  0  0  0  0
  -26.8900  -30.0730   24.5180 C   0  0  0  0  0  1  0  0  0  0  0  0
  -27.4780  -32.2080   25.6370 C   0  0  0  0  0  1  0  0  0  0  0  0
  -29.3960  -16.2110   19.5720 C   0  0  0  0  0  2  0  0  0  0  0  0
  -31.0040  -14.3250   19.3240 C   0  0  0  0  0  0  0  0  0  0  0  0
  -30.4960  -12.0510   18.4900 C   0  0  0  0  0  2  0  0  0  0  0  0
  -29.4120  -12.0920   17.3940 C   0  0  0  0  0  2  0  0  0  0  0  0
  -28.0050  -12.0400   18.0170 C   0  0  0  0  0  2  0  0  0  0  0  0
  -27.8290  -13.0480   19.1810 C   0  0  0  0  0  3  0  0  0  0  0  0
  -29.0170  -12.9910   20.1700 C   0  0  0  0  0  2  0  0  0  0  0  0
  -30.2580  -13.1820   19.4040 N   0  0  0  0  0  0  0  0  0  0  0  0
  -32.0650  -14.3620   18.6930 O   0  0  0  0  0  0  0  0  0  0  0  0
  -31.5650  -16.1940   20.7710 C   0  0  0  0  0  1  0  0  0  0  0  0
  -30.5790  -15.4230   20.0080 N   0  0  0  0  0  0  0  0  0  0  0  0
  -25.6520  -13.8460   20.2840 C   0  0  0  0  0  0  0  0  0  0  0  0
  -24.5770  -13.1620   20.7810 C   0  0  0  0  0  0  0  0  0  0  0  0
  -24.8830  -11.7750   20.6210 C   0  0  0  0  0  0  0  0  0  0  0  0
  -26.5480  -12.8790   19.8560 N   0  0  0  0  0  0  0  0  0  0  0  0
  -26.1020  -11.6260   20.1190 N   0  0  0  0  0  0  0  0  0  0  0  0
  -24.0650  -10.5820   20.8630 C   0  0  0  0  0  0  0  0  0  0  0  0
  -24.4980   -9.5550   21.7300 C   0  0  0  0  0  3  0  0  0  0  0  0
  -23.6860   -8.4230   21.9590 C   0  0  0  0  0  3  0  0  0  0  0  0
  -22.4270   -8.3130   21.3230 C   0  0  0  0  0  0  0  0  0  0  0  0
  -22.0120   -9.3280   20.4410 C   0  0  0  0  0  3  0  0  0  0  0  0
  -22.8240  -10.4500   20.2100 C   0  0  0  0  0  3  0  0  0  0  0  0
  -21.5800   -7.2410   21.4680 O   0  0  0  0  0  0  0  0  0  0  0  0
  -21.5570   -6.4940   22.6180 C   0  0  0  0  0  0  0  0  0  0  0  0
  -21.2500   -7.0670   23.8720 C   0  0  0  0  0  3  0  0  0  0  0  0
  -21.1670   -6.2500   25.0170 C   0  0  0  0  0  3  0  0  0  0  0  0
  -21.3810   -4.8620   24.9110 C   0  0  0  0  0  0  0  0  0  0  0  0
  -21.6830   -4.2910   23.6630 C   0  0  0  0  0  3  0  0  0  0  0  0
  -21.7670   -5.1040   22.5190 C   0  0  0  0  0  0  0  0  0  0  0  0
  -22.0360   -4.5440   21.3150 F   0  0  0  0  0  0  0  0  0  0  0  0
  -21.2940   -4.0770   26.0100 F   0  0  0  0  0  0  0  0  0  0  0  0
  -23.2930  -13.7560   21.2860 C   0  0  0  0  0  0  0  0  0  0  0  0
  -22.6340  -13.0840   22.2230 N   0  0  0  0  0  0  0  0  0  0  0  0
  -22.8920  -14.8480   20.8840 O   0  0  0  0  0  0  0  0  0  0  0  0
  -22.9740  -12.1960   22.5650 H   0  0  0  0  0  0  0  0  0  0  0  0
  -21.7800  -13.4620   22.6070 H   0  0  0  0  0  0  0  0  0  0  0  0
  -25.9310  -15.2030   20.1370 N   0  0  0  0  0  0  0  0  0  0  0  0
  -25.2600  -15.9230   20.3780 H   0  0  0  0  0  0  0  0  0  0  0  0
  -26.7480  -15.5680   19.6650 H   0  0  0  0  0  0  0  0  0  0  0  0
  1  4  1  0
  2  6  1  0
  3  6  2  0
  4 10  1  0
  4  2  2  0
  5  1  2  0
  5  3  1  0
  6  8  1  0
  7  5  1  0
  9 10  1  0
 11 10  1  0
 11 12  1  0
 13 14  1  0
 13 12  1  0
 14 16  1  0
 15 26  2  0
 16 21  1  0
 17 25  1  0
 17 27  1  0
 18 24  1  0
 18 20  1  0
 19 25  1  0
 20 19  1  0
 21 20  2  0
 22 23  1  0
 22 16  2  0
 23 18  2  0
 24 17  1  0
 25 15  1  0
 27 29  2  0
 28 27  1  0
 30 28  1  0
 31 40  2  0
 31 36  1  0
 32 28  1  0
 32 36  1  0
 33 32  1  0
 34 35  1  0
 34 33  1  0
 35 31  1  0
 36 37  2  0
 37 38  1  0
 39 38  2  0
 40 39  1  0
 41 15  1  0
 41 42  1  0
 41 51  1  0
 42 45  1  0
 43 47  1  0
 43 42  1  0
 44 43  2  0
 47 46  1  0
 49 47  1  0
 49 50  1  0
 49 48  1  0
 51 54  1  1
 51 52  1  0
 53 51  1  0
 55  3  1  0
 55 65  1  0
 56 62  1  0
 56 65  1  0
 57 62  1  0
 58 59  1  0
 58 57  1  0
 60 59  1  0
 60 69  1  0
 60 61  1  0
 62 61  1  0
 63 56  2  0
 65 64  1  0
 66 67  2  0
 67 86  1  0
 68 67  1  0
 68 71  1  0
 69 70  1  0
 69 66  1  0
 70 68  2  0
 71 72  1  0
 72 73  2  0
 74 77  1  0
 74 73  1  0
 75 74  2  0
 76 75  1  0
 76 71  2  0
 77 78  1  0
 78 79  1  0
 79 80  2  0
 81 80  1  0
 81 85  1  0
 82 81  2  0
 83 78  2  0
 83 82  1  0
 84 83  1  0
 86 87  1  0
 87 89  1  0
 87 90  1  0
 88 86  2  0
 91 66  1  0
 91 92  1  0
 93 91  1  0
M  ISO  4  13 101  14 101  56 100  65 100
M  END
>  <TORSDO>  (20) 
F 21

>  <SCORE>  (20) 
-12.433

>  <name>  (20) 
20

>  <ligand_id>  (20) 
20

>  <original_smiles>  (20) 
[H]c1c([H])c([H])c2c(c1[H])C([H])([H])C([H])([H])C([H])([H])C2([H])N([H])C(=O)C1([H])N(C(=O)C([H])(N([H])C(=O)C([H])(N([H])C([H])([H])[H])C([H])([H])[H])C(C([H])([H])[H])(C([H])([H])[H])C([H])([H])[H])C([H])([H])c2c([H])c(OC([H])([H])C([H])([H])C([H])([H])N(c3c([H])c(F)c(C([H])([H])N(C(=O)N4C([H])([H])C([H])([H])C([H])([H])C([H])(n5nc(-c6c([H])c([H])c(Oc7c([H])c([H])c(F)c([H])c7F)c([H])c6[H])c(C(=O)N([H])[H])c5N([H])[H])C4([H])[H])C([H])([H])[H])c(F)c3[H])C([H])([H])[H])c([H])c([H])c2C1([H])[H]

>  <smiles>  (20) 
[H]c1c([H])c([H])c2c(c1[H])C([H])([H])C([H])([H])C([H])([H])C2([H])N([H])C(=O)C1([H])N(C(=O)C([H])(N([H])C(=O)C([H])(N([H])C([H])([H])[H])C([H])([H])[H])C(C([H])([H])[H])(C([H])([H])[H])C([H])([H])[H])C([H])([H])c2c([H])c(OC([H])([H])C([H])([H])C([H])([H])N(c3c([H])c(F)c(C([H])([H])N(C(=O)N4C([H])([H])C([H])([H])C([H])([H])C([H])(n5nc(-c6c([H])c([H])c(Oc7c([H])c([H])c(F)c([H])c7F)c([H])c6[H])c(C(=O)N([H])[H])c5N([H])[H])C4([H])[H])C([H])([H])[H])c(F)c3[H])C([H])([H])[H])c([H])c([H])c2C1([H])[H]

$$$$
21:0:0
     RDKit          3D

 88 96  0  0  1  0  0  0  0  0999 V2000
  -28.7460  -20.4260   21.1040 C   0  0  0  0  0  3  0  0  0  0  0  0
  -28.9770  -18.9660   21.1440 C   0  0  0  0  0  3  0  0  0  0  0  0
  -29.8950  -20.5030   19.1150 C   0  0  0  0  0  3  0  0  0  0  0  0
  -29.1940  -21.3540   20.0870 C   0  0  0  0  0  0  0  0  0  0  0  0
  -29.7200  -18.1140   20.2080 C   0  0  0  0  0  0  0  0  0  0  0  0
  -30.1400  -19.0290   19.1530 C   0  0  0  0  0  0  0  0  0  0  0  0
  -30.8390  -18.4970   18.1220 F   0  0  0  0  0  0  0  0  0  0  0  0
  -30.5820  -15.3550   19.7930 C   0  0  0  0  0  0  0  0  0  0  0  0
  -30.4610  -12.9660   18.7810 C   0  0  0  0  0  2  0  0  0  0  0  0
  -29.4100  -12.8480   17.6480 C   0  0  0  0  0  2  0  0  0  0  0  0
  -28.0110  -12.5470   18.2140 C   0  0  0  0  0  2  0  0  0  0  0  0
  -27.6930  -13.4430   19.4360 C   0  0  0  0  0  3  0  0  0  0  0  0
  -28.8530  -13.4720   20.4470 C   0  0  0  0  0  2  0  0  0  0  0  0
  -30.0300  -14.0390   19.7510 N   0  0  0  0  0  0  0  0  0  0  0  0
  -31.6880  -15.4360   19.2380 O   0  0  0  0  0  0  0  0  0  0  0  0
  -29.7370  -16.2060   21.8620 C   0  0  0  0  0  1  0  0  0  0  0  0
  -29.9430  -16.5240   20.4370 N   0  0  0  0  0  0  0  0  0  0  0  0
  -25.4280  -13.9700   20.4890 C   0  0  0  0  0  0  0  0  0  0  0  0
  -24.4080  -13.1760   20.9330 C   0  0  0  0  0  0  0  0  0  0  0  0
  -24.8540  -11.8290   20.7640 C   0  0  0  0  0  0  0  0  0  0  0  0
  -26.4240  -13.1070   20.0660 N   0  0  0  0  0  0  0  0  0  0  0  0
  -26.0970  -11.8090   20.2980 N   0  0  0  0  0  0  0  0  0  0  0  0
  -24.1410  -10.5590   20.9590 C   0  0  0  0  0  0  0  0  0  0  0  0
  -24.6060   -9.5820   21.8660 C   0  0  0  0  0  3  0  0  0  0  0  0
  -23.8910   -8.3780   22.0510 C   0  0  0  0  0  3  0  0  0  0  0  0
  -22.6970   -8.1440   21.3290 C   0  0  0  0  0  0  0  0  0  0  0  0
  -22.2500   -9.1110   20.4110 C   0  0  0  0  0  3  0  0  0  0  0  0
  -22.9660  -10.3050   20.2240 C   0  0  0  0  0  3  0  0  0  0  0  0
  -21.9500   -6.9950   21.4250 O   0  0  0  0  0  0  0  0  0  0  0  0
  -21.8460   -6.2990   22.6020 C   0  0  0  0  0  0  0  0  0  0  0  0
  -21.3370   -6.8950   23.7770 C   0  0  0  0  0  3  0  0  0  0  0  0
  -21.1840   -6.1240   24.9470 C   0  0  0  0  0  3  0  0  0  0  0  0
  -21.5300   -4.7590   24.9420 C   0  0  0  0  0  0  0  0  0  0  0  0
  -22.0320   -4.1640   23.7710 C   0  0  0  0  0  3  0  0  0  0  0  0
  -22.1870   -4.9320   22.6030 C   0  0  0  0  0  0  0  0  0  0  0  0
  -22.6500   -4.3480   21.4720 F   0  0  0  0  0  0  0  0  0  0  0  0
  -21.3760   -4.0150   26.0630 F   0  0  0  0  0  0  0  0  0  0  0  0
  -23.0560  -13.6410   21.3920 C   0  0  0  0  0  0  0  0  0  0  0  0
  -22.4280  -12.9030   22.2990 N   0  0  0  0  0  0  0  0  0  0  0  0
  -22.5690  -14.6930   20.9800 O   0  0  0  0  0  0  0  0  0  0  0  0
  -22.8370  -12.0510   22.6530 H   0  0  0  0  0  0  0  0  0  0  0  0
  -21.5220  -13.1920   22.6400 H   0  0  0  0  0  0  0  0  0  0  0  0
  -25.5840  -15.3480   20.3830 N   0  0  0  0  0  0  0  0  0  0  0  0
  -24.8460  -15.9960   20.6320 H   0  0  0  0  0  0  0  0  0  0  0  0
  -26.4030  -15.8090   20.0050 H   0  0  0  0  0  0  0  0  0  0  0  0
  -29.2140  -23.0930   20.1690 C   0  0  0  0  0  3  0  0  0  0  0  0
  -28.0730  -24.4450   20.0440 C   0  0  0  0  0  3  0  0  0  0  0  0
  -28.2860  -26.0610   20.1590 O   0  0  0  0  0  0  0  0  0  0  0  0
  -24.6780  -31.9190   23.1730 C   0  0  0  0  0  0  0  0  0  0  0  0
  -27.2470  -27.1150   20.1120 C   0  0  0  0  0  0  0  0  0  0  0  0
  -23.4760  -30.5280   21.5330 C   0  0  0  0  0  3  0  0  0  0  0  0
  -24.9220  -28.9410   20.0950 C   0  0  0  0  0  0  0  0  0  0  0  0
  -26.0350  -30.7690   21.3600 C   0  0  0  0  0  2  0  0  0  0  0  0
  -26.1090  -29.3660   20.7000 C   0  0  0  0  0  0  0  0  0  0  0  0
  -27.2670  -28.4750   20.6830 C   0  0  0  0  0  3  0  0  0  0  0  0
  -26.0270  -26.8270   19.4630 C   0  0  0  0  0  3  0  0  0  0  0  0
  -24.9010  -27.6880   19.4590 C   0  0  0  0  0  3  0  0  0  0  0  0
  -23.6940  -29.8480   20.1530 C   0  0  0  0  0  2  0  0  0  0  0  0
  -24.7520  -31.0980   22.0760 N   0  0  0  0  0  0  0  0  0  0  0  0
  -23.5920  -32.1970   23.7070 O   0  0  0  0  0  0  0  0  0  0  0  0
  -22.7980  -29.5230   22.5010 C   0  0  0  0  0  0  0  0  0  0  0  0
  -21.4710  -29.3420   22.3760 N   0  0  0  0  0  0  0  0  0  0  0  0
  -23.4730  -28.9040   23.3260 O   0  0  0  0  0  0  0  0  0  0  0  0
  -20.9800  -29.8930   21.6870 H   0  0  0  0  0  0  0  0  0  0  0  0
  -18.1020  -28.1020   22.8920 C   0  0  0  0  0  0  0  0  0  0  0  0
  -20.6590  -28.3940   23.1470 C   0  0  0  0  0  3  0  0  0  0  0  0
  -20.7720  -26.9650   22.5650 C   0  0  0  0  0  2  0  0  0  0  0  0
  -19.6700  -26.6340   21.5530 C   0  0  0  0  0  2  0  0  0  0  0  0
  -18.2900  -26.7600   22.2030 C   0  0  0  0  0  2  0  0  0  0  0  0
  -19.2130  -28.8760   23.3180 C   0  0  0  0  0  0  0  0  0  0  0  0
  -18.9830  -30.1300   23.9230 C   0  0  0  0  0  3  0  0  0  0  0  0
  -17.6730  -30.6120   24.1040 C   0  0  0  0  0  3  0  0  0  0  0  0
  -16.5750  -29.8370   23.6910 C   0  0  0  0  0  3  0  0  0  0  0  0
  -16.7910  -28.5830   23.0930 C   0  0  0  0  0  3  0  0  0  0  0  0
  -25.9530  -32.5620   23.8000 C   0  0  0  0  0  3  0  0  0  0  0  0
  -25.6330  -33.9570   24.1490 N   0  0  0  0  0  0  0  0  0  0  0  0
  -25.9300  -35.0250   23.3950 C   0  0  0  0  0  0  0  0  0  0  0  0
  -26.5670  -34.9380   22.3420 O   0  0  0  0  0  0  0  0  0  0  0  0
  -25.0710  -34.0960   24.9750 H   0  0  0  0  0  0  0  0  0  0  0  0
  -24.1630  -36.8000   23.1370 C   0  0  0  0  0  1  0  0  0  0  0  0
  -25.4460  -36.4040   23.8860 C   0  0  0  0  0  3  0  0  0  0  0  0
  -27.6010  -37.3220   24.6260 C   0  0  0  0  0  1  0  0  0  0  0  0
  -26.4570  -37.4750   23.7310 N   0  0  0  0  0  0  0  0  0  0  0  0
  -26.0420  -38.3880   23.8960 H   0  0  0  0  0  0  0  0  0  0  0  0
  -26.4700  -31.7910   25.0770 C   0  0  1  0  0  0  0  0  0  0  0  0
  -25.3720  -31.5370   26.1360 C   0  0  0  0  0  1  0  0  0  0  0  0
  -27.0760  -30.4230   24.6880 C   0  0  0  0  0  1  0  0  0  0  0  0
  -27.6060  -32.5970   25.7520 C   0  0  0  0  0  1  0  0  0  0  0  0
  1  2  1  0
  3  6  2  0
  3  4  1  0
  4 46  1  0
  4  1  2  0
  5 17  1  0
  5  2  2  0
  6  5  1  0
  7  6  1  0
  8 17  1  0
  9 14  1  0
 10 11  1  0
 10  9  1  0
 12 11  1  0
 12 21  1  0
 12 13  1  0
 14  8  1  0
 14 13  1  0
 15  8  2  0
 17 16  1  0
 18 19  2  0
 19 38  1  0
 20 19  1  0
 20 23  1  0
 21 22  1  0
 21 18  1  0
 22 20  2  0
 23 24  1  0
 24 25  2  0
 26 29  1  0
 26 25  1  0
 27 26  2  0
 28 27  1  0
 28 23  2  0
 29 30  1  0
 30 35  2  0
 30 31  1  0
 31 32  2  0
 33 32  1  0
 33 37  1  0
 34 33  2  0
 35 34  1  0
 36 35  1  0
 38 39  1  0
 39 42  1  0
 39 41  1  0
 40 38  2  0
 43 18  1  0
 43 44  1  0
 45 43  1  0
 47 48  1  0
 47 46  2  0
 49 60  2  0
 50 48  1  0
 50 55  1  0
 51 59  1  0
 51 61  1  0
 52 58  1  0
 52 54  1  0
 53 59  1  0
 54 53  1  0
 55 54  2  0
 56 50  2  0
 57 56  1  0
 57 52  2  0
 58 51  1  0
 59 49  1  0
 61 63  2  0
 62 61  1  0
 64 62  1  0
 65 74  2  0
 65 70  1  0
 66 62  1  0
 66 70  1  0
 67 66  1  0
 68 69  1  0
 68 67  1  0
 69 65  1  0
 70 71  2  0
 71 72  1  0
 73 72  2  0
 74 73  1  0
 75 49  1  0
 75 76  1  0
 75 85  1  0
 76 79  1  0
 77 81  1  0
 77 76  1  0
 78 77  2  0
 81 80  1  0
 83 81  1  0
 83 84  1  0
 83 82  1  0
 85 88  1  1
 85 86  1  0
 87 85  1  0
M  ISO  4   8 100  17 100  47 101  48 101
M  END
>  <TORSDO>  (21) 
F 18

>  <SCORE>  (21) 
-14.338

>  <name>  (21) 
21

>  <ligand_id>  (21) 
21

>  <original_smiles>  (21) 
[H]c1c([H])c([H])c2c(c1[H])C([H])([H])C([H])([H])C([H])([H])C2([H])N([H])C(=O)C1([H])N(C(=O)C([H])(N([H])C(=O)C([H])(N([H])C([H])([H])[H])C([H])([H])[H])C(C([H])([H])[H])(C([H])([H])[H])C([H])([H])[H])C([H])([H])c2c([H])c(OC([H])([H])C([H])([H])c3c([H])c([H])c(N(C(=O)N4C([H])([H])C([H])([H])C([H])([H])C([H])(n5nc(-c6c([H])c([H])c(Oc7c([H])c([H])c(F)c([H])c7F)c([H])c6[H])c(C(=O)N([H])[H])c5N([H])[H])C4([H])[H])C([H])([H])[H])c(F)c3[H])c([H])c([H])c2C1([H])[H]

>  <smiles>  (21) 
[H]c1c([H])c([H])c2c(c1[H])C([H])([H])C([H])([H])C([H])([H])C2([H])N([H])C(=O)C1([H])N(C(=O)C([H])(N([H])C(=O)C([H])(N([H])C([H])([H])[H])C([H])([H])[H])C(C([H])([H])[H])(C([H])([H])[H])C([H])([H])[H])C([H])([H])c2c([H])c(OC([H])([H])C([H])([H])c3c([H])c([H])c(N(C(=O)N4C([H])([H])C([H])([H])C([H])([H])C([H])(n5nc(-c6c([H])c([H])c(Oc7c([H])c([H])c(F)c([H])c7F)c([H])c6[H])c(C(=O)N([H])[H])c5N([H])[H])C4([H])[H])C([H])([H])[H])c(F)c3[H])c([H])c([H])c2C1([H])[H]

$$$$
22:0:0
     RDKit          3D

 92100  0  0  1  0  0  0  0  0999 V2000
  -29.0300  -20.3100   21.3600 C   0  0  0  0  0  3  0  0  0  0  0  0
  -30.1340  -20.9880   19.3530 C   0  0  0  0  0  3  0  0  0  0  0  0
  -30.1880  -18.5610   20.0190 C   0  0  0  0  0  0  0  0  0  0  0  0
  -29.2820  -21.3590   20.4270 C   0  0  0  0  0  0  0  0  0  0  0  0
  -29.4270  -18.9570   21.1530 C   0  0  0  0  0  0  0  0  0  0  0  0
  -30.5770  -19.6390   19.1530 C   0  0  0  0  0  0  0  0  0  0  0  0
  -28.9800  -18.0200   22.0230 F   0  0  0  0  0  0  0  0  0  0  0  0
  -31.5540  -19.3400   17.7550 Cl  0  0  0  0  0  0  0  0  0  0  0  0
  -27.1760  -22.4030   20.7970 C   0  0  0  0  0  1  0  0  0  0  0  0
  -28.6100  -22.6380   20.5580 N   0  0  0  0  0  0  0  0  0  0  0  0
  -28.9590  -23.9180   19.8310 C   0  0  0  0  0  3  0  0  0  0  0  0
  -28.3180  -25.2650   20.4380 C   0  0  0  0  0  3  0  0  0  0  0  0
  -28.5320  -26.6130   19.8610 O   0  0  0  0  0  0  0  0  0  0  0  0
  -24.6010  -31.6980   23.1430 C   0  0  0  0  0  0  0  0  0  0  0  0
  -27.4060  -27.4460   19.8500 C   0  0  0  0  0  0  0  0  0  0  0  0
  -23.4590  -30.3420   21.4250 C   0  0  0  0  0  3  0  0  0  0  0  0
  -24.9720  -28.9340   19.9240 C   0  0  0  0  0  0  0  0  0  0  0  0
  -25.9810  -30.7830   21.2630 C   0  0  0  0  0  2  0  0  0  0  0  0
  -26.1200  -29.4470   20.5430 C   0  0  0  0  0  0  0  0  0  0  0  0
  -27.3420  -28.7150   20.5000 C   0  0  0  0  0  3  0  0  0  0  0  0
  -26.2400  -26.9910   19.1950 C   0  0  0  0  0  3  0  0  0  0  0  0
  -25.0320  -27.7100   19.2400 C   0  0  0  0  0  3  0  0  0  0  0  0
  -23.6980  -29.7470   20.0120 C   0  0  0  0  0  2  0  0  0  0  0  0
  -24.6990  -30.9550   22.0010 N   0  0  0  0  0  0  0  0  0  0  0  0
  -23.5060  -31.9000   23.6890 O   0  0  0  0  0  0  0  0  0  0  0  0
  -22.8400  -29.2490   22.3270 C   0  0  0  0  0  0  0  0  0  0  0  0
  -21.5190  -29.0300   22.1900 N   0  0  0  0  0  0  0  0  0  0  0  0
  -23.5430  -28.6030   23.1080 O   0  0  0  0  0  0  0  0  0  0  0  0
  -21.0110  -29.6000   21.5300 H   0  0  0  0  0  0  0  0  0  0  0  0
  -18.1780  -27.7380   22.6710 C   0  0  0  0  0  0  0  0  0  0  0  0
  -20.7350  -28.0260   22.9110 C   0  0  0  0  0  3  0  0  0  0  0  0
  -20.8550  -26.6370   22.2350 C   0  0  0  0  0  2  0  0  0  0  0  0
  -19.7410  -26.3740   21.2200 C   0  0  0  0  0  2  0  0  0  0  0  0
  -18.3660  -26.4480   21.8910 C   0  0  0  0  0  2  0  0  0  0  0  0
  -19.2910  -28.4910   23.1310 C   0  0  0  0  0  0  0  0  0  0  0  0
  -19.0590  -29.7050   23.8110 C   0  0  0  0  0  3  0  0  0  0  0  0
  -17.7510  -30.1650   24.0460 C   0  0  0  0  0  3  0  0  0  0  0  0
  -16.6520  -29.4110   23.6020 C   0  0  0  0  0  3  0  0  0  0  0  0
  -16.8670  -28.1980   22.9170 C   0  0  0  0  0  3  0  0  0  0  0  0
  -25.8550  -32.3500   23.7990 C   0  0  0  0  0  3  0  0  0  0  0  0
  -26.4050  -31.5340   25.0310 C   0  0  1  0  0  0  0  0  0  0  0  0
  -25.3180  -31.1590   26.0670 C   0  0  0  0  0  1  0  0  0  0  0  0
  -27.0780  -30.2230   24.5610 C   0  0  0  0  0  1  0  0  0  0  0  0
  -27.5000  -32.3520   25.7550 C   0  0  0  0  0  1  0  0  0  0  0  0
  -25.4880  -33.7140   24.2050 N   0  0  0  0  0  0  0  0  0  0  0  0
  -25.7830  -34.8210   23.5070 C   0  0  0  0  0  0  0  0  0  0  0  0
  -26.4620  -34.8010   22.4770 O   0  0  0  0  0  0  0  0  0  0  0  0
  -24.8750  -33.8010   25.0030 H   0  0  0  0  0  0  0  0  0  0  0  0
  -23.9910  -36.5650   23.2380 C   0  0  0  0  0  1  0  0  0  0  0  0
  -25.2400  -36.1620   24.0400 C   0  0  0  0  0  3  0  0  0  0  0  0
  -27.3270  -37.0780   24.9490 C   0  0  0  0  0  1  0  0  0  0  0  0
  -26.2320  -37.2570   23.9970 N   0  0  0  0  0  0  0  0  0  0  0  0
  -25.7910  -38.1520   24.1900 H   0  0  0  0  0  0  0  0  0  0  0  0
  -30.3360  -17.0360   19.5930 C   0  0  0  0  0  2  0  0  0  0  0  0
  -31.4790  -14.8120   19.7300 C   0  0  0  0  0  0  0  0  0  0  0  0
  -31.0330  -12.5950   18.6900 C   0  0  0  0  0  2  0  0  0  0  0  0
  -30.0260  -12.7290   17.5300 C   0  0  0  0  0  2  0  0  0  0  0  0
  -28.5900  -12.6160   18.0700 C   0  0  0  0  0  2  0  0  0  0  0  0
  -28.3460  -13.5300   19.3020 C   0  0  0  0  0  3  0  0  0  0  0  0
  -29.4690  -13.3780   20.3540 C   0  0  0  0  0  2  0  0  0  0  0  0
  -30.7470  -13.6530   19.6830 N   0  0  0  0  0  0  0  0  0  0  0  0
  -32.5630  -14.8990   19.1490 O   0  0  0  0  0  0  0  0  0  0  0  0
  -31.6670  -16.2620   21.6270 C   0  0  0  0  0  1  0  0  0  0  0  0
  -30.9660  -15.9100   20.3860 N   0  0  0  0  0  0  0  0  0  0  0  0
  -26.0510  -14.2330   20.2040 C   0  0  0  0  0  0  0  0  0  0  0  0
  -24.9770  -13.5060   20.6390 C   0  0  0  0  0  0  0  0  0  0  0  0
  -25.3620  -12.1340   20.5450 C   0  0  0  0  0  0  0  0  0  0  0  0
  -27.0280  -13.3060   19.8800 N   0  0  0  0  0  0  0  0  0  0  0  0
  -26.6210  -12.0380   20.1410 N   0  0  0  0  0  0  0  0  0  0  0  0
  -24.5860  -10.9050   20.7640 C   0  0  0  0  0  0  0  0  0  0  0  0
  -24.9570   -9.9670   21.7520 C   0  0  0  0  0  3  0  0  0  0  0  0
  -24.1820   -8.8050   21.9610 C   0  0  0  0  0  3  0  0  0  0  0  0
  -23.0250   -8.5740   21.1810 C   0  0  0  0  0  0  0  0  0  0  0  0
  -22.6750   -9.5000   20.1820 C   0  0  0  0  0  3  0  0  0  0  0  0
  -23.4480  -10.6540   19.9730 C   0  0  0  0  0  3  0  0  0  0  0  0
  -22.2310   -7.4580   21.2900 O   0  0  0  0  0  0  0  0  0  0  0  0
  -22.0110   -6.8490   22.5000 C   0  0  0  0  0  0  0  0  0  0  0  0
  -21.4270   -7.5390   23.5860 C   0  0  0  0  0  3  0  0  0  0  0  0
  -21.1530   -6.8570   24.7880 C   0  0  0  0  0  3  0  0  0  0  0  0
  -21.4530   -5.4860   24.9050 C   0  0  0  0  0  0  0  0  0  0  0  0
  -22.0280   -4.7970   23.8230 C   0  0  0  0  0  3  0  0  0  0  0  0
  -22.3030   -5.4760   22.6230 C   0  0  0  0  0  0  0  0  0  0  0  0
  -22.8380   -4.8030   21.5750 F   0  0  0  0  0  0  0  0  0  0  0  0
  -21.1820   -4.8270   26.0550 F   0  0  0  0  0  0  0  0  0  0  0  0
  -23.6310  -14.0480   21.0250 C   0  0  0  0  0  0  0  0  0  0  0  0
  -22.9430  -13.3760   21.9400 N   0  0  0  0  0  0  0  0  0  0  0  0
  -23.2050  -15.1010   20.5500 O   0  0  0  0  0  0  0  0  0  0  0  0
  -23.3100  -12.5260   22.3440 H   0  0  0  0  0  0  0  0  0  0  0  0
  -22.0410  -13.7170   22.2440 H   0  0  0  0  0  0  0  0  0  0  0  0
  -26.2710  -15.5960   20.0370 N   0  0  0  0  0  0  0  0  0  0  0  0
  -25.5560  -16.2850   20.2340 H   0  0  0  0  0  0  0  0  0  0  0  0
  -27.1100  -15.9980   19.6370 H   0  0  0  0  0  0  0  0  0  0  0  0
  2  4  1  0
  3  5  2  0
  4 10  1  0
  4  1  2  0
  5  1  1  0
  5  7  1  0
  6  2  2  0
  6  3  1  0
  8  6  1  0
 10  9  1  0
 11 12  2  0
 11 10  1  0
 13 12  1  0
 14 25  2  0
 15 13  1  0
 15 20  1  0
 16 24  1  0
 16 26  1  0
 17 23  1  0
 17 19  1  0
 18 24  1  0
 19 18  1  0
 20 19  2  0
 21 22  1  0
 21 15  2  0
 22 17  2  0
 23 16  1  0
 24 14  1  0
 26 28  2  0
 27 26  1  0
 29 27  1  0
 30 39  2  0
 30 35  1  0
 31 27  1  0
 31 35  1  0
 32 31  1  0
 33 34  1  0
 33 32  1  0
 34 30  1  0
 35 36  2  0
 36 37  1  0
 38 37  2  0
 39 38  1  0
 40 14  1  0
 40 45  1  0
 40 41  1  0
 41 44  1  1
 41 42  1  0
 43 41  1  0
 45 48  1  0
 46 50  1  0
 46 45  1  0
 47 46  2  0
 50 49  1  0
 52 50  1  0
 52 53  1  0
 52 51  1  0
 54  3  1  0
 54 64  1  0
 55 64  1  0
 56 61  1  0
 57 58  1  0
 57 56  1  0
 59 58  1  0
 59 68  1  0
 59 60  1  0
 61 55  1  0
 61 60  1  0
 62 55  2  0
 64 63  1  0
 65 66  2  0
 66 85  1  0
 67 66  1  0
 67 70  1  0
 68 69  1  0
 68 65  1  0
 69 67  2  0
 70 71  1  0
 71 72  2  0
 73 76  1  0
 73 72  1  0
 74 73  2  0
 75 74  1  0
 75 70  2  0
 76 77  1  0
 77 82  2  0
 77 78  1  0
 78 79  2  0
 79 80  1  0
 80 84  1  0
 81 80  2  0
 82 81  1  0
 83 82  1  0
 85 86  1  0
 86 89  1  0
 86 88  1  0
 87 85  2  0
 90 65  1  0
 90 91  1  0
 92 90  1  0
M  ISO  4  12 101  13 101  55 100  64 100
M  END
>  <TORSDO>  (22) 
F 20

>  <SCORE>  (22) 
-10.915

>  <name>  (22) 
22

>  <ligand_id>  (22) 
22

>  <original_smiles>  (22) 
[H]c1c([H])c([H])c2c(c1[H])C([H])([H])C([H])([H])C([H])([H])C2([H])N([H])C(=O)C1([H])N(C(=O)C([H])(N([H])C(=O)C([H])(N([H])C([H])([H])[H])C([H])([H])[H])C(C([H])([H])[H])(C([H])([H])[H])C([H])([H])[H])C([H])([H])c2c([H])c(OC([H])([H])C([H])([H])N(c3c([H])c(F)c(C([H])([H])N(C(=O)N4C([H])([H])C([H])([H])C([H])([H])C([H])(n5nc(-c6c([H])c([H])c(Oc7c([H])c([H])c(F)c([H])c7F)c([H])c6[H])c(C(=O)N([H])[H])c5N([H])[H])C4([H])[H])C([H])([H])[H])c(Cl)c3[H])C([H])([H])[H])c([H])c([H])c2C1([H])[H]

>  <smiles>  (22) 
[H]c1c([H])c([H])c2c(c1[H])C([H])([H])C([H])([H])C([H])([H])C2([H])N([H])C(=O)C1([H])N(C(=O)C([H])(N([H])C(=O)C([H])(N([H])C([H])([H])[H])C([H])([H])[H])C(C([H])([H])[H])(C([H])([H])[H])C([H])([H])[H])C([H])([H])c2c([H])c(OC([H])([H])C([H])([H])N(c3c([H])c(F)c(C([H])([H])N(C(=O)N4C([H])([H])C([H])([H])C([H])([H])C([H])(n5nc(-c6c([H])c([H])c(Oc7c([H])c([H])c(F)c([H])c7F)c([H])c6[H])c(C(=O)N([H])[H])c5N([H])[H])C4([H])[H])C([H])([H])[H])c(Cl)c3[H])C([H])([H])[H])c([H])c([H])c2C1([H])[H]

$$$$
23:0:0
     RDKit          3D

 91 99  0  0  1  0  0  0  0  0999 V2000
  -28.1370  -22.3490   22.5800 C   0  0  0  0  0  1  0  0  0  0  0  0
  -29.0540  -22.2430   21.4440 N   0  0  0  0  0  0  0  0  0  0  0  0
  -30.6790  -18.9020   21.9470 C   0  0  0  0  0  3  0  0  0  0  0  0
  -29.8280  -18.9990   19.6790 C   0  0  0  0  0  3  0  0  0  0  0  0
  -30.1830  -20.2010   22.1870 C   0  0  0  0  0  3  0  0  0  0  0  0
  -29.3550  -20.3090   19.9130 C   0  0  0  0  0  3  0  0  0  0  0  0
  -30.4990  -18.2780   20.6950 C   0  0  0  0  0  0  0  0  0  0  0  0
  -29.5190  -20.9340   21.1740 C   0  0  0  0  0  0  0  0  0  0  0  0
  -31.1680  -16.9330   20.3840 C   0  0  0  0  0  2  0  0  0  0  0  0
  -30.8420  -14.5460   19.9580 C   0  0  0  0  0  0  0  0  0  0  0  0
  -30.3640  -12.3860   18.8480 C   0  0  0  0  0  2  0  0  0  0  0  0
  -29.3640  -12.5690   17.6880 C   0  0  0  0  0  2  0  0  0  0  0  0
  -27.9250  -12.3920   18.2000 C   0  0  0  0  0  2  0  0  0  0  0  0
  -27.6530  -13.2570   19.4570 C   0  0  0  0  0  3  0  0  0  0  0  0
  -28.7720  -13.0880   20.5060 C   0  0  0  0  0  2  0  0  0  0  0  0
  -30.0690  -13.4120   19.8750 N   0  0  0  0  0  0  0  0  0  0  0  0
  -31.8670  -14.6330   19.2680 O   0  0  0  0  0  0  0  0  0  0  0  0
  -29.8750  -15.5920   22.0130 C   0  0  0  0  0  1  0  0  0  0  0  0
  -30.4420  -15.6540   20.6600 N   0  0  0  0  0  0  0  0  0  0  0  0
  -25.3240  -13.8590   20.3650 C   0  0  0  0  0  0  0  0  0  0  0  0
  -24.2840  -13.0830   20.7990 C   0  0  0  0  0  0  0  0  0  0  0  0
  -24.7340  -11.7310   20.7070 C   0  0  0  0  0  0  0  0  0  0  0  0
  -26.3400  -12.9770   20.0310 N   0  0  0  0  0  0  0  0  0  0  0  0
  -25.9950  -11.6910   20.2940 N   0  0  0  0  0  0  0  0  0  0  0  0
  -24.0200  -10.4680   20.9300 C   0  0  0  0  0  0  0  0  0  0  0  0
  -24.4760   -9.5190   21.8700 C   0  0  0  0  0  3  0  0  0  0  0  0
  -23.7610   -8.3220   22.0820 C   0  0  0  0  0  3  0  0  0  0  0  0
  -22.5760   -8.0650   21.3530 C   0  0  0  0  0  0  0  0  0  0  0  0
  -22.1380   -9.0050   20.4030 C   0  0  0  0  0  3  0  0  0  0  0  0
  -22.8530  -10.1940   20.1910 C   0  0  0  0  0  3  0  0  0  0  0  0
  -21.8320   -6.9150   21.4700 O   0  0  0  0  0  0  0  0  0  0  0  0
  -21.7440   -6.2320   22.6560 C   0  0  0  0  0  0  0  0  0  0  0  0
  -21.2720   -6.8450   23.8380 C   0  0  0  0  0  3  0  0  0  0  0  0
  -21.1330   -6.0870   25.0160 C   0  0  0  0  0  3  0  0  0  0  0  0
  -21.4570   -4.7180   25.0170 C   0  0  0  0  0  0  0  0  0  0  0  0
  -21.9230   -4.1040   23.8400 C   0  0  0  0  0  3  0  0  0  0  0  0
  -22.0640   -4.8600   22.6640 C   0  0  0  0  0  0  0  0  0  0  0  0
  -22.4940   -4.2590   21.5270 F   0  0  0  0  0  0  0  0  0  0  0  0
  -21.3160   -3.9870   26.1470 F   0  0  0  0  0  0  0  0  0  0  0  0
  -22.9170  -13.5640   21.1920 C   0  0  0  0  0  0  0  0  0  0  0  0
  -22.2650  -12.8700   22.1190 N   0  0  0  0  0  0  0  0  0  0  0  0
  -22.4370  -14.5890   20.7100 O   0  0  0  0  0  0  0  0  0  0  0  0
  -22.6650  -12.0410   22.5300 H   0  0  0  0  0  0  0  0  0  0  0  0
  -21.3520  -13.1760   22.4220 H   0  0  0  0  0  0  0  0  0  0  0  0
  -25.4800  -15.2320   20.2090 N   0  0  0  0  0  0  0  0  0  0  0  0
  -24.7280  -15.8830   20.4090 H   0  0  0  0  0  0  0  0  0  0  0  0
  -26.3240  -15.6890   19.8850 H   0  0  0  0  0  0  0  0  0  0  0  0
  -28.9170  -23.1870   20.3270 C   0  0  0  0  0  2  0  0  0  0  0  0
  -28.7330  -24.6650   20.7560 C   0  0  0  0  0  2  0  0  0  0  0  0
  -28.6730  -25.6020   19.5350 C   0  0  0  0  0  2  0  0  0  0  0  0
  -28.5220  -26.9680   19.9240 O   0  0  0  0  0  0  0  0  0  0  0  0
  -24.6430  -31.9220   23.1970 C   0  0  0  0  0  0  0  0  0  0  0  0
  -27.2880  -27.5890   19.9660 C   0  0  0  0  0  0  0  0  0  0  0  0
  -23.4100  -30.5260   21.5620 C   0  0  0  0  0  3  0  0  0  0  0  0
  -24.8530  -29.0380   20.0760 C   0  0  0  0  0  0  0  0  0  0  0  0
  -25.9230  -30.9390   21.3000 C   0  0  0  0  0  2  0  0  0  0  0  0
  -26.0160  -29.5800   20.6330 C   0  0  0  0  0  0  0  0  0  0  0  0
  -27.2310  -28.8660   20.5710 C   0  0  0  0  0  3  0  0  0  0  0  0
  -26.0990  -27.0480   19.4210 C   0  0  0  0  0  3  0  0  0  0  0  0
  -24.8890  -27.7710   19.4700 C   0  0  0  0  0  3  0  0  0  0  0  0
  -23.5950  -29.8710   20.1650 C   0  0  0  0  0  2  0  0  0  0  0  0
  -24.6770  -31.1470   22.0760 N   0  0  0  0  0  0  0  0  0  0  0  0
  -23.5730  -32.1610   23.7750 O   0  0  0  0  0  0  0  0  0  0  0  0
  -22.8050  -29.4770   22.5230 C   0  0  0  0  0  0  0  0  0  0  0  0
  -21.4880  -29.2440   22.4020 N   0  0  0  0  0  0  0  0  0  0  0  0
  -23.5150  -28.8730   23.3320 O   0  0  0  0  0  0  0  0  0  0  0  0
  -20.9740  -29.7750   21.7130 H   0  0  0  0  0  0  0  0  0  0  0  0
  -18.1710  -27.8950   22.8690 C   0  0  0  0  0  0  0  0  0  0  0  0
  -20.7090  -28.2750   23.1730 C   0  0  0  0  0  3  0  0  0  0  0  0
  -20.8890  -26.8480   22.6060 C   0  0  0  0  0  2  0  0  0  0  0  0
  -19.8190  -26.4650   21.5810 C   0  0  0  0  0  2  0  0  0  0  0  0
  -18.4240  -26.5500   22.2070 C   0  0  0  0  0  2  0  0  0  0  0  0
  -19.2450  -28.7120   23.3060 C   0  0  0  0  0  0  0  0  0  0  0  0
  -18.9600  -29.9710   23.8790 C   0  0  0  0  0  3  0  0  0  0  0  0
  -17.6310  -30.4110   24.0260 C   0  0  0  0  0  3  0  0  0  0  0  0
  -16.5700  -29.5920   23.6050 C   0  0  0  0  0  3  0  0  0  0  0  0
  -16.8400  -28.3350   23.0330 C   0  0  0  0  0  3  0  0  0  0  0  0
  -25.9380  -32.5580   23.7930 C   0  0  0  0  0  3  0  0  0  0  0  0
  -25.6320  -33.9540   24.1340 N   0  0  0  0  0  0  0  0  0  0  0  0
  -25.9370  -35.0090   23.3650 C   0  0  0  0  0  0  0  0  0  0  0  0
  -26.5810  -34.9120   22.3170 O   0  0  0  0  0  0  0  0  0  0  0  0
  -25.0620  -34.1050   24.9540 H   0  0  0  0  0  0  0  0  0  0  0  0
  -24.1780  -36.7740   23.0510 C   0  0  0  0  0  1  0  0  0  0  0  0
  -25.4440  -36.3910   23.8340 C   0  0  0  0  0  3  0  0  0  0  0  0
  -27.5860  -37.2930   24.6210 C   0  0  0  0  0  1  0  0  0  0  0  0
  -26.4630  -37.4550   23.7010 N   0  0  0  0  0  0  0  0  0  0  0  0
  -26.0510  -38.3700   23.8610 H   0  0  0  0  0  0  0  0  0  0  0  0
  -26.4920  -31.7840   25.0540 C   0  0  1  0  0  0  0  0  0  0  0  0
  -25.4220  -31.5090   26.1340 C   0  0  0  0  0  1  0  0  0  0  0  0
  -27.0960  -30.4250   24.6360 C   0  0  0  0  0  1  0  0  0  0  0  0
  -27.6370  -32.5920   25.7100 C   0  0  0  0  0  1  0  0  0  0  0  0
  2  1  1  0
  3  5  1  0
  4  6  2  0
  4  7  1  0
  6  8  1  0
  7  3  2  0
  8  2  1  0
  8  5  2  0
  9 19  1  0
  9  7  1  0
 10 19  1  0
 11 16  1  0
 12 13  1  0
 12 11  1  0
 14 13  1  0
 14 23  1  0
 14 15  1  0
 16 10  1  0
 16 15  1  0
 17 10  2  0
 19 18  1  0
 20 21  2  0
 21 40  1  0
 22 21  1  0
 22 25  1  0
 23 24  1  0
 23 20  1  0
 24 22  2  0
 25 26  1  0
 26 27  2  0
 28 31  1  0
 28 27  1  0
 29 28  2  0
 30 29  1  0
 30 25  2  0
 31 32  1  0
 32 37  2  0
 32 33  1  0
 33 34  2  0
 34 35  1  0
 35 39  1  0
 36 35  2  0
 37 36  1  0
 38 37  1  0
 40 41  1  0
 41 44  1  0
 41 43  1  0
 42 40  2  0
 45 20  1  0
 45 46  1  0
 47 45  1  0
 48 49  1  0
 48  2  1  0
 50 51  1  0
 50 49  1  0
 51 53  1  0
 52 63  2  0
 53 58  1  0
 54 62  1  0
 54 64  1  0
 55 61  1  0
 55 57  1  0
 56 62  1  0
 57 56  1  0
 58 57  2  0
 59 60  1  0
 59 53  2  0
 60 55  2  0
 61 54  1  0
 62 52  1  0
 64 66  2  0
 65 64  1  0
 67 65  1  0
 68 77  2  0
 68 73  1  0
 69 65  1  0
 69 73  1  0
 70 69  1  0
 71 72  1  0
 71 70  1  0
 72 68  1  0
 73 74  2  0
 74 75  1  0
 76 75  2  0
 77 76  1  0
 78 52  1  0
 78 79  1  0
 78 88  1  0
 79 82  1  0
 80 84  1  0
 80 79  1  0
 81 80  2  0
 84 83  1  0
 86 84  1  0
 86 87  1  0
 86 85  1  0
 88 91  1  1
 88 89  1  0
 90 88  1  0
M  ISO  4  10 100  19 100  50 101  51 101
M  END
>  <TORSDO>  (23) 
F 21

>  <SCORE>  (23) 
-11.894

>  <name>  (23) 
23

>  <ligand_id>  (23) 
23

>  <original_smiles>  (23) 
[H]c1c([H])c([H])c2c(c1[H])C([H])([H])C([H])([H])C([H])([H])C2([H])N([H])C(=O)C1([H])N(C(=O)C([H])(N([H])C(=O)C([H])(N([H])C([H])([H])[H])C([H])([H])[H])C(C([H])([H])[H])(C([H])([H])[H])C([H])([H])[H])C([H])([H])c2c([H])c(OC([H])([H])C([H])([H])C([H])([H])N(c3c([H])c([H])c(C([H])([H])N(C(=O)N4C([H])([H])C([H])([H])C([H])([H])C([H])(n5nc(-c6c([H])c([H])c(Oc7c([H])c([H])c(F)c([H])c7F)c([H])c6[H])c(C(=O)N([H])[H])c5N([H])[H])C4([H])[H])C([H])([H])[H])c([H])c3[H])C([H])([H])[H])c([H])c([H])c2C1([H])[H]

>  <smiles>  (23) 
[H]c1c([H])c([H])c2c(c1[H])C([H])([H])C([H])([H])C([H])([H])C2([H])N([H])C(=O)C1([H])N(C(=O)C([H])(N([H])C(=O)C([H])(N([H])C([H])([H])[H])C([H])([H])[H])C(C([H])([H])[H])(C([H])([H])[H])C([H])([H])[H])C([H])([H])c2c([H])c(OC([H])([H])C([H])([H])C([H])([H])N(c3c([H])c([H])c(C([H])([H])N(C(=O)N4C([H])([H])C([H])([H])C([H])([H])C([H])(n5nc(-c6c([H])c([H])c(Oc7c([H])c([H])c(F)c([H])c7F)c([H])c6[H])c(C(=O)N([H])[H])c5N([H])[H])C4([H])[H])C([H])([H])[H])c([H])c3[H])C([H])([H])[H])c([H])c([H])c2C1([H])[H]

$$$$
24:0:0
     RDKit          3D

 92100  0  0  1  0  0  0  0  0999 V2000
  -30.3460  -19.2110   20.9040 C   0  0  0  0  0  3  0  0  0  0  0  0
  -28.0650  -18.4200   20.7230 C   0  0  0  0  0  3  0  0  0  0  0  0
  -29.8930  -20.5470   20.8180 C   0  0  0  0  0  3  0  0  0  0  0  0
  -27.6150  -19.7550   20.6350 C   0  0  0  0  0  3  0  0  0  0  0  0
  -29.4360  -18.1310   20.8670 C   0  0  0  0  0  0  0  0  0  0  0  0
  -28.5170  -20.8550   20.6890 C   0  0  0  0  0  0  0  0  0  0  0  0
  -26.6180  -22.4060   20.7990 C   0  0  0  0  0  1  0  0  0  0  0  0
  -28.0630  -22.2050   20.6580 N   0  0  0  0  0  0  0  0  0  0  0  0
  -28.8220  -23.2040   19.8790 C   0  0  0  0  0  2  0  0  0  0  0  0
  -28.6190  -24.6730   20.3510 C   0  0  0  0  0  2  0  0  0  0  0  0
  -29.2420  -25.7320   19.4060 C   0  0  0  0  0  2  0  0  0  0  0  0
  -29.0400  -27.0840   19.8560 O   0  0  0  0  0  0  0  0  0  0  0  0
  -24.6490  -31.6860   23.0450 C   0  0  0  0  0  0  0  0  0  0  0  0
  -27.7790  -27.6560   19.8390 C   0  0  0  0  0  0  0  0  0  0  0  0
  -23.6230  -30.2570   21.3060 C   0  0  0  0  0  3  0  0  0  0  0  0
  -25.2490  -28.9300   19.8600 C   0  0  0  0  0  0  0  0  0  0  0  0
  -26.1080  -30.8590   21.1970 C   0  0  0  0  0  2  0  0  0  0  0  0
  -26.3370  -29.5320   20.5010 C   0  0  0  0  0  0  0  0  0  0  0  0
  -27.6010  -28.9020   20.4880 C   0  0  0  0  0  3  0  0  0  0  0  0
  -26.6630  -27.0630   19.2020 C   0  0  0  0  0  3  0  0  0  0  0  0
  -25.4070  -27.6950   19.2110 C   0  0  0  0  0  3  0  0  0  0  0  0
  -23.9310  -29.6680   19.9050 C   0  0  0  0  0  2  0  0  0  0  0  0
  -24.8090  -30.9490   21.9100 N   0  0  0  0  0  0  0  0  0  0  0  0
  -23.5350  -31.8290   23.5660 O   0  0  0  0  0  0  0  0  0  0  0  0
  -23.0490  -29.1340   22.2000 C   0  0  0  0  0  0  0  0  0  0  0  0
  -21.7440  -28.8550   22.0510 N   0  0  0  0  0  0  0  0  0  0  0  0
  -23.7760  -28.5190   22.9860 O   0  0  0  0  0  0  0  0  0  0  0  0
  -21.2170  -29.4090   21.3890 H   0  0  0  0  0  0  0  0  0  0  0  0
  -18.4670  -27.3890   22.4580 C   0  0  0  0  0  0  0  0  0  0  0  0
  -20.9990  -27.8130   22.7570 C   0  0  0  0  0  3  0  0  0  0  0  0
  -21.2030  -26.4320   22.0920 C   0  0  0  0  0  2  0  0  0  0  0  0
  -20.1300  -26.1000   21.0500 C   0  0  0  0  0  2  0  0  0  0  0  0
  -18.7400  -26.1040   21.6950 C   0  0  0  0  0  2  0  0  0  0  0  0
  -19.5280  -28.2000   22.9440 C   0  0  0  0  0  0  0  0  0  0  0  0
  -19.2190  -29.4010   23.6160 C   0  0  0  0  0  3  0  0  0  0  0  0
  -17.8820  -29.7960   23.8090 C   0  0  0  0  0  3  0  0  0  0  0  0
  -16.8340  -28.9850   23.3380 C   0  0  0  0  0  3  0  0  0  0  0  0
  -17.1280  -27.7820   22.6680 C   0  0  0  0  0  3  0  0  0  0  0  0
  -25.8550  -32.4040   23.7310 C   0  0  0  0  0  3  0  0  0  0  0  0
  -25.4120  -33.7550   24.0990 N   0  0  0  0  0  0  0  0  0  0  0  0
  -25.6670  -34.8600   23.3840 C   0  0  0  0  0  0  0  0  0  0  0  0
  -26.3690  -34.8530   22.3700 O   0  0  0  0  0  0  0  0  0  0  0  0
  -24.7860  -33.8280   24.8890 H   0  0  0  0  0  0  0  0  0  0  0  0
  -23.7830  -36.4900   23.0470 C   0  0  0  0  0  1  0  0  0  0  0  0
  -25.0420  -36.1800   23.8710 C   0  0  0  0  0  3  0  0  0  0  0  0
  -27.0710  -37.2340   24.7680 C   0  0  0  0  0  1  0  0  0  0  0  0
  -25.9720  -37.3280   23.8100 N   0  0  0  0  0  0  0  0  0  0  0  0
  -25.4790  -38.2010   23.9790 H   0  0  0  0  0  0  0  0  0  0  0  0
  -26.4040  -31.6330   24.9950 C   0  0  1  0  0  0  0  0  0  0  0  0
  -25.3100  -31.2620   26.0210 C   0  0  0  0  0  1  0  0  0  0  0  0
  -27.1120  -30.3260   24.5690 C   0  0  0  0  0  1  0  0  0  0  0  0
  -27.4650  -32.4970   25.7170 C   0  0  0  0  0  1  0  0  0  0  0  0
  -29.9200  -16.6800   21.0520 C   0  0  0  0  0  2  0  0  0  0  0  0
  -30.6490  -14.6450   19.9810 C   0  0  0  0  0  0  0  0  0  0  0  0
  -30.3300  -12.4130   19.0180 C   0  0  0  0  0  2  0  0  0  0  0  0
  -29.3330  -12.5420   17.8500 C   0  0  0  0  0  2  0  0  0  0  0  0
  -27.8840  -12.4100   18.3600 C   0  0  0  0  0  2  0  0  0  0  0  0
  -27.5910  -13.2990   19.6020 C   0  0  0  0  0  3  0  0  0  0  0  0
  -28.7080  -13.1790   20.6610 C   0  0  0  0  0  2  0  0  0  0  0  0
  -29.9840  -13.4580   19.9890 N   0  0  0  0  0  0  0  0  0  0  0  0
  -31.8370  -14.7300   19.6580 O   0  0  0  0  0  0  0  0  0  0  0  0
  -29.8650  -15.7580   19.8920 N   0  0  0  0  0  0  0  0  0  0  0  0
  -25.2530  -13.9200   20.4670 C   0  0  0  0  0  0  0  0  0  0  0  0
  -24.1970  -13.1520   20.8740 C   0  0  0  0  0  0  0  0  0  0  0  0
  -24.6370  -11.7960   20.7800 C   0  0  0  0  0  0  0  0  0  0  0  0
  -26.2700  -13.0300   20.1560 N   0  0  0  0  0  0  0  0  0  0  0  0
  -25.9070  -11.7470   20.4020 N   0  0  0  0  0  0  0  0  0  0  0  0
  -23.9070  -10.5370   20.9730 C   0  0  0  0  0  0  0  0  0  0  0  0
  -24.3820   -9.5360   21.8500 C   0  0  0  0  0  3  0  0  0  0  0  0
  -23.6540   -8.3410   22.0360 C   0  0  0  0  0  3  0  0  0  0  0  0
  -22.4360   -8.1400   21.3440 C   0  0  0  0  0  0  0  0  0  0  0  0
  -21.9790   -9.1280   20.4530 C   0  0  0  0  0  3  0  0  0  0  0  0
  -22.7090  -10.3140   20.2660 C   0  0  0  0  0  3  0  0  0  0  0  0
  -21.6730   -7.0010   21.4400 O   0  0  0  0  0  0  0  0  0  0  0  0
  -21.6820   -6.2240   22.5700 C   0  0  0  0  0  0  0  0  0  0  0  0
  -21.3510   -6.7500   23.8380 C   0  0  0  0  0  3  0  0  0  0  0  0
  -21.3050   -5.8990   24.9610 C   0  0  0  0  0  3  0  0  0  0  0  0
  -21.5820   -4.5270   24.8180 C   0  0  0  0  0  0  0  0  0  0  0  0
  -21.9040   -4.0010   23.5540 C   0  0  0  0  0  3  0  0  0  0  0  0
  -21.9510   -4.8480   22.4330 C   0  0  0  0  0  0  0  0  0  0  0  0
  -22.2430   -4.3320   21.2140 F   0  0  0  0  0  0  0  0  0  0  0  0
  -21.5300   -3.7080   25.8950 F   0  0  0  0  0  0  0  0  0  0  0  0
  -22.8230  -13.6370   21.2360 C   0  0  0  0  0  0  0  0  0  0  0  0
  -22.1390  -12.9300   22.1280 N   0  0  0  0  0  0  0  0  0  0  0  0
  -22.3660  -14.6780   20.7620 O   0  0  0  0  0  0  0  0  0  0  0  0
  -22.5250  -12.0880   22.5310 H   0  0  0  0  0  0  0  0  0  0  0  0
  -21.2180  -13.2310   22.4150 H   0  0  0  0  0  0  0  0  0  0  0  0
  -25.4300  -15.2920   20.3150 N   0  0  0  0  0  0  0  0  0  0  0  0
  -24.6810  -15.9560   20.4810 H   0  0  0  0  0  0  0  0  0  0  0  0
  -26.2730  -15.7230   19.9590 H   0  0  0  0  0  0  0  0  0  0  0  0
  -28.4690  -16.7710   18.0270 C   0  0  0  0  0  1  0  0  0  0  0  0
  -29.8680  -16.4300   18.5670 C   0  0  0  0  0  2  0  0  0  0  0  0
  2  5  2  0
  3  1  2  0
  4  6  2  0
  4  2  1  0
  5  1  1  0
  5 53  1  0
  6  3  1  0
  8  6  1  0
  8  7  1  0
  9 10  1  0
  9  8  1  0
 11 12  1  0
 11 10  1  0
 13 24  2  0
 14 12  1  0
 14 19  1  0
 15 23  1  0
 15 25  1  0
 16 22  1  0
 16 18  1  0
 17 23  1  0
 18 17  1  0
 19 18  2  0
 20 21  1  0
 20 14  2  0
 21 16  2  0
 22 15  1  0
 23 13  1  0
 25 27  2  0
 26 25  1  0
 28 26  1  0
 29 38  2  0
 29 34  1  0
 30 26  1  0
 30 34  1  0
 31 30  1  0
 32 33  1  0
 32 31  1  0
 33 29  1  0
 34 35  2  0
 35 36  1  0
 37 36  2  0
 38 37  1  0
 39 13  1  0
 39 40  1  0
 39 49  1  0
 40 43  1  0
 41 45  1  0
 41 40  1  0
 42 41  2  0
 45 44  1  0
 47 45  1  0
 47 48  1  0
 47 46  1  0
 49 52  1  1
 49 50  1  0
 51 49  1  0
 54 60  1  0
 55 60  1  0
 56 57  1  0
 56 55  1  0
 58 57  1  0
 58 66  1  0
 58 59  1  0
 60 59  1  0
 61 54  2  0
 62 54  1  0
 62 53  1  0
 63 64  2  0
 64 83  1  0
 65 64  1  0
 65 68  1  0
 66 67  1  0
 66 63  1  0
 67 65  2  0
 68 69  1  0
 69 70  2  0
 71 74  1  0
 71 70  1  0
 72 71  2  0
 73 72  1  0
 73 68  2  0
 74 75  1  0
 75 76  1  0
 76 77  2  0
 78 77  1  0
 78 82  1  0
 79 78  2  0
 80 75  2  0
 80 79  1  0
 81 80  1  0
 83 84  1  0
 84 87  1  0
 84 86  1  0
 85 83  2  0
 88 63  1  0
 88 89  1  0
 90 88  1  0
 91 92  1  0
 92 62  1  0
M  ISO  4  11 101  12 101  54 100  62 100
M  END
>  <TORSDO>  (24) 
F 22

>  <SCORE>  (24) 
-10.625

>  <name>  (24) 
24

>  <ligand_id>  (24) 
24

>  <original_smiles>  (24) 
[H]c1c([H])c([H])c2c(c1[H])C([H])([H])C([H])([H])C([H])([H])C2([H])N([H])C(=O)C1([H])N(C(=O)C([H])(N([H])C(=O)C([H])(N([H])C([H])([H])[H])C([H])([H])[H])C(C([H])([H])[H])(C([H])([H])[H])C([H])([H])[H])C([H])([H])c2c([H])c(OC([H])([H])C([H])([H])C([H])([H])N(c3c([H])c([H])c(C([H])([H])N(C(=O)N4C([H])([H])C([H])([H])C([H])([H])C([H])(n5nc(-c6c([H])c([H])c(Oc7c([H])c([H])c(F)c([H])c7F)c([H])c6[H])c(C(=O)N([H])[H])c5N([H])[H])C4([H])[H])C([H])([H])C([H])([H])[H])c([H])c3[H])C([H])([H])[H])c([H])c([H])c2C1([H])[H]

>  <smiles>  (24) 
[H]c1c([H])c([H])c2c(c1[H])C([H])([H])C([H])([H])C([H])([H])C2([H])N([H])C(=O)C1([H])N(C(=O)C([H])(N([H])C(=O)C([H])(N([H])C([H])([H])[H])C([H])([H])[H])C(C([H])([H])[H])(C([H])([H])[H])C([H])([H])[H])C([H])([H])c2c([H])c(OC([H])([H])C([H])([H])C([H])([H])N(c3c([H])c([H])c(C([H])([H])N(C(=O)N4C([H])([H])C([H])([H])C([H])([H])C([H])(n5nc(-c6c([H])c([H])c(Oc7c([H])c([H])c(F)c([H])c7F)c([H])c6[H])c(C(=O)N([H])[H])c5N([H])[H])C4([H])[H])C([H])([H])C([H])([H])[H])c([H])c3[H])C([H])([H])[H])c([H])c([H])c2C1([H])[H]

$$$$
25:0:0
     RDKit          3D

 91 99  0  0  1  0  0  0  0  0999 V2000
  -29.8850  -21.7980   18.2530 C   0  0  0  0  0  1  0  0  0  0  0  0
  -29.7610  -21.4600   19.6750 N   0  0  0  0  0  0  0  0  0  0  0  0
  -29.1350  -19.3740   20.9770 C   0  0  0  0  0  3  0  0  0  0  0  0
  -29.1970  -17.9540   21.1470 C   0  0  0  0  0  3  0  0  0  0  0  0
  -30.6390  -19.1810   19.1240 C   0  0  0  0  0  3  0  0  0  0  0  0
  -29.8420  -20.0380   19.9400 C   0  0  0  0  0  0  0  0  0  0  0  0
  -29.9710  -17.1040   20.3060 C   0  0  0  0  0  0  0  0  0  0  0  0
  -30.6980  -17.7660   19.2790 C   0  0  0  0  0  0  0  0  0  0  0  0
  -31.4390  -17.0630   18.3900 F   0  0  0  0  0  0  0  0  0  0  0  0
  -30.6520  -14.6020   20.0450 C   0  0  0  0  0  0  0  0  0  0  0  0
  -30.3550  -12.4030   18.9310 C   0  0  0  0  0  2  0  0  0  0  0  0
  -29.3570  -12.6100   17.7720 C   0  0  0  0  0  2  0  0  0  0  0  0
  -27.9040  -12.4500   18.2630 C   0  0  0  0  0  2  0  0  0  0  0  0
  -27.6230  -13.2550   19.5590 C   0  0  0  0  0  3  0  0  0  0  0  0
  -28.7350  -13.0460   20.6110 C   0  0  0  0  0  2  0  0  0  0  0  0
  -30.0210  -13.3890   19.9810 N   0  0  0  0  0  0  0  0  0  0  0  0
  -31.7970  -14.7430   19.6120 O   0  0  0  0  0  0  0  0  0  0  0  0
  -29.8950  -15.6510   20.4990 N   0  0  0  0  0  0  0  0  0  0  0  0
  -29.0510  -15.3430   20.9570 H   0  0  0  0  0  0  0  0  0  0  0  0
  -25.2700  -13.8520   20.3960 C   0  0  0  0  0  0  0  0  0  0  0  0
  -24.2170  -13.0760   20.8040 C   0  0  0  0  0  0  0  0  0  0  0  0
  -24.6720  -11.7240   20.7300 C   0  0  0  0  0  0  0  0  0  0  0  0
  -26.2980  -12.9700   20.1020 N   0  0  0  0  0  0  0  0  0  0  0  0
  -25.9460  -11.6850   20.3640 N   0  0  0  0  0  0  0  0  0  0  0  0
  -23.9480  -10.4610   20.9360 C   0  0  0  0  0  0  0  0  0  0  0  0
  -24.3930   -9.4990   21.8720 C   0  0  0  0  0  3  0  0  0  0  0  0
  -23.6700   -8.3020   22.0650 C   0  0  0  0  0  3  0  0  0  0  0  0
  -22.4910   -8.0570   21.3230 C   0  0  0  0  0  0  0  0  0  0  0  0
  -22.0650   -9.0070   20.3750 C   0  0  0  0  0  3  0  0  0  0  0  0
  -22.7890  -10.1950   20.1800 C   0  0  0  0  0  3  0  0  0  0  0  0
  -21.7380   -6.9110   21.4240 O   0  0  0  0  0  0  0  0  0  0  0  0
  -21.6690   -6.1960   22.5920 C   0  0  0  0  0  0  0  0  0  0  0  0
  -21.1920   -6.7710   23.7910 C   0  0  0  0  0  3  0  0  0  0  0  0
  -21.0720   -5.9830   24.9520 C   0  0  0  0  0  3  0  0  0  0  0  0
  -21.4190   -4.6180   24.9160 C   0  0  0  0  0  0  0  0  0  0  0  0
  -21.8880   -4.0410   23.7220 C   0  0  0  0  0  3  0  0  0  0  0  0
  -22.0110   -4.8280   22.5630 C   0  0  0  0  0  0  0  0  0  0  0  0
  -22.4410   -4.2620   21.4100 F   0  0  0  0  0  0  0  0  0  0  0  0
  -21.2980   -3.8580   26.0290 F   0  0  0  0  0  0  0  0  0  0  0  0
  -22.8370  -13.5530   21.1470 C   0  0  0  0  0  0  0  0  0  0  0  0
  -22.1490  -12.8490   22.0380 N   0  0  0  0  0  0  0  0  0  0  0  0
  -22.3760  -14.5840   20.6590 O   0  0  0  0  0  0  0  0  0  0  0  0
  -22.5340  -12.0150   22.4570 H   0  0  0  0  0  0  0  0  0  0  0  0
  -21.2230  -13.1480   22.3060 H   0  0  0  0  0  0  0  0  0  0  0  0
  -25.4340  -15.2250   20.2300 N   0  0  0  0  0  0  0  0  0  0  0  0
  -24.6800  -15.8890   20.3720 H   0  0  0  0  0  0  0  0  0  0  0  0
  -26.2720  -15.6610   19.8660 H   0  0  0  0  0  0  0  0  0  0  0  0
  -28.9470  -22.4370   20.4610 C   0  0  0  0  0  2  0  0  0  0  0  0
  -29.3620  -23.9790   20.3670 C   0  0  0  0  0  3  0  0  0  0  0  0
  -28.1870  -25.0140   20.1220 C   0  0  0  0  0  3  0  0  0  0  0  0
  -28.4210  -26.4700   20.2240 O   0  0  0  0  0  0  0  0  0  0  0  0
  -24.6160  -31.8300   23.1820 C   0  0  0  0  0  0  0  0  0  0  0  0
  -27.2960  -27.3070   20.1510 C   0  0  0  0  0  0  0  0  0  0  0  0
  -23.4410  -30.4320   21.5210 C   0  0  0  0  0  3  0  0  0  0  0  0
  -24.9180  -28.9000   20.1070 C   0  0  0  0  0  0  0  0  0  0  0  0
  -25.9810  -30.7660   21.3760 C   0  0  0  0  0  2  0  0  0  0  0  0
  -26.0760  -29.3950   20.7220 C   0  0  0  0  0  0  0  0  0  0  0  0
  -27.2680  -28.6130   20.7300 C   0  0  0  0  0  3  0  0  0  0  0  0
  -26.1130  -26.8670   19.5100 C   0  0  0  0  0  3  0  0  0  0  0  0
  -24.9410  -27.6420   19.4860 C   0  0  0  0  0  3  0  0  0  0  0  0
  -23.6730  -29.7620   20.1410 C   0  0  0  0  0  2  0  0  0  0  0  0
  -24.6960  -31.0250   22.0830 N   0  0  0  0  0  0  0  0  0  0  0  0
  -23.5240  -32.1040   23.6990 O   0  0  0  0  0  0  0  0  0  0  0  0
  -22.7660  -29.4100   22.4680 C   0  0  0  0  0  0  0  0  0  0  0  0
  -21.4380  -29.2570   22.3410 N   0  0  0  0  0  0  0  0  0  0  0  0
  -23.4370  -28.7600   23.2740 O   0  0  0  0  0  0  0  0  0  0  0  0
  -20.9580  -29.8310   21.6610 H   0  0  0  0  0  0  0  0  0  0  0  0
  -18.0350  -28.1480   22.8640 C   0  0  0  0  0  0  0  0  0  0  0  0
  -20.6020  -28.3230   23.0990 C   0  0  0  0  0  3  0  0  0  0  0  0
  -20.6530  -26.9060   22.4820 C   0  0  0  0  0  2  0  0  0  0  0  0
  -19.5270  -26.6450   21.4780 C   0  0  0  0  0  2  0  0  0  0  0  0
  -18.1600  -26.8130   22.1480 C   0  0  0  0  0  2  0  0  0  0  0  0
  -19.1810  -28.8650   23.2950 C   0  0  0  0  0  0  0  0  0  0  0  0
  -19.0100  -30.1180   23.9250 C   0  0  0  0  0  3  0  0  0  0  0  0
  -17.7240  -30.6510   24.1270 C   0  0  0  0  0  3  0  0  0  0  0  0
  -16.5910  -29.9300   23.7120 C   0  0  0  0  0  3  0  0  0  0  0  0
  -16.7480  -28.6800   23.0850 C   0  0  0  0  0  3  0  0  0  0  0  0
  -25.8890  -32.4600   23.8270 C   0  0  0  0  0  3  0  0  0  0  0  0
  -26.3960  -31.6710   25.0980 C   0  0  1  0  0  0  0  0  0  0  0  0
  -25.2920  -31.4080   26.1470 C   0  0  0  0  0  1  0  0  0  0  0  0
  -26.9960  -30.3050   24.6930 C   0  0  0  0  0  1  0  0  0  0  0  0
  -27.5360  -32.4640   25.7820 C   0  0  0  0  0  1  0  0  0  0  0  0
  -25.5650  -33.8490   24.1760 N   0  0  0  0  0  0  0  0  0  0  0  0
  -25.8860  -34.9160   23.4300 C   0  0  0  0  0  0  0  0  0  0  0  0
  -26.5550  -34.8330   22.3970 O   0  0  0  0  0  0  0  0  0  0  0  0
  -24.9660  -33.9850   24.9770 H   0  0  0  0  0  0  0  0  0  0  0  0
  -24.1380  -36.6970   23.1040 C   0  0  0  0  0  1  0  0  0  0  0  0
  -25.3850  -36.2940   23.9080 C   0  0  0  0  0  3  0  0  0  0  0  0
  -27.5100  -37.1910   24.7470 C   0  0  0  0  0  1  0  0  0  0  0  0
  -26.4080  -37.3590   23.8040 N   0  0  0  0  0  0  0  0  0  0  0  0
  -25.9930  -38.2730   23.9610 H   0  0  0  0  0  0  0  0  0  0  0  0
  1  2  1  0
  2  6  1  0
  2 48  1  0
  3  4  1  0
  5  8  2  0
  5  6  1  0
  6  3  2  0
  7 18  1  0
  7  4  2  0
  8  7  1  0
  9  8  1  0
 10 18  1  0
 11 16  1  0
 12 13  1  0
 12 11  1  0
 14 13  1  0
 14 23  1  0
 14 15  1  0
 16 10  1  0
 16 15  1  0
 17 10  2  0
 18 19  1  0
 20 21  2  0
 21 40  1  0
 22 21  1  0
 22 25  1  0
 23 24  1  0
 23 20  1  0
 24 22  2  0
 25 26  1  0
 26 27  2  0
 28 31  1  0
 28 27  1  0
 29 28  2  0
 30 29  1  0
 30 25  2  0
 31 32  1  0
 32 33  1  0
 33 34  2  0
 35 34  1  0
 35 39  1  0
 36 35  2  0
 37 32  2  0
 37 36  1  0
 38 37  1  0
 40 41  1  0
 41 44  1  0
 41 43  1  0
 42 40  2  0
 45 46  1  0
 45 20  1  0
 47 45  1  0
 49 48  1  0
 50 51  1  0
 50 49  2  0
 52 63  2  0
 53 51  1  0
 53 58  1  0
 54 62  1  0
 54 64  1  0
 55 61  1  0
 55 57  1  0
 56 62  1  0
 57 58  2  0
 57 56  1  0
 59 53  2  0
 60 59  1  0
 60 55  2  0
 61 54  1  0
 62 52  1  0
 64 66  2  0
 65 64  1  0
 67 65  1  0
 68 77  2  0
 68 73  1  0
 69 65  1  0
 69 73  1  0
 70 69  1  0
 71 72  1  0
 71 70  1  0
 72 68  1  0
 73 74  2  0
 74 75  1  0
 76 75  2  0
 77 76  1  0
 78 52  1  0
 78 83  1  0
 78 79  1  0
 79 82  1  1
 79 80  1  0
 81 79  1  0
 83 86  1  0
 84 88  1  0
 84 83  1  0
 85 84  2  0
 88 87  1  0
 90 88  1  0
 90 91  1  0
 90 89  1  0
M  ISO  4  10 100  18 100  50 101  51 101
M  END
>  <TORSDO>  (25) 
F 20

>  <SCORE>  (25) 
-13.417

>  <name>  (25) 
25

>  <ligand_id>  (25) 
25

>  <original_smiles>  (25) 
[H]c1c([H])c([H])c2c(c1[H])C([H])([H])C([H])([H])C([H])([H])C2([H])N([H])C(=O)C1([H])N(C(=O)C([H])(N([H])C(=O)C([H])(N([H])C([H])([H])[H])C([H])([H])[H])C(C([H])([H])[H])(C([H])([H])[H])C([H])([H])[H])C([H])([H])c2c([H])c(OC([H])([H])C([H])([H])C([H])([H])N(c3c([H])c([H])c(N([H])C(=O)N4C([H])([H])C([H])([H])C([H])([H])C([H])(n5nc(-c6c([H])c([H])c(Oc7c([H])c([H])c(F)c([H])c7F)c([H])c6[H])c(C(=O)N([H])[H])c5N([H])[H])C4([H])[H])c(F)c3[H])C([H])([H])[H])c([H])c([H])c2C1([H])[H]

>  <smiles>  (25) 
[H]c1c([H])c([H])c2c(c1[H])C([H])([H])C([H])([H])C([H])([H])C2([H])N([H])C(=O)C1([H])N(C(=O)C([H])(N([H])C(=O)C([H])(N([H])C([H])([H])[H])C([H])([H])[H])C(C([H])([H])[H])(C([H])([H])[H])C([H])([H])[H])C([H])([H])c2c([H])c(OC([H])([H])C([H])([H])C([H])([H])N(c3c([H])c([H])c(N([H])C(=O)N4C([H])([H])C([H])([H])C([H])([H])C([H])(n5nc(-c6c([H])c([H])c(Oc7c([H])c([H])c(F)c([H])c7F)c([H])c6[H])c(C(=O)N([H])[H])c5N([H])[H])C4([H])[H])c(F)c3[H])C([H])([H])[H])c([H])c([H])c2C1([H])[H]

$$$$
26:0:0
     RDKit          3D

 92101  0  0  1  0  0  0  0  0999 V2000
  -27.1210  -23.4570   20.6500 C   0  0  0  0  0  2  0  0  0  0  0  0
  -27.3220  -22.0040   21.1290 C   0  0  0  0  0  2  0  0  0  0  0  0
  -29.4020  -22.7940   20.2630 C   0  0  0  0  0  2  0  0  0  0  0  0
  -28.5240  -24.0700   20.5900 C   0  0  0  0  0  3  0  0  0  0  0  0
  -28.6620  -21.5850   20.7070 N   0  0  0  0  0  0  0  0  0  0  0  0
  -28.1120  -19.1450   20.7460 C   0  0  0  0  0  3  0  0  0  0  0  0
  -28.4600  -17.7670   20.6640 C   0  0  0  0  0  3  0  0  0  0  0  0
  -30.4270  -19.7380   20.6440 C   0  0  0  0  0  3  0  0  0  0  0  0
  -29.0750  -20.1920   20.7010 C   0  0  0  0  0  0  0  0  0  0  0  0
  -29.7990  -17.3110   20.5600 C   0  0  0  0  0  0  0  0  0  0  0  0
  -30.7840  -18.3450   20.5820 C   0  0  0  0  0  0  0  0  0  0  0  0
  -32.0930  -18.0170   20.4660 F   0  0  0  0  0  0  0  0  0  0  0  0
  -30.8020  -14.9040   20.6410 C   0  0  0  0  0  0  0  0  0  0  0  0
  -30.7190  -12.5630   19.7870 C   0  0  0  0  0  2  0  0  0  0  0  0
  -29.8550  -12.4940   18.5080 C   0  0  0  0  0  2  0  0  0  0  0  0
  -28.3540  -12.3820   18.8490 C   0  0  0  0  0  2  0  0  0  0  0  0
  -27.8880  -13.3230   19.9940 C   0  0  0  0  0  3  0  0  0  0  0  0
  -28.8850  -13.3290   21.1720 C   0  0  0  0  0  2  0  0  0  0  0  0
  -30.2010  -13.6650   20.6220 N   0  0  0  0  0  0  0  0  0  0  0  0
  -32.0320  -14.9850   20.6050 O   0  0  0  0  0  0  0  0  0  0  0  0
  -29.9710  -15.8970   18.6140 C   0  0  0  0  0  1  0  0  0  0  0  0
  -30.0430  -15.9350   20.0890 N   0  0  0  0  0  0  0  0  0  0  0  0
  -25.4580  -13.9130   20.5550 C   0  0  0  0  0  0  0  0  0  0  0  0
  -24.3740  -13.1380   20.8690 C   0  0  0  0  0  0  0  0  0  0  0  0
  -24.8520  -11.7940   20.9010 C   0  0  0  0  0  0  0  0  0  0  0  0
  -26.5230  -13.0370   20.4140 N   0  0  0  0  0  0  0  0  0  0  0  0
  -26.1620  -11.7600   20.6860 N   0  0  0  0  0  0  0  0  0  0  0  0
  -24.1290  -10.5280   21.0650 C   0  0  0  0  0  0  0  0  0  0  0  0
  -24.5090   -9.5860   22.0440 C   0  0  0  0  0  3  0  0  0  0  0  0
  -23.7860   -8.3840   22.1970 C   0  0  0  0  0  3  0  0  0  0  0  0
  -22.6720   -8.1170   21.3680 C   0  0  0  0  0  0  0  0  0  0  0  0
  -22.3110   -9.0500   20.3800 C   0  0  0  0  0  3  0  0  0  0  0  0
  -23.0340  -10.2430   20.2250 C   0  0  0  0  0  3  0  0  0  0  0  0
  -21.9240   -6.9650   21.4280 O   0  0  0  0  0  0  0  0  0  0  0  0
  -21.7950   -6.2540   22.5950 C   0  0  0  0  0  0  0  0  0  0  0  0
  -21.2610   -6.8340   23.7650 C   0  0  0  0  0  3  0  0  0  0  0  0
  -21.0770   -6.0490   24.9200 C   0  0  0  0  0  3  0  0  0  0  0  0
  -21.4240   -4.6850   24.9070 C   0  0  0  0  0  0  0  0  0  0  0  0
  -21.9540   -4.1040   23.7420 C   0  0  0  0  0  3  0  0  0  0  0  0
  -22.1370   -4.8870   22.5880 C   0  0  0  0  0  0  0  0  0  0  0  0
  -22.6280   -4.3190   21.4600 F   0  0  0  0  0  0  0  0  0  0  0  0
  -21.2440   -3.9270   26.0150 F   0  0  0  0  0  0  0  0  0  0  0  0
  -22.9600  -13.6090   21.0290 C   0  0  0  0  0  0  0  0  0  0  0  0
  -22.1830  -12.9320   21.8660 N   0  0  0  0  0  0  0  0  0  0  0  0
  -22.5480  -14.6130   20.4490 O   0  0  0  0  0  0  0  0  0  0  0  0
  -22.5260  -12.1180   22.3560 H   0  0  0  0  0  0  0  0  0  0  0  0
  -21.2320  -13.2330   22.0250 H   0  0  0  0  0  0  0  0  0  0  0  0
  -25.6180  -15.2780   20.3520 N   0  0  0  0  0  0  0  0  0  0  0  0
  -24.8430  -15.9310   20.3940 H   0  0  0  0  0  0  0  0  0  0  0  0
  -26.4780  -15.6950   20.0210 H   0  0  0  0  0  0  0  0  0  0  0  0
  -28.6470  -25.3380   19.6330 C   0  0  0  0  0  2  0  0  0  0  0  0
  -28.4740  -26.6940   20.1670 O   0  0  0  0  0  0  0  0  0  0  0  0
  -24.6540  -31.9210   23.2060 C   0  0  0  0  0  0  0  0  0  0  0  0
  -27.2920  -27.4370   20.0990 C   0  0  0  0  0  0  0  0  0  0  0  0
  -23.4410  -30.5120   21.5730 C   0  0  0  0  0  3  0  0  0  0  0  0
  -24.8920  -28.9800   20.1220 C   0  0  0  0  0  0  0  0  0  0  0  0
  -25.9670  -30.8770   21.3500 C   0  0  0  0  0  2  0  0  0  0  0  0
  -26.0550  -29.5030   20.6990 C   0  0  0  0  0  0  0  0  0  0  0  0
  -27.2540  -28.7390   20.6770 C   0  0  0  0  0  3  0  0  0  0  0  0
  -26.1070  -26.9480   19.5080 C   0  0  0  0  0  3  0  0  0  0  0  0
  -24.9160  -27.7090   19.5180 C   0  0  0  0  0  3  0  0  0  0  0  0
  -23.6410  -29.8270   20.1930 C   0  0  0  0  0  2  0  0  0  0  0  0
  -24.7060  -31.1220   22.1000 N   0  0  0  0  0  0  0  0  0  0  0  0
  -23.5740  -32.1860   23.7560 O   0  0  0  0  0  0  0  0  0  0  0  0
  -22.8010  -29.4890   22.5420 C   0  0  0  0  0  0  0  0  0  0  0  0
  -21.4760  -29.3020   22.4300 N   0  0  0  0  0  0  0  0  0  0  0  0
  -23.4970  -28.8620   23.3460 O   0  0  0  0  0  0  0  0  0  0  0  0
  -20.9740  -29.8630   21.7560 H   0  0  0  0  0  0  0  0  0  0  0  0
  -18.1140  -28.0790   22.9520 C   0  0  0  0  0  0  0  0  0  0  0  0
  -20.6720  -28.3510   23.1990 C   0  0  0  0  0  3  0  0  0  0  0  0
  -20.7770  -26.9260   22.6080 C   0  0  0  0  0  2  0  0  0  0  0  0
  -19.6680  -26.6040   21.6030 C   0  0  0  0  0  2  0  0  0  0  0  0
  -18.2900  -26.7360   22.2620 C   0  0  0  0  0  2  0  0  0  0  0  0
  -19.2310  -28.8460   23.3740 C   0  0  0  0  0  0  0  0  0  0  0  0
  -19.0100  -30.1040   23.9740 C   0  0  0  0  0  3  0  0  0  0  0  0
  -17.7040  -30.5950   24.1580 C   0  0  0  0  0  3  0  0  0  0  0  0
  -16.6010  -29.8220   23.7560 C   0  0  0  0  0  3  0  0  0  0  0  0
  -16.8070  -28.5660   23.1580 C   0  0  0  0  0  3  0  0  0  0  0  0
  -25.9380  -32.5610   23.8220 C   0  0  0  0  0  3  0  0  0  0  0  0
  -25.6190  -33.9540   24.1680 N   0  0  0  0  0  0  0  0  0  0  0  0
  -25.9400  -35.0170   23.4150 C   0  0  0  0  0  0  0  0  0  0  0  0
  -26.6040  -34.9270   22.3790 O   0  0  0  0  0  0  0  0  0  0  0  0
  -25.0420  -34.0950   24.9850 H   0  0  0  0  0  0  0  0  0  0  0  0
  -24.2110  -36.8090   23.0730 C   0  0  0  0  0  1  0  0  0  0  0  0
  -25.4480  -36.3970   23.8870 C   0  0  0  0  0  3  0  0  0  0  0  0
  -27.5780  -37.2740   24.7430 C   0  0  0  0  0  1  0  0  0  0  0  0
  -26.4820  -37.4530   23.7960 N   0  0  0  0  0  0  0  0  0  0  0  0
  -26.0710  -38.3690   23.9560 H   0  0  0  0  0  0  0  0  0  0  0  0
  -26.4750  -31.7880   25.0910 C   0  0  1  0  0  0  0  0  0  0  0  0
  -25.3960  -31.5350   26.1730 C   0  0  0  0  0  1  0  0  0  0  0  0
  -27.0650  -30.4190   24.6830 C   0  0  0  0  0  1  0  0  0  0  0  0
  -27.6240  -32.5920   25.7450 C   0  0  0  0  0  1  0  0  0  0  0  0
  1  2  1  0
  3  4  1  0
  3  5  1  0
  4 51  1  0
  4  1  1  0
  5  2  1  0
  7  6  2  0
  8  9  2  0
  9  5  1  0
  9  6  1  0
 10 11  2  0
 10  7  1  0
 11  8  1  0
 12 11  1  0
 14 19  1  0
 15 16  1  0
 15 14  1  0
 17 16  1  0
 17 26  1  0
 17 18  1  0
 19 13  1  0
 19 18  1  0
 20 13  2  0
 21 22  1  0
 22 10  1  0
 22 13  1  0
 23 24  2  0
 24 25  1  0
 24 43  1  0
 25 28  1  0
 26 23  1  0
 26 27  1  0
 27 25  2  0
 28 29  1  0
 29 30  2  0
 31 34  1  0
 31 30  1  0
 32 31  2  0
 33 32  1  0
 33 28  2  0
 34 35  1  0
 35 36  1  0
 36 37  2  0
 38 37  1  0
 38 42  1  0
 39 38  2  0
 40 35  2  0
 40 39  1  0
 41 40  1  0
 43 44  1  0
 44 47  1  0
 44 46  1  0
 45 43  2  0
 48 49  1  0
 48 23  1  0
 50 48  1  0
 51 52  1  0
 53 64  2  0
 54 52  1  0
 54 59  1  0
 55 63  1  0
 55 65  1  0
 56 62  1  0
 56 58  1  0
 57 63  1  0
 58 57  1  0
 59 58  2  0
 60 61  1  0
 60 54  2  0
 61 56  2  0
 62 55  1  0
 63 53  1  0
 65 67  2  0
 66 65  1  0
 68 66  1  0
 69 78  2  0
 69 74  1  0
 70 66  1  0
 70 74  1  0
 71 70  1  0
 72 73  1  0
 72 71  1  0
 73 69  1  0
 74 75  2  0
 75 76  1  0
 77 76  2  0
 78 77  1  0
 79 53  1  0
 79 80  1  0
 79 89  1  0
 80 83  1  0
 81 85  1  0
 81 80  1  0
 82 81  2  0
 85 84  1  0
 87 85  1  0
 87 88  1  0
 87 86  1  0
 89 92  1  1
 89 90  1  0
 91 89  1  0
M  ISO  4  13 100  22 100  51 101  52 101
M  END
>  <TORSDO>  (26) 
F 18

>  <SCORE>  (26) 
-13.886

>  <name>  (26) 
26

>  <ligand_id>  (26) 
26

>  <original_smiles>  (26) 
[H]c1c([H])c([H])c2c(c1[H])C([H])([H])C([H])([H])C([H])([H])C2([H])N([H])C(=O)C1([H])N(C(=O)C([H])(N([H])C(=O)C([H])(N([H])C([H])([H])[H])C([H])([H])[H])C(C([H])([H])[H])(C([H])([H])[H])C([H])([H])[H])C([H])([H])c2c([H])c(OC([H])([H])C3([H])C([H])([H])N(c4c([H])c([H])c(N(C(=O)N5C([H])([H])C([H])([H])C([H])([H])C([H])(n6nc(-c7c([H])c([H])c(Oc8c([H])c([H])c(F)c([H])c8F)c([H])c7[H])c(C(=O)N([H])[H])c6N([H])[H])C5([H])[H])C([H])([H])[H])c(F)c4[H])C([H])([H])C3([H])[H])c([H])c([H])c2C1([H])[H]

>  <smiles>  (26) 
[H]c1c([H])c([H])c2c(c1[H])C([H])([H])C([H])([H])C([H])([H])C2([H])N([H])C(=O)C1([H])N(C(=O)C([H])(N([H])C(=O)C([H])(N([H])C([H])([H])[H])C([H])([H])[H])C(C([H])([H])[H])(C([H])([H])[H])C([H])([H])[H])C([H])([H])c2c([H])c(OC([H])([H])C3([H])C([H])([H])N(c4c([H])c([H])c(N(C(=O)N5C([H])([H])C([H])([H])C([H])([H])C([H])(n6nc(-c7c([H])c([H])c(Oc8c([H])c([H])c(F)c([H])c8F)c([H])c7[H])c(C(=O)N([H])[H])c6N([H])[H])C5([H])[H])C([H])([H])[H])c(F)c4[H])C([H])([H])C3([H])[H])c([H])c([H])c2C1([H])[H]

$$$$
27:0:0
     RDKit          3D

 97104  0  0  1  0  0  0  0  0999 V2000
  -25.1550  -22.0660   16.7290 C   0  0  0  0  0  3  0  0  0  0  0  0
  -22.7120  -22.4210   16.7980 C   0  0  0  0  0  1  0  0  0  0  0  0
  -23.6360  -20.0930   16.7810 C   0  0  0  0  0  1  0  0  0  0  0  0
  -23.8970  -21.5460   16.7770 N   0  0  0  0  0  0  0  0  0  0  0  0
  -25.3990  -23.3870   16.9010 N   0  0  0  0  0  0  0  0  0  0  0  0
  -26.1560  -23.7840   16.3600 H   0  0  0  0  0  0  0  0  0  0  0  0
  -25.2960  -24.0110   18.2320 C   0  0  0  0  0  2  0  0  0  0  0  0
  -28.2400  -23.4170   18.0740 C   0  0  0  0  0  2  0  0  0  0  0  0
  -29.3940  -22.2930   18.8640 C   0  0  0  0  0  2  0  0  0  0  0  0
  -26.8430  -23.1990   20.6580 C   0  0  0  0  0  3  0  0  0  0  0  0
  -26.6530  -23.8340   18.9410 C   0  0  2  0  0  0  0  0  0  0  0  0
  -29.2310  -21.0840   20.1200 C   0  0  0  0  0  2  0  0  0  0  0  0
  -28.1810  -22.0990   21.0830 C   0  0  0  0  0  3  0  0  0  0  0  0
  -28.1100  -21.6950   22.3750 F   0  0  0  0  0  0  0  0  0  0  0  0
  -30.3790  -17.2870   20.2770 C   0  0  0  0  0  0  0  0  0  0  0  0
  -30.7510  -14.4390   19.5710 C   0  0  0  0  0  2  0  0  0  0  0  0
  -30.1120  -13.4600   18.4860 C   0  0  0  0  0  2  0  0  0  0  0  0
  -28.8050  -12.8310   18.9540 C   0  0  0  0  0  2  0  0  0  0  0  0
  -28.0550  -13.8990   19.7580 C   0  0  0  0  0  3  0  0  0  0  0  0
  -28.9120  -14.7480   20.7970 C   0  0  0  0  0  2  0  0  0  0  0  0
  -29.9010  -15.7330   20.1080 N   0  0  0  0  0  0  0  0  0  0  0  0
  -31.5960  -16.8660   20.2940 O   0  0  0  0  0  0  0  0  0  0  0  0
  -30.0190  -19.1340   20.3660 N   0  0  0  0  0  2  0  0  0  0  0  0
  -25.6650  -14.2960   20.4270 C   0  0  0  0  0  0  0  0  0  0  0  0
  -24.5990  -13.4960   20.7100 C   0  0  0  0  0  0  0  0  0  0  0  0
  -25.0830  -12.1510   20.6660 C   0  0  0  0  0  0  0  0  0  0  0  0
  -26.7410  -13.4590   20.2310 N   0  0  0  0  0  0  0  0  0  0  0  0
  -26.3990  -12.1470   20.4210 N   0  0  0  0  0  0  0  0  0  0  0  0
  -24.3380  -10.8810   20.7850 C   0  0  0  0  0  0  0  0  0  0  0  0
  -24.6820   -9.9020   21.7440 C   0  0  0  0  0  3  0  0  0  0  0  0
  -23.9270   -8.7130   21.8640 C   0  0  0  0  0  3  0  0  0  0  0  0
  -22.8090   -8.4930   21.0230 C   0  0  0  0  0  0  0  0  0  0  0  0
  -22.4810   -9.4600   20.0560 C   0  0  0  0  0  3  0  0  0  0  0  0
  -23.2380  -10.6390   19.9360 C   0  0  0  0  0  3  0  0  0  0  0  0
  -22.0350   -7.3580   21.0480 O   0  0  0  0  0  0  0  0  0  0  0  0
  -21.8460   -6.6370   22.2000 C   0  0  0  0  0  0  0  0  0  0  0  0
  -21.2980   -7.2220   23.3630 C   0  0  0  0  0  3  0  0  0  0  0  0
  -21.0590   -6.4310   24.5040 C   0  0  0  0  0  3  0  0  0  0  0  0
  -21.3530   -5.0550   24.4820 C   0  0  0  0  0  0  0  0  0  0  0  0
  -21.8930   -4.4680   23.3240 C   0  0  0  0  0  3  0  0  0  0  0  0
  -22.1360   -5.2570   22.1850 C   0  0  0  0  0  0  0  0  0  0  0  0
  -22.6340   -4.6810   21.0650 F   0  0  0  0  0  0  0  0  0  0  0  0
  -21.1180   -4.2920   25.5760 F   0  0  0  0  0  0  0  0  0  0  0  0
  -23.1870  -13.9650   20.9050 C   0  0  0  0  0  0  0  0  0  0  0  0
  -22.4180  -13.2720   21.7330 N   0  0  0  0  0  0  0  0  0  0  0  0
  -22.7770  -14.9900   20.3610 O   0  0  0  0  0  0  0  0  0  0  0  0
  -22.7650  -12.4450   22.1980 H   0  0  0  0  0  0  0  0  0  0  0  0
  -21.4690  -13.5680   21.9080 H   0  0  0  0  0  0  0  0  0  0  0  0
  -25.8100  -15.6730   20.2770 N   0  0  0  0  0  0  0  0  0  0  0  0
  -25.0300  -16.3160   20.3540 H   0  0  0  0  0  0  0  0  0  0  0  0
  -26.6740  -16.1260   20.0130 H   0  0  0  0  0  0  0  0  0  0  0  0
  -31.5470  -20.8420   21.6150 C   0  0  0  0  0  1  0  0  0  0  0  0
  -31.3710  -19.4930   20.8880 C   0  0  0  0  0  2  0  0  0  0  0  0
  -26.3560  -21.1810   16.5310 C   0  0  0  0  0  2  0  0  0  0  0  0
  -26.7750  -20.5540   17.8790 C   0  0  0  0  0  2  0  0  0  0  0  0
  -26.5570  -21.4230   19.2150 C   0  0  0  0  0  1  0  0  0  0  0  0
  -27.8540  -24.2050   20.1260 O   0  0  0  0  0  0  0  0  0  0  0  0
  -24.8290  -31.7970   23.1470 C   0  0  0  0  0  0  0  0  0  0  0  0
  -27.1810  -25.9470   20.1570 C   0  0  0  0  0  2  0  0  0  0  0  0
  -23.6330  -30.3880   21.5460 C   0  0  0  0  0  3  0  0  0  0  0  0
  -25.0560  -28.5780   20.1550 C   0  0  0  0  0  0  0  0  0  0  0  0
  -26.2310  -30.2270   21.5140 C   0  0  0  0  0  2  0  0  0  0  0  0
  -26.2500  -28.7030   20.8680 C   0  0  0  0  0  0  0  0  0  0  0  0
  -27.2340  -27.4380   20.8590 C   0  0  0  0  0  2  0  0  0  0  0  0
  -26.1170  -26.4220   19.2570 C   0  0  0  0  0  2  0  0  0  0  0  0
  -25.0880  -27.4620   19.3000 C   0  0  0  0  0  2  0  0  0  0  0  0
  -23.8890  -29.6300   20.1960 C   0  0  0  0  0  2  0  0  0  0  0  0
  -24.9340  -30.8600   22.1170 N   0  0  0  0  0  0  0  0  0  0  0  0
  -23.7310  -32.1500   23.6240 O   0  0  0  0  0  0  0  0  0  0  0  0
  -22.8490  -29.4900   22.5470 C   0  0  0  0  0  0  0  0  0  0  0  0
  -21.5080  -29.3740   22.4350 N   0  0  0  0  0  0  0  0  0  0  0  0
  -23.4770  -28.8830   23.4160 O   0  0  0  0  0  0  0  0  0  0  0  0
  -21.0390  -29.9130   21.7230 H   0  0  0  0  0  0  0  0  0  0  0  0
  -18.1110  -28.1500   23.0000 C   0  0  0  0  0  0  0  0  0  0  0  0
  -20.6730  -28.4540   23.2310 C   0  0  0  0  0  3  0  0  0  0  0  0
  -20.7790  -27.0100   22.6860 C   0  0  0  0  0  2  0  0  0  0  0  0
  -19.6760  -26.6630   21.6810 C   0  0  0  0  0  2  0  0  0  0  0  0
  -18.2980  -26.7970   22.3350 C   0  0  0  0  0  2  0  0  0  0  0  0
  -19.2250  -28.9360   23.4040 C   0  0  0  0  0  0  0  0  0  0  0  0
  -18.9890  -30.1940   24.0000 C   0  0  0  0  0  3  0  0  0  0  0  0
  -17.6760  -30.6710   24.1860 C   0  0  0  0  0  3  0  0  0  0  0  0
  -16.5810  -29.8860   23.7900 C   0  0  0  0  0  3  0  0  0  0  0  0
  -16.7980  -28.6270   23.2040 C   0  0  0  0  0  3  0  0  0  0  0  0
  -26.0720  -32.4870   23.7940 C   0  0  0  0  0  3  0  0  0  0  0  0
  -25.7210  -33.8800   24.1770 N   0  0  0  0  0  0  0  0  0  0  0  0
  -26.0360  -34.9920   23.4950 C   0  0  0  0  0  0  0  0  0  0  0  0
  -26.6910  -34.9560   22.4500 O   0  0  0  0  0  0  0  0  0  0  0  0
  -25.1290  -33.9750   24.9890 H   0  0  0  0  0  0  0  0  0  0  0  0
  -24.2930  -36.8120   23.3080 C   0  0  0  0  0  1  0  0  0  0  0  0
  -25.5620  -36.3580   24.0480 C   0  0  0  0  0  3  0  0  0  0  0  0
  -27.7190  -37.2270   24.8550 C   0  0  0  0  0  1  0  0  0  0  0  0
  -26.5830  -37.4280   23.9580 N   0  0  0  0  0  0  0  0  0  0  0  0
  -26.1730  -38.3340   24.1650 H   0  0  0  0  0  0  0  0  0  0  0  0
  -26.5900  -31.7270   25.0810 C   0  0  1  0  0  0  0  0  0  0  0  0
  -25.5020  -31.4900   26.1550 C   0  0  0  0  0  1  0  0  0  0  0  0
  -27.1810  -30.3490   24.7240 C   0  0  0  0  0  1  0  0  0  0  0  0
  -27.7420  -32.5290   25.7350 C   0  0  0  0  0  1  0  0  0  0  0  0
  1 54  1  0
  1  4  1  0
  1  5  1  0
  4  3  1  0
  4  2  1  0
  5  7  1  0
  6  5  1  0
  8  9  1  0
  8 11  1  0
  9 12  1  0
 10 57  1  0
 10 13  1  0
 11  7  1  6
 11 57  1  0
 11 10  1  0
 12 13  1  0
 13 14  1  0
 15 22  2  0
 15 23  1  0
 16 21  1  0
 17 18  1  0
 17 16  1  0
 19 18  1  0
 19 27  1  0
 19 20  1  0
 21 15  1  0
 21 20  1  0
 23 53  1  0
 24 25  2  0
 25 44  1  0
 26 25  1  0
 26 29  1  0
 27 28  1  0
 27 24  1  0
 28 26  2  0
 29 30  1  0
 30 31  2  0
 32 35  1  0
 32 31  1  0
 33 32  2  0
 34 33  1  0
 34 29  2  0
 35 36  1  0
 36 37  1  0
 37 38  2  0
 39 38  1  0
 39 43  1  0
 40 39  2  0
 41 36  2  0
 41 40  1  0
 42 41  1  0
 44 45  1  0
 45 48  1  0
 45 47  1  0
 46 44  2  0
 49 50  1  0
 49 24  1  0
 51 49  1  0
 53 52  1  0
 54 55  1  0
 55 56  1  0
 58 69  2  0
 59 64  1  0
 60 68  1  0
 60 70  1  0
 61 67  1  0
 61 63  2  0
 62 68  1  0
 63 62  1  0
 64 63  1  0
 65 66  1  0
 65 59  1  0
 66 61  1  0
 67 60  1  0
 68 58  1  0
 70 72  2  0
 71 70  1  0
 73 71  1  0
 74 83  2  0
 74 79  1  0
 75 71  1  0
 75 79  1  0
 76 75  1  0
 77 78  1  0
 77 76  1  0
 78 74  1  0
 79 80  2  0
 80 81  1  0
 82 81  2  0
 83 82  1  0
 84 58  1  0
 84 85  1  0
 84 94  1  0
 85 88  1  0
 86 90  1  0
 86 85  1  0
 87 86  2  0
 90 89  1  0
 92 90  1  0
 92 93  1  0
 92 91  1  0
 94 97  1  1
 94 95  1  0
 96 94  1  0
M  ISO  4  15 100  23 100  56 101  57 101
M  END
>  <TORSDO>  (27) 
F 22

>  <SCORE>  (27) 
-10.890

>  <name>  (27) 
27

>  <ligand_id>  (27) 
27

>  <original_smiles>  (27) 
[H]c1c([H])c([H])c2c(c1[H])C([H])([H])C([H])([H])C([H])([H])C2([H])N([H])C(=O)C1([H])N(C(=O)C([H])(N([H])C(=O)C([H])(N([H])C([H])([H])[H])C([H])([H])[H])C(C([H])([H])[H])(C([H])([H])[H])C([H])([H])[H])C([H])([H])c2c([H])c(OC([H])([H])C([H])([H])C([H])([H])C(N(C([H])([H])[H])C([H])([H])[H])=[N+]([H])C([H])([H])c3c([H])c([H])c(N(C(=O)N4C([H])([H])C([H])([H])C([H])([H])C([H])(n5nc(-c6c([H])c([H])c(Oc7c([H])c([H])c(F)c([H])c7F)c([H])c6[H])c(C(=O)N([H])[H])c5N([H])[H])C4([H])[H])C([H])([H])C([H])([H])[H])c(F)c3[H])c([H])c([H])c2C1([H])[H]

>  <smiles>  (27) 
[H]c1c([H])c([H])c2c(c1[H])C([H])([H])C([H])([H])C([H])([H])C2([H])N([H])C(=O)C1([H])N(C(=O)C([H])(N([H])C(=O)C([H])(N([H])C([H])([H])[H])C([H])([H])[H])C(C([H])([H])[H])(C([H])([H])[H])C([H])([H])[H])C([H])([H])c2c([H])c(OC([H])([H])C([H])([H])C([H])([H])C(N(C([H])([H])[H])C([H])([H])[H])=[N+]([H])C([H])([H])c3c([H])c([H])c(N(C(=O)N4C([H])([H])C([H])([H])C([H])([H])C([H])(n5nc(-c6c([H])c([H])c(Oc7c([H])c([H])c(F)c([H])c7F)c([H])c6[H])c(C(=O)N([H])[H])c5N([H])[H])C4([H])[H])C([H])([H])C([H])([H])[H])c(F)c3[H])c([H])c([H])c2C1([H])[H]

$$$$
28:0:0
     RDKit          3D

 92100  0  0  1  0  0  0  0  0999 V2000
  -27.5270  -21.1010   19.1340 C   0  0  0  0  0  1  0  0  0  0  0  0
  -28.5790  -21.8280   19.8900 N   0  0  1  0  0  4  0  0  0  0  0  0
  -28.3140  -21.7470   20.8590 H   0  0  0  0  0  0  0  0  0  0  0  0
  -29.9190  -21.1700   19.7640 C   0  0  0  0  0  2  0  0  0  0  0  0
  -30.1980  -19.2000   21.4130 C   0  0  0  0  0  3  0  0  0  0  0  0
  -29.8450  -18.6750   19.0820 C   0  0  0  0  0  3  0  0  0  0  0  0
  -30.3220  -17.8170   21.7000 C   0  0  0  0  0  3  0  0  0  0  0  0
  -29.9570  -17.2900   19.3700 C   0  0  0  0  0  3  0  0  0  0  0  0
  -29.9670  -19.6540   20.0950 C   0  0  0  0  0  0  0  0  0  0  0  0
  -30.2190  -16.8220   20.6870 C   0  0  0  0  0  0  0  0  0  0  0  0
  -30.7640  -14.4820   20.0720 C   0  0  0  0  0  0  0  0  0  0  0  0
  -30.2800  -12.3860   18.8390 C   0  0  0  0  0  2  0  0  0  0  0  0
  -29.2610  -12.6190   17.7070 C   0  0  0  0  0  2  0  0  0  0  0  0
  -27.8250  -12.4660   18.2410 C   0  0  0  0  0  2  0  0  0  0  0  0
  -27.5850  -13.2970   19.5280 C   0  0  0  0  0  3  0  0  0  0  0  0
  -28.7090  -13.0660   20.5610 C   0  0  0  0  0  2  0  0  0  0  0  0
  -30.0040  -13.3550   19.9170 N   0  0  0  0  0  0  0  0  0  0  0  0
  -31.7760  -14.6820   19.3910 O   0  0  0  0  0  0  0  0  0  0  0  0
  -30.6330  -15.0190   22.3960 C   0  0  0  0  0  1  0  0  0  0  0  0
  -30.3760  -15.4040   20.9980 N   0  0  0  0  0  0  0  0  0  0  0  0
  -25.2570  -13.9170   20.4340 C   0  0  0  0  0  0  0  0  0  0  0  0
  -24.2040  -13.1510   20.8530 C   0  0  0  0  0  0  0  0  0  0  0  0
  -24.6360  -11.7930   20.7450 C   0  0  0  0  0  0  0  0  0  0  0  0
  -26.2660  -13.0270   20.0980 N   0  0  0  0  0  0  0  0  0  0  0  0
  -25.9000  -11.7430   20.3440 N   0  0  0  0  0  0  0  0  0  0  0  0
  -23.9010  -10.5370   20.9460 C   0  0  0  0  0  0  0  0  0  0  0  0
  -24.3480   -9.5550   21.8580 C   0  0  0  0  0  3  0  0  0  0  0  0
  -23.6150   -8.3650   22.0460 C   0  0  0  0  0  3  0  0  0  0  0  0
  -22.4180   -8.1470   21.3230 C   0  0  0  0  0  0  0  0  0  0  0  0
  -21.9890   -9.1170   20.4000 C   0  0  0  0  0  3  0  0  0  0  0  0
  -22.7230  -10.2980   20.2090 C   0  0  0  0  0  3  0  0  0  0  0  0
  -21.6540   -7.0090   21.4220 O   0  0  0  0  0  0  0  0  0  0  0  0
  -21.5960   -6.2790   22.5810 C   0  0  0  0  0  0  0  0  0  0  0  0
  -21.1750   -6.8520   23.8010 C   0  0  0  0  0  3  0  0  0  0  0  0
  -21.0630   -6.0490   24.9540 C   0  0  0  0  0  3  0  0  0  0  0  0
  -21.3630   -4.6750   24.8870 C   0  0  0  0  0  0  0  0  0  0  0  0
  -21.7760   -4.1020   23.6730 C   0  0  0  0  0  3  0  0  0  0  0  0
  -21.8900   -4.9020   22.5220 C   0  0  0  0  0  0  0  0  0  0  0  0
  -22.2700   -4.3420   21.3480 F   0  0  0  0  0  0  0  0  0  0  0  0
  -21.2480   -3.9010   25.9920 F   0  0  0  0  0  0  0  0  0  0  0  0
  -22.8390  -13.6410   21.2410 C   0  0  0  0  0  0  0  0  0  0  0  0
  -22.1770  -12.9490   22.1630 N   0  0  0  0  0  0  0  0  0  0  0  0
  -22.3710  -14.6740   20.7640 O   0  0  0  0  0  0  0  0  0  0  0  0
  -22.5710  -12.1120   22.5680 H   0  0  0  0  0  0  0  0  0  0  0  0
  -21.2640  -13.2570   22.4640 H   0  0  0  0  0  0  0  0  0  0  0  0
  -25.4370  -15.2900   20.2930 N   0  0  0  0  0  0  0  0  0  0  0  0
  -24.6980  -15.9550   20.4880 H   0  0  0  0  0  0  0  0  0  0  0  0
  -26.2810  -15.7260   19.9440 H   0  0  0  0  0  0  0  0  0  0  0  0
  -28.5420  -23.2990   19.5550 C   0  0  0  0  0  2  0  0  0  0  0  0
  -29.1840  -24.2640   20.5970 C   0  0  0  0  0  2  0  0  0  0  0  0
  -28.3750  -25.5540   20.9480 C   0  0  0  0  0  2  0  0  0  0  0  0
  -28.4500  -26.6670   20.0290 O   0  0  0  0  0  0  0  0  0  0  0  0
  -24.5890  -31.8540   23.0930 C   0  0  0  0  0  0  0  0  0  0  0  0
  -27.3070  -27.4420   20.0170 C   0  0  0  0  0  0  0  0  0  0  0  0
  -23.4080  -30.4330   21.4480 C   0  0  0  0  0  3  0  0  0  0  0  0
  -24.8920  -28.9210   20.0200 C   0  0  0  0  0  0  0  0  0  0  0  0
  -25.9280  -30.8320   21.2520 C   0  0  0  0  0  2  0  0  0  0  0  0
  -26.0420  -29.4610   20.6120 C   0  0  0  0  0  0  0  0  0  0  0  0
  -27.2570  -28.7300   20.6060 C   0  0  0  0  0  3  0  0  0  0  0  0
  -26.1420  -26.9250   19.4130 C   0  0  0  0  0  3  0  0  0  0  0  0
  -24.9380  -27.6530   19.4150 C   0  0  0  0  0  3  0  0  0  0  0  0
  -23.6290  -29.7540   20.0690 C   0  0  0  0  0  2  0  0  0  0  0  0
  -24.6600  -31.0540   21.9900 N   0  0  0  0  0  0  0  0  0  0  0  0
  -23.5020  -32.1080   23.6300 O   0  0  0  0  0  0  0  0  0  0  0  0
  -22.7720  -29.4020   22.4090 C   0  0  0  0  0  0  0  0  0  0  0  0
  -21.4420  -29.2350   22.3130 N   0  0  0  0  0  0  0  0  0  0  0  0
  -23.4690  -28.7550   23.1940 O   0  0  0  0  0  0  0  0  0  0  0  0
  -20.9410  -29.8100   21.6510 H   0  0  0  0  0  0  0  0  0  0  0  0
  -18.0680  -28.0780   22.8910 C   0  0  0  0  0  0  0  0  0  0  0  0
  -20.6370  -28.2880   23.0830 C   0  0  0  0  0  3  0  0  0  0  0  0
  -20.6950  -26.8700   22.4650 C   0  0  0  0  0  2  0  0  0  0  0  0
  -19.5550  -26.5930   21.4810 C   0  0  0  0  0  2  0  0  0  0  0  0
  -18.1970  -26.7440   22.1750 C   0  0  0  0  0  2  0  0  0  0  0  0
  -19.2130  -28.8100   23.3030 C   0  0  0  0  0  0  0  0  0  0  0  0
  -19.0360  -30.0620   23.9320 C   0  0  0  0  0  3  0  0  0  0  0  0
  -17.7470  -30.5810   24.1540 C   0  0  0  0  0  3  0  0  0  0  0  0
  -16.6170  -29.8440   23.7620 C   0  0  0  0  0  3  0  0  0  0  0  0
  -16.7770  -28.5950   23.1360 C   0  0  0  0  0  3  0  0  0  0  0  0
  -25.8650  -32.5060   23.7140 C   0  0  0  0  0  3  0  0  0  0  0  0
  -25.5270  -33.8910   24.0690 N   0  0  0  0  0  0  0  0  0  0  0  0
  -25.8200  -34.9610   23.3190 C   0  0  0  0  0  0  0  0  0  0  0  0
  -26.4770  -34.8900   22.2760 O   0  0  0  0  0  0  0  0  0  0  0  0
  -24.9520  -34.0200   24.8880 H   0  0  0  0  0  0  0  0  0  0  0  0
  -24.0400  -36.7090   23.0140 C   0  0  0  0  0  1  0  0  0  0  0  0
  -25.3040  -36.3300   23.8020 C   0  0  0  0  0  3  0  0  0  0  0  0
  -27.4280  -37.2580   24.6100 C   0  0  0  0  0  1  0  0  0  0  0  0
  -26.3050  -37.4120   23.6890 N   0  0  0  0  0  0  0  0  0  0  0  0
  -25.8760  -38.3180   23.8630 H   0  0  0  0  0  0  0  0  0  0  0  0
  -26.4100  -31.7260   24.9720 C   0  0  1  0  0  0  0  0  0  0  0  0
  -25.3340  -31.4440   26.0460 C   0  0  0  0  0  1  0  0  0  0  0  0
  -27.0220  -30.3700   24.5470 C   0  0  0  0  0  1  0  0  0  0  0  0
  -27.5490  -32.5350   25.6380 C   0  0  0  0  0  1  0  0  0  0  0  0
  1  2  1  0
  2  3  1  1
  4  2  1  0
  4  9  1  0
  5  7  1  0
  6  8  2  0
  6  9  1  0
  8 10  1  0
  9  5  2  0
 10 20  1  0
 10  7  2  0
 11 20  1  0
 12 17  1  0
 13 14  1  0
 13 12  1  0
 15 14  1  0
 15 24  1  0
 15 16  1  0
 17 11  1  0
 17 16  1  0
 18 11  2  0
 20 19  1  0
 21 22  2  0
 22 41  1  0
 23 22  1  0
 23 26  1  0
 24 25  1  0
 24 21  1  0
 25 23  2  0
 26 27  1  0
 27 28  2  0
 29 32  1  0
 29 28  1  0
 30 29  2  0
 31 30  1  0
 31 26  2  0
 32 33  1  0
 33 34  1  0
 34 35  2  0
 36 35  1  0
 36 40  1  0
 37 36  2  0
 38 33  2  0
 38 37  1  0
 39 38  1  0
 41 42  1  0
 42 45  1  0
 42 44  1  0
 43 41  2  0
 46 21  1  0
 46 47  1  0
 48 46  1  0
 49  2  1  0
 49 50  1  0
 50 51  1  0
 52 51  1  0
 53 64  2  0
 54 52  1  0
 54 59  1  0
 55 63  1  0
 55 65  1  0
 56 62  1  0
 56 58  1  0
 57 63  1  0
 58 57  1  0
 59 58  2  0
 60 61  1  0
 60 54  2  0
 61 56  2  0
 62 55  1  0
 63 53  1  0
 65 67  2  0
 66 65  1  0
 68 66  1  0
 69 78  2  0
 69 74  1  0
 70 66  1  0
 70 74  1  0
 71 70  1  0
 72 73  1  0
 72 71  1  0
 73 69  1  0
 74 75  2  0
 75 76  1  0
 77 76  2  0
 78 77  1  0
 79 53  1  0
 79 80  1  0
 79 89  1  0
 80 83  1  0
 81 85  1  0
 81 80  1  0
 82 81  2  0
 85 84  1  0
 87 85  1  0
 87 88  1  0
 87 86  1  0
 89 92  1  1
 89 90  1  0
 91 89  1  0
M  ISO  4  11 100  20 100  51 101  52 101
M  END
>  <TORSDO>  (28) 
F 21

>  <SCORE>  (28) 
-12.294

>  <name>  (28) 
28

>  <ligand_id>  (28) 
28

>  <original_smiles>  (28) 
[H]c1c([H])c([H])c2c(c1[H])C([H])([H])C([H])([H])C([H])([H])C2([H])N([H])C(=O)C1([H])N(C(=O)C([H])(N([H])C(=O)C([H])(N([H])C([H])([H])[H])C([H])([H])[H])C(C([H])([H])[H])(C([H])([H])[H])C([H])([H])[H])C([H])([H])c2c([H])c(OC([H])([H])C([H])([H])C([H])([H])[N+]([H])(C([H])([H])[H])C([H])([H])c3c([H])c([H])c(N(C(=O)N4C([H])([H])C([H])([H])C([H])([H])C([H])(n5nc(-c6c([H])c([H])c(Oc7c([H])c([H])c(F)c([H])c7F)c([H])c6[H])c(C(=O)N([H])[H])c5N([H])[H])C4([H])[H])C([H])([H])[H])c([H])c3[H])c([H])c([H])c2C1([H])[H]

>  <smiles>  (28) 
[H]c1c([H])c([H])c2c(c1[H])C([H])([H])C([H])([H])C([H])([H])C2([H])N([H])C(=O)C1([H])N(C(=O)C([H])(N([H])C(=O)C([H])(N([H])C([H])([H])[H])C([H])([H])[H])C(C([H])([H])[H])(C([H])([H])[H])C([H])([H])[H])C([H])([H])c2c([H])c(OC([H])([H])C([H])([H])C([H])([H])[N+]([H])(C([H])([H])[H])C([H])([H])c3c([H])c([H])c(N(C(=O)N4C([H])([H])C([H])([H])C([H])([H])C([H])(n5nc(-c6c([H])c([H])c(Oc7c([H])c([H])c(F)c([H])c7F)c([H])c6[H])c(C(=O)N([H])[H])c5N([H])[H])C4([H])[H])C([H])([H])[H])c([H])c3[H])c([H])c([H])c2C1([H])[H]

$$$$
29:0:0
     RDKit          3D

 96105  0  0  1  0  0  0  0  0999 V2000
  -28.0820  -21.8140   20.5050 N   0  0  0  0  0  0  0  0  0  0  0  0
  -27.5120  -24.0540   21.5400 C   0  0  0  0  0  2  0  0  0  0  0  0
  -29.6180  -23.7920   20.1770 C   0  0  0  0  0  2  0  0  0  0  0  0
  -28.0870  -25.3310   22.1850 C   0  0  0  0  0  2  0  0  0  0  0  0
  -30.2240  -25.0390   20.8650 C   0  0  0  0  0  2  0  0  0  0  0  0
  -28.6180  -23.0640   21.0960 C   0  0  0  0  0  3  0  0  0  0  0  0
  -29.1500  -26.0540   21.3130 C   0  0  0  0  0  3  0  0  0  0  0  0
  -28.6560  -26.6660   20.1180 O   0  0  0  0  0  0  0  0  0  0  0  0
  -24.5960  -31.6770   23.2550 C   0  0  0  0  0  0  0  0  0  0  0  0
  -27.4930  -27.3950   20.1870 C   0  0  0  0  0  0  0  0  0  0  0  0
  -23.4980  -30.2700   21.5430 C   0  0  0  0  0  3  0  0  0  0  0  0
  -25.0550  -28.8120   20.1450 C   0  0  0  0  0  0  0  0  0  0  0  0
  -26.0160  -30.7160   21.4480 C   0  0  0  0  0  2  0  0  0  0  0  0
  -26.1710  -29.3600   20.7920 C   0  0  0  0  0  0  0  0  0  0  0  0
  -27.3970  -28.6530   20.8240 C   0  0  0  0  0  3  0  0  0  0  0  0
  -26.3690  -26.8680   19.5250 C   0  0  0  0  0  3  0  0  0  0  0  0
  -25.1460  -27.5610   19.5140 C   0  0  0  0  0  3  0  0  0  0  0  0
  -23.7770  -29.6220   20.1600 C   0  0  0  0  0  2  0  0  0  0  0  0
  -24.7190  -30.9040   22.1400 N   0  0  0  0  0  0  0  0  0  0  0  0
  -23.4880  -31.8980   23.7630 O   0  0  0  0  0  0  0  0  0  0  0  0
  -22.8510  -29.2060   22.4590 C   0  0  0  0  0  0  0  0  0  0  0  0
  -21.5380  -28.9870   22.2850 N   0  0  0  0  0  0  0  0  0  0  0  0
  -23.5300  -28.5800   23.2760 O   0  0  0  0  0  0  0  0  0  0  0  0
  -21.0540  -29.5460   21.5950 H   0  0  0  0  0  0  0  0  0  0  0  0
  -18.1770  -27.7140   22.6800 C   0  0  0  0  0  0  0  0  0  0  0  0
  -20.7260  -28.0060   23.0030 C   0  0  0  0  0  3  0  0  0  0  0  0
  -20.8620  -26.6010   22.3750 C   0  0  0  0  0  2  0  0  0  0  0  0
  -19.7820  -26.2970   21.3310 C   0  0  0  0  0  2  0  0  0  0  0  0
  -18.3890  -26.3960   21.9570 C   0  0  0  0  0  2  0  0  0  0  0  0
  -19.2750  -28.4790   23.1570 C   0  0  0  0  0  0  0  0  0  0  0  0
  -19.0250  -29.7190   23.7850 C   0  0  0  0  0  3  0  0  0  0  0  0
  -17.7090  -30.1900   23.9490 C   0  0  0  0  0  3  0  0  0  0  0  0
  -16.6240  -29.4200   23.4920 C   0  0  0  0  0  3  0  0  0  0  0  0
  -16.8600  -28.1860   22.8610 C   0  0  0  0  0  3  0  0  0  0  0  0
  -25.8360  -32.3400   23.9310 C   0  0  0  0  0  3  0  0  0  0  0  0
  -25.4800  -33.7310   24.2400 N   0  0  0  0  0  0  0  0  0  0  0  0
  -25.7910  -34.7830   23.4710 C   0  0  0  0  0  0  0  0  0  0  0  0
  -26.4800  -34.6890   22.4510 O   0  0  0  0  0  0  0  0  0  0  0  0
  -24.8650  -33.8750   25.0280 H   0  0  0  0  0  0  0  0  0  0  0  0
  -24.0140  -36.5160   23.0680 C   0  0  0  0  0  1  0  0  0  0  0  0
  -25.2530  -36.1610   23.9050 C   0  0  0  0  0  3  0  0  0  0  0  0
  -27.3310  -37.1340   24.7800 C   0  0  0  0  0  1  0  0  0  0  0  0
  -26.2540  -37.2450   23.7990 N   0  0  0  0  0  0  0  0  0  0  0  0
  -25.8130  -38.1540   23.9140 H   0  0  0  0  0  0  0  0  0  0  0  0
  -26.3120  -31.5810   25.2290 C   0  0  1  0  0  0  0  0  0  0  0  0
  -25.1760  -31.3040   26.2410 C   0  0  0  0  0  1  0  0  0  0  0  0
  -26.9540  -30.2210   24.8660 C   0  0  0  0  0  1  0  0  0  0  0  0
  -27.4070  -32.4050   25.9450 C   0  0  0  0  0  1  0  0  0  0  0  0
  -28.8900  -18.1100   20.4500 C   0  0  0  0  0  3  0  0  0  0  0  0
  -30.8700  -19.3400   21.0970 C   0  0  0  0  0  3  0  0  0  0  0  0
  -28.1860  -19.3330   20.3330 C   0  0  0  0  0  3  0  0  0  0  0  0
  -30.1670  -20.5580   20.9810 C   0  0  0  0  0  3  0  0  0  0  0  0
  -30.2450  -18.1020   20.8470 C   0  0  0  0  0  0  0  0  0  0  0  0
  -28.8010  -20.5870   20.6060 C   0  0  0  0  0  0  0  0  0  0  0  0
  -31.0710  -16.8260   21.0460 C   0  0  0  0  0  2  0  0  0  0  0  0
  -31.0240  -14.5370   20.0410 C   0  0  0  0  0  0  0  0  0  0  0  0
  -30.6310  -12.3690   18.9310 C   0  0  0  0  0  2  0  0  0  0  0  0
  -29.6250  -12.5630   17.7800 C   0  0  0  0  0  2  0  0  0  0  0  0
  -28.1780  -12.4360   18.2950 C   0  0  0  0  0  2  0  0  0  0  0  0
  -27.9180  -13.2910   19.5640 C   0  0  0  0  0  3  0  0  0  0  0  0
  -29.0340  -13.0880   20.6120 C   0  0  0  0  0  2  0  0  0  0  0  0
  -30.3230  -13.3740   19.9590 N   0  0  0  0  0  0  0  0  0  0  0  0
  -32.1020  -14.7050   19.4650 O   0  0  0  0  0  0  0  0  0  0  0  0
  -30.4410  -15.5360   20.7310 N   0  0  0  0  0  0  0  0  0  0  0  0
  -29.5450  -15.3430   21.1510 H   0  0  0  0  0  0  0  0  0  0  0  0
  -25.5880  -13.9250   20.4550 C   0  0  0  0  0  0  0  0  0  0  0  0
  -24.5290  -13.1640   20.8700 C   0  0  0  0  0  0  0  0  0  0  0  0
  -24.9550  -11.8040   20.7610 C   0  0  0  0  0  0  0  0  0  0  0  0
  -26.5930  -13.0300   20.1240 N   0  0  0  0  0  0  0  0  0  0  0  0
  -26.2200  -11.7470   20.3660 N   0  0  0  0  0  0  0  0  0  0  0  0
  -24.2130  -10.5520   20.9580 C   0  0  0  0  0  0  0  0  0  0  0  0
  -24.6270   -9.5910   21.9050 C   0  0  0  0  0  3  0  0  0  0  0  0
  -23.8860   -8.4030   22.0880 C   0  0  0  0  0  3  0  0  0  0  0  0
  -22.7180   -8.1690   21.3230 C   0  0  0  0  0  0  0  0  0  0  0  0
  -22.3250   -9.1190   20.3660 C   0  0  0  0  0  3  0  0  0  0  0  0
  -23.0650  -10.2990   20.1810 C   0  0  0  0  0  3  0  0  0  0  0  0
  -21.9520   -7.0330   21.4150 O   0  0  0  0  0  0  0  0  0  0  0  0
  -21.8010   -6.3590   22.5990 C   0  0  0  0  0  0  0  0  0  0  0  0
  -21.1670   -6.9470   23.7180 C   0  0  0  0  0  3  0  0  0  0  0  0
  -20.9730   -6.1950   24.8930 C   0  0  0  0  0  3  0  0  0  0  0  0
  -21.4030   -4.8560   24.9520 C   0  0  0  0  0  0  0  0  0  0  0  0
  -22.0290   -4.2670   23.8390 C   0  0  0  0  0  3  0  0  0  0  0  0
  -22.2250   -5.0170   22.6670 C   0  0  0  0  0  0  0  0  0  0  0  0
  -22.8090   -4.4370   21.5900 F   0  0  0  0  0  0  0  0  0  0  0  0
  -21.2090   -4.1310   26.0800 F   0  0  0  0  0  0  0  0  0  0  0  0
  -23.1670  -13.6620   21.2530 C   0  0  0  0  0  0  0  0  0  0  0  0
  -22.4790  -12.9470   22.1380 N   0  0  0  0  0  0  0  0  0  0  0  0
  -22.7210  -14.7170   20.8040 O   0  0  0  0  0  0  0  0  0  0  0  0
  -22.8500  -12.0910   22.5210 H   0  0  0  0  0  0  0  0  0  0  0  0
  -21.5670  -13.2610   22.4390 H   0  0  0  0  0  0  0  0  0  0  0  0
  -25.7720  -15.2970   20.3120 N   0  0  0  0  0  0  0  0  0  0  0  0
  -25.0260  -15.9620   20.4960 H   0  0  0  0  0  0  0  0  0  0  0  0
  -26.5960  -15.7300   19.9170 H   0  0  0  0  0  0  0  0  0  0  0  0
  -26.9190  -21.8650   19.6110 C   0  0  0  0  0  2  0  0  0  0  0  0
  -25.9860  -21.6410   17.2780 C   0  0  0  0  0  1  0  0  0  0  0  0
  -27.2520  -21.5810   18.1400 C   0  0  0  0  0  2  0  0  0  0  0  0
  1 54  1  0
  2  4  1  0
  3  5  1  0
  3  6  1  0
  5  7  1  0
  6  1  1  0
  6  2  1  0
  7  8  1  0
  7  4  1  0
  8 10  1  0
  9 20  2  0
 10 15  1  0
 11 19  1  0
 11 21  1  0
 12 18  1  0
 12 14  1  0
 13 19  1  0
 14 15  2  0
 14 13  1  0
 16 10  2  0
 17 16  1  0
 17 12  2  0
 18 11  1  0
 19  9  1  0
 21 23  2  0
 22 21  1  0
 24 22  1  0
 25 34  2  0
 25 30  1  0
 26 22  1  0
 26 30  1  0
 27 26  1  0
 28 29  1  0
 28 27  1  0
 29 25  1  0
 30 31  2  0
 31 32  1  0
 33 32  2  0
 34 33  1  0
 35  9  1  0
 35 36  1  0
 35 45  1  0
 36 39  1  0
 37 41  1  0
 37 36  1  0
 38 37  2  0
 41 40  1  0
 43 41  1  0
 43 44  1  0
 43 42  1  0
 45 48  1  1
 45 46  1  0
 47 45  1  0
 49 53  1  0
 51 49  2  0
 51 54  1  0
 52 50  1  0
 53 55  1  0
 53 50  2  0
 54 52  2  0
 56 64  1  0
 57 62  1  0
 58 59  1  0
 58 57  1  0
 60 59  1  0
 60 69  1  0
 60 61  1  0
 62 56  1  0
 62 61  1  0
 63 56  2  0
 64 55  1  0
 64 65  1  0
 66 67  2  0
 67 86  1  0
 68 67  1  0
 68 71  1  0
 69 70  1  0
 69 66  1  0
 70 68  2  0
 71 72  1  0
 72 73  2  0
 74 77  1  0
 74 73  1  0
 75 74  2  0
 76 75  1  0
 76 71  2  0
 77 78  1  0
 78 83  2  0
 78 79  1  0
 79 80  2  0
 80 81  1  0
 81 85  1  0
 82 81  2  0
 83 82  1  0
 84 83  1  0
 86 87  1  0
 87 90  1  0
 87 89  1  0
 88 86  2  0
 91 66  1  0
 91 92  1  0
 93 91  1  0
 94  1  1  0
 95 96  1  0
 96 94  1  0
M  ISO  4   7 101   8 101  56 100  64 100
M  END
>  <TORSDO>  (29) 
F 21

>  <SCORE>  (29) 
-13.305

>  <name>  (29) 
29

>  <ligand_id>  (29) 
29

>  <original_smiles>  (29) 
[H]c1c([H])c([H])c2c(c1[H])C([H])([H])C([H])([H])C([H])([H])C2([H])N([H])C(=O)C1([H])N(C(=O)C([H])(N([H])C(=O)C([H])(N([H])C([H])([H])[H])C([H])([H])[H])C(C([H])([H])[H])(C([H])([H])[H])C([H])([H])[H])C([H])([H])c2c([H])c(OC3([H])C([H])([H])C([H])([H])C([H])(N(c4c([H])c([H])c(C([H])([H])N([H])C(=O)N5C([H])([H])C([H])([H])C([H])([H])C([H])(n6nc(-c7c([H])c([H])c(Oc8c([H])c([H])c(F)c([H])c8F)c([H])c7[H])c(C(=O)N([H])[H])c6N([H])[H])C5([H])[H])c([H])c4[H])C([H])([H])C([H])([H])C([H])([H])[H])C([H])([H])C3([H])[H])c([H])c([H])c2C1([H])[H]

>  <smiles>  (29) 
[H]c1c([H])c([H])c2c(c1[H])C([H])([H])C([H])([H])C([H])([H])C2([H])N([H])C(=O)C1([H])N(C(=O)C([H])(N([H])C(=O)C([H])(N([H])C([H])([H])[H])C([H])([H])[H])C(C([H])([H])[H])(C([H])([H])[H])C([H])([H])[H])C([H])([H])c2c([H])c(OC3([H])C([H])([H])C([H])([H])C([H])(N(c4c([H])c([H])c(C([H])([H])N([H])C(=O)N5C([H])([H])C([H])([H])C([H])([H])C([H])(n6nc(-c7c([H])c([H])c(Oc8c([H])c([H])c(F)c([H])c8F)c([H])c7[H])c(C(=O)N([H])[H])c6N([H])[H])C5([H])[H])c([H])c4[H])C([H])([H])C([H])([H])C([H])([H])[H])C([H])([H])C3([H])[H])c([H])c([H])c2C1([H])[H]

$$$$
30:0:0
     RDKit          3D

 94102  0  0  1  0  0  0  0  0999 V2000
  -30.9280  -21.2370   23.1560 C   0  0  0  0  0  1  0  0  0  0  0  0
  -30.2350  -22.0320   22.1120 N   0  0  1  0  0  4  0  0  0  0  0  0
  -30.9080  -22.1440   21.3690 H   0  0  0  0  0  0  0  0  0  0  0  0
  -29.0710  -21.3140   21.5300 C   0  0  0  0  0  2  0  0  0  0  0  0
  -30.3490  -19.1410   18.6350 C   0  0  0  0  0  3  0  0  0  0  0  0
  -30.1380  -17.8420   19.1330 C   0  0  0  0  0  3  0  0  0  0  0  0
  -30.0140  -20.2630   19.4160 C   0  0  0  0  0  3  0  0  0  0  0  0
  -29.2650  -18.7840   21.2050 C   0  0  0  0  0  3  0  0  0  0  0  0
  -29.5940  -17.6520   20.4230 C   0  0  0  0  0  0  0  0  0  0  0  0
  -29.4680  -20.0910   20.7050 C   0  0  0  0  0  0  0  0  0  0  0  0
  -29.3030  -16.2440   20.9420 C   0  0  0  0  0  2  0  0  0  0  0  0
  -30.8180  -14.4720   20.0800 C   0  0  0  0  0  0  0  0  0  0  0  0
  -30.4060  -12.3100   18.9530 C   0  0  0  0  0  2  0  0  0  0  0  0
  -29.4380  -12.4640   17.7640 C   0  0  0  0  0  2  0  0  0  0  0  0
  -27.9770  -12.3470   18.2340 C   0  0  0  0  0  2  0  0  0  0  0  0
  -27.6780  -13.2550   19.4550 C   0  0  0  0  0  3  0  0  0  0  0  0
  -28.7530  -13.0710   20.5540 C   0  0  0  0  0  2  0  0  0  0  0  0
  -30.0730  -13.3360   19.9580 N   0  0  0  0  0  0  0  0  0  0  0  0
  -31.8650  -14.6370   19.4430 O   0  0  0  0  0  0  0  0  0  0  0  0
  -31.5300  -15.9220   21.8920 C   0  0  0  0  0  1  0  0  0  0  0  0
  -30.4710  -15.3500   21.0550 N   0  0  0  0  0  0  0  0  0  0  0  0
  -25.3230  -13.9500   20.2240 C   0  0  0  0  0  0  0  0  0  0  0  0
  -24.2430  -13.2160   20.6350 C   0  0  0  0  0  0  0  0  0  0  0  0
  -24.6620  -11.8500   20.6080 C   0  0  0  0  0  0  0  0  0  0  0  0
  -26.3320  -13.0330   19.9740 N   0  0  0  0  0  0  0  0  0  0  0  0
  -25.9390  -11.7680   20.2630 N   0  0  0  0  0  0  0  0  0  0  0  0
  -23.9060  -10.6130   20.8340 C   0  0  0  0  0  0  0  0  0  0  0  0
  -24.3290   -9.6520   21.7780 C   0  0  0  0  0  3  0  0  0  0  0  0
  -23.5750   -8.4770   21.9890 C   0  0  0  0  0  3  0  0  0  0  0  0
  -22.3860   -8.2550   21.2560 C   0  0  0  0  0  0  0  0  0  0  0  0
  -21.9820   -9.2040   20.3010 C   0  0  0  0  0  3  0  0  0  0  0  0
  -22.7350  -10.3710   20.0880 C   0  0  0  0  0  3  0  0  0  0  0  0
  -21.6040   -7.1320   21.3760 O   0  0  0  0  0  0  0  0  0  0  0  0
  -21.5430   -6.4190   22.5470 C   0  0  0  0  0  0  0  0  0  0  0  0
  -21.1620   -7.0210   23.7670 C   0  0  0  0  0  3  0  0  0  0  0  0
  -21.0460   -6.2360   24.9320 C   0  0  0  0  0  3  0  0  0  0  0  0
  -21.3030   -4.8530   24.8780 C   0  0  0  0  0  0  0  0  0  0  0  0
  -21.6780   -4.2530   23.6640 C   0  0  0  0  0  3  0  0  0  0  0  0
  -21.7960   -5.0330   22.5020 C   0  0  0  0  0  0  0  0  0  0  0  0
  -22.1370   -4.4460   21.3300 F   0  0  0  0  0  0  0  0  0  0  0  0
  -21.1850   -4.0990   25.9960 F   0  0  0  0  0  0  0  0  0  0  0  0
  -22.8680  -13.7370   20.9400 C   0  0  0  0  0  0  0  0  0  0  0  0
  -22.1480  -13.0770   21.8410 N   0  0  0  0  0  0  0  0  0  0  0  0
  -22.4430  -14.7650   20.4160 O   0  0  0  0  0  0  0  0  0  0  0  0
  -22.5060  -12.2450   22.2870 H   0  0  0  0  0  0  0  0  0  0  0  0
  -21.2270  -13.4080   22.0890 H   0  0  0  0  0  0  0  0  0  0  0  0
  -25.5200  -15.3130   20.0220 N   0  0  0  0  0  0  0  0  0  0  0  0
  -24.7720  -15.9860   20.1430 H   0  0  0  0  0  0  0  0  0  0  0  0
  -26.3610  -15.7230   19.6360 H   0  0  0  0  0  0  0  0  0  0  0  0
  -29.8980  -23.4030   22.5880 C   0  0  0  0  0  2  0  0  0  0  0  0
  -29.8110  -24.4440   21.4490 C   0  0  0  0  0  2  0  0  0  0  0  0
  -29.5880  -25.8840   21.9610 C   0  0  0  0  0  2  0  0  0  0  0  0
  -29.6230  -26.9430   20.8430 C   0  0  0  0  0  2  0  0  0  0  0  0
  -28.5190  -26.7660   19.9560 O   0  0  0  0  0  0  0  0  0  0  0  0
  -24.6500  -31.8790   23.1860 C   0  0  0  0  0  0  0  0  0  0  0  0
  -27.3710  -27.5240   20.0760 C   0  0  0  0  0  0  0  0  0  0  0  0
  -23.4540  -30.4680   21.5360 C   0  0  0  0  0  3  0  0  0  0  0  0
  -24.9290  -28.9590   20.1040 C   0  0  0  0  0  0  0  0  0  0  0  0
  -25.9670  -30.8780   21.3270 C   0  0  0  0  0  2  0  0  0  0  0  0
  -26.0740  -29.5080   20.6930 C   0  0  0  0  0  0  0  0  0  0  0  0
  -27.2930  -28.7990   20.6880 C   0  0  0  0  0  3  0  0  0  0  0  0
  -26.2090  -26.9890   19.4840 C   0  0  0  0  0  3  0  0  0  0  0  0
  -24.9880  -27.6920   19.4990 C   0  0  0  0  0  3  0  0  0  0  0  0
  -23.6690  -29.7940   20.1530 C   0  0  0  0  0  2  0  0  0  0  0  0
  -24.7080  -31.0890   22.0760 N   0  0  0  0  0  0  0  0  0  0  0  0
  -23.5680  -32.1310   23.7350 O   0  0  0  0  0  0  0  0  0  0  0  0
  -22.8250  -29.4340   22.4950 C   0  0  0  0  0  0  0  0  0  0  0  0
  -21.4990  -29.2460   22.3840 N   0  0  0  0  0  0  0  0  0  0  0  0
  -23.5230  -28.8020   23.2930 O   0  0  0  0  0  0  0  0  0  0  0  0
  -20.9970  -29.8100   21.7130 H   0  0  0  0  0  0  0  0  0  0  0  0
  -18.1370  -28.0420   22.9190 C   0  0  0  0  0  0  0  0  0  0  0  0
  -20.6980  -28.2960   23.1530 C   0  0  0  0  0  3  0  0  0  0  0  0
  -20.7910  -26.8750   22.5510 C   0  0  0  0  0  2  0  0  0  0  0  0
  -19.6730  -26.5690   21.5500 C   0  0  0  0  0  2  0  0  0  0  0  0
  -18.3020  -26.7040   22.2190 C   0  0  0  0  0  2  0  0  0  0  0  0
  -19.2630  -28.7970   23.3430 C   0  0  0  0  0  0  0  0  0  0  0  0
  -19.0540  -30.0520   23.9560 C   0  0  0  0  0  3  0  0  0  0  0  0
  -17.7540  -30.5520   24.1490 C   0  0  0  0  0  3  0  0  0  0  0  0
  -16.6420  -29.7930   23.7420 C   0  0  0  0  0  3  0  0  0  0  0  0
  -16.8350  -28.5400   23.1340 C   0  0  0  0  0  3  0  0  0  0  0  0
  -25.9320  -32.5220   23.8040 C   0  0  0  0  0  3  0  0  0  0  0  0
  -25.6080  -33.9120   24.1460 N   0  0  0  0  0  0  0  0  0  0  0  0
  -25.9280  -34.9730   23.3940 C   0  0  0  0  0  0  0  0  0  0  0  0
  -26.5980  -34.8860   22.3610 O   0  0  0  0  0  0  0  0  0  0  0  0
  -25.0140  -34.0530   24.9510 H   0  0  0  0  0  0  0  0  0  0  0  0
  -24.1770  -36.7440   23.0510 C   0  0  0  0  0  1  0  0  0  0  0  0
  -25.4230  -36.3520   23.8610 C   0  0  0  0  0  3  0  0  0  0  0  0
  -27.5490  -37.2530   24.6960 C   0  0  0  0  0  1  0  0  0  0  0  0
  -26.4410  -37.4180   23.7580 N   0  0  0  0  0  0  0  0  0  0  0  0
  -26.0240  -38.3310   23.9180 H   0  0  0  0  0  0  0  0  0  0  0  0
  -26.4730  -31.7440   25.0650 C   0  0  1  0  0  0  0  0  0  0  0  0
  -25.3930  -31.4760   26.1410 C   0  0  0  0  0  1  0  0  0  0  0  0
  -27.0730  -30.3810   24.6490 C   0  0  0  0  0  1  0  0  0  0  0  0
  -27.6180  -32.5480   25.7250 C   0  0  0  0  0  1  0  0  0  0  0  0
  2 50  1  0
  2  1  1  0
  2  3  1  6
  4  2  1  0
  5  6  2  0
  5  7  1  0
  6  9  1  0
  7 10  2  0
  9 11  1  0
  9  8  2  0
 10  8  1  0
 10  4  1  0
 11 21  1  0
 12 21  1  0
 13 18  1  0
 14 15  1  0
 14 13  1  0
 16 15  1  0
 16 25  1  0
 16 17  1  0
 18 12  1  0
 18 17  1  0
 19 12  2  0
 21 20  1  0
 22 23  2  0
 23 42  1  0
 24 23  1  0
 24 27  1  0
 25 22  1  0
 25 26  1  0
 26 24  2  0
 27 28  1  0
 28 29  2  0
 30 33  1  0
 30 29  1  0
 31 30  2  0
 32 31  1  0
 32 27  2  0
 33 34  1  0
 34 35  1  0
 35 36  2  0
 37 36  1  0
 37 41  1  0
 38 37  2  0
 39 34  2  0
 39 38  1  0
 40 39  1  0
 42 43  1  0
 43 46  1  0
 43 45  1  0
 44 42  2  0
 47 48  1  0
 47 22  1  0
 49 47  1  0
 51 52  1  0
 51 50  1  0
 53 52  1  0
 54 56  1  0
 54 53  1  0
 55 66  2  0
 56 61  1  0
 57 65  1  0
 57 67  1  0
 58 64  1  0
 58 60  1  0
 59 65  1  0
 60 59  1  0
 61 60  2  0
 62 63  1  0
 62 56  2  0
 63 58  2  0
 64 57  1  0
 65 55  1  0
 67 69  2  0
 68 67  1  0
 70 68  1  0
 71 80  2  0
 71 76  1  0
 72 68  1  0
 72 76  1  0
 73 72  1  0
 74 75  1  0
 74 73  1  0
 75 71  1  0
 76 77  2  0
 77 78  1  0
 79 78  2  0
 80 79  1  0
 81 55  1  0
 81 82  1  0
 81 91  1  0
 82 85  1  0
 83 87  1  0
 83 82  1  0
 84 83  2  0
 87 86  1  0
 89 87  1  0
 89 90  1  0
 89 88  1  0
 91 94  1  1
 91 92  1  0
 93 91  1  0
M  ISO  4  12 100  21 100  53 101  54 101
M  END
>  <TORSDO>  (30) 
F 23

>  <SCORE>  (30) 
-12.444

>  <name>  (30) 
30

>  <ligand_id>  (30) 
30

>  <original_smiles>  (30) 
[H]c1c([H])c([H])c2c(c1[H])C([H])([H])C([H])([H])C([H])([H])C2([H])N([H])C(=O)C1([H])N(C(=O)C([H])(N([H])C(=O)C([H])(N([H])C([H])([H])[H])C([H])([H])[H])C(C([H])([H])[H])(C([H])([H])[H])C([H])([H])[H])C([H])([H])c2c([H])c(OC([H])([H])C([H])([H])C([H])([H])C([H])([H])[N+]([H])(C([H])([H])[H])C([H])([H])c3c([H])c([H])c([H])c(C([H])([H])N(C(=O)N4C([H])([H])C([H])([H])C([H])([H])C([H])(n5nc(-c6c([H])c([H])c(Oc7c([H])c([H])c(F)c([H])c7F)c([H])c6[H])c(C(=O)N([H])[H])c5N([H])[H])C4([H])[H])C([H])([H])[H])c3[H])c([H])c([H])c2C1([H])[H]

>  <smiles>  (30) 
[H]c1c([H])c([H])c2c(c1[H])C([H])([H])C([H])([H])C([H])([H])C2([H])N([H])C(=O)C1([H])N(C(=O)C([H])(N([H])C(=O)C([H])(N([H])C([H])([H])[H])C([H])([H])[H])C(C([H])([H])[H])(C([H])([H])[H])C([H])([H])[H])C([H])([H])c2c([H])c(OC([H])([H])C([H])([H])C([H])([H])C([H])([H])[N+]([H])(C([H])([H])[H])C([H])([H])c3c([H])c([H])c([H])c(C([H])([H])N(C(=O)N4C([H])([H])C([H])([H])C([H])([H])C([H])(n5nc(-c6c([H])c([H])c(Oc7c([H])c([H])c(F)c([H])c7F)c([H])c6[H])c(C(=O)N([H])[H])c5N([H])[H])C4([H])[H])C([H])([H])[H])c3[H])c([H])c([H])c2C1([H])[H]

$$$$
31:0:0
     RDKit          3D

 92100  0  0  1  0  0  0  0  0999 V2000
  -28.5120  -21.9260   19.7190 C   0  0  0  0  0  2  0  0  0  0  0  0
  -28.3720  -22.2600   22.2020 C   0  0  0  0  0  1  0  0  0  0  0  0
  -28.6610  -22.8800   20.8820 N   0  0  2  0  0  4  0  0  0  0  0  0
  -29.6480  -23.0960   20.9240 H   0  0  0  0  0  0  0  0  0  0  0  0
  -27.9450  -24.2150   20.7590 C   0  0  0  0  0  2  0  0  0  0  0  0
  -28.5020  -25.2610   19.7340 C   0  0  0  0  0  2  0  0  0  0  0  0
  -28.4260  -26.6560   20.1620 O   0  0  0  0  0  0  0  0  0  0  0  0
  -24.6010  -31.8680   23.2240 C   0  0  0  0  0  0  0  0  0  0  0  0
  -27.2440  -27.3870   20.1310 C   0  0  0  0  0  0  0  0  0  0  0  0
  -23.4000  -30.4750   21.5700 C   0  0  0  0  0  3  0  0  0  0  0  0
  -24.8550  -28.9360   20.1420 C   0  0  0  0  0  0  0  0  0  0  0  0
  -25.9310  -30.8170   21.3900 C   0  0  0  0  0  2  0  0  0  0  0  0
  -26.0150  -29.4440   20.7380 C   0  0  0  0  0  0  0  0  0  0  0  0
  -27.2090  -28.6780   20.7290 C   0  0  0  0  0  3  0  0  0  0  0  0
  -26.0600  -26.9030   19.5330 C   0  0  0  0  0  3  0  0  0  0  0  0
  -24.8750  -27.6670   19.5370 C   0  0  0  0  0  3  0  0  0  0  0  0
  -23.6160  -29.8040   20.1870 C   0  0  0  0  0  2  0  0  0  0  0  0
  -24.6610  -31.0710   22.1190 N   0  0  0  0  0  0  0  0  0  0  0  0
  -23.5180  -32.1400   23.7620 O   0  0  0  0  0  0  0  0  0  0  0  0
  -22.7440  -29.4510   22.5250 C   0  0  0  0  0  0  0  0  0  0  0  0
  -21.4190  -29.2720   22.3980 N   0  0  0  0  0  0  0  0  0  0  0  0
  -23.4250  -28.8190   23.3370 O   0  0  0  0  0  0  0  0  0  0  0  0
  -20.9290  -29.8350   21.7160 H   0  0  0  0  0  0  0  0  0  0  0  0
  -18.0410  -28.0820   22.8830 C   0  0  0  0  0  0  0  0  0  0  0  0
  -20.6000  -28.3310   23.1600 C   0  0  0  0  0  3  0  0  0  0  0  0
  -20.6980  -26.9040   22.5740 C   0  0  0  0  0  2  0  0  0  0  0  0
  -19.5980  -26.5920   21.5560 C   0  0  0  0  0  2  0  0  0  0  0  0
  -18.2140  -26.7370   22.1970 C   0  0  0  0  0  2  0  0  0  0  0  0
  -19.1610  -28.8360   23.3210 C   0  0  0  0  0  0  0  0  0  0  0  0
  -18.9460  -30.0950   23.9230 C   0  0  0  0  0  3  0  0  0  0  0  0
  -17.6430  -30.6000   24.0910 C   0  0  0  0  0  3  0  0  0  0  0  0
  -16.5370  -29.8430   23.6700 C   0  0  0  0  0  3  0  0  0  0  0  0
  -16.7360  -28.5860   23.0710 C   0  0  0  0  0  3  0  0  0  0  0  0
  -25.8840  -32.4970   23.8500 C   0  0  0  0  0  3  0  0  0  0  0  0
  -25.5760  -33.8950   24.1830 N   0  0  0  0  0  0  0  0  0  0  0  0
  -25.9130  -34.9490   23.4280 C   0  0  0  0  0  0  0  0  0  0  0  0
  -26.5880  -34.8470   22.3990 O   0  0  0  0  0  0  0  0  0  0  0  0
  -24.9800  -34.0490   24.9830 H   0  0  0  0  0  0  0  0  0  0  0  0
  -24.1910  -36.7440   23.0640 C   0  0  0  0  0  1  0  0  0  0  0  0
  -25.4250  -36.3360   23.8850 C   0  0  0  0  0  3  0  0  0  0  0  0
  -27.5540  -37.2130   24.7380 C   0  0  0  0  0  1  0  0  0  0  0  0
  -26.4610  -37.3860   23.7850 N   0  0  0  0  0  0  0  0  0  0  0  0
  -26.0570  -38.3060   23.9320 H   0  0  0  0  0  0  0  0  0  0  0  0
  -26.3970  -31.7210   25.1250 C   0  0  1  0  0  0  0  0  0  0  0  0
  -25.3000  -31.4820   26.1900 C   0  0  0  0  0  1  0  0  0  0  0  0
  -26.9790  -30.3440   24.7290 C   0  0  0  0  0  1  0  0  0  0  0  0
  -27.5460  -32.5110   25.7940 C   0  0  0  0  0  1  0  0  0  0  0  0
  -28.2580  -20.3800   19.9800 C   0  0  0  0  0  2  0  0  0  0  0  0
  -31.6720  -18.9050   21.1260 C   0  0  0  0  0  3  0  0  0  0  0  0
  -30.6770  -19.8390   20.7660 C   0  0  0  0  0  3  0  0  0  0  0  0
  -31.4060  -17.5190   21.1170 C   0  0  0  0  0  3  0  0  0  0  0  0
  -29.1320  -17.9910   20.4080 C   0  0  0  0  0  3  0  0  0  0  0  0
  -29.3850  -19.3990   20.4050 C   0  0  0  0  0  0  0  0  0  0  0  0
  -30.1340  -17.0310   20.7440 C   0  0  0  0  0  0  0  0  0  0  0  0
  -30.6200  -14.5520   20.4400 C   0  0  0  0  0  0  0  0  0  0  0  0
  -30.3640  -12.3460   19.3450 C   0  0  0  0  0  2  0  0  0  0  0  0
  -29.4350  -12.5220   18.1240 C   0  0  0  0  0  2  0  0  0  0  0  0
  -27.9540  -12.3950   18.5350 C   0  0  0  0  0  2  0  0  0  0  0  0
  -27.6010  -13.2400   19.7880 C   0  0  0  0  0  3  0  0  0  0  0  0
  -28.6480  -13.0440   20.9090 C   0  0  0  0  0  2  0  0  0  0  0  0
  -29.9700  -13.3560   20.3430 N   0  0  0  0  0  0  0  0  0  0  0  0
  -31.7910  -14.6890   20.0700 O   0  0  0  0  0  0  0  0  0  0  0  0
  -29.8300  -15.6160   20.7470 N   0  0  0  0  0  0  0  0  0  0  0  0
  -28.8610  -15.3770   20.8870 H   0  0  0  0  0  0  0  0  0  0  0  0
  -25.2000  -13.8570   20.4660 C   0  0  0  0  0  0  0  0  0  0  0  0
  -24.1260  -13.0900   20.8290 C   0  0  0  0  0  0  0  0  0  0  0  0
  -24.5840  -11.7380   20.8190 C   0  0  0  0  0  0  0  0  0  0  0  0
  -26.2450  -12.9710   20.2570 N   0  0  0  0  0  0  0  0  0  0  0  0
  -25.8790  -11.6930   20.5270 N   0  0  0  0  0  0  0  0  0  0  0  0
  -23.8520  -10.4780   21.0110 C   0  0  0  0  0  0  0  0  0  0  0  0
  -24.2690   -9.5220   21.9630 C   0  0  0  0  0  3  0  0  0  0  0  0
  -23.5390   -8.3280   22.1440 C   0  0  0  0  0  3  0  0  0  0  0  0
  -22.3780   -8.0820   21.3750 C   0  0  0  0  0  0  0  0  0  0  0  0
  -21.9790   -9.0290   20.4140 C   0  0  0  0  0  3  0  0  0  0  0  0
  -22.7100  -10.2140   20.2300 C   0  0  0  0  0  3  0  0  0  0  0  0
  -21.6240   -6.9360   21.4620 O   0  0  0  0  0  0  0  0  0  0  0  0
  -21.5590   -6.2040   22.6210 C   0  0  0  0  0  0  0  0  0  0  0  0
  -21.1070   -6.7690   23.8340 C   0  0  0  0  0  3  0  0  0  0  0  0
  -20.9890   -5.9640   24.9850 C   0  0  0  0  0  3  0  0  0  0  0  0
  -21.3150   -4.5950   24.9230 C   0  0  0  0  0  0  0  0  0  0  0  0
  -21.7590   -4.0310   23.7140 C   0  0  0  0  0  3  0  0  0  0  0  0
  -21.8780   -4.8330   22.5670 C   0  0  0  0  0  0  0  0  0  0  0  0
  -22.2880   -4.2800   21.3990 F   0  0  0  0  0  0  0  0  0  0  0  0
  -21.1940   -3.8200   26.0260 F   0  0  0  0  0  0  0  0  0  0  0  0
  -22.7260  -13.5750   21.0730 C   0  0  0  0  0  0  0  0  0  0  0  0
  -21.9800  -12.8950   21.9350 N   0  0  0  0  0  0  0  0  0  0  0  0
  -22.3020  -14.5950   20.5330 O   0  0  0  0  0  0  0  0  0  0  0  0
  -22.3310  -12.0710   22.3980 H   0  0  0  0  0  0  0  0  0  0  0  0
  -21.0420  -13.2120   22.1360 H   0  0  0  0  0  0  0  0  0  0  0  0
  -25.3660  -15.2260   20.2740 N   0  0  0  0  0  0  0  0  0  0  0  0
  -24.5880  -15.8720   20.3510 H   0  0  0  0  0  0  0  0  0  0  0  0
  -26.1980  -15.6530   19.8860 H   0  0  0  0  0  0  0  0  0  0  0  0
  1 48  1  0
  1  3  1  0
  3  4  1  1
  3  2  1  0
  5  3  1  0
  6  7  1  0
  6  5  1  0
  8 19  2  0
  9  7  1  0
  9 14  1  0
 10 18  1  0
 10 20  1  0
 11 17  1  0
 11 13  1  0
 12 18  1  0
 13 12  1  0
 14 13  2  0
 15 16  1  0
 15  9  2  0
 16 11  2  0
 17 10  1  0
 18  8  1  0
 20 22  2  0
 21 20  1  0
 23 21  1  0
 24 33  2  0
 24 29  1  0
 25 21  1  0
 25 29  1  0
 26 25  1  0
 27 28  1  0
 27 26  1  0
 28 24  1  0
 29 30  2  0
 30 31  1  0
 32 31  2  0
 33 32  1  0
 34  8  1  0
 34 35  1  0
 34 44  1  0
 35 38  1  0
 36 40  1  0
 36 35  1  0
 37 36  2  0
 40 39  1  0
 42 40  1  0
 42 43  1  0
 42 41  1  0
 44 47  1  1
 44 45  1  0
 46 44  1  0
 48 53  1  0
 50 49  2  0
 51 49  1  0
 52 54  1  0
 53 52  2  0
 53 50  1  0
 54 63  1  0
 54 51  2  0
 55 63  1  0
 56 61  1  0
 57 58  1  0
 57 56  1  0
 59 58  1  0
 59 68  1  0
 59 60  1  0
 61 55  1  0
 61 60  1  0
 62 55  2  0
 63 64  1  0
 65 66  2  0
 66 85  1  0
 67 66  1  0
 67 70  1  0
 68 65  1  0
 68 69  1  0
 69 67  2  0
 70 71  1  0
 71 72  2  0
 73 76  1  0
 73 72  1  0
 74 73  2  0
 75 74  1  0
 75 70  2  0
 76 77  1  0
 77 78  1  0
 78 79  2  0
 80 79  1  0
 80 84  1  0
 81 80  2  0
 82 77  2  0
 82 81  1  0
 83 82  1  0
 85 86  1  0
 86 89  1  0
 86 88  1  0
 87 85  2  0
 90 91  1  0
 90 65  1  0
 92 90  1  0
M  ISO  4   6 101   7 101  55 100  63 100
M  END
>  <TORSDO>  (31) 
F 21

>  <SCORE>  (31) 
-13.590

>  <name>  (31) 
31

>  <ligand_id>  (31) 
31

>  <original_smiles>  (31) 
[H]c1c([H])c([H])c2c(c1[H])C([H])([H])C([H])([H])C([H])([H])C2([H])N([H])C(=O)C1([H])N(C(=O)C([H])(N([H])C(=O)C([H])(N([H])C([H])([H])[H])C([H])([H])[H])C(C([H])([H])[H])(C([H])([H])[H])C([H])([H])[H])C([H])([H])c2c([H])c(OC([H])([H])C([H])([H])[N+]([H])(C([H])([H])[H])C([H])([H])C([H])([H])c3c([H])c([H])c([H])c(N([H])C(=O)N4C([H])([H])C([H])([H])C([H])([H])C([H])(n5nc(-c6c([H])c([H])c(Oc7c([H])c([H])c(F)c([H])c7F)c([H])c6[H])c(C(=O)N([H])[H])c5N([H])[H])C4([H])[H])c3[H])c([H])c([H])c2C1([H])[H]

>  <smiles>  (31) 
[H]c1c([H])c([H])c2c(c1[H])C([H])([H])C([H])([H])C([H])([H])C2([H])N([H])C(=O)C1([H])N(C(=O)C([H])(N([H])C(=O)C([H])(N([H])C([H])([H])[H])C([H])([H])[H])C(C([H])([H])[H])(C([H])([H])[H])C([H])([H])[H])C([H])([H])c2c([H])c(OC([H])([H])C([H])([H])[N+]([H])(C([H])([H])[H])C([H])([H])C([H])([H])c3c([H])c([H])c([H])c(N([H])C(=O)N4C([H])([H])C([H])([H])C([H])([H])C([H])(n5nc(-c6c([H])c([H])c(Oc7c([H])c([H])c(F)c([H])c7F)c([H])c6[H])c(C(=O)N([H])[H])c5N([H])[H])C4([H])[H])c3[H])c([H])c([H])c2C1([H])[H]

$$$$
32:0:0
     RDKit          3D

 93101  0  0  1  0  0  0  0  0999 V2000
  -29.2590  -21.8470   18.7810 C   0  0  0  0  0  1  0  0  0  0  0  0
  -29.0640  -22.2460   20.1960 N   0  0  1  0  0  4  0  0  0  0  0  0
  -28.1770  -22.7260   20.2100 H   0  0  0  0  0  0  0  0  0  0  0  0
  -28.8190  -21.1180   21.1510 C   0  0  0  0  0  2  0  0  0  0  0  0
  -30.5230  -19.2110   21.5130 C   0  0  0  0  0  3  0  0  0  0  0  0
  -30.8450  -17.8310   21.4340 C   0  0  0  0  0  3  0  0  0  0  0  0
  -28.6880  -18.8660   19.9660 C   0  0  0  0  0  3  0  0  0  0  0  0
  -29.3960  -19.7260   20.8300 C   0  0  0  0  0  0  0  0  0  0  0  0
  -30.0650  -16.9540   20.6430 C   0  0  0  0  0  0  0  0  0  0  0  0
  -29.0380  -17.5080   19.8390 C   0  0  0  0  0  0  0  0  0  0  0  0
  -28.1270  -16.5570   18.7260 Cl  0  0  0  0  0  0  0  0  0  0  0  0
  -30.8210  -14.5830   20.2900 C   0  0  0  0  0  0  0  0  0  0  0  0
  -30.5330  -12.3950   19.1830 C   0  0  0  0  0  2  0  0  0  0  0  0
  -29.5600  -12.6070   18.0040 C   0  0  0  0  0  2  0  0  0  0  0  0
  -28.1060  -12.4210   18.4750 C   0  0  0  0  0  2  0  0  0  0  0  0
  -27.7870  -13.2490   19.7460 C   0  0  0  0  0  3  0  0  0  0  0  0
  -28.8790  -13.0570   20.8250 C   0  0  0  0  0  2  0  0  0  0  0  0
  -30.1860  -13.3820   20.2160 N   0  0  0  0  0  0  0  0  0  0  0  0
  -31.9250  -14.8040   19.7790 O   0  0  0  0  0  0  0  0  0  0  0  0
  -30.0990  -15.5450   20.8890 N   0  0  0  0  0  0  0  0  0  0  0  0
  -29.2350  -15.1750   21.2510 H   0  0  0  0  0  0  0  0  0  0  0  0
  -25.4100  -13.8670   20.5040 C   0  0  0  0  0  0  0  0  0  0  0  0
  -24.3470  -13.0970   20.8850 C   0  0  0  0  0  0  0  0  0  0  0  0
  -24.8010  -11.7420   20.8250 C   0  0  0  0  0  0  0  0  0  0  0  0
  -26.4470  -12.9820   20.2490 N   0  0  0  0  0  0  0  0  0  0  0  0
  -26.0830  -11.6990   20.4910 N   0  0  0  0  0  0  0  0  0  0  0  0
  -24.0740  -10.4820   21.0140 C   0  0  0  0  0  0  0  0  0  0  0  0
  -24.5040   -9.5190   21.9540 C   0  0  0  0  0  3  0  0  0  0  0  0
  -23.7800   -8.3190   22.1260 C   0  0  0  0  0  3  0  0  0  0  0  0
  -22.6160   -8.0770   21.3600 C   0  0  0  0  0  0  0  0  0  0  0  0
  -22.2090   -9.0280   20.4080 C   0  0  0  0  0  3  0  0  0  0  0  0
  -22.9320  -10.2200   20.2340 C   0  0  0  0  0  3  0  0  0  0  0  0
  -21.8660   -6.9290   21.4420 O   0  0  0  0  0  0  0  0  0  0  0  0
  -21.7850   -6.2060   22.6060 C   0  0  0  0  0  0  0  0  0  0  0  0
  -21.2670   -6.7660   23.7950 C   0  0  0  0  0  3  0  0  0  0  0  0
  -21.1330   -5.9680   24.9480 C   0  0  0  0  0  3  0  0  0  0  0  0
  -21.5090   -4.6110   24.9140 C   0  0  0  0  0  0  0  0  0  0  0  0
  -22.0160   -4.0500   23.7300 C   0  0  0  0  0  3  0  0  0  0  0  0
  -22.1510   -4.8460   22.5780 C   0  0  0  0  0  0  0  0  0  0  0  0
  -22.6210   -4.2970   21.4320 F   0  0  0  0  0  0  0  0  0  0  0  0
  -21.3750   -3.8410   26.0180 F   0  0  0  0  0  0  0  0  0  0  0  0
  -22.9600  -13.5760   21.2020 C   0  0  0  0  0  0  0  0  0  0  0  0
  -22.2510  -12.8620   22.0690 N   0  0  0  0  0  0  0  0  0  0  0  0
  -22.5140  -14.6160   20.7200 O   0  0  0  0  0  0  0  0  0  0  0  0
  -22.6250  -12.0200   22.4810 H   0  0  0  0  0  0  0  0  0  0  0  0
  -21.3240  -13.1660   22.3290 H   0  0  0  0  0  0  0  0  0  0  0  0
  -25.5740  -15.2390   20.3360 N   0  0  0  0  0  0  0  0  0  0  0  0
  -24.7930  -15.8790   20.4030 H   0  0  0  0  0  0  0  0  0  0  0  0
  -26.4150  -15.6720   19.9710 H   0  0  0  0  0  0  0  0  0  0  0  0
  -30.0530  -23.2540   20.6790 C   0  0  0  0  0  2  0  0  0  0  0  0
  -29.8650  -24.6960   20.1140 C   0  0  0  0  0  2  0  0  0  0  0  0
  -28.5820  -25.4560   20.5360 C   0  0  0  0  0  2  0  0  0  0  0  0
  -28.6160  -26.8180   20.0730 O   0  0  0  0  0  0  0  0  0  0  0  0
  -24.6010  -31.8450   23.1550 C   0  0  0  0  0  0  0  0  0  0  0  0
  -27.4190  -27.5110   20.0680 C   0  0  0  0  0  0  0  0  0  0  0  0
  -23.4670  -30.4550   21.4520 C   0  0  0  0  0  3  0  0  0  0  0  0
  -24.9880  -28.9680   20.0410 C   0  0  0  0  0  0  0  0  0  0  0  0
  -25.9890  -30.8670   21.3240 C   0  0  0  0  0  2  0  0  0  0  0  0
  -26.1200  -29.5040   20.6710 C   0  0  0  0  0  0  0  0  0  0  0  0
  -27.3350  -28.7820   20.6840 C   0  0  0  0  0  3  0  0  0  0  0  0
  -26.2770  -26.9970   19.4160 C   0  0  0  0  0  3  0  0  0  0  0  0
  -25.0630  -27.7140   19.4100 C   0  0  0  0  0  3  0  0  0  0  0  0
  -23.7240  -29.7980   20.0680 C   0  0  0  0  0  2  0  0  0  0  0  0
  -24.7020  -31.0740   22.0360 N   0  0  0  0  0  0  0  0  0  0  0  0
  -23.5000  -32.0770   23.6780 O   0  0  0  0  0  0  0  0  0  0  0  0
  -22.8130  -29.4040   22.3780 C   0  0  0  0  0  0  0  0  0  0  0  0
  -21.4880  -29.2310   22.2420 N   0  0  0  0  0  0  0  0  0  0  0  0
  -23.4940  -28.7460   23.1690 O   0  0  0  0  0  0  0  0  0  0  0  0
  -21.0020  -29.8080   21.5710 H   0  0  0  0  0  0  0  0  0  0  0  0
  -18.1060  -28.0520   22.7050 C   0  0  0  0  0  0  0  0  0  0  0  0
  -20.6690  -28.2700   22.9780 C   0  0  0  0  0  3  0  0  0  0  0  0
  -20.7500  -26.8640   22.3460 C   0  0  0  0  0  2  0  0  0  0  0  0
  -19.6490  -26.6010   21.3140 C   0  0  0  0  0  2  0  0  0  0  0  0
  -18.2670  -26.7330   21.9640 C   0  0  0  0  0  2  0  0  0  0  0  0
  -19.2350  -28.7770   23.1690 C   0  0  0  0  0  0  0  0  0  0  0  0
  -19.0330  -30.0070   23.8290 C   0  0  0  0  0  3  0  0  0  0  0  0
  -17.7350  -30.5100   24.0370 C   0  0  0  0  0  3  0  0  0  0  0  0
  -16.6200  -29.7820   23.5870 C   0  0  0  0  0  3  0  0  0  0  0  0
  -16.8070  -28.5560   22.9220 C   0  0  0  0  0  3  0  0  0  0  0  0
  -25.8570  -32.4860   23.8250 C   0  0  0  0  0  3  0  0  0  0  0  0
  -25.5150  -33.8700   24.1760 N   0  0  0  0  0  0  0  0  0  0  0  0
  -25.8620  -34.9430   23.4480 C   0  0  0  0  0  0  0  0  0  0  0  0
  -26.5710  -34.8690   22.4410 O   0  0  0  0  0  0  0  0  0  0  0  0
  -24.8850  -34.0000   24.9540 H   0  0  0  0  0  0  0  0  0  0  0  0
  -24.1400  -36.7280   23.0440 C   0  0  0  0  0  1  0  0  0  0  0  0
  -25.3400  -36.3150   23.9130 C   0  0  0  0  0  3  0  0  0  0  0  0
  -27.4130  -37.1950   24.8880 C   0  0  0  0  0  1  0  0  0  0  0  0
  -26.3680  -37.3780   23.8830 N   0  0  0  0  0  0  0  0  0  0  0  0
  -25.9480  -38.2930   24.0190 H   0  0  0  0  0  0  0  0  0  0  0  0
  -26.3540  -31.6970   25.0970 C   0  0  1  0  0  0  0  0  0  0  0  0
  -25.2370  -31.4130   26.1320 C   0  0  0  0  0  1  0  0  0  0  0  0
  -26.9680  -30.3400   24.6880 C   0  0  0  0  0  1  0  0  0  0  0  0
  -27.4800  -32.4910   25.8000 C   0  0  0  0  0  1  0  0  0  0  0  0
  1  2  1  0
  2  3  1  6
  2 50  1  0
  2  4  1  0
  6  5  1  0
  7  8  1  0
  8  4  1  0
  8  5  2  0
  9 20  1  0
  9  6  2  0
 10  7  2  0
 10  9  1  0
 11 10  1  0
 12 20  1  0
 13 18  1  0
 14 15  1  0
 14 13  1  0
 16 15  1  0
 16 25  1  0
 16 17  1  0
 18 12  1  0
 18 17  1  0
 19 12  2  0
 20 21  1  0
 22 23  2  0
 23 42  1  0
 24 23  1  0
 24 27  1  0
 25 26  1  0
 25 22  1  0
 26 24  2  0
 27 28  1  0
 28 29  2  0
 30 33  1  0
 30 29  1  0
 31 30  2  0
 32 31  1  0
 32 27  2  0
 33 34  1  0
 34 35  1  0
 35 36  2  0
 37 36  1  0
 37 41  1  0
 38 37  2  0
 39 34  2  0
 39 38  1  0
 40 39  1  0
 42 43  1  0
 43 46  1  0
 43 45  1  0
 44 42  2  0
 47 48  1  0
 47 22  1  0
 49 47  1  0
 51 52  1  0
 51 50  1  0
 53 52  1  0
 54 65  2  0
 55 53  1  0
 55 60  1  0
 56 64  1  0
 56 66  1  0
 57 63  1  0
 57 59  1  0
 58 64  1  0
 59 60  2  0
 59 58  1  0
 61 55  2  0
 62 61  1  0
 62 57  2  0
 63 56  1  0
 64 54  1  0
 66 68  2  0
 67 66  1  0
 69 67  1  0
 70 79  2  0
 70 75  1  0
 71 67  1  0
 71 75  1  0
 72 71  1  0
 73 74  1  0
 73 72  1  0
 74 70  1  0
 75 76  2  0
 76 77  1  0
 78 77  2  0
 79 78  1  0
 80 54  1  0
 80 81  1  0
 80 90  1  0
 81 84  1  0
 82 86  1  0
 82 81  1  0
 83 82  2  0
 86 85  1  0
 88 86  1  0
 88 89  1  0
 88 87  1  0
 90 93  1  1
 90 91  1  0
 92 90  1  0
M  ISO  4  12 100  20 100  52 101  53 101
M  END
>  <TORSDO>  (32) 
F 21

>  <SCORE>  (32) 
-13.672

>  <name>  (32) 
32

>  <ligand_id>  (32) 
32

>  <original_smiles>  (32) 
[H]c1c([H])c([H])c2c(c1[H])C([H])([H])C([H])([H])C([H])([H])C2([H])N([H])C(=O)C1([H])N(C(=O)C([H])(N([H])C(=O)C([H])(N([H])C([H])([H])[H])C([H])([H])[H])C(C([H])([H])[H])(C([H])([H])[H])C([H])([H])[H])C([H])([H])c2c([H])c(OC([H])([H])C([H])([H])C([H])([H])[N+]([H])(C([H])([H])[H])C([H])([H])c3c([H])c([H])c(N([H])C(=O)N4C([H])([H])C([H])([H])C([H])([H])C([H])(n5nc(-c6c([H])c([H])c(Oc7c([H])c([H])c(F)c([H])c7F)c([H])c6[H])c(C(=O)N([H])[H])c5N([H])[H])C4([H])[H])c(Cl)c3[H])c([H])c([H])c2C1([H])[H]

>  <smiles>  (32) 
[H]c1c([H])c([H])c2c(c1[H])C([H])([H])C([H])([H])C([H])([H])C2([H])N([H])C(=O)C1([H])N(C(=O)C([H])(N([H])C(=O)C([H])(N([H])C([H])([H])[H])C([H])([H])[H])C(C([H])([H])[H])(C([H])([H])[H])C([H])([H])[H])C([H])([H])c2c([H])c(OC([H])([H])C([H])([H])C([H])([H])[N+]([H])(C([H])([H])[H])C([H])([H])c3c([H])c([H])c(N([H])C(=O)N4C([H])([H])C([H])([H])C([H])([H])C([H])(n5nc(-c6c([H])c([H])c(Oc7c([H])c([H])c(F)c([H])c7F)c([H])c6[H])c(C(=O)N([H])[H])c5N([H])[H])C4([H])[H])c(Cl)c3[H])c([H])c([H])c2C1([H])[H]

$$$$
33:0:0
     RDKit          3D

 93101  0  0  1  0  0  0  0  0999 V2000
  -27.0520  -22.7380   17.1740 C   0  0  0  0  0  1  0  0  0  0  0  0
  -27.7340  -22.3030   18.4150 N   0  0  1  0  0  4  0  0  0  0  0  0
  -27.2260  -21.4810   18.7080 H   0  0  0  0  0  0  0  0  0  0  0  0
  -29.1090  -21.8070   18.1990 C   0  0  0  0  0  2  0  0  0  0  0  0
  -29.6040  -18.7100   20.4040 C   0  0  0  0  0  3  0  0  0  0  0  0
  -29.2500  -18.0030   18.0980 C   0  0  0  0  0  3  0  0  0  0  0  0
  -29.4370  -20.0520   20.0110 C   0  0  0  0  0  3  0  0  0  0  0  0
  -29.0730  -19.3380   17.7040 C   0  0  0  0  0  3  0  0  0  0  0  0
  -29.5560  -17.6790   19.4400 C   0  0  0  0  0  0  0  0  0  0  0  0
  -29.2020  -20.3680   18.6540 C   0  0  0  0  0  0  0  0  0  0  0  0
  -29.9640  -16.2980   19.7500 C   0  0  0  0  0  3  0  0  0  0  0  0
  -29.9910  -15.7760   20.9260 N   0  0  0  0  0  2  0  0  0  0  0  0
  -30.4260  -15.6290   18.6700 F   0  0  0  0  0  0  0  0  0  0  0  0
  -30.7600  -14.6290   21.0000 C   0  0  0  0  0  0  0  0  0  0  0  0
  -30.5400  -12.4260   19.9640 C   0  0  0  0  0  2  0  0  0  0  0  0
  -29.7120  -12.5640   18.6680 C   0  0  0  0  0  2  0  0  0  0  0  0
  -28.2040  -12.4630   18.9660 C   0  0  0  0  0  2  0  0  0  0  0  0
  -27.7460  -13.3460   20.1570 C   0  0  0  0  0  3  0  0  0  0  0  0
  -28.7060  -13.2170   21.3600 C   0  0  0  0  0  2  0  0  0  0  0  0
  -30.0800  -13.4570   20.9030 N   0  0  0  0  0  0  0  0  0  0  0  0
  -31.9800  -14.6900   20.8460 O   0  0  0  0  0  0  0  0  0  0  0  0
  -25.2860  -13.9200   20.6520 C   0  0  0  0  0  0  0  0  0  0  0  0
  -24.2040  -13.1340   20.9450 C   0  0  0  0  0  0  0  0  0  0  0  0
  -24.6920  -11.7930   20.9930 C   0  0  0  0  0  0  0  0  0  0  0  0
  -26.3640  -13.0560   20.5350 N   0  0  0  0  0  0  0  0  0  0  0  0
  -26.0040  -11.7730   20.8020 N   0  0  0  0  0  0  0  0  0  0  0  0
  -23.9770  -10.5190   21.1480 C   0  0  0  0  0  0  0  0  0  0  0  0
  -24.3670   -9.5650   22.1120 C   0  0  0  0  0  3  0  0  0  0  0  0
  -23.6520   -8.3570   22.2570 C   0  0  0  0  0  3  0  0  0  0  0  0
  -22.5320   -8.0930   21.4330 C   0  0  0  0  0  0  0  0  0  0  0  0
  -22.1600   -9.0360   20.4590 C   0  0  0  0  0  3  0  0  0  0  0  0
  -22.8760  -10.2360   20.3140 C   0  0  0  0  0  3  0  0  0  0  0  0
  -21.7940   -6.9350   21.4850 O   0  0  0  0  0  0  0  0  0  0  0  0
  -21.7060   -6.1870   22.6320 C   0  0  0  0  0  0  0  0  0  0  0  0
  -21.2070   -6.7290   23.8370 C   0  0  0  0  0  3  0  0  0  0  0  0
  -21.0680   -5.9060   24.9730 C   0  0  0  0  0  3  0  0  0  0  0  0
  -21.4170   -4.5440   24.9050 C   0  0  0  0  0  0  0  0  0  0  0  0
  -21.9100   -4.0030   23.7040 C   0  0  0  0  0  3  0  0  0  0  0  0
  -22.0500   -4.8220   22.5700 C   0  0  0  0  0  0  0  0  0  0  0  0
  -22.5040   -4.2900   21.4100 F   0  0  0  0  0  0  0  0  0  0  0  0
  -21.2760   -3.7510   25.9930 F   0  0  0  0  0  0  0  0  0  0  0  0
  -22.7790  -13.5870   21.0770 C   0  0  0  0  0  0  0  0  0  0  0  0
  -21.9920  -12.9030   21.9000 N   0  0  0  0  0  0  0  0  0  0  0  0
  -22.3670  -14.5830   20.4860 O   0  0  0  0  0  0  0  0  0  0  0  0
  -22.3340  -12.0970   22.4020 H   0  0  0  0  0  0  0  0  0  0  0  0
  -21.0320  -13.1910   22.0320 H   0  0  0  0  0  0  0  0  0  0  0  0
  -25.4400  -15.2890   20.4570 N   0  0  0  0  0  0  0  0  0  0  0  0
  -24.6570  -15.9340   20.4960 H   0  0  0  0  0  0  0  0  0  0  0  0
  -26.3180  -15.7420   20.2380 H   0  0  0  0  0  0  0  0  0  0  0  0
  -27.6190  -23.2490   19.5490 C   0  0  0  0  0  2  0  0  0  0  0  0
  -28.3170  -24.6020   19.3070 C   0  0  0  0  0  2  0  0  0  0  0  0
  -28.2750  -25.4730   20.5660 C   0  0  0  0  0  2  0  0  0  0  0  0
  -28.3680  -26.8510   20.2280 O   0  0  0  0  0  0  0  0  0  0  0  0
  -24.5290  -31.9380   23.2980 C   0  0  0  0  0  0  0  0  0  0  0  0
  -27.1760  -27.5360   20.2100 C   0  0  0  0  0  0  0  0  0  0  0  0
  -23.3180  -30.5380   21.6570 C   0  0  0  0  0  3  0  0  0  0  0  0
  -24.7690  -29.0080   20.2280 C   0  0  0  0  0  0  0  0  0  0  0  0
  -25.8380  -30.9120   21.4460 C   0  0  0  0  0  2  0  0  0  0  0  0
  -25.9250  -29.5450   20.8060 C   0  0  0  0  0  0  0  0  0  0  0  0
  -27.1340  -28.8190   20.7890 C   0  0  0  0  0  3  0  0  0  0  0  0
  -25.9980  -26.9980   19.6390 C   0  0  0  0  0  3  0  0  0  0  0  0
  -24.7980  -27.7310   19.6420 C   0  0  0  0  0  3  0  0  0  0  0  0
  -23.5230  -29.8590   20.2760 C   0  0  0  0  0  2  0  0  0  0  0  0
  -24.5800  -31.1430   22.1930 N   0  0  0  0  0  0  0  0  0  0  0  0
  -23.4500  -32.2080   23.8440 O   0  0  0  0  0  0  0  0  0  0  0  0
  -22.6750  -29.5120   22.6170 C   0  0  0  0  0  0  0  0  0  0  0  0
  -21.3550  -29.3130   22.4780 N   0  0  0  0  0  0  0  0  0  0  0  0
  -23.3590  -28.9000   23.4400 O   0  0  0  0  0  0  0  0  0  0  0  0
  -20.8660  -29.8570   21.7820 H   0  0  0  0  0  0  0  0  0  0  0  0
  -17.9900  -28.0870   22.9450 C   0  0  0  0  0  0  0  0  0  0  0  0
  -20.5410  -28.3710   23.2450 C   0  0  0  0  0  3  0  0  0  0  0  0
  -20.6660  -26.9380   22.6790 C   0  0  0  0  0  2  0  0  0  0  0  0
  -19.5770  -26.5970   21.6550 C   0  0  0  0  0  2  0  0  0  0  0  0
  -18.1870  -26.7340   22.2820 C   0  0  0  0  0  2  0  0  0  0  0  0
  -19.0960  -28.8630   23.3830 C   0  0  0  0  0  0  0  0  0  0  0  0
  -18.8590  -30.1290   23.9590 C   0  0  0  0  0  3  0  0  0  0  0  0
  -17.5470  -30.6200   24.1050 C   0  0  0  0  0  3  0  0  0  0  0  0
  -16.4550  -29.8400   23.6850 C   0  0  0  0  0  3  0  0  0  0  0  0
  -16.6780  -28.5770   23.1100 C   0  0  0  0  0  3  0  0  0  0  0  0
  -25.8180  -32.5680   23.9130 C   0  0  0  0  0  3  0  0  0  0  0  0
  -25.5220  -33.9730   24.2130 N   0  0  0  0  0  0  0  0  0  0  0  0
  -25.8790  -35.0070   23.4380 C   0  0  0  0  0  0  0  0  0  0  0  0
  -26.5660  -34.8760   22.4210 O   0  0  0  0  0  0  0  0  0  0  0  0
  -24.9170  -34.1500   25.0010 H   0  0  0  0  0  0  0  0  0  0  0  0
  -24.1890  -36.8150   23.0040 C   0  0  0  0  0  1  0  0  0  0  0  0
  -25.3990  -36.4080   23.8600 C   0  0  0  0  0  3  0  0  0  0  0  0
  -27.5210  -37.2730   24.7390 C   0  0  0  0  0  1  0  0  0  0  0  0
  -26.4500  -37.4440   23.7610 N   0  0  0  0  0  0  0  0  0  0  0  0
  -26.0540  -38.3730   23.8820 H   0  0  0  0  0  0  0  0  0  0  0  0
  -26.3210  -31.8130   25.2030 C   0  0  1  0  0  0  0  0  0  0  0  0
  -25.2180  -31.5950   26.2650 C   0  0  0  0  0  1  0  0  0  0  0  0
  -26.9030  -30.4290   24.8330 C   0  0  0  0  0  1  0  0  0  0  0  0
  -27.4690  -32.6140   25.8620 C   0  0  0  0  0  1  0  0  0  0  0  0
  1  2  1  0
  2  3  1  1
  2 50  1  0
  4  2  1  0
  4 10  1  0
  6  9  1  0
  7  5  1  0
  8  6  2  0
  8 10  1  0
  9 11  1  0
  9  5  2  0
 10  7  2  0
 11 13  1  0
 11 12  1  0
 12 14  1  0
 15 20  1  0
 16 17  1  0
 16 15  1  0
 18 17  1  0
 18 25  1  0
 18 19  1  0
 20 14  1  0
 20 19  1  0
 21 14  2  0
 22 23  2  0
 23 24  1  0
 23 42  1  0
 24 27  1  0
 25 22  1  0
 25 26  1  0
 26 24  2  0
 27 28  1  0
 28 29  2  0
 30 33  1  0
 30 29  1  0
 31 30  2  0
 32 31  1  0
 32 27  2  0
 33 34  1  0
 34 35  1  0
 35 36  2  0
 37 36  1  0
 37 41  1  0
 38 37  2  0
 39 34  2  0
 39 38  1  0
 40 39  1  0
 42 43  1  0
 43 46  1  0
 43 45  1  0
 44 42  2  0
 47 48  1  0
 47 22  1  0
 49 47  1  0
 51 50  1  0
 51 52  1  0
 53 52  1  0
 54 65  2  0
 55 53  1  0
 55 60  1  0
 56 64  1  0
 56 66  1  0
 57 63  1  0
 57 59  1  0
 58 64  1  0
 59 58  1  0
 60 59  2  0
 61 62  1  0
 61 55  2  0
 62 57  2  0
 63 56  1  0
 64 54  1  0
 66 68  2  0
 67 66  1  0
 69 67  1  0
 70 79  2  0
 70 75  1  0
 71 67  1  0
 71 75  1  0
 72 71  1  0
 73 74  1  0
 73 72  1  0
 74 70  1  0
 75 76  2  0
 76 77  1  0
 78 77  2  0
 79 78  1  0
 80 54  1  0
 80 81  1  0
 80 90  1  0
 81 84  1  0
 82 86  1  0
 82 81  1  0
 83 82  2  0
 86 85  1  0
 88 86  1  0
 88 89  1  0
 88 87  1  0
 90 93  1  1
 90 91  1  0
 92 90  1  0
M  ISO  4  12 100  14 100  52 101  53 101
M  END
>  <TORSDO>  (33) 
F 22

>  <SCORE>  (33) 
-12.631

>  <name>  (33) 
33

>  <ligand_id>  (33) 
33

>  <original_smiles>  (33) 
[H]c1c([H])c([H])c2c(c1[H])C([H])([H])C([H])([H])C([H])([H])C2([H])N([H])C(=O)C1([H])N(C(=O)C([H])(N([H])C(=O)C([H])(N([H])C([H])([H])[H])C([H])([H])[H])C(C([H])([H])[H])(C([H])([H])[H])C([H])([H])[H])C([H])([H])c2c([H])c(OC([H])([H])C([H])([H])C([H])([H])[N+]([H])(C([H])([H])[H])C([H])([H])c3c([H])c([H])c(C(F)=NC(=O)N4C([H])([H])C([H])([H])C([H])([H])C([H])(n5nc(-c6c([H])c([H])c(Oc7c([H])c([H])c(F)c([H])c7F)c([H])c6[H])c(C(=O)N([H])[H])c5N([H])[H])C4([H])[H])c([H])c3[H])c([H])c([H])c2C1([H])[H]

>  <smiles>  (33) 
[H]c1c([H])c([H])c2c(c1[H])C([H])([H])C([H])([H])C([H])([H])C2([H])N([H])C(=O)C1([H])N(C(=O)C([H])(N([H])C(=O)C([H])(N([H])C([H])([H])[H])C([H])([H])[H])C(C([H])([H])[H])(C([H])([H])[H])C([H])([H])[H])C([H])([H])c2c([H])c(OC([H])([H])C([H])([H])C([H])([H])[N+]([H])(C([H])([H])[H])C([H])([H])c3c([H])c([H])c(C(F)=NC(=O)N4C([H])([H])C([H])([H])C([H])([H])C([H])(n5nc(-c6c([H])c([H])c(Oc7c([H])c([H])c(F)c([H])c7F)c([H])c6[H])c(C(=O)N([H])[H])c5N([H])[H])C4([H])[H])c([H])c3[H])c([H])c([H])c2C1([H])[H]

$$$$
34:0:0
     RDKit          3D

 97105  0  0  1  0  0  0  0  0999 V2000
  -30.9750  -21.0480   19.2940 C   0  0  0  0  0  0  0  0  0  0  0  0
  -31.1800  -23.4210   19.8230 C   0  0  0  0  0  3  0  0  0  0  0  0
  -32.4320  -23.7080   19.0250 C   0  0  0  0  0  1  0  0  0  0  0  0
  -31.4810  -21.1580   18.0580 N   0  0  0  0  0  4  0  0  0  0  0  0
  -30.7000  -22.1530   20.0280 N   0  0  0  0  0  0  0  0  0  0  0  0
  -30.5980  -24.5180   20.3680 N   0  0  0  0  0  0  0  0  0  0  0  0
  -31.6000  -20.3220   17.5100 H   0  0  0  0  0  0  0  0  0  0  0  0
  -31.5330  -22.0480   17.5930 H   0  0  0  0  0  0  0  0  0  0  0  0
  -30.1450  -21.9640   20.8460 H   0  0  0  0  0  0  0  0  0  0  0  0
  -31.0470  -25.4130   20.2040 H   0  0  0  0  0  0  0  0  0  0  0  0
  -31.7640  -18.7280   19.6340 C   0  0  0  0  0  3  0  0  0  0  0  0
  -29.5200  -19.2620   20.3900 C   0  0  0  0  0  3  0  0  0  0  0  0
  -31.5770  -17.3870   20.0160 C   0  0  0  0  0  3  0  0  0  0  0  0
  -29.3340  -17.9080   20.7690 C   0  0  0  0  0  3  0  0  0  0  0  0
  -30.7340  -19.6790   19.7930 C   0  0  0  0  0  0  0  0  0  0  0  0
  -30.3430  -16.9370   20.5570 C   0  0  0  0  0  0  0  0  0  0  0  0
  -30.7080  -14.4640   20.4490 C   0  0  0  0  0  0  0  0  0  0  0  0
  -30.3390  -12.3050   19.3430 C   0  0  0  0  0  2  0  0  0  0  0  0
  -29.4250  -12.5330   18.1260 C   0  0  0  0  0  2  0  0  0  0  0  0
  -27.9470  -12.4080   18.5440 C   0  0  0  0  0  2  0  0  0  0  0  0
  -27.6030  -13.2570   19.7980 C   0  0  0  0  0  3  0  0  0  0  0  0
  -28.6510  -13.0630   20.9190 C   0  0  0  0  0  2  0  0  0  0  0  0
  -29.9850  -13.3160   20.3540 N   0  0  0  0  0  0  0  0  0  0  0  0
  -31.8640  -14.5260   20.0330 O   0  0  0  0  0  0  0  0  0  0  0  0
  -30.0450  -15.5630   20.8650 N   0  0  0  0  0  0  0  0  0  0  0  0
  -29.1220  -15.3850   21.2270 H   0  0  0  0  0  0  0  0  0  0  0  0
  -25.2010  -13.8660   20.4920 C   0  0  0  0  0  0  0  0  0  0  0  0
  -24.1290  -13.0960   20.8540 C   0  0  0  0  0  0  0  0  0  0  0  0
  -24.5890  -11.7450   20.8320 C   0  0  0  0  0  0  0  0  0  0  0  0
  -26.2460  -12.9830   20.2710 N   0  0  0  0  0  0  0  0  0  0  0  0
  -25.8830  -11.7020   20.5380 N   0  0  0  0  0  0  0  0  0  0  0  0
  -23.8590  -10.4840   21.0220 C   0  0  0  0  0  0  0  0  0  0  0  0
  -24.2790   -9.5200   21.9660 C   0  0  0  0  0  3  0  0  0  0  0  0
  -23.5500   -8.3230   22.1400 C   0  0  0  0  0  3  0  0  0  0  0  0
  -22.3870   -8.0820   21.3720 C   0  0  0  0  0  0  0  0  0  0  0  0
  -21.9860   -9.0330   20.4170 C   0  0  0  0  0  3  0  0  0  0  0  0
  -22.7150  -10.2200   20.2400 C   0  0  0  0  0  3  0  0  0  0  0  0
  -21.6290   -6.9400   21.4580 O   0  0  0  0  0  0  0  0  0  0  0  0
  -21.5650   -6.2020   22.6140 C   0  0  0  0  0  0  0  0  0  0  0  0
  -21.1190   -6.7620   23.8310 C   0  0  0  0  0  3  0  0  0  0  0  0
  -21.0020   -5.9510   24.9780 C   0  0  0  0  0  3  0  0  0  0  0  0
  -21.3230   -4.5810   24.9070 C   0  0  0  0  0  0  0  0  0  0  0  0
  -21.7630   -4.0230   23.6950 C   0  0  0  0  0  3  0  0  0  0  0  0
  -21.8810   -4.8310   22.5510 C   0  0  0  0  0  0  0  0  0  0  0  0
  -22.2850   -4.2820   21.3790 F   0  0  0  0  0  0  0  0  0  0  0  0
  -21.2050   -3.7990   26.0060 F   0  0  0  0  0  0  0  0  0  0  0  0
  -22.7300  -13.5760   21.1090 C   0  0  0  0  0  0  0  0  0  0  0  0
  -21.9890  -12.8820   21.9660 N   0  0  0  0  0  0  0  0  0  0  0  0
  -22.3030  -14.6040   20.5850 O   0  0  0  0  0  0  0  0  0  0  0  0
  -22.3440  -12.0500   22.4120 H   0  0  0  0  0  0  0  0  0  0  0  0
  -21.0490  -13.1890   22.1770 H   0  0  0  0  0  0  0  0  0  0  0  0
  -25.3670  -15.2360   20.3110 N   0  0  0  0  0  0  0  0  0  0  0  0
  -24.5940  -15.8840   20.4100 H   0  0  0  0  0  0  0  0  0  0  0  0
  -26.2120  -15.6760   19.9710 H   0  0  0  0  0  0  0  0  0  0  0  0
  -29.3410  -24.6410   21.1200 C   0  0  0  0  0  2  0  0  0  0  0  0
  -28.2500  -25.2950   20.2630 C   0  0  0  0  0  2  0  0  0  0  0  0
  -28.4150  -26.7180   20.2200 O   0  0  0  0  0  0  0  0  0  0  0  0
  -24.5910  -31.8790   23.2250 C   0  0  0  0  0  0  0  0  0  0  0  0
  -27.2510  -27.4500   20.1650 C   0  0  0  0  0  0  0  0  0  0  0  0
  -23.3940  -30.4760   21.5810 C   0  0  0  0  0  3  0  0  0  0  0  0
  -24.8540  -28.9420   20.1610 C   0  0  0  0  0  0  0  0  0  0  0  0
  -25.9200  -30.8380   21.3940 C   0  0  0  0  0  2  0  0  0  0  0  0
  -26.0070  -29.4680   20.7570 C   0  0  0  0  0  0  0  0  0  0  0  0
  -27.2090  -28.7290   20.7590 C   0  0  0  0  0  3  0  0  0  0  0  0
  -26.0860  -26.9470   19.5410 C   0  0  0  0  0  3  0  0  0  0  0  0
  -24.8870  -27.6800   19.5500 C   0  0  0  0  0  3  0  0  0  0  0  0
  -23.6060  -29.7950   20.2030 C   0  0  0  0  0  2  0  0  0  0  0  0
  -24.6540  -31.0800   22.1230 N   0  0  0  0  0  0  0  0  0  0  0  0
  -23.5100  -32.1490   23.7640 O   0  0  0  0  0  0  0  0  0  0  0  0
  -22.7420  -29.4530   22.5390 C   0  0  0  0  0  0  0  0  0  0  0  0
  -21.4190  -29.2720   22.4130 N   0  0  0  0  0  0  0  0  0  0  0  0
  -23.4270  -28.8240   23.3520 O   0  0  0  0  0  0  0  0  0  0  0  0
  -20.9290  -29.8340   21.7300 H   0  0  0  0  0  0  0  0  0  0  0  0
  -18.0380  -28.1040   22.9170 C   0  0  0  0  0  0  0  0  0  0  0  0
  -20.5990  -28.3340   23.1800 C   0  0  0  0  0  3  0  0  0  0  0  0
  -20.6880  -26.9060   22.5920 C   0  0  0  0  0  2  0  0  0  0  0  0
  -19.5770  -26.6020   21.5830 C   0  0  0  0  0  2  0  0  0  0  0  0
  -18.1990  -26.7590   22.2330 C   0  0  0  0  0  2  0  0  0  0  0  0
  -19.1660  -28.8520   23.3470 C   0  0  0  0  0  0  0  0  0  0  0  0
  -18.9630  -30.1170   23.9430 C   0  0  0  0  0  3  0  0  0  0  0  0
  -17.6640  -30.6290   24.1200 C   0  0  0  0  0  3  0  0  0  0  0  0
  -16.5500  -29.8780   23.7060 C   0  0  0  0  0  3  0  0  0  0  0  0
  -16.7380  -28.6190   23.1070 C   0  0  0  0  0  3  0  0  0  0  0  0
  -25.8740  -32.5140   23.8470 C   0  0  0  0  0  3  0  0  0  0  0  0
  -26.3900  -31.7440   25.1240 C   0  0  1  0  0  0  0  0  0  0  0  0
  -25.2950  -31.5090   26.1910 C   0  0  0  0  0  1  0  0  0  0  0  0
  -26.9790  -30.3700   24.7320 C   0  0  0  0  0  1  0  0  0  0  0  0
  -27.5390  -32.5400   25.7860 C   0  0  0  0  0  1  0  0  0  0  0  0
  -25.5620  -33.9100   24.1720 N   0  0  0  0  0  0  0  0  0  0  0  0
  -25.8990  -34.9620   23.4140 C   0  0  0  0  0  0  0  0  0  0  0  0
  -26.5730  -34.8570   22.3850 O   0  0  0  0  0  0  0  0  0  0  0  0
  -24.9660  -34.0650   24.9740 H   0  0  0  0  0  0  0  0  0  0  0  0
  -24.1730  -36.7500   23.0360 C   0  0  0  0  0  1  0  0  0  0  0  0
  -25.4050  -36.3490   23.8640 C   0  0  0  0  0  3  0  0  0  0  0  0
  -27.5300  -37.2320   24.7180 C   0  0  0  0  0  1  0  0  0  0  0  0
  -26.4370  -37.4030   23.7650 N   0  0  0  0  0  0  0  0  0  0  0  0
  -26.0270  -38.3210   23.9140 H   0  0  0  0  0  0  0  0  0  0  0  0
  1 15  1  0
  1  5  1  0
  2  3  1  0
  2  5  1  0
  2  6  1  0
  4  1  2  0
  5  9  1  0
  6 55  1  0
  7  4  1  0
  8  4  1  0
 10  6  1  0
 11 15  2  0
 11 13  1  0
 12 14  2  0
 13 16  2  0
 15 12  1  0
 16 14  1  0
 16 25  1  0
 17 25  1  0
 18 23  1  0
 19 20  1  0
 19 18  1  0
 21 20  1  0
 21 30  1  0
 21 22  1  0
 23 17  1  0
 23 22  1  0
 24 17  2  0
 25 26  1  0
 27 28  2  0
 28 47  1  0
 29 28  1  0
 29 32  1  0
 30 27  1  0
 30 31  1  0
 31 29  2  0
 32 33  1  0
 33 34  2  0
 35 38  1  0
 35 34  1  0
 36 35  2  0
 37 36  1  0
 37 32  2  0
 38 39  1  0
 39 40  1  0
 40 41  2  0
 42 41  1  0
 42 46  1  0
 43 42  2  0
 44 39  2  0
 44 43  1  0
 45 44  1  0
 47 48  1  0
 48 51  1  0
 48 50  1  0
 49 47  2  0
 52 53  1  0
 52 27  1  0
 54 52  1  0
 56 55  1  0
 57 56  1  0
 58 69  2  0
 59 57  1  0
 59 64  1  0
 60 68  1  0
 60 70  1  0
 61 67  1  0
 61 63  1  0
 62 68  1  0
 63 64  2  0
 63 62  1  0
 65 66  1  0
 65 59  2  0
 66 61  2  0
 67 60  1  0
 68 58  1  0
 70 72  2  0
 71 70  1  0
 73 71  1  0
 74 83  2  0
 74 79  1  0
 75 71  1  0
 75 79  1  0
 76 75  1  0
 77 78  1  0
 77 76  1  0
 78 74  1  0
 79 80  2  0
 80 81  1  0
 82 81  2  0
 83 82  1  0
 84 58  1  0
 84 89  1  0
 84 85  1  0
 85 88  1  1
 85 86  1  0
 87 85  1  0
 89 92  1  0
 90 94  1  0
 90 89  1  0
 91 90  2  0
 94 93  1  0
 96 94  1  0
 96 97  1  0
 96 95  1  0
M  ISO  4  17 100  25 100  56 101  57 101
M  END
>  <TORSDO>  (34) 
F 19

>  <SCORE>  (34) 
-14.314

>  <name>  (34) 
34

>  <ligand_id>  (34) 
34

>  <original_smiles>  (34) 
[H]c1c([H])c([H])c2c(c1[H])C([H])([H])C([H])([H])C([H])([H])C2([H])N([H])C(=O)C1([H])N(C(=O)C([H])(N([H])C(=O)C([H])(N([H])C([H])([H])[H])C([H])([H])[H])C(C([H])([H])[H])(C([H])([H])[H])C([H])([H])[H])C([H])([H])c2c([H])c(OC([H])([H])C([H])([H])[N+]([H])=C(N([H])C(c3c([H])c([H])c(N([H])C(=O)N4C([H])([H])C([H])([H])C([H])([H])C([H])(n5nc(-c6c([H])c([H])c(Oc7c([H])c([H])c(F)c([H])c7F)c([H])c6[H])c(C(=O)N([H])[H])c5N([H])[H])C4([H])[H])c([H])c3[H])=[N+]([H])[H])C([H])([H])[H])c([H])c([H])c2C1([H])[H]

>  <smiles>  (34) 
[H]c1c([H])c([H])c2c(c1[H])C([H])([H])C([H])([H])C([H])([H])C2([H])N([H])C(=O)C1([H])N(C(=O)C([H])(N([H])C(=O)C([H])(N([H])C([H])([H])[H])C([H])([H])[H])C(C([H])([H])[H])(C([H])([H])[H])C([H])([H])[H])C([H])([H])c2c([H])c(OC([H])([H])C([H])([H])[N+]([H])=C(N([H])C(c3c([H])c([H])c(N([H])C(=O)N4C([H])([H])C([H])([H])C([H])([H])C([H])(n5nc(-c6c([H])c([H])c(Oc7c([H])c([H])c(F)c([H])c7F)c([H])c6[H])c(C(=O)N([H])[H])c5N([H])[H])C4([H])[H])c([H])c3[H])=[N+]([H])[H])C([H])([H])[H])c([H])c([H])c2C1([H])[H]

$$$$
35:0:0
     RDKit          3D

 96105  0  0  1  0  0  0  0  0999 V2000
  -30.5980  -19.2310   21.6770 C   0  0  0  0  0  3  0  0  0  0  0  0
  -30.6750  -17.8260   21.3990 C   0  0  0  0  0  3  0  0  0  0  0  0
  -28.9500  -18.1030   19.7540 C   0  0  0  0  0  3  0  0  0  0  0  0
  -29.7220  -20.1200   20.9760 C   0  0  0  0  0  0  0  0  0  0  0  0
  -28.8840  -19.5060   20.0070 C   0  0  0  0  0  0  0  0  0  0  0  0
  -29.8700  -17.2170   20.3990 C   0  0  0  0  0  0  0  0  0  0  0  0
  -29.6560  -21.6210   21.2750 C   0  0  0  0  0  3  0  0  0  0  0  0
  -27.8830  -20.3530   19.2300 C   0  0  0  0  0  2  0  0  0  0  0  0
  -28.5190  -21.4430   18.3460 C   0  0  0  0  0  2  0  0  0  0  0  0
  -29.7550  -22.1520   18.9390 C   0  0  0  0  0  2  0  0  0  0  0  0
  -29.5290  -22.6250   20.3260 N   0  0  0  0  0  0  0  0  0  0  0  0
  -29.7280  -21.9810   22.5530 N   0  0  0  0  0  0  0  0  0  0  0  0
  -29.7500  -21.2570   23.2540 H   0  0  0  0  0  0  0  0  0  0  0  0
  -29.8190  -22.9400   22.8410 H   0  0  0  0  0  0  0  0  0  0  0  0
  -30.6820  -14.7500   20.4610 C   0  0  0  0  0  0  0  0  0  0  0  0
  -30.4800  -12.4460   19.5400 C   0  0  0  0  0  2  0  0  0  0  0  0
  -29.5680  -12.4270   18.2920 C   0  0  0  0  0  2  0  0  0  0  0  0
  -28.0770  -12.3540   18.6760 C   0  0  0  0  0  2  0  0  0  0  0  0
  -27.6780  -13.2790   19.8610 C   0  0  0  0  0  3  0  0  0  0  0  0
  -28.7160  -13.2370   21.0030 C   0  0  0  0  0  2  0  0  0  0  0  0
  -30.0240  -13.5440   20.4150 N   0  0  0  0  0  0  0  0  0  0  0  0
  -31.9130  -14.7840   20.4110 O   0  0  0  0  0  0  0  0  0  0  0  0
  -29.9840  -15.7730   18.4310 C   0  0  0  0  0  1  0  0  0  0  0  0
  -29.9990  -15.8260   19.9090 N   0  0  0  0  0  0  0  0  0  0  0  0
  -25.2690  -13.8860   20.5040 C   0  0  0  0  0  0  0  0  0  0  0  0
  -24.1890  -13.1160   20.8450 C   0  0  0  0  0  0  0  0  0  0  0  0
  -24.6540  -11.7660   20.8550 C   0  0  0  0  0  0  0  0  0  0  0  0
  -26.3210  -13.0030   20.3240 N   0  0  0  0  0  0  0  0  0  0  0  0
  -25.9550  -11.7240   20.6000 N   0  0  0  0  0  0  0  0  0  0  0  0
  -23.9210  -10.5050   21.0370 C   0  0  0  0  0  0  0  0  0  0  0  0
  -24.3260   -9.5490   21.9950 C   0  0  0  0  0  3  0  0  0  0  0  0
  -23.5950   -8.3530   22.1650 C   0  0  0  0  0  3  0  0  0  0  0  0
  -22.4460   -8.1060   21.3770 C   0  0  0  0  0  0  0  0  0  0  0  0
  -22.0610   -9.0510   20.4100 C   0  0  0  0  0  3  0  0  0  0  0  0
  -22.7930  -10.2380   20.2380 C   0  0  0  0  0  3  0  0  0  0  0  0
  -21.6890   -6.9630   21.4560 O   0  0  0  0  0  0  0  0  0  0  0  0
  -21.6060   -6.2310   22.6150 C   0  0  0  0  0  0  0  0  0  0  0  0
  -21.1440   -6.7980   23.8210 C   0  0  0  0  0  3  0  0  0  0  0  0
  -21.0120   -5.9940   24.9710 C   0  0  0  0  0  3  0  0  0  0  0  0
  -21.3290   -4.6240   24.9130 C   0  0  0  0  0  0  0  0  0  0  0  0
  -21.7830   -4.0560   23.7100 C   0  0  0  0  0  3  0  0  0  0  0  0
  -21.9180   -4.8580   22.5630 C   0  0  0  0  0  0  0  0  0  0  0  0
  -22.3360   -4.3010   21.4000 F   0  0  0  0  0  0  0  0  0  0  0  0
  -21.1930   -3.8480   26.0140 F   0  0  0  0  0  0  0  0  0  0  0  0
  -22.7810  -13.5970   21.0520 C   0  0  0  0  0  0  0  0  0  0  0  0
  -22.0220  -12.9140   21.9000 N   0  0  0  0  0  0  0  0  0  0  0  0
  -22.3640  -14.6110   20.4960 O   0  0  0  0  0  0  0  0  0  0  0  0
  -22.3700  -12.0890   22.3680 H   0  0  0  0  0  0  0  0  0  0  0  0
  -21.0760  -13.2180   22.0810 H   0  0  0  0  0  0  0  0  0  0  0  0
  -25.4370  -15.2530   20.3080 N   0  0  0  0  0  0  0  0  0  0  0  0
  -24.6640  -15.9060   20.3810 H   0  0  0  0  0  0  0  0  0  0  0  0
  -26.3040  -15.6940   20.0280 H   0  0  0  0  0  0  0  0  0  0  0  0
  -29.5030  -24.1550   20.5660 C   0  0  0  0  0  2  0  0  0  0  0  0
  -28.6190  -25.1620   18.3070 C   0  0  0  0  0  1  0  0  0  0  0  0
  -28.4160  -25.1020   19.8360 C   0  0  0  0  0  3  0  0  0  0  0  0
  -28.4090  -26.5290   20.2590 O   0  0  0  0  0  0  0  0  0  0  0  0
  -24.5970  -31.8800   23.2300 C   0  0  0  0  0  0  0  0  0  0  0  0
  -27.2520  -27.3360   20.1830 C   0  0  0  0  0  0  0  0  0  0  0  0
  -23.4000  -30.4770   21.5850 C   0  0  0  0  0  3  0  0  0  0  0  0
  -24.8660  -28.9290   20.1650 C   0  0  0  0  0  0  0  0  0  0  0  0
  -25.9370  -30.8100   21.4040 C   0  0  0  0  0  2  0  0  0  0  0  0
  -26.0270  -29.4290   20.7620 C   0  0  0  0  0  0  0  0  0  0  0  0
  -27.2200  -28.6430   20.7620 C   0  0  0  0  0  3  0  0  0  0  0  0
  -26.0620  -26.8890   19.5640 C   0  0  0  0  0  3  0  0  0  0  0  0
  -24.8860  -27.6650   19.5550 C   0  0  0  0  0  3  0  0  0  0  0  0
  -23.6220  -29.7950   20.2080 C   0  0  0  0  0  2  0  0  0  0  0  0
  -24.6630  -31.0730   22.1300 N   0  0  0  0  0  0  0  0  0  0  0  0
  -23.5120  -32.1510   23.7650 O   0  0  0  0  0  0  0  0  0  0  0  0
  -22.7390  -29.4620   22.5470 C   0  0  0  0  0  0  0  0  0  0  0  0
  -21.4110  -29.2860   22.4260 N   0  0  0  0  0  0  0  0  0  0  0  0
  -23.4210  -28.8320   23.3610 O   0  0  0  0  0  0  0  0  0  0  0  0
  -20.9220  -29.8420   21.7390 H   0  0  0  0  0  0  0  0  0  0  0  0
  -18.0330  -28.1000   22.9420 C   0  0  0  0  0  0  0  0  0  0  0  0
  -20.5950  -28.3500   23.1980 C   0  0  0  0  0  3  0  0  0  0  0  0
  -20.6870  -26.9200   22.6170 C   0  0  0  0  0  2  0  0  0  0  0  0
  -19.5780  -26.6060   21.6080 C   0  0  0  0  0  2  0  0  0  0  0  0
  -18.2000  -26.7540   22.2590 C   0  0  0  0  0  2  0  0  0  0  0  0
  -19.1570  -28.8570   23.3690 C   0  0  0  0  0  0  0  0  0  0  0  0
  -18.9460  -30.1180   23.9690 C   0  0  0  0  0  3  0  0  0  0  0  0
  -17.6440  -30.6240   24.1420 C   0  0  0  0  0  3  0  0  0  0  0  0
  -16.5340  -29.8660   23.7320 C   0  0  0  0  0  3  0  0  0  0  0  0
  -16.7300  -28.6050   23.1380 C   0  0  0  0  0  3  0  0  0  0  0  0
  -25.8760  -32.5200   23.8540 C   0  0  0  0  0  3  0  0  0  0  0  0
  -25.5610  -33.9150   24.1870 N   0  0  0  0  0  0  0  0  0  0  0  0
  -25.8880  -34.9720   23.4300 C   0  0  0  0  0  0  0  0  0  0  0  0
  -26.5600  -34.8740   22.3990 O   0  0  0  0  0  0  0  0  0  0  0  0
  -24.9720  -34.0640   24.9940 H   0  0  0  0  0  0  0  0  0  0  0  0
  -24.1580  -36.7630   23.0730 C   0  0  0  0  0  1  0  0  0  0  0  0
  -25.3970  -36.3580   23.8900 C   0  0  0  0  0  3  0  0  0  0  0  0
  -27.5240  -37.2470   24.7360 C   0  0  0  0  0  1  0  0  0  0  0  0
  -26.4260  -37.4140   23.7850 N   0  0  0  0  0  0  0  0  0  0  0  0
  -26.0170  -38.3320   23.9320 H   0  0  0  0  0  0  0  0  0  0  0  0
  -26.3950  -31.7480   25.1300 C   0  0  1  0  0  0  0  0  0  0  0  0
  -25.3040  -31.5060   26.1970 C   0  0  0  0  0  1  0  0  0  0  0  0
  -26.9810  -30.3700   24.7390 C   0  0  0  0  0  1  0  0  0  0  0  0
  -27.5440  -32.5420   25.7920 C   0  0  0  0  0  1  0  0  0  0  0  0
  2  1  1  0
  3  5  2  0
  3  6  1  0
  4  7  1  0
  4  1  2  0
  5  4  1  0
  6  2  2  0
  7 12  1  0
  8  5  1  0
  9 10  1  0
  9  8  1  0
 10 11  1  0
 11 53  1  0
 11  7  1  0
 12 14  1  0
 12 13  1  0
 16 21  1  0
 17 18  1  0
 17 16  1  0
 19 18  1  0
 19 28  1  0
 19 20  1  0
 21 15  1  0
 21 20  1  0
 22 15  2  0
 23 24  1  0
 24  6  1  0
 24 15  1  0
 25 26  2  0
 26 27  1  0
 26 45  1  0
 27 30  1  0
 28 25  1  0
 28 29  1  0
 29 27  2  0
 30 31  1  0
 31 32  2  0
 33 36  1  0
 33 32  1  0
 34 33  2  0
 35 34  1  0
 35 30  2  0
 36 37  1  0
 37 38  1  0
 38 39  2  0
 40 39  1  0
 40 44  1  0
 41 40  2  0
 42 37  2  0
 42 41  1  0
 43 42  1  0
 45 46  1  0
 46 49  1  0
 46 48  1  0
 47 45  2  0
 50 51  1  0
 50 25  1  0
 52 50  1  0
 55 54  1  0
 55 56  1  0
 55 53  1  0
 57 68  2  0
 58 56  1  0
 58 63  1  0
 59 67  1  0
 59 69  1  0
 60 66  1  0
 60 62  1  0
 61 67  1  0
 62 61  1  0
 63 62  2  0
 64 58  2  0
 65 64  1  0
 65 60  2  0
 66 59  1  0
 67 57  1  0
 69 71  2  0
 70 69  1  0
 72 70  1  0
 73 82  2  0
 73 78  1  0
 74 70  1  0
 74 78  1  0
 75 74  1  0
 76 77  1  0
 76 75  1  0
 77 73  1  0
 78 79  2  0
 79 80  1  0
 81 80  2  0
 82 81  1  0
 83 57  1  0
 83 84  1  0
 83 93  1  0
 84 87  1  0
 85 89  1  0
 85 84  1  0
 86 85  2  0
 89 88  1  0
 91 89  1  0
 91 92  1  0
 91 90  1  0
 93 96  1  1
 93 94  1  0
 95 93  1  0
M  ISO  4  15 100  24 100  55 101  56 101
M  END
>  <TORSDO>  (35) 
F 18

>  <SCORE>  (35) 
-14.587

>  <name>  (35) 
35

>  <ligand_id>  (35) 
35

>  <original_smiles>  (35) 
[H]c1c([H])c([H])c2c(c1[H])C([H])([H])C([H])([H])C([H])([H])C2([H])N([H])C(=O)C1([H])N(C(=O)C([H])(N([H])C(=O)C([H])(N([H])C([H])([H])[H])C([H])([H])[H])C(C([H])([H])[H])(C([H])([H])[H])C([H])([H])[H])C([H])([H])c2c([H])c(OC([H])(C([H])([H])[H])C([H])([H])N3C(=[N+]([H])[H])c4c([H])c([H])c(N(C(=O)N5C([H])([H])C([H])([H])C([H])([H])C([H])(n6nc(-c7c([H])c([H])c(Oc8c([H])c([H])c(F)c([H])c8F)c([H])c7[H])c(C(=O)N([H])[H])c6N([H])[H])C5([H])[H])C([H])([H])[H])c([H])c4C([H])([H])C([H])([H])C3([H])[H])c([H])c([H])c2C1([H])[H]

>  <smiles>  (35) 
[H]c1c([H])c([H])c2c(c1[H])C([H])([H])C([H])([H])C([H])([H])C2([H])N([H])C(=O)C1([H])N(C(=O)C([H])(N([H])C(=O)C([H])(N([H])C([H])([H])[H])C([H])([H])[H])C(C([H])([H])[H])(C([H])([H])[H])C([H])([H])[H])C([H])([H])c2c([H])c(OC([H])(C([H])([H])[H])C([H])([H])N3C(=[N+]([H])[H])c4c([H])c([H])c(N(C(=O)N5C([H])([H])C([H])([H])C([H])([H])C([H])(n6nc(-c7c([H])c([H])c(Oc8c([H])c([H])c(F)c([H])c8F)c([H])c7[H])c(C(=O)N([H])[H])c6N([H])[H])C5([H])[H])C([H])([H])[H])c([H])c4C([H])([H])C([H])([H])C3([H])[H])c([H])c([H])c2C1([H])[H]

$$$$
36:0:0
     RDKit          3D

 93101  0  0  1  0  0  0  0  0999 V2000
  -26.3180  -21.7300   21.9690 C   0  0  0  0  0  1  0  0  0  0  0  0
  -27.4800  -22.2730   21.2070 N   0  0  1  0  0  4  0  0  0  0  0  0
  -28.2350  -22.3090   21.8590 H   0  0  0  0  0  0  0  0  0  0  0  0
  -27.9340  -21.3440   20.1040 C   0  0  0  0  0  2  0  0  0  0  0  0
  -29.5980  -19.7290   21.4660 C   0  0  0  0  0  3  0  0  0  0  0  0
  -30.3220  -18.4930   21.5440 C   0  0  0  0  0  3  0  0  0  0  0  0
  -28.6090  -18.9600   19.4250 C   0  0  0  0  0  3  0  0  0  0  0  0
  -28.7060  -20.0010   20.3860 C   0  0  0  0  0  0  0  0  0  0  0  0
  -29.3650  -17.7560   19.4610 C   0  0  0  0  0  0  0  0  0  0  0  0
  -30.2340  -17.4720   20.5520 C   0  0  0  0  0  0  0  0  0  0  0  0
  -29.1460  -16.8120   18.2980 C   0  0  0  0  0  1  0  0  0  0  0  0
  -31.6190  -15.2740   20.2350 C   0  0  0  0  0  0  0  0  0  0  0  0
  -31.5080  -12.9950   19.2180 C   0  0  0  0  0  2  0  0  0  0  0  0
  -30.5130  -13.0820   18.0330 C   0  0  0  0  0  2  0  0  0  0  0  0
  -29.0480  -12.9770   18.5090 C   0  0  0  0  0  2  0  0  0  0  0  0
  -28.7540  -13.8460   19.7580 C   0  0  0  0  0  3  0  0  0  0  0  0
  -29.8370  -13.6190   20.8330 C   0  0  0  0  0  2  0  0  0  0  0  0
  -31.1200  -14.0000   20.2250 N   0  0  0  0  0  0  0  0  0  0  0  0
  -32.6960  -15.5710   19.7080 O   0  0  0  0  0  0  0  0  0  0  0  0
  -30.7870  -16.1560   20.8710 N   0  0  0  0  0  0  0  0  0  0  0  0
  -30.1860  -15.6200   21.4870 H   0  0  0  0  0  0  0  0  0  0  0  0
  -26.4470  -14.5650   20.6290 C   0  0  0  0  0  0  0  0  0  0  0  0
  -25.3380  -13.8270   20.9650 C   0  0  0  0  0  0  0  0  0  0  0  0
  -25.7070  -12.4630   20.7930 C   0  0  0  0  0  0  0  0  0  0  0  0
  -27.4110  -13.6340   20.2700 N   0  0  0  0  0  0  0  0  0  0  0  0
  -26.9710  -12.3680   20.4150 N   0  0  0  0  0  0  0  0  0  0  0  0
  -24.9150  -11.2310   20.8980 C   0  0  0  0  0  0  0  0  0  0  0  0
  -25.2250  -10.2410   21.8560 C   0  0  0  0  0  3  0  0  0  0  0  0
  -24.4390   -9.0740   21.9510 C   0  0  0  0  0  3  0  0  0  0  0  0
  -23.3340   -8.8920   21.0900 C   0  0  0  0  0  0  0  0  0  0  0  0
  -23.0410   -9.8730   20.1270 C   0  0  0  0  0  3  0  0  0  0  0  0
  -23.8260  -11.0330   20.0260 C   0  0  0  0  0  3  0  0  0  0  0  0
  -22.5270   -7.7840   21.0990 O   0  0  0  0  0  0  0  0  0  0  0  0
  -22.1910   -7.1460   22.2650 C   0  0  0  0  0  0  0  0  0  0  0  0
  -21.5330   -7.8170   23.3190 C   0  0  0  0  0  3  0  0  0  0  0  0
  -21.1460   -7.1070   24.4740 C   0  0  0  0  0  3  0  0  0  0  0  0
  -21.4080   -5.7280   24.5730 C   0  0  0  0  0  0  0  0  0  0  0  0
  -22.0600   -5.0570   23.5230 C   0  0  0  0  0  3  0  0  0  0  0  0
  -22.4480   -5.7640   22.3720 C   0  0  0  0  0  0  0  0  0  0  0  0
  -23.0580   -5.1100   21.3530 F   0  0  0  0  0  0  0  0  0  0  0  0
  -21.0300   -5.0430   25.6760 F   0  0  0  0  0  0  0  0  0  0  0  0
  -23.9960  -14.3670   21.3550 C   0  0  0  0  0  0  0  0  0  0  0  0
  -23.2770  -13.6470   22.2180 N   0  0  0  0  0  0  0  0  0  0  0  0
  -23.5930  -15.4480   20.9370 O   0  0  0  0  0  0  0  0  0  0  0  0
  -23.6180  -12.7660   22.5740 H   0  0  0  0  0  0  0  0  0  0  0  0
  -22.3730  -13.9820   22.5200 H   0  0  0  0  0  0  0  0  0  0  0  0
  -26.7020  -15.9290   20.5930 N   0  0  0  0  0  0  0  0  0  0  0  0
  -26.0050  -16.6110   20.8700 H   0  0  0  0  0  0  0  0  0  0  0  0
  -27.6140  -16.3390   20.4230 H   0  0  0  0  0  0  0  0  0  0  0  0
  -27.2090  -23.7110   20.7240 C   0  0  0  0  0  2  0  0  0  0  0  0
  -28.0360  -24.9160   21.3480 C   0  0  0  0  0  2  0  0  0  0  0  0
  -28.9390  -25.7700   20.3370 C   0  0  0  0  0  2  0  0  0  0  0  0
  -29.0400  -27.2590   20.3120 O   0  0  0  0  0  0  0  0  0  0  0  0
  -24.8940  -31.9910   23.4710 C   0  0  0  0  0  0  0  0  0  0  0  0
  -27.9090  -28.0420   20.1340 C   0  0  0  0  0  0  0  0  0  0  0  0
  -23.8550  -30.6910   21.6520 C   0  0  0  0  0  3  0  0  0  0  0  0
  -25.4490  -29.4440   20.1050 C   0  0  0  0  0  0  0  0  0  0  0  0
  -26.3440  -31.2700   21.5670 C   0  0  0  0  0  2  0  0  0  0  0  0
  -26.5520  -29.9920   20.7790 C   0  0  0  0  0  0  0  0  0  0  0  0
  -27.7990  -29.3190   20.7520 C   0  0  0  0  0  3  0  0  0  0  0  0
  -26.8110  -27.5500   19.4050 C   0  0  0  0  0  3  0  0  0  0  0  0
  -25.5810  -28.2350   19.4010 C   0  0  0  0  0  3  0  0  0  0  0  0
  -24.1400  -30.2020   20.2070 C   0  0  0  0  0  2  0  0  0  0  0  0
  -25.0460  -31.3310   22.2860 N   0  0  0  0  0  0  0  0  0  0  0  0
  -23.7790  -32.1020   24.0100 O   0  0  0  0  0  0  0  0  0  0  0  0
  -23.2840  -29.5170   22.4760 C   0  0  0  0  0  0  0  0  0  0  0  0
  -21.9880  -29.2330   22.2950 N   0  0  0  0  0  0  0  0  0  0  0  0
  -24.0210  -28.8530   23.2140 O   0  0  0  0  0  0  0  0  0  0  0  0
  -21.4320  -29.8270   21.7050 H   0  0  0  0  0  0  0  0  0  0  0  0
  -18.7660  -27.5940   22.4890 C   0  0  0  0  0  0  0  0  0  0  0  0
  -21.2790  -28.1030   22.8850 C   0  0  0  0  0  3  0  0  0  0  0  0
  -21.5710  -26.8040   22.0790 C   0  0  0  0  0  2  0  0  0  0  0  0
  -20.5000  -26.4340   21.0380 C   0  0  0  0  0  2  0  0  0  0  0  0
  -19.1030  -26.3600   21.6810 C   0  0  0  0  0  2  0  0  0  0  0  0
  -19.7840  -28.4180   23.0410 C   0  0  0  0  0  0  0  0  0  0  0  0
  -19.4190  -29.5720   23.7650 C   0  0  0  0  0  3  0  0  0  0  0  0
  -18.0630  -29.9270   23.9180 C   0  0  0  0  0  3  0  0  0  0  0  0
  -17.0560  -29.1150   23.3520 C   0  0  0  0  0  3  0  0  0  0  0  0
  -17.4080  -27.9590   22.6470 C   0  0  0  0  0  3  0  0  0  0  0  0
  -26.0930  -32.6590   24.1960 C   0  0  0  0  0  3  0  0  0  0  0  0
  -25.6850  -34.0240   24.5650 N   0  0  0  0  0  0  0  0  0  0  0  0
  -26.0000  -35.1240   23.8720 C   0  0  0  0  0  0  0  0  0  0  0  0
  -26.7370  -35.1020   22.8830 O   0  0  0  0  0  0  0  0  0  0  0  0
  -25.0280  -34.1040   25.3270 H   0  0  0  0  0  0  0  0  0  0  0  0
  -24.1860  -36.8250   23.4850 C   0  0  0  0  0  1  0  0  0  0  0  0
  -25.4020  -36.4590   24.3520 C   0  0  0  0  0  3  0  0  0  0  0  0
  -27.4260  -37.4350   25.3420 C   0  0  0  0  0  1  0  0  0  0  0  0
  -26.3730  -37.5750   24.3400 N   0  0  0  0  0  0  0  0  0  0  0  0
  -25.9050  -38.4640   24.4970 H   0  0  0  0  0  0  0  0  0  0  0  0
  -26.5620  -31.8650   25.4760 C   0  0  1  0  0  0  0  0  0  0  0  0
  -25.4110  -31.5090   26.4440 C   0  0  0  0  0  1  0  0  0  0  0  0
  -27.2690  -30.5510   25.0770 C   0  0  0  0  0  1  0  0  0  0  0  0
  -27.6010  -32.6980   26.2640 C   0  0  0  0  0  1  0  0  0  0  0  0
  2  3  1  1
  2  1  1  0
  4  8  1  0
  4  2  1  0
  5  6  1  0
  7  9  2  0
  7  8  1  0
  8  5  2  0
  9 10  1  0
 10 20  1  0
 10  6  2  0
 11  9  1  0
 12 20  1  0
 13 18  1  0
 14 15  1  0
 14 13  1  0
 16 15  1  0
 16 25  1  0
 16 17  1  0
 18 12  1  0
 18 17  1  0
 19 12  2  0
 20 21  1  0
 22 23  2  0
 23 42  1  0
 24 27  1  0
 24 23  1  0
 25 26  1  0
 25 22  1  0
 26 24  2  0
 27 28  1  0
 28 29  2  0
 30 33  1  0
 30 29  1  0
 31 30  2  0
 32 31  1  0
 32 27  2  0
 33 34  1  0
 34 39  2  0
 34 35  1  0
 35 36  2  0
 36 37  1  0
 37 41  1  0
 38 37  2  0
 39 38  1  0
 40 39  1  0
 42 43  1  0
 43 46  1  0
 43 45  1  0
 44 42  2  0
 47 22  1  0
 47 48  1  0
 49 47  1  0
 50  2  1  0
 50 51  1  0
 52 51  1  0
 53 52  1  0
 54 65  2  0
 55 53  1  0
 55 60  1  0
 56 64  1  0
 56 66  1  0
 57 63  1  0
 57 59  1  0
 58 64  1  0
 59 58  1  0
 60 59  2  0
 61 55  2  0
 62 61  1  0
 62 57  2  0
 63 56  1  0
 64 54  1  0
 66 68  2  0
 67 66  1  0
 69 67  1  0
 70 79  2  0
 70 75  1  0
 71 67  1  0
 71 75  1  0
 72 71  1  0
 73 74  1  0
 73 72  1  0
 74 70  1  0
 75 76  2  0
 76 77  1  0
 78 77  2  0
 79 78  1  0
 80 54  1  0
 80 81  1  0
 80 90  1  0
 81 84  1  0
 82 86  1  0
 82 81  1  0
 83 82  2  0
 86 85  1  0
 88 86  1  0
 88 89  1  0
 88 87  1  0
 90 93  1  1
 90 91  1  0
 92 90  1  0
M  ISO  4  12 100  20 100  52 101  53 101
M  END
>  <TORSDO>  (36) 
F 21

>  <SCORE>  (36) 
-6.702

>  <name>  (36) 
36

>  <ligand_id>  (36) 
36

>  <original_smiles>  (36) 
[H]c1c([H])c([H])c2c(c1[H])C([H])([H])C([H])([H])C([H])([H])C2([H])N([H])C(=O)C1([H])N(C(=O)C([H])(N([H])C(=O)C([H])(N([H])C([H])([H])[H])C([H])([H])[H])C(C([H])([H])[H])(C([H])([H])[H])C([H])([H])[H])C([H])([H])c2c([H])c(OC([H])([H])C([H])([H])C([H])([H])[N+]([H])(C([H])([H])[H])C([H])([H])c3c([H])c([H])c(N([H])C(=O)N4C([H])([H])C([H])([H])C([H])([H])C([H])(n5nc(-c6c([H])c([H])c(Oc7c([H])c([H])c(F)c([H])c7F)c([H])c6[H])c(C(=O)N([H])[H])c5N([H])[H])C4([H])[H])c(C([H])([H])[H])c3[H])c([H])c([H])c2C1([H])[H]

>  <smiles>  (36) 
[H]c1c([H])c([H])c2c(c1[H])C([H])([H])C([H])([H])C([H])([H])C2([H])N([H])C(=O)C1([H])N(C(=O)C([H])(N([H])C(=O)C([H])(N([H])C([H])([H])[H])C([H])([H])[H])C(C([H])([H])[H])(C([H])([H])[H])C([H])([H])[H])C([H])([H])c2c([H])c(OC([H])([H])C([H])([H])C([H])([H])[N+]([H])(C([H])([H])[H])C([H])([H])c3c([H])c([H])c(N([H])C(=O)N4C([H])([H])C([H])([H])C([H])([H])C([H])(n5nc(-c6c([H])c([H])c(Oc7c([H])c([H])c(F)c([H])c7F)c([H])c6[H])c(C(=O)N([H])[H])c5N([H])[H])C4([H])[H])c(C([H])([H])[H])c3[H])c([H])c([H])c2C1([H])[H]

$$$$
37:0:0
     RDKit          3D

 96104  0  0  1  0  0  0  0  0999 V2000
  -29.9010  -22.1360   19.7500 N   0  0  1  0  0  4  0  0  0  0  0  0
  -29.8860  -22.7630   18.9610 H   0  0  0  0  0  0  0  0  0  0  0  0
  -29.0560  -20.9990   19.2500 C   0  0  0  0  0  2  0  0  0  0  0  0
  -29.1780  -19.0890   20.9520 C   0  0  0  0  0  3  0  0  0  0  0  0
  -29.4250  -17.7440   21.3160 C   0  0  0  0  0  3  0  0  0  0  0  0
  -30.2450  -17.2930   19.0810 C   0  0  0  0  0  3  0  0  0  0  0  0
  -29.4450  -19.5540   19.6430 C   0  0  0  0  0  0  0  0  0  0  0  0
  -29.9940  -18.6340   18.7050 C   0  0  0  0  0  0  0  0  0  0  0  0
  -29.9560  -16.8250   20.3840 C   0  0  0  0  0  0  0  0  0  0  0  0
  -30.2800  -19.0270   17.2650 C   0  0  0  0  0  1  0  0  0  0  0  0
  -30.7200  -14.4630   20.0930 C   0  0  0  0  0  0  0  0  0  0  0  0
  -30.3440  -12.3260   18.9280 C   0  0  0  0  0  2  0  0  0  0  0  0
  -29.3470  -12.5870   17.7790 C   0  0  0  0  0  2  0  0  0  0  0  0
  -27.8930  -12.4630   18.2780 C   0  0  0  0  0  2  0  0  0  0  0  0
  -27.6360  -13.2560   19.5890 C   0  0  0  0  0  3  0  0  0  0  0  0
  -28.7450  -12.9880   20.6320 C   0  0  0  0  0  2  0  0  0  0  0  0
  -30.0460  -13.2820   20.0070 N   0  0  0  0  0  0  0  0  0  0  0  0
  -31.8020  -14.6570   19.5330 O   0  0  0  0  0  0  0  0  0  0  0  0
  -30.0860  -15.4470   20.7640 N   0  0  0  0  0  0  0  0  0  0  0  0
  -29.4110  -15.1230   21.4370 H   0  0  0  0  0  0  0  0  0  0  0  0
  -25.2850  -13.8640   20.4440 C   0  0  0  0  0  0  0  0  0  0  0  0
  -24.2300  -13.0920   20.8520 C   0  0  0  0  0  0  0  0  0  0  0  0
  -24.6740  -11.7370   20.7580 C   0  0  0  0  0  0  0  0  0  0  0  0
  -26.3060  -12.9790   20.1310 N   0  0  0  0  0  0  0  0  0  0  0  0
  -25.9440  -11.6930   20.3740 N   0  0  0  0  0  0  0  0  0  0  0  0
  -23.9450  -10.4770   20.9560 C   0  0  0  0  0  0  0  0  0  0  0  0
  -24.3890   -9.5020   21.8770 C   0  0  0  0  0  3  0  0  0  0  0  0
  -23.6600   -8.3080   22.0610 C   0  0  0  0  0  3  0  0  0  0  0  0
  -22.4740   -8.0810   21.3240 C   0  0  0  0  0  0  0  0  0  0  0  0
  -22.0480   -9.0430   20.3920 C   0  0  0  0  0  3  0  0  0  0  0  0
  -22.7780  -10.2300   20.2050 C   0  0  0  0  0  3  0  0  0  0  0  0
  -21.7150   -6.9400   21.4170 O   0  0  0  0  0  0  0  0  0  0  0  0
  -21.6430   -6.2160   22.5810 C   0  0  0  0  0  0  0  0  0  0  0  0
  -21.1960   -6.7910   23.7910 C   0  0  0  0  0  3  0  0  0  0  0  0
  -21.0700   -5.9950   24.9460 C   0  0  0  0  0  3  0  0  0  0  0  0
  -21.3840   -4.6230   24.8940 C   0  0  0  0  0  0  0  0  0  0  0  0
  -21.8260   -4.0470   23.6890 C   0  0  0  0  0  3  0  0  0  0  0  0
  -21.9520   -4.8420   22.5360 C   0  0  0  0  0  0  0  0  0  0  0  0
  -22.3570   -4.2770   21.3730 F   0  0  0  0  0  0  0  0  0  0  0  0
  -21.2590   -3.8550   26.0010 F   0  0  0  0  0  0  0  0  0  0  0  0
  -22.8570  -13.5780   21.2150 C   0  0  0  0  0  0  0  0  0  0  0  0
  -22.1690  -12.8700   22.1040 N   0  0  0  0  0  0  0  0  0  0  0  0
  -22.4030  -14.6220   20.7500 O   0  0  0  0  0  0  0  0  0  0  0  0
  -22.5460  -12.0260   22.5080 H   0  0  0  0  0  0  0  0  0  0  0  0
  -21.2490  -13.1810   22.3880 H   0  0  0  0  0  0  0  0  0  0  0  0
  -25.4560  -15.2370   20.2970 N   0  0  0  0  0  0  0  0  0  0  0  0
  -24.7060  -15.8990   20.4700 H   0  0  0  0  0  0  0  0  0  0  0  0
  -26.3000  -15.6750   19.9480 H   0  0  0  0  0  0  0  0  0  0  0  0
  -29.2740  -22.9370   20.8540 C   0  0  0  0  0  2  0  0  0  0  0  0
  -29.4640  -24.4800   20.7120 C   0  0  0  0  0  2  0  0  0  0  0  0
  -28.1830  -25.2310   20.3030 C   0  0  0  0  0  2  0  0  0  0  0  0
  -28.3820  -26.6530   20.2060 O   0  0  0  0  0  0  0  0  0  0  0  0
  -24.5810  -31.8550   23.2310 C   0  0  0  0  0  0  0  0  0  0  0  0
  -27.2220  -27.4030   20.1620 C   0  0  0  0  0  0  0  0  0  0  0  0
  -23.3780  -30.4560   21.5870 C   0  0  0  0  0  3  0  0  0  0  0  0
  -24.8320  -28.9170   20.1690 C   0  0  0  0  0  0  0  0  0  0  0  0
  -25.9040  -30.8140   21.3900 C   0  0  0  0  0  2  0  0  0  0  0  0
  -25.9910  -29.4400   20.7540 C   0  0  0  0  0  0  0  0  0  0  0  0
  -27.1910  -28.6910   20.7470 C   0  0  0  0  0  3  0  0  0  0  0  0
  -26.0420  -26.9030   19.5610 C   0  0  0  0  0  3  0  0  0  0  0  0
  -24.8520  -27.6470   19.5730 C   0  0  0  0  0  3  0  0  0  0  0  0
  -23.5890  -29.7750   20.2110 C   0  0  0  0  0  2  0  0  0  0  0  0
  -24.6400  -31.0540   22.1290 N   0  0  0  0  0  0  0  0  0  0  0  0
  -23.5000  -32.1270   23.7690 O   0  0  0  0  0  0  0  0  0  0  0  0
  -22.7230  -29.4330   22.5460 C   0  0  0  0  0  0  0  0  0  0  0  0
  -21.3970  -29.2600   22.4220 N   0  0  0  0  0  0  0  0  0  0  0  0
  -23.4060  -28.8010   23.3560 O   0  0  0  0  0  0  0  0  0  0  0  0
  -20.9080  -29.8200   21.7380 H   0  0  0  0  0  0  0  0  0  0  0  0
  -18.0170  -28.1000   22.9410 C   0  0  0  0  0  0  0  0  0  0  0  0
  -20.5790  -28.3260   23.1940 C   0  0  0  0  0  3  0  0  0  0  0  0
  -20.6600  -26.8990   22.6050 C   0  0  0  0  0  2  0  0  0  0  0  0
  -19.5450  -26.5970   21.5980 C   0  0  0  0  0  2  0  0  0  0  0  0
  -18.1710  -26.7540   22.2550 C   0  0  0  0  0  2  0  0  0  0  0  0
  -19.1470  -28.8450   23.3680 C   0  0  0  0  0  0  0  0  0  0  0  0
  -18.9500  -30.1060   23.9710 C   0  0  0  0  0  3  0  0  0  0  0  0
  -17.6520  -30.6240   24.1480 C   0  0  0  0  0  3  0  0  0  0  0  0
  -16.5360  -29.8750   23.7370 C   0  0  0  0  0  3  0  0  0  0  0  0
  -16.7180  -28.6150   23.1410 C   0  0  0  0  0  3  0  0  0  0  0  0
  -25.8660  -32.4860   23.8530 C   0  0  0  0  0  3  0  0  0  0  0  0
  -25.5580  -33.8830   24.1860 N   0  0  0  0  0  0  0  0  0  0  0  0
  -25.8900  -34.9340   23.4270 C   0  0  0  0  0  0  0  0  0  0  0  0
  -26.5590  -34.8310   22.3940 O   0  0  0  0  0  0  0  0  0  0  0  0
  -24.9660  -34.0390   24.9890 H   0  0  0  0  0  0  0  0  0  0  0  0
  -24.1640  -36.7260   23.0650 C   0  0  0  0  0  1  0  0  0  0  0  0
  -25.4000  -36.3220   23.8820 C   0  0  0  0  0  3  0  0  0  0  0  0
  -27.5290  -37.2040   24.7270 C   0  0  0  0  0  1  0  0  0  0  0  0
  -26.4330  -37.3750   23.7770 N   0  0  0  0  0  0  0  0  0  0  0  0
  -26.0260  -38.2950   23.9250 H   0  0  0  0  0  0  0  0  0  0  0  0
  -26.3870  -31.7100   25.1250 C   0  0  1  0  0  0  0  0  0  0  0  0
  -25.2960  -31.4650   26.1930 C   0  0  0  0  0  1  0  0  0  0  0  0
  -26.9720  -30.3360   24.7210 C   0  0  0  0  0  1  0  0  0  0  0  0
  -27.5370  -32.5040   25.7900 C   0  0  0  0  0  1  0  0  0  0  0  0
  -31.3490  -21.8270   19.9630 C   0  0  0  0  0  2  0  0  0  0  0  0
  -33.7650  -22.4330   19.5570 C   0  0  0  0  0  1  0  0  0  0  0  0
  -32.1380  -22.6700   17.6570 C   0  0  0  0  0  1  0  0  0  0  0  0
  -32.3110  -22.7570   19.1840 C   0  0  0  0  0  3  0  0  0  0  0  0
  1 93  1  0
  1 49  1  0
  1  2  1  6
  3  7  1  0
  3  1  1  0
  4  5  1  0
  6  9  1  0
  7  4  2  0
  8  6  2  0
  8  7  1  0
  9 19  1  0
  9  5  2  0
 10  8  1  0
 11 19  1  0
 12 17  1  0
 13 14  1  0
 13 12  1  0
 15 14  1  0
 15 24  1  0
 15 16  1  0
 17 11  1  0
 17 16  1  0
 18 11  2  0
 19 20  1  0
 21 22  2  0
 22 41  1  0
 23 22  1  0
 23 26  1  0
 24 25  1  0
 24 21  1  0
 25 23  2  0
 26 27  1  0
 27 28  2  0
 29 32  1  0
 29 28  1  0
 30 29  2  0
 31 30  1  0
 31 26  2  0
 32 33  1  0
 33 34  1  0
 34 35  2  0
 36 35  1  0
 36 40  1  0
 37 36  2  0
 38 33  2  0
 38 37  1  0
 39 38  1  0
 41 42  1  0
 42 45  1  0
 42 44  1  0
 43 41  2  0
 46 21  1  0
 46 47  1  0
 48 46  1  0
 50 49  1  0
 51 50  1  0
 52 51  1  0
 53 64  2  0
 54 52  1  0
 54 59  1  0
 55 63  1  0
 55 65  1  0
 56 62  1  0
 56 58  1  0
 57 63  1  0
 58 57  1  0
 59 58  2  0
 60 61  1  0
 60 54  2  0
 61 56  2  0
 62 55  1  0
 63 53  1  0
 65 67  2  0
 66 65  1  0
 68 66  1  0
 69 78  2  0
 69 74  1  0
 70 66  1  0
 70 74  1  0
 71 70  1  0
 72 73  1  0
 72 71  1  0
 73 69  1  0
 74 75  2  0
 75 76  1  0
 77 76  2  0
 78 77  1  0
 79 53  1  0
 79 80  1  0
 79 89  1  0
 80 83  1  0
 81 85  1  0
 81 80  1  0
 82 81  2  0
 85 84  1  0
 87 85  1  0
 87 88  1  0
 87 86  1  0
 89 92  1  1
 89 90  1  0
 91 89  1  0
 95 96  1  0
 96 94  1  0
 96 93  1  0
M  ISO  4  11 100  19 100  51 101  52 101
M  END
>  <TORSDO>  (37) 
F 23

>  <SCORE>  (37) 
-12.554

>  <name>  (37) 
37

>  <ligand_id>  (37) 
37

>  <original_smiles>  (37) 
[H]c1c([H])c([H])c2c(c1[H])C([H])([H])C([H])([H])C([H])([H])C2([H])N([H])C(=O)C1([H])N(C(=O)C([H])(N([H])C(=O)C([H])(N([H])C([H])([H])[H])C([H])([H])[H])C(C([H])([H])[H])(C([H])([H])[H])C([H])([H])[H])C([H])([H])c2c([H])c(OC([H])([H])C([H])([H])C([H])([H])[N+]([H])(C([H])([H])c3c([H])c([H])c(N([H])C(=O)N4C([H])([H])C([H])([H])C([H])([H])C([H])(n5nc(-c6c([H])c([H])c(Oc7c([H])c([H])c(F)c([H])c7F)c([H])c6[H])c(C(=O)N([H])[H])c5N([H])[H])C4([H])[H])c([H])c3C([H])([H])[H])C([H])([H])C([H])(C([H])([H])[H])C([H])([H])[H])c([H])c([H])c2C1([H])[H]

>  <smiles>  (37) 
[H]c1c([H])c([H])c2c(c1[H])C([H])([H])C([H])([H])C([H])([H])C2([H])N([H])C(=O)C1([H])N(C(=O)C([H])(N([H])C(=O)C([H])(N([H])C([H])([H])[H])C([H])([H])[H])C(C([H])([H])[H])(C([H])([H])[H])C([H])([H])[H])C([H])([H])c2c([H])c(OC([H])([H])C([H])([H])C([H])([H])[N+]([H])(C([H])([H])c3c([H])c([H])c(N([H])C(=O)N4C([H])([H])C([H])([H])C([H])([H])C([H])(n5nc(-c6c([H])c([H])c(Oc7c([H])c([H])c(F)c([H])c7F)c([H])c6[H])c(C(=O)N([H])[H])c5N([H])[H])C4([H])[H])c([H])c3C([H])([H])[H])C([H])([H])C([H])(C([H])([H])[H])C([H])([H])[H])c([H])c([H])c2C1([H])[H]

$$$$
38:0:0
     RDKit          3D

 90 98  0  0  1  0  0  0  0  0999 V2000
  -27.9600  -21.9290   21.6040 C   0  0  0  0  0  1  0  0  0  0  0  0
  -28.9140  -22.1490   20.4930 N   0  0  1  0  0  4  0  0  0  0  0  0
  -29.8200  -22.1800   20.9380 H   0  0  0  0  0  0  0  0  0  0  0  0
  -28.9820  -20.8900   19.5710 C   0  0  0  0  0  2  0  0  0  0  0  0
  -31.1130  -17.5000   19.7470 C   0  0  0  0  0  3  0  0  0  0  0  0
  -30.7410  -18.8880   19.6870 C   0  0  0  0  0  3  0  0  0  0  0  0
  -28.9250  -16.9030   20.4250 C   0  0  0  0  0  3  0  0  0  0  0  0
  -30.2340  -16.4180   20.0920 C   0  0  0  0  0  0  0  0  0  0  0  0
  -29.4290  -19.3690   19.9640 C   0  0  0  0  0  0  0  0  0  0  0  0
  -28.5380  -18.3060   20.3460 C   0  0  0  0  0  0  0  0  0  0  0  0
  -27.2490  -18.6240   20.6110 F   0  0  0  0  0  0  0  0  0  0  0  0
  -30.8040  -14.9250   20.0980 C   0  0  0  0  0  0  0  0  0  0  0  0
  -30.5330  -12.6040   19.1920 C   0  0  0  0  0  2  0  0  0  0  0  0
  -29.5840  -12.5950   17.9770 C   0  0  0  0  0  2  0  0  0  0  0  0
  -28.1320  -12.4030   18.4470 C   0  0  0  0  0  2  0  0  0  0  0  0
  -27.7600  -13.3400   19.6270 C   0  0  0  0  0  3  0  0  0  0  0  0
  -28.8430  -13.3700   20.7230 C   0  0  0  0  0  2  0  0  0  0  0  0
  -30.1100  -13.7240   20.0790 N   0  0  0  0  0  0  0  0  0  0  0  0
  -32.0070  -14.8540   19.8410 O   0  0  0  0  0  0  0  0  0  0  0  0
  -25.4120  -13.9120   20.4610 C   0  0  0  0  0  0  0  0  0  0  0  0
  -24.3570  -13.1320   20.8530 C   0  0  0  0  0  0  0  0  0  0  0  0
  -24.8180  -11.7820   20.7830 C   0  0  0  0  0  0  0  0  0  0  0  0
  -26.4420  -13.0360   20.1690 N   0  0  0  0  0  0  0  0  0  0  0  0
  -26.0980  -11.7490   20.4290 N   0  0  0  0  0  0  0  0  0  0  0  0
  -24.0940  -10.5170   20.9720 C   0  0  0  0  0  0  0  0  0  0  0  0
  -24.5150   -9.5570   21.9200 C   0  0  0  0  0  3  0  0  0  0  0  0
  -23.7880   -8.3590   22.0940 C   0  0  0  0  0  3  0  0  0  0  0  0
  -22.6270   -8.1140   21.3240 C   0  0  0  0  0  0  0  0  0  0  0  0
  -22.2250   -9.0620   20.3660 C   0  0  0  0  0  3  0  0  0  0  0  0
  -22.9530  -10.2520   20.1890 C   0  0  0  0  0  3  0  0  0  0  0  0
  -21.8720   -6.9680   21.4080 O   0  0  0  0  0  0  0  0  0  0  0  0
  -21.7620   -6.2640   22.5810 C   0  0  0  0  0  0  0  0  0  0  0  0
  -21.2450   -6.8500   23.7570 C   0  0  0  0  0  3  0  0  0  0  0  0
  -21.0840   -6.0720   24.9210 C   0  0  0  0  0  3  0  0  0  0  0  0
  -21.4310   -4.7070   24.9090 C   0  0  0  0  0  0  0  0  0  0  0  0
  -21.9430   -4.1210   23.7380 C   0  0  0  0  0  3  0  0  0  0  0  0
  -22.1040   -4.8960   22.5770 C   0  0  0  0  0  0  0  0  0  0  0  0
  -22.5780   -4.3200   21.4450 F   0  0  0  0  0  0  0  0  0  0  0  0
  -21.2700   -3.9570   26.0240 F   0  0  0  0  0  0  0  0  0  0  0  0
  -22.9720  -13.6100   21.1740 C   0  0  0  0  0  0  0  0  0  0  0  0
  -22.2650  -12.9000   22.0460 N   0  0  0  0  0  0  0  0  0  0  0  0
  -22.5260  -14.6490   20.6880 O   0  0  0  0  0  0  0  0  0  0  0  0
  -22.6400  -12.0610   22.4610 H   0  0  0  0  0  0  0  0  0  0  0  0
  -21.3390  -13.2060   22.3070 H   0  0  0  0  0  0  0  0  0  0  0  0
  -25.5760  -15.2840   20.3020 N   0  0  0  0  0  0  0  0  0  0  0  0
  -24.8170  -15.9400   20.4490 H   0  0  0  0  0  0  0  0  0  0  0  0
  -26.4040  -15.7220   19.9200 H   0  0  0  0  0  0  0  0  0  0  0  0
  -28.7460  -23.5650   19.8170 C   0  0  0  0  0  3  0  0  0  0  0  0
  -28.2560  -24.9150   20.6450 C   0  0  0  0  0  3  0  0  0  0  0  0
  -28.4280  -26.3700   20.1990 O   0  0  0  0  0  0  0  0  0  0  0  0
  -24.5750  -31.8690   23.1280 C   0  0  0  0  0  0  0  0  0  0  0  0
  -27.3250  -27.2700   20.1670 C   0  0  0  0  0  0  0  0  0  0  0  0
  -23.4430  -30.4490   21.4590 C   0  0  0  0  0  3  0  0  0  0  0  0
  -24.9560  -28.9130   20.0720 C   0  0  0  0  0  0  0  0  0  0  0  0
  -25.9870  -30.7900   21.3490 C   0  0  0  0  0  2  0  0  0  0  0  0
  -26.1050  -29.4030   20.7040 C   0  0  0  0  0  0  0  0  0  0  0  0
  -27.2960  -28.5980   20.7300 C   0  0  0  0  0  3  0  0  0  0  0  0
  -26.1530  -26.8540   19.5080 C   0  0  0  0  0  3  0  0  0  0  0  0
  -24.9870  -27.6480   19.4600 C   0  0  0  0  0  3  0  0  0  0  0  0
  -23.7060  -29.7740   20.0860 C   0  0  0  0  0  2  0  0  0  0  0  0
  -24.6860  -31.0560   22.0350 N   0  0  0  0  0  0  0  0  0  0  0  0
  -23.4700  -32.1340   23.6290 O   0  0  0  0  0  0  0  0  0  0  0  0
  -22.7640  -29.4270   22.4040 C   0  0  0  0  0  0  0  0  0  0  0  0
  -21.4360  -29.2650   22.2730 N   0  0  0  0  0  0  0  0  0  0  0  0
  -23.4330  -28.7810   23.2140 O   0  0  0  0  0  0  0  0  0  0  0  0
  -20.9530  -29.8360   21.5930 H   0  0  0  0  0  0  0  0  0  0  0  0
  -18.0360  -28.1450   22.8140 C   0  0  0  0  0  0  0  0  0  0  0  0
  -20.6080  -28.3190   23.0230 C   0  0  0  0  0  3  0  0  0  0  0  0
  -20.6510  -26.9120   22.3820 C   0  0  0  0  0  2  0  0  0  0  0  0
  -19.5110  -26.6630   21.3890 C   0  0  0  0  0  2  0  0  0  0  0  0
  -18.1520  -26.8220   22.0770 C   0  0  0  0  0  2  0  0  0  0  0  0
  -19.1890  -28.8540   23.2460 C   0  0  0  0  0  0  0  0  0  0  0  0
  -19.0240  -30.0930   23.9010 C   0  0  0  0  0  3  0  0  0  0  0  0
  -17.7390  -30.6230   24.1280 C   0  0  0  0  0  3  0  0  0  0  0  0
  -16.6020  -29.9090   23.7120 C   0  0  0  0  0  3  0  0  0  0  0  0
  -16.7520  -28.6730   23.0590 C   0  0  0  0  0  3  0  0  0  0  0  0
  -25.8260  -32.5260   23.7890 C   0  0  0  0  0  3  0  0  0  0  0  0
  -26.3260  -31.7520   25.0700 C   0  0  1  0  0  0  0  0  0  0  0  0
  -25.2070  -31.4660   26.1000 C   0  0  0  0  0  1  0  0  0  0  0  0
  -26.9640  -30.3980   24.6810 C   0  0  0  0  0  1  0  0  0  0  0  0
  -27.4310  -32.5700   25.7770 C   0  0  0  0  0  1  0  0  0  0  0  0
  -25.4770  -33.9130   24.1300 N   0  0  0  0  0  0  0  0  0  0  0  0
  -25.8060  -34.9850   23.3970 C   0  0  0  0  0  0  0  0  0  0  0  0
  -26.5050  -34.9120   22.3810 O   0  0  0  0  0  0  0  0  0  0  0  0
  -24.8600  -34.0410   24.9180 H   0  0  0  0  0  0  0  0  0  0  0  0
  -24.0590  -36.7570   23.0140 C   0  0  0  0  0  1  0  0  0  0  0  0
  -25.2770  -36.3570   23.8620 C   0  0  0  0  0  3  0  0  0  0  0  0
  -27.3600  -37.2680   24.7880 C   0  0  0  0  0  1  0  0  0  0  0  0
  -26.2940  -37.4300   23.8040 N   0  0  0  0  0  0  0  0  0  0  0  0
  -25.8660  -38.3400   23.9480 H   0  0  0  0  0  0  0  0  0  0  0  0
  2  3  1  1
  2  1  1  0
  4  9  1  0
  4  2  1  0
  5  8  1  0
  6  5  2  0
  6  9  1  0
  8 12  1  0
  8  7  2  0
  9 10  2  0
 10  7  1  0
 10 11  1  0
 13 18  1  0
 14 15  1  0
 14 13  1  0
 16 15  1  0
 16 23  1  0
 16 17  1  0
 18 12  1  0
 18 17  1  0
 19 12  2  0
 20 21  2  0
 21 40  1  0
 22 21  1  0
 22 25  1  0
 23 24  1  0
 23 20  1  0
 24 22  2  0
 25 26  1  0
 26 27  2  0
 28 31  1  0
 28 27  1  0
 29 28  2  0
 30 29  1  0
 30 25  2  0
 31 32  1  0
 32 33  1  0
 33 34  2  0
 35 34  1  0
 35 39  1  0
 36 35  2  0
 37 32  2  0
 37 36  1  0
 38 37  1  0
 40 41  1  0
 41 44  1  0
 41 43  1  0
 42 40  2  0
 45 46  1  0
 45 20  1  0
 47 45  1  0
 48  2  1  0
 48 49  2  0
 50 49  1  0
 51 62  2  0
 52 50  1  0
 52 57  1  0
 53 61  1  0
 53 63  1  0
 54 60  1  0
 54 56  1  0
 55 61  1  0
 56 57  2  0
 56 55  1  0
 58 52  2  0
 59 58  1  0
 59 54  2  0
 60 53  1  0
 61 51  1  0
 63 65  2  0
 64 63  1  0
 66 64  1  0
 67 76  2  0
 67 72  1  0
 68 64  1  0
 68 72  1  0
 69 68  1  0
 70 71  1  0
 70 69  1  0
 71 67  1  0
 72 73  2  0
 73 74  1  0
 75 74  2  0
 76 75  1  0
 77 51  1  0
 77 82  1  0
 77 78  1  0
 78 81  1  1
 78 79  1  0
 80 78  1  0
 82 85  1  0
 83 87  1  0
 83 82  1  0
 84 83  2  0
 87 86  1  0
 89 87  1  0
 89 90  1  0
 89 88  1  0
M  ISO  4   8 100  12 100  49 101  50 101
M  END
>  <TORSDO>  (38) 
F 20

>  <SCORE>  (38) 
-13.932

>  <name>  (38) 
38

>  <ligand_id>  (38) 
38

>  <original_smiles>  (38) 
[H]c1c([H])c([H])c2c(c1[H])C([H])([H])C([H])([H])C([H])([H])C2([H])N([H])C(=O)C1([H])N(C(=O)C([H])(N([H])C(=O)C([H])(N([H])C([H])([H])[H])C([H])([H])[H])C(C([H])([H])[H])(C([H])([H])[H])C([H])([H])[H])C([H])([H])c2c([H])c(OC([H])([H])C([H])([H])[N+]([H])(C([H])([H])[H])C([H])([H])c3c([H])c([H])c(C(=O)N4C([H])([H])C([H])([H])C([H])([H])C([H])(n5nc(-c6c([H])c([H])c(Oc7c([H])c([H])c(F)c([H])c7F)c([H])c6[H])c(C(=O)N([H])[H])c5N([H])[H])C4([H])[H])c([H])c3F)c([H])c([H])c2C1([H])[H]

>  <smiles>  (38) 
[H]c1c([H])c([H])c2c(c1[H])C([H])([H])C([H])([H])C([H])([H])C2([H])N([H])C(=O)C1([H])N(C(=O)C([H])(N([H])C(=O)C([H])(N([H])C([H])([H])[H])C([H])([H])[H])C(C([H])([H])[H])(C([H])([H])[H])C([H])([H])[H])C([H])([H])c2c([H])c(OC([H])([H])C([H])([H])[N+]([H])(C([H])([H])[H])C([H])([H])c3c([H])c([H])c(C(=O)N4C([H])([H])C([H])([H])C([H])([H])C([H])(n5nc(-c6c([H])c([H])c(Oc7c([H])c([H])c(F)c([H])c7F)c([H])c6[H])c(C(=O)N([H])[H])c5N([H])[H])C4([H])[H])c([H])c3F)c([H])c([H])c2C1([H])[H]

$$$$
39:0:0
     RDKit          3D

 91 99  0  0  1  0  0  0  0  0999 V2000
  -28.1370  -22.3490   22.5800 C   0  0  0  0  0  1  0  0  0  0  0  0
  -29.0540  -22.2430   21.4440 N   0  0  0  0  0  0  0  0  0  0  0  0
  -30.6790  -18.9020   21.9470 C   0  0  0  0  0  3  0  0  0  0  0  0
  -29.8280  -18.9990   19.6790 C   0  0  0  0  0  3  0  0  0  0  0  0
  -30.1830  -20.2010   22.1870 C   0  0  0  0  0  3  0  0  0  0  0  0
  -29.3550  -20.3090   19.9130 C   0  0  0  0  0  3  0  0  0  0  0  0
  -30.4990  -18.2780   20.6950 C   0  0  0  0  0  0  0  0  0  0  0  0
  -29.5190  -20.9340   21.1740 C   0  0  0  0  0  0  0  0  0  0  0  0
  -31.1680  -16.9330   20.3840 C   0  0  0  0  0  2  0  0  0  0  0  0
  -30.8420  -14.5460   19.9580 C   0  0  0  0  0  0  0  0  0  0  0  0
  -30.3640  -12.3860   18.8480 C   0  0  0  0  0  2  0  0  0  0  0  0
  -29.3640  -12.5690   17.6880 C   0  0  0  0  0  2  0  0  0  0  0  0
  -27.9250  -12.3920   18.2000 C   0  0  0  0  0  2  0  0  0  0  0  0
  -27.6530  -13.2570   19.4570 C   0  0  0  0  0  3  0  0  0  0  0  0
  -28.7720  -13.0880   20.5060 C   0  0  0  0  0  2  0  0  0  0  0  0
  -30.0690  -13.4120   19.8750 N   0  0  0  0  0  0  0  0  0  0  0  0
  -31.8670  -14.6330   19.2680 O   0  0  0  0  0  0  0  0  0  0  0  0
  -29.8750  -15.5920   22.0130 C   0  0  0  0  0  1  0  0  0  0  0  0
  -30.4420  -15.6540   20.6600 N   0  0  0  0  0  0  0  0  0  0  0  0
  -25.3240  -13.8590   20.3650 C   0  0  0  0  0  0  0  0  0  0  0  0
  -24.2840  -13.0830   20.7990 C   0  0  0  0  0  0  0  0  0  0  0  0
  -24.7340  -11.7310   20.7070 C   0  0  0  0  0  0  0  0  0  0  0  0
  -26.3400  -12.9770   20.0310 N   0  0  0  0  0  0  0  0  0  0  0  0
  -25.9950  -11.6910   20.2940 N   0  0  0  0  0  0  0  0  0  0  0  0
  -24.0200  -10.4680   20.9300 C   0  0  0  0  0  0  0  0  0  0  0  0
  -24.4760   -9.5190   21.8700 C   0  0  0  0  0  3  0  0  0  0  0  0
  -23.7610   -8.3220   22.0820 C   0  0  0  0  0  3  0  0  0  0  0  0
  -22.5760   -8.0650   21.3530 C   0  0  0  0  0  0  0  0  0  0  0  0
  -22.1380   -9.0050   20.4030 C   0  0  0  0  0  3  0  0  0  0  0  0
  -22.8530  -10.1940   20.1910 C   0  0  0  0  0  3  0  0  0  0  0  0
  -21.8320   -6.9150   21.4700 O   0  0  0  0  0  0  0  0  0  0  0  0
  -21.7440   -6.2320   22.6560 C   0  0  0  0  0  0  0  0  0  0  0  0
  -21.2720   -6.8450   23.8380 C   0  0  0  0  0  3  0  0  0  0  0  0
  -21.1330   -6.0870   25.0160 C   0  0  0  0  0  3  0  0  0  0  0  0
  -21.4570   -4.7180   25.0170 C   0  0  0  0  0  0  0  0  0  0  0  0
  -21.9230   -4.1040   23.8400 C   0  0  0  0  0  3  0  0  0  0  0  0
  -22.0640   -4.8600   22.6640 C   0  0  0  0  0  0  0  0  0  0  0  0
  -22.4940   -4.2590   21.5270 F   0  0  0  0  0  0  0  0  0  0  0  0
  -21.3160   -3.9870   26.1470 F   0  0  0  0  0  0  0  0  0  0  0  0
  -22.9170  -13.5640   21.1920 C   0  0  0  0  0  0  0  0  0  0  0  0
  -22.2650  -12.8700   22.1190 N   0  0  0  0  0  0  0  0  0  0  0  0
  -22.4370  -14.5890   20.7100 O   0  0  0  0  0  0  0  0  0  0  0  0
  -22.6650  -12.0410   22.5300 H   0  0  0  0  0  0  0  0  0  0  0  0
  -21.3520  -13.1760   22.4220 H   0  0  0  0  0  0  0  0  0  0  0  0
  -25.4800  -15.2320   20.2090 N   0  0  0  0  0  0  0  0  0  0  0  0
  -24.7280  -15.8830   20.4090 H   0  0  0  0  0  0  0  0  0  0  0  0
  -26.3240  -15.6890   19.8850 H   0  0  0  0  0  0  0  0  0  0  0  0
  -28.9170  -23.1870   20.3270 C   0  0  0  0  0  2  0  0  0  0  0  0
  -28.7330  -24.6650   20.7560 C   0  0  0  0  0  2  0  0  0  0  0  0
  -28.6730  -25.6020   19.5350 C   0  0  0  0  0  2  0  0  0  0  0  0
  -28.5220  -26.9680   19.9240 O   0  0  0  0  0  0  0  0  0  0  0  0
  -24.6430  -31.9220   23.1970 C   0  0  0  0  0  0  0  0  0  0  0  0
  -27.2880  -27.5890   19.9660 C   0  0  0  0  0  0  0  0  0  0  0  0
  -23.4100  -30.5260   21.5620 C   0  0  0  0  0  3  0  0  0  0  0  0
  -24.8530  -29.0380   20.0760 C   0  0  0  0  0  0  0  0  0  0  0  0
  -25.9230  -30.9390   21.3000 C   0  0  0  0  0  2  0  0  0  0  0  0
  -26.0160  -29.5800   20.6330 C   0  0  0  0  0  0  0  0  0  0  0  0
  -27.2310  -28.8660   20.5710 C   0  0  0  0  0  3  0  0  0  0  0  0
  -26.0990  -27.0480   19.4210 C   0  0  0  0  0  3  0  0  0  0  0  0
  -24.8890  -27.7710   19.4700 C   0  0  0  0  0  3  0  0  0  0  0  0
  -23.5950  -29.8710   20.1650 C   0  0  0  0  0  2  0  0  0  0  0  0
  -24.6770  -31.1470   22.0760 N   0  0  0  0  0  0  0  0  0  0  0  0
  -23.5730  -32.1610   23.7750 O   0  0  0  0  0  0  0  0  0  0  0  0
  -22.8050  -29.4770   22.5230 C   0  0  0  0  0  0  0  0  0  0  0  0
  -21.4880  -29.2440   22.4020 N   0  0  0  0  0  0  0  0  0  0  0  0
  -23.5150  -28.8730   23.3320 O   0  0  0  0  0  0  0  0  0  0  0  0
  -20.9740  -29.7750   21.7130 H   0  0  0  0  0  0  0  0  0  0  0  0
  -18.1710  -27.8950   22.8690 C   0  0  0  0  0  0  0  0  0  0  0  0
  -20.7090  -28.2750   23.1730 C   0  0  0  0  0  3  0  0  0  0  0  0
  -20.8890  -26.8480   22.6060 C   0  0  0  0  0  2  0  0  0  0  0  0
  -19.8190  -26.4650   21.5810 C   0  0  0  0  0  2  0  0  0  0  0  0
  -18.4240  -26.5500   22.2070 C   0  0  0  0  0  2  0  0  0  0  0  0
  -19.2450  -28.7120   23.3060 C   0  0  0  0  0  0  0  0  0  0  0  0
  -18.9600  -29.9710   23.8790 C   0  0  0  0  0  3  0  0  0  0  0  0
  -17.6310  -30.4110   24.0260 C   0  0  0  0  0  3  0  0  0  0  0  0
  -16.5700  -29.5920   23.6050 C   0  0  0  0  0  3  0  0  0  0  0  0
  -16.8400  -28.3350   23.0330 C   0  0  0  0  0  3  0  0  0  0  0  0
  -25.9380  -32.5580   23.7930 C   0  0  0  0  0  3  0  0  0  0  0  0
  -25.6320  -33.9540   24.1340 N   0  0  0  0  0  0  0  0  0  0  0  0
  -25.9370  -35.0090   23.3650 C   0  0  0  0  0  0  0  0  0  0  0  0
  -26.5810  -34.9120   22.3170 O   0  0  0  0  0  0  0  0  0  0  0  0
  -25.0620  -34.1050   24.9540 H   0  0  0  0  0  0  0  0  0  0  0  0
  -24.1780  -36.7740   23.0510 C   0  0  0  0  0  1  0  0  0  0  0  0
  -25.4440  -36.3910   23.8340 C   0  0  0  0  0  3  0  0  0  0  0  0
  -27.5860  -37.2930   24.6210 C   0  0  0  0  0  1  0  0  0  0  0  0
  -26.4630  -37.4550   23.7010 N   0  0  0  0  0  0  0  0  0  0  0  0
  -26.0510  -38.3700   23.8610 H   0  0  0  0  0  0  0  0  0  0  0  0
  -26.4920  -31.7840   25.0540 C   0  0  1  0  0  0  0  0  0  0  0  0
  -25.4220  -31.5090   26.1340 C   0  0  0  0  0  1  0  0  0  0  0  0
  -27.0960  -30.4250   24.6360 C   0  0  0  0  0  1  0  0  0  0  0  0
  -27.6370  -32.5920   25.7100 C   0  0  0  0  0  1  0  0  0  0  0  0
  2  1  1  0
  3  5  1  0
  4  6  2  0
  4  7  1  0
  6  8  1  0
  7  3  2  0
  8  2  1  0
  8  5  2  0
  9 19  1  0
  9  7  1  0
 10 19  1  0
 11 16  1  0
 12 13  1  0
 12 11  1  0
 14 13  1  0
 14 23  1  0
 14 15  1  0
 16 10  1  0
 16 15  1  0
 17 10  2  0
 19 18  1  0
 20 21  2  0
 21 40  1  0
 22 21  1  0
 22 25  1  0
 23 24  1  0
 23 20  1  0
 24 22  2  0
 25 26  1  0
 26 27  2  0
 28 31  1  0
 28 27  1  0
 29 28  2  0
 30 29  1  0
 30 25  2  0
 31 32  1  0
 32 37  2  0
 32 33  1  0
 33 34  2  0
 34 35  1  0
 35 39  1  0
 36 35  2  0
 37 36  1  0
 38 37  1  0
 40 41  1  0
 41 44  1  0
 41 43  1  0
 42 40  2  0
 45 20  1  0
 45 46  1  0
 47 45  1  0
 48 49  1  0
 48  2  1  0
 50 51  1  0
 50 49  1  0
 51 53  1  0
 52 63  2  0
 53 58  1  0
 54 62  1  0
 54 64  1  0
 55 61  1  0
 55 57  1  0
 56 62  1  0
 57 56  1  0
 58 57  2  0
 59 60  1  0
 59 53  2  0
 60 55  2  0
 61 54  1  0
 62 52  1  0
 64 66  2  0
 65 64  1  0
 67 65  1  0
 68 77  2  0
 68 73  1  0
 69 65  1  0
 69 73  1  0
 70 69  1  0
 71 72  1  0
 71 70  1  0
 72 68  1  0
 73 74  2  0
 74 75  1  0
 76 75  2  0
 77 76  1  0
 78 52  1  0
 78 79  1  0
 78 88  1  0
 79 82  1  0
 80 84  1  0
 80 79  1  0
 81 80  2  0
 84 83  1  0
 86 84  1  0
 86 87  1  0
 86 85  1  0
 88 91  1  1
 88 89  1  0
 90 88  1  0
M  ISO  4  10 100  19 100  50 101  51 101
M  END
>  <TORSDO>  (39) 
F 21

>  <SCORE>  (39) 
-11.894

>  <name>  (39) 
39

>  <ligand_id>  (39) 
39

>  <original_smiles>  (39) 
[H]c1c([H])c([H])c2c(c1[H])C([H])([H])C([H])([H])C([H])([H])C2([H])N([H])C(=O)C1([H])N(C(=O)C([H])(N([H])C(=O)C([H])(N([H])C([H])([H])[H])C([H])([H])[H])C(C([H])([H])[H])(C([H])([H])[H])C([H])([H])[H])C([H])([H])c2c([H])c(OC([H])([H])C([H])([H])C([H])([H])N(c3c([H])c([H])c(C([H])([H])N(C(=O)N4C([H])([H])C([H])([H])C([H])([H])C([H])(n5nc(-c6c([H])c([H])c(Oc7c([H])c([H])c(F)c([H])c7F)c([H])c6[H])c(C(=O)N([H])[H])c5N([H])[H])C4([H])[H])C([H])([H])[H])c([H])c3[H])C([H])([H])[H])c([H])c([H])c2C1([H])[H]

>  <smiles>  (39) 
[H]c1c([H])c([H])c2c(c1[H])C([H])([H])C([H])([H])C([H])([H])C2([H])N([H])C(=O)C1([H])N(C(=O)C([H])(N([H])C(=O)C([H])(N([H])C([H])([H])[H])C([H])([H])[H])C(C([H])([H])[H])(C([H])([H])[H])C([H])([H])[H])C([H])([H])c2c([H])c(OC([H])([H])C([H])([H])C([H])([H])N(c3c([H])c([H])c(C([H])([H])N(C(=O)N4C([H])([H])C([H])([H])C([H])([H])C([H])(n5nc(-c6c([H])c([H])c(Oc7c([H])c([H])c(F)c([H])c7F)c([H])c6[H])c(C(=O)N([H])[H])c5N([H])[H])C4([H])[H])C([H])([H])[H])c([H])c3[H])C([H])([H])[H])c([H])c([H])c2C1([H])[H]

$$$$
40:0:0
     RDKit          3D

 92100  0  0  1  0  0  0  0  0999 V2000
  -30.8070  -21.9950   19.5030 C   0  0  0  0  0  1  0  0  0  0  0  0
  -30.1750  -22.1690   20.8340 N   0  0  1  0  0  4  0  0  0  0  0  0
  -29.1860  -22.0150   20.7030 H   0  0  0  0  0  0  0  0  0  0  0  0
  -30.6310  -21.1460   21.8250 C   0  0  0  0  0  2  0  0  0  0  0  0
  -29.3120  -19.0150   21.2910 C   0  0  0  0  0  3  0  0  0  0  0  0
  -31.7390  -18.8970   21.2870 C   0  0  0  0  0  3  0  0  0  0  0  0
  -29.2520  -17.6200   21.0820 C   0  0  0  0  0  3  0  0  0  0  0  0
  -31.6790  -17.5000   21.0720 C   0  0  0  0  0  3  0  0  0  0  0  0
  -30.5580  -19.6670   21.4180 C   0  0  0  0  0  0  0  0  0  0  0  0
  -30.4290  -16.8430   20.9810 C   0  0  0  0  0  0  0  0  0  0  0  0
  -30.9880  -14.5010   20.1870 C   0  0  0  0  0  0  0  0  0  0  0  0
  -30.6590  -12.3930   18.9330 C   0  0  0  0  0  2  0  0  0  0  0  0
  -29.6760  -12.6540   17.7700 C   0  0  0  0  0  2  0  0  0  0  0  0
  -28.2100  -12.5330   18.2380 C   0  0  0  0  0  2  0  0  0  0  0  0
  -27.9320  -13.3180   19.5470 C   0  0  0  0  0  3  0  0  0  0  0  0
  -29.0100  -12.9970   20.6050 C   0  0  0  0  0  2  0  0  0  0  0  0
  -30.3250  -13.3230   20.0220 N   0  0  0  0  0  0  0  0  0  0  0  0
  -32.0890  -14.7250   19.6720 O   0  0  0  0  0  0  0  0  0  0  0  0
  -30.2740  -15.4280   20.8600 N   0  0  0  0  0  0  0  0  0  0  0  0
  -29.3920  -15.0690   21.1930 H   0  0  0  0  0  0  0  0  0  0  0  0
  -25.5580  -13.9600   20.3110 C   0  0  0  0  0  0  0  0  0  0  0  0
  -24.4890  -13.2010   20.7060 C   0  0  0  0  0  0  0  0  0  0  0  0
  -24.9300  -11.8430   20.6590 C   0  0  0  0  0  0  0  0  0  0  0  0
  -26.5840  -13.0650   20.0530 N   0  0  0  0  0  0  0  0  0  0  0  0
  -26.2110  -11.7860   20.3170 N   0  0  0  0  0  0  0  0  0  0  0  0
  -24.1930  -10.5900   20.8620 C   0  0  0  0  0  0  0  0  0  0  0  0
  -24.5930   -9.6500   21.8390 C   0  0  0  0  0  3  0  0  0  0  0  0
  -23.8580   -8.4590   22.0270 C   0  0  0  0  0  3  0  0  0  0  0  0
  -22.7120   -8.2010   21.2390 C   0  0  0  0  0  0  0  0  0  0  0  0
  -22.3320   -9.1300   20.2550 C   0  0  0  0  0  3  0  0  0  0  0  0
  -23.0660  -10.3110   20.0640 C   0  0  0  0  0  3  0  0  0  0  0  0
  -21.9520   -7.0600   21.3360 O   0  0  0  0  0  0  0  0  0  0  0  0
  -21.7950   -6.3980   22.5270 C   0  0  0  0  0  0  0  0  0  0  0  0
  -21.2320   -7.0260   23.6590 C   0  0  0  0  0  3  0  0  0  0  0  0
  -21.0250   -6.2890   24.8420 C   0  0  0  0  0  3  0  0  0  0  0  0
  -21.3680   -4.9240   24.8930 C   0  0  0  0  0  0  0  0  0  0  0  0
  -21.9230   -4.2970   23.7640 C   0  0  0  0  0  3  0  0  0  0  0  0
  -22.1330   -5.0310   22.5830 C   0  0  0  0  0  0  0  0  0  0  0  0
  -22.6480   -4.4150   21.4920 F   0  0  0  0  0  0  0  0  0  0  0  0
  -21.1620   -4.2140   26.0260 F   0  0  0  0  0  0  0  0  0  0  0  0
  -23.1050  -13.6940   21.0150 C   0  0  0  0  0  0  0  0  0  0  0  0
  -22.3910  -13.0050   21.8990 N   0  0  0  0  0  0  0  0  0  0  0  0
  -22.6660  -14.7270   20.5090 O   0  0  0  0  0  0  0  0  0  0  0  0
  -22.7600  -12.1710   22.3300 H   0  0  0  0  0  0  0  0  0  0  0  0
  -21.4630  -13.3180   22.1470 H   0  0  0  0  0  0  0  0  0  0  0  0
  -25.7380  -15.3280   20.1310 N   0  0  0  0  0  0  0  0  0  0  0  0
  -24.9790  -15.9920   20.2420 H   0  0  0  0  0  0  0  0  0  0  0  0
  -26.5710  -15.7450   19.7340 H   0  0  0  0  0  0  0  0  0  0  0  0
  -30.3470  -23.5430   21.4160 C   0  0  0  0  0  2  0  0  0  0  0  0
  -30.1170  -24.7950   20.5120 C   0  0  0  0  0  2  0  0  0  0  0  0
  -28.6670  -25.3050   20.3550 C   0  0  0  0  0  2  0  0  0  0  0  0
  -28.6980  -26.7210   20.1100 O   0  0  0  0  0  0  0  0  0  0  0  0
  -24.6970  -31.7540   23.1720 C   0  0  0  0  0  0  0  0  0  0  0  0
  -27.4940  -27.3950   20.1090 C   0  0  0  0  0  0  0  0  0  0  0  0
  -23.5470  -30.3310   21.5080 C   0  0  0  0  0  3  0  0  0  0  0  0
  -25.0570  -28.8340   20.0990 C   0  0  0  0  0  0  0  0  0  0  0  0
  -26.0640  -30.7570   21.3400 C   0  0  0  0  0  2  0  0  0  0  0  0
  -26.1940  -29.3920   20.6960 C   0  0  0  0  0  0  0  0  0  0  0  0
  -27.4170  -28.6810   20.6920 C   0  0  0  0  0  3  0  0  0  0  0  0
  -26.3350  -26.8460   19.5120 C   0  0  0  0  0  3  0  0  0  0  0  0
  -25.1220  -27.5600   19.5060 C   0  0  0  0  0  3  0  0  0  0  0  0
  -23.7920  -29.6620   20.1300 C   0  0  0  0  0  2  0  0  0  0  0  0
  -24.7870  -30.9610   22.0660 N   0  0  0  0  0  0  0  0  0  0  0  0
  -23.6040  -31.9970   23.7010 O   0  0  0  0  0  0  0  0  0  0  0  0
  -22.9090  -29.2890   22.4560 C   0  0  0  0  0  0  0  0  0  0  0  0
  -21.5940  -29.0690   22.3040 N   0  0  0  0  0  0  0  0  0  0  0  0
  -23.5960  -28.6830   23.2820 O   0  0  0  0  0  0  0  0  0  0  0  0
  -21.1010  -29.6120   21.6090 H   0  0  0  0  0  0  0  0  0  0  0  0
  -18.2490  -27.7720   22.7270 C   0  0  0  0  0  0  0  0  0  0  0  0
  -20.7910  -28.1060   23.0560 C   0  0  0  0  0  3  0  0  0  0  0  0
  -20.9490  -26.6790   22.4820 C   0  0  0  0  0  2  0  0  0  0  0  0
  -19.8800  -26.3250   21.4440 C   0  0  0  0  0  2  0  0  0  0  0  0
  -18.4810  -26.4280   22.0570 C   0  0  0  0  0  2  0  0  0  0  0  0
  -19.3340  -28.5660   23.1830 C   0  0  0  0  0  0  0  0  0  0  0  0
  -19.0650  -29.8220   23.7670 C   0  0  0  0  0  3  0  0  0  0  0  0
  -17.7440  -30.2870   23.9020 C   0  0  0  0  0  3  0  0  0  0  0  0
  -16.6720  -29.4890   23.4650 C   0  0  0  0  0  3  0  0  0  0  0  0
  -16.9250  -28.2330   22.8840 C   0  0  0  0  0  3  0  0  0  0  0  0
  -25.9600  -32.4130   23.8100 C   0  0  0  0  0  3  0  0  0  0  0  0
  -25.6100  -33.7970   24.1540 N   0  0  0  0  0  0  0  0  0  0  0  0
  -25.9140  -34.8670   23.4060 C   0  0  0  0  0  0  0  0  0  0  0  0
  -26.5890  -34.7940   22.3770 O   0  0  0  0  0  0  0  0  0  0  0  0
  -25.0050  -33.9250   24.9530 H   0  0  0  0  0  0  0  0  0  0  0  0
  -24.1280  -36.6050   23.0730 C   0  0  0  0  0  1  0  0  0  0  0  0
  -25.3840  -36.2360   23.8760 C   0  0  0  0  0  3  0  0  0  0  0  0
  -27.4910  -37.1840   24.7100 C   0  0  0  0  0  1  0  0  0  0  0  0
  -26.3840  -37.3210   23.7680 N   0  0  0  0  0  0  0  0  0  0  0  0
  -25.9490  -38.2260   23.9230 H   0  0  0  0  0  0  0  0  0  0  0  0
  -26.4900  -31.6390   25.0800 C   0  0  1  0  0  0  0  0  0  0  0  0
  -25.3960  -31.3520   26.1330 C   0  0  0  0  0  1  0  0  0  0  0  0
  -27.1160  -30.2860   24.6670 C   0  0  0  0  0  1  0  0  0  0  0  0
  -27.6090  -32.4580   25.7650 C   0  0  0  0  0  1  0  0  0  0  0  0
  1  2  1  0
  2 49  1  0
  2  4  1  0
  2  3  1  6
  5  9  1  0
  6  9  2  0
  7  5  2  0
  8  6  1  0
  9  4  1  0
 10  8  2  0
 10  7  1  0
 11 19  1  0
 12 17  1  0
 13 14  1  0
 13 12  1  0
 15 14  1  0
 15 24  1  0
 15 16  1  0
 17 11  1  0
 17 16  1  0
 18 11  2  0
 19 10  1  0
 19 20  1  0
 21 22  2  0
 22 41  1  0
 23 22  1  0
 23 26  1  0
 24 21  1  0
 24 25  1  0
 25 23  2  0
 26 27  1  0
 27 28  2  0
 29 32  1  0
 29 28  1  0
 30 29  2  0
 31 30  1  0
 31 26  2  0
 32 33  1  0
 33 38  2  0
 33 34  1  0
 34 35  2  0
 35 36  1  0
 36 40  1  0
 37 36  2  0
 38 37  1  0
 39 38  1  0
 41 42  1  0
 42 45  1  0
 42 44  1  0
 43 41  2  0
 46 47  1  0
 46 21  1  0
 48 46  1  0
 50 49  1  0
 51 50  1  0
 52 51  1  0
 53 64  2  0
 54 52  1  0
 54 59  1  0
 55 63  1  0
 55 65  1  0
 56 62  1  0
 56 58  1  0
 57 63  1  0
 58 57  1  0
 59 58  2  0
 60 54  2  0
 61 60  1  0
 61 56  2  0
 62 55  1  0
 63 53  1  0
 65 67  2  0
 66 65  1  0
 68 66  1  0
 69 78  2  0
 69 74  1  0
 70 66  1  0
 70 74  1  0
 71 70  1  0
 72 73  1  0
 72 71  1  0
 73 69  1  0
 74 75  2  0
 75 76  1  0
 77 76  2  0
 78 77  1  0
 79 53  1  0
 79 80  1  0
 79 89  1  0
 80 83  1  0
 81 85  1  0
 81 80  1  0
 82 81  2  0
 85 84  1  0
 87 85  1  0
 87 88  1  0
 87 86  1  0
 89 92  1  1
 89 90  1  0
 91 89  1  0
M  ISO  4  11 100  19 100  51 101  52 101
M  END
>  <TORSDO>  (40) 
F 21

>  <SCORE>  (40) 
-12.816

>  <name>  (40) 
40

>  <ligand_id>  (40) 
40

>  <original_smiles>  (40) 
[H]c1c([H])c([H])c2c(c1[H])C([H])([H])C([H])([H])C([H])([H])C2([H])N([H])C(=O)C1([H])N(C(=O)C([H])(N([H])C(=O)C([H])(N([H])C([H])([H])[H])C([H])([H])[H])C(C([H])([H])[H])(C([H])([H])[H])C([H])([H])[H])C([H])([H])c2c([H])c(OC([H])([H])C([H])([H])C([H])([H])[N+]([H])(C([H])([H])[H])C([H])([H])c3c([H])c([H])c(N([H])C(=O)N4C([H])([H])C([H])([H])C([H])([H])C([H])(n5nc(-c6c([H])c([H])c(Oc7c([H])c([H])c(F)c([H])c7F)c([H])c6[H])c(C(=O)N([H])[H])c5N([H])[H])C4([H])[H])c([H])c3[H])c([H])c([H])c2C1([H])[H]

>  <smiles>  (40) 
[H]c1c([H])c([H])c2c(c1[H])C([H])([H])C([H])([H])C([H])([H])C2([H])N([H])C(=O)C1([H])N(C(=O)C([H])(N([H])C(=O)C([H])(N([H])C([H])([H])[H])C([H])([H])[H])C(C([H])([H])[H])(C([H])([H])[H])C([H])([H])[H])C([H])([H])c2c([H])c(OC([H])([H])C([H])([H])C([H])([H])[N+]([H])(C([H])([H])[H])C([H])([H])c3c([H])c([H])c(N([H])C(=O)N4C([H])([H])C([H])([H])C([H])([H])C([H])(n5nc(-c6c([H])c([H])c(Oc7c([H])c([H])c(F)c([H])c7F)c([H])c6[H])c(C(=O)N([H])[H])c5N([H])[H])C4([H])[H])c([H])c3[H])c([H])c([H])c2C1([H])[H]

$$$$
41:0:0
     RDKit          3D

 95104  0  0  1  0  0  0  0  0999 V2000
  -29.1430  -15.9010   21.1180 C   0  0  0  0  0  3  0  0  0  0  0  0
  -30.2440  -17.3930   19.4700 C   0  0  0  0  0  0  0  0  0  0  0  0
  -29.0110  -18.1270   19.4460 C   0  0  0  0  0  0  0  0  0  0  0  0
  -30.2450  -16.1180   20.2600 C   0  0  0  0  0  0  0  0  0  0  0  0
  -27.9560  -16.6340   21.0400 C   0  0  0  0  0  0  0  0  0  0  0  0
  -27.8720  -17.7130   20.1640 C   0  0  0  0  0  0  0  0  0  0  0  0
  -28.8430  -19.4070   18.6350 C   0  0  0  0  0  2  0  0  0  0  0  0
  -31.4420  -18.1270   18.6740 C   0  0  0  0  0  2  0  0  0  0  0  0
  -30.0980  -20.2570   18.5690 C   0  0  0  0  0  2  0  0  0  0  0  0
  -31.1760  -19.4860   17.9370 N   0  0  1  0  0  4  0  0  0  0  0  0
  -26.8880  -16.2800   21.7930 F   0  0  0  0  0  0  0  0  0  0  0  0
  -26.6970  -18.3840   20.0590 F   0  0  0  0  0  0  0  0  0  0  0  0
  -30.7640  -19.1930   17.0630 H   0  0  0  0  0  0  0  0  0  0  0  0
  -31.6510  -14.0480   21.2450 C   0  0  0  0  0  0  0  0  0  0  0  0
  -31.4930  -11.5990   21.7730 C   0  0  0  0  0  2  0  0  0  0  0  0
  -31.0020  -10.8220   20.5290 C   0  0  0  0  0  2  0  0  0  0  0  0
  -29.4600  -10.7680   20.4990 C   0  0  0  0  0  2  0  0  0  0  0  0
  -28.8240  -12.1570   20.7740 C   0  0  0  0  0  3  0  0  0  0  0  0
  -29.4650  -12.8280   21.9940 C   0  0  0  0  0  2  0  0  0  0  0  0
  -30.9010  -12.9660   21.6970 N   0  0  0  0  0  0  0  0  0  0  0  0
  -32.8740  -13.9990   21.4090 O   0  0  0  0  0  0  0  0  0  0  0  0
  -31.2120  -14.9850   20.2880 N   0  0  0  0  0  0  0  0  0  0  0  0
  -31.9810  -15.1530   19.6560 H   0  0  0  0  0  0  0  0  0  0  0  0
  -26.4500  -13.1140   20.8120 C   0  0  0  0  0  0  0  0  0  0  0  0
  -25.2240  -12.5250   20.9340 C   0  0  0  0  0  0  0  0  0  0  0  0
  -25.4720  -11.1270   21.1100 C   0  0  0  0  0  0  0  0  0  0  0  0
  -27.3750  -12.0880   20.9050 N   0  0  0  0  0  0  0  0  0  0  0  0
  -26.7780  -10.8930   21.1520 N   0  0  0  0  0  0  0  0  0  0  0  0
  -24.5430   -9.9940   21.1780 C   0  0  0  0  0  0  0  0  0  0  0  0
  -24.5900   -9.0590   22.2370 C   0  0  0  0  0  3  0  0  0  0  0  0
  -23.6740   -7.9850   22.2860 C   0  0  0  0  0  3  0  0  0  0  0  0
  -22.6940   -7.8420   21.2750 C   0  0  0  0  0  0  0  0  0  0  0  0
  -22.6660   -8.7630   20.2110 C   0  0  0  0  0  3  0  0  0  0  0  0
  -23.5810   -9.8270   20.1610 C   0  0  0  0  0  3  0  0  0  0  0  0
  -21.7790   -6.8180   21.2270 O   0  0  0  0  0  0  0  0  0  0  0  0
  -21.3010   -6.2270   22.3700 C   0  0  0  0  0  0  0  0  0  0  0  0
  -20.6580   -6.9720   23.3820 C   0  0  0  0  0  3  0  0  0  0  0  0
  -20.1190   -6.3140   24.5070 C   0  0  0  0  0  3  0  0  0  0  0  0
  -20.2170   -4.9140   24.6170 C   0  0  0  0  0  0  0  0  0  0  0  0
  -20.8530   -4.1700   23.6090 C   0  0  0  0  0  3  0  0  0  0  0  0
  -21.3930   -4.8250   22.4880 C   0  0  0  0  0  0  0  0  0  0  0  0
  -21.9850   -4.1000   21.5080 F   0  0  0  0  0  0  0  0  0  0  0  0
  -19.6950   -4.2810   25.6940 F   0  0  0  0  0  0  0  0  0  0  0  0
  -23.8890  -13.1990   20.7940 C   0  0  0  0  0  0  0  0  0  0  0  0
  -22.8740  -12.7060   21.4940 N   0  0  0  0  0  0  0  0  0  0  0  0
  -23.7540  -14.2030   20.0950 O   0  0  0  0  0  0  0  0  0  0  0  0
  -22.9870  -11.8920   22.0800 H   0  0  0  0  0  0  0  0  0  0  0  0
  -21.9670  -13.1480   21.4430 H   0  0  0  0  0  0  0  0  0  0  0  0
  -26.8640  -14.4270   20.6040 N   0  0  0  0  0  0  0  0  0  0  0  0
  -26.2130  -15.1950   20.4840 H   0  0  0  0  0  0  0  0  0  0  0  0
  -27.8320  -14.6960   20.4920 H   0  0  0  0  0  0  0  0  0  0  0  0
  -32.3490  -20.3880   17.4790 C   0  0  0  0  0  2  0  0  0  0  0  0
  -32.5110  -21.9880   17.8570 C   0  0  0  0  0  3  0  0  0  0  0  0
  -31.6880  -23.2240   17.1950 C   0  0  0  0  0  3  0  0  0  0  0  0
  -31.8170  -24.6460   17.7050 O   0  0  0  0  0  0  0  0  0  0  0  0
  -27.7170  -28.4310   22.3810 C   0  0  0  0  0  0  0  0  0  0  0  0
  -30.6860  -25.4810   17.9160 C   0  0  0  0  0  0  0  0  0  0  0  0
  -26.6920  -27.8040   20.2430 C   0  0  0  0  0  3  0  0  0  0  0  0
  -28.2710  -26.9730   18.4090 C   0  0  0  0  0  0  0  0  0  0  0  0
  -29.2160  -28.1780   20.3810 C   0  0  0  0  0  2  0  0  0  0  0  0
  -29.3840  -27.1780   19.2320 C   0  0  0  0  0  0  0  0  0  0  0  0
  -30.5910  -26.4470   18.9810 C   0  0  0  0  0  3  0  0  0  0  0  0
  -29.5490  -25.3650   17.0870 C   0  0  0  0  0  3  0  0  0  0  0  0
  -28.3580  -26.0800   17.3310 C   0  0  0  0  0  3  0  0  0  0  0  0
  -27.0080  -27.7490   18.7240 C   0  0  0  0  0  2  0  0  0  0  0  0
  -27.8910  -28.1330   21.0630 N   0  0  0  0  0  0  0  0  0  0  0  0
  -26.5880  -28.4600   22.8990 O   0  0  0  0  0  0  0  0  0  0  0  0
  -26.0020  -26.4900   20.6730 C   0  0  0  0  0  0  0  0  0  0  0  0
  -24.6910  -26.4850   20.4560 N   0  0  0  0  0  0  0  0  0  0  0  0
  -26.6280  -25.5340   21.1350 O   0  0  0  0  0  0  0  0  0  0  0  0
  -24.3180  -27.3750   20.1570 H   0  0  0  0  0  0  0  0  0  0  0  0
  -21.2640  -25.0040   20.2070 C   0  0  0  0  0  0  0  0  0  0  0  0
  -23.7400  -25.4050   20.3510 C   0  0  0  0  0  3  0  0  0  0  0  0
  -24.0070  -24.1620   19.4950 C   0  0  0  0  0  2  0  0  0  0  0  0
  -22.9060  -24.0690   18.4170 C   0  0  0  0  0  2  0  0  0  0  0  0
  -21.4850  -24.0520   19.0280 C   0  0  0  0  0  2  0  0  0  0  0  0
  -22.3510  -25.5670   20.9200 C   0  0  0  0  0  0  0  0  0  0  0  0
  -22.1150  -26.4250   22.0140 C   0  0  0  0  0  3  0  0  0  0  0  0
  -20.7960  -26.7650   22.3700 C   0  0  0  0  0  3  0  0  0  0  0  0
  -19.7150  -26.2350   21.6410 C   0  0  0  0  0  3  0  0  0  0  0  0
  -19.9480  -25.3440   20.5770 C   0  0  0  0  0  3  0  0  0  0  0  0
  -28.9270  -28.7680   23.3000 C   0  0  0  0  0  3  0  0  0  0  0  0
  -29.4220  -27.5330   24.1470 C   0  0  1  0  0  0  0  0  0  0  0  0
  -28.2930  -26.8280   24.9340 C   0  0  0  0  0  1  0  0  0  0  0  0
  -30.0920  -26.4730   23.2410 C   0  0  0  0  0  1  0  0  0  0  0  0
  -30.4980  -27.9910   25.1590 C   0  0  0  0  0  1  0  0  0  0  0  0
  -28.5240  -29.8740   24.1790 N   0  0  0  0  0  0  0  0  0  0  0  0
  -28.8410  -31.1600   23.9770 C   0  0  0  0  0  0  0  0  0  0  0  0
  -29.5700  -31.5320   23.0550 O   0  0  0  0  0  0  0  0  0  0  0  0
  -27.8820  -29.6500   24.9240 H   0  0  0  0  0  0  0  0  0  0  0  0
  -27.0320  -32.8740   24.3200 C   0  0  0  0  0  1  0  0  0  0  0  0
  -28.2560  -32.1960   24.9550 C   0  0  0  0  0  3  0  0  0  0  0  0
  -30.3010  -32.7010   26.2180 C   0  0  0  0  0  1  0  0  0  0  0  0
  -29.2310  -33.2260   25.3740 N   0  0  0  0  0  0  0  0  0  0  0  0
  -28.7670  -33.9750   25.8810 H   0  0  0  0  0  0  0  0  0  0  0  0
  2  4  1  0
  3  2  2  0
  3  6  1  0
  4 22  1  0
  4  1  2  0
  5  1  1  0
  5 11  1  0
  6  5  2  0
  7  3  1  0
  8  2  1  0
  9  7  1  0
 10  9  1  0
 10  8  1  0
 12  6  1  0
 10 13  1  6
 14 21  2  0
 14 20  1  0
 16 15  1  0
 17 16  1  0
 18 17  1  0
 18 27  1  0
 18 19  1  0
 20 15  1  0
 20 19  1  0
 22 14  1  0
 23 22  1  0
 24 27  1  0
 24 25  2  0
 25 26  1  0
 26 28  2  0
 26 29  1  0
 27 28  1  0
 29 30  1  0
 30 31  2  0
 32 31  1  0
 33 32  2  0
 34 33  1  0
 34 29  2  0
 35 32  1  0
 35 36  1  0
 36 41  2  0
 36 37  1  0
 37 38  2  0
 38 39  1  0
 39 43  1  0
 40 39  2  0
 41 40  1  0
 42 41  1  0
 44 25  1  0
 44 45  1  0
 45 47  1  0
 46 44  2  0
 48 45  1  0
 49 24  1  0
 50 49  1  0
 51 49  1  0
 52 53  1  0
 52 10  1  0
 54 55  1  0
 54 53  2  0
 55 57  1  0
 56 67  2  0
 57 62  1  0
 58 68  1  0
 58 66  1  0
 59 65  1  0
 59 61  1  0
 60 66  1  0
 61 60  1  0
 62 61  2  0
 63 64  1  0
 63 57  2  0
 64 59  2  0
 65 58  1  0
 66 56  1  0
 68 70  2  0
 69 68  1  0
 71 69  1  0
 72 81  2  0
 72 77  1  0
 73 69  1  0
 73 77  1  0
 74 73  1  0
 75 76  1  0
 75 74  1  0
 76 72  1  0
 77 78  2  0
 78 79  1  0
 80 79  2  0
 81 80  1  0
 82 56  1  0
 82 83  1  0
 82 87  1  0
 83 84  1  1
 83 86  1  0
 85 83  1  0
 87 90  1  0
 88 87  1  0
 88 92  1  0
 89 88  2  0
 92 91  1  0
 92 94  1  0
 94 95  1  0
 94 93  1  0
M  ISO  4  14 100  22 100  54 101  55 101
M  END
>  <TORSDO>  (41) 
F 19

>  <SCORE>  (41) 
-6.048

>  <name>  (41) 
41

>  <ligand_id>  (41) 
41

>  <original_smiles>  (41) 
[H]c1c([H])c([H])c2c(c1[H])C([H])([H])C([H])([H])C([H])([H])C2([H])N([H])C(=O)C1([H])N(C(=O)C([H])(N([H])C(=O)C([H])(N([H])C([H])([H])[H])C([H])([H])[H])C(C([H])([H])[H])(C([H])([H])[H])C([H])([H])[H])C([H])([H])c2c([H])c(OC([H])([H])C([H])([H])C([H])([H])[N+]3([H])C([H])([H])c4c(N([H])C(=O)N5C([H])([H])C([H])([H])C([H])([H])C([H])(n6nc(-c7c([H])c([H])c(Oc8c([H])c([H])c(F)c([H])c8F)c([H])c7[H])c(C(=O)N([H])[H])c6N([H])[H])C5([H])[H])c([H])c(F)c(F)c4C([H])([H])C3([H])[H])c([H])c([H])c2C1([H])[H]

>  <smiles>  (41) 
[H]c1c([H])c([H])c2c(c1[H])C([H])([H])C([H])([H])C([H])([H])C2([H])N([H])C(=O)C1([H])N(C(=O)C([H])(N([H])C(=O)C([H])(N([H])C([H])([H])[H])C([H])([H])[H])C(C([H])([H])[H])(C([H])([H])[H])C([H])([H])[H])C([H])([H])c2c([H])c(OC([H])([H])C([H])([H])C([H])([H])[N+]3([H])C([H])([H])c4c(N([H])C(=O)N5C([H])([H])C([H])([H])C([H])([H])C([H])(n6nc(-c7c([H])c([H])c(Oc8c([H])c([H])c(F)c([H])c8F)c([H])c7[H])c(C(=O)N([H])[H])c6N([H])[H])C5([H])[H])c([H])c(F)c(F)c4C([H])([H])C3([H])[H])c([H])c([H])c2C1([H])[H]

$$$$
42:0:0
     RDKit          3D

 91 99  0  0  1  0  0  0  0  0999 V2000
  -27.3650  -22.0720   19.1290 C   0  0  0  0  0  1  0  0  0  0  0  0
  -28.7610  -22.3700   19.5240 N   0  0  1  0  0  4  0  0  0  0  0  0
  -28.7710  -22.3120   20.5320 H   0  0  0  0  0  0  0  0  0  0  0  0
  -29.6890  -21.2300   19.0700 C   0  0  0  0  0  2  0  0  0  0  0  0
  -29.2890  -18.4740   21.8400 C   0  0  0  0  0  3  0  0  0  0  0  0
  -29.2620  -19.7100   21.1560 C   0  0  0  0  0  3  0  0  0  0  0  0
  -29.8010  -17.2990   21.2400 C   0  0  0  0  0  3  0  0  0  0  0  0
  -30.1630  -18.5820   19.2100 C   0  0  0  0  0  3  0  0  0  0  0  0
  -29.6820  -19.8140   19.8100 C   0  0  0  0  0  0  0  0  0  0  0  0
  -30.2770  -17.3040   19.9100 C   0  0  0  0  0  0  0  0  0  0  0  0
  -31.3620  -14.9530   19.9180 C   0  0  0  0  0  0  0  0  0  0  0  0
  -31.0340  -12.6970   18.9500 C   0  0  0  0  0  2  0  0  0  0  0  0
  -30.0290  -12.7730   17.7810 C   0  0  0  0  0  2  0  0  0  0  0  0
  -28.5710  -12.6790   18.2810 C   0  0  0  0  0  2  0  0  0  0  0  0
  -28.2880  -13.5690   19.5240 C   0  0  0  0  0  3  0  0  0  0  0  0
  -29.4060  -13.4400   20.5770 C   0  0  0  0  0  2  0  0  0  0  0  0
  -30.6600  -13.7720   19.8860 N   0  0  0  0  0  0  0  0  0  0  0  0
  -32.5940  -14.9100   19.8900 O   0  0  0  0  0  0  0  0  0  0  0  0
  -31.4030  -16.2650   17.9540 C   0  0  0  0  0  1  0  0  0  0  0  0
  -30.7890  -16.0560   19.2840 N   0  0  0  0  0  0  0  0  0  0  0  0
  -25.9840  -14.2310   20.4460 C   0  0  0  0  0  0  0  0  0  0  0  0
  -24.8980  -13.4920   20.8340 C   0  0  0  0  0  0  0  0  0  0  0  0
  -25.2790  -12.1230   20.6800 C   0  0  0  0  0  0  0  0  0  0  0  0
  -26.9610  -13.3200   20.0850 N   0  0  0  0  0  0  0  0  0  0  0  0
  -26.5450  -12.0400   20.2800 N   0  0  0  0  0  0  0  0  0  0  0  0
  -24.4910  -10.8910   20.8140 C   0  0  0  0  0  0  0  0  0  0  0  0
  -24.8670   -9.8680   21.7090 C   0  0  0  0  0  3  0  0  0  0  0  0
  -24.0840   -8.6980   21.8310 C   0  0  0  0  0  3  0  0  0  0  0  0
  -22.9120   -8.5460   21.0570 C   0  0  0  0  0  0  0  0  0  0  0  0
  -22.5520   -9.5600   20.1530 C   0  0  0  0  0  3  0  0  0  0  0  0
  -23.3330  -10.7190   20.0280 C   0  0  0  0  0  3  0  0  0  0  0  0
  -22.1050   -7.4320   21.0940 O   0  0  0  0  0  0  0  0  0  0  0  0
  -21.9460   -6.6990   22.2440 C   0  0  0  0  0  0  0  0  0  0  0  0
  -21.4610   -7.2810   23.4350 C   0  0  0  0  0  3  0  0  0  0  0  0
  -21.2390   -6.4810   24.5730 C   0  0  0  0  0  3  0  0  0  0  0  0
  -21.4950   -5.0970   24.5190 C   0  0  0  0  0  0  0  0  0  0  0  0
  -21.9720   -4.5130   23.3320 C   0  0  0  0  0  3  0  0  0  0  0  0
  -22.1930   -5.3130   22.1970 C   0  0  0  0  0  0  0  0  0  0  0  0
  -22.6320   -4.7430   21.0490 F   0  0  0  0  0  0  0  0  0  0  0  0
  -21.2790   -4.3230   25.6070 F   0  0  0  0  0  0  0  0  0  0  0  0
  -23.5470  -14.0210   21.2150 C   0  0  0  0  0  0  0  0  0  0  0  0
  -22.8340  -13.3250   22.0930 N   0  0  0  0  0  0  0  0  0  0  0  0
  -23.1320  -15.0910   20.7710 O   0  0  0  0  0  0  0  0  0  0  0  0
  -23.1720  -12.4570   22.4830 H   0  0  0  0  0  0  0  0  0  0  0  0
  -21.9260  -13.6710   22.3740 H   0  0  0  0  0  0  0  0  0  0  0  0
  -26.2240  -15.5970   20.3280 N   0  0  0  0  0  0  0  0  0  0  0  0
  -25.4840  -16.2860   20.4070 H   0  0  0  0  0  0  0  0  0  0  0  0
  -27.0050  -15.9320   19.7820 H   0  0  0  0  0  0  0  0  0  0  0  0
  -29.1690  -23.8320   19.1980 C   0  0  0  0  0  3  0  0  0  0  0  0
  -28.1350  -25.0190   19.5800 C   0  0  0  0  0  3  0  0  0  0  0  0
  -28.4130  -26.5040   19.5210 O   0  0  0  0  0  0  0  0  0  0  0  0
  -24.6920  -31.7370   23.0120 C   0  0  0  0  0  0  0  0  0  0  0  0
  -27.3070  -27.3920   19.5890 C   0  0  0  0  0  0  0  0  0  0  0  0
  -23.4840  -30.4210   21.3170 C   0  0  0  0  0  3  0  0  0  0  0  0
  -24.9290  -29.0000   19.7670 C   0  0  0  0  0  0  0  0  0  0  0  0
  -26.0210  -30.7890   21.1010 C   0  0  0  0  0  2  0  0  0  0  0  0
  -26.1120  -29.4530   20.3630 C   0  0  0  0  0  0  0  0  0  0  0  0
  -27.3070  -28.6610   20.2650 C   0  0  0  0  0  3  0  0  0  0  0  0
  -26.0910  -27.0290   18.9600 C   0  0  0  0  0  3  0  0  0  0  0  0
  -24.9220  -27.7950   19.0590 C   0  0  0  0  0  3  0  0  0  0  0  0
  -23.6840  -29.8530   19.8920 C   0  0  0  0  0  2  0  0  0  0  0  0
  -24.7540  -30.9960   21.8670 N   0  0  0  0  0  0  0  0  0  0  0  0
  -23.6130  -31.9600   23.5810 O   0  0  0  0  0  0  0  0  0  0  0  0
  -22.8600  -29.3280   22.2220 C   0  0  0  0  0  0  0  0  0  0  0  0
  -21.5300  -29.1540   22.1380 N   0  0  0  0  0  0  0  0  0  0  0  0
  -23.5740  -28.6460   22.9620 O   0  0  0  0  0  0  0  0  0  0  0  0
  -21.0110  -29.7630   21.5210 H   0  0  0  0  0  0  0  0  0  0  0  0
  -18.1790  -27.9000   22.6960 C   0  0  0  0  0  0  0  0  0  0  0  0
  -20.7460  -28.1560   22.8710 C   0  0  0  0  0  3  0  0  0  0  0  0
  -20.8280  -26.7710   22.1900 C   0  0  0  0  0  2  0  0  0  0  0  0
  -19.6830  -26.5150   21.2040 C   0  0  0  0  0  2  0  0  0  0  0  0
  -18.3290  -26.6060   21.9160 C   0  0  0  0  0  2  0  0  0  0  0  0
  -19.3140  -28.6350   23.1320 C   0  0  0  0  0  0  0  0  0  0  0  0
  -19.1170  -29.8490   23.8280 C   0  0  0  0  0  3  0  0  0  0  0  0
  -17.8210  -30.3280   24.0890 C   0  0  0  0  0  3  0  0  0  0  0  0
  -16.7010  -29.5910   23.6670 C   0  0  0  0  0  3  0  0  0  0  0  0
  -16.8810  -28.3790   22.9780 C   0  0  0  0  0  3  0  0  0  0  0  0
  -25.9710  -32.3660   23.6450 C   0  0  0  0  0  3  0  0  0  0  0  0
  -26.5610  -31.5070   24.8310 C   0  0  1  0  0  0  0  0  0  0  0  0
  -25.5170  -31.1430   25.9130 C   0  0  0  0  0  1  0  0  0  0  0  0
  -27.1710  -30.1880   24.3000 C   0  0  0  0  0  1  0  0  0  0  0  0
  -27.7090  -32.2820   25.5200 C   0  0  0  0  0  1  0  0  0  0  0  0
  -25.6230  -33.7160   24.1100 N   0  0  0  0  0  0  0  0  0  0  0  0
  -25.8940  -34.8470   23.4480 C   0  0  0  0  0  0  0  0  0  0  0  0
  -26.5350  -34.8640   22.3910 O   0  0  0  0  0  0  0  0  0  0  0  0
  -25.0530  -33.7730   24.9430 H   0  0  0  0  0  0  0  0  0  0  0  0
  -24.1040  -36.6100   23.2960 C   0  0  0  0  0  1  0  0  0  0  0  0
  -25.3720  -36.1670   24.0440 C   0  0  0  0  0  3  0  0  0  0  0  0
  -27.4940  -37.0340   24.9290 C   0  0  0  0  0  1  0  0  0  0  0  0
  -26.3710  -37.2590   24.0230 N   0  0  0  0  0  0  0  0  0  0  0  0
  -25.9380  -38.1450   24.2700 H   0  0  0  0  0  0  0  0  0  0  0  0
  1  2  1  0
  2  3  1  1
  4  2  1  0
  4  9  1  0
  6  5  2  0
  7  5  1  0
  8  9  2  0
  8 10  1  0
  9  6  1  0
 10  7  2  0
 12 17  1  0
 13 14  1  0
 13 12  1  0
 15 14  1  0
 15 24  1  0
 15 16  1  0
 17 11  1  0
 17 16  1  0
 18 11  2  0
 19 20  1  0
 20 10  1  0
 20 11  1  0
 21 22  2  0
 22 41  1  0
 23 26  1  0
 23 22  1  0
 24 25  1  0
 24 21  1  0
 25 23  2  0
 26 27  1  0
 27 28  2  0
 29 32  1  0
 29 28  1  0
 30 29  2  0
 31 30  1  0
 31 26  2  0
 32 33  1  0
 33 34  1  0
 34 35  2  0
 36 35  1  0
 36 40  1  0
 37 36  2  0
 38 33  2  0
 38 37  1  0
 39 38  1  0
 41 42  1  0
 42 45  1  0
 42 44  1  0
 43 41  2  0
 46 47  1  0
 46 21  1  0
 48 46  1  0
 49  2  1  0
 49 50  2  0
 51 50  1  0
 51 53  1  0
 52 63  2  0
 53 58  1  0
 54 62  1  0
 54 64  1  0
 55 61  1  0
 55 57  1  0
 56 62  1  0
 57 56  1  0
 58 57  2  0
 59 60  1  0
 59 53  2  0
 60 55  2  0
 61 54  1  0
 62 52  1  0
 64 66  2  0
 65 64  1  0
 67 65  1  0
 68 77  2  0
 68 73  1  0
 69 65  1  0
 69 73  1  0
 70 69  1  0
 71 72  1  0
 71 70  1  0
 72 68  1  0
 73 74  2  0
 74 75  1  0
 76 75  2  0
 77 76  1  0
 78 52  1  0
 78 83  1  0
 78 79  1  0
 79 82  1  1
 79 80  1  0
 81 79  1  0
 83 86  1  0
 84 88  1  0
 84 83  1  0
 85 84  2  0
 88 87  1  0
 90 88  1  0
 90 91  1  0
 90 89  1  0
M  ISO  4  11 100  20 100  50 101  51 101
M  END
>  <TORSDO>  (42) 
F 20

>  <SCORE>  (42) 
-11.260

>  <name>  (42) 
42

>  <ligand_id>  (42) 
42

>  <original_smiles>  (42) 
[H]c1c([H])c([H])c2c(c1[H])C([H])([H])C([H])([H])C([H])([H])C2([H])N([H])C(=O)C1([H])N(C(=O)C([H])(N([H])C(=O)C([H])(N([H])C([H])([H])[H])C([H])([H])[H])C(C([H])([H])[H])(C([H])([H])[H])C([H])([H])[H])C([H])([H])c2c([H])c(OC([H])([H])C([H])([H])[N+]([H])(C([H])([H])[H])C([H])([H])c3c([H])c([H])c([H])c(N(C(=O)N4C([H])([H])C([H])([H])C([H])([H])C([H])(n5nc(-c6c([H])c([H])c(Oc7c([H])c([H])c(F)c([H])c7F)c([H])c6[H])c(C(=O)N([H])[H])c5N([H])[H])C4([H])[H])C([H])([H])[H])c3[H])c([H])c([H])c2C1([H])[H]

>  <smiles>  (42) 
[H]c1c([H])c([H])c2c(c1[H])C([H])([H])C([H])([H])C([H])([H])C2([H])N([H])C(=O)C1([H])N(C(=O)C([H])(N([H])C(=O)C([H])(N([H])C([H])([H])[H])C([H])([H])[H])C(C([H])([H])[H])(C([H])([H])[H])C([H])([H])[H])C([H])([H])c2c([H])c(OC([H])([H])C([H])([H])[N+]([H])(C([H])([H])[H])C([H])([H])c3c([H])c([H])c([H])c(N(C(=O)N4C([H])([H])C([H])([H])C([H])([H])C([H])(n5nc(-c6c([H])c([H])c(Oc7c([H])c([H])c(F)c([H])c7F)c([H])c6[H])c(C(=O)N([H])[H])c5N([H])[H])C4([H])[H])C([H])([H])[H])c3[H])c([H])c([H])c2C1([H])[H]

$$$$
43:0:0
     RDKit          3D

 83 90  0  0  1  0  0  0  0  0999 V2000
  -28.6860  -21.4310   21.1490 C   0  0  0  0  0  3  0  0  0  0  0  0
  -28.7930  -21.4910   19.3190 C   0  0  0  0  0  3  0  0  0  0  0  0
  -28.6950  -19.8690   20.1810 C   0  0  0  0  0  2  0  0  0  0  0  0
  -28.0940  -22.9260   20.2430 C   0  0  0  0  0  2  0  0  0  0  0  0
  -30.0810  -16.4250   20.1460 C   0  0  0  0  0  0  0  0  0  0  0  0
  -30.2600  -13.7420   19.3120 C   0  0  0  0  0  2  0  0  0  0  0  0
  -29.4440  -12.9880   18.2020 C   0  0  0  0  0  2  0  0  0  0  0  0
  -28.1110  -12.4690   18.7370 C   0  0  0  0  0  2  0  0  0  0  0  0
  -27.5150  -13.5040   19.7060 C   0  0  0  0  0  3  0  0  0  0  0  0
  -28.5170  -14.1360   20.7330 C   0  0  0  0  0  2  0  0  0  0  0  0
  -29.5240  -14.9860   19.9800 N   0  0  0  0  0  0  0  0  0  0  0  0
  -31.3010  -16.0770   20.1070 O   0  0  0  0  0  0  0  0  0  0  0  0
  -31.0400  -18.7370   20.2310 C   0  0  0  0  0  1  0  0  0  0  0  0
  -29.7000  -18.1310   20.1720 N   0  0  0  0  0  2  0  0  0  0  0  0
  -25.1810  -13.9370   20.5550 C   0  0  0  0  0  0  0  0  0  0  0  0
  -24.1430  -13.1320   20.9230 C   0  0  0  0  0  0  0  0  0  0  0  0
  -24.6330  -11.7900   20.8500 C   0  0  0  0  0  0  0  0  0  0  0  0
  -26.2370  -13.0960   20.2750 N   0  0  0  0  0  0  0  0  0  0  0  0
  -25.9230  -11.7900   20.5090 N   0  0  0  0  0  0  0  0  0  0  0  0
  -23.9190  -10.5150   21.0280 C   0  0  0  0  0  0  0  0  0  0  0  0
  -24.3510   -9.5450   21.9590 C   0  0  0  0  0  3  0  0  0  0  0  0
  -23.6270   -8.3440   22.1330 C   0  0  0  0  0  3  0  0  0  0  0  0
  -22.4560   -8.1030   21.3760 C   0  0  0  0  0  0  0  0  0  0  0  0
  -22.0420   -9.0620   20.4350 C   0  0  0  0  0  3  0  0  0  0  0  0
  -22.7660  -10.2540   20.2590 C   0  0  0  0  0  3  0  0  0  0  0  0
  -21.7050   -6.9550   21.4590 O   0  0  0  0  0  0  0  0  0  0  0  0
  -21.6300   -6.2250   22.6180 C   0  0  0  0  0  0  0  0  0  0  0  0
  -21.1330   -6.7810   23.8170 C   0  0  0  0  0  3  0  0  0  0  0  0
  -21.0070   -5.9760   24.9670 C   0  0  0  0  0  3  0  0  0  0  0  0
  -21.3680   -4.6160   24.9190 C   0  0  0  0  0  0  0  0  0  0  0  0
  -21.8570   -4.0590   23.7250 C   0  0  0  0  0  3  0  0  0  0  0  0
  -21.9850   -4.8610   22.5770 C   0  0  0  0  0  0  0  0  0  0  0  0
  -22.4370   -4.3140   21.4230 F   0  0  0  0  0  0  0  0  0  0  0  0
  -21.2400   -3.8410   26.0220 F   0  0  0  0  0  0  0  0  0  0  0  0
  -22.7460  -13.5860   21.2210 C   0  0  0  0  0  0  0  0  0  0  0  0
  -22.0420  -12.8730   22.0910 N   0  0  0  0  0  0  0  0  0  0  0  0
  -22.2910  -14.6150   20.7210 O   0  0  0  0  0  0  0  0  0  0  0  0
  -22.4260  -12.0440   22.5180 H   0  0  0  0  0  0  0  0  0  0  0  0
  -21.1050  -13.1610   22.3350 H   0  0  0  0  0  0  0  0  0  0  0  0
  -25.3120  -15.3140   20.3960 N   0  0  0  0  0  0  0  0  0  0  0  0
  -24.5330  -15.9500   20.5330 H   0  0  0  0  0  0  0  0  0  0  0  0
  -26.1500  -15.7770   20.0670 H   0  0  0  0  0  0  0  0  0  0  0  0
  -28.0940  -24.9310   20.3370 O   0  0  0  0  0  1  0  0  0  0  0  0
  -24.7020  -31.8510   23.1980 C   0  0  0  0  0  0  0  0  0  0  0  0
  -27.1710  -26.3470   20.3000 C   0  0  0  0  0  0  0  0  0  0  0  0
  -23.5220  -30.4310   21.5850 C   0  0  0  0  0  3  0  0  0  0  0  0
  -24.9590  -28.6730   20.2150 C   0  0  0  0  0  0  0  0  0  0  0  0
  -26.1170  -30.4310   21.5080 C   0  0  0  0  0  2  0  0  0  0  0  0
  -26.1670  -28.9440   20.8670 C   0  0  0  0  0  0  0  0  0  0  0  0
  -27.2330  -27.8260   20.8620 C   0  0  0  0  0  3  0  0  0  0  0  0
  -25.9250  -26.4030   19.5830 C   0  0  0  0  0  3  0  0  0  0  0  0
  -24.9040  -27.4320   19.5460 C   0  0  0  0  0  3  0  0  0  0  0  0
  -23.7770  -29.6830   20.2370 C   0  0  0  0  0  2  0  0  0  0  0  0
  -24.8100  -30.9490   22.1490 N   0  0  0  0  0  0  0  0  0  0  0  0
  -23.6020  -32.1800   23.6840 O   0  0  0  0  0  0  0  0  0  0  0  0
  -22.7610  -29.5070   22.5780 C   0  0  0  0  0  0  0  0  0  0  0  0
  -21.4240  -29.3730   22.4520 N   0  0  0  0  0  0  0  0  0  0  0  0
  -23.3940  -28.9010   23.4450 O   0  0  0  0  0  0  0  0  0  0  0  0
  -20.9550  -29.9110   21.7370 H   0  0  0  0  0  0  0  0  0  0  0  0
  -18.0280  -28.1590   22.9770 C   0  0  0  0  0  0  0  0  0  0  0  0
  -20.5870  -28.4530   23.2390 C   0  0  0  0  0  3  0  0  0  0  0  0
  -20.6960  -27.0080   22.6960 C   0  0  0  0  0  2  0  0  0  0  0  0
  -19.6020  -26.6610   21.6810 C   0  0  0  0  0  2  0  0  0  0  0  0
  -18.2170  -26.8040   22.3170 C   0  0  0  0  0  2  0  0  0  0  0  0
  -19.1390  -28.9410   23.3940 C   0  0  0  0  0  0  0  0  0  0  0  0
  -18.9030  -30.2030   23.9810 C   0  0  0  0  0  3  0  0  0  0  0  0
  -17.5920  -30.6870   24.1480 C   0  0  0  0  0  3  0  0  0  0  0  0
  -16.4960  -29.9060   23.7400 C   0  0  0  0  0  3  0  0  0  0  0  0
  -16.7150  -28.6430   23.1610 C   0  0  0  0  0  3  0  0  0  0  0  0
  -25.9490  -32.5270   23.8490 C   0  0  0  0  0  3  0  0  0  0  0  0
  -26.4340  -31.7890   25.1600 C   0  0  1  0  0  0  0  0  0  0  0  0
  -25.3180  -31.5810   26.2110 C   0  0  0  0  0  1  0  0  0  0  0  0
  -27.0230  -30.4010   24.8350 C   0  0  0  0  0  1  0  0  0  0  0  0
  -27.5720  -32.5990   25.8270 C   0  0  0  0  0  1  0  0  0  0  0  0
  -25.6140  -33.9320   24.1790 N   0  0  0  0  0  0  0  0  0  0  0  0
  -25.9300  -35.0060   23.4400 C   0  0  0  0  0  0  0  0  0  0  0  0
  -26.5790  -34.9190   22.3960 O   0  0  0  0  0  0  0  0  0  0  0  0
  -25.0290  -34.0710   24.9890 H   0  0  0  0  0  0  0  0  0  0  0  0
  -24.1830  -36.8100   23.1780 C   0  0  0  0  0  1  0  0  0  0  0  0
  -25.4580  -36.3950   23.9310 C   0  0  0  0  0  3  0  0  0  0  0  0
  -27.6160  -37.3020   24.6840 C   0  0  0  0  0  1  0  0  0  0  0  0
  -26.4790  -37.4570   23.7810 N   0  0  0  0  0  0  0  0  0  0  0  0
  -26.0700  -38.3740   23.9420 H   0  0  0  0  0  0  0  0  0  0  0  0
  1  3  1  0
  2  3  1  0
  2  4  1  0
  2  1  1  0
  4  1  1  0
  5 14  1  0
  6 11  1  0
  7  8  1  0
  7  6  1  0
  9  8  1  0
  9 18  1  0
  9 10  1  0
 11  5  1  0
 11 10  1  0
 12  5  2  0
 14 13  1  0
 15 16  2  0
 16 35  1  0
 17 16  1  0
 17 20  1  0
 18 19  1  0
 18 15  1  0
 19 17  2  0
 20 21  1  0
 21 22  2  0
 23 26  1  0
 23 22  1  0
 24 23  2  0
 25 24  1  0
 25 20  2  0
 26 27  1  0
 27 28  1  0
 28 29  2  0
 30 29  1  0
 30 34  1  0
 31 30  2  0
 32 27  2  0
 32 31  1  0
 33 32  1  0
 35 36  1  0
 36 39  1  0
 36 38  1  0
 37 35  2  0
 40 41  1  0
 40 15  1  0
 42 40  1  0
 44 55  2  0
 45 43  1  0
 45 50  1  0
 46 54  1  0
 46 56  1  0
 47 53  1  0
 47 49  1  0
 48 54  1  0
 49 48  1  0
 50 49  2  0
 51 45  2  0
 52 51  1  0
 52 47  2  0
 53 46  1  0
 54 44  1  0
 56 58  2  0
 57 56  1  0
 59 57  1  0
 60 69  2  0
 60 65  1  0
 61 57  1  0
 61 65  1  0
 62 61  1  0
 63 64  1  0
 63 62  1  0
 64 60  1  0
 65 66  2  0
 66 67  1  0
 68 67  2  0
 69 68  1  0
 70 44  1  0
 70 75  1  0
 70 71  1  0
 71 74  1  1
 71 72  1  0
 73 71  1  0
 75 78  1  0
 76 80  1  0
 76 75  1  0
 77 76  2  0
 80 79  1  0
 82 80  1  0
 82 83  1  0
 82 81  1  0
M  ISO  4   4 101   5 100  14 100  43 101
M  END
>  <TORSDO>  (43) 
F 16

>  <SCORE>  (43) 
-16.583

>  <name>  (43) 
43

>  <ligand_id>  (43) 
43

>  <original_smiles>  (43) 
[H]c1c([H])c([H])c2c(c1[H])C([H])([H])C([H])([H])C([H])([H])C2([H])N([H])C(=O)C1([H])N(C(=O)C([H])(N([H])C(=O)C([H])(N([H])C([H])([H])[H])C([H])([H])[H])C(C([H])([H])[H])(C([H])([H])[H])C([H])([H])[H])C([H])([H])c2c([H])c(OC3([H])C([H])([H])C([H])(N(C(=O)N4C([H])([H])C([H])([H])C([H])([H])C([H])(n5nc(-c6c([H])c([H])c(Oc7c([H])c([H])c(F)c([H])c7F)c([H])c6[H])c(C(=O)N([H])[H])c5N([H])[H])C4([H])[H])C([H])([H])[H])C3([H])[H])c([H])c([H])c2C1([H])[H]

>  <smiles>  (43) 
[H]c1c([H])c([H])c2c(c1[H])C([H])([H])C([H])([H])C([H])([H])C2([H])N([H])C(=O)C1([H])N(C(=O)C([H])(N([H])C(=O)C([H])(N([H])C([H])([H])[H])C([H])([H])[H])C(C([H])([H])[H])(C([H])([H])[H])C([H])([H])[H])C([H])([H])c2c([H])c(OC3([H])C([H])([H])C([H])(N(C(=O)N4C([H])([H])C([H])([H])C([H])([H])C([H])(n5nc(-c6c([H])c([H])c(Oc7c([H])c([H])c(F)c([H])c7F)c([H])c6[H])c(C(=O)N([H])[H])c5N([H])[H])C4([H])[H])C([H])([H])[H])C3([H])[H])c([H])c([H])c2C1([H])[H]

$$$$
44:0:0
     RDKit          3D

 95103  0  0  1  0  0  0  0  0999 V2000
  -29.0760  -21.6380   20.4120 N   0  0  0  0  0  0  0  0  0  0  0  0
  -30.3910  -19.8020   19.2800 C   0  0  0  0  0  3  0  0  0  0  0  0
  -30.7210  -18.4260   19.1270 C   0  0  0  0  0  3  0  0  0  0  0  0
  -29.0820  -19.2410   21.2030 C   0  0  0  0  0  3  0  0  0  0  0  0
  -29.5280  -20.2630   20.3080 C   0  0  0  0  0  0  0  0  0  0  0  0
  -30.1630  -17.3950   19.9420 C   0  0  0  0  0  0  0  0  0  0  0  0
  -29.3710  -17.8500   21.0250 C   0  0  0  0  0  0  0  0  0  0  0  0
  -28.8200  -16.9410   21.8640 F   0  0  0  0  0  0  0  0  0  0  0  0
  -30.9190  -14.9410   20.1170 C   0  0  0  0  0  0  0  0  0  0  0  0
  -30.7280  -12.5900   19.3220 C   0  0  0  0  0  2  0  0  0  0  0  0
  -29.7930  -12.4870   18.0970 C   0  0  0  0  0  2  0  0  0  0  0  0
  -28.3020  -12.4640   18.5070 C   0  0  0  0  0  2  0  0  0  0  0  0
  -27.9270  -13.4270   19.6720 C   0  0  0  0  0  3  0  0  0  0  0  0
  -28.9910  -13.4310   20.7860 C   0  0  0  0  0  2  0  0  0  0  0  0
  -30.2790  -13.7260   20.1480 N   0  0  0  0  0  0  0  0  0  0  0  0
  -32.1500  -14.9880   20.0560 O   0  0  0  0  0  0  0  0  0  0  0  0
  -30.0440  -15.8200   18.0670 C   0  0  0  0  0  1  0  0  0  0  0  0
  -30.2100  -15.9820   19.5270 N   0  0  0  0  0  0  0  0  0  0  0  0
  -25.5680  -14.0720   20.4410 C   0  0  0  0  0  0  0  0  0  0  0  0
  -24.4840  -13.3190   20.7930 C   0  0  0  0  0  0  0  0  0  0  0  0
  -24.9120  -11.9560   20.7390 C   0  0  0  0  0  0  0  0  0  0  0  0
  -26.5880  -13.1690   20.1830 N   0  0  0  0  0  0  0  0  0  0  0  0
  -26.2010  -11.8920   20.4330 N   0  0  0  0  0  0  0  0  0  0  0  0
  -24.1560  -10.7100   20.9040 C   0  0  0  0  0  0  0  0  0  0  0  0
  -24.5320   -9.7490   21.8680 C   0  0  0  0  0  3  0  0  0  0  0  0
  -23.7850   -8.5620   22.0240 C   0  0  0  0  0  3  0  0  0  0  0  0
  -22.6470   -8.3280   21.2170 C   0  0  0  0  0  0  0  0  0  0  0  0
  -22.2880   -9.2790   20.2460 C   0  0  0  0  0  3  0  0  0  0  0  0
  -23.0350  -10.4580   20.0870 C   0  0  0  0  0  3  0  0  0  0  0  0
  -21.8760   -7.1940   21.2820 O   0  0  0  0  0  0  0  0  0  0  0  0
  -21.6890   -6.5200   22.4620 C   0  0  0  0  0  0  0  0  0  0  0  0
  -21.1120   -7.1390   23.5940 C   0  0  0  0  0  3  0  0  0  0  0  0
  -20.8690   -6.3880   24.7600 C   0  0  0  0  0  3  0  0  0  0  0  0
  -21.1950   -5.0190   24.7990 C   0  0  0  0  0  0  0  0  0  0  0  0
  -21.7700   -4.4010   23.6740 C   0  0  0  0  0  3  0  0  0  0  0  0
  -22.0110   -5.1490   22.5080 C   0  0  0  0  0  0  0  0  0  0  0  0
  -22.5400   -4.5420   21.4190 F   0  0  0  0  0  0  0  0  0  0  0  0
  -20.9590   -4.2950   25.9170 F   0  0  0  0  0  0  0  0  0  0  0  0
  -23.0960  -13.8230   21.0690 C   0  0  0  0  0  0  0  0  0  0  0  0
  -22.3530  -13.1450   21.9350 N   0  0  0  0  0  0  0  0  0  0  0  0
  -22.6800  -14.8570   20.5460 O   0  0  0  0  0  0  0  0  0  0  0  0
  -22.6950  -12.3070   22.3800 H   0  0  0  0  0  0  0  0  0  0  0  0
  -21.4230  -13.4720   22.1520 H   0  0  0  0  0  0  0  0  0  0  0  0
  -25.7670  -15.4430   20.2900 N   0  0  0  0  0  0  0  0  0  0  0  0
  -25.0270  -16.1230   20.4320 H   0  0  0  0  0  0  0  0  0  0  0  0
  -26.6550  -15.8670   20.0560 H   0  0  0  0  0  0  0  0  0  0  0  0
  -27.7300  -21.7800   19.8290 C   0  0  0  0  0  2  0  0  0  0  0  0
  -26.7430  -23.8460   21.0590 C   0  0  0  0  0  1  0  0  0  0  0  0
  -26.6470  -22.3350   20.7830 C   0  0  0  0  0  2  0  0  0  0  0  0
  -30.0030  -22.8090   20.1840 C   0  0  0  0  0  3  0  0  0  0  0  0
  -31.2780  -22.1870   22.3540 C   0  0  0  0  0  1  0  0  0  0  0  0
  -31.3770  -22.5430   20.8630 C   0  0  0  0  0  2  0  0  0  0  0  0
  -29.5110  -24.2800   20.6500 C   0  0  0  0  0  3  0  0  0  0  0  0
  -28.9330  -25.3490   19.6230 C   0  0  0  0  0  3  0  0  0  0  0  0
  -28.8120  -26.7500   20.1050 O   0  0  0  0  0  0  0  0  0  0  0  0
  -24.6210  -31.7490   23.1670 C   0  0  0  0  0  0  0  0  0  0  0  0
  -27.6230  -27.4990   20.0170 C   0  0  0  0  0  0  0  0  0  0  0  0
  -23.5750  -30.3760   21.4010 C   0  0  0  0  0  3  0  0  0  0  0  0
  -25.1700  -28.9780   19.9720 C   0  0  0  0  0  0  0  0  0  0  0  0
  -26.0970  -30.8330   21.3610 C   0  0  0  0  0  2  0  0  0  0  0  0
  -26.2780  -29.4940   20.6540 C   0  0  0  0  0  0  0  0  0  0  0  0
  -27.5010  -28.7630   20.6720 C   0  0  0  0  0  3  0  0  0  0  0  0
  -26.4940  -27.0440   19.2990 C   0  0  0  0  0  3  0  0  0  0  0  0
  -25.2800  -27.7580   19.2880 C   0  0  0  0  0  3  0  0  0  0  0  0
  -23.8910  -29.7890   19.9990 C   0  0  0  0  0  2  0  0  0  0  0  0
  -24.7790  -31.0030   22.0330 N   0  0  0  0  0  0  0  0  0  0  0  0
  -23.5010  -31.9380   23.6620 O   0  0  0  0  0  0  0  0  0  0  0  0
  -22.9280  -29.2760   22.2760 C   0  0  0  0  0  0  0  0  0  0  0  0
  -21.6100  -29.0630   22.1060 N   0  0  0  0  0  0  0  0  0  0  0  0
  -23.6090  -28.6200   23.0690 O   0  0  0  0  0  0  0  0  0  0  0  0
  -21.1140  -29.6560   21.4520 H   0  0  0  0  0  0  0  0  0  0  0  0
  -18.2600  -27.7450   22.4710 C   0  0  0  0  0  0  0  0  0  0  0  0
  -20.8070  -28.0510   22.7960 C   0  0  0  0  0  3  0  0  0  0  0  0
  -20.9550  -26.6670   22.1220 C   0  0  0  0  0  2  0  0  0  0  0  0
  -19.8750  -26.3870   21.0720 C   0  0  0  0  0  2  0  0  0  0  0  0
  -18.4790  -26.4520   21.7020 C   0  0  0  0  0  2  0  0  0  0  0  0
  -19.3530  -28.5020   22.9710 C   0  0  0  0  0  0  0  0  0  0  0  0
  -19.0930  -29.7100   23.6520 C   0  0  0  0  0  3  0  0  0  0  0  0
  -17.7750  -30.1670   23.8320 C   0  0  0  0  0  3  0  0  0  0  0  0
  -16.6950  -29.4090   23.3450 C   0  0  0  0  0  3  0  0  0  0  0  0
  -16.9390  -28.1970   22.6730 C   0  0  0  0  0  3  0  0  0  0  0  0
  -25.8360  -32.4170   23.8810 C   0  0  0  0  0  3  0  0  0  0  0  0
  -25.4710  -33.8090   24.1800 N   0  0  0  0  0  0  0  0  0  0  0  0
  -25.8280  -34.8650   23.4360 C   0  0  0  0  0  0  0  0  0  0  0  0
  -26.5680  -34.7700   22.4520 O   0  0  0  0  0  0  0  0  0  0  0  0
  -24.8280  -33.9560   24.9440 H   0  0  0  0  0  0  0  0  0  0  0  0
  -24.0760  -36.6020   22.9570 C   0  0  0  0  0  1  0  0  0  0  0  0
  -25.2760  -36.2430   23.8470 C   0  0  0  0  0  3  0  0  0  0  0  0
  -27.3270  -37.1980   24.8010 C   0  0  0  0  0  1  0  0  0  0  0  0
  -26.2850  -37.3240   23.7860 N   0  0  0  0  0  0  0  0  0  0  0  0
  -25.8460  -38.2340   23.8930 H   0  0  0  0  0  0  0  0  0  0  0  0
  -26.2730  -31.6640   25.1980 C   0  0  1  0  0  0  0  0  0  0  0  0
  -25.1110  -31.4040   26.1850 C   0  0  0  0  0  1  0  0  0  0  0  0
  -26.9140  -30.3000   24.8550 C   0  0  0  0  0  1  0  0  0  0  0  0
  -27.3540  -32.4870   25.9380 C   0  0  0  0  0  1  0  0  0  0  0  0
  2  5  1  0
  3  2  2  0
  3  6  1  0
  5  1  1  0
  5  4  2  0
  6  7  2  0
  7  4  1  0
  7  8  1  0
  9 15  1  0
 10 15  1  0
 11 12  1  0
 11 10  1  0
 13 12  1  0
 13 22  1  0
 13 14  1  0
 15 14  1  0
 16  9  2  0
 17 18  1  0
 18  6  1  0
 18  9  1  0
 19 20  2  0
 20 39  1  0
 21 20  1  0
 21 24  1  0
 22 23  1  0
 22 19  1  0
 23 21  2  0
 24 25  1  0
 25 26  2  0
 27 30  1  0
 27 26  1  0
 28 27  2  0
 29 28  1  0
 29 24  2  0
 30 31  1  0
 31 36  2  0
 31 32  1  0
 32 33  2  0
 33 34  1  0
 34 38  1  0
 35 34  2  0
 36 35  1  0
 37 36  1  0
 39 40  1  0
 40 43  1  0
 40 42  1  0
 41 39  2  0
 44 45  1  0
 44 19  1  0
 46 44  1  0
 47  1  1  0
 47 49  1  0
 49 48  1  0
 50  1  1  0
 50 53  1  0
 50 52  1  0
 52 51  1  0
 54 55  1  0
 54 53  2  0
 56 67  2  0
 57 55  1  0
 57 62  1  0
 58 66  1  0
 58 68  1  0
 59 65  1  0
 59 61  1  0
 60 66  1  0
 61 62  2  0
 61 60  1  0
 63 57  2  0
 64 63  1  0
 64 59  2  0
 65 58  1  0
 66 56  1  0
 68 70  2  0
 69 68  1  0
 71 69  1  0
 72 81  2  0
 72 77  1  0
 73 69  1  0
 73 77  1  0
 74 73  1  0
 75 76  1  0
 75 74  1  0
 76 72  1  0
 77 78  2  0
 78 79  1  0
 80 79  2  0
 81 80  1  0
 82 56  1  0
 82 83  1  0
 82 92  1  0
 83 86  1  0
 84 88  1  0
 84 83  1  0
 85 84  2  0
 88 87  1  0
 90 88  1  0
 90 91  1  0
 90 89  1  0
 92 95  1  1
 92 93  1  0
 94 92  1  0
M  ISO  4   9 100  18 100  54 101  55 101
M  END
>  <TORSDO>  (44) 
F 23

>  <SCORE>  (44) 
-10.845

>  <name>  (44) 
44

>  <ligand_id>  (44) 
44

>  <original_smiles>  (44) 
[H]c1c([H])c([H])c2c(c1[H])C([H])([H])C([H])([H])C([H])([H])C2([H])N([H])C(=O)C1([H])N(C(=O)C([H])(N([H])C(=O)C([H])(N([H])C([H])([H])[H])C([H])([H])[H])C(C([H])([H])[H])(C([H])([H])[H])C([H])([H])[H])C([H])([H])c2c([H])c(OC([H])([H])C([H])([H])C([H])(N(c3c([H])c([H])c(N(C(=O)N4C([H])([H])C([H])([H])C([H])([H])C([H])(n5nc(-c6c([H])c([H])c(Oc7c([H])c([H])c(F)c([H])c7F)c([H])c6[H])c(C(=O)N([H])[H])c5N([H])[H])C4([H])[H])C([H])([H])[H])c(F)c3[H])C([H])([H])C([H])([H])C([H])([H])[H])C([H])([H])C([H])([H])[H])c([H])c([H])c2C1([H])[H]

>  <smiles>  (44) 
[H]c1c([H])c([H])c2c(c1[H])C([H])([H])C([H])([H])C([H])([H])C2([H])N([H])C(=O)C1([H])N(C(=O)C([H])(N([H])C(=O)C([H])(N([H])C([H])([H])[H])C([H])([H])[H])C(C([H])([H])[H])(C([H])([H])[H])C([H])([H])[H])C([H])([H])c2c([H])c(OC([H])([H])C([H])([H])C([H])(N(c3c([H])c([H])c(N(C(=O)N4C([H])([H])C([H])([H])C([H])([H])C([H])(n5nc(-c6c([H])c([H])c(Oc7c([H])c([H])c(F)c([H])c7F)c([H])c6[H])c(C(=O)N([H])[H])c5N([H])[H])C4([H])[H])C([H])([H])[H])c(F)c3[H])C([H])([H])C([H])([H])C([H])([H])[H])C([H])([H])C([H])([H])[H])c([H])c([H])c2C1([H])[H]

$$$$
45:0:0
     RDKit          3D

 91 99  0  0  1  0  0  0  0  0999 V2000
  -31.1840  -21.8160   18.9690 C   0  0  0  0  0  1  0  0  0  0  0  0
  -30.0270  -21.3570   19.7420 N   0  0  0  0  0  0  0  0  0  0  0  0
  -28.8660  -17.6840   19.9760 C   0  0  0  0  0  3  0  0  0  0  0  0
  -31.2640  -17.7540   20.0270 C   0  0  0  0  0  3  0  0  0  0  0  0
  -28.8150  -19.1150   19.8980 C   0  0  0  0  0  3  0  0  0  0  0  0
  -31.2080  -19.1730   19.9480 C   0  0  0  0  0  3  0  0  0  0  0  0
  -30.0930  -16.9590   20.0430 C   0  0  0  0  0  0  0  0  0  0  0  0
  -29.9920  -19.9150   19.8710 C   0  0  0  0  0  0  0  0  0  0  0  0
  -30.5900  -14.5570   19.4120 C   0  0  0  0  0  0  0  0  0  0  0  0
  -30.0440  -12.4900   18.1150 C   0  0  0  0  0  2  0  0  0  0  0  0
  -28.8950  -12.7720   17.1210 C   0  0  0  0  0  2  0  0  0  0  0  0
  -27.5230  -12.5870   17.8000 C   0  0  0  0  0  2  0  0  0  0  0  0
  -27.4430  -13.3090   19.1710 C   0  0  0  0  0  3  0  0  0  0  0  0
  -28.6760  -12.9850   20.0340 C   0  0  0  0  0  2  0  0  0  0  0  0
  -29.8740  -13.3880   19.2790 N   0  0  0  0  0  0  0  0  0  0  0  0
  -31.5780  -14.7600   18.6960 O   0  0  0  0  0  0  0  0  0  0  0  0
  -30.1520  -15.5130   20.3130 N   0  0  0  0  0  0  0  0  0  0  0  0
  -25.2760  -13.8820   20.4260 C   0  0  0  0  0  0  0  0  0  0  0  0
  -24.2580  -13.1010   20.8990 C   0  0  0  0  0  0  0  0  0  0  0  0
  -24.6220  -11.7520   20.5990 C   0  0  0  0  0  0  0  0  0  0  0  0
  -26.1990  -13.0100   19.8720 N   0  0  0  0  0  0  0  0  0  0  0  0
  -25.8220  -11.7150   20.0310 N   0  0  0  0  0  0  0  0  0  0  0  0
  -23.8720  -10.5000   20.7650 C   0  0  0  0  0  0  0  0  0  0  0  0
  -24.3830   -9.4300   21.5320 C   0  0  0  0  0  3  0  0  0  0  0  0
  -23.6340   -8.2440   21.6900 C   0  0  0  0  0  3  0  0  0  0  0  0
  -22.3620   -8.1210   21.0830 C   0  0  0  0  0  0  0  0  0  0  0  0
  -21.8700   -9.1810   20.3000 C   0  0  0  0  0  3  0  0  0  0  0  0
  -22.6180  -10.3580   20.1400 C   0  0  0  0  0  3  0  0  0  0  0  0
  -21.5760   -6.9970   21.1620 O   0  0  0  0  0  0  0  0  0  0  0  0
  -21.6070   -6.1720   22.2570 C   0  0  0  0  0  0  0  0  0  0  0  0
  -21.3310   -6.6460   23.5570 C   0  0  0  0  0  3  0  0  0  0  0  0
  -21.3070   -5.7480   24.6440 C   0  0  0  0  0  3  0  0  0  0  0  0
  -21.5510   -4.3780   24.4300 C   0  0  0  0  0  0  0  0  0  0  0  0
  -21.8170   -3.9030   23.1350 C   0  0  0  0  0  3  0  0  0  0  0  0
  -21.8420   -4.7970   22.0500 C   0  0  0  0  0  0  0  0  0  0  0  0
  -22.0790   -4.3300   20.8010 F   0  0  0  0  0  0  0  0  0  0  0  0
  -21.5170   -3.5150   25.4720 F   0  0  0  0  0  0  0  0  0  0  0  0
  -22.9720  -13.5820   21.5100 C   0  0  0  0  0  0  0  0  0  0  0  0
  -22.3980  -12.8040   22.4200 N   0  0  0  0  0  0  0  0  0  0  0  0
  -22.4940  -14.6740   21.2130 O   0  0  0  0  0  0  0  0  0  0  0  0
  -22.8010  -11.9160   22.6820 H   0  0  0  0  0  0  0  0  0  0  0  0
  -21.5420  -13.1010   22.8650 H   0  0  0  0  0  0  0  0  0  0  0  0
  -25.4870  -15.2580   20.3990 N   0  0  0  0  0  0  0  0  0  0  0  0
  -24.7960  -15.9170   20.7410 H   0  0  0  0  0  0  0  0  0  0  0  0
  -26.2780  -15.7040   19.9550 H   0  0  0  0  0  0  0  0  0  0  0  0
  -29.3080  -15.6970   22.6910 C   0  0  0  0  0  1  0  0  0  0  0  0
  -30.4080  -15.1940   21.7340 C   0  0  0  0  0  2  0  0  0  0  0  0
  -28.8520  -22.2940   19.7350 C   0  0  0  0  0  2  0  0  0  0  0  0
  -29.1610  -23.8490   20.0240 C   0  0  0  0  0  3  0  0  0  0  0  0
  -28.0300  -24.9160   19.6830 C   0  0  0  0  0  3  0  0  0  0  0  0
  -28.2240  -26.3610   19.9730 O   0  0  0  0  0  0  0  0  0  0  0  0
  -24.4050  -31.6710   23.0690 C   0  0  0  0  0  0  0  0  0  0  0  0
  -27.0930  -27.1990   19.9380 C   0  0  0  0  0  0  0  0  0  0  0  0
  -23.2240  -30.2720   21.4140 C   0  0  0  0  0  3  0  0  0  0  0  0
  -24.6970  -28.7720   19.9640 C   0  0  0  0  0  0  0  0  0  0  0  0
  -25.7580  -30.6370   21.2320 C   0  0  0  0  0  2  0  0  0  0  0  0
  -25.8610  -29.2700   20.5650 C   0  0  0  0  0  0  0  0  0  0  0  0
  -27.0590  -28.4940   20.5460 C   0  0  0  0  0  3  0  0  0  0  0  0
  -25.9020  -26.7610   19.3120 C   0  0  0  0  0  3  0  0  0  0  0  0
  -24.7210  -27.5230   19.3300 C   0  0  0  0  0  3  0  0  0  0  0  0
  -23.4470  -29.6240   20.0250 C   0  0  0  0  0  2  0  0  0  0  0  0
  -24.4810  -30.8770   21.9610 N   0  0  0  0  0  0  0  0  0  0  0  0
  -23.3170  -31.9220   23.6080 O   0  0  0  0  0  0  0  0  0  0  0  0
  -22.5810  -29.2300   22.3600 C   0  0  0  0  0  0  0  0  0  0  0  0
  -21.2560  -29.0440   22.2480 N   0  0  0  0  0  0  0  0  0  0  0  0
  -23.2760  -28.5930   23.1570 O   0  0  0  0  0  0  0  0  0  0  0  0
  -20.7540  -29.6140   21.5810 H   0  0  0  0  0  0  0  0  0  0  0  0
  -17.8880  -27.8400   22.7980 C   0  0  0  0  0  0  0  0  0  0  0  0
  -20.4530  -28.0850   23.0100 C   0  0  0  0  0  3  0  0  0  0  0  0
  -20.5360  -26.6710   22.3900 C   0  0  0  0  0  2  0  0  0  0  0  0
  -19.4080  -26.3810   21.3960 C   0  0  0  0  0  2  0  0  0  0  0  0
  -18.0440  -26.5110   22.0790 C   0  0  0  0  0  2  0  0  0  0  0  0
  -19.0200  -28.5870   23.2210 C   0  0  0  0  0  0  0  0  0  0  0  0
  -18.8200  -29.8320   23.8550 C   0  0  0  0  0  3  0  0  0  0  0  0
  -17.5210  -30.3300   24.0700 C   0  0  0  0  0  3  0  0  0  0  0  0
  -16.4050  -29.5810   23.6600 C   0  0  0  0  0  3  0  0  0  0  0  0
  -16.5900  -28.3380   23.0310 C   0  0  0  0  0  3  0  0  0  0  0  0
  -25.6760  -32.3190   23.6970 C   0  0  0  0  0  3  0  0  0  0  0  0
  -25.3320  -33.6980   24.0720 N   0  0  0  0  0  0  0  0  0  0  0  0
  -25.6120  -34.7800   23.3330 C   0  0  0  0  0  0  0  0  0  0  0  0
  -26.2570  -34.7250   22.2820 O   0  0  0  0  0  0  0  0  0  0  0  0
  -24.7560  -33.8130   24.8930 H   0  0  0  0  0  0  0  0  0  0  0  0
  -23.8150  -36.5240   23.0780 C   0  0  0  0  0  1  0  0  0  0  0  0
  -25.0950  -36.1410   23.8390 C   0  0  0  0  0  3  0  0  0  0  0  0
  -27.2240  -37.0790   24.6230 C   0  0  0  0  0  1  0  0  0  0  0  0
  -26.0880  -37.2300   23.7180 N   0  0  0  0  0  0  0  0  0  0  0  0
  -25.6570  -38.1330   23.9000 H   0  0  0  0  0  0  0  0  0  0  0  0
  -26.2240  -31.5260   24.9460 C   0  0  1  0  0  0  0  0  0  0  0  0
  -25.1490  -31.2270   26.0170 C   0  0  0  0  0  1  0  0  0  0  0  0
  -26.8420  -30.1760   24.5100 C   0  0  0  0  0  1  0  0  0  0  0  0
  -27.3590  -32.3320   25.6210 C   0  0  0  0  0  1  0  0  0  0  0  0
  1  2  1  0
  2  8  1  0
  3  7  1  0
  4  7  2  0
  5  3  2  0
  6  4  1  0
  7 17  1  0
  8  5  1  0
  8  6  2  0
  9 17  1  0
 10 15  1  0
 11 12  1  0
 11 10  1  0
 13 12  1  0
 13 21  1  0
 13 14  1  0
 15  9  1  0
 15 14  1  0
 16  9  2  0
 17 47  1  0
 18 19  2  0
 19 38  1  0
 20 23  1  0
 20 19  1  0
 21 22  1  0
 21 18  1  0
 22 20  2  0
 23 24  1  0
 24 25  2  0
 26 29  1  0
 26 25  1  0
 27 26  2  0
 28 27  1  0
 28 23  2  0
 29 30  1  0
 30 31  1  0
 31 32  2  0
 33 32  1  0
 33 37  1  0
 34 33  2  0
 35 30  2  0
 35 34  1  0
 36 35  1  0
 38 39  1  0
 39 41  1  0
 39 42  1  0
 40 38  2  0
 43 18  1  0
 43 44  1  0
 45 43  1  0
 47 46  1  0
 48  2  1  0
 48 49  1  0
 50 51  1  0
 50 49  2  0
 52 63  2  0
 53 51  1  0
 53 58  1  0
 54 62  1  0
 54 64  1  0
 55 61  1  0
 55 57  1  0
 56 62  1  0
 57 56  1  0
 58 57  2  0
 59 60  1  0
 59 53  2  0
 60 55  2  0
 61 54  1  0
 62 52  1  0
 64 66  2  0
 65 64  1  0
 67 65  1  0
 68 77  2  0
 68 73  1  0
 69 65  1  0
 69 73  1  0
 70 69  1  0
 71 72  1  0
 71 70  1  0
 72 68  1  0
 73 74  2  0
 74 75  1  0
 76 75  2  0
 77 76  1  0
 78 52  1  0
 78 79  1  0
 78 88  1  0
 79 82  1  0
 80 84  1  0
 80 79  1  0
 81 80  2  0
 84 83  1  0
 86 84  1  0
 86 87  1  0
 86 85  1  0
 88 91  1  1
 88 89  1  0
 90 88  1  0
M  ISO  4   9 100  17 100  50 101  51 101
M  END
>  <TORSDO>  (45) 
F 21

>  <SCORE>  (45) 
-8.443

>  <name>  (45) 
45

>  <ligand_id>  (45) 
45

>  <original_smiles>  (45) 
[H]c1c([H])c([H])c2c(c1[H])C([H])([H])C([H])([H])C([H])([H])C2([H])N([H])C(=O)C1([H])N(C(=O)C([H])(N([H])C(=O)C([H])(N([H])C([H])([H])[H])C([H])([H])[H])C(C([H])([H])[H])(C([H])([H])[H])C([H])([H])[H])C([H])([H])c2c([H])c(OC([H])([H])C([H])([H])C([H])([H])N(c3c([H])c([H])c(N(C(=O)N4C([H])([H])C([H])([H])C([H])([H])C([H])(n5nc(-c6c([H])c([H])c(Oc7c([H])c([H])c(F)c([H])c7F)c([H])c6[H])c(C(=O)N([H])[H])c5N([H])[H])C4([H])[H])C([H])([H])C([H])([H])[H])c([H])c3[H])C([H])([H])[H])c([H])c([H])c2C1([H])[H]

>  <smiles>  (45) 
[H]c1c([H])c([H])c2c(c1[H])C([H])([H])C([H])([H])C([H])([H])C2([H])N([H])C(=O)C1([H])N(C(=O)C([H])(N([H])C(=O)C([H])(N([H])C([H])([H])[H])C([H])([H])[H])C(C([H])([H])[H])(C([H])([H])[H])C([H])([H])[H])C([H])([H])c2c([H])c(OC([H])([H])C([H])([H])C([H])([H])N(c3c([H])c([H])c(N(C(=O)N4C([H])([H])C([H])([H])C([H])([H])C([H])(n5nc(-c6c([H])c([H])c(Oc7c([H])c([H])c(F)c([H])c7F)c([H])c6[H])c(C(=O)N([H])[H])c5N([H])[H])C4([H])[H])C([H])([H])C([H])([H])[H])c([H])c3[H])C([H])([H])[H])c([H])c([H])c2C1([H])[H]

$$$$
46:0:0
     RDKit          3D

 91100  0  0  1  0  0  0  0  0999 V2000
  -29.7180  -22.1200   18.4370 C   0  0  0  0  0  1  0  0  0  0  0  0
  -29.6240  -21.6670   19.8300 N   0  0  0  0  0  0  0  0  0  0  0  0
  -30.8030  -14.8730   20.8000 C   0  0  0  0  0  0  0  0  0  0  0  0
  -30.7250  -12.5150   20.0180 C   0  0  0  0  0  2  0  0  0  0  0  0
  -29.8850  -12.3770   18.7260 C   0  0  0  0  0  2  0  0  0  0  0  0
  -28.3740  -12.3130   19.0280 C   0  0  0  0  0  2  0  0  0  0  0  0
  -27.8870  -13.2900   20.1350 C   0  0  0  0  0  3  0  0  0  0  0  0
  -28.8580  -13.3350   21.3330 C   0  0  0  0  0  2  0  0  0  0  0  0
  -30.1900  -13.6440   20.8000 N   0  0  0  0  0  0  0  0  0  0  0  0
  -32.0330  -14.9560   20.8390 O   0  0  0  0  0  0  0  0  0  0  0  0
  -29.8210  -18.1240   21.4360 C   0  0  0  0  0  3  0  0  0  0  0  0
  -29.6670  -19.5540   21.2940 C   0  0  0  0  0  3  0  0  0  0  0  0
  -29.9470  -19.3690   18.9170 C   0  0  0  0  0  3  0  0  0  0  0  0
  -30.0800  -17.9740   19.0700 C   0  0  0  0  0  0  0  0  0  0  0  0
  -30.0350  -17.3050   20.2950 C   0  0  0  0  0  0  0  0  0  0  0  0
  -29.7300  -20.2320   20.0290 C   0  0  0  0  0  0  0  0  0  0  0  0
  -30.2710  -17.0310   17.9360 C   0  0  0  0  0  3  0  0  0  0  0  0
  -30.1880  -15.6630   18.6190 C   0  0  0  0  0  3  0  0  0  0  0  0
  -30.1260  -15.8540   20.0900 N   0  0  0  0  0  0  0  0  0  0  0  0
  -25.4440  -13.8700   20.6720 C   0  0  0  0  0  0  0  0  0  0  0  0
  -24.3590  -13.0870   20.9660 C   0  0  0  0  0  0  0  0  0  0  0  0
  -24.8420  -11.7430   21.0030 C   0  0  0  0  0  0  0  0  0  0  0  0
  -26.5140  -13.0000   20.5400 N   0  0  0  0  0  0  0  0  0  0  0  0
  -26.1540  -11.7190   20.8080 N   0  0  0  0  0  0  0  0  0  0  0  0
  -24.1210  -10.4730   21.1550 C   0  0  0  0  0  0  0  0  0  0  0  0
  -24.5050   -9.5180   22.1220 C   0  0  0  0  0  3  0  0  0  0  0  0
  -23.7850   -8.3110   22.2620 C   0  0  0  0  0  3  0  0  0  0  0  0
  -22.6670   -8.0530   21.4330 C   0  0  0  0  0  0  0  0  0  0  0  0
  -22.3050   -8.9960   20.4560 C   0  0  0  0  0  3  0  0  0  0  0  0
  -23.0260  -10.1930   20.3140 C   0  0  0  0  0  3  0  0  0  0  0  0
  -21.9240   -6.8980   21.4820 O   0  0  0  0  0  0  0  0  0  0  0  0
  -21.8140   -6.1600   22.6330 C   0  0  0  0  0  0  0  0  0  0  0  0
  -21.3170   -6.7180   23.8310 C   0  0  0  0  0  3  0  0  0  0  0  0
  -21.1560   -5.9060   24.9720 C   0  0  0  0  0  3  0  0  0  0  0  0
  -21.4820   -4.5380   24.9150 C   0  0  0  0  0  0  0  0  0  0  0  0
  -21.9730   -3.9800   23.7210 C   0  0  0  0  0  3  0  0  0  0  0  0
  -22.1360   -4.7890   22.5830 C   0  0  0  0  0  0  0  0  0  0  0  0
  -22.5890   -4.2420   21.4290 F   0  0  0  0  0  0  0  0  0  0  0  0
  -21.3210   -3.7560   26.0080 F   0  0  0  0  0  0  0  0  0  0  0  0
  -22.9370  -13.5470   21.1100 C   0  0  0  0  0  0  0  0  0  0  0  0
  -22.1530  -12.8610   21.9350 N   0  0  0  0  0  0  0  0  0  0  0  0
  -22.5280  -14.5500   20.5290 O   0  0  0  0  0  0  0  0  0  0  0  0
  -22.4960  -12.0510   22.4290 H   0  0  0  0  0  0  0  0  0  0  0  0
  -21.1960  -13.1510   22.0740 H   0  0  0  0  0  0  0  0  0  0  0  0
  -25.6040  -15.2390   20.4810 N   0  0  0  0  0  0  0  0  0  0  0  0
  -24.8260  -15.8890   20.5230 H   0  0  0  0  0  0  0  0  0  0  0  0
  -26.4810  -15.6860   20.2430 H   0  0  0  0  0  0  0  0  0  0  0  0
  -28.9020  -22.6030   20.7430 C   0  0  0  0  0  2  0  0  0  0  0  0
  -29.2410  -24.1680   20.6420 C   0  0  0  0  0  3  0  0  0  0  0  0
  -28.1440  -25.1470   20.0500 C   0  0  0  0  0  3  0  0  0  0  0  0
  -28.3610  -26.6090   20.1280 O   0  0  0  0  0  0  0  0  0  0  0  0
  -24.6360  -31.9340   23.2120 C   0  0  0  0  0  0  0  0  0  0  0  0
  -27.2310  -27.4400   20.0760 C   0  0  0  0  0  0  0  0  0  0  0  0
  -23.4130  -30.5400   21.5820 C   0  0  0  0  0  3  0  0  0  0  0  0
  -24.8500  -29.0200   20.1150 C   0  0  0  0  0  0  0  0  0  0  0  0
  -25.9430  -30.8890   21.3520 C   0  0  0  0  0  2  0  0  0  0  0  0
  -26.0230  -29.5180   20.6930 C   0  0  0  0  0  0  0  0  0  0  0  0
  -27.2170  -28.7410   20.6650 C   0  0  0  0  0  3  0  0  0  0  0  0
  -26.0360  -26.9970   19.4630 C   0  0  0  0  0  3  0  0  0  0  0  0
  -24.8580  -27.7640   19.4890 C   0  0  0  0  0  3  0  0  0  0  0  0
  -23.6060  -29.8800   20.1920 C   0  0  0  0  0  2  0  0  0  0  0  0
  -24.6830  -31.1380   22.1050 N   0  0  0  0  0  0  0  0  0  0  0  0
  -23.5610  -32.1970   23.7700 O   0  0  0  0  0  0  0  0  0  0  0  0
  -22.7790  -29.5080   22.5450 C   0  0  0  0  0  0  0  0  0  0  0  0
  -21.4530  -29.3150   22.4370 N   0  0  0  0  0  0  0  0  0  0  0  0
  -23.4770  -28.8840   23.3480 O   0  0  0  0  0  0  0  0  0  0  0  0
  -20.9490  -29.8720   21.7610 H   0  0  0  0  0  0  0  0  0  0  0  0
  -18.1010  -28.0630   22.9610 C   0  0  0  0  0  0  0  0  0  0  0  0
  -20.6550  -28.3660   23.2130 C   0  0  0  0  0  3  0  0  0  0  0  0
  -20.7780  -26.9350   22.6390 C   0  0  0  0  0  2  0  0  0  0  0  0
  -19.6750  -26.5940   21.6320 C   0  0  0  0  0  2  0  0  0  0  0  0
  -18.2950  -26.7170   22.2850 C   0  0  0  0  0  2  0  0  0  0  0  0
  -19.2090  -28.8450   23.3820 C   0  0  0  0  0  0  0  0  0  0  0  0
  -18.9730  -30.1040   23.9740 C   0  0  0  0  0  3  0  0  0  0  0  0
  -17.6610  -30.5850   24.1480 C   0  0  0  0  0  3  0  0  0  0  0  0
  -16.5670  -29.8010   23.7420 C   0  0  0  0  0  3  0  0  0  0  0  0
  -16.7870  -28.5420   23.1540 C   0  0  0  0  0  3  0  0  0  0  0  0
  -25.9250  -32.5720   23.8150 C   0  0  0  0  0  3  0  0  0  0  0  0
  -26.4730  -31.7920   25.0740 C   0  0  1  0  0  0  0  0  0  0  0  0
  -25.4030  -31.5370   26.1620 C   0  0  0  0  0  1  0  0  0  0  0  0
  -27.0580  -30.4230   24.6570 C   0  0  0  0  0  1  0  0  0  0  0  0
  -27.6310  -32.5880   25.7200 C   0  0  0  0  0  1  0  0  0  0  0  0
  -25.6100  -33.9640   24.1660 N   0  0  0  0  0  0  0  0  0  0  0  0
  -25.9250  -35.0280   23.4150 C   0  0  0  0  0  0  0  0  0  0  0  0
  -26.5820  -34.9410   22.3740 O   0  0  0  0  0  0  0  0  0  0  0  0
  -25.0250  -34.1040   24.9760 H   0  0  0  0  0  0  0  0  0  0  0  0
  -24.1810  -36.8140   23.1020 C   0  0  0  0  0  1  0  0  0  0  0  0
  -25.4340  -36.4070   23.8950 C   0  0  0  0  0  3  0  0  0  0  0  0
  -27.5750  -37.2930   24.7080 C   0  0  0  0  0  1  0  0  0  0  0  0
  -26.4580  -37.4680   23.7830 N   0  0  0  0  0  0  0  0  0  0  0  0
  -26.0500  -38.3840   23.9500 H   0  0  0  0  0  0  0  0  0  0  0  0
  1  2  1  0
  2 16  1  0
  2 48  1  0
  3  9  1  0
  3 10  2  0
  4  9  1  0
  5  6  1  0
  5  4  1  0
  7  6  1  0
  7 23  1  0
  7  8  1  0
  9  8  1  0
 12 11  1  0
 13 14  2  0
 13 16  1  0
 14 15  1  0
 15 11  2  0
 16 12  2  0
 17 18  2  0
 17 14  1  0
 18 19  1  0
 19 15  1  0
 19  3  1  0
 20 21  2  0
 21 22  1  0
 21 40  1  0
 22 25  1  0
 23 20  1  0
 23 24  1  0
 24 22  2  0
 25 26  1  0
 26 27  2  0
 28 31  1  0
 28 27  1  0
 29 28  2  0
 30 29  1  0
 30 25  2  0
 31 32  1  0
 32 33  1  0
 33 34  2  0
 35 34  1  0
 35 39  1  0
 36 35  2  0
 37 32  2  0
 37 36  1  0
 38 37  1  0
 40 41  1  0
 41 44  1  0
 41 43  1  0
 42 40  2  0
 45 46  1  0
 45 20  1  0
 47 45  1  0
 49 48  1  0
 50 51  1  0
 50 49  2  0
 52 63  2  0
 53 51  1  0
 53 58  1  0
 54 62  1  0
 54 64  1  0
 55 61  1  0
 55 57  1  0
 56 62  1  0
 57 56  1  0
 58 57  2  0
 59 60  1  0
 59 53  2  0
 60 55  2  0
 61 54  1  0
 62 52  1  0
 64 66  2  0
 65 64  1  0
 67 65  1  0
 68 77  2  0
 68 73  1  0
 69 65  1  0
 69 73  1  0
 70 69  1  0
 71 72  1  0
 71 70  1  0
 72 68  1  0
 73 74  2  0
 74 75  1  0
 76 75  2  0
 77 76  1  0
 78 52  1  0
 78 83  1  0
 78 79  1  0
 79 82  1  1
 79 80  1  0
 81 79  1  0
 83 86  1  0
 84 88  1  0
 84 83  1  0
 85 84  2  0
 88 87  1  0
 90 88  1  0
 90 91  1  0
 90 89  1  0
M  ISO  4   3 100  19 100  50 101  51 101
M  END
>  <TORSDO>  (46) 
F 19

>  <SCORE>  (46) 
-13.028

>  <name>  (46) 
46

>  <ligand_id>  (46) 
46

>  <original_smiles>  (46) 
[H]c1c([H])c([H])c2c(c1[H])C([H])([H])C([H])([H])C([H])([H])C2([H])N([H])C(=O)C1([H])N(C(=O)C([H])(N([H])C(=O)C([H])(N([H])C([H])([H])[H])C([H])([H])[H])C(C([H])([H])[H])(C([H])([H])[H])C([H])([H])[H])C([H])([H])c2c([H])c(OC([H])([H])C([H])([H])C([H])([H])N(c3c([H])c([H])c4c(c3[H])C([H])([H])C([H])([H])N4C(=O)N3C([H])([H])C([H])([H])C([H])([H])C([H])(n4nc(-c5c([H])c([H])c(Oc6c([H])c([H])c(F)c([H])c6F)c([H])c5[H])c(C(=O)N([H])[H])c4N([H])[H])C3([H])[H])C([H])([H])[H])c([H])c([H])c2C1([H])[H]

>  <smiles>  (46) 
[H]c1c([H])c([H])c2c(c1[H])C([H])([H])C([H])([H])C([H])([H])C2([H])N([H])C(=O)C1([H])N(C(=O)C([H])(N([H])C(=O)C([H])(N([H])C([H])([H])[H])C([H])([H])[H])C(C([H])([H])[H])(C([H])([H])[H])C([H])([H])[H])C([H])([H])c2c([H])c(OC([H])([H])C([H])([H])C([H])([H])N(c3c([H])c([H])c4c(c3[H])C([H])([H])C([H])([H])N4C(=O)N3C([H])([H])C([H])([H])C([H])([H])C([H])(n4nc(-c5c([H])c([H])c(Oc6c([H])c([H])c(F)c([H])c6F)c([H])c5[H])c(C(=O)N([H])[H])c4N([H])[H])C3([H])[H])C([H])([H])[H])c([H])c([H])c2C1([H])[H]

$$$$
47:0:0
     RDKit          3D

 94102  0  0  1  0  0  0  0  0999 V2000
  -29.6240  -19.2470   20.4660 C   0  0  0  0  0  3  0  0  0  0  0  0
  -30.1060  -17.9690   20.8110 C   0  0  0  0  0  3  0  0  0  0  0  0
  -29.5050  -18.5690   18.1570 C   0  0  0  0  0  3  0  0  0  0  0  0
  -29.3000  -19.5770   19.1300 C   0  0  0  0  0  0  0  0  0  0  0  0
  -30.2940  -16.9480   19.8430 C   0  0  0  0  0  0  0  0  0  0  0  0
  -29.9720  -17.2800   18.4970 C   0  0  0  0  0  0  0  0  0  0  0  0
  -30.0810  -16.3740   17.4980 F   0  0  0  0  0  0  0  0  0  0  0  0
  -31.1730  -14.7280   19.3170 C   0  0  0  0  0  0  0  0  0  0  0  0
  -30.5630  -12.6950   18.0540 C   0  0  0  0  0  2  0  0  0  0  0  0
  -29.3820  -12.9600   17.1000 C   0  0  0  0  0  2  0  0  0  0  0  0
  -28.0320  -12.7920   17.8260 C   0  0  0  0  0  2  0  0  0  0  0  0
  -27.9810  -13.5540   19.1720 C   0  0  0  0  0  3  0  0  0  0  0  0
  -29.2360  -13.2430   20.0050 C   0  0  0  0  0  2  0  0  0  0  0  0
  -30.4240  -13.5950   19.2080 N   0  0  0  0  0  0  0  0  0  0  0  0
  -32.1320  -14.9700   18.5730 O   0  0  0  0  0  0  0  0  0  0  0  0
  -30.7780  -15.6360   20.2430 N   0  0  0  0  0  0  0  0  0  0  0  0
  -25.8750  -14.1320   20.5400 C   0  0  0  0  0  0  0  0  0  0  0  0
  -24.8540  -13.3530   21.0170 C   0  0  0  0  0  0  0  0  0  0  0  0
  -25.1770  -12.0120   20.6480 C   0  0  0  0  0  0  0  0  0  0  0  0
  -26.7560  -13.2620   19.9150 N   0  0  0  0  0  0  0  0  0  0  0  0
  -26.3550  -11.9720   20.0370 N   0  0  0  0  0  0  0  0  0  0  0  0
  -24.4090  -10.7690   20.7880 C   0  0  0  0  0  0  0  0  0  0  0  0
  -24.8750   -9.7000   21.5860 C   0  0  0  0  0  3  0  0  0  0  0  0
  -24.1090   -8.5220   21.7220 C   0  0  0  0  0  3  0  0  0  0  0  0
  -22.8630   -8.4060   21.0610 C   0  0  0  0  0  0  0  0  0  0  0  0
  -22.4160   -9.4620   20.2470 C   0  0  0  0  0  3  0  0  0  0  0  0
  -23.1810  -10.6320   20.1080 C   0  0  0  0  0  3  0  0  0  0  0  0
  -22.0660   -7.2880   21.1130 O   0  0  0  0  0  0  0  0  0  0  0  0
  -21.9340   -6.5490   22.2620 C   0  0  0  0  0  0  0  0  0  0  0  0
  -21.4770   -7.1230   23.4700 C   0  0  0  0  0  3  0  0  0  0  0  0
  -21.2900   -6.3130   24.6070 C   0  0  0  0  0  3  0  0  0  0  0  0
  -21.5520   -4.9330   24.5400 C   0  0  0  0  0  0  0  0  0  0  0  0
  -22.0050   -4.3600   23.3390 C   0  0  0  0  0  3  0  0  0  0  0  0
  -22.1930   -5.1650   22.2030 C   0  0  0  0  0  0  0  0  0  0  0  0
  -22.6100   -4.6030   21.0420 F   0  0  0  0  0  0  0  0  0  0  0  0
  -21.3640   -4.1550   25.6310 F   0  0  0  0  0  0  0  0  0  0  0  0
  -23.5980  -13.8320   21.6890 C   0  0  0  0  0  0  0  0  0  0  0  0
  -23.0470  -13.0410   22.6050 N   0  0  0  0  0  0  0  0  0  0  0  0
  -23.1210  -14.9370   21.4380 O   0  0  0  0  0  0  0  0  0  0  0  0
  -23.4430  -12.1410   22.8360 H   0  0  0  0  0  0  0  0  0  0  0  0
  -22.2180  -13.3480   23.0910 H   0  0  0  0  0  0  0  0  0  0  0  0
  -26.1270  -15.5010   20.5740 N   0  0  0  0  0  0  0  0  0  0  0  0
  -25.5460  -16.1510   21.0910 H   0  0  0  0  0  0  0  0  0  0  0  0
  -26.9660  -15.9260   20.2020 H   0  0  0  0  0  0  0  0  0  0  0  0
  -31.2860  -15.4310   21.6170 C   0  0  0  0  0  2  0  0  0  0  0  0
  -31.2140  -17.1380   23.5640 C   0  0  0  0  0  1  0  0  0  0  0  0
  -30.4290  -16.1670   22.6750 C   0  0  0  0  0  2  0  0  0  0  0  0
  -27.5820  -20.7720   17.9060 C   0  0  0  0  0  1  0  0  0  0  0  0
  -28.7740  -20.8460   18.7580 N   0  0  0  0  0  0  0  0  0  0  0  0
  -28.8800  -22.0020   19.6640 C   0  0  0  0  0  2  0  0  0  0  0  0
  -29.0060  -23.3640   18.9300 C   0  0  0  0  0  2  0  0  0  0  0  0
  -28.7380  -24.5930   19.8270 C   0  0  0  0  0  2  0  0  0  0  0  0
  -28.9750  -25.9330   19.0970 C   0  0  0  0  0  2  0  0  0  0  0  0
  -28.7290  -27.0700   19.9350 O   0  0  0  0  0  0  0  0  0  0  0  0
  -24.5930  -31.8570   23.1880 C   0  0  0  0  0  0  0  0  0  0  0  0
  -27.4810  -27.6620   19.9670 C   0  0  0  0  0  0  0  0  0  0  0  0
  -23.4560  -30.4050   21.5410 C   0  0  0  0  0  3  0  0  0  0  0  0
  -24.9820  -28.9940   20.0670 C   0  0  0  0  0  0  0  0  0  0  0  0
  -25.9460  -30.9400   21.3070 C   0  0  0  0  0  2  0  0  0  0  0  0
  -26.1130  -29.5870   20.6410 C   0  0  0  0  0  0  0  0  0  0  0  0
  -27.3610  -28.9250   20.5900 C   0  0  0  0  0  3  0  0  0  0  0  0
  -26.3220  -27.0710   19.4080 C   0  0  0  0  0  3  0  0  0  0  0  0
  -25.0830  -27.7360   19.4480 C   0  0  0  0  0  3  0  0  0  0  0  0
  -23.6860  -29.7710   20.1440 C   0  0  0  0  0  2  0  0  0  0  0  0
  -24.6830  -31.0820   22.0710 N   0  0  0  0  0  0  0  0  0  0  0  0
  -23.5060  -32.0440   23.7530 O   0  0  0  0  0  0  0  0  0  0  0  0
  -22.8970  -29.3220   22.4900 C   0  0  0  0  0  0  0  0  0  0  0  0
  -21.6100  -28.9790   22.3100 N   0  0  0  0  0  0  0  0  0  0  0  0
  -23.6120  -28.7940   23.3440 O   0  0  0  0  0  0  0  0  0  0  0  0
  -21.0880  -29.4590   21.5920 H   0  0  0  0  0  0  0  0  0  0  0  0
  -18.4060  -27.3430   22.6380 C   0  0  0  0  0  0  0  0  0  0  0  0
  -20.8790  -27.9610   23.0650 C   0  0  0  0  0  3  0  0  0  0  0  0
  -21.2170  -26.5410   22.5540 C   0  0  0  0  0  2  0  0  0  0  0  0
  -20.2420  -26.0390   21.4840 C   0  0  0  0  0  2  0  0  0  0  0  0
  -18.8120  -26.0110   22.0300 C   0  0  0  0  0  2  0  0  0  0  0  0
  -19.3770  -28.2650   23.1100 C   0  0  0  0  0  0  0  0  0  0  0  0
  -18.9470  -29.5030   23.6330 C   0  0  0  0  0  3  0  0  0  0  0  0
  -17.5770  -29.8240   23.6920 C   0  0  0  0  0  3  0  0  0  0  0  0
  -16.6210  -28.9010   23.2360 C   0  0  0  0  0  3  0  0  0  0  0  0
  -17.0340  -27.6630   22.7140 C   0  0  0  0  0  3  0  0  0  0  0  0
  -25.8440  -32.5620   23.7990 C   0  0  0  0  0  3  0  0  0  0  0  0
  -25.4600  -33.9410   24.1250 N   0  0  0  0  0  0  0  0  0  0  0  0
  -25.7260  -35.0060   23.3560 C   0  0  0  0  0  0  0  0  0  0  0  0
  -26.3960  -34.9320   22.3200 O   0  0  0  0  0  0  0  0  0  0  0  0
  -24.8640  -34.0680   24.9300 H   0  0  0  0  0  0  0  0  0  0  0  0
  -23.8940  -36.6870   22.9970 C   0  0  0  0  0  1  0  0  0  0  0  0
  -25.1620  -36.3660   23.8050 C   0  0  0  0  0  3  0  0  0  0  0  0
  -27.2530  -37.3730   24.6060 C   0  0  0  0  0  1  0  0  0  0  0  0
  -26.1310  -37.4770   23.6760 N   0  0  0  0  0  0  0  0  0  0  0  0
  -25.6770  -38.3730   23.8260 H   0  0  0  0  0  0  0  0  0  0  0  0
  -26.4120  -31.8240   25.0730 C   0  0  1  0  0  0  0  0  0  0  0  0
  -25.3340  -31.4850   26.1280 C   0  0  0  0  0  1  0  0  0  0  0  0
  -27.1110  -30.5060   24.6710 C   0  0  0  0  0  1  0  0  0  0  0  0
  -27.4890  -32.7050   25.7510 C   0  0  0  0  0  1  0  0  0  0  0  0
  1  2  1  0
  3  6  2  0
  3  4  1  0
  4  1  2  0
  5 16  1  0
  5  2  2  0
  6  5  1  0
  7  6  1  0
  8 16  1  0
  9 14  1  0
 10 11  1  0
 10  9  1  0
 12 11  1  0
 12 20  1  0
 12 13  1  0
 14  8  1  0
 14 13  1  0
 15  8  2  0
 16 45  1  0
 17 42  1  0
 17 18  2  0
 18 37  1  0
 19 22  1  0
 19 18  1  0
 20 21  1  0
 20 17  1  0
 21 19  2  0
 22 23  1  0
 23 24  2  0
 25 28  1  0
 25 24  1  0
 26 25  2  0
 27 26  1  0
 27 22  2  0
 28 29  1  0
 29 30  1  0
 30 31  2  0
 32 31  1  0
 32 36  1  0
 33 32  2  0
 34 29  2  0
 34 33  1  0
 35 34  1  0
 37 38  1  0
 38 40  1  0
 38 41  1  0
 39 37  2  0
 42 43  1  0
 44 42  1  0
 45 47  1  0
 47 46  1  0
 48 49  1  0
 49  4  1  0
 49 50  1  0
 51 50  1  0
 51 52  1  0
 53 52  1  0
 53 54  1  0
 54 56  1  0
 55 66  2  0
 56 61  1  0
 57 65  1  0
 57 67  1  0
 58 64  1  0
 58 60  1  0
 59 65  1  0
 60 59  1  0
 61 60  2  0
 62 63  1  0
 62 56  2  0
 63 58  2  0
 64 57  1  0
 65 55  1  0
 67 69  2  0
 68 67  1  0
 70 68  1  0
 71 80  2  0
 71 76  1  0
 72 68  1  0
 72 76  1  0
 73 72  1  0
 74 75  1  0
 74 73  1  0
 75 71  1  0
 76 77  2  0
 77 78  1  0
 79 78  2  0
 80 79  1  0
 81 55  1  0
 81 82  1  0
 81 91  1  0
 82 85  1  0
 83 87  1  0
 83 82  1  0
 84 83  2  0
 87 86  1  0
 89 87  1  0
 89 90  1  0
 89 88  1  0
 91 94  1  1
 91 92  1  0
 93 91  1  0
M  ISO  4   8 100  16 100  53 101  54 101
M  END
>  <TORSDO>  (47) 
F 23

>  <SCORE>  (47) 
-7.770

>  <name>  (47) 
47

>  <ligand_id>  (47) 
47

>  <original_smiles>  (47) 
[H]c1c([H])c([H])c2c(c1[H])C([H])([H])C([H])([H])C([H])([H])C2([H])N([H])C(=O)C1([H])N(C(=O)C([H])(N([H])C(=O)C([H])(N([H])C([H])([H])[H])C([H])([H])[H])C(C([H])([H])[H])(C([H])([H])[H])C([H])([H])[H])C([H])([H])c2c([H])c(OC([H])([H])C([H])([H])C([H])([H])C([H])([H])N(c3c([H])c([H])c(N(C(=O)N4C([H])([H])C([H])([H])C([H])([H])C([H])(n5nc(-c6c([H])c([H])c(Oc7c([H])c([H])c(F)c([H])c7F)c([H])c6[H])c(C(=O)N([H])[H])c5N([H])[H])C4([H])[H])C([H])([H])C([H])([H])C([H])([H])[H])c(F)c3[H])C([H])([H])[H])c([H])c([H])c2C1([H])[H]

>  <smiles>  (47) 
[H]c1c([H])c([H])c2c(c1[H])C([H])([H])C([H])([H])C([H])([H])C2([H])N([H])C(=O)C1([H])N(C(=O)C([H])(N([H])C(=O)C([H])(N([H])C([H])([H])[H])C([H])([H])[H])C(C([H])([H])[H])(C([H])([H])[H])C([H])([H])[H])C([H])([H])c2c([H])c(OC([H])([H])C([H])([H])C([H])([H])C([H])([H])N(c3c([H])c([H])c(N(C(=O)N4C([H])([H])C([H])([H])C([H])([H])C([H])(n5nc(-c6c([H])c([H])c(Oc7c([H])c([H])c(F)c([H])c7F)c([H])c6[H])c(C(=O)N([H])[H])c5N([H])[H])C4([H])[H])C([H])([H])C([H])([H])C([H])([H])[H])c(F)c3[H])C([H])([H])[H])c([H])c([H])c2C1([H])[H]

$$$$
48:0:0
     RDKit          3D

 92100  0  0  1  0  0  0  0  0999 V2000
  -29.7740  -18.4800   19.8970 C   0  0  0  0  0  3  0  0  0  0  0  0
  -29.9750  -19.8820   19.8590 C   0  0  0  0  0  3  0  0  0  0  0  0
  -30.5030  -19.8620   22.2230 C   0  0  0  0  0  3  0  0  0  0  0  0
  -29.9160  -17.7550   21.1030 C   0  0  0  0  0  0  0  0  0  0  0  0
  -30.3490  -20.5930   21.0230 C   0  0  0  0  0  0  0  0  0  0  0  0
  -30.2750  -18.4690   22.2700 C   0  0  0  0  0  0  0  0  0  0  0  0
  -30.3950  -17.8190   23.4530 F   0  0  0  0  0  0  0  0  0  0  0  0
  -31.9930  -22.3060   21.3920 C   0  0  0  0  0  1  0  0  0  0  0  0
  -30.6160  -21.9850   21.0180 N   0  0  0  0  0  0  0  0  0  0  0  0
  -29.9120  -22.8600   20.0640 C   0  0  0  0  0  2  0  0  0  0  0  0
  -29.8220  -24.3490   20.5210 C   0  0  0  0  0  2  0  0  0  0  0  0
  -28.8560  -25.2090   19.6660 C   0  0  0  0  0  2  0  0  0  0  0  0
  -28.8230  -26.5980   20.0710 O   0  0  0  0  0  0  0  0  0  0  0  0
  -24.7810  -31.5770   23.1850 C   0  0  0  0  0  0  0  0  0  0  0  0
  -27.6260  -27.2980   20.0210 C   0  0  0  0  0  0  0  0  0  0  0  0
  -23.6530  -30.1840   21.4830 C   0  0  0  0  0  3  0  0  0  0  0  0
  -25.1820  -28.7460   20.0320 C   0  0  0  0  0  0  0  0  0  0  0  0
  -26.1700  -30.6290   21.3420 C   0  0  0  0  0  2  0  0  0  0  0  0
  -26.3120  -29.2810   20.6610 C   0  0  0  0  0  0  0  0  0  0  0  0
  -27.5340  -28.5630   20.6550 C   0  0  0  0  0  3  0  0  0  0  0  0
  -26.4750  -26.8010   19.3610 C   0  0  0  0  0  3  0  0  0  0  0  0
  -25.2600  -27.5070   19.3810 C   0  0  0  0  0  3  0  0  0  0  0  0
  -23.9090  -29.5600   20.0860 C   0  0  0  0  0  2  0  0  0  0  0  0
  -24.8850  -30.8110   22.0620 N   0  0  0  0  0  0  0  0  0  0  0  0
  -23.6820  -31.7960   23.7130 O   0  0  0  0  0  0  0  0  0  0  0  0
  -23.0250  -29.1100   22.4010 C   0  0  0  0  0  0  0  0  0  0  0  0
  -21.7090  -28.8830   22.2460 N   0  0  0  0  0  0  0  0  0  0  0  0
  -23.7170  -28.4840   23.2080 O   0  0  0  0  0  0  0  0  0  0  0  0
  -21.2110  -29.4460   21.5710 H   0  0  0  0  0  0  0  0  0  0  0  0
  -18.3730  -27.5540   22.6510 C   0  0  0  0  0  0  0  0  0  0  0  0
  -20.9150  -27.8940   22.9740 C   0  0  0  0  0  3  0  0  0  0  0  0
  -21.0780  -26.4850   22.3570 C   0  0  0  0  0  2  0  0  0  0  0  0
  -20.0050  -26.1540   21.3140 C   0  0  0  0  0  2  0  0  0  0  0  0
  -18.6090  -26.2310   21.9380 C   0  0  0  0  0  2  0  0  0  0  0  0
  -19.4570  -28.3410   23.1220 C   0  0  0  0  0  0  0  0  0  0  0  0
  -19.1830  -29.5780   23.7450 C   0  0  0  0  0  3  0  0  0  0  0  0
  -17.8600  -30.0290   23.9030 C   0  0  0  0  0  3  0  0  0  0  0  0
  -16.7900  -29.2380   23.4480 C   0  0  0  0  0  3  0  0  0  0  0  0
  -17.0470  -28.0030   22.8280 C   0  0  0  0  0  3  0  0  0  0  0  0
  -26.0340  -32.2350   23.8430 C   0  0  0  0  0  3  0  0  0  0  0  0
  -25.6830  -33.6240   24.1680 N   0  0  0  0  0  0  0  0  0  0  0  0
  -25.9920  -34.6840   23.4080 C   0  0  0  0  0  0  0  0  0  0  0  0
  -26.6730  -34.5980   22.3830 O   0  0  0  0  0  0  0  0  0  0  0  0
  -25.0760  -33.7630   24.9620 H   0  0  0  0  0  0  0  0  0  0  0  0
  -24.2040  -36.4180   23.0460 C   0  0  0  0  0  1  0  0  0  0  0  0
  -25.4600  -36.0590   23.8560 C   0  0  0  0  0  3  0  0  0  0  0  0
  -27.5680  -37.0170   24.6750 C   0  0  0  0  0  1  0  0  0  0  0  0
  -26.4580  -37.1440   23.7350 N   0  0  0  0  0  0  0  0  0  0  0  0
  -26.0230  -38.0520   23.8780 H   0  0  0  0  0  0  0  0  0  0  0  0
  -26.5340  -31.4710   25.1300 C   0  0  1  0  0  0  0  0  0  0  0  0
  -25.4200  -31.2030   26.1680 C   0  0  0  0  0  1  0  0  0  0  0  0
  -27.1580  -30.1090   24.7470 C   0  0  0  0  0  1  0  0  0  0  0  0
  -27.6500  -32.2880   25.8240 C   0  0  0  0  0  1  0  0  0  0  0  0
  -29.6090  -16.2430   21.1550 C   0  0  0  0  0  2  0  0  0  0  0  0
  -31.0840  -14.4730   20.2070 C   0  0  0  0  0  0  0  0  0  0  0  0
  -30.5900  -12.4330   18.8900 C   0  0  0  0  0  2  0  0  0  0  0  0
  -29.5940  -12.7320   17.7540 C   0  0  0  0  0  2  0  0  0  0  0  0
  -28.1450  -12.6000   18.2580 C   0  0  0  0  0  2  0  0  0  0  0  0
  -27.9060  -13.3770   19.5770 C   0  0  0  0  0  3  0  0  0  0  0  0
  -29.0090  -13.0690   20.6150 C   0  0  0  0  0  2  0  0  0  0  0  0
  -30.3140  -13.3640   20.0020 N   0  0  0  0  0  0  0  0  0  0  0  0
  -32.1340  -14.6580   19.5820 O   0  0  0  0  0  0  0  0  0  0  0  0
  -31.8150  -15.6890   22.1660 C   0  0  0  0  0  1  0  0  0  0  0  0
  -30.7520  -15.2990   21.2340 N   0  0  0  0  0  0  0  0  0  0  0  0
  -25.5640  -14.0330   20.4110 C   0  0  0  0  0  0  0  0  0  0  0  0
  -24.4940  -13.2800   20.8140 C   0  0  0  0  0  0  0  0  0  0  0  0
  -24.9170  -11.9180   20.7340 C   0  0  0  0  0  0  0  0  0  0  0  0
  -26.5720  -13.1280   20.1140 N   0  0  0  0  0  0  0  0  0  0  0  0
  -26.1900  -11.8510   20.3650 N   0  0  0  0  0  0  0  0  0  0  0  0
  -24.1690  -10.6700   20.9300 C   0  0  0  0  0  0  0  0  0  0  0  0
  -24.5800   -9.7030   21.8730 C   0  0  0  0  0  3  0  0  0  0  0  0
  -23.8340   -8.5190   22.0570 C   0  0  0  0  0  3  0  0  0  0  0  0
  -22.6620   -8.2950   21.2950 C   0  0  0  0  0  0  0  0  0  0  0  0
  -22.2690   -9.2500   20.3410 C   0  0  0  0  0  3  0  0  0  0  0  0
  -23.0160  -10.4260   20.1560 C   0  0  0  0  0  3  0  0  0  0  0  0
  -21.8880   -7.1630   21.3880 O   0  0  0  0  0  0  0  0  0  0  0  0
  -21.7580   -6.4740   22.5660 C   0  0  0  0  0  0  0  0  0  0  0  0
  -21.2730   -7.0920   23.7400 C   0  0  0  0  0  3  0  0  0  0  0  0
  -21.0890   -6.3310   24.9110 C   0  0  0  0  0  3  0  0  0  0  0  0
  -21.3800   -4.9530   24.9090 C   0  0  0  0  0  0  0  0  0  0  0  0
  -21.8570   -4.3360   23.7410 C   0  0  0  0  0  3  0  0  0  0  0  0
  -22.0430   -5.0940   22.5710 C   0  0  0  0  0  0  0  0  0  0  0  0
  -22.4830   -4.4900   21.4410 F   0  0  0  0  0  0  0  0  0  0  0  0
  -21.1960   -4.2200   26.0320 F   0  0  0  0  0  0  0  0  0  0  0  0
  -23.1240  -13.7870   21.1600 C   0  0  0  0  0  0  0  0  0  0  0  0
  -22.4250  -13.1000   22.0560 N   0  0  0  0  0  0  0  0  0  0  0  0
  -22.6840  -14.8260   20.6700 O   0  0  0  0  0  0  0  0  0  0  0  0
  -22.7950  -12.2570   22.4700 H   0  0  0  0  0  0  0  0  0  0  0  0
  -21.5080  -13.4210   22.3310 H   0  0  0  0  0  0  0  0  0  0  0  0
  -25.7560  -15.4010   20.2530 N   0  0  0  0  0  0  0  0  0  0  0  0
  -25.0050  -16.0690   20.4020 H   0  0  0  0  0  0  0  0  0  0  0  0
  -26.5900  -15.8260   19.8690 H   0  0  0  0  0  0  0  0  0  0  0  0
  1  4  1  0
  2  1  2  0
  2  5  1  0
  3  6  1  0
  4 54  1  0
  4  6  2  0
  5  3  2  0
  6  7  1  0
  9  5  1  0
  9  8  1  0
 10 11  1  0
 10  9  1  0
 12 13  1  0
 12 11  1  0
 14 25  2  0
 15 13  1  0
 15 20  1  0
 16 24  1  0
 16 26  1  0
 17 23  1  0
 17 19  1  0
 18 24  1  0
 19 18  1  0
 20 19  2  0
 21 22  1  0
 21 15  2  0
 22 17  2  0
 23 16  1  0
 24 14  1  0
 26 28  2  0
 27 26  1  0
 29 27  1  0
 30 39  2  0
 30 35  1  0
 31 27  1  0
 31 35  1  0
 32 31  1  0
 33 34  1  0
 33 32  1  0
 34 30  1  0
 35 36  2  0
 36 37  1  0
 38 37  2  0
 39 38  1  0
 40 14  1  0
 40 41  1  0
 40 50  1  0
 41 44  1  0
 42 46  1  0
 42 41  1  0
 43 42  2  0
 46 45  1  0
 48 46  1  0
 48 49  1  0
 48 47  1  0
 50 53  1  1
 50 51  1  0
 52 50  1  0
 54 64  1  0
 55 64  1  0
 56 61  1  0
 57 58  1  0
 57 56  1  0
 59 58  1  0
 59 68  1  0
 59 60  1  0
 61 55  1  0
 61 60  1  0
 62 55  2  0
 64 63  1  0
 65 66  2  0
 66 85  1  0
 67 66  1  0
 67 70  1  0
 68 69  1  0
 68 65  1  0
 69 67  2  0
 70 71  1  0
 71 72  2  0
 73 76  1  0
 73 72  1  0
 74 73  2  0
 75 74  1  0
 75 70  2  0
 76 77  1  0
 77 82  2  0
 77 78  1  0
 78 79  2  0
 80 79  1  0
 80 84  1  0
 81 80  2  0
 82 81  1  0
 83 82  1  0
 85 86  1  0
 86 89  1  0
 86 88  1  0
 87 85  2  0
 90 91  1  0
 90 65  1  0
 92 90  1  0
M  ISO  4  12 101  13 101  55 100  64 100
M  END
>  <TORSDO>  (48) 
F 21

>  <SCORE>  (48) 
-10.914

>  <name>  (48) 
48

>  <ligand_id>  (48) 
48

>  <original_smiles>  (48) 
[H]c1c([H])c([H])c2c(c1[H])C([H])([H])C([H])([H])C([H])([H])C2([H])N([H])C(=O)C1([H])N(C(=O)C([H])(N([H])C(=O)C([H])(N([H])C([H])([H])[H])C([H])([H])[H])C(C([H])([H])[H])(C([H])([H])[H])C([H])([H])[H])C([H])([H])c2c([H])c(OC([H])([H])C([H])([H])C([H])([H])N(c3c([H])c([H])c(C([H])([H])N(C(=O)N4C([H])([H])C([H])([H])C([H])([H])C([H])(n5nc(-c6c([H])c([H])c(Oc7c([H])c([H])c(F)c([H])c7F)c([H])c6[H])c(C(=O)N([H])[H])c5N([H])[H])C4([H])[H])C([H])([H])[H])c(F)c3[H])C([H])([H])[H])c([H])c([H])c2C1([H])[H]

>  <smiles>  (48) 
[H]c1c([H])c([H])c2c(c1[H])C([H])([H])C([H])([H])C([H])([H])C2([H])N([H])C(=O)C1([H])N(C(=O)C([H])(N([H])C(=O)C([H])(N([H])C([H])([H])[H])C([H])([H])[H])C(C([H])([H])[H])(C([H])([H])[H])C([H])([H])[H])C([H])([H])c2c([H])c(OC([H])([H])C([H])([H])C([H])([H])N(c3c([H])c([H])c(C([H])([H])N(C(=O)N4C([H])([H])C([H])([H])C([H])([H])C([H])(n5nc(-c6c([H])c([H])c(Oc7c([H])c([H])c(F)c([H])c7F)c([H])c6[H])c(C(=O)N([H])[H])c5N([H])[H])C4([H])[H])C([H])([H])[H])c(F)c3[H])C([H])([H])[H])c([H])c([H])c2C1([H])[H]

$$$$
49:0:0
     RDKit          3D

 96105  0  0  1  0  0  0  0  0999 V2000
  -27.0420  -20.6720   19.4940 C   0  0  0  0  0  2  0  0  0  0  0  0
  -30.2310  -19.6570   17.5430 C   0  0  0  0  0  3  0  0  0  0  0  0
  -30.3160  -18.3070   17.9230 C   0  0  0  0  0  3  0  0  0  0  0  0
  -29.2550  -20.4900   18.1230 C   0  0  0  0  0  3  0  0  0  0  0  0
  -28.4870  -18.6190   19.4650 C   0  0  0  0  0  3  0  0  0  0  0  0
  -29.5200  -17.7950   18.9700 C   0  0  0  0  0  0  0  0  0  0  0  0
  -28.3050  -19.9360   19.0140 C   0  0  0  0  0  0  0  0  0  0  0  0
  -29.5500  -16.3500   19.4710 C   0  0  0  0  0  2  0  0  0  0  0  0
  -31.0290  -14.5390   19.2230 C   0  0  0  0  0  0  0  0  0  0  0  0
  -30.5770  -12.2280   18.5140 C   0  0  0  0  0  2  0  0  0  0  0  0
  -29.4830  -12.1780   17.4370 C   0  0  0  0  0  2  0  0  0  0  0  0
  -28.1100  -12.0110   18.1030 C   0  0  0  0  0  2  0  0  0  0  0  0
  -27.8760  -13.0620   19.2170 C   0  0  0  0  0  3  0  0  0  0  0  0
  -29.0910  -13.1590   20.1820 C   0  0  0  0  0  2  0  0  0  0  0  0
  -30.3160  -13.3880   19.3820 N   0  0  0  0  0  0  0  0  0  0  0  0
  -31.9800  -14.6240   18.4400 O   0  0  0  0  0  0  0  0  0  0  0  0
  -30.7440  -15.6120   19.9800 N   0  0  0  0  0  0  0  0  0  0  0  0
  -25.6850  -13.7030   20.4210 C   0  0  0  0  0  0  0  0  0  0  0  0
  -24.6500  -12.9470   20.9060 C   0  0  0  0  0  0  0  0  0  0  0  0
  -25.0020  -11.5870   20.6470 C   0  0  0  0  0  0  0  0  0  0  0  0
  -26.6130  -12.8050   19.9180 N   0  0  0  0  0  0  0  0  0  0  0  0
  -26.2100  -11.5220   20.1030 N   0  0  0  0  0  0  0  0  0  0  0  0
  -24.2270  -10.3500   20.8230 C   0  0  0  0  0  0  0  0  0  0  0  0
  -24.5060   -9.4550   21.8790 C   0  0  0  0  0  3  0  0  0  0  0  0
  -23.7390   -8.2830   22.0440 C   0  0  0  0  0  3  0  0  0  0  0  0
  -22.6730   -8.0000   21.1580 C   0  0  0  0  0  0  0  0  0  0  0  0
  -22.4160   -8.8800   20.0930 C   0  0  0  0  0  3  0  0  0  0  0  0
  -23.1840  -10.0450   19.9220 C   0  0  0  0  0  3  0  0  0  0  0  0
  -21.8900   -6.8730   21.2270 O   0  0  0  0  0  0  0  0  0  0  0  0
  -21.3910   -6.4200   22.4220 C   0  0  0  0  0  0  0  0  0  0  0  0
  -20.4830   -7.1830   23.1880 C   0  0  0  0  0  3  0  0  0  0  0  0
  -19.9410   -6.6510   24.3740 C   0  0  0  0  0  3  0  0  0  0  0  0
  -20.2990   -5.3550   24.7930 C   0  0  0  0  0  0  0  0  0  0  0  0
  -21.2000   -4.5910   24.0290 C   0  0  0  0  0  3  0  0  0  0  0  0
  -21.7440   -5.1230   22.8470 C   0  0  0  0  0  0  0  0  0  0  0  0
  -22.5960   -4.3760   22.1060 F   0  0  0  0  0  0  0  0  0  0  0  0
  -19.7730   -4.8400   25.9290 F   0  0  0  0  0  0  0  0  0  0  0  0
  -23.3610  -13.4600   21.4810 C   0  0  0  0  0  0  0  0  0  0  0  0
  -22.7810  -12.7310   22.4280 N   0  0  0  0  0  0  0  0  0  0  0  0
  -22.8870  -14.5380   21.1280 O   0  0  0  0  0  0  0  0  0  0  0  0
  -23.1790  -11.8540   22.7380 H   0  0  0  0  0  0  0  0  0  0  0  0
  -21.9210  -13.0520   22.8530 H   0  0  0  0  0  0  0  0  0  0  0  0
  -25.8960  -15.0770   20.3290 N   0  0  0  0  0  0  0  0  0  0  0  0
  -25.1260  -15.7040   20.5200 H   0  0  0  0  0  0  0  0  0  0  0  0
  -26.5570  -15.4600   19.6740 H   0  0  0  0  0  0  0  0  0  0  0  0
  -32.7930  -17.0880   20.5140 C   0  0  0  0  0  2  0  0  0  0  0  0
  -31.9420  -17.2690   21.7550 C   0  0  0  0  0  2  0  0  0  0  0  0
  -31.7910  -16.0110   20.9200 C   0  0  0  0  0  3  0  0  0  0  0  0
  -25.8320  -22.6310   18.7180 C   0  0  0  0  0  1  0  0  0  0  0  0
  -27.0320  -22.1650   19.4600 N   0  0  2  0  0  4  0  0  0  0  0  0
  -26.9010  -22.4470   20.4200 H   0  0  0  0  0  0  0  0  0  0  0  0
  -28.2940  -22.7840   18.9300 C   0  0  0  0  0  2  0  0  0  0  0  0
  -28.7650  -24.0310   19.7210 C   0  0  0  0  0  2  0  0  0  0  0  0
  -30.0470  -24.6550   19.1090 C   0  0  0  0  0  2  0  0  0  0  0  0
  -30.7060  -25.7280   20.0060 C   0  0  0  0  0  2  0  0  0  0  0  0
  -30.6730  -27.0460   19.4280 O   0  0  0  0  0  0  0  0  0  0  0  0
  -26.4070  -29.7350   24.4070 C   0  0  0  0  0  0  0  0  0  0  0  0
  -29.5040  -27.7160   19.6940 C   0  0  0  0  0  0  0  0  0  0  0  0
  -25.3930  -29.4300   22.1680 C   0  0  0  0  0  3  0  0  0  0  0  0
  -27.0360  -28.9360   20.2910 C   0  0  0  0  0  0  0  0  0  0  0  0
  -27.8970  -29.9190   22.4210 C   0  0  0  0  0  2  0  0  0  0  0  0
  -28.1200  -29.1040   21.1590 C   0  0  0  0  0  0  0  0  0  0  0  0
  -29.3620  -28.5000   20.8650 C   0  0  0  0  0  3  0  0  0  0  0  0
  -28.4080  -27.5890   18.8170 C   0  0  0  0  0  3  0  0  0  0  0  0
  -27.1690  -28.1670   19.1230 C   0  0  0  0  0  3  0  0  0  0  0  0
  -25.7330  -29.5950   20.6660 C   0  0  0  0  0  2  0  0  0  0  0  0
  -26.5790  -29.6750   23.0570 N   0  0  0  0  0  0  0  0  0  0  0  0
  -25.2820  -29.6420   24.9130 O   0  0  0  0  0  0  0  0  0  0  0  0
  -24.7540  -28.0360   22.3750 C   0  0  0  0  0  0  0  0  0  0  0  0
  -23.4830  -27.8940   21.9630 N   0  0  0  0  0  0  0  0  0  0  0  0
  -25.4040  -27.1040   22.8560 O   0  0  0  0  0  0  0  0  0  0  0  0
  -23.0360  -28.6970   21.5340 H   0  0  0  0  0  0  0  0  0  0  0  0
  -20.2500  -26.4450   21.2230 C   0  0  0  0  0  0  0  0  0  0  0  0
  -22.6970  -26.6640   22.0340 C   0  0  0  0  0  3  0  0  0  0  0  0
  -23.0640  -25.7180   20.8650 C   0  0  0  0  0  2  0  0  0  0  0  0
  -22.1450  -25.8570   19.6480 C   0  0  0  0  0  2  0  0  0  0  0  0
  -20.6870  -25.6020   20.0340 C   0  0  0  0  0  2  0  0  0  0  0  0
  -21.1950  -26.9480   22.1580 C   0  0  0  0  0  0  0  0  0  0  0  0
  -20.7410  -27.7520   23.2340 C   0  0  0  0  0  3  0  0  0  0  0  0
  -19.3690  -28.0330   23.3750 C   0  0  0  0  0  3  0  0  0  0  0  0
  -18.4360  -27.5200   22.4560 C   0  0  0  0  0  3  0  0  0  0  0  0
  -18.8770  -26.7250   21.3850 C   0  0  0  0  0  3  0  0  0  0  0  0
  -27.6080  -29.9550   25.3780 C   0  0  0  0  0  3  0  0  0  0  0  0
  -27.3390  -31.1780   26.1470 N   0  0  0  0  0  0  0  0  0  0  0  0
  -27.9310  -32.3590   25.9230 C   0  0  0  0  0  0  0  0  0  0  0  0
  -28.8340  -32.5120   25.0930 O   0  0  0  0  0  0  0  0  0  0  0  0
  -26.5730  -31.1380   26.8050 H   0  0  0  0  0  0  0  0  0  0  0  0
  -26.5510  -34.4570   25.9090 C   0  0  0  0  0  1  0  0  0  0  0  0
  -27.4530  -33.5580   26.7650 C   0  0  0  0  0  3  0  0  0  0  0  0
  -29.3070  -33.6590   28.3770 C   0  0  0  0  0  1  0  0  0  0  0  0
  -28.5600  -34.3580   27.3330 N   0  0  0  0  0  0  0  0  0  0  0  0
  -28.2080  -35.2250   27.7260 H   0  0  0  0  0  0  0  0  0  0  0  0
  -27.8730  -28.7310   26.3390 C   0  0  1  0  0  0  0  0  0  0  0  0
  -26.6190  -28.2720   27.1160 C   0  0  0  0  0  1  0  0  0  0  0  0
  -28.4110  -27.5180   25.5410 C   0  0  0  0  0  1  0  0  0  0  0  0
  -28.9640  -29.1050   27.3690 C   0  0  0  0  0  1  0  0  0  0  0  0
  2  3  2  0
  2  4  1  0
  3  6  1  0
  4  7  2  0
  6  5  2  0
  6  8  1  0
  7  5  1  0
  7  1  1  0
  8 17  1  0
  9 15  1  0
  9 17  1  0
 10 15  1  0
 11 12  1  0
 11 10  1  0
 13 12  1  0
 13 21  1  0
 13 14  1  0
 15 14  1  0
 16  9  2  0
 17 48  1  0
 18 19  2  0
 19 38  1  0
 20 23  1  0
 20 19  1  0
 21 22  1  0
 21 18  1  0
 22 20  2  0
 23 24  1  0
 24 25  2  0
 26 29  1  0
 26 25  1  0
 27 26  2  0
 28 27  1  0
 28 23  2  0
 29 30  1  0
 30 35  2  0
 30 31  1  0
 31 32  2  0
 32 33  1  0
 33 37  1  0
 34 33  2  0
 35 34  1  0
 36 35  1  0
 38 39  1  0
 39 41  1  0
 39 42  1  0
 40 38  2  0
 43 18  1  0
 43 44  1  0
 45 43  1  0
 46 48  1  0
 46 47  1  0
 48 47  1  0
 49 50  1  0
 50  1  1  0
 50 51  1  1
 52 50  1  0
 52 53  1  0
 54 53  1  0
 54 55  1  0
 56 58  1  0
 56 55  1  0
 57 68  2  0
 58 63  1  0
 59 69  1  0
 59 67  1  0
 60 66  1  0
 60 62  1  0
 61 67  1  0
 62 61  1  0
 63 62  2  0
 64 65  1  0
 64 58  2  0
 65 60  2  0
 66 59  1  0
 67 57  1  0
 69 71  2  0
 70 69  1  0
 72 70  1  0
 73 82  2  0
 73 78  1  0
 74 70  1  0
 74 78  1  0
 75 74  1  0
 76 77  1  0
 76 75  1  0
 77 73  1  0
 78 79  2  0
 79 80  1  0
 81 80  2  0
 82 81  1  0
 83 57  1  0
 83 84  1  0
 83 93  1  0
 84 87  1  0
 85 84  1  0
 85 89  1  0
 86 85  2  0
 89 88  1  0
 89 91  1  0
 91 92  1  0
 91 90  1  0
 93 94  1  1
 93 96  1  0
 95 93  1  0
M  ISO  4   9 100  17 100  55 101  56 101
M  END
>  <TORSDO>  (49) 
F 24

>  <SCORE>  (49) 
-6.429

>  <name>  (49) 
49

>  <ligand_id>  (49) 
49

>  <original_smiles>  (49) 
[H]c1c([H])c([H])c2c(c1[H])C([H])([H])C([H])([H])C([H])([H])C2([H])N([H])C(=O)C1([H])N(C(=O)C([H])(N([H])C(=O)C([H])(N([H])C([H])([H])[H])C([H])([H])[H])C(C([H])([H])[H])(C([H])([H])[H])C([H])([H])[H])C([H])([H])c2c([H])c(OC([H])([H])C([H])([H])C([H])([H])C([H])([H])[N+]([H])(C([H])([H])[H])C([H])([H])c3c([H])c([H])c([H])c(C([H])([H])N(C(=O)N4C([H])([H])C([H])([H])C([H])([H])C([H])(n5nc(-c6c([H])c([H])c(Oc7c([H])c([H])c(F)c([H])c7F)c([H])c6[H])c(C(=O)N([H])[H])c5N([H])[H])C4([H])[H])C4([H])C([H])([H])C4([H])[H])c3[H])c([H])c([H])c2C1([H])[H]

>  <smiles>  (49) 
[H]c1c([H])c([H])c2c(c1[H])C([H])([H])C([H])([H])C([H])([H])C2([H])N([H])C(=O)C1([H])N(C(=O)C([H])(N([H])C(=O)C([H])(N([H])C([H])([H])[H])C([H])([H])[H])C(C([H])([H])[H])(C([H])([H])[H])C([H])([H])[H])C([H])([H])c2c([H])c(OC([H])([H])C([H])([H])C([H])([H])C([H])([H])[N+]([H])(C([H])([H])[H])C([H])([H])c3c([H])c([H])c([H])c(C([H])([H])N(C(=O)N4C([H])([H])C([H])([H])C([H])([H])C([H])(n5nc(-c6c([H])c([H])c(Oc7c([H])c([H])c(F)c([H])c7F)c([H])c6[H])c(C(=O)N([H])[H])c5N([H])[H])C4([H])[H])C4([H])C([H])([H])C4([H])[H])c3[H])c([H])c([H])c2C1([H])[H]

$$$$
50:0:0
     RDKit          3D

 92100  0  0  1  0  0  0  0  0999 V2000
  -28.8460  -21.4950   20.3470 N   0  0  0  0  0  0  0  0  0  0  0  0
  -30.5420  -19.5900   19.9800 C   0  0  0  0  0  3  0  0  0  0  0  0
  -30.8760  -18.1850   19.9930 C   0  0  0  0  0  3  0  0  0  0  0  0
  -28.3080  -19.0630   20.6380 C   0  0  0  0  0  3  0  0  0  0  0  0
  -29.2420  -20.0910   20.3120 C   0  0  0  0  0  0  0  0  0  0  0  0
  -29.9170  -17.1920   20.3470 C   0  0  0  0  0  0  0  0  0  0  0  0
  -28.6330  -17.6830   20.6650 C   0  0  0  0  0  0  0  0  0  0  0  0
  -27.6750  -16.7890   21.0080 F   0  0  0  0  0  0  0  0  0  0  0  0
  -30.8430  -14.7530   19.9110 C   0  0  0  0  0  0  0  0  0  0  0  0
  -30.6080  -12.5280   18.8050 C   0  0  0  0  0  2  0  0  0  0  0  0
  -29.5970  -12.6720   17.6450 C   0  0  0  0  0  2  0  0  0  0  0  0
  -28.1460  -12.5100   18.1440 C   0  0  0  0  0  2  0  0  0  0  0  0
  -27.8560  -13.3500   19.4160 C   0  0  0  0  0  3  0  0  0  0  0  0
  -28.9670  -13.1480   20.4720 C   0  0  0  0  0  2  0  0  0  0  0  0
  -30.2500  -13.5160   19.8430 N   0  0  0  0  0  0  0  0  0  0  0  0
  -31.9600  -14.9620   19.4290 O   0  0  0  0  0  0  0  0  0  0  0  0
  -30.0520  -15.7340   20.4470 N   0  0  0  0  0  0  0  0  0  0  0  0
  -29.2350  -15.3290   20.8790 H   0  0  0  0  0  0  0  0  0  0  0  0
  -25.4970  -13.9570   20.2430 C   0  0  0  0  0  0  0  0  0  0  0  0
  -24.4440  -13.1880   20.6530 C   0  0  0  0  0  0  0  0  0  0  0  0
  -24.8950  -11.8350   20.5870 C   0  0  0  0  0  0  0  0  0  0  0  0
  -26.5280  -13.0730   19.9590 N   0  0  0  0  0  0  0  0  0  0  0  0
  -26.1700  -11.7910   20.2220 N   0  0  0  0  0  0  0  0  0  0  0  0
  -24.1690  -10.5760   20.7970 C   0  0  0  0  0  0  0  0  0  0  0  0
  -24.5790   -9.6420   21.7740 C   0  0  0  0  0  3  0  0  0  0  0  0
  -23.8530   -8.4470   21.9690 C   0  0  0  0  0  3  0  0  0  0  0  0
  -22.7030   -8.1800   21.1890 C   0  0  0  0  0  0  0  0  0  0  0  0
  -22.3130   -9.1030   20.2040 C   0  0  0  0  0  3  0  0  0  0  0  0
  -23.0390  -10.2900   20.0060 C   0  0  0  0  0  3  0  0  0  0  0  0
  -21.9520   -7.0330   21.2900 O   0  0  0  0  0  0  0  0  0  0  0  0
  -21.7960   -6.3800   22.4860 C   0  0  0  0  0  0  0  0  0  0  0  0
  -21.2460   -7.0190   23.6180 C   0  0  0  0  0  3  0  0  0  0  0  0
  -21.0370   -6.2900   24.8060 C   0  0  0  0  0  3  0  0  0  0  0  0
  -21.3680   -4.9240   24.8630 C   0  0  0  0  0  0  0  0  0  0  0  0
  -21.9110   -4.2840   23.7350 C   0  0  0  0  0  3  0  0  0  0  0  0
  -22.1220   -5.0100   22.5490 C   0  0  0  0  0  0  0  0  0  0  0  0
  -22.6250   -4.3830   21.4580 F   0  0  0  0  0  0  0  0  0  0  0  0
  -21.1620   -4.2210   26.0010 F   0  0  0  0  0  0  0  0  0  0  0  0
  -23.0650  -13.6730   20.9990 C   0  0  0  0  0  0  0  0  0  0  0  0
  -22.3830  -12.9840   21.9070 N   0  0  0  0  0  0  0  0  0  0  0  0
  -22.6040  -14.7000   20.5020 O   0  0  0  0  0  0  0  0  0  0  0  0
  -22.7700  -12.1540   22.3320 H   0  0  0  0  0  0  0  0  0  0  0  0
  -21.4610  -13.2910   22.1820 H   0  0  0  0  0  0  0  0  0  0  0  0
  -25.6570  -15.3280   20.0750 N   0  0  0  0  0  0  0  0  0  0  0  0
  -24.9150  -15.9810   20.2980 H   0  0  0  0  0  0  0  0  0  0  0  0
  -26.5460  -15.7840   19.9170 H   0  0  0  0  0  0  0  0  0  0  0  0
  -28.9330  -22.2590   22.7210 C   0  0  0  0  0  1  0  0  0  0  0  0
  -28.0530  -21.9110   21.5120 C   0  0  0  0  0  2  0  0  0  0  0  0
  -29.6030  -22.6260   19.7170 C   0  0  0  0  0  2  0  0  0  0  0  0
  -28.8130  -23.9530   19.2460 C   0  0  0  0  0  2  0  0  0  0  0  0
  -28.5140  -25.1800   20.2240 C   0  0  0  0  0  2  0  0  0  0  0  0
  -28.5120  -26.5630   19.6870 O   0  0  0  0  0  0  0  0  0  0  0  0
  -24.6500  -31.6730   23.0310 C   0  0  0  0  0  0  0  0  0  0  0  0
  -27.3470  -27.3350   19.7550 C   0  0  0  0  0  0  0  0  0  0  0  0
  -23.4560  -30.3070   21.3520 C   0  0  0  0  0  3  0  0  0  0  0  0
  -24.9260  -28.8530   19.8450 C   0  0  0  0  0  0  0  0  0  0  0  0
  -25.9770  -30.7150   21.1360 C   0  0  0  0  0  2  0  0  0  0  0  0
  -26.0880  -29.3660   20.4350 C   0  0  0  0  0  0  0  0  0  0  0  0
  -27.3030  -28.6220   20.3730 C   0  0  0  0  0  3  0  0  0  0  0  0
  -26.1610  -26.8600   19.1580 C   0  0  0  0  0  3  0  0  0  0  0  0
  -24.9630  -27.6050   19.1970 C   0  0  0  0  0  3  0  0  0  0  0  0
  -23.6650  -29.6870   19.9450 C   0  0  0  0  0  2  0  0  0  0  0  0
  -24.7130  -30.9150   21.8970 N   0  0  0  0  0  0  0  0  0  0  0  0
  -23.5690  -31.8960   23.5960 O   0  0  0  0  0  0  0  0  0  0  0  0
  -22.8410  -29.2350   22.2840 C   0  0  0  0  0  0  0  0  0  0  0  0
  -21.5180  -29.0250   22.1740 N   0  0  0  0  0  0  0  0  0  0  0  0
  -23.5520  -28.5960   23.0640 O   0  0  0  0  0  0  0  0  0  0  0  0
  -21.0010  -29.5960   21.5190 H   0  0  0  0  0  0  0  0  0  0  0  0
  -18.1850  -27.7210   22.6840 C   0  0  0  0  0  0  0  0  0  0  0  0
  -20.7390  -28.0360   22.9190 C   0  0  0  0  0  3  0  0  0  0  0  0
  -20.8670  -26.6330   22.2810 C   0  0  0  0  0  2  0  0  0  0  0  0
  -19.7560  -26.3260   21.2740 C   0  0  0  0  0  2  0  0  0  0  0  0
  -18.3830  -26.4070   21.9480 C   0  0  0  0  0  2  0  0  0  0  0  0
  -19.2910  -28.4930   23.1260 C   0  0  0  0  0  0  0  0  0  0  0  0
  -19.0510  -29.7230   23.7750 C   0  0  0  0  0  3  0  0  0  0  0  0
  -17.7380  -30.1830   23.9860 C   0  0  0  0  0  3  0  0  0  0  0  0
  -16.6450  -29.4070   23.5610 C   0  0  0  0  0  3  0  0  0  0  0  0
  -16.8700  -28.1780   22.9150 C   0  0  0  0  0  3  0  0  0  0  0  0
  -25.9260  -32.3170   23.6560 C   0  0  0  0  0  3  0  0  0  0  0  0
  -25.5770  -33.6840   24.0710 N   0  0  0  0  0  0  0  0  0  0  0  0
  -25.8570  -34.7880   23.3650 C   0  0  0  0  0  0  0  0  0  0  0  0
  -26.5050  -34.7640   22.3150 O   0  0  0  0  0  0  0  0  0  0  0  0
  -24.9980  -33.7730   24.8920 H   0  0  0  0  0  0  0  0  0  0  0  0
  -24.0640  -36.5370   23.1500 C   0  0  0  0  0  1  0  0  0  0  0  0
  -25.3360  -36.1320   23.9100 C   0  0  0  0  0  3  0  0  0  0  0  0
  -27.4590  -37.0430   24.7420 C   0  0  0  0  0  1  0  0  0  0  0  0
  -26.3310  -37.2240   23.8330 N   0  0  0  0  0  0  0  0  0  0  0  0
  -25.8980  -38.1200   24.0390 H   0  0  0  0  0  0  0  0  0  0  0  0
  -26.5000  -31.4980   24.8770 C   0  0  1  0  0  0  0  0  0  0  0  0
  -25.4440  -31.1680   25.9580 C   0  0  0  0  0  1  0  0  0  0  0  0
  -27.1160  -30.1640   24.3980 C   0  0  0  0  0  1  0  0  0  0  0  0
  -27.6400  -32.2950   25.5530 C   0  0  0  0  0  1  0  0  0  0  0  0
  1 48  1  0
  2  3  2  0
  2  5  1  0
  3  6  1  0
  4  7  1  0
  5  1  1  0
  5  4  2  0
  6 17  1  0
  6  7  2  0
  7  8  1  0
  9 17  1  0
 10 15  1  0
 11 12  1  0
 11 10  1  0
 13 12  1  0
 13 22  1  0
 13 14  1  0
 15  9  1  0
 15 14  1  0
 16  9  2  0
 17 18  1  0
 19 20  2  0
 20 39  1  0
 21 20  1  0
 21 24  1  0
 22 23  1  0
 22 19  1  0
 23 21  2  0
 24 25  1  0
 25 26  2  0
 27 30  1  0
 27 26  1  0
 28 27  2  0
 29 28  1  0
 29 24  2  0
 30 31  1  0
 31 36  2  0
 31 32  1  0
 32 33  2  0
 33 34  1  0
 34 38  1  0
 35 34  2  0
 36 35  1  0
 37 36  1  0
 39 40  1  0
 40 43  1  0
 40 42  1  0
 41 39  2  0
 44 19  1  0
 44 45  1  0
 46 44  1  0
 48 47  1  0
 49  1  1  0
 50 49  1  0
 50 51  1  0
 52 54  1  0
 52 51  1  0
 53 64  2  0
 54 59  1  0
 55 63  1  0
 55 65  1  0
 56 62  1  0
 56 58  1  0
 57 63  1  0
 58 57  1  0
 59 58  2  0
 60 61  1  0
 60 54  2  0
 61 56  2  0
 62 55  1  0
 63 53  1  0
 65 67  2  0
 66 65  1  0
 68 66  1  0
 69 78  2  0
 69 74  1  0
 70 66  1  0
 70 74  1  0
 71 70  1  0
 72 73  1  0
 72 71  1  0
 73 69  1  0
 74 75  2  0
 75 76  1  0
 77 76  2  0
 78 77  1  0
 79 53  1  0
 79 80  1  0
 79 89  1  0
 80 83  1  0
 81 85  1  0
 81 80  1  0
 82 81  2  0
 85 84  1  0
 87 85  1  0
 87 88  1  0
 87 86  1  0
 89 92  1  1
 89 90  1  0
 91 89  1  0
M  ISO  4   9 100  17 100  51 101  52 101
M  END
>  <TORSDO>  (50) 
F 21

>  <SCORE>  (50) 
-12.464

>  <name>  (50) 
50

>  <ligand_id>  (50) 
50

>  <original_smiles>  (50) 
[H]c1c([H])c([H])c2c(c1[H])C([H])([H])C([H])([H])C([H])([H])C2([H])N([H])C(=O)C1([H])N(C(=O)C([H])(N([H])C(=O)C([H])(N([H])C([H])([H])[H])C([H])([H])[H])C(C([H])([H])[H])(C([H])([H])[H])C([H])([H])[H])C([H])([H])c2c([H])c(OC([H])([H])C([H])([H])C([H])([H])N(c3c([H])c([H])c(N([H])C(=O)N4C([H])([H])C([H])([H])C([H])([H])C([H])(n5nc(-c6c([H])c([H])c(Oc7c([H])c([H])c(F)c([H])c7F)c([H])c6[H])c(C(=O)N([H])[H])c5N([H])[H])C4([H])[H])c(F)c3[H])C([H])([H])C([H])([H])[H])c([H])c([H])c2C1([H])[H]

>  <smiles>  (50) 
[H]c1c([H])c([H])c2c(c1[H])C([H])([H])C([H])([H])C([H])([H])C2([H])N([H])C(=O)C1([H])N(C(=O)C([H])(N([H])C(=O)C([H])(N([H])C([H])([H])[H])C([H])([H])[H])C(C([H])([H])[H])(C([H])([H])[H])C([H])([H])[H])C([H])([H])c2c([H])c(OC([H])([H])C([H])([H])C([H])([H])N(c3c([H])c([H])c(N([H])C(=O)N4C([H])([H])C([H])([H])C([H])([H])C([H])(n5nc(-c6c([H])c([H])c(Oc7c([H])c([H])c(F)c([H])c7F)c([H])c6[H])c(C(=O)N([H])[H])c5N([H])[H])C4([H])[H])c(F)c3[H])C([H])([H])C([H])([H])[H])c([H])c([H])c2C1([H])[H]

$$$$
51:0:0
     RDKit          3D

 91 99  0  0  1  0  0  0  0  0999 V2000
  -28.1370  -22.3490   22.5800 C   0  0  0  0  0  1  0  0  0  0  0  0
  -29.0540  -22.2430   21.4440 N   0  0  0  0  0  0  0  0  0  0  0  0
  -30.6790  -18.9020   21.9470 C   0  0  0  0  0  3  0  0  0  0  0  0
  -29.8280  -18.9990   19.6790 C   0  0  0  0  0  3  0  0  0  0  0  0
  -30.1830  -20.2010   22.1870 C   0  0  0  0  0  3  0  0  0  0  0  0
  -29.3550  -20.3090   19.9130 C   0  0  0  0  0  3  0  0  0  0  0  0
  -30.4990  -18.2780   20.6950 C   0  0  0  0  0  0  0  0  0  0  0  0
  -29.5190  -20.9340   21.1740 C   0  0  0  0  0  0  0  0  0  0  0  0
  -31.1680  -16.9330   20.3840 C   0  0  0  0  0  2  0  0  0  0  0  0
  -30.8420  -14.5460   19.9580 C   0  0  0  0  0  0  0  0  0  0  0  0
  -30.3640  -12.3860   18.8480 C   0  0  0  0  0  2  0  0  0  0  0  0
  -29.3640  -12.5690   17.6880 C   0  0  0  0  0  2  0  0  0  0  0  0
  -27.9250  -12.3920   18.2000 C   0  0  0  0  0  2  0  0  0  0  0  0
  -27.6530  -13.2570   19.4570 C   0  0  0  0  0  3  0  0  0  0  0  0
  -28.7720  -13.0880   20.5060 C   0  0  0  0  0  2  0  0  0  0  0  0
  -30.0690  -13.4120   19.8750 N   0  0  0  0  0  0  0  0  0  0  0  0
  -31.8670  -14.6330   19.2680 O   0  0  0  0  0  0  0  0  0  0  0  0
  -29.8750  -15.5920   22.0130 C   0  0  0  0  0  1  0  0  0  0  0  0
  -30.4420  -15.6540   20.6600 N   0  0  0  0  0  0  0  0  0  0  0  0
  -25.3240  -13.8590   20.3650 C   0  0  0  0  0  0  0  0  0  0  0  0
  -24.2840  -13.0830   20.7990 C   0  0  0  0  0  0  0  0  0  0  0  0
  -24.7340  -11.7310   20.7070 C   0  0  0  0  0  0  0  0  0  0  0  0
  -26.3400  -12.9770   20.0310 N   0  0  0  0  0  0  0  0  0  0  0  0
  -25.9950  -11.6910   20.2940 N   0  0  0  0  0  0  0  0  0  0  0  0
  -24.0200  -10.4680   20.9300 C   0  0  0  0  0  0  0  0  0  0  0  0
  -24.4760   -9.5190   21.8700 C   0  0  0  0  0  3  0  0  0  0  0  0
  -23.7610   -8.3220   22.0820 C   0  0  0  0  0  3  0  0  0  0  0  0
  -22.5760   -8.0650   21.3530 C   0  0  0  0  0  0  0  0  0  0  0  0
  -22.1380   -9.0050   20.4030 C   0  0  0  0  0  3  0  0  0  0  0  0
  -22.8530  -10.1940   20.1910 C   0  0  0  0  0  3  0  0  0  0  0  0
  -21.8320   -6.9150   21.4700 O   0  0  0  0  0  0  0  0  0  0  0  0
  -21.7440   -6.2320   22.6560 C   0  0  0  0  0  0  0  0  0  0  0  0
  -21.2720   -6.8450   23.8380 C   0  0  0  0  0  3  0  0  0  0  0  0
  -21.1330   -6.0870   25.0160 C   0  0  0  0  0  3  0  0  0  0  0  0
  -21.4570   -4.7180   25.0170 C   0  0  0  0  0  0  0  0  0  0  0  0
  -21.9230   -4.1040   23.8400 C   0  0  0  0  0  3  0  0  0  0  0  0
  -22.0640   -4.8600   22.6640 C   0  0  0  0  0  0  0  0  0  0  0  0
  -22.4940   -4.2590   21.5270 F   0  0  0  0  0  0  0  0  0  0  0  0
  -21.3160   -3.9870   26.1470 F   0  0  0  0  0  0  0  0  0  0  0  0
  -22.9170  -13.5640   21.1920 C   0  0  0  0  0  0  0  0  0  0  0  0
  -22.2650  -12.8700   22.1190 N   0  0  0  0  0  0  0  0  0  0  0  0
  -22.4370  -14.5890   20.7100 O   0  0  0  0  0  0  0  0  0  0  0  0
  -22.6650  -12.0410   22.5300 H   0  0  0  0  0  0  0  0  0  0  0  0
  -21.3520  -13.1760   22.4220 H   0  0  0  0  0  0  0  0  0  0  0  0
  -25.4800  -15.2320   20.2090 N   0  0  0  0  0  0  0  0  0  0  0  0
  -24.7280  -15.8830   20.4090 H   0  0  0  0  0  0  0  0  0  0  0  0
  -26.3240  -15.6890   19.8850 H   0  0  0  0  0  0  0  0  0  0  0  0
  -28.9170  -23.1870   20.3270 C   0  0  0  0  0  2  0  0  0  0  0  0
  -28.7330  -24.6650   20.7560 C   0  0  0  0  0  2  0  0  0  0  0  0
  -28.6730  -25.6020   19.5350 C   0  0  0  0  0  2  0  0  0  0  0  0
  -28.5220  -26.9680   19.9240 O   0  0  0  0  0  0  0  0  0  0  0  0
  -24.6430  -31.9220   23.1970 C   0  0  0  0  0  0  0  0  0  0  0  0
  -27.2880  -27.5890   19.9660 C   0  0  0  0  0  0  0  0  0  0  0  0
  -23.4100  -30.5260   21.5620 C   0  0  0  0  0  3  0  0  0  0  0  0
  -24.8530  -29.0380   20.0760 C   0  0  0  0  0  0  0  0  0  0  0  0
  -25.9230  -30.9390   21.3000 C   0  0  0  0  0  2  0  0  0  0  0  0
  -26.0160  -29.5800   20.6330 C   0  0  0  0  0  0  0  0  0  0  0  0
  -27.2310  -28.8660   20.5710 C   0  0  0  0  0  3  0  0  0  0  0  0
  -26.0990  -27.0480   19.4210 C   0  0  0  0  0  3  0  0  0  0  0  0
  -24.8890  -27.7710   19.4700 C   0  0  0  0  0  3  0  0  0  0  0  0
  -23.5950  -29.8710   20.1650 C   0  0  0  0  0  2  0  0  0  0  0  0
  -24.6770  -31.1470   22.0760 N   0  0  0  0  0  0  0  0  0  0  0  0
  -23.5730  -32.1610   23.7750 O   0  0  0  0  0  0  0  0  0  0  0  0
  -22.8050  -29.4770   22.5230 C   0  0  0  0  0  0  0  0  0  0  0  0
  -21.4880  -29.2440   22.4020 N   0  0  0  0  0  0  0  0  0  0  0  0
  -23.5150  -28.8730   23.3320 O   0  0  0  0  0  0  0  0  0  0  0  0
  -20.9740  -29.7750   21.7130 H   0  0  0  0  0  0  0  0  0  0  0  0
  -18.1710  -27.8950   22.8690 C   0  0  0  0  0  0  0  0  0  0  0  0
  -20.7090  -28.2750   23.1730 C   0  0  0  0  0  3  0  0  0  0  0  0
  -20.8890  -26.8480   22.6060 C   0  0  0  0  0  2  0  0  0  0  0  0
  -19.8190  -26.4650   21.5810 C   0  0  0  0  0  2  0  0  0  0  0  0
  -18.4240  -26.5500   22.2070 C   0  0  0  0  0  2  0  0  0  0  0  0
  -19.2450  -28.7120   23.3060 C   0  0  0  0  0  0  0  0  0  0  0  0
  -18.9600  -29.9710   23.8790 C   0  0  0  0  0  3  0  0  0  0  0  0
  -17.6310  -30.4110   24.0260 C   0  0  0  0  0  3  0  0  0  0  0  0
  -16.5700  -29.5920   23.6050 C   0  0  0  0  0  3  0  0  0  0  0  0
  -16.8400  -28.3350   23.0330 C   0  0  0  0  0  3  0  0  0  0  0  0
  -25.9380  -32.5580   23.7930 C   0  0  0  0  0  3  0  0  0  0  0  0
  -25.6320  -33.9540   24.1340 N   0  0  0  0  0  0  0  0  0  0  0  0
  -25.9370  -35.0090   23.3650 C   0  0  0  0  0  0  0  0  0  0  0  0
  -26.5810  -34.9120   22.3170 O   0  0  0  0  0  0  0  0  0  0  0  0
  -25.0620  -34.1050   24.9540 H   0  0  0  0  0  0  0  0  0  0  0  0
  -24.1780  -36.7740   23.0510 C   0  0  0  0  0  1  0  0  0  0  0  0
  -25.4440  -36.3910   23.8340 C   0  0  0  0  0  3  0  0  0  0  0  0
  -27.5860  -37.2930   24.6210 C   0  0  0  0  0  1  0  0  0  0  0  0
  -26.4630  -37.4550   23.7010 N   0  0  0  0  0  0  0  0  0  0  0  0
  -26.0510  -38.3700   23.8610 H   0  0  0  0  0  0  0  0  0  0  0  0
  -26.4920  -31.7840   25.0540 C   0  0  1  0  0  0  0  0  0  0  0  0
  -25.4220  -31.5090   26.1340 C   0  0  0  0  0  1  0  0  0  0  0  0
  -27.0960  -30.4250   24.6360 C   0  0  0  0  0  1  0  0  0  0  0  0
  -27.6370  -32.5920   25.7100 C   0  0  0  0  0  1  0  0  0  0  0  0
  2  1  1  0
  3  5  1  0
  4  6  2  0
  4  7  1  0
  6  8  1  0
  7  3  2  0
  8  2  1  0
  8  5  2  0
  9 19  1  0
  9  7  1  0
 10 19  1  0
 11 16  1  0
 12 13  1  0
 12 11  1  0
 14 13  1  0
 14 23  1  0
 14 15  1  0
 16 10  1  0
 16 15  1  0
 17 10  2  0
 19 18  1  0
 20 21  2  0
 21 40  1  0
 22 21  1  0
 22 25  1  0
 23 24  1  0
 23 20  1  0
 24 22  2  0
 25 26  1  0
 26 27  2  0
 28 31  1  0
 28 27  1  0
 29 28  2  0
 30 29  1  0
 30 25  2  0
 31 32  1  0
 32 37  2  0
 32 33  1  0
 33 34  2  0
 34 35  1  0
 35 39  1  0
 36 35  2  0
 37 36  1  0
 38 37  1  0
 40 41  1  0
 41 44  1  0
 41 43  1  0
 42 40  2  0
 45 20  1  0
 45 46  1  0
 47 45  1  0
 48 49  1  0
 48  2  1  0
 50 51  1  0
 50 49  1  0
 51 53  1  0
 52 63  2  0
 53 58  1  0
 54 62  1  0
 54 64  1  0
 55 61  1  0
 55 57  1  0
 56 62  1  0
 57 56  1  0
 58 57  2  0
 59 60  1  0
 59 53  2  0
 60 55  2  0
 61 54  1  0
 62 52  1  0
 64 66  2  0
 65 64  1  0
 67 65  1  0
 68 77  2  0
 68 73  1  0
 69 65  1  0
 69 73  1  0
 70 69  1  0
 71 72  1  0
 71 70  1  0
 72 68  1  0
 73 74  2  0
 74 75  1  0
 76 75  2  0
 77 76  1  0
 78 52  1  0
 78 79  1  0
 78 88  1  0
 79 82  1  0
 80 84  1  0
 80 79  1  0
 81 80  2  0
 84 83  1  0
 86 84  1  0
 86 87  1  0
 86 85  1  0
 88 91  1  1
 88 89  1  0
 90 88  1  0
M  ISO  4  10 100  19 100  50 101  51 101
M  END
>  <TORSDO>  (51) 
F 21

>  <SCORE>  (51) 
-11.894

>  <name>  (51) 
51

>  <ligand_id>  (51) 
51

>  <original_smiles>  (51) 
[H]c1c([H])c([H])c2c(c1[H])C([H])([H])C([H])([H])C([H])([H])C2([H])N([H])C(=O)C1([H])N(C(=O)C([H])(N([H])C(=O)C([H])(N([H])C([H])([H])[H])C([H])([H])[H])C(C([H])([H])[H])(C([H])([H])[H])C([H])([H])[H])C([H])([H])c2c([H])c(OC([H])([H])C([H])([H])C([H])([H])N(c3c([H])c([H])c(C([H])([H])N(C(=O)N4C([H])([H])C([H])([H])C([H])([H])C([H])(n5nc(-c6c([H])c([H])c(Oc7c([H])c([H])c(F)c([H])c7F)c([H])c6[H])c(C(=O)N([H])[H])c5N([H])[H])C4([H])[H])C([H])([H])[H])c([H])c3[H])C([H])([H])[H])c([H])c([H])c2C1([H])[H]

>  <smiles>  (51) 
[H]c1c([H])c([H])c2c(c1[H])C([H])([H])C([H])([H])C([H])([H])C2([H])N([H])C(=O)C1([H])N(C(=O)C([H])(N([H])C(=O)C([H])(N([H])C([H])([H])[H])C([H])([H])[H])C(C([H])([H])[H])(C([H])([H])[H])C([H])([H])[H])C([H])([H])c2c([H])c(OC([H])([H])C([H])([H])C([H])([H])N(c3c([H])c([H])c(C([H])([H])N(C(=O)N4C([H])([H])C([H])([H])C([H])([H])C([H])(n5nc(-c6c([H])c([H])c(Oc7c([H])c([H])c(F)c([H])c7F)c([H])c6[H])c(C(=O)N([H])[H])c5N([H])[H])C4([H])[H])C([H])([H])[H])c([H])c3[H])C([H])([H])[H])c([H])c([H])c2C1([H])[H]

$$$$
52:0:0
     RDKit          3D

 96105  0  0  1  0  0  0  0  0999 V2000
  -30.3810  -23.5840   19.6970 C   0  0  0  0  0  0  0  0  0  0  0  0
  -30.3260  -24.9220   19.5400 C   0  0  0  0  0  3  0  0  0  0  0  0
  -30.0470  -22.4300   18.8020 C   0  0  0  0  0  2  0  0  0  0  0  0
  -30.7580  -22.6680   20.8230 C   0  0  0  0  0  2  0  0  0  0  0  0
  -30.2870  -21.5530   19.9710 N   0  0  1  0  0  4  0  0  0  0  0  0
  -31.0430  -20.9250   19.7520 H   0  0  0  0  0  0  0  0  0  0  0  0
  -32.0180  -26.5040   20.5480 C   0  0  0  0  0  1  0  0  0  0  0  0
  -30.5890  -25.9560   20.6270 C   0  0  0  0  0  3  0  0  0  0  0  0
  -29.5680  -27.1180   20.5880 C   0  0  0  0  0  2  0  0  0  0  0  0
  -28.3130  -26.6270   20.1450 O   0  0  0  0  0  0  0  0  0  0  0  0
  -24.5840  -31.8990   23.2080 C   0  0  0  0  0  0  0  0  0  0  0  0
  -27.2080  -27.4430   20.1750 C   0  0  0  0  0  0  0  0  0  0  0  0
  -23.3640  -30.4850   21.5860 C   0  0  0  0  0  3  0  0  0  0  0  0
  -24.8080  -28.9330   20.1700 C   0  0  0  0  0  0  0  0  0  0  0  0
  -25.8830  -30.8500   21.3610 C   0  0  0  0  0  2  0  0  0  0  0  0
  -25.9660  -29.4710   20.7440 C   0  0  0  0  0  0  0  0  0  0  0  0
  -27.1700  -28.7370   20.7470 C   0  0  0  0  0  3  0  0  0  0  0  0
  -26.0340  -26.9150   19.6000 C   0  0  0  0  0  3  0  0  0  0  0  0
  -24.8350  -27.6510   19.5920 C   0  0  0  0  0  3  0  0  0  0  0  0
  -23.5630  -29.7900   20.2110 C   0  0  0  0  0  2  0  0  0  0  0  0
  -24.6290  -31.0910   22.1110 N   0  0  0  0  0  0  0  0  0  0  0  0
  -23.5060  -32.1790   23.7520 O   0  0  0  0  0  0  0  0  0  0  0  0
  -22.7190  -29.4740   22.5590 C   0  0  0  0  0  0  0  0  0  0  0  0
  -21.3930  -29.2970   22.4430 N   0  0  0  0  0  0  0  0  0  0  0  0
  -23.4050  -28.8500   23.3730 O   0  0  0  0  0  0  0  0  0  0  0  0
  -20.9010  -29.8550   21.7580 H   0  0  0  0  0  0  0  0  0  0  0  0
  -18.0140  -28.1350   22.9700 C   0  0  0  0  0  0  0  0  0  0  0  0
  -20.5750  -28.3720   23.2260 C   0  0  0  0  0  3  0  0  0  0  0  0
  -20.6620  -26.9360   22.6610 C   0  0  0  0  0  2  0  0  0  0  0  0
  -19.5520  -26.6150   21.6550 C   0  0  0  0  0  2  0  0  0  0  0  0
  -18.1750  -26.7790   22.3050 C   0  0  0  0  0  2  0  0  0  0  0  0
  -19.1420  -28.8900   23.3880 C   0  0  0  0  0  0  0  0  0  0  0  0
  -18.9380  -30.1610   23.9680 C   0  0  0  0  0  3  0  0  0  0  0  0
  -17.6400  -30.6770   24.1350 C   0  0  0  0  0  3  0  0  0  0  0  0
  -16.5260  -29.9180   23.7350 C   0  0  0  0  0  3  0  0  0  0  0  0
  -16.7130  -28.6500   23.1580 C   0  0  0  0  0  3  0  0  0  0  0  0
  -25.8780  -32.5290   23.8140 C   0  0  0  0  0  3  0  0  0  0  0  0
  -26.4190  -31.7480   25.0740 C   0  0  1  0  0  0  0  0  0  0  0  0
  -25.3460  -31.4940   26.1570 C   0  0  0  0  0  1  0  0  0  0  0  0
  -27.0020  -30.3780   24.6540 C   0  0  0  0  0  1  0  0  0  0  0  0
  -27.5790  -32.5420   25.7230 C   0  0  0  0  0  1  0  0  0  0  0  0
  -25.5700  -33.9240   24.1560 N   0  0  0  0  0  0  0  0  0  0  0  0
  -25.8830  -34.9790   23.3920 C   0  0  0  0  0  0  0  0  0  0  0  0
  -26.5330  -34.8820   22.3490 O   0  0  0  0  0  0  0  0  0  0  0  0
  -24.9900  -34.0760   24.9670 H   0  0  0  0  0  0  0  0  0  0  0  0
  -24.1340  -36.7590   23.0770 C   0  0  0  0  0  1  0  0  0  0  0  0
  -25.3960  -36.3640   23.8590 C   0  0  0  0  0  3  0  0  0  0  0  0
  -27.5450  -37.2600   24.6370 C   0  0  0  0  0  1  0  0  0  0  0  0
  -26.4180  -37.4240   23.7230 N   0  0  0  0  0  0  0  0  0  0  0  0
  -26.0100  -38.3410   23.8830 H   0  0  0  0  0  0  0  0  0  0  0  0
  -29.1380  -20.7700   20.4990 C   0  0  0  0  0  2  0  0  0  0  0  0
  -30.6010  -18.8880   21.4930 C   0  0  0  0  0  3  0  0  0  0  0  0
  -30.9130  -17.5160   21.6440 C   0  0  0  0  0  3  0  0  0  0  0  0
  -28.6810  -18.3020   20.1330 C   0  0  0  0  0  3  0  0  0  0  0  0
  -29.4940  -19.2960   20.7120 C   0  0  0  0  0  0  0  0  0  0  0  0
  -30.1220  -16.5120   21.0240 C   0  0  0  0  0  0  0  0  0  0  0  0
  -28.9880  -16.9410   20.2940 C   0  0  0  0  0  0  0  0  0  0  0  0
  -28.1570  -16.0460   19.7430 F   0  0  0  0  0  0  0  0  0  0  0  0
  -30.6430  -14.3870   20.0010 C   0  0  0  0  0  0  0  0  0  0  0  0
  -30.1070  -12.3600   18.6900 C   0  0  0  0  0  2  0  0  0  0  0  0
  -29.0490  -12.5920   17.5960 C   0  0  0  0  0  2  0  0  0  0  0  0
  -27.6380  -12.3660   18.1660 C   0  0  0  0  0  2  0  0  0  0  0  0
  -27.4090  -13.2030   19.4390 C   0  0  0  0  0  3  0  0  0  0  0  0
  -28.5600  -13.0290   20.4630 C   0  0  0  0  0  2  0  0  0  0  0  0
  -29.8540  -13.2920   19.8050 N   0  0  0  0  0  0  0  0  0  0  0  0
  -31.5940  -14.6540   19.2620 O   0  0  0  0  0  0  0  0  0  0  0  0
  -31.2400  -14.6660   22.2810 C   0  0  0  0  0  1  0  0  0  0  0  0
  -30.4460  -15.1110   21.1310 N   0  0  0  0  0  0  0  0  0  0  0  0
  -25.1150  -13.8650   20.4040 C   0  0  0  0  0  0  0  0  0  0  0  0
  -24.0630  -13.1070   20.8430 C   0  0  0  0  0  0  0  0  0  0  0  0
  -24.4900  -11.7480   20.7400 C   0  0  0  0  0  0  0  0  0  0  0  0
  -26.1070  -12.9620   20.0460 N   0  0  0  0  0  0  0  0  0  0  0  0
  -25.7450  -11.6860   20.3130 N   0  0  0  0  0  0  0  0  0  0  0  0
  -23.7660  -10.4940   20.9620 C   0  0  0  0  0  0  0  0  0  0  0  0
  -24.2640   -9.5040   21.8370 C   0  0  0  0  0  3  0  0  0  0  0  0
  -23.5440   -8.3080   22.0460 C   0  0  0  0  0  3  0  0  0  0  0  0
  -22.3150   -8.0950   21.3750 C   0  0  0  0  0  0  0  0  0  0  0  0
  -21.8370   -9.0760   20.4890 C   0  0  0  0  0  3  0  0  0  0  0  0
  -22.5570  -10.2630   20.2790 C   0  0  0  0  0  3  0  0  0  0  0  0
  -21.5620   -6.9540   21.4930 O   0  0  0  0  0  0  0  0  0  0  0  0
  -21.5920   -6.1880   22.6310 C   0  0  0  0  0  0  0  0  0  0  0  0
  -21.2830   -6.7270   23.9000 C   0  0  0  0  0  3  0  0  0  0  0  0
  -21.2550   -5.8900   25.0320 C   0  0  0  0  0  3  0  0  0  0  0  0
  -21.5270   -4.5150   24.8990 C   0  0  0  0  0  0  0  0  0  0  0  0
  -21.8310   -3.9750   23.6370 C   0  0  0  0  0  3  0  0  0  0  0  0
  -21.8600   -4.8100   22.5050 C   0  0  0  0  0  0  0  0  0  0  0  0
  -22.1330   -4.2830   21.2880 F   0  0  0  0  0  0  0  0  0  0  0  0
  -21.4920   -3.7090   25.9850 F   0  0  0  0  0  0  0  0  0  0  0  0
  -22.7060  -13.6030   21.2510 C   0  0  0  0  0  0  0  0  0  0  0  0
  -22.0540  -12.9090   22.1760 N   0  0  0  0  0  0  0  0  0  0  0  0
  -22.2350  -14.6380   20.7850 O   0  0  0  0  0  0  0  0  0  0  0  0
  -22.4520  -12.0730   22.5790 H   0  0  0  0  0  0  0  0  0  0  0  0
  -21.1470  -13.2250   22.4920 H   0  0  0  0  0  0  0  0  0  0  0  0
  -25.3020  -15.2350   20.2570 N   0  0  0  0  0  0  0  0  0  0  0  0
  -24.5840  -15.9150   20.4830 H   0  0  0  0  0  0  0  0  0  0  0  0
  -26.1670  -15.6520   19.9340 H   0  0  0  0  0  0  0  0  0  0  0  0
  1  4  1  0
  2  1  2  0
  2  8  1  0
  3  1  1  0
  3  5  1  0
  5 51  1  0
  5  4  1  0
  5  6  1  6
  8  7  1  0
  9  8  1  0
 10 12  1  0
 10  9  1  0
 11 22  2  0
 12 17  1  0
 13 21  1  0
 13 23  1  0
 14 20  1  0
 14 16  1  0
 15 21  1  0
 16 17  2  0
 16 15  1  0
 18 12  2  0
 19 18  1  0
 19 14  2  0
 20 13  1  0
 21 11  1  0
 23 25  2  0
 24 23  1  0
 26 24  1  0
 27 36  2  0
 27 32  1  0
 28 24  1  0
 28 32  1  0
 29 28  1  0
 30 31  1  0
 30 29  1  0
 31 27  1  0
 32 33  2  0
 33 34  1  0
 35 34  2  0
 36 35  1  0
 37 11  1  0
 37 42  1  0
 37 38  1  0
 38 41  1  1
 38 39  1  0
 40 38  1  0
 42 45  1  0
 43 47  1  0
 43 42  1  0
 44 43  2  0
 47 46  1  0
 49 47  1  0
 49 50  1  0
 49 48  1  0
 51 55  1  0
 52 53  1  0
 54 57  2  0
 54 55  1  0
 55 52  2  0
 56 68  1  0
 56 53  2  0
 57 56  1  0
 58 57  1  0
 59 68  1  0
 60 65  1  0
 61 62  1  0
 61 60  1  0
 63 62  1  0
 63 72  1  0
 63 64  1  0
 65 59  1  0
 65 64  1  0
 66 59  2  0
 68 67  1  0
 69 70  2  0
 70 89  1  0
 71 70  1  0
 71 74  1  0
 72 73  1  0
 72 69  1  0
 73 71  2  0
 74 75  1  0
 75 76  2  0
 77 80  1  0
 77 76  1  0
 78 77  2  0
 79 78  1  0
 79 74  2  0
 80 81  1  0
 81 82  1  0
 82 83  2  0
 84 83  1  0
 84 88  1  0
 85 84  2  0
 86 81  2  0
 86 85  1  0
 87 86  1  0
 89 90  1  0
 90 93  1  0
 90 92  1  0
 91 89  2  0
 94 69  1  0
 94 95  1  0
 96 94  1  0
M  ISO  4   9 101  10 101  59 100  68 100
M  END
>  <TORSDO>  (52) 
F 20

>  <SCORE>  (52) 
-13.264

>  <name>  (52) 
52

>  <ligand_id>  (52) 
52

>  <original_smiles>  (52) 
[H]C(=C1C([H])([H])[N+]([H])(C([H])([H])c2c([H])c([H])c(N(C(=O)N3C([H])([H])C([H])([H])C([H])([H])C([H])(n4nc(-c5c([H])c([H])c(Oc6c([H])c([H])c(F)c([H])c6F)c([H])c5[H])c(C(=O)N([H])[H])c4N([H])[H])C3([H])[H])C([H])([H])[H])c(F)c2[H])C1([H])[H])C([H])(C([H])([H])[H])C([H])([H])Oc1c([H])c([H])c2c(c1[H])C([H])([H])N(C(=O)C([H])(N([H])C(=O)C([H])(N([H])C([H])([H])[H])C([H])([H])[H])C(C([H])([H])[H])(C([H])([H])[H])C([H])([H])[H])C([H])(C(=O)N([H])C1([H])c3c([H])c([H])c([H])c([H])c3C([H])([H])C([H])([H])C1([H])[H])C2([H])[H]

>  <smiles>  (52) 
[H]C(=C1C([H])([H])[N+]([H])(C([H])([H])c2c([H])c([H])c(N(C(=O)N3C([H])([H])C([H])([H])C([H])([H])C([H])(n4nc(-c5c([H])c([H])c(Oc6c([H])c([H])c(F)c([H])c6F)c([H])c5[H])c(C(=O)N([H])[H])c4N([H])[H])C3([H])[H])C([H])([H])[H])c(F)c2[H])C1([H])[H])C([H])(C([H])([H])[H])C([H])([H])Oc1c([H])c([H])c2c(c1[H])C([H])([H])N(C(=O)C([H])(N([H])C(=O)C([H])(N([H])C([H])([H])[H])C([H])([H])[H])C(C([H])([H])[H])(C([H])([H])[H])C([H])([H])[H])C([H])(C(=O)N([H])C1([H])c3c([H])c([H])c([H])c([H])c3C([H])([H])C([H])([H])C1([H])[H])C2([H])[H]

$$$$
53:0:0
     RDKit          3D

 92100  0  0  1  0  0  0  0  0999 V2000
  -29.7740  -18.4800   19.8970 C   0  0  0  0  0  3  0  0  0  0  0  0
  -29.9750  -19.8820   19.8590 C   0  0  0  0  0  3  0  0  0  0  0  0
  -30.5030  -19.8620   22.2230 C   0  0  0  0  0  3  0  0  0  0  0  0
  -29.9160  -17.7550   21.1030 C   0  0  0  0  0  0  0  0  0  0  0  0
  -30.3490  -20.5930   21.0230 C   0  0  0  0  0  0  0  0  0  0  0  0
  -30.2750  -18.4690   22.2700 C   0  0  0  0  0  0  0  0  0  0  0  0
  -30.3950  -17.8190   23.4530 F   0  0  0  0  0  0  0  0  0  0  0  0
  -31.9930  -22.3060   21.3920 C   0  0  0  0  0  1  0  0  0  0  0  0
  -30.6160  -21.9850   21.0180 N   0  0  0  0  0  0  0  0  0  0  0  0
  -29.9120  -22.8600   20.0640 C   0  0  0  0  0  2  0  0  0  0  0  0
  -29.8220  -24.3490   20.5210 C   0  0  0  0  0  2  0  0  0  0  0  0
  -28.8560  -25.2090   19.6660 C   0  0  0  0  0  2  0  0  0  0  0  0
  -28.8230  -26.5980   20.0710 O   0  0  0  0  0  0  0  0  0  0  0  0
  -24.7810  -31.5770   23.1850 C   0  0  0  0  0  0  0  0  0  0  0  0
  -27.6260  -27.2980   20.0210 C   0  0  0  0  0  0  0  0  0  0  0  0
  -23.6530  -30.1840   21.4830 C   0  0  0  0  0  3  0  0  0  0  0  0
  -25.1820  -28.7460   20.0320 C   0  0  0  0  0  0  0  0  0  0  0  0
  -26.1700  -30.6290   21.3420 C   0  0  0  0  0  2  0  0  0  0  0  0
  -26.3120  -29.2810   20.6610 C   0  0  0  0  0  0  0  0  0  0  0  0
  -27.5340  -28.5630   20.6550 C   0  0  0  0  0  3  0  0  0  0  0  0
  -26.4750  -26.8010   19.3610 C   0  0  0  0  0  3  0  0  0  0  0  0
  -25.2600  -27.5070   19.3810 C   0  0  0  0  0  3  0  0  0  0  0  0
  -23.9090  -29.5600   20.0860 C   0  0  0  0  0  2  0  0  0  0  0  0
  -24.8850  -30.8110   22.0620 N   0  0  0  0  0  0  0  0  0  0  0  0
  -23.6820  -31.7960   23.7130 O   0  0  0  0  0  0  0  0  0  0  0  0
  -23.0250  -29.1100   22.4010 C   0  0  0  0  0  0  0  0  0  0  0  0
  -21.7090  -28.8830   22.2460 N   0  0  0  0  0  0  0  0  0  0  0  0
  -23.7170  -28.4840   23.2080 O   0  0  0  0  0  0  0  0  0  0  0  0
  -21.2110  -29.4460   21.5710 H   0  0  0  0  0  0  0  0  0  0  0  0
  -18.3730  -27.5540   22.6510 C   0  0  0  0  0  0  0  0  0  0  0  0
  -20.9150  -27.8940   22.9740 C   0  0  0  0  0  3  0  0  0  0  0  0
  -21.0780  -26.4850   22.3570 C   0  0  0  0  0  2  0  0  0  0  0  0
  -20.0050  -26.1540   21.3140 C   0  0  0  0  0  2  0  0  0  0  0  0
  -18.6090  -26.2310   21.9380 C   0  0  0  0  0  2  0  0  0  0  0  0
  -19.4570  -28.3410   23.1220 C   0  0  0  0  0  0  0  0  0  0  0  0
  -19.1830  -29.5780   23.7450 C   0  0  0  0  0  3  0  0  0  0  0  0
  -17.8600  -30.0290   23.9030 C   0  0  0  0  0  3  0  0  0  0  0  0
  -16.7900  -29.2380   23.4480 C   0  0  0  0  0  3  0  0  0  0  0  0
  -17.0470  -28.0030   22.8280 C   0  0  0  0  0  3  0  0  0  0  0  0
  -26.0340  -32.2350   23.8430 C   0  0  0  0  0  3  0  0  0  0  0  0
  -25.6830  -33.6240   24.1680 N   0  0  0  0  0  0  0  0  0  0  0  0
  -25.9920  -34.6840   23.4080 C   0  0  0  0  0  0  0  0  0  0  0  0
  -26.6730  -34.5980   22.3830 O   0  0  0  0  0  0  0  0  0  0  0  0
  -25.0760  -33.7630   24.9620 H   0  0  0  0  0  0  0  0  0  0  0  0
  -24.2040  -36.4180   23.0460 C   0  0  0  0  0  1  0  0  0  0  0  0
  -25.4600  -36.0590   23.8560 C   0  0  0  0  0  3  0  0  0  0  0  0
  -27.5680  -37.0170   24.6750 C   0  0  0  0  0  1  0  0  0  0  0  0
  -26.4580  -37.1440   23.7350 N   0  0  0  0  0  0  0  0  0  0  0  0
  -26.0230  -38.0520   23.8780 H   0  0  0  0  0  0  0  0  0  0  0  0
  -26.5340  -31.4710   25.1300 C   0  0  1  0  0  0  0  0  0  0  0  0
  -25.4200  -31.2030   26.1680 C   0  0  0  0  0  1  0  0  0  0  0  0
  -27.1580  -30.1090   24.7470 C   0  0  0  0  0  1  0  0  0  0  0  0
  -27.6500  -32.2880   25.8240 C   0  0  0  0  0  1  0  0  0  0  0  0
  -29.6090  -16.2430   21.1550 C   0  0  0  0  0  2  0  0  0  0  0  0
  -31.0840  -14.4730   20.2070 C   0  0  0  0  0  0  0  0  0  0  0  0
  -30.5900  -12.4330   18.8900 C   0  0  0  0  0  2  0  0  0  0  0  0
  -29.5940  -12.7320   17.7540 C   0  0  0  0  0  2  0  0  0  0  0  0
  -28.1450  -12.6000   18.2580 C   0  0  0  0  0  2  0  0  0  0  0  0
  -27.9060  -13.3770   19.5770 C   0  0  0  0  0  3  0  0  0  0  0  0
  -29.0090  -13.0690   20.6150 C   0  0  0  0  0  2  0  0  0  0  0  0
  -30.3140  -13.3640   20.0020 N   0  0  0  0  0  0  0  0  0  0  0  0
  -32.1340  -14.6580   19.5820 O   0  0  0  0  0  0  0  0  0  0  0  0
  -31.8150  -15.6890   22.1660 C   0  0  0  0  0  1  0  0  0  0  0  0
  -30.7520  -15.2990   21.2340 N   0  0  0  0  0  0  0  0  0  0  0  0
  -25.5640  -14.0330   20.4110 C   0  0  0  0  0  0  0  0  0  0  0  0
  -24.4940  -13.2800   20.8140 C   0  0  0  0  0  0  0  0  0  0  0  0
  -24.9170  -11.9180   20.7340 C   0  0  0  0  0  0  0  0  0  0  0  0
  -26.5720  -13.1280   20.1140 N   0  0  0  0  0  0  0  0  0  0  0  0
  -26.1900  -11.8510   20.3650 N   0  0  0  0  0  0  0  0  0  0  0  0
  -24.1690  -10.6700   20.9300 C   0  0  0  0  0  0  0  0  0  0  0  0
  -24.5800   -9.7030   21.8730 C   0  0  0  0  0  3  0  0  0  0  0  0
  -23.8340   -8.5190   22.0570 C   0  0  0  0  0  3  0  0  0  0  0  0
  -22.6620   -8.2950   21.2950 C   0  0  0  0  0  0  0  0  0  0  0  0
  -22.2690   -9.2500   20.3410 C   0  0  0  0  0  3  0  0  0  0  0  0
  -23.0160  -10.4260   20.1560 C   0  0  0  0  0  3  0  0  0  0  0  0
  -21.8880   -7.1630   21.3880 O   0  0  0  0  0  0  0  0  0  0  0  0
  -21.7580   -6.4740   22.5660 C   0  0  0  0  0  0  0  0  0  0  0  0
  -21.2730   -7.0920   23.7400 C   0  0  0  0  0  3  0  0  0  0  0  0
  -21.0890   -6.3310   24.9110 C   0  0  0  0  0  3  0  0  0  0  0  0
  -21.3800   -4.9530   24.9090 C   0  0  0  0  0  0  0  0  0  0  0  0
  -21.8570   -4.3360   23.7410 C   0  0  0  0  0  3  0  0  0  0  0  0
  -22.0430   -5.0940   22.5710 C   0  0  0  0  0  0  0  0  0  0  0  0
  -22.4830   -4.4900   21.4410 F   0  0  0  0  0  0  0  0  0  0  0  0
  -21.1960   -4.2200   26.0320 F   0  0  0  0  0  0  0  0  0  0  0  0
  -23.1240  -13.7870   21.1600 C   0  0  0  0  0  0  0  0  0  0  0  0
  -22.4250  -13.1000   22.0560 N   0  0  0  0  0  0  0  0  0  0  0  0
  -22.6840  -14.8260   20.6700 O   0  0  0  0  0  0  0  0  0  0  0  0
  -22.7950  -12.2570   22.4700 H   0  0  0  0  0  0  0  0  0  0  0  0
  -21.5080  -13.4210   22.3310 H   0  0  0  0  0  0  0  0  0  0  0  0
  -25.7560  -15.4010   20.2530 N   0  0  0  0  0  0  0  0  0  0  0  0
  -25.0050  -16.0690   20.4020 H   0  0  0  0  0  0  0  0  0  0  0  0
  -26.5900  -15.8260   19.8690 H   0  0  0  0  0  0  0  0  0  0  0  0
  1  4  1  0
  2  1  2  0
  2  5  1  0
  3  6  1  0
  4 54  1  0
  4  6  2  0
  5  3  2  0
  6  7  1  0
  9  5  1  0
  9  8  1  0
 10 11  1  0
 10  9  1  0
 12 13  1  0
 12 11  1  0
 14 25  2  0
 15 13  1  0
 15 20  1  0
 16 24  1  0
 16 26  1  0
 17 23  1  0
 17 19  1  0
 18 24  1  0
 19 18  1  0
 20 19  2  0
 21 22  1  0
 21 15  2  0
 22 17  2  0
 23 16  1  0
 24 14  1  0
 26 28  2  0
 27 26  1  0
 29 27  1  0
 30 39  2  0
 30 35  1  0
 31 27  1  0
 31 35  1  0
 32 31  1  0
 33 34  1  0
 33 32  1  0
 34 30  1  0
 35 36  2  0
 36 37  1  0
 38 37  2  0
 39 38  1  0
 40 14  1  0
 40 41  1  0
 40 50  1  0
 41 44  1  0
 42 46  1  0
 42 41  1  0
 43 42  2  0
 46 45  1  0
 48 46  1  0
 48 49  1  0
 48 47  1  0
 50 53  1  1
 50 51  1  0
 52 50  1  0
 54 64  1  0
 55 64  1  0
 56 61  1  0
 57 58  1  0
 57 56  1  0
 59 58  1  0
 59 68  1  0
 59 60  1  0
 61 55  1  0
 61 60  1  0
 62 55  2  0
 64 63  1  0
 65 66  2  0
 66 85  1  0
 67 66  1  0
 67 70  1  0
 68 69  1  0
 68 65  1  0
 69 67  2  0
 70 71  1  0
 71 72  2  0
 73 76  1  0
 73 72  1  0
 74 73  2  0
 75 74  1  0
 75 70  2  0
 76 77  1  0
 77 82  2  0
 77 78  1  0
 78 79  2  0
 80 79  1  0
 80 84  1  0
 81 80  2  0
 82 81  1  0
 83 82  1  0
 85 86  1  0
 86 89  1  0
 86 88  1  0
 87 85  2  0
 90 91  1  0
 90 65  1  0
 92 90  1  0
M  ISO  4  12 101  13 101  55 100  64 100
M  END
>  <TORSDO>  (53) 
F 21

>  <SCORE>  (53) 
-10.914

>  <name>  (53) 
53

>  <ligand_id>  (53) 
53

>  <original_smiles>  (53) 
[H]c1c([H])c([H])c2c(c1[H])C([H])([H])C([H])([H])C([H])([H])C2([H])N([H])C(=O)C1([H])N(C(=O)C([H])(N([H])C(=O)C([H])(N([H])C([H])([H])[H])C([H])([H])[H])C(C([H])([H])[H])(C([H])([H])[H])C([H])([H])[H])C([H])([H])c2c([H])c(OC([H])([H])C([H])([H])C([H])([H])N(c3c([H])c([H])c(C([H])([H])N(C(=O)N4C([H])([H])C([H])([H])C([H])([H])C([H])(n5nc(-c6c([H])c([H])c(Oc7c([H])c([H])c(F)c([H])c7F)c([H])c6[H])c(C(=O)N([H])[H])c5N([H])[H])C4([H])[H])C([H])([H])[H])c(F)c3[H])C([H])([H])[H])c([H])c([H])c2C1([H])[H]

>  <smiles>  (53) 
[H]c1c([H])c([H])c2c(c1[H])C([H])([H])C([H])([H])C([H])([H])C2([H])N([H])C(=O)C1([H])N(C(=O)C([H])(N([H])C(=O)C([H])(N([H])C([H])([H])[H])C([H])([H])[H])C(C([H])([H])[H])(C([H])([H])[H])C([H])([H])[H])C([H])([H])c2c([H])c(OC([H])([H])C([H])([H])C([H])([H])N(c3c([H])c([H])c(C([H])([H])N(C(=O)N4C([H])([H])C([H])([H])C([H])([H])C([H])(n5nc(-c6c([H])c([H])c(Oc7c([H])c([H])c(F)c([H])c7F)c([H])c6[H])c(C(=O)N([H])[H])c5N([H])[H])C4([H])[H])C([H])([H])[H])c(F)c3[H])C([H])([H])[H])c([H])c([H])c2C1([H])[H]

$$$$
54:0:0
     RDKit          3D

 91 99  0  0  1  0  0  0  0  0999 V2000
  -28.1370  -22.3490   22.5800 C   0  0  0  0  0  1  0  0  0  0  0  0
  -29.0540  -22.2430   21.4440 N   0  0  0  0  0  0  0  0  0  0  0  0
  -30.6790  -18.9020   21.9470 C   0  0  0  0  0  3  0  0  0  0  0  0
  -29.8280  -18.9990   19.6790 C   0  0  0  0  0  3  0  0  0  0  0  0
  -30.1830  -20.2010   22.1870 C   0  0  0  0  0  3  0  0  0  0  0  0
  -29.3550  -20.3090   19.9130 C   0  0  0  0  0  3  0  0  0  0  0  0
  -30.4990  -18.2780   20.6950 C   0  0  0  0  0  0  0  0  0  0  0  0
  -29.5190  -20.9340   21.1740 C   0  0  0  0  0  0  0  0  0  0  0  0
  -31.1680  -16.9330   20.3840 C   0  0  0  0  0  2  0  0  0  0  0  0
  -30.8420  -14.5460   19.9580 C   0  0  0  0  0  0  0  0  0  0  0  0
  -30.3640  -12.3860   18.8480 C   0  0  0  0  0  2  0  0  0  0  0  0
  -29.3640  -12.5690   17.6880 C   0  0  0  0  0  2  0  0  0  0  0  0
  -27.9250  -12.3920   18.2000 C   0  0  0  0  0  2  0  0  0  0  0  0
  -27.6530  -13.2570   19.4570 C   0  0  0  0  0  3  0  0  0  0  0  0
  -28.7720  -13.0880   20.5060 C   0  0  0  0  0  2  0  0  0  0  0  0
  -30.0690  -13.4120   19.8750 N   0  0  0  0  0  0  0  0  0  0  0  0
  -31.8670  -14.6330   19.2680 O   0  0  0  0  0  0  0  0  0  0  0  0
  -29.8750  -15.5920   22.0130 C   0  0  0  0  0  1  0  0  0  0  0  0
  -30.4420  -15.6540   20.6600 N   0  0  0  0  0  0  0  0  0  0  0  0
  -25.3240  -13.8590   20.3650 C   0  0  0  0  0  0  0  0  0  0  0  0
  -24.2840  -13.0830   20.7990 C   0  0  0  0  0  0  0  0  0  0  0  0
  -24.7340  -11.7310   20.7070 C   0  0  0  0  0  0  0  0  0  0  0  0
  -26.3400  -12.9770   20.0310 N   0  0  0  0  0  0  0  0  0  0  0  0
  -25.9950  -11.6910   20.2940 N   0  0  0  0  0  0  0  0  0  0  0  0
  -24.0200  -10.4680   20.9300 C   0  0  0  0  0  0  0  0  0  0  0  0
  -24.4760   -9.5190   21.8700 C   0  0  0  0  0  3  0  0  0  0  0  0
  -23.7610   -8.3220   22.0820 C   0  0  0  0  0  3  0  0  0  0  0  0
  -22.5760   -8.0650   21.3530 C   0  0  0  0  0  0  0  0  0  0  0  0
  -22.1380   -9.0050   20.4030 C   0  0  0  0  0  3  0  0  0  0  0  0
  -22.8530  -10.1940   20.1910 C   0  0  0  0  0  3  0  0  0  0  0  0
  -21.8320   -6.9150   21.4700 O   0  0  0  0  0  0  0  0  0  0  0  0
  -21.7440   -6.2320   22.6560 C   0  0  0  0  0  0  0  0  0  0  0  0
  -21.2720   -6.8450   23.8380 C   0  0  0  0  0  3  0  0  0  0  0  0
  -21.1330   -6.0870   25.0160 C   0  0  0  0  0  3  0  0  0  0  0  0
  -21.4570   -4.7180   25.0170 C   0  0  0  0  0  0  0  0  0  0  0  0
  -21.9230   -4.1040   23.8400 C   0  0  0  0  0  3  0  0  0  0  0  0
  -22.0640   -4.8600   22.6640 C   0  0  0  0  0  0  0  0  0  0  0  0
  -22.4940   -4.2590   21.5270 F   0  0  0  0  0  0  0  0  0  0  0  0
  -21.3160   -3.9870   26.1470 F   0  0  0  0  0  0  0  0  0  0  0  0
  -22.9170  -13.5640   21.1920 C   0  0  0  0  0  0  0  0  0  0  0  0
  -22.2650  -12.8700   22.1190 N   0  0  0  0  0  0  0  0  0  0  0  0
  -22.4370  -14.5890   20.7100 O   0  0  0  0  0  0  0  0  0  0  0  0
  -22.6650  -12.0410   22.5300 H   0  0  0  0  0  0  0  0  0  0  0  0
  -21.3520  -13.1760   22.4220 H   0  0  0  0  0  0  0  0  0  0  0  0
  -25.4800  -15.2320   20.2090 N   0  0  0  0  0  0  0  0  0  0  0  0
  -24.7280  -15.8830   20.4090 H   0  0  0  0  0  0  0  0  0  0  0  0
  -26.3240  -15.6890   19.8850 H   0  0  0  0  0  0  0  0  0  0  0  0
  -28.9170  -23.1870   20.3270 C   0  0  0  0  0  2  0  0  0  0  0  0
  -28.7330  -24.6650   20.7560 C   0  0  0  0  0  2  0  0  0  0  0  0
  -28.6730  -25.6020   19.5350 C   0  0  0  0  0  2  0  0  0  0  0  0
  -28.5220  -26.9680   19.9240 O   0  0  0  0  0  0  0  0  0  0  0  0
  -24.6430  -31.9220   23.1970 C   0  0  0  0  0  0  0  0  0  0  0  0
  -27.2880  -27.5890   19.9660 C   0  0  0  0  0  0  0  0  0  0  0  0
  -23.4100  -30.5260   21.5620 C   0  0  0  0  0  3  0  0  0  0  0  0
  -24.8530  -29.0380   20.0760 C   0  0  0  0  0  0  0  0  0  0  0  0
  -25.9230  -30.9390   21.3000 C   0  0  0  0  0  2  0  0  0  0  0  0
  -26.0160  -29.5800   20.6330 C   0  0  0  0  0  0  0  0  0  0  0  0
  -27.2310  -28.8660   20.5710 C   0  0  0  0  0  3  0  0  0  0  0  0
  -26.0990  -27.0480   19.4210 C   0  0  0  0  0  3  0  0  0  0  0  0
  -24.8890  -27.7710   19.4700 C   0  0  0  0  0  3  0  0  0  0  0  0
  -23.5950  -29.8710   20.1650 C   0  0  0  0  0  2  0  0  0  0  0  0
  -24.6770  -31.1470   22.0760 N   0  0  0  0  0  0  0  0  0  0  0  0
  -23.5730  -32.1610   23.7750 O   0  0  0  0  0  0  0  0  0  0  0  0
  -22.8050  -29.4770   22.5230 C   0  0  0  0  0  0  0  0  0  0  0  0
  -21.4880  -29.2440   22.4020 N   0  0  0  0  0  0  0  0  0  0  0  0
  -23.5150  -28.8730   23.3320 O   0  0  0  0  0  0  0  0  0  0  0  0
  -20.9740  -29.7750   21.7130 H   0  0  0  0  0  0  0  0  0  0  0  0
  -18.1710  -27.8950   22.8690 C   0  0  0  0  0  0  0  0  0  0  0  0
  -20.7090  -28.2750   23.1730 C   0  0  0  0  0  3  0  0  0  0  0  0
  -20.8890  -26.8480   22.6060 C   0  0  0  0  0  2  0  0  0  0  0  0
  -19.8190  -26.4650   21.5810 C   0  0  0  0  0  2  0  0  0  0  0  0
  -18.4240  -26.5500   22.2070 C   0  0  0  0  0  2  0  0  0  0  0  0
  -19.2450  -28.7120   23.3060 C   0  0  0  0  0  0  0  0  0  0  0  0
  -18.9600  -29.9710   23.8790 C   0  0  0  0  0  3  0  0  0  0  0  0
  -17.6310  -30.4110   24.0260 C   0  0  0  0  0  3  0  0  0  0  0  0
  -16.5700  -29.5920   23.6050 C   0  0  0  0  0  3  0  0  0  0  0  0
  -16.8400  -28.3350   23.0330 C   0  0  0  0  0  3  0  0  0  0  0  0
  -25.9380  -32.5580   23.7930 C   0  0  0  0  0  3  0  0  0  0  0  0
  -25.6320  -33.9540   24.1340 N   0  0  0  0  0  0  0  0  0  0  0  0
  -25.9370  -35.0090   23.3650 C   0  0  0  0  0  0  0  0  0  0  0  0
  -26.5810  -34.9120   22.3170 O   0  0  0  0  0  0  0  0  0  0  0  0
  -25.0620  -34.1050   24.9540 H   0  0  0  0  0  0  0  0  0  0  0  0
  -24.1780  -36.7740   23.0510 C   0  0  0  0  0  1  0  0  0  0  0  0
  -25.4440  -36.3910   23.8340 C   0  0  0  0  0  3  0  0  0  0  0  0
  -27.5860  -37.2930   24.6210 C   0  0  0  0  0  1  0  0  0  0  0  0
  -26.4630  -37.4550   23.7010 N   0  0  0  0  0  0  0  0  0  0  0  0
  -26.0510  -38.3700   23.8610 H   0  0  0  0  0  0  0  0  0  0  0  0
  -26.4920  -31.7840   25.0540 C   0  0  1  0  0  0  0  0  0  0  0  0
  -25.4220  -31.5090   26.1340 C   0  0  0  0  0  1  0  0  0  0  0  0
  -27.0960  -30.4250   24.6360 C   0  0  0  0  0  1  0  0  0  0  0  0
  -27.6370  -32.5920   25.7100 C   0  0  0  0  0  1  0  0  0  0  0  0
  2  1  1  0
  3  5  1  0
  4  6  2  0
  4  7  1  0
  6  8  1  0
  7  3  2  0
  8  2  1  0
  8  5  2  0
  9 19  1  0
  9  7  1  0
 10 19  1  0
 11 16  1  0
 12 13  1  0
 12 11  1  0
 14 13  1  0
 14 23  1  0
 14 15  1  0
 16 10  1  0
 16 15  1  0
 17 10  2  0
 19 18  1  0
 20 21  2  0
 21 40  1  0
 22 21  1  0
 22 25  1  0
 23 24  1  0
 23 20  1  0
 24 22  2  0
 25 26  1  0
 26 27  2  0
 28 31  1  0
 28 27  1  0
 29 28  2  0
 30 29  1  0
 30 25  2  0
 31 32  1  0
 32 37  2  0
 32 33  1  0
 33 34  2  0
 34 35  1  0
 35 39  1  0
 36 35  2  0
 37 36  1  0
 38 37  1  0
 40 41  1  0
 41 44  1  0
 41 43  1  0
 42 40  2  0
 45 20  1  0
 45 46  1  0
 47 45  1  0
 48 49  1  0
 48  2  1  0
 50 51  1  0
 50 49  1  0
 51 53  1  0
 52 63  2  0
 53 58  1  0
 54 62  1  0
 54 64  1  0
 55 61  1  0
 55 57  1  0
 56 62  1  0
 57 56  1  0
 58 57  2  0
 59 60  1  0
 59 53  2  0
 60 55  2  0
 61 54  1  0
 62 52  1  0
 64 66  2  0
 65 64  1  0
 67 65  1  0
 68 77  2  0
 68 73  1  0
 69 65  1  0
 69 73  1  0
 70 69  1  0
 71 72  1  0
 71 70  1  0
 72 68  1  0
 73 74  2  0
 74 75  1  0
 76 75  2  0
 77 76  1  0
 78 52  1  0
 78 79  1  0
 78 88  1  0
 79 82  1  0
 80 84  1  0
 80 79  1  0
 81 80  2  0
 84 83  1  0
 86 84  1  0
 86 87  1  0
 86 85  1  0
 88 91  1  1
 88 89  1  0
 90 88  1  0
M  ISO  4  10 100  19 100  50 101  51 101
M  END
>  <TORSDO>  (54) 
F 21

>  <SCORE>  (54) 
-11.894

>  <name>  (54) 
54

>  <ligand_id>  (54) 
54

>  <original_smiles>  (54) 
[H]c1c([H])c([H])c2c(c1[H])C([H])([H])C([H])([H])C([H])([H])C2([H])N([H])C(=O)C1([H])N(C(=O)C([H])(N([H])C(=O)C([H])(N([H])C([H])([H])[H])C([H])([H])[H])C(C([H])([H])[H])(C([H])([H])[H])C([H])([H])[H])C([H])([H])c2c([H])c(OC([H])([H])C([H])([H])C([H])([H])N(c3c([H])c([H])c(C([H])([H])N(C(=O)N4C([H])([H])C([H])([H])C([H])([H])C([H])(n5nc(-c6c([H])c([H])c(Oc7c([H])c([H])c(F)c([H])c7F)c([H])c6[H])c(C(=O)N([H])[H])c5N([H])[H])C4([H])[H])C([H])([H])[H])c([H])c3[H])C([H])([H])[H])c([H])c([H])c2C1([H])[H]

>  <smiles>  (54) 
[H]c1c([H])c([H])c2c(c1[H])C([H])([H])C([H])([H])C([H])([H])C2([H])N([H])C(=O)C1([H])N(C(=O)C([H])(N([H])C(=O)C([H])(N([H])C([H])([H])[H])C([H])([H])[H])C(C([H])([H])[H])(C([H])([H])[H])C([H])([H])[H])C([H])([H])c2c([H])c(OC([H])([H])C([H])([H])C([H])([H])N(c3c([H])c([H])c(C([H])([H])N(C(=O)N4C([H])([H])C([H])([H])C([H])([H])C([H])(n5nc(-c6c([H])c([H])c(Oc7c([H])c([H])c(F)c([H])c7F)c([H])c6[H])c(C(=O)N([H])[H])c5N([H])[H])C4([H])[H])C([H])([H])[H])c([H])c3[H])C([H])([H])[H])c([H])c([H])c2C1([H])[H]

$$$$
55:0:0
     RDKit          3D

 93101  0  0  1  0  0  0  0  0999 V2000
  -26.3180  -21.7300   21.9690 C   0  0  0  0  0  1  0  0  0  0  0  0
  -27.4800  -22.2730   21.2070 N   0  0  1  0  0  4  0  0  0  0  0  0
  -28.2350  -22.3090   21.8590 H   0  0  0  0  0  0  0  0  0  0  0  0
  -27.9340  -21.3440   20.1040 C   0  0  0  0  0  2  0  0  0  0  0  0
  -29.5980  -19.7290   21.4660 C   0  0  0  0  0  3  0  0  0  0  0  0
  -30.3220  -18.4930   21.5440 C   0  0  0  0  0  3  0  0  0  0  0  0
  -28.6090  -18.9600   19.4250 C   0  0  0  0  0  3  0  0  0  0  0  0
  -28.7060  -20.0010   20.3860 C   0  0  0  0  0  0  0  0  0  0  0  0
  -29.3650  -17.7560   19.4610 C   0  0  0  0  0  0  0  0  0  0  0  0
  -30.2340  -17.4720   20.5520 C   0  0  0  0  0  0  0  0  0  0  0  0
  -29.1460  -16.8120   18.2980 C   0  0  0  0  0  1  0  0  0  0  0  0
  -31.6190  -15.2740   20.2350 C   0  0  0  0  0  0  0  0  0  0  0  0
  -31.5080  -12.9950   19.2180 C   0  0  0  0  0  2  0  0  0  0  0  0
  -30.5130  -13.0820   18.0330 C   0  0  0  0  0  2  0  0  0  0  0  0
  -29.0480  -12.9770   18.5090 C   0  0  0  0  0  2  0  0  0  0  0  0
  -28.7540  -13.8460   19.7580 C   0  0  0  0  0  3  0  0  0  0  0  0
  -29.8370  -13.6190   20.8330 C   0  0  0  0  0  2  0  0  0  0  0  0
  -31.1200  -14.0000   20.2250 N   0  0  0  0  0  0  0  0  0  0  0  0
  -32.6960  -15.5710   19.7080 O   0  0  0  0  0  0  0  0  0  0  0  0
  -30.7870  -16.1560   20.8710 N   0  0  0  0  0  0  0  0  0  0  0  0
  -30.1860  -15.6200   21.4870 H   0  0  0  0  0  0  0  0  0  0  0  0
  -26.4470  -14.5650   20.6290 C   0  0  0  0  0  0  0  0  0  0  0  0
  -25.3380  -13.8270   20.9650 C   0  0  0  0  0  0  0  0  0  0  0  0
  -25.7070  -12.4630   20.7930 C   0  0  0  0  0  0  0  0  0  0  0  0
  -27.4110  -13.6340   20.2700 N   0  0  0  0  0  0  0  0  0  0  0  0
  -26.9710  -12.3680   20.4150 N   0  0  0  0  0  0  0  0  0  0  0  0
  -24.9150  -11.2310   20.8980 C   0  0  0  0  0  0  0  0  0  0  0  0
  -25.2250  -10.2410   21.8560 C   0  0  0  0  0  3  0  0  0  0  0  0
  -24.4390   -9.0740   21.9510 C   0  0  0  0  0  3  0  0  0  0  0  0
  -23.3340   -8.8920   21.0900 C   0  0  0  0  0  0  0  0  0  0  0  0
  -23.0410   -9.8730   20.1270 C   0  0  0  0  0  3  0  0  0  0  0  0
  -23.8260  -11.0330   20.0260 C   0  0  0  0  0  3  0  0  0  0  0  0
  -22.5270   -7.7840   21.0990 O   0  0  0  0  0  0  0  0  0  0  0  0
  -22.1910   -7.1460   22.2650 C   0  0  0  0  0  0  0  0  0  0  0  0
  -21.5330   -7.8170   23.3190 C   0  0  0  0  0  3  0  0  0  0  0  0
  -21.1460   -7.1070   24.4740 C   0  0  0  0  0  3  0  0  0  0  0  0
  -21.4080   -5.7280   24.5730 C   0  0  0  0  0  0  0  0  0  0  0  0
  -22.0600   -5.0570   23.5230 C   0  0  0  0  0  3  0  0  0  0  0  0
  -22.4480   -5.7640   22.3720 C   0  0  0  0  0  0  0  0  0  0  0  0
  -23.0580   -5.1100   21.3530 F   0  0  0  0  0  0  0  0  0  0  0  0
  -21.0300   -5.0430   25.6760 F   0  0  0  0  0  0  0  0  0  0  0  0
  -23.9960  -14.3670   21.3550 C   0  0  0  0  0  0  0  0  0  0  0  0
  -23.2770  -13.6470   22.2180 N   0  0  0  0  0  0  0  0  0  0  0  0
  -23.5930  -15.4480   20.9370 O   0  0  0  0  0  0  0  0  0  0  0  0
  -23.6180  -12.7660   22.5740 H   0  0  0  0  0  0  0  0  0  0  0  0
  -22.3730  -13.9820   22.5200 H   0  0  0  0  0  0  0  0  0  0  0  0
  -26.7020  -15.9290   20.5930 N   0  0  0  0  0  0  0  0  0  0  0  0
  -26.0050  -16.6110   20.8700 H   0  0  0  0  0  0  0  0  0  0  0  0
  -27.6140  -16.3390   20.4230 H   0  0  0  0  0  0  0  0  0  0  0  0
  -27.2090  -23.7110   20.7240 C   0  0  0  0  0  2  0  0  0  0  0  0
  -28.0360  -24.9160   21.3480 C   0  0  0  0  0  2  0  0  0  0  0  0
  -28.9390  -25.7700   20.3370 C   0  0  0  0  0  2  0  0  0  0  0  0
  -29.0400  -27.2590   20.3120 O   0  0  0  0  0  0  0  0  0  0  0  0
  -24.8940  -31.9910   23.4710 C   0  0  0  0  0  0  0  0  0  0  0  0
  -27.9090  -28.0420   20.1340 C   0  0  0  0  0  0  0  0  0  0  0  0
  -23.8550  -30.6910   21.6520 C   0  0  0  0  0  3  0  0  0  0  0  0
  -25.4490  -29.4440   20.1050 C   0  0  0  0  0  0  0  0  0  0  0  0
  -26.3440  -31.2700   21.5670 C   0  0  0  0  0  2  0  0  0  0  0  0
  -26.5520  -29.9920   20.7790 C   0  0  0  0  0  0  0  0  0  0  0  0
  -27.7990  -29.3190   20.7520 C   0  0  0  0  0  3  0  0  0  0  0  0
  -26.8110  -27.5500   19.4050 C   0  0  0  0  0  3  0  0  0  0  0  0
  -25.5810  -28.2350   19.4010 C   0  0  0  0  0  3  0  0  0  0  0  0
  -24.1400  -30.2020   20.2070 C   0  0  0  0  0  2  0  0  0  0  0  0
  -25.0460  -31.3310   22.2860 N   0  0  0  0  0  0  0  0  0  0  0  0
  -23.7790  -32.1020   24.0100 O   0  0  0  0  0  0  0  0  0  0  0  0
  -23.2840  -29.5170   22.4760 C   0  0  0  0  0  0  0  0  0  0  0  0
  -21.9880  -29.2330   22.2950 N   0  0  0  0  0  0  0  0  0  0  0  0
  -24.0210  -28.8530   23.2140 O   0  0  0  0  0  0  0  0  0  0  0  0
  -21.4320  -29.8270   21.7050 H   0  0  0  0  0  0  0  0  0  0  0  0
  -18.7660  -27.5940   22.4890 C   0  0  0  0  0  0  0  0  0  0  0  0
  -21.2790  -28.1030   22.8850 C   0  0  0  0  0  3  0  0  0  0  0  0
  -21.5710  -26.8040   22.0790 C   0  0  0  0  0  2  0  0  0  0  0  0
  -20.5000  -26.4340   21.0380 C   0  0  0  0  0  2  0  0  0  0  0  0
  -19.1030  -26.3600   21.6810 C   0  0  0  0  0  2  0  0  0  0  0  0
  -19.7840  -28.4180   23.0410 C   0  0  0  0  0  0  0  0  0  0  0  0
  -19.4190  -29.5720   23.7650 C   0  0  0  0  0  3  0  0  0  0  0  0
  -18.0630  -29.9270   23.9180 C   0  0  0  0  0  3  0  0  0  0  0  0
  -17.0560  -29.1150   23.3520 C   0  0  0  0  0  3  0  0  0  0  0  0
  -17.4080  -27.9590   22.6470 C   0  0  0  0  0  3  0  0  0  0  0  0
  -26.0930  -32.6590   24.1960 C   0  0  0  0  0  3  0  0  0  0  0  0
  -25.6850  -34.0240   24.5650 N   0  0  0  0  0  0  0  0  0  0  0  0
  -26.0000  -35.1240   23.8720 C   0  0  0  0  0  0  0  0  0  0  0  0
  -26.7370  -35.1020   22.8830 O   0  0  0  0  0  0  0  0  0  0  0  0
  -25.0280  -34.1040   25.3270 H   0  0  0  0  0  0  0  0  0  0  0  0
  -24.1860  -36.8250   23.4850 C   0  0  0  0  0  1  0  0  0  0  0  0
  -25.4020  -36.4590   24.3520 C   0  0  0  0  0  3  0  0  0  0  0  0
  -27.4260  -37.4350   25.3420 C   0  0  0  0  0  1  0  0  0  0  0  0
  -26.3730  -37.5750   24.3400 N   0  0  0  0  0  0  0  0  0  0  0  0
  -25.9050  -38.4640   24.4970 H   0  0  0  0  0  0  0  0  0  0  0  0
  -26.5620  -31.8650   25.4760 C   0  0  1  0  0  0  0  0  0  0  0  0
  -25.4110  -31.5090   26.4440 C   0  0  0  0  0  1  0  0  0  0  0  0
  -27.2690  -30.5510   25.0770 C   0  0  0  0  0  1  0  0  0  0  0  0
  -27.6010  -32.6980   26.2640 C   0  0  0  0  0  1  0  0  0  0  0  0
  2  3  1  1
  2  1  1  0
  4  8  1  0
  4  2  1  0
  5  6  1  0
  7  9  2  0
  7  8  1  0
  8  5  2  0
  9 10  1  0
 10 20  1  0
 10  6  2  0
 11  9  1  0
 12 20  1  0
 13 18  1  0
 14 15  1  0
 14 13  1  0
 16 15  1  0
 16 25  1  0
 16 17  1  0
 18 12  1  0
 18 17  1  0
 19 12  2  0
 20 21  1  0
 22 23  2  0
 23 42  1  0
 24 27  1  0
 24 23  1  0
 25 26  1  0
 25 22  1  0
 26 24  2  0
 27 28  1  0
 28 29  2  0
 30 33  1  0
 30 29  1  0
 31 30  2  0
 32 31  1  0
 32 27  2  0
 33 34  1  0
 34 39  2  0
 34 35  1  0
 35 36  2  0
 36 37  1  0
 37 41  1  0
 38 37  2  0
 39 38  1  0
 40 39  1  0
 42 43  1  0
 43 46  1  0
 43 45  1  0
 44 42  2  0
 47 22  1  0
 47 48  1  0
 49 47  1  0
 50  2  1  0
 50 51  1  0
 52 51  1  0
 53 52  1  0
 54 65  2  0
 55 53  1  0
 55 60  1  0
 56 64  1  0
 56 66  1  0
 57 63  1  0
 57 59  1  0
 58 64  1  0
 59 58  1  0
 60 59  2  0
 61 55  2  0
 62 61  1  0
 62 57  2  0
 63 56  1  0
 64 54  1  0
 66 68  2  0
 67 66  1  0
 69 67  1  0
 70 79  2  0
 70 75  1  0
 71 67  1  0
 71 75  1  0
 72 71  1  0
 73 74  1  0
 73 72  1  0
 74 70  1  0
 75 76  2  0
 76 77  1  0
 78 77  2  0
 79 78  1  0
 80 54  1  0
 80 81  1  0
 80 90  1  0
 81 84  1  0
 82 86  1  0
 82 81  1  0
 83 82  2  0
 86 85  1  0
 88 86  1  0
 88 89  1  0
 88 87  1  0
 90 93  1  1
 90 91  1  0
 92 90  1  0
M  ISO  4  12 100  20 100  52 101  53 101
M  END
>  <TORSDO>  (55) 
F 21

>  <SCORE>  (55) 
-6.702

>  <name>  (55) 
55

>  <ligand_id>  (55) 
55

>  <original_smiles>  (55) 
[H]c1c([H])c([H])c2c(c1[H])C([H])([H])C([H])([H])C([H])([H])C2([H])N([H])C(=O)C1([H])N(C(=O)C([H])(N([H])C(=O)C([H])(N([H])C([H])([H])[H])C([H])([H])[H])C(C([H])([H])[H])(C([H])([H])[H])C([H])([H])[H])C([H])([H])c2c([H])c(OC([H])([H])C([H])([H])C([H])([H])[N+]([H])(C([H])([H])[H])C([H])([H])c3c([H])c([H])c(N([H])C(=O)N4C([H])([H])C([H])([H])C([H])([H])C([H])(n5nc(-c6c([H])c([H])c(Oc7c([H])c([H])c(F)c([H])c7F)c([H])c6[H])c(C(=O)N([H])[H])c5N([H])[H])C4([H])[H])c(C([H])([H])[H])c3[H])c([H])c([H])c2C1([H])[H]

>  <smiles>  (55) 
[H]c1c([H])c([H])c2c(c1[H])C([H])([H])C([H])([H])C([H])([H])C2([H])N([H])C(=O)C1([H])N(C(=O)C([H])(N([H])C(=O)C([H])(N([H])C([H])([H])[H])C([H])([H])[H])C(C([H])([H])[H])(C([H])([H])[H])C([H])([H])[H])C([H])([H])c2c([H])c(OC([H])([H])C([H])([H])C([H])([H])[N+]([H])(C([H])([H])[H])C([H])([H])c3c([H])c([H])c(N([H])C(=O)N4C([H])([H])C([H])([H])C([H])([H])C([H])(n5nc(-c6c([H])c([H])c(Oc7c([H])c([H])c(F)c([H])c7F)c([H])c6[H])c(C(=O)N([H])[H])c5N([H])[H])C4([H])[H])c(C([H])([H])[H])c3[H])c([H])c([H])c2C1([H])[H]

$$$$
56:0:0
     RDKit          3D

 95103  0  0  1  0  0  0  0  0999 V2000
  -30.1220  -21.2870   21.5110 C   0  0  1  0  0  0  0  0  0  0  0  0
  -29.8190  -21.0130   22.7820 F   0  0  0  0  0  0  0  0  0  0  0  0
  -31.3380  -21.8350   21.4800 F   0  0  0  0  0  0  0  0  0  0  0  0
  -30.5620  -20.1090   19.3210 C   0  0  0  0  0  3  0  0  0  0  0  0
  -30.4980  -18.9870   18.4820 C   0  0  0  0  0  3  0  0  0  0  0  0
  -29.7540  -18.7650   21.1800 C   0  0  0  0  0  3  0  0  0  0  0  0
  -30.1530  -20.0180   20.6660 C   0  0  0  0  0  0  0  0  0  0  0  0
  -30.0430  -17.7480   18.9730 C   0  0  0  0  0  0  0  0  0  0  0  0
  -29.7050  -17.6180   20.3510 C   0  0  0  0  0  0  0  0  0  0  0  0
  -29.9220  -16.6170   17.9680 C   0  0  0  0  0  1  0  0  0  0  0  0
  -29.2550  -16.2950   20.9780 C   0  0  0  0  0  2  0  0  0  0  0  0
  -30.7690  -14.4490   20.3780 C   0  0  0  0  0  0  0  0  0  0  0  0
  -30.3720  -12.3210   19.1860 C   0  0  0  0  0  2  0  0  0  0  0  0
  -29.4280  -12.4950   17.9820 C   0  0  0  0  0  2  0  0  0  0  0  0
  -27.9600  -12.3590   18.4240 C   0  0  0  0  0  2  0  0  0  0  0  0
  -27.6290  -13.2420   19.6530 C   0  0  0  0  0  3  0  0  0  0  0  0
  -28.6830  -13.0600   20.7700 C   0  0  0  0  0  2  0  0  0  0  0  0
  -30.0170  -13.3270   20.2010 N   0  0  0  0  0  0  0  0  0  0  0  0
  -31.8570  -14.6070   19.8140 O   0  0  0  0  0  0  0  0  0  0  0  0
  -31.3070  -15.8840   22.2540 C   0  0  0  0  0  1  0  0  0  0  0  0
  -30.3380  -15.3470   21.2930 N   0  0  0  0  0  0  0  0  0  0  0  0
  -25.2490  -13.9120   20.3680 C   0  0  0  0  0  0  0  0  0  0  0  0
  -24.1700  -13.1630   20.7530 C   0  0  0  0  0  0  0  0  0  0  0  0
  -24.6080  -11.8040   20.7400 C   0  0  0  0  0  0  0  0  0  0  0  0
  -26.2760  -13.0070   20.1440 N   0  0  0  0  0  0  0  0  0  0  0  0
  -25.8950  -11.7370   20.4280 N   0  0  0  0  0  0  0  0  0  0  0  0
  -23.8650  -10.5570   20.9490 C   0  0  0  0  0  0  0  0  0  0  0  0
  -24.2860   -9.5970   21.8960 C   0  0  0  0  0  3  0  0  0  0  0  0
  -23.5450   -8.4130   22.0920 C   0  0  0  0  0  3  0  0  0  0  0  0
  -22.3700   -8.1800   21.3390 C   0  0  0  0  0  0  0  0  0  0  0  0
  -21.9690   -9.1270   20.3810 C   0  0  0  0  0  3  0  0  0  0  0  0
  -22.7100  -10.3040   20.1840 C   0  0  0  0  0  3  0  0  0  0  0  0
  -21.6010   -7.0460   21.4430 O   0  0  0  0  0  0  0  0  0  0  0  0
  -21.5410   -6.3210   22.6060 C   0  0  0  0  0  0  0  0  0  0  0  0
  -21.1290   -6.9010   23.8250 C   0  0  0  0  0  3  0  0  0  0  0  0
  -21.0150   -6.1050   24.9820 C   0  0  0  0  0  3  0  0  0  0  0  0
  -21.3040   -4.7280   24.9200 C   0  0  0  0  0  0  0  0  0  0  0  0
  -21.7100   -4.1470   23.7050 C   0  0  0  0  0  3  0  0  0  0  0  0
  -21.8250   -4.9420   22.5520 C   0  0  0  0  0  0  0  0  0  0  0  0
  -22.1960   -4.3730   21.3780 F   0  0  0  0  0  0  0  0  0  0  0  0
  -21.1870   -3.9600   26.0280 F   0  0  0  0  0  0  0  0  0  0  0  0
  -22.7810  -13.6670   21.0230 C   0  0  0  0  0  0  0  0  0  0  0  0
  -22.0450  -12.9930   21.9010 N   0  0  0  0  0  0  0  0  0  0  0  0
  -22.3570  -14.6910   20.4880 O   0  0  0  0  0  0  0  0  0  0  0  0
  -22.4020  -12.1650   22.3530 H   0  0  0  0  0  0  0  0  0  0  0  0
  -21.1140  -13.3120   22.1240 H   0  0  0  0  0  0  0  0  0  0  0  0
  -25.4340  -15.2760   20.1670 N   0  0  0  0  0  0  0  0  0  0  0  0
  -24.6730  -15.9400   20.2630 H   0  0  0  0  0  0  0  0  0  0  0  0
  -26.2790  -15.6970   19.8020 H   0  0  0  0  0  0  0  0  0  0  0  0
  -29.0870  -22.2900   20.9530 C   0  0  0  0  0  2  0  0  0  0  0  0
  -29.1920  -23.6080   21.5730 N   0  0  0  0  0  0  0  0  0  0  0  0
  -28.8510  -23.5530   22.5270 H   0  0  0  0  0  0  0  0  0  0  0  0
  -28.4220  -24.5720   20.7940 C   0  0  0  0  0  2  0  0  0  0  0  0
  -28.7580  -26.0120   21.2070 C   0  0  0  0  0  2  0  0  0  0  0  0
  -28.4780  -26.8690   20.1090 O   0  0  0  0  0  0  0  0  0  0  0  0
  -24.6100  -31.9480   23.2410 C   0  0  0  0  0  0  0  0  0  0  0  0
  -27.2920  -27.5480   20.1780 C   0  0  0  0  0  0  0  0  0  0  0  0
  -23.4120  -30.5340   21.5990 C   0  0  0  0  0  3  0  0  0  0  0  0
  -24.8790  -28.9980   20.1870 C   0  0  0  0  0  0  0  0  0  0  0  0
  -25.9300  -30.9180   21.4020 C   0  0  0  0  0  2  0  0  0  0  0  0
  -26.0270  -29.5440   20.7770 C   0  0  0  0  0  0  0  0  0  0  0  0
  -27.2380  -28.8230   20.7740 C   0  0  0  0  0  3  0  0  0  0  0  0
  -26.1350  -27.0010   19.5900 C   0  0  0  0  0  3  0  0  0  0  0  0
  -24.9240  -27.7210   19.5960 C   0  0  0  0  0  3  0  0  0  0  0  0
  -23.6270  -29.8450   20.2240 C   0  0  0  0  0  2  0  0  0  0  0  0
  -24.6670  -31.1480   22.1400 N   0  0  0  0  0  0  0  0  0  0  0  0
  -23.5270  -32.2160   23.7810 O   0  0  0  0  0  0  0  0  0  0  0  0
  -22.7670  -29.5120   22.5620 C   0  0  0  0  0  0  0  0  0  0  0  0
  -21.4430  -29.3310   22.4390 N   0  0  0  0  0  0  0  0  0  0  0  0
  -23.4550  -28.8860   23.3720 O   0  0  0  0  0  0  0  0  0  0  0  0
  -20.9510  -29.8890   21.7550 H   0  0  0  0  0  0  0  0  0  0  0  0
  -18.0680  -28.1520   22.9530 C   0  0  0  0  0  0  0  0  0  0  0  0
  -20.6270  -28.3940   23.2100 C   0  0  0  0  0  3  0  0  0  0  0  0
  -20.7190  -26.9660   22.6240 C   0  0  0  0  0  2  0  0  0  0  0  0
  -19.6080  -26.6530   21.6160 C   0  0  0  0  0  2  0  0  0  0  0  0
  -18.2320  -26.8050   22.2700 C   0  0  0  0  0  2  0  0  0  0  0  0
  -19.1930  -28.9060   23.3790 C   0  0  0  0  0  0  0  0  0  0  0  0
  -18.9860  -30.1670   23.9770 C   0  0  0  0  0  3  0  0  0  0  0  0
  -17.6850  -30.6770   24.1510 C   0  0  0  0  0  3  0  0  0  0  0  0
  -16.5740  -29.9190   23.7430 C   0  0  0  0  0  3  0  0  0  0  0  0
  -16.7660  -28.6580   23.1500 C   0  0  0  0  0  3  0  0  0  0  0  0
  -25.8940  -32.5850   23.8600 C   0  0  0  0  0  3  0  0  0  0  0  0
  -25.5800  -33.9820   24.1880 N   0  0  0  0  0  0  0  0  0  0  0  0
  -25.9100  -35.0330   23.4280 C   0  0  0  0  0  0  0  0  0  0  0  0
  -26.5820  -34.9320   22.3980 O   0  0  0  0  0  0  0  0  0  0  0  0
  -24.9860  -34.1350   24.9900 H   0  0  0  0  0  0  0  0  0  0  0  0
  -24.1730  -36.8150   23.0640 C   0  0  0  0  0  1  0  0  0  0  0  0
  -25.4130  -36.4190   23.8810 C   0  0  0  0  0  3  0  0  0  0  0  0
  -27.5410  -37.3140   24.7180 C   0  0  0  0  0  1  0  0  0  0  0  0
  -26.4420  -37.4770   23.7700 N   0  0  0  0  0  0  0  0  0  0  0  0
  -26.0310  -38.3950   23.9160 H   0  0  0  0  0  0  0  0  0  0  0  0
  -26.4200  -31.8150   25.1340 C   0  0  1  0  0  0  0  0  0  0  0  0
  -25.3310  -31.5640   26.2020 C   0  0  0  0  0  1  0  0  0  0  0  0
  -27.0170  -30.4440   24.7350 C   0  0  0  0  0  1  0  0  0  0  0  0
  -27.5640  -32.6180   25.7950 C   0  0  0  0  0  1  0  0  0  0  0  0
  1  2  1  1
  3  1  1  0
  4  7  1  0
  5  8  1  0
  5  4  2  0
  7  6  2  0
  7  1  1  0
  8  9  2  0
  9 11  1  0
  9  6  1  0
 10  8  1  0
 11 21  1  0
 12 21  1  0
 13 18  1  0
 14 15  1  0
 14 13  1  0
 16 15  1  0
 16 25  1  0
 16 17  1  0
 18 12  1  0
 18 17  1  0
 19 12  2  0
 21 20  1  0
 22 23  2  0
 23 42  1  0
 24 23  1  0
 24 27  1  0
 25 22  1  0
 25 26  1  0
 26 24  2  0
 27 28  1  0
 28 29  2  0
 30 33  1  0
 30 29  1  0
 31 30  2  0
 32 31  1  0
 32 27  2  0
 33 34  1  0
 34 35  1  0
 35 36  2  0
 37 36  1  0
 37 41  1  0
 38 37  2  0
 39 34  2  0
 39 38  1  0
 40 39  1  0
 42 43  1  0
 43 46  1  0
 43 45  1  0
 44 42  2  0
 47 48  1  0
 47 22  1  0
 49 47  1  0
 50  1  1  0
 50 51  1  0
 51 52  1  0
 53 54  1  0
 53 51  1  0
 55 57  1  0
 55 54  1  0
 56 67  2  0
 57 62  1  0
 58 66  1  0
 58 68  1  0
 59 65  1  0
 59 61  1  0
 60 66  1  0
 61 60  1  0
 62 61  2  0
 63 64  1  0
 63 57  2  0
 64 59  2  0
 65 58  1  0
 66 56  1  0
 68 70  2  0
 69 68  1  0
 71 69  1  0
 72 81  2  0
 72 77  1  0
 73 69  1  0
 73 77  1  0
 74 73  1  0
 75 76  1  0
 75 74  1  0
 76 72  1  0
 77 78  2  0
 78 79  1  0
 80 79  2  0
 81 80  1  0
 82 56  1  0
 82 83  1  0
 82 92  1  0
 83 86  1  0
 84 88  1  0
 84 83  1  0
 85 84  2  0
 88 87  1  0
 90 88  1  0
 90 91  1  0
 90 89  1  0
 92 95  1  1
 92 93  1  0
 94 92  1  0
M  ISO  4  12 100  21 100  54 101  55 101
M  END
>  <TORSDO>  (56) 
F 22

>  <SCORE>  (56) 
-12.415

>  <name>  (56) 
56

>  <ligand_id>  (56) 
56

>  <original_smiles>  (56) 
[H]c1c([H])c([H])c2c(c1[H])C([H])([H])C([H])([H])C([H])([H])C2([H])N([H])C(=O)C1([H])N(C(=O)C([H])(N([H])C(=O)C([H])(N([H])C([H])([H])[H])C([H])([H])[H])C(C([H])([H])[H])(C([H])([H])[H])C([H])([H])[H])C([H])([H])c2c([H])c(OC([H])([H])C([H])([H])N([H])C([H])([H])C(F)(F)c3c([H])c([H])c(C([H])([H])[H])c(C([H])([H])N(C(=O)N4C([H])([H])C([H])([H])C([H])([H])C([H])(n5nc(-c6c([H])c([H])c(Oc7c([H])c([H])c(F)c([H])c7F)c([H])c6[H])c(C(=O)N([H])[H])c5N([H])[H])C4([H])[H])C([H])([H])[H])c3[H])c([H])c([H])c2C1([H])[H]

>  <smiles>  (56) 
[H]c1c([H])c([H])c2c(c1[H])C([H])([H])C([H])([H])C([H])([H])C2([H])N([H])C(=O)C1([H])N(C(=O)C([H])(N([H])C(=O)C([H])(N([H])C([H])([H])[H])C([H])([H])[H])C(C([H])([H])[H])(C([H])([H])[H])C([H])([H])[H])C([H])([H])c2c([H])c(OC([H])([H])C([H])([H])N([H])C([H])([H])C(F)(F)c3c([H])c([H])c(C([H])([H])[H])c(C([H])([H])N(C(=O)N4C([H])([H])C([H])([H])C([H])([H])C([H])(n5nc(-c6c([H])c([H])c(Oc7c([H])c([H])c(F)c([H])c7F)c([H])c6[H])c(C(=O)N([H])[H])c5N([H])[H])C4([H])[H])C([H])([H])[H])c3[H])c([H])c([H])c2C1([H])[H]

$$$$
57:0:0
     RDKit          3D

 91 99  0  0  1  0  0  0  0  0999 V2000
  -28.1370  -22.3490   22.5800 C   0  0  0  0  0  1  0  0  0  0  0  0
  -29.0540  -22.2430   21.4440 N   0  0  0  0  0  0  0  0  0  0  0  0
  -30.6790  -18.9020   21.9470 C   0  0  0  0  0  3  0  0  0  0  0  0
  -29.8280  -18.9990   19.6790 C   0  0  0  0  0  3  0  0  0  0  0  0
  -30.1830  -20.2010   22.1870 C   0  0  0  0  0  3  0  0  0  0  0  0
  -29.3550  -20.3090   19.9130 C   0  0  0  0  0  3  0  0  0  0  0  0
  -30.4990  -18.2780   20.6950 C   0  0  0  0  0  0  0  0  0  0  0  0
  -29.5190  -20.9340   21.1740 C   0  0  0  0  0  0  0  0  0  0  0  0
  -31.1680  -16.9330   20.3840 C   0  0  0  0  0  2  0  0  0  0  0  0
  -30.8420  -14.5460   19.9580 C   0  0  0  0  0  0  0  0  0  0  0  0
  -30.3640  -12.3860   18.8480 C   0  0  0  0  0  2  0  0  0  0  0  0
  -29.3640  -12.5690   17.6880 C   0  0  0  0  0  2  0  0  0  0  0  0
  -27.9250  -12.3920   18.2000 C   0  0  0  0  0  2  0  0  0  0  0  0
  -27.6530  -13.2570   19.4570 C   0  0  0  0  0  3  0  0  0  0  0  0
  -28.7720  -13.0880   20.5060 C   0  0  0  0  0  2  0  0  0  0  0  0
  -30.0690  -13.4120   19.8750 N   0  0  0  0  0  0  0  0  0  0  0  0
  -31.8670  -14.6330   19.2680 O   0  0  0  0  0  0  0  0  0  0  0  0
  -29.8750  -15.5920   22.0130 C   0  0  0  0  0  1  0  0  0  0  0  0
  -30.4420  -15.6540   20.6600 N   0  0  0  0  0  0  0  0  0  0  0  0
  -25.3240  -13.8590   20.3650 C   0  0  0  0  0  0  0  0  0  0  0  0
  -24.2840  -13.0830   20.7990 C   0  0  0  0  0  0  0  0  0  0  0  0
  -24.7340  -11.7310   20.7070 C   0  0  0  0  0  0  0  0  0  0  0  0
  -26.3400  -12.9770   20.0310 N   0  0  0  0  0  0  0  0  0  0  0  0
  -25.9950  -11.6910   20.2940 N   0  0  0  0  0  0  0  0  0  0  0  0
  -24.0200  -10.4680   20.9300 C   0  0  0  0  0  0  0  0  0  0  0  0
  -24.4760   -9.5190   21.8700 C   0  0  0  0  0  3  0  0  0  0  0  0
  -23.7610   -8.3220   22.0820 C   0  0  0  0  0  3  0  0  0  0  0  0
  -22.5760   -8.0650   21.3530 C   0  0  0  0  0  0  0  0  0  0  0  0
  -22.1380   -9.0050   20.4030 C   0  0  0  0  0  3  0  0  0  0  0  0
  -22.8530  -10.1940   20.1910 C   0  0  0  0  0  3  0  0  0  0  0  0
  -21.8320   -6.9150   21.4700 O   0  0  0  0  0  0  0  0  0  0  0  0
  -21.7440   -6.2320   22.6560 C   0  0  0  0  0  0  0  0  0  0  0  0
  -21.2720   -6.8450   23.8380 C   0  0  0  0  0  3  0  0  0  0  0  0
  -21.1330   -6.0870   25.0160 C   0  0  0  0  0  3  0  0  0  0  0  0
  -21.4570   -4.7180   25.0170 C   0  0  0  0  0  0  0  0  0  0  0  0
  -21.9230   -4.1040   23.8400 C   0  0  0  0  0  3  0  0  0  0  0  0
  -22.0640   -4.8600   22.6640 C   0  0  0  0  0  0  0  0  0  0  0  0
  -22.4940   -4.2590   21.5270 F   0  0  0  0  0  0  0  0  0  0  0  0
  -21.3160   -3.9870   26.1470 F   0  0  0  0  0  0  0  0  0  0  0  0
  -22.9170  -13.5640   21.1920 C   0  0  0  0  0  0  0  0  0  0  0  0
  -22.2650  -12.8700   22.1190 N   0  0  0  0  0  0  0  0  0  0  0  0
  -22.4370  -14.5890   20.7100 O   0  0  0  0  0  0  0  0  0  0  0  0
  -22.6650  -12.0410   22.5300 H   0  0  0  0  0  0  0  0  0  0  0  0
  -21.3520  -13.1760   22.4220 H   0  0  0  0  0  0  0  0  0  0  0  0
  -25.4800  -15.2320   20.2090 N   0  0  0  0  0  0  0  0  0  0  0  0
  -24.7280  -15.8830   20.4090 H   0  0  0  0  0  0  0  0  0  0  0  0
  -26.3240  -15.6890   19.8850 H   0  0  0  0  0  0  0  0  0  0  0  0
  -28.9170  -23.1870   20.3270 C   0  0  0  0  0  2  0  0  0  0  0  0
  -28.7330  -24.6650   20.7560 C   0  0  0  0  0  2  0  0  0  0  0  0
  -28.6730  -25.6020   19.5350 C   0  0  0  0  0  2  0  0  0  0  0  0
  -28.5220  -26.9680   19.9240 O   0  0  0  0  0  0  0  0  0  0  0  0
  -24.6430  -31.9220   23.1970 C   0  0  0  0  0  0  0  0  0  0  0  0
  -27.2880  -27.5890   19.9660 C   0  0  0  0  0  0  0  0  0  0  0  0
  -23.4100  -30.5260   21.5620 C   0  0  0  0  0  3  0  0  0  0  0  0
  -24.8530  -29.0380   20.0760 C   0  0  0  0  0  0  0  0  0  0  0  0
  -25.9230  -30.9390   21.3000 C   0  0  0  0  0  2  0  0  0  0  0  0
  -26.0160  -29.5800   20.6330 C   0  0  0  0  0  0  0  0  0  0  0  0
  -27.2310  -28.8660   20.5710 C   0  0  0  0  0  3  0  0  0  0  0  0
  -26.0990  -27.0480   19.4210 C   0  0  0  0  0  3  0  0  0  0  0  0
  -24.8890  -27.7710   19.4700 C   0  0  0  0  0  3  0  0  0  0  0  0
  -23.5950  -29.8710   20.1650 C   0  0  0  0  0  2  0  0  0  0  0  0
  -24.6770  -31.1470   22.0760 N   0  0  0  0  0  0  0  0  0  0  0  0
  -23.5730  -32.1610   23.7750 O   0  0  0  0  0  0  0  0  0  0  0  0
  -22.8050  -29.4770   22.5230 C   0  0  0  0  0  0  0  0  0  0  0  0
  -21.4880  -29.2440   22.4020 N   0  0  0  0  0  0  0  0  0  0  0  0
  -23.5150  -28.8730   23.3320 O   0  0  0  0  0  0  0  0  0  0  0  0
  -20.9740  -29.7750   21.7130 H   0  0  0  0  0  0  0  0  0  0  0  0
  -18.1710  -27.8950   22.8690 C   0  0  0  0  0  0  0  0  0  0  0  0
  -20.7090  -28.2750   23.1730 C   0  0  0  0  0  3  0  0  0  0  0  0
  -20.8890  -26.8480   22.6060 C   0  0  0  0  0  2  0  0  0  0  0  0
  -19.8190  -26.4650   21.5810 C   0  0  0  0  0  2  0  0  0  0  0  0
  -18.4240  -26.5500   22.2070 C   0  0  0  0  0  2  0  0  0  0  0  0
  -19.2450  -28.7120   23.3060 C   0  0  0  0  0  0  0  0  0  0  0  0
  -18.9600  -29.9710   23.8790 C   0  0  0  0  0  3  0  0  0  0  0  0
  -17.6310  -30.4110   24.0260 C   0  0  0  0  0  3  0  0  0  0  0  0
  -16.5700  -29.5920   23.6050 C   0  0  0  0  0  3  0  0  0  0  0  0
  -16.8400  -28.3350   23.0330 C   0  0  0  0  0  3  0  0  0  0  0  0
  -25.9380  -32.5580   23.7930 C   0  0  0  0  0  3  0  0  0  0  0  0
  -25.6320  -33.9540   24.1340 N   0  0  0  0  0  0  0  0  0  0  0  0
  -25.9370  -35.0090   23.3650 C   0  0  0  0  0  0  0  0  0  0  0  0
  -26.5810  -34.9120   22.3170 O   0  0  0  0  0  0  0  0  0  0  0  0
  -25.0620  -34.1050   24.9540 H   0  0  0  0  0  0  0  0  0  0  0  0
  -24.1780  -36.7740   23.0510 C   0  0  0  0  0  1  0  0  0  0  0  0
  -25.4440  -36.3910   23.8340 C   0  0  0  0  0  3  0  0  0  0  0  0
  -27.5860  -37.2930   24.6210 C   0  0  0  0  0  1  0  0  0  0  0  0
  -26.4630  -37.4550   23.7010 N   0  0  0  0  0  0  0  0  0  0  0  0
  -26.0510  -38.3700   23.8610 H   0  0  0  0  0  0  0  0  0  0  0  0
  -26.4920  -31.7840   25.0540 C   0  0  1  0  0  0  0  0  0  0  0  0
  -25.4220  -31.5090   26.1340 C   0  0  0  0  0  1  0  0  0  0  0  0
  -27.0960  -30.4250   24.6360 C   0  0  0  0  0  1  0  0  0  0  0  0
  -27.6370  -32.5920   25.7100 C   0  0  0  0  0  1  0  0  0  0  0  0
  2  1  1  0
  3  5  1  0
  4  6  2  0
  4  7  1  0
  6  8  1  0
  7  3  2  0
  8  2  1  0
  8  5  2  0
  9 19  1  0
  9  7  1  0
 10 19  1  0
 11 16  1  0
 12 13  1  0
 12 11  1  0
 14 13  1  0
 14 23  1  0
 14 15  1  0
 16 10  1  0
 16 15  1  0
 17 10  2  0
 19 18  1  0
 20 21  2  0
 21 40  1  0
 22 21  1  0
 22 25  1  0
 23 24  1  0
 23 20  1  0
 24 22  2  0
 25 26  1  0
 26 27  2  0
 28 31  1  0
 28 27  1  0
 29 28  2  0
 30 29  1  0
 30 25  2  0
 31 32  1  0
 32 37  2  0
 32 33  1  0
 33 34  2  0
 34 35  1  0
 35 39  1  0
 36 35  2  0
 37 36  1  0
 38 37  1  0
 40 41  1  0
 41 44  1  0
 41 43  1  0
 42 40  2  0
 45 20  1  0
 45 46  1  0
 47 45  1  0
 48 49  1  0
 48  2  1  0
 50 51  1  0
 50 49  1  0
 51 53  1  0
 52 63  2  0
 53 58  1  0
 54 62  1  0
 54 64  1  0
 55 61  1  0
 55 57  1  0
 56 62  1  0
 57 56  1  0
 58 57  2  0
 59 60  1  0
 59 53  2  0
 60 55  2  0
 61 54  1  0
 62 52  1  0
 64 66  2  0
 65 64  1  0
 67 65  1  0
 68 77  2  0
 68 73  1  0
 69 65  1  0
 69 73  1  0
 70 69  1  0
 71 72  1  0
 71 70  1  0
 72 68  1  0
 73 74  2  0
 74 75  1  0
 76 75  2  0
 77 76  1  0
 78 52  1  0
 78 79  1  0
 78 88  1  0
 79 82  1  0
 80 84  1  0
 80 79  1  0
 81 80  2  0
 84 83  1  0
 86 84  1  0
 86 87  1  0
 86 85  1  0
 88 91  1  1
 88 89  1  0
 90 88  1  0
M  ISO  4  10 100  19 100  50 101  51 101
M  END
>  <TORSDO>  (57) 
F 21

>  <SCORE>  (57) 
-11.894

>  <name>  (57) 
57

>  <ligand_id>  (57) 
57

>  <original_smiles>  (57) 
[H]c1c([H])c([H])c2c(c1[H])C([H])([H])C([H])([H])C([H])([H])C2([H])N([H])C(=O)C1([H])N(C(=O)C([H])(N([H])C(=O)C([H])(N([H])C([H])([H])[H])C([H])([H])[H])C(C([H])([H])[H])(C([H])([H])[H])C([H])([H])[H])C([H])([H])c2c([H])c(OC([H])([H])C([H])([H])C([H])([H])N(c3c([H])c([H])c(C([H])([H])N(C(=O)N4C([H])([H])C([H])([H])C([H])([H])C([H])(n5nc(-c6c([H])c([H])c(Oc7c([H])c([H])c(F)c([H])c7F)c([H])c6[H])c(C(=O)N([H])[H])c5N([H])[H])C4([H])[H])C([H])([H])[H])c([H])c3[H])C([H])([H])[H])c([H])c([H])c2C1([H])[H]

>  <smiles>  (57) 
[H]c1c([H])c([H])c2c(c1[H])C([H])([H])C([H])([H])C([H])([H])C2([H])N([H])C(=O)C1([H])N(C(=O)C([H])(N([H])C(=O)C([H])(N([H])C([H])([H])[H])C([H])([H])[H])C(C([H])([H])[H])(C([H])([H])[H])C([H])([H])[H])C([H])([H])c2c([H])c(OC([H])([H])C([H])([H])C([H])([H])N(c3c([H])c([H])c(C([H])([H])N(C(=O)N4C([H])([H])C([H])([H])C([H])([H])C([H])(n5nc(-c6c([H])c([H])c(Oc7c([H])c([H])c(F)c([H])c7F)c([H])c6[H])c(C(=O)N([H])[H])c5N([H])[H])C4([H])[H])C([H])([H])[H])c([H])c3[H])C([H])([H])[H])c([H])c([H])c2C1([H])[H]

$$$$
58:0:0
     RDKit          3D

 98107  0  0  1  0  0  0  0  0999 V2000
  -28.9770  -20.3580   18.5130 C   0  0  0  0  0  3  0  0  0  0  0  0
  -30.0690  -17.7990   18.6160 C   0  0  0  0  0  3  0  0  0  0  0  0
  -28.9420  -19.5190   17.3800 C   0  0  0  0  0  0  0  0  0  0  0  0
  -29.7970  -18.4610   19.8320 C   0  0  0  0  0  0  0  0  0  0  0  0
  -29.4920  -19.9190   19.7660 C   0  0  0  0  0  0  0  0  0  0  0  0
  -29.6560  -18.3180   17.3930 C   0  0  0  0  0  0  0  0  0  0  0  0
  -29.7380  -17.5520   16.2760 F   0  0  0  0  0  0  0  0  0  0  0  0
  -29.5840  -17.4300   21.0260 C   0  0  0  0  0  2  0  0  0  0  0  0
  -30.9110  -15.0670   20.5610 C   0  0  0  0  0  0  0  0  0  0  0  0
  -30.6640  -12.8170   19.4830 C   0  0  0  0  0  2  0  0  0  0  0  0
  -29.7300  -12.9100   18.2560 C   0  0  0  0  0  2  0  0  0  0  0  0
  -28.2790  -12.6750   18.6960 C   0  0  0  0  0  2  0  0  0  0  0  0
  -27.8950  -13.5360   19.9300 C   0  0  0  0  0  3  0  0  0  0  0  0
  -28.9580  -13.4930   21.0520 C   0  0  0  0  0  2  0  0  0  0  0  0
  -30.2450  -13.8640   20.4620 N   0  0  0  0  0  0  0  0  0  0  0  0
  -32.0400  -15.1430   20.0570 O   0  0  0  0  0  0  0  0  0  0  0  0
  -31.3610  -16.4850   22.4130 C   0  0  0  0  0  1  0  0  0  0  0  0
  -30.4420  -16.1590   21.3130 N   0  0  0  0  0  0  0  0  0  0  0  0
  -25.5230  -14.0600   20.7370 C   0  0  0  0  0  0  0  0  0  0  0  0
  -24.4680  -13.2560   21.0740 C   0  0  0  0  0  0  0  0  0  0  0  0
  -24.9380  -11.9130   20.9540 C   0  0  0  0  0  0  0  0  0  0  0  0
  -26.5650  -13.2030   20.4280 N   0  0  0  0  0  0  0  0  0  0  0  0
  -26.2220  -11.9040   20.6170 N   0  0  0  0  0  0  0  0  0  0  0  0
  -24.2220  -10.6370   21.0830 C   0  0  0  0  0  0  0  0  0  0  0  0
  -24.6080   -9.6620   22.0270 C   0  0  0  0  0  3  0  0  0  0  0  0
  -23.8860   -8.4550   22.1450 C   0  0  0  0  0  3  0  0  0  0  0  0
  -22.7660   -8.2130   21.3150 C   0  0  0  0  0  0  0  0  0  0  0  0
  -22.3980   -9.1790   20.3610 C   0  0  0  0  0  3  0  0  0  0  0  0
  -23.1200  -10.3800   20.2450 C   0  0  0  0  0  3  0  0  0  0  0  0
  -22.0200   -7.0560   21.3410 O   0  0  0  0  0  0  0  0  0  0  0  0
  -21.8360   -6.3480   22.5020 C   0  0  0  0  0  0  0  0  0  0  0  0
  -21.2060   -6.9190   23.6300 C   0  0  0  0  0  3  0  0  0  0  0  0
  -20.9700   -6.1320   24.7750 C   0  0  0  0  0  3  0  0  0  0  0  0
  -21.3530   -4.7780   24.7920 C   0  0  0  0  0  0  0  0  0  0  0  0
  -21.9760   -4.2070   23.6680 C   0  0  0  0  0  3  0  0  0  0  0  0
  -22.2130   -4.9900   22.5250 C   0  0  0  0  0  0  0  0  0  0  0  0
  -22.7930   -4.4280   21.4380 F   0  0  0  0  0  0  0  0  0  0  0  0
  -21.1200   -4.0240   25.8910 F   0  0  0  0  0  0  0  0  0  0  0  0
  -23.0740  -13.7090   21.4000 C   0  0  0  0  0  0  0  0  0  0  0  0
  -22.3740  -12.9690   22.2500 N   0  0  0  0  0  0  0  0  0  0  0  0
  -22.6190  -14.7510   20.9300 O   0  0  0  0  0  0  0  0  0  0  0  0
  -22.7570  -12.1160   22.6330 H   0  0  0  0  0  0  0  0  0  0  0  0
  -21.4370  -13.2490   22.5130 H   0  0  0  0  0  0  0  0  0  0  0  0
  -25.6830  -15.4410   20.6410 N   0  0  0  0  0  0  0  0  0  0  0  0
  -24.9200  -16.0860   20.7980 H   0  0  0  0  0  0  0  0  0  0  0  0
  -26.5410  -15.9060   20.3870 H   0  0  0  0  0  0  0  0  0  0  0  0
  -28.0290  -19.8110   16.1960 C   0  0  0  0  0  2  0  0  0  0  0  0
  -24.4740  -21.0880   16.3340 C   0  0  0  0  0  2  0  0  0  0  0  0
  -24.9870  -21.4910   17.7220 C   0  0  0  0  0  2  0  0  0  0  0  0
  -25.6910  -20.5190   15.5880 C   0  0  0  0  0  2  0  0  0  0  0  0
  -26.4430  -21.0310   17.7680 C   0  0  0  0  0  2  0  0  0  0  0  0
  -26.6230  -20.0760   16.6440 N   0  0  2  0  0  4  0  0  0  0  0  0
  -26.2740  -19.1860   16.9760 H   0  0  0  0  0  0  0  0  0  0  0  0
  -29.6680  -20.9110   20.7920 O   0  0  0  0  0  0  0  0  0  0  0  0
  -28.8850  -22.2160   20.9240 C   0  0  0  0  0  3  0  0  0  0  0  0
  -29.4850  -23.7430   20.7690 C   0  0  0  0  0  3  0  0  0  0  0  0
  -28.4700  -25.0300   20.6270 C   0  0  0  0  0  2  0  0  0  0  0  0
  -28.8140  -26.5250   20.6640 O   0  0  0  0  0  0  0  0  0  0  0  0
  -24.9290  -32.0070   23.5900 C   0  0  0  0  0  0  0  0  0  0  0  0
  -27.7500  -27.4730   20.5720 C   0  0  0  0  0  0  0  0  0  0  0  0
  -23.8390  -30.6060   21.8860 C   0  0  0  0  0  3  0  0  0  0  0  0
  -25.3830  -29.1220   20.4910 C   0  0  0  0  0  0  0  0  0  0  0  0
  -26.3870  -30.9690   21.8200 C   0  0  0  0  0  2  0  0  0  0  0  0
  -26.5250  -29.5960   21.1470 C   0  0  0  0  0  0  0  0  0  0  0  0
  -27.7150  -28.7840   21.1780 C   0  0  0  0  0  3  0  0  0  0  0  0
  -26.5780  -27.0950   19.8780 C   0  0  0  0  0  3  0  0  0  0  0  0
  -25.4150  -27.8830   19.8470 C   0  0  0  0  0  3  0  0  0  0  0  0
  -24.1300  -29.9710   20.5050 C   0  0  0  0  0  2  0  0  0  0  0  0
  -25.0700  -31.2140   22.4880 N   0  0  0  0  0  0  0  0  0  0  0  0
  -23.8130  -32.2440   24.0770 O   0  0  0  0  0  0  0  0  0  0  0  0
  -23.1650  -29.5490   22.7960 C   0  0  0  0  0  0  0  0  0  0  0  0
  -21.8630  -29.2900   22.5740 N   0  0  0  0  0  0  0  0  0  0  0  0
  -23.8160  -28.9640   23.6650 O   0  0  0  0  0  0  0  0  0  0  0  0
  -21.3950  -29.8180   21.8500 H   0  0  0  0  0  0  0  0  0  0  0  0
  -18.5340  -27.8880   22.8380 C   0  0  0  0  0  0  0  0  0  0  0  0
  -21.0450  -28.3080   23.2900 C   0  0  0  0  0  3  0  0  0  0  0  0
  -21.2770  -26.8810   22.7400 C   0  0  0  0  0  2  0  0  0  0  0  0
  -20.2740  -26.4860   21.6520 C   0  0  0  0  0  2  0  0  0  0  0  0
  -18.8420  -26.5490   22.1900 C   0  0  0  0  0  2  0  0  0  0  0  0
  -19.5690  -28.7210   23.3400 C   0  0  0  0  0  0  0  0  0  0  0  0
  -19.2280  -29.9710   23.9030 C   0  0  0  0  0  3  0  0  0  0  0  0
  -17.8840  -30.3870   23.9710 C   0  0  0  0  0  3  0  0  0  0  0  0
  -16.8630  -29.5530   23.4810 C   0  0  0  0  0  3  0  0  0  0  0  0
  -17.1890  -28.3050   22.9220 C   0  0  0  0  0  3  0  0  0  0  0  0
  -26.1600  -32.6750   24.2740 C   0  0  0  0  0  3  0  0  0  0  0  0
  -25.7700  -34.0420   24.6540 N   0  0  0  0  0  0  0  0  0  0  0  0
  -26.0690  -35.1440   23.9530 C   0  0  0  0  0  0  0  0  0  0  0  0
  -26.7650  -35.1170   22.9350 O   0  0  0  0  0  0  0  0  0  0  0  0
  -25.1480  -34.1310   25.4430 H   0  0  0  0  0  0  0  0  0  0  0  0
  -24.2670  -36.8720   23.6340 C   0  0  0  0  0  1  0  0  0  0  0  0
  -25.5070  -36.4880   24.4590 C   0  0  0  0  0  3  0  0  0  0  0  0
  -27.5760  -37.4270   25.3850 C   0  0  0  0  0  1  0  0  0  0  0  0
  -26.4920  -37.5900   24.4210 N   0  0  0  0  0  0  0  0  0  0  0  0
  -26.0410  -38.4830   24.6020 H   0  0  0  0  0  0  0  0  0  0  0  0
  -26.6750  -31.8750   25.5330 C   0  0  1  0  0  0  0  0  0  0  0  0
  -25.5550  -31.4970   26.5300 C   0  0  0  0  0  1  0  0  0  0  0  0
  -27.3820  -30.5700   25.1020 C   0  0  0  0  0  1  0  0  0  0  0  0
  -27.7290  -32.7160   26.2890 C   0  0  0  0  0  1  0  0  0  0  0  0
  1  5  1  0
  2  4  1  0
  3  6  1  0
  3  1  2  0
  4  8  1  0
  5  4  2  0
  5 54  1  0
  6  2  2  0
  7  6  1  0
  8 18  1  0
  9 18  1  0
 10 15  1  0
 11 12  1  0
 11 10  1  0
 13 12  1  0
 13 22  1  0
 13 14  1  0
 15  9  1  0
 15 14  1  0
 16  9  2  0
 18 17  1  0
 19 20  2  0
 20 39  1  0
 21 20  1  0
 21 24  1  0
 22 23  1  0
 22 19  1  0
 23 21  2  0
 24 25  1  0
 25 26  2  0
 27 30  1  0
 27 26  1  0
 28 27  2  0
 29 28  1  0
 29 24  2  0
 30 31  1  0
 31 36  2  0
 31 32  1  0
 32 33  2  0
 33 34  1  0
 34 38  1  0
 35 34  2  0
 36 35  1  0
 37 36  1  0
 39 40  1  0
 40 43  1  0
 40 42  1  0
 41 39  2  0
 44 19  1  0
 44 45  1  0
 46 44  1  0
 47 52  1  0
 47  3  1  0
 48 49  1  0
 49 51  1  0
 50 48  1  0
 50 52  1  0
 52 53  1  1
 52 51  1  0
 54 55  1  0
 56 55  2  0
 57 58  1  0
 57 56  1  0
 59 70  2  0
 60 58  1  0
 60 65  1  0
 61 69  1  0
 61 71  1  0
 62 68  1  0
 62 64  1  0
 63 69  1  0
 64 65  2  0
 64 63  1  0
 66 60  2  0
 67 66  1  0
 67 62  2  0
 68 61  1  0
 69 59  1  0
 71 73  2  0
 72 71  1  0
 74 72  1  0
 75 84  2  0
 75 80  1  0
 76 72  1  0
 76 80  1  0
 77 76  1  0
 78 79  1  0
 78 77  1  0
 79 75  1  0
 80 81  2  0
 81 82  1  0
 83 82  2  0
 84 83  1  0
 85 59  1  0
 85 86  1  0
 85 95  1  0
 86 89  1  0
 87 91  1  0
 87 86  1  0
 88 87  2  0
 91 90  1  0
 93 91  1  0
 93 94  1  0
 93 92  1  0
 95 98  1  1
 95 96  1  0
 97 95  1  0
M  ISO  4   9 100  18 100  57 101  58 101
M  END
>  <TORSDO>  (58) 
F 23

>  <SCORE>  (58) 
-8.279

>  <name>  (58) 
58

>  <ligand_id>  (58) 
58

>  <original_smiles>  (58) 
[H]c1c([H])c([H])c2c(c1[H])C([H])([H])C([H])([H])C([H])([H])C2([H])N([H])C(=O)C1([H])N(C(=O)C([H])(N([H])C(=O)C([H])(N([H])C([H])([H])[H])C([H])([H])[H])C(C([H])([H])[H])(C([H])([H])[H])C([H])([H])[H])C([H])([H])c2c([H])c(OC([H])([H])C([H])([H])C([H])([H])Oc3c([H])c(C([H])([H])[N+]4([H])C([H])([H])C([H])([H])C([H])([H])C4([H])[H])c(F)c([H])c3C([H])([H])N(C(=O)N3C([H])([H])C([H])([H])C([H])([H])C([H])(n4nc(-c5c([H])c([H])c(Oc6c([H])c([H])c(F)c([H])c6F)c([H])c5[H])c(C(=O)N([H])[H])c4N([H])[H])C3([H])[H])C([H])([H])[H])c([H])c([H])c2C1([H])[H]

>  <smiles>  (58) 
[H]c1c([H])c([H])c2c(c1[H])C([H])([H])C([H])([H])C([H])([H])C2([H])N([H])C(=O)C1([H])N(C(=O)C([H])(N([H])C(=O)C([H])(N([H])C([H])([H])[H])C([H])([H])[H])C(C([H])([H])[H])(C([H])([H])[H])C([H])([H])[H])C([H])([H])c2c([H])c(OC([H])([H])C([H])([H])C([H])([H])Oc3c([H])c(C([H])([H])[N+]4([H])C([H])([H])C([H])([H])C([H])([H])C4([H])[H])c(F)c([H])c3C([H])([H])N(C(=O)N3C([H])([H])C([H])([H])C([H])([H])C([H])(n4nc(-c5c([H])c([H])c(Oc6c([H])c([H])c(F)c([H])c6F)c([H])c5[H])c(C(=O)N([H])[H])c4N([H])[H])C3([H])[H])C([H])([H])[H])c([H])c([H])c2C1([H])[H]

$$$$
59:0:0
     RDKit          3D

 93101  0  0  1  0  0  0  0  0999 V2000
  -31.3670  -22.4940   21.5290 C   0  0  0  0  0  1  0  0  0  0  0  0
  -30.4270  -22.4150   20.3850 N   0  0  1  0  0  4  0  0  0  0  0  0
  -30.9990  -22.1160   19.6100 H   0  0  0  0  0  0  0  0  0  0  0  0
  -29.4180  -21.3180   20.5070 C   0  0  0  0  0  2  0  0  0  0  0  0
  -30.6600  -19.4900   19.1520 C   0  0  0  0  0  3  0  0  0  0  0  0
  -30.9580  -18.1310   18.9100 C   0  0  0  0  0  3  0  0  0  0  0  0
  -29.6650  -18.8680   21.2640 C   0  0  0  0  0  3  0  0  0  0  0  0
  -29.9580  -19.8770   20.3160 C   0  0  0  0  0  0  0  0  0  0  0  0
  -30.5190  -17.0950   19.7790 C   0  0  0  0  0  0  0  0  0  0  0  0
  -29.9260  -17.4950   21.0050 C   0  0  0  0  0  0  0  0  0  0  0  0
  -29.4070  -16.3350   22.1690 Cl  0  0  0  0  0  0  0  0  0  0  0  0
  -31.1980  -14.6880   19.7670 C   0  0  0  0  0  0  0  0  0  0  0  0
  -30.9390  -12.3830   18.9170 C   0  0  0  0  0  2  0  0  0  0  0  0
  -29.9560  -12.3510   17.7250 C   0  0  0  0  0  2  0  0  0  0  0  0
  -28.4780  -12.3490   18.1860 C   0  0  0  0  0  2  0  0  0  0  0  0
  -28.1600  -13.2840   19.3910 C   0  0  0  0  0  3  0  0  0  0  0  0
  -29.2630  -13.2020   20.4650 C   0  0  0  0  0  2  0  0  0  0  0  0
  -30.5430  -13.4890   19.8040 N   0  0  0  0  0  0  0  0  0  0  0  0
  -32.4180  -14.7510   19.6070 O   0  0  0  0  0  0  0  0  0  0  0  0
  -30.2360  -15.6820   17.8180 C   0  0  0  0  0  1  0  0  0  0  0  0
  -30.4530  -15.7340   19.2820 N   0  0  0  0  0  0  0  0  0  0  0  0
  -25.8110  -13.9460   20.1990 C   0  0  0  0  0  0  0  0  0  0  0  0
  -24.7400  -13.1970   20.6010 C   0  0  0  0  0  0  0  0  0  0  0  0
  -25.1710  -11.8350   20.5550 C   0  0  0  0  0  0  0  0  0  0  0  0
  -26.8280  -13.0400   19.9340 N   0  0  0  0  0  0  0  0  0  0  0  0
  -26.4490  -11.7670   20.2090 N   0  0  0  0  0  0  0  0  0  0  0  0
  -24.4260  -10.5890   20.7650 C   0  0  0  0  0  0  0  0  0  0  0  0
  -24.8030   -9.6660   21.7650 C   0  0  0  0  0  3  0  0  0  0  0  0
  -24.0620   -8.4810   21.9610 C   0  0  0  0  0  3  0  0  0  0  0  0
  -22.9290   -8.2120   21.1570 C   0  0  0  0  0  0  0  0  0  0  0  0
  -22.5720   -9.1240   20.1460 C   0  0  0  0  0  3  0  0  0  0  0  0
  -23.3150  -10.3000   19.9490 C   0  0  0  0  0  3  0  0  0  0  0  0
  -22.1640   -7.0770   21.2610 O   0  0  0  0  0  0  0  0  0  0  0  0
  -21.9520   -6.4580   22.4680 C   0  0  0  0  0  0  0  0  0  0  0  0
  -21.3580   -7.1320   23.5560 C   0  0  0  0  0  3  0  0  0  0  0  0
  -21.0940   -6.4390   24.7550 C   0  0  0  0  0  3  0  0  0  0  0  0
  -21.4140   -5.0720   24.8640 C   0  0  0  0  0  0  0  0  0  0  0  0
  -21.9990   -4.3980   23.7780 C   0  0  0  0  0  3  0  0  0  0  0  0
  -22.2650   -5.0890   22.5830 C   0  0  0  0  0  0  0  0  0  0  0  0
  -22.8110   -4.4280   21.5340 F   0  0  0  0  0  0  0  0  0  0  0  0
  -21.1540   -4.4050   26.0120 F   0  0  0  0  0  0  0  0  0  0  0  0
  -23.3620  -13.7030   20.9160 C   0  0  0  0  0  0  0  0  0  0  0  0
  -22.6500  -13.0320   21.8150 N   0  0  0  0  0  0  0  0  0  0  0  0
  -22.9240  -14.7290   20.3960 O   0  0  0  0  0  0  0  0  0  0  0  0
  -23.0150  -12.2040   22.2640 H   0  0  0  0  0  0  0  0  0  0  0  0
  -21.7250  -13.3540   22.0600 H   0  0  0  0  0  0  0  0  0  0  0  0
  -25.9930  -15.3130   20.0140 N   0  0  0  0  0  0  0  0  0  0  0  0
  -25.2530  -15.9850   20.1830 H   0  0  0  0  0  0  0  0  0  0  0  0
  -26.8650  -15.7440   19.7350 H   0  0  0  0  0  0  0  0  0  0  0  0
  -29.9180  -23.7590   19.9380 C   0  0  0  0  0  2  0  0  0  0  0  0
  -28.9170  -24.4930   20.8830 C   0  0  0  0  0  2  0  0  0  0  0  0
  -29.0490  -26.0470   20.9510 C   0  0  0  0  0  2  0  0  0  0  0  0
  -28.6310  -26.7390   19.7670 O   0  0  0  0  0  0  0  0  0  0  0  0
  -24.5150  -31.6140   23.0500 C   0  0  0  0  0  0  0  0  0  0  0  0
  -27.4450  -27.4380   19.8450 C   0  0  0  0  0  0  0  0  0  0  0  0
  -23.4170  -30.2300   21.3190 C   0  0  0  0  0  3  0  0  0  0  0  0
  -24.9800  -28.8250   19.8680 C   0  0  0  0  0  0  0  0  0  0  0  0
  -25.9280  -30.7130   21.2040 C   0  0  0  0  0  2  0  0  0  0  0  0
  -26.0960  -29.3740   20.5130 C   0  0  0  0  0  0  0  0  0  0  0  0
  -27.3330  -28.6860   20.5060 C   0  0  0  0  0  3  0  0  0  0  0  0
  -26.3160  -26.9070   19.1920 C   0  0  0  0  0  3  0  0  0  0  0  0
  -25.0820  -27.5870   19.2080 C   0  0  0  0  0  3  0  0  0  0  0  0
  -23.6940  -29.6220   19.9170 C   0  0  0  0  0  2  0  0  0  0  0  0
  -24.6360  -30.8660   21.9160 N   0  0  0  0  0  0  0  0  0  0  0  0
  -23.4090  -31.8100   23.5740 O   0  0  0  0  0  0  0  0  0  0  0  0
  -22.7960  -29.1360   22.2180 C   0  0  0  0  0  0  0  0  0  0  0  0
  -21.4810  -28.9090   22.0620 N   0  0  0  0  0  0  0  0  0  0  0  0
  -23.4940  -28.4970   23.0090 O   0  0  0  0  0  0  0  0  0  0  0  0
  -20.9770  -29.4820   21.4000 H   0  0  0  0  0  0  0  0  0  0  0  0
  -18.1440  -27.5830   22.4770 C   0  0  0  0  0  0  0  0  0  0  0  0
  -20.6930  -27.9020   22.7710 C   0  0  0  0  0  3  0  0  0  0  0  0
  -20.8380  -26.5110   22.1100 C   0  0  0  0  0  2  0  0  0  0  0  0
  -19.7490  -26.2170   21.0740 C   0  0  0  0  0  2  0  0  0  0  0  0
  -18.3630  -26.2820   21.7220 C   0  0  0  0  0  2  0  0  0  0  0  0
  -19.2380  -28.3510   22.9550 C   0  0  0  0  0  0  0  0  0  0  0  0
  -18.9810  -29.5690   23.6200 C   0  0  0  0  0  3  0  0  0  0  0  0
  -17.6620  -30.0220   23.8100 C   0  0  0  0  0  3  0  0  0  0  0  0
  -16.5820  -29.2490   23.3480 C   0  0  0  0  0  3  0  0  0  0  0  0
  -16.8230  -28.0310   22.6870 C   0  0  0  0  0  3  0  0  0  0  0  0
  -25.7550  -32.2770   23.7280 C   0  0  0  0  0  3  0  0  0  0  0  0
  -25.3780  -33.6490   24.0950 N   0  0  0  0  0  0  0  0  0  0  0  0
  -25.6830  -34.7370   23.3770 C   0  0  0  0  0  0  0  0  0  0  0  0
  -26.3840  -34.6950   22.3620 O   0  0  0  0  0  0  0  0  0  0  0  0
  -24.7560  -33.7530   24.8830 H   0  0  0  0  0  0  0  0  0  0  0  0
  -23.8880  -36.4640   23.0280 C   0  0  0  0  0  1  0  0  0  0  0  0
  -25.1240  -36.0890   23.8630 C   0  0  0  0  0  3  0  0  0  0  0  0
  -27.1920  -37.0400   24.7850 C   0  0  0  0  0  1  0  0  0  0  0  0
  -26.1130  -37.1880   23.8110 N   0  0  0  0  0  0  0  0  0  0  0  0
  -25.6620  -38.0850   23.9690 H   0  0  0  0  0  0  0  0  0  0  0  0
  -26.2730  -31.4830   24.9920 C   0  0  1  0  0  0  0  0  0  0  0  0
  -25.1640  -31.1600   26.0200 C   0  0  0  0  0  1  0  0  0  0  0  0
  -26.9280  -30.1480   24.5680 C   0  0  0  0  0  1  0  0  0  0  0  0
  -27.3690  -32.3030   25.7120 C   0  0  0  0  0  1  0  0  0  0  0  0
  2  4  1  0
  2  1  1  0
  2  3  1  6
  5  8  1  0
  6  5  2  0
  6  9  1  0
  8  4  1  0
  8  7  2  0
  9 10  2  0
 10  7  1  0
 10 11  1  0
 12 18  1  0
 13 18  1  0
 14 15  1  0
 14 13  1  0
 16 15  1  0
 16 25  1  0
 16 17  1  0
 18 17  1  0
 19 12  2  0
 20 21  1  0
 21 12  1  0
 21  9  1  0
 22 23  2  0
 23 42  1  0
 24 23  1  0
 24 27  1  0
 25 22  1  0
 25 26  1  0
 26 24  2  0
 27 28  1  0
 28 29  2  0
 30 33  1  0
 30 29  1  0
 31 30  2  0
 32 31  1  0
 32 27  2  0
 33 34  1  0
 34 39  2  0
 34 35  1  0
 35 36  2  0
 36 37  1  0
 37 41  1  0
 38 37  2  0
 39 38  1  0
 40 39  1  0
 42 43  1  0
 43 46  1  0
 43 45  1  0
 44 42  2  0
 47 48  1  0
 47 22  1  0
 49 47  1  0
 50  2  1  0
 50 51  1  0
 51 52  1  0
 53 55  1  0
 53 52  1  0
 54 65  2  0
 55 60  1  0
 56 64  1  0
 56 66  1  0
 57 63  1  0
 57 59  1  0
 58 64  1  0
 59 58  1  0
 60 59  2  0
 61 62  1  0
 61 55  2  0
 62 57  2  0
 63 56  1  0
 64 54  1  0
 66 68  2  0
 67 66  1  0
 69 67  1  0
 70 79  2  0
 70 75  1  0
 71 67  1  0
 71 75  1  0
 72 71  1  0
 73 74  1  0
 73 72  1  0
 74 70  1  0
 75 76  2  0
 76 77  1  0
 78 77  2  0
 79 78  1  0
 80 54  1  0
 80 81  1  0
 80 90  1  0
 81 84  1  0
 82 86  1  0
 82 81  1  0
 83 82  2  0
 86 85  1  0
 88 86  1  0
 88 89  1  0
 88 87  1  0
 90 93  1  1
 90 91  1  0
 92 90  1  0
M  ISO  4  12 100  21 100  52 101  53 101
M  END
>  <TORSDO>  (59) 
F 21

>  <SCORE>  (59) 
-10.514

>  <name>  (59) 
59

>  <ligand_id>  (59) 
59

>  <original_smiles>  (59) 
[H]c1c([H])c([H])c2c(c1[H])C([H])([H])C([H])([H])C([H])([H])C2([H])N([H])C(=O)C1([H])N(C(=O)C([H])(N([H])C(=O)C([H])(N([H])C([H])([H])[H])C([H])([H])[H])C(C([H])([H])[H])(C([H])([H])[H])C([H])([H])[H])C([H])([H])c2c([H])c(OC([H])([H])C([H])([H])C([H])([H])[N+]([H])(C([H])([H])[H])C([H])([H])c3c([H])c([H])c(N(C(=O)N4C([H])([H])C([H])([H])C([H])([H])C([H])(n5nc(-c6c([H])c([H])c(Oc7c([H])c([H])c(F)c([H])c7F)c([H])c6[H])c(C(=O)N([H])[H])c5N([H])[H])C4([H])[H])C([H])([H])[H])c(Cl)c3[H])c([H])c([H])c2C1([H])[H]

>  <smiles>  (59) 
[H]c1c([H])c([H])c2c(c1[H])C([H])([H])C([H])([H])C([H])([H])C2([H])N([H])C(=O)C1([H])N(C(=O)C([H])(N([H])C(=O)C([H])(N([H])C([H])([H])[H])C([H])([H])[H])C(C([H])([H])[H])(C([H])([H])[H])C([H])([H])[H])C([H])([H])c2c([H])c(OC([H])([H])C([H])([H])C([H])([H])[N+]([H])(C([H])([H])[H])C([H])([H])c3c([H])c([H])c(N(C(=O)N4C([H])([H])C([H])([H])C([H])([H])C([H])(n5nc(-c6c([H])c([H])c(Oc7c([H])c([H])c(F)c([H])c7F)c([H])c6[H])c(C(=O)N([H])[H])c5N([H])[H])C4([H])[H])C([H])([H])[H])c(Cl)c3[H])c([H])c([H])c2C1([H])[H]

$$$$
60:0:0
     RDKit          3D

 92100  0  0  1  0  0  0  0  0999 V2000
  -28.9300  -21.4130   20.5420 N   0  0  0  0  0  4  0  0  0  0  0  0
  -29.7230  -21.5480   21.1390 H   0  0  0  0  0  0  0  0  0  0  0  0
  -28.1680  -21.1130   21.1250 H   0  0  0  0  0  0  0  0  0  0  0  0
  -29.2570  -20.3170   19.5720 C   0  0  0  0  0  2  0  0  0  0  0  0
  -27.3020  -17.1050   20.3820 C   0  0  0  0  0  3  0  0  0  0  0  0
  -27.6290  -18.4450   20.1180 C   0  0  0  0  0  3  0  0  0  0  0  0
  -28.3070  -16.1240   20.4920 C   0  0  0  0  0  3  0  0  0  0  0  0
  -29.9940  -17.8310   20.0880 C   0  0  0  0  0  3  0  0  0  0  0  0
  -28.9770  -18.8410   19.9810 C   0  0  0  0  0  0  0  0  0  0  0  0
  -29.6740  -16.4490   20.3180 C   0  0  0  0  0  0  0  0  0  0  0  0
  -31.0050  -14.3660   19.7530 C   0  0  0  0  0  0  0  0  0  0  0  0
  -30.6450  -12.0300   18.9440 C   0  0  0  0  0  2  0  0  0  0  0  0
  -29.6700  -11.9930   17.7520 C   0  0  0  0  0  2  0  0  0  0  0  0
  -28.2160  -11.9130   18.2490 C   0  0  0  0  0  2  0  0  0  0  0  0
  -27.9070  -12.9690   19.3460 C   0  0  0  0  0  3  0  0  0  0  0  0
  -28.9960  -12.9580   20.4420 C   0  0  0  0  0  2  0  0  0  0  0  0
  -30.2950  -13.1910   19.7970 N   0  0  0  0  0  0  0  0  0  0  0  0
  -32.0390  -14.4320   19.0800 O   0  0  0  0  0  0  0  0  0  0  0  0
  -31.7620  -15.8930   21.4450 C   0  0  0  0  0  1  0  0  0  0  0  0
  -30.6650  -15.4160   20.5870 N   0  0  0  0  0  0  0  0  0  0  0  0
  -25.6070  -13.7390   20.1920 C   0  0  0  0  0  0  0  0  0  0  0  0
  -24.5080  -13.0470   20.6270 C   0  0  0  0  0  0  0  0  0  0  0  0
  -24.8670  -11.6620   20.5670 C   0  0  0  0  0  0  0  0  0  0  0  0
  -26.5690  -12.7850   19.9010 N   0  0  0  0  0  0  0  0  0  0  0  0
  -26.1280  -11.5290   20.1790 N   0  0  0  0  0  0  0  0  0  0  0  0
  -24.0590  -10.4590   20.8010 C   0  0  0  0  0  0  0  0  0  0  0  0
  -24.4620   -9.4710   21.7290 C   0  0  0  0  0  3  0  0  0  0  0  0
  -23.6610   -8.3310   21.9510 C   0  0  0  0  0  3  0  0  0  0  0  0
  -22.4440   -8.1720   21.2460 C   0  0  0  0  0  0  0  0  0  0  0  0
  -22.0610   -9.1440   20.3090 C   0  0  0  0  0  3  0  0  0  0  0  0
  -22.8620  -10.2760   20.0840 C   0  0  0  0  0  3  0  0  0  0  0  0
  -21.6150   -7.0820   21.3800 O   0  0  0  0  0  0  0  0  0  0  0  0
  -21.5420   -6.3710   22.5500 C   0  0  0  0  0  0  0  0  0  0  0  0
  -21.1920   -6.9810   23.7730 C   0  0  0  0  0  3  0  0  0  0  0  0
  -21.0630   -6.2000   24.9390 C   0  0  0  0  0  3  0  0  0  0  0  0
  -21.2710   -4.8110   24.8830 C   0  0  0  0  0  0  0  0  0  0  0  0
  -21.6160   -4.1990   23.6620 C   0  0  0  0  0  3  0  0  0  0  0  0
  -21.7480   -4.9760   22.5010 C   0  0  0  0  0  0  0  0  0  0  0  0
  -22.0580   -4.3810   21.3240 F   0  0  0  0  0  0  0  0  0  0  0  0
  -21.1400   -4.0560   25.9990 F   0  0  0  0  0  0  0  0  0  0  0  0
  -23.1750  -13.6250   20.9970 C   0  0  0  0  0  0  0  0  0  0  0  0
  -22.4640  -12.9810   21.9200 N   0  0  0  0  0  0  0  0  0  0  0  0
  -22.7740  -14.6780   20.5070 O   0  0  0  0  0  0  0  0  0  0  0  0
  -22.8000  -12.1200   22.3290 H   0  0  0  0  0  0  0  0  0  0  0  0
  -21.5750  -13.3520   22.2230 H   0  0  0  0  0  0  0  0  0  0  0  0
  -25.8590  -15.0930   20.0000 N   0  0  0  0  0  0  0  0  0  0  0  0
  -25.1680  -15.8120   20.1720 H   0  0  0  0  0  0  0  0  0  0  0  0
  -26.7600  -15.4650   19.7260 H   0  0  0  0  0  0  0  0  0  0  0  0
  -28.5560  -22.7090   19.8820 C   0  0  0  0  0  2  0  0  0  0  0  0
  -28.7530  -24.0430   20.6940 C   0  0  0  0  0  2  0  0  0  0  0  0
  -28.7270  -25.3330   19.8000 C   0  0  0  0  0  2  0  0  0  0  0  0
  -28.5560  -26.6190   20.4770 O   0  0  0  0  0  0  0  0  0  0  0  0
  -24.6790  -31.9360   23.2910 C   0  0  0  0  0  0  0  0  0  0  0  0
  -27.3710  -27.3540   20.3990 C   0  0  0  0  0  0  0  0  0  0  0  0
  -23.5050  -30.4870   21.6700 C   0  0  0  0  0  3  0  0  0  0  0  0
  -24.9850  -28.9160   20.3100 C   0  0  0  0  0  0  0  0  0  0  0  0
  -26.0410  -30.8340   21.5040 C   0  0  0  0  0  2  0  0  0  0  0  0
  -26.1360  -29.4410   20.9050 C   0  0  0  0  0  0  0  0  0  0  0  0
  -27.3280  -28.6700   20.9430 C   0  0  0  0  0  3  0  0  0  0  0  0
  -26.1820  -26.8570   19.8100 C   0  0  0  0  0  3  0  0  0  0  0  0
  -25.0040  -27.6250   19.7640 C   0  0  0  0  0  3  0  0  0  0  0  0
  -23.7440  -29.7850   20.3080 C   0  0  0  0  0  2  0  0  0  0  0  0
  -24.7600  -31.1030   22.2120 N   0  0  0  0  0  0  0  0  0  0  0  0
  -23.5860  -32.2200   23.8020 O   0  0  0  0  0  0  0  0  0  0  0  0
  -22.8420  -29.4870   22.6460 C   0  0  0  0  0  0  0  0  0  0  0  0
  -21.5260  -29.2670   22.4750 N   0  0  0  0  0  0  0  0  0  0  0  0
  -23.5050  -28.9100   23.5100 O   0  0  0  0  0  0  0  0  0  0  0  0
  -21.0420  -29.7790   21.7490 H   0  0  0  0  0  0  0  0  0  0  0  0
  -18.1650  -28.0020   22.8880 C   0  0  0  0  0  0  0  0  0  0  0  0
  -20.7000  -28.3440   23.2540 C   0  0  0  0  0  3  0  0  0  0  0  0
  -20.8630  -26.8890   22.7490 C   0  0  0  0  0  2  0  0  0  0  0  0
  -19.8180  -26.4950   21.7060 C   0  0  0  0  0  2  0  0  0  0  0  0
  -18.4070  -26.6290   22.2820 C   0  0  0  0  0  2  0  0  0  0  0  0
  -19.2430  -28.8150   23.3280 C   0  0  0  0  0  0  0  0  0  0  0  0
  -18.9650  -30.0960   23.8470 C   0  0  0  0  0  3  0  0  0  0  0  0
  -17.6430  -30.5700   23.9310 C   0  0  0  0  0  3  0  0  0  0  0  0
  -16.5760  -29.7560   23.5110 C   0  0  0  0  0  3  0  0  0  0  0  0
  -16.8400  -28.4750   22.9930 C   0  0  0  0  0  3  0  0  0  0  0  0
  -25.9530  -32.5910   23.9130 C   0  0  0  0  0  3  0  0  0  0  0  0
  -25.6220  -33.9890   24.2160 N   0  0  0  0  0  0  0  0  0  0  0  0
  -25.9490  -35.0320   23.4420 C   0  0  0  0  0  0  0  0  0  0  0  0
  -26.6260  -34.9190   22.4170 O   0  0  0  0  0  0  0  0  0  0  0  0
  -25.0220  -34.1520   25.0110 H   0  0  0  0  0  0  0  0  0  0  0  0
  -24.2030  -36.8000   23.0520 C   0  0  0  0  0  1  0  0  0  0  0  0
  -25.4440  -36.4220   23.8760 C   0  0  0  0  0  3  0  0  0  0  0  0
  -27.5670  -37.3410   24.6990 C   0  0  0  0  0  1  0  0  0  0  0  0
  -26.4660  -37.4850   23.7500 N   0  0  0  0  0  0  0  0  0  0  0  0
  -26.0490  -38.4020   23.8860 H   0  0  0  0  0  0  0  0  0  0  0  0
  -26.4680  -31.8410   25.2000 C   0  0  1  0  0  0  0  0  0  0  0  0
  -25.3640  -31.5700   26.2460 C   0  0  0  0  0  1  0  0  0  0  0  0
  -27.1050  -30.4830   24.8220 C   0  0  0  0  0  1  0  0  0  0  0  0
  -27.5770  -32.6750   25.8820 C   0  0  0  0  0  1  0  0  0  0  0  0
  1  3  1  0
  1  2  1  0
  4  9  1  0
  4  1  1  0
  5  7  1  0
  6  5  2  0
  8 10  1  0
  9  8  2  0
  9  6  1  0
 10  7  2  0
 10 20  1  0
 11 17  1  0
 11 20  1  0
 12 17  1  0
 13 14  1  0
 13 12  1  0
 15 14  1  0
 15 24  1  0
 15 16  1  0
 17 16  1  0
 18 11  2  0
 20 19  1  0
 21 22  2  0
 22 41  1  0
 23 22  1  0
 23 26  1  0
 24 25  1  0
 24 21  1  0
 25 23  2  0
 26 27  1  0
 27 28  2  0
 29 32  1  0
 29 28  1  0
 30 29  2  0
 31 30  1  0
 31 26  2  0
 32 33  1  0
 33 34  1  0
 34 35  2  0
 36 35  1  0
 36 40  1  0
 37 36  2  0
 38 33  2  0
 38 37  1  0
 39 38  1  0
 41 42  1  0
 42 45  1  0
 42 44  1  0
 43 41  2  0
 46 47  1  0
 46 21  1  0
 48 46  1  0
 49  1  1  0
 49 50  1  0
 51 52  1  0
 51 50  1  0
 53 64  2  0
 54 52  1  0
 54 59  1  0
 55 63  1  0
 55 65  1  0
 56 58  1  0
 57 63  1  0
 58 59  2  0
 58 57  1  0
 60 54  2  0
 61 60  1  0
 61 56  2  0
 62 56  1  0
 62 55  1  0
 63 53  1  0
 65 67  2  0
 66 65  1  0
 68 66  1  0
 69 78  2  0
 69 74  1  0
 70 66  1  0
 70 74  1  0
 71 70  1  0
 72 73  1  0
 72 71  1  0
 73 69  1  0
 74 75  2  0
 75 76  1  0
 77 76  2  0
 78 77  1  0
 79 53  1  0
 79 80  1  0
 79 89  1  0
 80 83  1  0
 81 85  1  0
 81 80  1  0
 82 81  2  0
 85 84  1  0
 87 85  1  0
 87 88  1  0
 87 86  1  0
 89 92  1  1
 89 90  1  0
 91 89  1  0
M  ISO  4  11 100  20 100  51 101  52 101
M  END
>  <TORSDO>  (60) 
F 21

>  <SCORE>  (60) 
-12.938

>  <name>  (60) 
60

>  <ligand_id>  (60) 
60

>  <original_smiles>  (60) 
[H]c1c([H])c([H])c2c(c1[H])C([H])([H])C([H])([H])C([H])([H])C2([H])N([H])C(=O)C1([H])N(C(=O)C([H])(N([H])C(=O)C([H])(N([H])C([H])([H])[H])C([H])([H])[H])C(C([H])([H])[H])(C([H])([H])[H])C([H])([H])[H])C([H])([H])c2c([H])c(OC([H])([H])C([H])([H])C([H])([H])[N+]([H])([H])C([H])([H])c3c([H])c([H])c([H])c(N(C(=O)N4C([H])([H])C([H])([H])C([H])([H])C([H])(n5nc(-c6c([H])c([H])c(Oc7c([H])c([H])c(F)c([H])c7F)c([H])c6[H])c(C(=O)N([H])[H])c5N([H])[H])C4([H])[H])C([H])([H])[H])c3[H])c([H])c([H])c2C1([H])[H]

>  <smiles>  (60) 
[H]c1c([H])c([H])c2c(c1[H])C([H])([H])C([H])([H])C([H])([H])C2([H])N([H])C(=O)C1([H])N(C(=O)C([H])(N([H])C(=O)C([H])(N([H])C([H])([H])[H])C([H])([H])[H])C(C([H])([H])[H])(C([H])([H])[H])C([H])([H])[H])C([H])([H])c2c([H])c(OC([H])([H])C([H])([H])C([H])([H])[N+]([H])([H])C([H])([H])c3c([H])c([H])c([H])c(N(C(=O)N4C([H])([H])C([H])([H])C([H])([H])C([H])(n5nc(-c6c([H])c([H])c(Oc7c([H])c([H])c(F)c([H])c7F)c([H])c6[H])c(C(=O)N([H])[H])c5N([H])[H])C4([H])[H])C([H])([H])[H])c3[H])c([H])c([H])c2C1([H])[H]

$$$$
61:0:0
     RDKit          3D

 95 98  0  0  1  0  0  0  0  0999 V2000
  -24.8590  -28.8320   16.3950 C   0  0  0  0  0  1  0  0  0  0  0  0
  -25.0960  -28.4990   17.8230 N   0  0  1  0  0  4  0  0  0  0  0  0
  -24.3100  -27.9110   18.0550 H   0  0  0  0  0  0  0  0  0  0  0  0
  -26.4020  -27.2130   17.7520 C   0  0  0  0  0  2  0  0  0  0  0  0
  -28.0070  -24.8880   19.0080 C   0  0  0  0  0  3  0  0  0  0  0  0
  -26.5370  -24.0200   17.6380 C   0  0  0  0  0  3  0  0  0  0  0  0
  -28.5420  -23.4850   19.3370 C   0  0  0  0  0  3  0  0  0  0  0  0
  -27.1090  -22.5990   17.9400 C   0  0  0  0  0  3  0  0  0  0  0  0
  -26.8850  -25.3960   18.1560 C   0  0  0  0  0  0  0  0  0  0  0  0
  -28.1960  -22.1040   18.8590 C   0  0  0  0  0  0  0  0  0  0  0  0
  -29.4080  -20.9630   20.6610 C   0  0  0  0  0  1  0  0  0  0  0  0
  -28.8110  -20.6410   19.3730 N   0  0  0  0  0  0  0  0  0  0  0  0
  -29.3770  -19.0030   19.0060 C   0  0  0  0  0  1  0  0  0  0  0  0
  -29.6270  -17.2680   19.9410 C   0  0  0  0  0  1  0  0  0  0  0  0
  -30.5210  -15.5680   19.9230 C   0  0  0  0  0  0  0  0  0  0  0  0
  -30.7130  -12.9860   19.2980 C   0  0  0  0  0  2  0  0  0  0  0  0
  -29.8170  -12.5850   18.0980 C   0  0  0  0  0  2  0  0  0  0  0  0
  -28.3870  -12.2570   18.5590 C   0  0  0  0  0  2  0  0  0  0  0  0
  -27.8930  -13.2650   19.6190 C   0  0  0  0  0  3  0  0  0  0  0  0
  -28.9250  -13.5650   20.7150 C   0  0  0  0  0  2  0  0  0  0  0  0
  -30.0840  -14.1730   20.0220 N   0  0  0  0  0  0  0  0  0  0  0  0
  -31.7640  -15.5020   19.7960 O   0  0  0  0  0  0  0  0  0  0  0  0
  -25.5600  -13.8410   20.4150 C   0  0  0  0  0  0  0  0  0  0  0  0
  -24.4890  -13.0800   20.7840 C   0  0  0  0  0  0  0  0  0  0  0  0
  -24.9400  -11.7220   20.7590 C   0  0  0  0  0  0  0  0  0  0  0  0
  -26.5850  -12.9520   20.1610 N   0  0  0  0  0  0  0  0  0  0  0  0
  -26.2320  -11.6710   20.4430 N   0  0  0  0  0  0  0  0  0  0  0  0
  -24.1920  -10.4720   20.9430 C   0  0  0  0  0  0  0  0  0  0  0  0
  -24.5260   -9.5580   21.9650 C   0  0  0  0  0  3  0  0  0  0  0  0
  -23.7770   -8.3740   22.1360 C   0  0  0  0  0  3  0  0  0  0  0  0
  -22.6760   -8.1010   21.2890 C   0  0  0  0  0  0  0  0  0  0  0  0
  -22.3630   -9.0050   20.2590 C   0  0  0  0  0  3  0  0  0  0  0  0
  -23.1120  -10.1810   20.0850 C   0  0  0  0  0  3  0  0  0  0  0  0
  -21.9060   -6.9670   21.3680 O   0  0  0  0  0  0  0  0  0  0  0  0
  -21.6660   -6.3410   22.5650 C   0  0  0  0  0  0  0  0  0  0  0  0
  -21.0150   -6.9990   23.6310 C   0  0  0  0  0  3  0  0  0  0  0  0
  -20.7240   -6.3000   24.8190 C   0  0  0  0  0  3  0  0  0  0  0  0
  -21.0710   -4.9410   24.9380 C   0  0  0  0  0  0  0  0  0  0  0  0
  -21.7140   -4.2810   23.8760 C   0  0  0  0  0  3  0  0  0  0  0  0
  -22.0060   -4.9780   22.6900 C   0  0  0  0  0  0  0  0  0  0  0  0
  -22.6060   -4.3340   21.6600 F   0  0  0  0  0  0  0  0  0  0  0  0
  -20.7850   -4.2630   26.0750 F   0  0  0  0  0  0  0  0  0  0  0  0
  -23.0970  -13.5820   21.0360 C   0  0  0  0  0  0  0  0  0  0  0  0
  -22.3510  -12.9080   21.9030 N   0  0  0  0  0  0  0  0  0  0  0  0
  -22.6810  -14.6040   20.4920 O   0  0  0  0  0  0  0  0  0  0  0  0
  -22.7000  -12.0820   22.3680 H   0  0  0  0  0  0  0  0  0  0  0  0
  -21.4140  -13.2240   22.1080 H   0  0  0  0  0  0  0  0  0  0  0  0
  -25.7450  -15.2090   20.2380 N   0  0  0  0  0  0  0  0  0  0  0  0
  -24.9890  -15.8760   20.3510 H   0  0  0  0  0  0  0  0  0  0  0  0
  -26.6030  -15.6380   19.9180 H   0  0  0  0  0  0  0  0  0  0  0  0
  -24.6560  -30.0510   18.7700 C   0  0  0  0  0  1  0  0  0  0  0  0
  -23.2020  -30.8500   20.0480 C   0  0  0  0  0 15  0  0  0  0  0  0
  -22.3790  -30.6790   22.0580 C   0  0  0  0  0 15  0  0  0  0  0  0
  -23.7150  -29.7020   23.8350 C   0  0  0  0  0 15  0  0  0  0  0  0
  -25.1160  -28.3110   23.5150 O   0  0  0  0  0  1  0  0  0  0  0  0
  -24.8810  -31.7540   22.9450 C   0  0  0  0  0  0  0  0  0  0  0  0
  -26.2970  -27.6930   22.7710 C   0  0  0  0  0  3  0  0  0  0  0  0
  -23.6470  -28.9100   21.6360 C   0  0  0  0  0  3  0  0  0  0  0  0
  -25.0490  -27.9510   20.7490 C   0  0  1  0  0  0  0  0  0  0  0  0
  -26.0630  -30.3870   21.3150 C   0  0  0  0  0  2  0  0  0  0  0  0
  -26.1290  -28.9180   21.0670 C   0  0  0  0  0  3  0  0  0  0  0  0
  -27.0850  -28.4040   21.8920 C   0  0  0  0  0  2  0  0  0  0  0  0
  -26.0250  -26.4460   22.1120 C   0  0  0  0  0  2  0  0  0  0  0  0
  -25.1910  -26.6190   21.0440 C   0  0  0  0  0  2  0  0  0  0  0  0
  -23.6450  -28.0950   20.5210 C   0  0  0  0  0  2  0  0  0  0  0  0
  -24.8810  -30.4940   21.9780 N   0  0  0  0  0  2  0  0  0  0  0  0
  -23.8650  -32.3150   23.4650 O   0  0  0  0  0  0  0  0  0  0  0  0
  -22.3410  -28.2110   22.4810 C   0  0  0  0  0  0  0  0  0  0  0  0
  -21.0460  -28.6260   22.4760 N   0  0  0  0  0  0  0  0  0  0  0  0
  -22.6680  -27.4650   23.3990 O   0  0  0  0  0  0  0  0  0  0  0  0
  -20.7370  -29.2930   21.7890 H   0  0  0  0  0  0  0  0  0  0  0  0
  -17.5600  -28.3010   22.9750 C   0  0  0  0  0  0  0  0  0  0  0  0
  -20.0760  -28.1290   23.4300 C   0  0  0  0  0  3  0  0  0  0  0  0
  -19.8740  -26.6350   23.1010 C   0  0  0  0  0  2  0  0  0  0  0  0
  -18.9770  -26.4900   21.8870 C   0  0  0  0  0  2  0  0  0  0  0  0
  -17.5800  -26.9310   22.3090 C   0  0  0  0  0  2  0  0  0  0  0  0
  -18.7500  -28.9070   23.4540 C   0  0  0  0  0  0  0  0  0  0  0  0
  -18.6750  -30.2130   23.9990 C   0  0  0  0  0  3  0  0  0  0  0  0
  -17.4330  -30.8770   24.1050 C   0  0  0  0  0  3  0  0  0  0  0  0
  -16.2520  -30.2450   23.6700 C   0  0  0  0  0  3  0  0  0  0  0  0
  -16.3230  -28.9630   23.0980 C   0  0  0  0  0  3  0  0  0  0  0  0
  -25.9450  -32.3740   23.9510 C   0  0  0  0  0  3  0  0  0  0  0  0
  -26.1050  -31.6920   25.4150 C   0  0  1  0  0  0  0  0  0  0  0  0
  -24.8680  -31.6220   26.3950 C   0  0  0  0  0  1  0  0  0  0  0  0
  -26.7620  -30.2950   25.3080 C   0  0  0  0  0  1  0  0  0  0  0  0
  -27.1330  -32.5570   26.1820 C   0  0  0  0  0  1  0  0  0  0  0  0
  -25.5360  -33.7790   24.3090 N   0  0  0  0  0  0  0  0  0  0  0  0
  -25.7130  -34.8610   23.5550 C   0  0  0  0  0  0  0  0  0  0  0  0
  -26.4090  -34.8080   22.5460 O   0  0  0  0  0  0  0  0  0  0  0  0
  -24.9770  -33.8600   25.1390 H   0  0  0  0  0  0  0  0  0  0  0  0
  -23.9100  -36.5800   23.0410 C   0  0  0  0  0  1  0  0  0  0  0  0
  -25.0590  -36.1950   23.9900 C   0  0  0  0  0  3  0  0  0  0  0  0
  -27.0280  -37.1740   25.0910 C   0  0  0  0  0  1  0  0  0  0  0  0
  -26.0290  -37.3140   24.0350 N   0  0  0  0  0  0  0  0  0  0  0  0
  -25.5400  -38.1950   24.1820 H   0  0  0  0  0  0  0  0  0  0  0  0
  1  2  1  0
  2  3  1  1
  2 51  1  0
  4  2  1  0
  4  9  1  0
  5  7  1  0
  6  8  2  0
  6  9  1  0
  8 10  1  0
  9  5  2  0
 10  7  2  0
 10 12  1  0
 12 11  1  0
 13 12  1  0
 15 14  1  0
 15 21  1  0
 16 21  1  0
 17 18  1  0
 17 16  1  0
 19 18  1  0
 19 26  1  0
 19 20  1  0
 21 20  1  0
 22 15  2  0
 23 24  2  0
 24 43  1  0
 25 24  1  0
 25 28  1  0
 26 23  1  0
 26 27  1  0
 27 25  2  0
 28 29  1  0
 29 30  2  0
 31 34  1  0
 31 30  1  0
 32 31  2  0
 33 32  1  0
 33 28  2  0
 34 35  1  0
 35 40  2  0
 35 36  1  0
 36 37  2  0
 37 38  1  0
 38 42  1  0
 39 38  2  0
 40 39  1  0
 41 40  1  0
 43 44  1  0
 44 47  1  0
 44 46  1  0
 45 43  2  0
 48 49  1  0
 48 23  1  0
 50 48  1  0
 56 67  2  0
 57 55  1  0
 58 68  1  0
 59 65  1  1
 59 64  1  0
 59 61  1  0
 59 58  1  0
 60 66  1  0
 61 60  1  0
 61 62  1  0
 62 57  1  0
 63 57  1  0
 64 63  1  0
 65 58  1  0
 66 56  1  0
 68 70  2  0
 69 68  1  0
 71 69  1  0
 72 81  2  0
 72 77  1  0
 73 69  1  0
 73 77  1  0
 74 73  1  0
 75 76  1  0
 75 74  1  0
 76 72  1  0
 77 78  2  0
 78 79  1  0
 80 79  2  0
 81 80  1  0
 82 56  1  0
 82 87  1  0
 82 83  1  0
 83 86  1  1
 83 84  1  0
 85 83  1  0
 87 90  1  0
 88 92  1  0
 88 87  1  0
 89 88  2  0
 92 91  1  0
 92 94  1  0
 94 95  1  0
 94 93  1  0
M  ISO  4  14 100  15 100  54 101  55 101
M  END
>  <TORSDO>  (61) 
F 25

>  <SCORE>  (61) 
-14.717

>  <name>  (61) 
61

>  <ligand_id>  (61) 
61

>  <original_smiles>  (61) 
[H]c1c([H])c([H])c2c(c1[H])C([H])([H])C([H])([H])C([H])([H])C2([H])N([H])C(=O)C1([H])N(C(=O)C([H])(N([H])C(=O)C([H])(N([H])C([H])([H])[H])C([H])([H])[H])C(C([H])([H])[H])(C([H])([H])[H])C([H])([H])[H])C([H])([H])c2c([H])c(OC([H])([H])C([H])([H])C([H])([H])C([H])([H])[N+]([H])(C([H])([H])[H])C([H])([H])c3c([H])c([H])c(N(C([H])([H])[H])C([H])([H])C([H])([H])C(=O)N4C([H])([H])C([H])([H])C([H])([H])C([H])(n5nc(-c6c([H])c([H])c(Oc7c([H])c([H])c(F)c([H])c7F)c([H])c6[H])c(C(=O)N([H])[H])c5N([H])[H])C4([H])[H])c([H])c3[H])c([H])c([H])c2C1([H])[H]

>  <smiles>  (61) 
[H]c1c([H])c([H])c2c(c1[H])C([H])([H])C([H])([H])C([H])([H])C2([H])N([H])C(=O)C1([H])N(C(=O)C([H])(N([H])C(=O)C([H])(N([H])C([H])([H])[H])C([H])([H])[H])C(C([H])([H])[H])(C([H])([H])[H])C([H])([H])[H])C([H])([H])c2c([H])c(OC([H])([H])C([H])([H])C([H])([H])C([H])([H])[N+]([H])(C([H])([H])[H])C([H])([H])c3c([H])c([H])c(N(C([H])([H])[H])C([H])([H])C([H])([H])C(=O)N4C([H])([H])C([H])([H])C([H])([H])C([H])(n5nc(-c6c([H])c([H])c(Oc7c([H])c([H])c(F)c([H])c7F)c([H])c6[H])c(C(=O)N([H])[H])c5N([H])[H])C4([H])[H])c([H])c3[H])c([H])c([H])c2C1([H])[H]

$$$$
62:0:0
     RDKit          3D

 89 97  0  0  1  0  0  0  0  0999 V2000
  -30.5100  -19.8580   19.2160 C   0  0  0  0  0  3  0  0  0  0  0  0
  -30.6960  -18.4230   19.3710 C   0  0  0  0  0  3  0  0  0  0  0  0
  -28.4690  -19.7660   20.3740 C   0  0  0  0  0  3  0  0  0  0  0  0
  -29.3820  -20.6280   19.6830 C   0  0  0  0  0  0  0  0  0  0  0  0
  -29.7510  -17.5640   20.0180 C   0  0  0  0  0  0  0  0  0  0  0  0
  -28.6350  -18.3250   20.5160 C   0  0  0  0  0  0  0  0  0  0  0  0
  -27.6530  -17.6370   21.1470 F   0  0  0  0  0  0  0  0  0  0  0  0
  -30.5600  -14.9400   19.7390 C   0  0  0  0  0  0  0  0  0  0  0  0
  -30.3710  -12.6180   18.7470 C   0  0  0  0  0  2  0  0  0  0  0  0
  -29.3230  -12.6340   17.6080 C   0  0  0  0  0  2  0  0  0  0  0  0
  -27.9020  -12.4200   18.1650 C   0  0  0  0  0  2  0  0  0  0  0  0
  -27.6170  -13.3000   19.4090 C   0  0  0  0  0  3  0  0  0  0  0  0
  -28.7720  -13.2440   20.4340 C   0  0  0  0  0  2  0  0  0  0  0  0
  -29.9940  -13.6670   19.7350 N   0  0  0  0  0  0  0  0  0  0  0  0
  -31.6990  -15.0680   19.2780 O   0  0  0  0  0  0  0  0  0  0  0  0
  -29.7680  -16.0380   20.1440 N   0  0  0  0  0  0  0  0  0  0  0  0
  -28.9430  -15.7100   20.6230 H   0  0  0  0  0  0  0  0  0  0  0  0
  -25.3200  -13.8670   20.3920 C   0  0  0  0  0  0  0  0  0  0  0  0
  -24.2860  -13.0850   20.8260 C   0  0  0  0  0  0  0  0  0  0  0  0
  -24.7280  -11.7330   20.6910 C   0  0  0  0  0  0  0  0  0  0  0  0
  -26.3260  -12.9940   20.0150 N   0  0  0  0  0  0  0  0  0  0  0  0
  -25.9840  -11.7010   20.2570 N   0  0  0  0  0  0  0  0  0  0  0  0
  -24.0070  -10.4690   20.8910 C   0  0  0  0  0  0  0  0  0  0  0  0
  -24.4620   -9.4970   21.8090 C   0  0  0  0  0  3  0  0  0  0  0  0
  -23.7400   -8.2990   21.9990 C   0  0  0  0  0  3  0  0  0  0  0  0
  -22.5480   -8.0650   21.2720 C   0  0  0  0  0  0  0  0  0  0  0  0
  -22.1130   -9.0270   20.3440 C   0  0  0  0  0  3  0  0  0  0  0  0
  -22.8360  -10.2150   20.1510 C   0  0  0  0  0  3  0  0  0  0  0  0
  -21.7950   -6.9200   21.3730 O   0  0  0  0  0  0  0  0  0  0  0  0
  -21.7130   -6.2150   22.5460 C   0  0  0  0  0  0  0  0  0  0  0  0
  -21.2000   -6.7920   23.7280 C   0  0  0  0  0  3  0  0  0  0  0  0
  -21.0670   -6.0100   24.8930 C   0  0  0  0  0  3  0  0  0  0  0  0
  -21.4360   -4.6520   24.8760 C   0  0  0  0  0  0  0  0  0  0  0  0
  -21.9410   -4.0740   23.6990 C   0  0  0  0  0  3  0  0  0  0  0  0
  -22.0760   -4.8520   22.5360 C   0  0  0  0  0  0  0  0  0  0  0  0
  -22.5430   -4.2850   21.3980 F   0  0  0  0  0  0  0  0  0  0  0  0
  -21.3020   -3.8990   25.9930 F   0  0  0  0  0  0  0  0  0  0  0  0
  -22.9270  -13.5600   21.2500 C   0  0  0  0  0  0  0  0  0  0  0  0
  -22.2790  -12.8350   22.1550 N   0  0  0  0  0  0  0  0  0  0  0  0
  -22.4520  -14.6080   20.8150 O   0  0  0  0  0  0  0  0  0  0  0  0
  -22.6770  -11.9860   22.5270 H   0  0  0  0  0  0  0  0  0  0  0  0
  -21.3700  -13.1350   22.4810 H   0  0  0  0  0  0  0  0  0  0  0  0
  -25.4810  -15.2440   20.2610 N   0  0  0  0  0  0  0  0  0  0  0  0
  -24.7390  -15.8960   20.4870 H   0  0  0  0  0  0  0  0  0  0  0  0
  -26.2990  -15.6980   19.8740 H   0  0  0  0  0  0  0  0  0  0  0  0
  -29.2420  -22.1950   19.3630 C   0  0  0  0  0  3  0  0  0  0  0  0
  -28.5310  -23.3390   19.8000 C   0  0  0  0  0  3  0  0  0  0  0  0
  -28.4700  -24.8310   19.1070 C   0  0  0  0  0  2  0  0  0  0  0  0
  -28.3790  -26.2080   19.8120 O   0  0  0  0  0  0  0  0  0  0  0  0
  -24.5960  -31.6500   22.9830 C   0  0  0  0  0  0  0  0  0  0  0  0
  -27.2780  -27.1380   19.7430 C   0  0  0  0  0  0  0  0  0  0  0  0
  -23.4170  -30.2840   21.3030 C   0  0  0  0  0  3  0  0  0  0  0  0
  -24.8940  -28.8090   19.8040 C   0  0  0  0  0  0  0  0  0  0  0  0
  -25.9600  -30.6280   21.1260 C   0  0  0  0  0  2  0  0  0  0  0  0
  -26.0640  -29.2660   20.4200 C   0  0  0  0  0  0  0  0  0  0  0  0
  -27.2510  -28.4440   20.3790 C   0  0  0  0  0  3  0  0  0  0  0  0
  -26.0720  -26.7780   19.0980 C   0  0  0  0  0  3  0  0  0  0  0  0
  -24.9090  -27.5780   19.1310 C   0  0  0  0  0  3  0  0  0  0  0  0
  -23.6430  -29.6670   19.8970 C   0  0  0  0  0  2  0  0  0  0  0  0
  -24.6780  -30.8750   21.8600 N   0  0  0  0  0  0  0  0  0  0  0  0
  -23.5080  -31.8850   23.5310 O   0  0  0  0  0  0  0  0  0  0  0  0
  -22.7770  -29.2240   22.2320 C   0  0  0  0  0  0  0  0  0  0  0  0
  -21.4490  -29.0360   22.1260 N   0  0  0  0  0  0  0  0  0  0  0  0
  -23.4760  -28.5710   23.0130 O   0  0  0  0  0  0  0  0  0  0  0  0
  -20.9400  -29.6160   21.4730 H   0  0  0  0  0  0  0  0  0  0  0  0
  -18.0910  -27.7940   22.6790 C   0  0  0  0  0  0  0  0  0  0  0  0
  -20.6570  -28.0550   22.8720 C   0  0  0  0  0  3  0  0  0  0  0  0
  -20.7440  -26.6570   22.2140 C   0  0  0  0  0  2  0  0  0  0  0  0
  -19.6080  -26.3860   21.2230 C   0  0  0  0  0  2  0  0  0  0  0  0
  -18.2490  -26.4860   21.9220 C   0  0  0  0  0  2  0  0  0  0  0  0
  -19.2220  -28.5380   23.1110 C   0  0  0  0  0  0  0  0  0  0  0  0
  -19.0190  -29.7630   23.7820 C   0  0  0  0  0  3  0  0  0  0  0  0
  -17.7180  -30.2450   24.0240 C   0  0  0  0  0  3  0  0  0  0  0  0
  -16.6040  -29.4980   23.6070 C   0  0  0  0  0  3  0  0  0  0  0  0
  -16.7910  -28.2740   22.9400 C   0  0  0  0  0  3  0  0  0  0  0  0
  -25.8630  -32.2960   23.6220 C   0  0  0  0  0  3  0  0  0  0  0  0
  -25.5110  -33.6670   24.0260 N   0  0  0  0  0  0  0  0  0  0  0  0
  -25.7980  -34.7690   23.3200 C   0  0  0  0  0  0  0  0  0  0  0  0
  -26.4530  -34.7400   22.2750 O   0  0  0  0  0  0  0  0  0  0  0  0
  -24.9240  -33.7600   24.8420 H   0  0  0  0  0  0  0  0  0  0  0  0
  -24.0120  -36.5280   23.0870 C   0  0  0  0  0  1  0  0  0  0  0  0
  -25.2770  -36.1170   23.8590 C   0  0  0  0  0  3  0  0  0  0  0  0
  -27.3910  -37.0310   24.7150 C   0  0  0  0  0  1  0  0  0  0  0  0
  -26.2770  -37.2050   23.7870 N   0  0  0  0  0  0  0  0  0  0  0  0
  -25.8430  -38.1050   23.9780 H   0  0  0  0  0  0  0  0  0  0  0  0
  -26.4170  -31.4850   24.8570 C   0  0  1  0  0  0  0  0  0  0  0  0
  -25.3430  -31.1630   25.9240 C   0  0  0  0  0  1  0  0  0  0  0  0
  -27.0400  -30.1450   24.4020 C   0  0  0  0  0  1  0  0  0  0  0  0
  -27.5480  -32.2860   25.5450 C   0  0  0  0  0  1  0  0  0  0  0  0
  1  2  2  0
  1  4  1  0
  2  5  1  0
  3  6  1  0
  4  3  2  0
  5 16  1  0
  5  6  2  0
  6  7  1  0
  8 16  1  0
  9 14  1  0
 10 11  1  0
 10  9  1  0
 12 11  1  0
 12 21  1  0
 12 13  1  0
 14  8  1  0
 14 13  1  0
 15  8  2  0
 16 17  1  0
 18 19  2  0
 19 38  1  0
 20 19  1  0
 20 23  1  0
 21 22  1  0
 21 18  1  0
 22 20  2  0
 23 24  1  0
 24 25  2  0
 26 29  1  0
 26 25  1  0
 27 26  2  0
 28 27  1  0
 28 23  2  0
 29 30  1  0
 30 31  1  0
 31 32  2  0
 33 32  1  0
 33 37  1  0
 34 33  2  0
 35 30  2  0
 35 34  1  0
 36 35  1  0
 38 39  1  0
 39 42  1  0
 39 41  1  0
 40 38  2  0
 43 18  1  0
 43 44  1  0
 45 43  1  0
 46  4  1  0
 46 47  2  0
 48 47  1  0
 48 49  1  0
 50 61  2  0
 51 49  1  0
 51 56  1  0
 52 60  1  0
 52 62  1  0
 53 59  1  0
 53 55  1  0
 54 60  1  0
 55 54  1  0
 56 55  2  0
 57 58  1  0
 57 51  2  0
 58 53  2  0
 59 52  1  0
 60 50  1  0
 62 64  2  0
 63 62  1  0
 65 63  1  0
 66 75  2  0
 66 71  1  0
 67 63  1  0
 67 71  1  0
 68 67  1  0
 69 70  1  0
 69 68  1  0
 70 66  1  0
 71 72  2  0
 72 73  1  0
 74 73  2  0
 75 74  1  0
 76 50  1  0
 76 77  1  0
 76 86  1  0
 77 80  1  0
 78 82  1  0
 78 77  1  0
 79 78  2  0
 82 81  1  0
 84 82  1  0
 84 85  1  0
 84 83  1  0
 86 89  1  1
 86 87  1  0
 88 86  1  0
M  ISO  4   8 100  16 100  48 101  49 101
M  END
>  <TORSDO>  (62) 
F 18

>  <SCORE>  (62) 
-13.550

>  <name>  (62) 
62

>  <ligand_id>  (62) 
62

>  <original_smiles>  (62) 
[H]C(=C([H])C([H])([H])Oc1c([H])c([H])c2c(c1[H])C([H])([H])N(C(=O)C([H])(N([H])C(=O)C([H])(N([H])C([H])([H])[H])C([H])([H])[H])C(C([H])([H])[H])(C([H])([H])[H])C([H])([H])[H])C([H])(C(=O)N([H])C1([H])c3c([H])c([H])c([H])c([H])c3C([H])([H])C([H])([H])C1([H])[H])C2([H])[H])c1c([H])c([H])c(N([H])C(=O)N2C([H])([H])C([H])([H])C([H])([H])C([H])(n3nc(-c4c([H])c([H])c(Oc5c([H])c([H])c(F)c([H])c5F)c([H])c4[H])c(C(=O)N([H])[H])c3N([H])[H])C2([H])[H])c(F)c1[H]

>  <smiles>  (62) 
[H]C(=C([H])C([H])([H])Oc1c([H])c([H])c2c(c1[H])C([H])([H])N(C(=O)C([H])(N([H])C(=O)C([H])(N([H])C([H])([H])[H])C([H])([H])[H])C(C([H])([H])[H])(C([H])([H])[H])C([H])([H])[H])C([H])(C(=O)N([H])C1([H])c3c([H])c([H])c([H])c([H])c3C([H])([H])C([H])([H])C1([H])[H])C2([H])[H])c1c([H])c([H])c(N([H])C(=O)N2C([H])([H])C([H])([H])C([H])([H])C([H])(n3nc(-c4c([H])c([H])c(Oc5c([H])c([H])c(F)c([H])c5F)c([H])c4[H])c(C(=O)N([H])[H])c3N([H])[H])C2([H])[H])c(F)c1[H]

$$$$
63:0:0
     RDKit          3D

 85 92  0  0  1  0  0  0  0  0999 V2000
  -28.8640  -23.1500   20.4760 C   0  0  0  0  0  3  0  0  0  0  0  0
  -28.0930  -24.5670   19.8730 C   0  0  0  0  0  3  0  0  0  0  0  0
  -28.2450  -26.0940   20.2740 O   0  0  0  0  0  0  0  0  0  0  0  0
  -24.6430  -31.8630   23.2170 C   0  0  0  0  0  0  0  0  0  0  0  0
  -27.2000  -27.1050   20.1780 C   0  0  0  0  0  0  0  0  0  0  0  0
  -23.4350  -30.4630   21.5890 C   0  0  0  0  0  3  0  0  0  0  0  0
  -24.8750  -28.8840   20.1520 C   0  0  0  0  0  0  0  0  0  0  0  0
  -25.9900  -30.7180   21.4120 C   0  0  0  0  0  2  0  0  0  0  0  0
  -26.0590  -29.3200   20.7600 C   0  0  0  0  0  0  0  0  0  0  0  0
  -27.2170  -28.4460   20.7570 C   0  0  0  0  0  3  0  0  0  0  0  0
  -25.9930  -26.7900   19.5130 C   0  0  0  0  0  3  0  0  0  0  0  0
  -24.8590  -27.6340   19.5120 C   0  0  0  0  0  3  0  0  0  0  0  0
  -23.6480  -29.7830   20.2100 C   0  0  0  0  0  2  0  0  0  0  0  0
  -24.7100  -31.0380   22.1270 N   0  0  0  0  0  0  0  0  0  0  0  0
  -23.5600  -32.1490   23.7520 O   0  0  0  0  0  0  0  0  0  0  0  0
  -22.7600  -29.4590   22.5590 C   0  0  0  0  0  0  0  0  0  0  0  0
  -21.4320  -29.2860   22.4400 N   0  0  0  0  0  0  0  0  0  0  0  0
  -23.4370  -28.8390   23.3830 O   0  0  0  0  0  0  0  0  0  0  0  0
  -20.9410  -29.8380   21.7510 H   0  0  0  0  0  0  0  0  0  0  0  0
  -18.0590  -28.0620   22.9550 C   0  0  0  0  0  0  0  0  0  0  0  0
  -20.6170  -28.3490   23.2190 C   0  0  0  0  0  3  0  0  0  0  0  0
  -20.7300  -26.9130   22.6570 C   0  0  0  0  0  2  0  0  0  0  0  0
  -19.6300  -26.5720   21.6450 C   0  0  0  0  0  2  0  0  0  0  0  0
  -18.2480  -26.7100   22.2880 C   0  0  0  0  0  2  0  0  0  0  0  0
  -19.1720  -28.8380   23.3780 C   0  0  0  0  0  0  0  0  0  0  0  0
  -18.9390  -30.1020   23.9630 C   0  0  0  0  0  3  0  0  0  0  0  0
  -17.6300  -30.5900   24.1290 C   0  0  0  0  0  3  0  0  0  0  0  0
  -16.5330  -29.8120   23.7200 C   0  0  0  0  0  3  0  0  0  0  0  0
  -16.7480  -28.5500   23.1390 C   0  0  0  0  0  3  0  0  0  0  0  0
  -25.9230  -32.5030   23.8350 C   0  0  0  0  0  3  0  0  0  0  0  0
  -25.6120  -33.9040   24.1640 N   0  0  0  0  0  0  0  0  0  0  0  0
  -25.9370  -34.9600   23.4050 C   0  0  0  0  0  0  0  0  0  0  0  0
  -26.5980  -34.8560   22.3680 O   0  0  0  0  0  0  0  0  0  0  0  0
  -25.0240  -34.0590   24.9690 H   0  0  0  0  0  0  0  0  0  0  0  0
  -24.2000  -36.7520   23.0810 C   0  0  0  0  0  1  0  0  0  0  0  0
  -25.4580  -36.3500   23.8690 C   0  0  0  0  0  3  0  0  0  0  0  0
  -27.6070  -37.2420   24.6540 C   0  0  0  0  0  1  0  0  0  0  0  0
  -26.4860  -37.4050   23.7320 N   0  0  0  0  0  0  0  0  0  0  0  0
  -26.0810  -38.3250   23.8840 H   0  0  0  0  0  0  0  0  0  0  0  0
  -26.4380  -31.7420   25.1190 C   0  0  1  0  0  0  0  0  0  0  0  0
  -25.3470  -31.5190   26.1920 C   0  0  0  0  0  1  0  0  0  0  0  0
  -27.0160  -30.3590   24.7450 C   0  0  0  0  0  1  0  0  0  0  0  0
  -27.5930  -32.5390   25.7710 C   0  0  0  0  0  1  0  0  0  0  0  0
  -28.9820  -21.5880   19.7540 C   0  0  0  0  0  2  0  0  0  0  0  0
  -30.6080  -20.1220   21.5440 O   0  0  0  0  0  0  0  0  0  0  0  0
  -28.1950  -19.5170   21.5100 O   0  0  0  0  0  0  0  0  0  0  0  0
  -29.4120  -19.8230   20.7400 S   0  0  1  0  0  0  0  0  0  0  0  0
  -29.8680  -18.0710   19.7510 C   0  0  0  0  0  3  0  0  0  0  0  0
  -29.8310  -16.5070   20.4610 C   0  0  0  0  0  3  0  0  0  0  0  0
  -30.5360  -15.0660   19.9390 C   0  0  0  0  0  0  0  0  0  0  0  0
  -30.3720  -12.7080   18.9580 C   0  0  0  0  0  2  0  0  0  0  0  0
  -29.3780  -12.6900   17.7690 C   0  0  0  0  0  2  0  0  0  0  0  0
  -27.9360  -12.4770   18.2660 C   0  0  0  0  0  2  0  0  0  0  0  0
  -27.5980  -13.3780   19.4810 C   0  0  0  0  0  3  0  0  0  0  0  0
  -28.7060  -13.3600   20.5550 C   0  0  0  0  0  2  0  0  0  0  0  0
  -29.9520  -13.7890   19.9050 N   0  0  0  0  0  0  0  0  0  0  0  0
  -31.6910  -15.1180   19.4970 O   0  0  0  0  0  0  0  0  0  0  0  0
  -25.2620  -13.9640   20.3430 C   0  0  0  0  0  0  0  0  0  0  0  0
  -24.2090  -13.1930   20.7530 C   0  0  0  0  0  0  0  0  0  0  0  0
  -24.6570  -11.8390   20.6810 C   0  0  0  0  0  0  0  0  0  0  0  0
  -26.2830  -13.0800   20.0390 N   0  0  0  0  0  0  0  0  0  0  0  0
  -25.9320  -11.7950   20.3080 N   0  0  0  0  0  0  0  0  0  0  0  0
  -23.9270  -10.5820   20.8890 C   0  0  0  0  0  0  0  0  0  0  0  0
  -24.3860   -9.5990   21.7940 C   0  0  0  0  0  3  0  0  0  0  0  0
  -23.6540   -8.4090   21.9910 C   0  0  0  0  0  3  0  0  0  0  0  0
  -22.4480   -8.1920   21.2840 C   0  0  0  0  0  0  0  0  0  0  0  0
  -22.0070   -9.1620   20.3670 C   0  0  0  0  0  3  0  0  0  0  0  0
  -22.7400  -10.3430   20.1670 C   0  0  0  0  0  3  0  0  0  0  0  0
  -21.6850   -7.0530   21.3910 O   0  0  0  0  0  0  0  0  0  0  0  0
  -21.6680   -6.3040   22.5400 C   0  0  0  0  0  0  0  0  0  0  0  0
  -21.3070   -6.8600   23.7870 C   0  0  0  0  0  3  0  0  0  0  0  0
  -21.2350   -6.0380   24.9290 C   0  0  0  0  0  3  0  0  0  0  0  0
  -21.5140   -4.6630   24.8270 C   0  0  0  0  0  0  0  0  0  0  0  0
  -21.8680   -4.1060   23.5850 C   0  0  0  0  0  3  0  0  0  0  0  0
  -21.9410   -4.9250   22.4450 C   0  0  0  0  0  0  0  0  0  0  0  0
  -22.2620   -4.3800   21.2470 F   0  0  0  0  0  0  0  0  0  0  0  0
  -21.4380   -3.8710   25.9230 F   0  0  0  0  0  0  0  0  0  0  0  0
  -22.8320  -13.6800   21.0970 C   0  0  0  0  0  0  0  0  0  0  0  0
  -22.1400  -12.9840   21.9920 N   0  0  0  0  0  0  0  0  0  0  0  0
  -22.3800  -14.7150   20.6060 O   0  0  0  0  0  0  0  0  0  0  0  0
  -22.5200  -12.1480   22.4080 H   0  0  0  0  0  0  0  0  0  0  0  0
  -21.2180  -13.2930   22.2630 H   0  0  0  0  0  0  0  0  0  0  0  0
  -25.4310  -15.3360   20.1790 N   0  0  0  0  0  0  0  0  0  0  0  0
  -24.6780  -15.9960   20.3430 H   0  0  0  0  0  0  0  0  0  0  0  0
  -26.2690  -15.7730   19.8160 H   0  0  0  0  0  0  0  0  0  0  0  0
  2  3  1  0
  2  1  2  0
  4 15  2  0
  5  3  1  0
  5 10  1  0
  6 14  1  0
  6 16  1  0
  7 13  1  0
  7  9  1  0
  8 14  1  0
  9  8  1  0
 10  9  2  0
 11  5  2  0
 12 11  1  0
 12  7  2  0
 13  6  1  0
 14  4  1  0
 16 18  2  0
 17 16  1  0
 19 17  1  0
 20 29  2  0
 20 25  1  0
 21 17  1  0
 21 25  1  0
 22 21  1  0
 23 24  1  0
 23 22  1  0
 24 20  1  0
 25 26  2  0
 26 27  1  0
 28 27  2  0
 29 28  1  0
 30  4  1  0
 30 31  1  0
 30 40  1  0
 31 34  1  0
 32 36  1  0
 32 31  1  0
 33 32  2  0
 36 35  1  0
 38 36  1  0
 38 39  1  0
 38 37  1  0
 40 43  1  1
 40 41  1  0
 42 40  1  0
 44  1  1  0
 47 44  1  6
 47 46  2  0
 47 45  2  0
 48 49  2  0
 48 47  1  0
 50 49  1  0
 51 56  1  0
 52 53  1  0
 52 51  1  0
 54 53  1  0
 54 61  1  0
 54 55  1  0
 56 50  1  0
 56 55  1  0
 57 50  2  0
 58 59  2  0
 59 78  1  0
 60 59  1  0
 60 63  1  0
 61 62  1  0
 61 58  1  0
 62 60  2  0
 63 64  1  0
 64 65  2  0
 66 69  1  0
 66 65  1  0
 67 66  2  0
 68 67  1  0
 68 63  2  0
 69 70  1  0
 70 71  1  0
 71 72  2  0
 73 72  1  0
 73 77  1  0
 74 73  2  0
 75 70  2  0
 75 74  1  0
 76 75  1  0
 78 79  1  0
 79 82  1  0
 79 81  1  0
 80 78  2  0
 83 84  1  0
 83 58  1  0
 85 83  1  0
M  ISO  4   2 101   3 101  49 100  50 100
M  END
>  <TORSDO>  (63) 
F 21

>  <SCORE>  (63) 
-14.548

>  <name>  (63) 
63

>  <ligand_id>  (63) 
63

>  <original_smiles>  (63) 
[H]c1c([H])c([H])c2c(c1[H])C([H])([H])C([H])([H])C([H])([H])C2([H])N([H])C(=O)C1([H])N(C(=O)C([H])(N([H])C(=O)C([H])(N([H])C([H])([H])[H])C([H])([H])[H])C(C([H])([H])[H])(C([H])([H])[H])C([H])([H])[H])C([H])([H])c2c([H])c(OC([H])([H])C([H])([H])C([H])([H])S(=O)(=O)C([H])([H])C([H])([H])C(=O)N3C([H])([H])C([H])([H])C([H])([H])C([H])(n4nc(-c5c([H])c([H])c(Oc6c([H])c([H])c(F)c([H])c6F)c([H])c5[H])c(C(=O)N([H])[H])c4N([H])[H])C3([H])[H])c([H])c([H])c2C1([H])[H]

>  <smiles>  (63) 
[H]c1c([H])c([H])c2c(c1[H])C([H])([H])C([H])([H])C([H])([H])C2([H])N([H])C(=O)C1([H])N(C(=O)C([H])(N([H])C(=O)C([H])(N([H])C([H])([H])[H])C([H])([H])[H])C(C([H])([H])[H])(C([H])([H])[H])C([H])([H])[H])C([H])([H])c2c([H])c(OC([H])([H])C([H])([H])C([H])([H])S(=O)(=O)C([H])([H])C([H])([H])C(=O)N3C([H])([H])C([H])([H])C([H])([H])C([H])(n4nc(-c5c([H])c([H])c(Oc6c([H])c([H])c(F)c([H])c6F)c([H])c5[H])c(C(=O)N([H])[H])c4N([H])[H])C3([H])[H])c([H])c([H])c2C1([H])[H]

$$$$
64:0:0
     RDKit          3D

 91 99  0  0  1  0  0  0  0  0999 V2000
  -28.1370  -22.3490   22.5800 C   0  0  0  0  0  1  0  0  0  0  0  0
  -29.0540  -22.2430   21.4440 N   0  0  0  0  0  0  0  0  0  0  0  0
  -30.6790  -18.9020   21.9470 C   0  0  0  0  0  3  0  0  0  0  0  0
  -29.8280  -18.9990   19.6790 C   0  0  0  0  0  3  0  0  0  0  0  0
  -30.1830  -20.2010   22.1870 C   0  0  0  0  0  3  0  0  0  0  0  0
  -29.3550  -20.3090   19.9130 C   0  0  0  0  0  3  0  0  0  0  0  0
  -30.4990  -18.2780   20.6950 C   0  0  0  0  0  0  0  0  0  0  0  0
  -29.5190  -20.9340   21.1740 C   0  0  0  0  0  0  0  0  0  0  0  0
  -31.1680  -16.9330   20.3840 C   0  0  0  0  0  2  0  0  0  0  0  0
  -30.8420  -14.5460   19.9580 C   0  0  0  0  0  0  0  0  0  0  0  0
  -30.3640  -12.3860   18.8480 C   0  0  0  0  0  2  0  0  0  0  0  0
  -29.3640  -12.5690   17.6880 C   0  0  0  0  0  2  0  0  0  0  0  0
  -27.9250  -12.3920   18.2000 C   0  0  0  0  0  2  0  0  0  0  0  0
  -27.6530  -13.2570   19.4570 C   0  0  0  0  0  3  0  0  0  0  0  0
  -28.7720  -13.0880   20.5060 C   0  0  0  0  0  2  0  0  0  0  0  0
  -30.0690  -13.4120   19.8750 N   0  0  0  0  0  0  0  0  0  0  0  0
  -31.8670  -14.6330   19.2680 O   0  0  0  0  0  0  0  0  0  0  0  0
  -29.8750  -15.5920   22.0130 C   0  0  0  0  0  1  0  0  0  0  0  0
  -30.4420  -15.6540   20.6600 N   0  0  0  0  0  0  0  0  0  0  0  0
  -25.3240  -13.8590   20.3650 C   0  0  0  0  0  0  0  0  0  0  0  0
  -24.2840  -13.0830   20.7990 C   0  0  0  0  0  0  0  0  0  0  0  0
  -24.7340  -11.7310   20.7070 C   0  0  0  0  0  0  0  0  0  0  0  0
  -26.3400  -12.9770   20.0310 N   0  0  0  0  0  0  0  0  0  0  0  0
  -25.9950  -11.6910   20.2940 N   0  0  0  0  0  0  0  0  0  0  0  0
  -24.0200  -10.4680   20.9300 C   0  0  0  0  0  0  0  0  0  0  0  0
  -24.4760   -9.5190   21.8700 C   0  0  0  0  0  3  0  0  0  0  0  0
  -23.7610   -8.3220   22.0820 C   0  0  0  0  0  3  0  0  0  0  0  0
  -22.5760   -8.0650   21.3530 C   0  0  0  0  0  0  0  0  0  0  0  0
  -22.1380   -9.0050   20.4030 C   0  0  0  0  0  3  0  0  0  0  0  0
  -22.8530  -10.1940   20.1910 C   0  0  0  0  0  3  0  0  0  0  0  0
  -21.8320   -6.9150   21.4700 O   0  0  0  0  0  0  0  0  0  0  0  0
  -21.7440   -6.2320   22.6560 C   0  0  0  0  0  0  0  0  0  0  0  0
  -21.2720   -6.8450   23.8380 C   0  0  0  0  0  3  0  0  0  0  0  0
  -21.1330   -6.0870   25.0160 C   0  0  0  0  0  3  0  0  0  0  0  0
  -21.4570   -4.7180   25.0170 C   0  0  0  0  0  0  0  0  0  0  0  0
  -21.9230   -4.1040   23.8400 C   0  0  0  0  0  3  0  0  0  0  0  0
  -22.0640   -4.8600   22.6640 C   0  0  0  0  0  0  0  0  0  0  0  0
  -22.4940   -4.2590   21.5270 F   0  0  0  0  0  0  0  0  0  0  0  0
  -21.3160   -3.9870   26.1470 F   0  0  0  0  0  0  0  0  0  0  0  0
  -22.9170  -13.5640   21.1920 C   0  0  0  0  0  0  0  0  0  0  0  0
  -22.2650  -12.8700   22.1190 N   0  0  0  0  0  0  0  0  0  0  0  0
  -22.4370  -14.5890   20.7100 O   0  0  0  0  0  0  0  0  0  0  0  0
  -22.6650  -12.0410   22.5300 H   0  0  0  0  0  0  0  0  0  0  0  0
  -21.3520  -13.1760   22.4220 H   0  0  0  0  0  0  0  0  0  0  0  0
  -25.4800  -15.2320   20.2090 N   0  0  0  0  0  0  0  0  0  0  0  0
  -24.7280  -15.8830   20.4090 H   0  0  0  0  0  0  0  0  0  0  0  0
  -26.3240  -15.6890   19.8850 H   0  0  0  0  0  0  0  0  0  0  0  0
  -28.9170  -23.1870   20.3270 C   0  0  0  0  0  2  0  0  0  0  0  0
  -28.7330  -24.6650   20.7560 C   0  0  0  0  0  2  0  0  0  0  0  0
  -28.6730  -25.6020   19.5350 C   0  0  0  0  0  2  0  0  0  0  0  0
  -28.5220  -26.9680   19.9240 O   0  0  0  0  0  0  0  0  0  0  0  0
  -24.6430  -31.9220   23.1970 C   0  0  0  0  0  0  0  0  0  0  0  0
  -27.2880  -27.5890   19.9660 C   0  0  0  0  0  0  0  0  0  0  0  0
  -23.4100  -30.5260   21.5620 C   0  0  0  0  0  3  0  0  0  0  0  0
  -24.8530  -29.0380   20.0760 C   0  0  0  0  0  0  0  0  0  0  0  0
  -25.9230  -30.9390   21.3000 C   0  0  0  0  0  2  0  0  0  0  0  0
  -26.0160  -29.5800   20.6330 C   0  0  0  0  0  0  0  0  0  0  0  0
  -27.2310  -28.8660   20.5710 C   0  0  0  0  0  3  0  0  0  0  0  0
  -26.0990  -27.0480   19.4210 C   0  0  0  0  0  3  0  0  0  0  0  0
  -24.8890  -27.7710   19.4700 C   0  0  0  0  0  3  0  0  0  0  0  0
  -23.5950  -29.8710   20.1650 C   0  0  0  0  0  2  0  0  0  0  0  0
  -24.6770  -31.1470   22.0760 N   0  0  0  0  0  0  0  0  0  0  0  0
  -23.5730  -32.1610   23.7750 O   0  0  0  0  0  0  0  0  0  0  0  0
  -22.8050  -29.4770   22.5230 C   0  0  0  0  0  0  0  0  0  0  0  0
  -21.4880  -29.2440   22.4020 N   0  0  0  0  0  0  0  0  0  0  0  0
  -23.5150  -28.8730   23.3320 O   0  0  0  0  0  0  0  0  0  0  0  0
  -20.9740  -29.7750   21.7130 H   0  0  0  0  0  0  0  0  0  0  0  0
  -18.1710  -27.8950   22.8690 C   0  0  0  0  0  0  0  0  0  0  0  0
  -20.7090  -28.2750   23.1730 C   0  0  0  0  0  3  0  0  0  0  0  0
  -20.8890  -26.8480   22.6060 C   0  0  0  0  0  2  0  0  0  0  0  0
  -19.8190  -26.4650   21.5810 C   0  0  0  0  0  2  0  0  0  0  0  0
  -18.4240  -26.5500   22.2070 C   0  0  0  0  0  2  0  0  0  0  0  0
  -19.2450  -28.7120   23.3060 C   0  0  0  0  0  0  0  0  0  0  0  0
  -18.9600  -29.9710   23.8790 C   0  0  0  0  0  3  0  0  0  0  0  0
  -17.6310  -30.4110   24.0260 C   0  0  0  0  0  3  0  0  0  0  0  0
  -16.5700  -29.5920   23.6050 C   0  0  0  0  0  3  0  0  0  0  0  0
  -16.8400  -28.3350   23.0330 C   0  0  0  0  0  3  0  0  0  0  0  0
  -25.9380  -32.5580   23.7930 C   0  0  0  0  0  3  0  0  0  0  0  0
  -25.6320  -33.9540   24.1340 N   0  0  0  0  0  0  0  0  0  0  0  0
  -25.9370  -35.0090   23.3650 C   0  0  0  0  0  0  0  0  0  0  0  0
  -26.5810  -34.9120   22.3170 O   0  0  0  0  0  0  0  0  0  0  0  0
  -25.0620  -34.1050   24.9540 H   0  0  0  0  0  0  0  0  0  0  0  0
  -24.1780  -36.7740   23.0510 C   0  0  0  0  0  1  0  0  0  0  0  0
  -25.4440  -36.3910   23.8340 C   0  0  0  0  0  3  0  0  0  0  0  0
  -27.5860  -37.2930   24.6210 C   0  0  0  0  0  1  0  0  0  0  0  0
  -26.4630  -37.4550   23.7010 N   0  0  0  0  0  0  0  0  0  0  0  0
  -26.0510  -38.3700   23.8610 H   0  0  0  0  0  0  0  0  0  0  0  0
  -26.4920  -31.7840   25.0540 C   0  0  1  0  0  0  0  0  0  0  0  0
  -25.4220  -31.5090   26.1340 C   0  0  0  0  0  1  0  0  0  0  0  0
  -27.0960  -30.4250   24.6360 C   0  0  0  0  0  1  0  0  0  0  0  0
  -27.6370  -32.5920   25.7100 C   0  0  0  0  0  1  0  0  0  0  0  0
  2  1  1  0
  3  5  1  0
  4  6  2  0
  4  7  1  0
  6  8  1  0
  7  3  2  0
  8  2  1  0
  8  5  2  0
  9 19  1  0
  9  7  1  0
 10 19  1  0
 11 16  1  0
 12 13  1  0
 12 11  1  0
 14 13  1  0
 14 23  1  0
 14 15  1  0
 16 10  1  0
 16 15  1  0
 17 10  2  0
 19 18  1  0
 20 21  2  0
 21 40  1  0
 22 21  1  0
 22 25  1  0
 23 24  1  0
 23 20  1  0
 24 22  2  0
 25 26  1  0
 26 27  2  0
 28 31  1  0
 28 27  1  0
 29 28  2  0
 30 29  1  0
 30 25  2  0
 31 32  1  0
 32 37  2  0
 32 33  1  0
 33 34  2  0
 34 35  1  0
 35 39  1  0
 36 35  2  0
 37 36  1  0
 38 37  1  0
 40 41  1  0
 41 44  1  0
 41 43  1  0
 42 40  2  0
 45 20  1  0
 45 46  1  0
 47 45  1  0
 48 49  1  0
 48  2  1  0
 50 51  1  0
 50 49  1  0
 51 53  1  0
 52 63  2  0
 53 58  1  0
 54 62  1  0
 54 64  1  0
 55 61  1  0
 55 57  1  0
 56 62  1  0
 57 56  1  0
 58 57  2  0
 59 60  1  0
 59 53  2  0
 60 55  2  0
 61 54  1  0
 62 52  1  0
 64 66  2  0
 65 64  1  0
 67 65  1  0
 68 77  2  0
 68 73  1  0
 69 65  1  0
 69 73  1  0
 70 69  1  0
 71 72  1  0
 71 70  1  0
 72 68  1  0
 73 74  2  0
 74 75  1  0
 76 75  2  0
 77 76  1  0
 78 52  1  0
 78 79  1  0
 78 88  1  0
 79 82  1  0
 80 84  1  0
 80 79  1  0
 81 80  2  0
 84 83  1  0
 86 84  1  0
 86 87  1  0
 86 85  1  0
 88 91  1  1
 88 89  1  0
 90 88  1  0
M  ISO  4  10 100  19 100  50 101  51 101
M  END
>  <TORSDO>  (64) 
F 21

>  <SCORE>  (64) 
-11.894

>  <name>  (64) 
64

>  <ligand_id>  (64) 
64

>  <original_smiles>  (64) 
[H]c1c([H])c([H])c2c(c1[H])C([H])([H])C([H])([H])C([H])([H])C2([H])N([H])C(=O)C1([H])N(C(=O)C([H])(N([H])C(=O)C([H])(N([H])C([H])([H])[H])C([H])([H])[H])C(C([H])([H])[H])(C([H])([H])[H])C([H])([H])[H])C([H])([H])c2c([H])c(OC([H])([H])C([H])([H])C([H])([H])N(c3c([H])c([H])c(C([H])([H])N(C(=O)N4C([H])([H])C([H])([H])C([H])([H])C([H])(n5nc(-c6c([H])c([H])c(Oc7c([H])c([H])c(F)c([H])c7F)c([H])c6[H])c(C(=O)N([H])[H])c5N([H])[H])C4([H])[H])C([H])([H])[H])c([H])c3[H])C([H])([H])[H])c([H])c([H])c2C1([H])[H]

>  <smiles>  (64) 
[H]c1c([H])c([H])c2c(c1[H])C([H])([H])C([H])([H])C([H])([H])C2([H])N([H])C(=O)C1([H])N(C(=O)C([H])(N([H])C(=O)C([H])(N([H])C([H])([H])[H])C([H])([H])[H])C(C([H])([H])[H])(C([H])([H])[H])C([H])([H])[H])C([H])([H])c2c([H])c(OC([H])([H])C([H])([H])C([H])([H])N(c3c([H])c([H])c(C([H])([H])N(C(=O)N4C([H])([H])C([H])([H])C([H])([H])C([H])(n5nc(-c6c([H])c([H])c(Oc7c([H])c([H])c(F)c([H])c7F)c([H])c6[H])c(C(=O)N([H])[H])c5N([H])[H])C4([H])[H])C([H])([H])[H])c([H])c3[H])C([H])([H])[H])c([H])c([H])c2C1([H])[H]

$$$$
65:0:0
     RDKit          3D

 94103  0  0  1  0  0  0  0  0999 V2000
  -29.1350  -22.1790   18.3760 C   0  0  0  0  0  3  0  0  0  0  0  0
  -29.3460  -22.6440   20.7510 C   0  0  0  0  0  3  0  0  0  0  0  0
  -28.8580  -23.5400   18.1310 C   0  0  0  0  0  3  0  0  0  0  0  0
  -29.0780  -24.0130   20.5020 C   0  0  0  0  0  3  0  0  0  0  0  0
  -29.3930  -21.7140   19.6850 C   0  0  0  0  0  0  0  0  0  0  0  0
  -28.8470  -24.4750   19.1870 C   0  0  0  0  0  0  0  0  0  0  0  0
  -29.8050  -20.2420   19.8960 C   0  0  0  0  0  2  0  0  0  0  0  0
  -28.7540  -19.2610   20.3410 N   0  0  2  0  0  4  0  0  0  0  0  0
  -28.7800  -19.3390   21.3460 H   0  0  0  0  0  0  0  0  0  0  0  0
  -30.8170  -14.6780   20.9530 C   0  0  0  0  0  0  0  0  0  0  0  0
  -30.7070  -12.3860   20.0910 C   0  0  0  0  0  2  0  0  0  0  0  0
  -29.8940  -12.4190   18.7810 C   0  0  0  0  0  2  0  0  0  0  0  0
  -28.3760  -12.3300   19.0560 C   0  0  0  0  0  2  0  0  0  0  0  0
  -27.8880  -13.2600   20.2010 C   0  0  0  0  0  3  0  0  0  0  0  0
  -28.8360  -13.2080   21.4220 C   0  0  0  0  0  2  0  0  0  0  0  0
  -30.2000  -13.4660   20.9440 N   0  0  0  0  0  0  0  0  0  0  0  0
  -32.0410  -14.8120   20.8990 O   0  0  0  0  0  0  0  0  0  0  0  0
  -29.7800  -17.4280   18.7950 C   0  0  0  0  0  2  0  0  0  0  0  0
  -30.0790  -15.9460   19.0090 C   0  0  0  0  0  2  0  0  0  0  0  0
  -29.7530  -16.9580   21.1380 C   0  0  0  0  0  2  0  0  0  0  0  0
  -29.0190  -17.7980   20.0690 C   0  0  0  0  0  3  0  0  0  0  0  0
  -30.0300  -15.6730   20.4610 N   0  0  0  0  0  0  0  0  0  0  0  0
  -25.4340  -13.8710   20.6690 C   0  0  0  0  0  0  0  0  0  0  0  0
  -24.3390  -13.0980   20.9570 C   0  0  0  0  0  0  0  0  0  0  0  0
  -24.8120  -11.7530   21.0170 C   0  0  0  0  0  0  0  0  0  0  0  0
  -26.5010  -12.9900   20.5690 N   0  0  0  0  0  0  0  0  0  0  0  0
  -26.1270  -11.7160   20.8410 N   0  0  0  0  0  0  0  0  0  0  0  0
  -24.0810  -10.4880   21.1730 C   0  0  0  0  0  0  0  0  0  0  0  0
  -24.4470   -9.5410   22.1540 C   0  0  0  0  0  3  0  0  0  0  0  0
  -23.7180   -8.3420   22.2950 C   0  0  0  0  0  3  0  0  0  0  0  0
  -22.6110   -8.0800   21.4540 C   0  0  0  0  0  0  0  0  0  0  0  0
  -22.2660   -9.0160   20.4630 C   0  0  0  0  0  3  0  0  0  0  0  0
  -22.9960  -10.2090   20.3210 C   0  0  0  0  0  3  0  0  0  0  0  0
  -21.8580   -6.9320   21.5030 O   0  0  0  0  0  0  0  0  0  0  0  0
  -21.7370   -6.2020   22.6580 C   0  0  0  0  0  0  0  0  0  0  0  0
  -21.2260   -6.7660   23.8470 C   0  0  0  0  0  3  0  0  0  0  0  0
  -21.0500   -5.9610   24.9900 C   0  0  0  0  0  3  0  0  0  0  0  0
  -21.3750   -4.5930   24.9450 C   0  0  0  0  0  0  0  0  0  0  0  0
  -21.8760   -4.0260   23.7600 C   0  0  0  0  0  3  0  0  0  0  0  0
  -22.0540   -4.8290   22.6180 C   0  0  0  0  0  0  0  0  0  0  0  0
  -22.5170   -4.2740   21.4720 F   0  0  0  0  0  0  0  0  0  0  0  0
  -21.2000   -3.8160   26.0400 F   0  0  0  0  0  0  0  0  0  0  0  0
  -22.9170  -13.5680   21.0730 C   0  0  0  0  0  0  0  0  0  0  0  0
  -22.1150  -12.8960   21.8920 N   0  0  0  0  0  0  0  0  0  0  0  0
  -22.5210  -14.5680   20.4750 O   0  0  0  0  0  0  0  0  0  0  0  0
  -22.4460  -12.0890   22.4010 H   0  0  0  0  0  0  0  0  0  0  0  0
  -21.1570  -13.1930   22.0120 H   0  0  0  0  0  0  0  0  0  0  0  0
  -25.6060  -15.2370   20.4610 N   0  0  0  0  0  0  0  0  0  0  0  0
  -24.8290  -15.8870   20.4520 H   0  0  0  0  0  0  0  0  0  0  0  0
  -26.4820  -15.6580   20.1900 H   0  0  0  0  0  0  0  0  0  0  0  0
  -26.9220  -19.4180   18.5700 C   0  0  0  0  0  1  0  0  0  0  0  0
  -27.3430  -19.6490   20.0360 C   0  0  0  0  0  2  0  0  0  0  0  0
  -28.6680  -25.9580   18.8550 C   0  0  0  0  0  2  0  0  0  0  0  0
  -28.4330  -26.8180   19.9810 O   0  0  0  0  0  0  0  0  0  0  0  0
  -24.6150  -31.9100   23.2000 C   0  0  0  0  0  0  0  0  0  0  0  0
  -27.2380  -27.5080   20.0280 C   0  0  0  0  0  0  0  0  0  0  0  0
  -23.3910  -30.5130   21.5690 C   0  0  0  0  0  3  0  0  0  0  0  0
  -24.8280  -28.9890   20.1160 C   0  0  0  0  0  0  0  0  0  0  0  0
  -25.9140  -30.8820   21.3400 C   0  0  0  0  0  2  0  0  0  0  0  0
  -25.9930  -29.5160   20.6870 C   0  0  0  0  0  0  0  0  0  0  0  0
  -27.1970  -28.7790   20.6480 C   0  0  0  0  0  3  0  0  0  0  0  0
  -26.0430  -26.9760   19.4940 C   0  0  0  0  0  3  0  0  0  0  0  0
  -24.8450  -27.7130   19.5280 C   0  0  0  0  0  3  0  0  0  0  0  0
  -23.5820  -29.8420   20.1840 C   0  0  0  0  0  2  0  0  0  0  0  0
  -24.6580  -31.1170   22.0930 N   0  0  0  0  0  0  0  0  0  0  0  0
  -23.5400  -32.1740   23.7590 O   0  0  0  0  0  0  0  0  0  0  0  0
  -22.7610  -29.4810   22.5320 C   0  0  0  0  0  0  0  0  0  0  0  0
  -21.4360  -29.2920   22.4210 N   0  0  0  0  0  0  0  0  0  0  0  0
  -23.4590  -28.8550   23.3330 O   0  0  0  0  0  0  0  0  0  0  0  0
  -20.9340  -29.8500   21.7440 H   0  0  0  0  0  0  0  0  0  0  0  0
  -18.0770  -28.0720   22.9550 C   0  0  0  0  0  0  0  0  0  0  0  0
  -20.6350  -28.3460   23.1970 C   0  0  0  0  0  3  0  0  0  0  0  0
  -20.7410  -26.9180   22.6140 C   0  0  0  0  0  2  0  0  0  0  0  0
  -19.6290  -26.5910   21.6140 C   0  0  0  0  0  2  0  0  0  0  0  0
  -18.2530  -26.7260   22.2730 C   0  0  0  0  0  2  0  0  0  0  0  0
  -19.1940  -28.8400   23.3750 C   0  0  0  0  0  0  0  0  0  0  0  0
  -18.9750  -30.1020   23.9690 C   0  0  0  0  0  3  0  0  0  0  0  0
  -17.6690  -30.5950   24.1520 C   0  0  0  0  0  3  0  0  0  0  0  0
  -16.5660  -29.8240   23.7490 C   0  0  0  0  0  3  0  0  0  0  0  0
  -16.7700  -28.5640   23.1570 C   0  0  0  0  0  3  0  0  0  0  0  0
  -25.9090  -32.5440   23.8030 C   0  0  0  0  0  3  0  0  0  0  0  0
  -26.4550  -31.7660   25.0620 C   0  0  1  0  0  0  0  0  0  0  0  0
  -25.3830  -31.5120   26.1480 C   0  0  0  0  0  1  0  0  0  0  0  0
  -27.0410  -30.3940   24.6490 C   0  0  0  0  0  1  0  0  0  0  0  0
  -27.6110  -32.5630   25.7100 C   0  0  0  0  0  1  0  0  0  0  0  0
  -25.5990  -33.9370   24.1480 N   0  0  0  0  0  0  0  0  0  0  0  0
  -25.9200  -34.9970   23.3940 C   0  0  0  0  0  0  0  0  0  0  0  0
  -26.5800  -34.9050   22.3550 O   0  0  0  0  0  0  0  0  0  0  0  0
  -25.0160  -34.0830   24.9600 H   0  0  0  0  0  0  0  0  0  0  0  0
  -24.1830  -36.7860   23.0600 C   0  0  0  0  0  1  0  0  0  0  0  0
  -25.4260  -36.3780   23.8680 C   0  0  0  0  0  3  0  0  0  0  0  0
  -27.5580  -37.2570   24.7090 C   0  0  0  0  0  1  0  0  0  0  0  0
  -26.4550  -37.4350   23.7680 N   0  0  0  0  0  0  0  0  0  0  0  0
  -26.0470  -38.3510   23.9270 H   0  0  0  0  0  0  0  0  0  0  0  0
  1  5  1  0
  3  1  2  0
  3  6  1  0
  4  2  1  0
  5  7  1  0
  5  2  2  0
  6  4  2  0
  7  8  1  0
  8  9  1  1
 11 16  1  0
 12 13  1  0
 12 11  1  0
 14 13  1  0
 14 26  1  0
 14 15  1  0
 16 10  1  0
 16 15  1  0
 17 10  2  0
 18 19  1  0
 18 21  1  0
 19 22  1  0
 21  8  1  0
 21 20  1  0
 22 10  1  0
 22 20  1  0
 23 24  2  0
 24 25  1  0
 24 43  1  0
 25 28  1  0
 26 23  1  0
 26 27  1  0
 27 25  2  0
 28 29  1  0
 29 30  2  0
 31 34  1  0
 31 30  1  0
 32 31  2  0
 33 32  1  0
 33 28  2  0
 34 35  1  0
 35 36  1  0
 36 37  2  0
 38 37  1  0
 38 42  1  0
 39 38  2  0
 40 35  2  0
 40 39  1  0
 41 40  1  0
 43 44  1  0
 44 47  1  0
 44 46  1  0
 45 43  2  0
 48 23  1  0
 49 48  1  0
 50 48  1  0
 51 52  1  0
 52  8  1  0
 53  6  1  0
 53 54  1  0
 54 56  1  0
 55 66  2  0
 56 61  1  0
 57 65  1  0
 57 67  1  0
 58 64  1  0
 58 60  1  0
 59 65  1  0
 60 59  1  0
 61 60  2  0
 62 63  1  0
 62 56  2  0
 63 58  2  0
 64 57  1  0
 65 55  1  0
 67 69  2  0
 68 67  1  0
 70 68  1  0
 71 80  2  0
 71 76  1  0
 72 68  1  0
 72 76  1  0
 73 72  1  0
 74 75  1  0
 74 73  1  0
 75 71  1  0
 76 77  2  0
 77 78  1  0
 79 78  2  0
 80 79  1  0
 81 55  1  0
 81 86  1  0
 81 82  1  0
 82 85  1  1
 82 83  1  0
 84 82  1  0
 86 89  1  0
 87 91  1  0
 87 86  1  0
 88 87  2  0
 91 90  1  0
 93 91  1  0
 93 94  1  0
 93 92  1  0
M  ISO  4  10 100  22 100  53 101  54 101
M  END
>  <TORSDO>  (65) 
F 20

>  <SCORE>  (65) 
-13.436

>  <name>  (65) 
65

>  <ligand_id>  (65) 
65

>  <original_smiles>  (65) 
[H]c1c([H])c([H])c2c(c1[H])C([H])([H])C([H])([H])C([H])([H])C2([H])N([H])C(=O)C1([H])N(C(=O)C([H])(N([H])C(=O)C([H])(N([H])C([H])([H])[H])C([H])([H])[H])C(C([H])([H])[H])(C([H])([H])[H])C([H])([H])[H])C([H])([H])c2c([H])c(OC([H])([H])c3c([H])c([H])c(C([H])([H])[N+]([H])(C([H])([H])C([H])([H])[H])C4([H])C([H])([H])N(C(=O)N5C([H])([H])C([H])([H])C([H])([H])C([H])(n6nc(-c7c([H])c([H])c(Oc8c([H])c([H])c(F)c([H])c8F)c([H])c7[H])c(C(=O)N([H])[H])c6N([H])[H])C5([H])[H])C([H])([H])C4([H])[H])c([H])c3[H])c([H])c([H])c2C1([H])[H]

>  <smiles>  (65) 
[H]c1c([H])c([H])c2c(c1[H])C([H])([H])C([H])([H])C([H])([H])C2([H])N([H])C(=O)C1([H])N(C(=O)C([H])(N([H])C(=O)C([H])(N([H])C([H])([H])[H])C([H])([H])[H])C(C([H])([H])[H])(C([H])([H])[H])C([H])([H])[H])C([H])([H])c2c([H])c(OC([H])([H])c3c([H])c([H])c(C([H])([H])[N+]([H])(C([H])([H])C([H])([H])[H])C4([H])C([H])([H])N(C(=O)N5C([H])([H])C([H])([H])C([H])([H])C([H])(n6nc(-c7c([H])c([H])c(Oc8c([H])c([H])c(F)c([H])c8F)c([H])c7[H])c(C(=O)N([H])[H])c6N([H])[H])C5([H])[H])C([H])([H])C4([H])[H])c([H])c3[H])c([H])c([H])c2C1([H])[H]

$$$$
66:0:0
     RDKit          3D

 90 98  0  0  1  0  0  0  0  0999 V2000
  -28.8470  -21.4990   20.9970 N   0  0  0  0  0  0  0  0  0  0  0  0
  -29.0540  -21.7970   21.9480 H   0  0  0  0  0  0  0  0  0  0  0  0
  -28.6120  -19.3670   19.7090 C   0  0  0  0  0  3  0  0  0  0  0  0
  -30.0420  -19.3710   21.6280 C   0  0  0  0  0  3  0  0  0  0  0  0
  -28.9010  -17.9840   19.5250 C   0  0  0  0  0  3  0  0  0  0  0  0
  -30.3580  -17.9830   21.4240 C   0  0  0  0  0  3  0  0  0  0  0  0
  -29.1810  -20.1160   20.7640 C   0  0  0  0  0  0  0  0  0  0  0  0
  -29.8130  -17.2390   20.3400 C   0  0  0  0  0  0  0  0  0  0  0  0
  -30.8390  -14.8360   20.6320 C   0  0  0  0  0  0  0  0  0  0  0  0
  -30.7270  -12.5000   19.7700 C   0  0  0  0  0  2  0  0  0  0  0  0
  -29.8510  -12.4160   18.4970 C   0  0  0  0  0  2  0  0  0  0  0  0
  -28.3540  -12.3240   18.8440 C   0  0  0  0  0  2  0  0  0  0  0  0
  -27.9050  -13.2830   19.9790 C   0  0  0  0  0  3  0  0  0  0  0  0
  -28.9000  -13.2900   21.1570 C   0  0  0  0  0  2  0  0  0  0  0  0
  -30.2170  -13.6100   20.6000 N   0  0  0  0  0  0  0  0  0  0  0  0
  -32.0720  -14.8930   20.6520 O   0  0  0  0  0  0  0  0  0  0  0  0
  -30.3890  -15.7470   18.4840 C   0  0  0  0  0  1  0  0  0  0  0  0
  -30.1740  -15.8510   19.9440 N   0  0  0  0  0  0  0  0  0  0  0  0
  -25.4780  -13.8740   20.5690 C   0  0  0  0  0  0  0  0  0  0  0  0
  -24.3970  -13.0980   20.8860 C   0  0  0  0  0  0  0  0  0  0  0  0
  -24.8710  -11.7500   20.9110 C   0  0  0  0  0  0  0  0  0  0  0  0
  -26.5400  -12.9990   20.4120 N   0  0  0  0  0  0  0  0  0  0  0  0
  -26.1780  -11.7190   20.6880 N   0  0  0  0  0  0  0  0  0  0  0  0
  -24.1450  -10.4830   21.0760 C   0  0  0  0  0  0  0  0  0  0  0  0
  -24.5240   -9.5380   22.0550 C   0  0  0  0  0  3  0  0  0  0  0  0
  -23.7990   -8.3370   22.2080 C   0  0  0  0  0  3  0  0  0  0  0  0
  -22.6810   -8.0720   21.3800 C   0  0  0  0  0  0  0  0  0  0  0  0
  -22.3230   -9.0060   20.3920 C   0  0  0  0  0  3  0  0  0  0  0  0
  -23.0500  -10.1990   20.2380 C   0  0  0  0  0  3  0  0  0  0  0  0
  -21.9330   -6.9220   21.4410 O   0  0  0  0  0  0  0  0  0  0  0  0
  -21.8030   -6.2080   22.6050 C   0  0  0  0  0  0  0  0  0  0  0  0
  -21.2400   -6.7760   23.7680 C   0  0  0  0  0  3  0  0  0  0  0  0
  -21.0620   -5.9860   24.9220 C   0  0  0  0  0  3  0  0  0  0  0  0
  -21.4360   -4.6290   24.9120 C   0  0  0  0  0  0  0  0  0  0  0  0
  -21.9920   -4.0600   23.7520 C   0  0  0  0  0  3  0  0  0  0  0  0
  -22.1720   -4.8480   22.6010 C   0  0  0  0  0  0  0  0  0  0  0  0
  -22.6880   -4.2890   21.4790 F   0  0  0  0  0  0  0  0  0  0  0  0
  -21.2570   -3.8680   26.0160 F   0  0  0  0  0  0  0  0  0  0  0  0
  -22.9810  -13.5660   21.0580 C   0  0  0  0  0  0  0  0  0  0  0  0
  -22.2090  -12.8840   21.8960 N   0  0  0  0  0  0  0  0  0  0  0  0
  -22.5660  -14.5720   20.4850 O   0  0  0  0  0  0  0  0  0  0  0  0
  -22.5560  -12.0680   22.3800 H   0  0  0  0  0  0  0  0  0  0  0  0
  -21.2570  -13.1800   22.0560 H   0  0  0  0  0  0  0  0  0  0  0  0
  -25.6480  -15.2420   20.3770 N   0  0  0  0  0  0  0  0  0  0  0  0
  -24.8780  -15.9000   20.4350 H   0  0  0  0  0  0  0  0  0  0  0  0
  -26.5260  -15.6780   20.1250 H   0  0  0  0  0  0  0  0  0  0  0  0
  -29.1310  -22.5840   19.9990 C   0  0  0  0  0  2  0  0  0  0  0  0
  -28.1730  -23.8750   19.8800 C   0  0  0  0  0  2  0  0  0  0  0  0
  -28.3920  -25.2030   20.7420 C   0  0  0  0  0  2  0  0  0  0  0  0
  -28.3930  -26.5520   20.1190 O   0  0  0  0  0  0  0  0  0  0  0  0
  -24.6230  -31.8760   23.2320 C   0  0  0  0  0  0  0  0  0  0  0  0
  -27.2510  -27.3580   20.1500 C   0  0  0  0  0  0  0  0  0  0  0  0
  -23.4280  -30.5040   21.5600 C   0  0  0  0  0  3  0  0  0  0  0  0
  -24.8850  -28.9610   20.1320 C   0  0  0  0  0  0  0  0  0  0  0  0
  -25.9660  -30.8230   21.3980 C   0  0  0  0  0  2  0  0  0  0  0  0
  -26.0480  -29.4510   20.7390 C   0  0  0  0  0  0  0  0  0  0  0  0
  -27.2370  -28.6650   20.7290 C   0  0  0  0  0  3  0  0  0  0  0  0
  -26.0680  -26.9070   19.5350 C   0  0  0  0  0  3  0  0  0  0  0  0
  -24.8970  -27.6950   19.5190 C   0  0  0  0  0  3  0  0  0  0  0  0
  -23.6490  -29.8390   20.1760 C   0  0  0  0  0  2  0  0  0  0  0  0
  -24.6910  -31.0850   22.1220 N   0  0  0  0  0  0  0  0  0  0  0  0
  -23.5360  -32.1470   23.7630 O   0  0  0  0  0  0  0  0  0  0  0  0
  -22.7530  -29.4800   22.5020 C   0  0  0  0  0  0  0  0  0  0  0  0
  -21.4270  -29.3160   22.3660 N   0  0  0  0  0  0  0  0  0  0  0  0
  -23.4230  -28.8330   23.3120 O   0  0  0  0  0  0  0  0  0  0  0  0
  -20.9450  -29.8870   21.6850 H   0  0  0  0  0  0  0  0  0  0  0  0
  -18.0350  -28.1520   22.8410 C   0  0  0  0  0  0  0  0  0  0  0  0
  -20.5970  -28.3710   23.1160 C   0  0  0  0  0  3  0  0  0  0  0  0
  -20.6790  -26.9510   22.5060 C   0  0  0  0  0  2  0  0  0  0  0  0
  -19.5730  -26.6680   21.4860 C   0  0  0  0  0  2  0  0  0  0  0  0
  -18.1930  -26.8170   22.1340 C   0  0  0  0  0  2  0  0  0  0  0  0
  -19.1640  -28.8890   23.2880 C   0  0  0  0  0  0  0  0  0  0  0  0
  -18.9630  -30.1410   23.9090 C   0  0  0  0  0  3  0  0  0  0  0  0
  -17.6650  -30.6550   24.0880 C   0  0  0  0  0  3  0  0  0  0  0  0
  -16.5500  -29.9150   23.6590 C   0  0  0  0  0  3  0  0  0  0  0  0
  -16.7360  -28.6650   23.0410 C   0  0  0  0  0  3  0  0  0  0  0  0
  -25.9020  -32.4940   23.8760 C   0  0  0  0  0  3  0  0  0  0  0  0
  -26.3890  -31.7170   25.1620 C   0  0  1  0  0  0  0  0  0  0  0  0
  -25.2750  -31.4910   26.2110 C   0  0  0  0  0  1  0  0  0  0  0  0
  -26.9630  -30.3340   24.7790 C   0  0  0  0  0  1  0  0  0  0  0  0
  -27.5360  -32.4990   25.8430 C   0  0  0  0  0  1  0  0  0  0  0  0
  -25.6030  -33.8950   24.2030 N   0  0  0  0  0  0  0  0  0  0  0  0
  -25.9540  -34.9450   23.4480 C   0  0  0  0  0  0  0  0  0  0  0  0
  -26.6340  -34.8350   22.4250 O   0  0  0  0  0  0  0  0  0  0  0  0
  -25.0050  -34.0560   25.0000 H   0  0  0  0  0  0  0  0  0  0  0  0
  -24.2590  -36.7630   23.0690 C   0  0  0  0  0  1  0  0  0  0  0  0
  -25.4780  -36.3390   23.9030 C   0  0  0  0  0  3  0  0  0  0  0  0
  -27.6030  -37.1980   24.7840 C   0  0  0  0  0  1  0  0  0  0  0  0
  -26.5270  -37.3780   23.8130 N   0  0  0  0  0  0  0  0  0  0  0  0
  -26.1290  -38.3040   23.9480 H   0  0  0  0  0  0  0  0  0  0  0  0
  1  2  1  0
  3  7  1  0
  5  3  2  0
  5  8  1  0
  6  4  1  0
  7  1  1  0
  7  4  2  0
  8  6  2  0
  9 16  2  0
 10 15  1  0
 11 12  1  0
 11 10  1  0
 13 12  1  0
 13 22  1  0
 13 14  1  0
 15  9  1  0
 15 14  1  0
 17 18  1  0
 18  8  1  0
 18  9  1  0
 19 20  2  0
 20 21  1  0
 20 39  1  0
 21 24  1  0
 22 19  1  0
 22 23  1  0
 23 21  2  0
 24 25  1  0
 25 26  2  0
 27 30  1  0
 27 26  1  0
 28 27  2  0
 29 28  1  0
 29 24  2  0
 30 31  1  0
 31 32  1  0
 32 33  2  0
 34 33  1  0
 34 38  1  0
 35 34  2  0
 36 31  2  0
 36 35  1  0
 37 36  1  0
 39 40  1  0
 40 43  1  0
 40 42  1  0
 41 39  2  0
 44 45  1  0
 44 19  1  0
 46 44  1  0
 47  1  1  0
 48 47  1  0
 48 49  1  0
 50 52  1  0
 50 49  1  0
 51 62  2  0
 52 57  1  0
 53 61  1  0
 53 63  1  0
 54 60  1  0
 54 56  1  0
 55 61  1  0
 56 55  1  0
 57 56  2  0
 58 52  2  0
 59 58  1  0
 59 54  2  0
 60 53  1  0
 61 51  1  0
 63 65  2  0
 64 63  1  0
 66 64  1  0
 67 76  2  0
 67 72  1  0
 68 64  1  0
 68 72  1  0
 69 68  1  0
 70 71  1  0
 70 69  1  0
 71 67  1  0
 72 73  2  0
 73 74  1  0
 75 74  2  0
 76 75  1  0
 77 51  1  0
 77 82  1  0
 77 78  1  0
 78 81  1  1
 78 79  1  0
 80 78  1  0
 82 85  1  0
 83 87  1  0
 83 82  1  0
 84 83  2  0
 87 86  1  0
 89 87  1  0
 89 90  1  0
 89 88  1  0
M  ISO  4   9 100  18 100  49 101  50 101
M  END
>  <TORSDO>  (66) 
F 20

>  <SCORE>  (66) 
-13.198

>  <name>  (66) 
66

>  <ligand_id>  (66) 
66

>  <original_smiles>  (66) 
[H]c1c([H])c([H])c2c(c1[H])C([H])([H])C([H])([H])C([H])([H])C2([H])N([H])C(=O)C1([H])N(C(=O)C([H])(N([H])C(=O)C([H])(N([H])C([H])([H])[H])C([H])([H])[H])C(C([H])([H])[H])(C([H])([H])[H])C([H])([H])[H])C([H])([H])c2c([H])c(OC([H])([H])C([H])([H])C([H])([H])N([H])c3c([H])c([H])c(N(C(=O)N4C([H])([H])C([H])([H])C([H])([H])C([H])(n5nc(-c6c([H])c([H])c(Oc7c([H])c([H])c(F)c([H])c7F)c([H])c6[H])c(C(=O)N([H])[H])c5N([H])[H])C4([H])[H])C([H])([H])[H])c([H])c3[H])c([H])c([H])c2C1([H])[H]

>  <smiles>  (66) 
[H]c1c([H])c([H])c2c(c1[H])C([H])([H])C([H])([H])C([H])([H])C2([H])N([H])C(=O)C1([H])N(C(=O)C([H])(N([H])C(=O)C([H])(N([H])C([H])([H])[H])C([H])([H])[H])C(C([H])([H])[H])(C([H])([H])[H])C([H])([H])[H])C([H])([H])c2c([H])c(OC([H])([H])C([H])([H])C([H])([H])N([H])c3c([H])c([H])c(N(C(=O)N4C([H])([H])C([H])([H])C([H])([H])C([H])(n5nc(-c6c([H])c([H])c(Oc7c([H])c([H])c(F)c([H])c7F)c([H])c6[H])c(C(=O)N([H])[H])c5N([H])[H])C4([H])[H])C([H])([H])[H])c([H])c3[H])c([H])c([H])c2C1([H])[H]

$$$$
67:0:0
     RDKit          3D

 90 98  0  0  1  0  0  0  0  0999 V2000
  -28.1080  -19.5850   19.8940 C   0  0  0  0  0  3  0  0  0  0  0  0
  -28.3950  -18.1760   19.9850 C   0  0  0  0  0  3  0  0  0  0  0  0
  -30.1920  -20.0850   20.8680 C   0  0  0  0  0  3  0  0  0  0  0  0
  -28.9950  -20.6400   20.2810 C   0  0  0  0  0  0  0  0  0  0  0  0
  -29.6130  -17.6140   20.4790 C   0  0  0  0  0  0  0  0  0  0  0  0
  -30.4960  -18.6520   20.9570 C   0  0  0  0  0  0  0  0  0  0  0  0
  -31.7080  -18.2910   21.4400 F   0  0  0  0  0  0  0  0  0  0  0  0
  -30.6120  -15.0670   20.7870 C   0  0  0  0  0  0  0  0  0  0  0  0
  -30.5980  -12.6710   19.9670 C   0  0  0  0  0  2  0  0  0  0  0  0
  -29.7640  -12.5040   18.6730 C   0  0  0  0  0  2  0  0  0  0  0  0
  -28.2620  -12.3470   18.9860 C   0  0  0  0  0  2  0  0  0  0  0  0
  -27.7510  -13.3140   20.0860 C   0  0  0  0  0  3  0  0  0  0  0  0
  -28.7210  -13.4070   21.2820 C   0  0  0  0  0  2  0  0  0  0  0  0
  -30.0250  -13.8050   20.7380 N   0  0  0  0  0  0  0  0  0  0  0  0
  -31.8470  -15.1090   20.8120 O   0  0  0  0  0  0  0  0  0  0  0  0
  -29.9260  -15.9760   18.7000 C   0  0  0  0  0  1  0  0  0  0  0  0
  -29.9150  -16.1440   20.1670 N   0  0  0  0  0  0  0  0  0  0  0  0
  -25.3090  -13.8720   20.6170 C   0  0  0  0  0  0  0  0  0  0  0  0
  -24.2290  -13.0870   20.9140 C   0  0  0  0  0  0  0  0  0  0  0  0
  -24.7190  -11.7450   20.9640 C   0  0  0  0  0  0  0  0  0  0  0  0
  -26.3840  -13.0090   20.4920 N   0  0  0  0  0  0  0  0  0  0  0  0
  -26.0330  -11.7270   20.7710 N   0  0  0  0  0  0  0  0  0  0  0  0
  -24.0030  -10.4730   21.1240 C   0  0  0  0  0  0  0  0  0  0  0  0
  -24.3800   -9.5320   22.1070 C   0  0  0  0  0  3  0  0  0  0  0  0
  -23.6630   -8.3260   22.2570 C   0  0  0  0  0  3  0  0  0  0  0  0
  -22.5540   -8.0510   21.4210 C   0  0  0  0  0  0  0  0  0  0  0  0
  -22.1970   -8.9810   20.4270 C   0  0  0  0  0  3  0  0  0  0  0  0
  -22.9150  -10.1790   20.2770 C   0  0  0  0  0  3  0  0  0  0  0  0
  -21.8140   -6.8940   21.4760 O   0  0  0  0  0  0  0  0  0  0  0  0
  -21.6930   -6.1720   22.6370 C   0  0  0  0  0  0  0  0  0  0  0  0
  -21.1530   -6.7370   23.8120 C   0  0  0  0  0  3  0  0  0  0  0  0
  -20.9820   -5.9410   24.9630 C   0  0  0  0  0  3  0  0  0  0  0  0
  -21.3410   -4.5790   24.9360 C   0  0  0  0  0  0  0  0  0  0  0  0
  -21.8730   -4.0140   23.7640 C   0  0  0  0  0  3  0  0  0  0  0  0
  -22.0450   -4.8070   22.6180 C   0  0  0  0  0  0  0  0  0  0  0  0
  -22.5390   -4.2520   21.4840 F   0  0  0  0  0  0  0  0  0  0  0  0
  -21.1700   -3.8110   26.0380 F   0  0  0  0  0  0  0  0  0  0  0  0
  -22.8050  -13.5410   21.0470 C   0  0  0  0  0  0  0  0  0  0  0  0
  -22.0160  -12.8530   21.8640 N   0  0  0  0  0  0  0  0  0  0  0  0
  -22.3960  -14.5430   20.4600 O   0  0  0  0  0  0  0  0  0  0  0  0
  -22.3570  -12.0470   22.3660 H   0  0  0  0  0  0  0  0  0  0  0  0
  -21.0560  -13.1410   21.9950 H   0  0  0  0  0  0  0  0  0  0  0  0
  -25.4670  -15.2400   20.4170 N   0  0  0  0  0  0  0  0  0  0  0  0
  -24.6900  -15.8910   20.4520 H   0  0  0  0  0  0  0  0  0  0  0  0
  -26.3460  -15.6830   20.1840 H   0  0  0  0  0  0  0  0  0  0  0  0
  -28.4290  -22.0720   18.4470 C   0  0  0  0  0  1  0  0  0  0  0  0
  -28.6760  -22.0450   19.8910 N   0  0  0  0  0  0  0  0  0  0  0  0
  -28.9900  -23.4660   20.4420 C   0  0  0  0  0  3  0  0  0  0  0  0
  -28.0220  -24.7810   20.0220 C   0  0  0  0  0  3  0  0  0  0  0  0
  -28.2680  -26.2960   20.2320 O   0  0  0  0  0  0  0  0  0  0  0  0
  -24.5790  -31.9280   23.1800 C   0  0  0  0  0  0  0  0  0  0  0  0
  -27.1950  -27.2520   20.1520 C   0  0  0  0  0  0  0  0  0  0  0  0
  -23.3850  -30.5180   21.5480 C   0  0  0  0  0  3  0  0  0  0  0  0
  -24.8420  -28.9560   20.1210 C   0  0  0  0  0  0  0  0  0  0  0  0
  -25.9340  -30.8110   21.3750 C   0  0  0  0  0  2  0  0  0  0  0  0
  -26.0180  -29.4210   20.7260 C   0  0  0  0  0  0  0  0  0  0  0  0
  -27.1940  -28.5840   20.7250 C   0  0  0  0  0  3  0  0  0  0  0  0
  -25.9900  -26.8850   19.5070 C   0  0  0  0  0  3  0  0  0  0  0  0
  -24.8400  -27.7000   19.4990 C   0  0  0  0  0  3  0  0  0  0  0  0
  -23.6060  -29.8410   20.1690 C   0  0  0  0  0  2  0  0  0  0  0  0
  -24.6520  -31.1070   22.0890 N   0  0  0  0  0  0  0  0  0  0  0  0
  -23.4930  -32.2060   23.7100 O   0  0  0  0  0  0  0  0  0  0  0  0
  -22.7200  -29.5060   22.5140 C   0  0  0  0  0  0  0  0  0  0  0  0
  -21.3910  -29.3340   22.4000 N   0  0  0  0  0  0  0  0  0  0  0  0
  -23.4000  -28.8790   23.3300 O   0  0  0  0  0  0  0  0  0  0  0  0
  -20.8990  -29.8940   21.7180 H   0  0  0  0  0  0  0  0  0  0  0  0
  -18.0120  -28.1430   22.9390 C   0  0  0  0  0  0  0  0  0  0  0  0
  -20.5750  -28.3970   23.1760 C   0  0  0  0  0  3  0  0  0  0  0  0
  -20.6650  -26.9670   22.5960 C   0  0  0  0  0  2  0  0  0  0  0  0
  -19.5510  -26.6500   21.5930 C   0  0  0  0  0  2  0  0  0  0  0  0
  -18.1770  -26.7950   22.2540 C   0  0  0  0  0  2  0  0  0  0  0  0
  -19.1380  -28.9010   23.3580 C   0  0  0  0  0  0  0  0  0  0  0  0
  -18.9290  -30.1610   23.9590 C   0  0  0  0  0  3  0  0  0  0  0  0
  -17.6260  -30.6620   24.1470 C   0  0  0  0  0  3  0  0  0  0  0  0
  -16.5150  -29.9010   23.7420 C   0  0  0  0  0  3  0  0  0  0  0  0
  -16.7100  -28.6420   23.1440 C   0  0  0  0  0  3  0  0  0  0  0  0
  -25.8550  -32.5740   23.8020 C   0  0  0  0  0  3  0  0  0  0  0  0
  -26.3800  -31.8050   25.0770 C   0  0  1  0  0  0  0  0  0  0  0  0
  -25.2920  -31.5590   26.1480 C   0  0  0  0  0  1  0  0  0  0  0  0
  -26.9740  -30.4320   24.6870 C   0  0  0  0  0  1  0  0  0  0  0  0
  -27.5250  -32.6090   25.7370 C   0  0  0  0  0  1  0  0  0  0  0  0
  -25.5310  -33.9690   24.1420 N   0  0  0  0  0  0  0  0  0  0  0  0
  -25.8690  -35.0340   23.4040 C   0  0  0  0  0  0  0  0  0  0  0  0
  -26.5550  -34.9460   22.3820 O   0  0  0  0  0  0  0  0  0  0  0  0
  -24.9210  -34.1080   24.9340 H   0  0  0  0  0  0  0  0  0  0  0  0
  -24.1670  -36.8470   23.0200 C   0  0  0  0  0  1  0  0  0  0  0  0
  -25.3700  -36.4150   23.8740 C   0  0  0  0  0  3  0  0  0  0  0  0
  -27.4710  -37.2700   24.8150 C   0  0  0  0  0  1  0  0  0  0  0  0
  -26.4110  -37.4640   23.8290 N   0  0  0  0  0  0  0  0  0  0  0  0
  -26.0050  -38.3840   23.9760 H   0  0  0  0  0  0  0  0  0  0  0  0
  1  2  2  0
  1  4  1  0
  2  5  1  0
  3  6  1  0
  4  3  2  0
  5  6  2  0
  6  7  1  0
  8 15  2  0
  9 14  1  0
 10 11  1  0
 10  9  1  0
 12 11  1  0
 12 21  1  0
 12 13  1  0
 14  8  1  0
 14 13  1  0
 16 17  1  0
 17  5  1  0
 17  8  1  0
 18 19  2  0
 19 20  1  0
 19 38  1  0
 20 23  1  0
 21 18  1  0
 21 22  1  0
 22 20  2  0
 23 24  1  0
 24 25  2  0
 26 29  1  0
 26 25  1  0
 27 26  2  0
 28 27  1  0
 28 23  2  0
 29 30  1  0
 30 31  1  0
 31 32  2  0
 33 32  1  0
 33 37  1  0
 34 33  2  0
 35 30  2  0
 35 34  1  0
 36 35  1  0
 38 39  1  0
 39 42  1  0
 39 41  1  0
 40 38  2  0
 43 44  1  0
 43 18  1  0
 45 43  1  0
 46 47  1  0
 47  4  1  0
 47 48  1  0
 49 50  1  0
 49 48  2  0
 51 62  2  0
 52 50  1  0
 52 57  1  0
 53 61  1  0
 53 63  1  0
 54 60  1  0
 54 56  1  0
 55 61  1  0
 56 55  1  0
 57 56  2  0
 58 52  2  0
 59 58  1  0
 59 54  2  0
 60 53  1  0
 61 51  1  0
 63 65  2  0
 64 63  1  0
 66 64  1  0
 67 76  2  0
 67 72  1  0
 68 64  1  0
 68 72  1  0
 69 68  1  0
 70 71  1  0
 70 69  1  0
 71 67  1  0
 72 73  2  0
 73 74  1  0
 75 74  2  0
 76 75  1  0
 77 51  1  0
 77 82  1  0
 77 78  1  0
 78 81  1  1
 78 79  1  0
 80 78  1  0
 82 85  1  0
 83 87  1  0
 83 82  1  0
 84 83  2  0
 87 86  1  0
 89 87  1  0
 89 90  1  0
 89 88  1  0
M  ISO  4   8 100  17 100  49 101  50 101
M  END
>  <TORSDO>  (67) 
F 19

>  <SCORE>  (67) 
-14.072

>  <name>  (67) 
67

>  <ligand_id>  (67) 
67

>  <original_smiles>  (67) 
[H]c1c([H])c([H])c2c(c1[H])C([H])([H])C([H])([H])C([H])([H])C2([H])N([H])C(=O)C1([H])N(C(=O)C([H])(N([H])C(=O)C([H])(N([H])C([H])([H])[H])C([H])([H])[H])C(C([H])([H])[H])(C([H])([H])[H])C([H])([H])[H])C([H])([H])c2c([H])c(OC([H])([H])C([H])([H])N(c3c([H])c([H])c(N(C(=O)N4C([H])([H])C([H])([H])C([H])([H])C([H])(n5nc(-c6c([H])c([H])c(Oc7c([H])c([H])c(F)c([H])c7F)c([H])c6[H])c(C(=O)N([H])[H])c5N([H])[H])C4([H])[H])C([H])([H])[H])c(F)c3[H])C([H])([H])[H])c([H])c([H])c2C1([H])[H]

>  <smiles>  (67) 
[H]c1c([H])c([H])c2c(c1[H])C([H])([H])C([H])([H])C([H])([H])C2([H])N([H])C(=O)C1([H])N(C(=O)C([H])(N([H])C(=O)C([H])(N([H])C([H])([H])[H])C([H])([H])[H])C(C([H])([H])[H])(C([H])([H])[H])C([H])([H])[H])C([H])([H])c2c([H])c(OC([H])([H])C([H])([H])N(c3c([H])c([H])c(N(C(=O)N4C([H])([H])C([H])([H])C([H])([H])C([H])(n5nc(-c6c([H])c([H])c(Oc7c([H])c([H])c(F)c([H])c7F)c([H])c6[H])c(C(=O)N([H])[H])c5N([H])[H])C4([H])[H])C([H])([H])[H])c(F)c3[H])C([H])([H])[H])c([H])c([H])c2C1([H])[H]

$$$$
68:0:0
     RDKit          3D

 94102  0  0  1  0  0  0  0  0999 V2000
  -30.7990  -21.4030   21.6270 N   0  0  0  0  0  4  0  0  0  0  0  0
  -29.9620  -20.9720   21.9770 H   0  0  0  0  0  0  0  0  0  0  0  0
  -30.8230  -21.2630   20.6300 H   0  0  0  0  0  0  0  0  0  0  0  0
  -31.9410  -20.6770   22.2150 C   0  0  0  0  0  2  0  0  0  0  0  0
  -32.4090  -18.6110   20.8080 C   0  0  0  0  0  3  0  0  0  0  0  0
  -32.1460  -17.2720   20.4580 C   0  0  0  0  0  3  0  0  0  0  0  0
  -30.9370  -18.3940   22.7300 C   0  0  0  0  0  3  0  0  0  0  0  0
  -31.7750  -19.1920   21.9240 C   0  0  0  0  0  0  0  0  0  0  0  0
  -30.6690  -17.0520   22.3850 C   0  0  0  0  0  0  0  0  0  0  0  0
  -31.2300  -16.4940   21.2100 C   0  0  0  0  0  0  0  0  0  0  0  0
  -29.7540  -16.2270   23.2760 C   0  0  0  0  0  1  0  0  0  0  0  0
  -30.9810  -14.5490   19.6580 C   0  0  0  0  0  0  0  0  0  0  0  0
  -30.3570  -12.5420   18.3620 C   0  0  0  0  0  2  0  0  0  0  0  0
  -29.2810  -12.8590   17.3070 C   0  0  0  0  0  2  0  0  0  0  0  0
  -27.8740  -12.7310   17.9170 C   0  0  0  0  0  2  0  0  0  0  0  0
  -27.7360  -13.5220   19.2440 C   0  0  0  0  0  3  0  0  0  0  0  0
  -28.9090  -13.2120   20.2010 C   0  0  0  0  0  2  0  0  0  0  0  0
  -30.1850  -13.4590   19.5000 N   0  0  0  0  0  0  0  0  0  0  0  0
  -31.8410  -14.8670   18.8320 O   0  0  0  0  0  0  0  0  0  0  0  0
  -30.8430  -15.1710   20.8420 N   0  0  0  0  0  0  0  0  0  0  0  0
  -30.1770  -14.7270   21.4540 H   0  0  0  0  0  0  0  0  0  0  0  0
  -25.4830  -14.1780   20.3090 C   0  0  0  0  0  0  0  0  0  0  0  0
  -24.4320  -13.4250   20.7650 C   0  0  0  0  0  0  0  0  0  0  0  0
  -24.8110  -12.0620   20.5740 C   0  0  0  0  0  0  0  0  0  0  0  0
  -26.4410  -13.2730   19.8770 N   0  0  0  0  0  0  0  0  0  0  0  0
  -26.0440  -11.9910   20.0860 N   0  0  0  0  0  0  0  0  0  0  0  0
  -24.0500  -10.8210   20.7730 C   0  0  0  0  0  0  0  0  0  0  0  0
  -24.5020   -9.8110   21.6500 C   0  0  0  0  0  3  0  0  0  0  0  0
  -23.7440   -8.6350   21.8390 C   0  0  0  0  0  3  0  0  0  0  0  0
  -22.5200   -8.4610   21.1500 C   0  0  0  0  0  0  0  0  0  0  0  0
  -22.0870   -9.4600   20.2610 C   0  0  0  0  0  3  0  0  0  0  0  0
  -22.8450  -10.6280   20.0700 C   0  0  0  0  0  3  0  0  0  0  0  0
  -21.7300   -7.3410   21.2500 O   0  0  0  0  0  0  0  0  0  0  0  0
  -21.6400   -6.6270   22.4180 C   0  0  0  0  0  0  0  0  0  0  0  0
  -21.2430   -7.2300   23.6320 C   0  0  0  0  0  3  0  0  0  0  0  0
  -21.0950   -6.4450   24.7930 C   0  0  0  0  0  3  0  0  0  0  0  0
  -21.3340   -5.0580   24.7420 C   0  0  0  0  0  0  0  0  0  0  0  0
  -21.7240   -4.4560   23.5330 C   0  0  0  0  0  3  0  0  0  0  0  0
  -21.8750   -5.2380   22.3740 C   0  0  0  0  0  0  0  0  0  0  0  0
  -22.2290   -4.6480   21.2070 F   0  0  0  0  0  0  0  0  0  0  0  0
  -21.1840   -4.3030   25.8550 F   0  0  0  0  0  0  0  0  0  0  0  0
  -23.1120  -13.9390   21.2640 C   0  0  0  0  0  0  0  0  0  0  0  0
  -22.4860  -13.2220   22.1910 N   0  0  0  0  0  0  0  0  0  0  0  0
  -22.6510  -15.0090   20.8670 O   0  0  0  0  0  0  0  0  0  0  0  0
  -22.8730  -12.3530   22.5270 H   0  0  0  0  0  0  0  0  0  0  0  0
  -21.6060  -13.5460   22.5670 H   0  0  0  0  0  0  0  0  0  0  0  0
  -25.6970  -15.5490   20.2130 N   0  0  0  0  0  0  0  0  0  0  0  0
  -24.9890  -16.2280   20.4710 H   0  0  0  0  0  0  0  0  0  0  0  0
  -26.5300  -15.9730   19.8240 H   0  0  0  0  0  0  0  0  0  0  0  0
  -30.7310  -22.8540   21.9040 C   0  0  0  0  0  2  0  0  0  0  0  0
  -29.5930  -23.5000   21.0860 C   0  0  0  0  0  2  0  0  0  0  0  0
  -29.4760  -25.0260   21.2410 C   0  0  0  0  0  2  0  0  0  0  0  0
  -28.3650  -25.6150   20.3560 C   0  0  0  0  0  2  0  0  0  0  0  0
  -28.3670  -27.0350   20.4870 O   0  0  0  0  0  0  0  0  0  0  0  0
  -24.3730  -32.1270   23.3590 C   0  0  0  0  0  0  0  0  0  0  0  0
  -27.1550  -27.6880   20.4320 C   0  0  0  0  0  0  0  0  0  0  0  0
  -23.2110  -30.6470   21.7510 C   0  0  0  0  0  3  0  0  0  0  0  0
  -24.7130  -29.1090   20.3810 C   0  0  0  0  0  0  0  0  0  0  0  0
  -25.7230  -31.0740   21.5530 C   0  0  0  0  0  2  0  0  0  0  0  0
  -25.8490  -29.6890   20.9540 C   0  0  0  0  0  0  0  0  0  0  0  0
  -27.0720  -28.9860   20.9760 C   0  0  0  0  0  3  0  0  0  0  0  0
  -26.0040  -27.1180   19.8420 C   0  0  0  0  0  3  0  0  0  0  0  0
  -24.7840  -27.8210   19.8200 C   0  0  0  0  0  3  0  0  0  0  0  0
  -23.4440  -29.9320   20.3940 C   0  0  0  0  0  2  0  0  0  0  0  0
  -24.4530  -31.2980   22.2800 N   0  0  0  0  0  0  0  0  0  0  0  0
  -23.2830  -32.3880   23.8860 O   0  0  0  0  0  0  0  0  0  0  0  0
  -22.5800  -29.6380   22.7380 C   0  0  0  0  0  0  0  0  0  0  0  0
  -21.2860  -29.3400   22.5420 N   0  0  0  0  0  0  0  0  0  0  0  0
  -23.2550  -29.1220   23.6340 O   0  0  0  0  0  0  0  0  0  0  0  0
  -20.8010  -29.8090   21.7900 H   0  0  0  0  0  0  0  0  0  0  0  0
  -18.0080  -27.8560   22.8550 C   0  0  0  0  0  0  0  0  0  0  0  0
  -20.4930  -28.3880   23.3200 C   0  0  0  0  0  3  0  0  0  0  0  0
  -20.7830  -26.9350   22.8820 C   0  0  0  0  0  2  0  0  0  0  0  0
  -19.8140  -26.4230   21.8110 C   0  0  0  0  0  2  0  0  0  0  0  0
  -18.3710  -26.4800   22.3190 C   0  0  0  0  0  2  0  0  0  0  0  0
  -19.0050  -28.7580   23.3100 C   0  0  0  0  0  0  0  0  0  0  0  0
  -18.6180  -30.0370   23.7640 C   0  0  0  0  0  3  0  0  0  0  0  0
  -17.2630  -30.4180   23.7730 C   0  0  0  0  0  3  0  0  0  0  0  0
  -16.2770  -29.5140   23.3390 C   0  0  0  0  0  3  0  0  0  0  0  0
  -16.6500  -28.2370   22.8850 C   0  0  0  0  0  3  0  0  0  0  0  0
  -25.6410  -32.8050   23.9660 C   0  0  0  0  0  3  0  0  0  0  0  0
  -25.3360  -34.2310   24.1380 N   0  0  0  0  0  0  0  0  0  0  0  0
  -25.6960  -35.1940   23.2780 C   0  0  0  0  0  0  0  0  0  0  0  0
  -26.3920  -34.9780   22.2820 O   0  0  0  0  0  0  0  0  0  0  0  0
  -24.7220  -34.4730   24.9010 H   0  0  0  0  0  0  0  0  0  0  0  0
  -23.9910  -36.9470   22.6910 C   0  0  0  0  0  1  0  0  0  0  0  0
  -25.2080  -36.6240   23.5720 C   0  0  0  0  0  3  0  0  0  0  0  0
  -27.3300  -37.5840   24.3530 C   0  0  0  0  0  1  0  0  0  0  0  0
  -26.2500  -37.6560   23.3730 N   0  0  0  0  0  0  0  0  0  0  0  0
  -25.8460  -38.5870   23.4120 H   0  0  0  0  0  0  0  0  0  0  0  0
  -26.0960  -32.1590   25.3320 C   0  0  1  0  0  0  0  0  0  0  0  0
  -24.9520  -32.0090   26.3610 C   0  0  0  0  0  1  0  0  0  0  0  0
  -26.7080  -30.7590   25.0950 C   0  0  0  0  0  1  0  0  0  0  0  0
  -27.2070  -33.0220   25.9770 C   0  0  0  0  0  1  0  0  0  0  0  0
  1 50  1  0
  1  2  1  0
  1  4  1  0
  3  1  1  0
  5  8  1  0
  6  5  2  0
  6 10  1  0
  8  4  1  0
  8  7  2  0
  9  7  1  0
  9 11  1  0
 10  9  2  0
 12 20  1  0
 13 18  1  0
 14 15  1  0
 14 13  1  0
 16 15  1  0
 16 25  1  0
 16 17  1  0
 18 12  1  0
 18 17  1  0
 19 12  2  0
 20 10  1  0
 20 21  1  0
 22 23  2  0
 23 42  1  0
 24 23  1  0
 24 27  1  0
 25 26  1  0
 25 22  1  0
 26 24  2  0
 27 28  1  0
 28 29  2  0
 30 33  1  0
 30 29  1  0
 31 30  2  0
 32 31  1  0
 32 27  2  0
 33 34  1  0
 34 35  1  0
 35 36  2  0
 37 36  1  0
 37 41  1  0
 38 37  2  0
 39 34  2  0
 39 38  1  0
 40 39  1  0
 42 43  1  0
 43 45  1  0
 43 46  1  0
 44 42  2  0
 47 22  1  0
 47 48  1  0
 49 47  1  0
 51 52  1  0
 51 50  1  0
 53 54  1  0
 53 52  1  0
 55 66  2  0
 56 54  1  0
 56 61  1  0
 57 65  1  0
 57 67  1  0
 58 64  1  0
 58 60  1  0
 59 65  1  0
 60 61  2  0
 60 59  1  0
 62 56  2  0
 63 62  1  0
 63 58  2  0
 64 57  1  0
 65 55  1  0
 67 69  2  0
 68 67  1  0
 70 68  1  0
 71 80  2  0
 71 76  1  0
 72 68  1  0
 73 72  1  0
 74 75  1  0
 74 73  1  0
 75 71  1  0
 76 72  1  0
 76 77  2  0
 77 78  1  0
 79 78  2  0
 80 79  1  0
 81 55  1  0
 81 82  1  0
 81 91  1  0
 82 85  1  0
 83 87  1  0
 83 82  1  0
 84 83  2  0
 87 86  1  0
 89 90  1  0
 89 87  1  0
 89 88  1  0
 91 94  1  1
 91 92  1  0
 93 91  1  0
M  ISO  4  12 100  20 100  53 101  54 101
M  END
>  <TORSDO>  (68) 
F 22

>  <SCORE>  (68) 
-8.208

>  <name>  (68) 
68

>  <ligand_id>  (68) 
68

>  <original_smiles>  (68) 
[H]c1c([H])c([H])c2c(c1[H])C([H])([H])C([H])([H])C([H])([H])C2([H])N([H])C(=O)C1([H])N(C(=O)C([H])(N([H])C(=O)C([H])(N([H])C([H])([H])[H])C([H])([H])[H])C(C([H])([H])[H])(C([H])([H])[H])C([H])([H])[H])C([H])([H])c2c([H])c(OC([H])([H])C([H])([H])C([H])([H])C([H])([H])[N+]([H])([H])C([H])([H])c3c([H])c([H])c(N([H])C(=O)N4C([H])([H])C([H])([H])C([H])([H])C([H])(n5nc(-c6c([H])c([H])c(Oc7c([H])c([H])c(F)c([H])c7F)c([H])c6[H])c(C(=O)N([H])[H])c5N([H])[H])C4([H])[H])c(C([H])([H])[H])c3[H])c([H])c([H])c2C1([H])[H]

>  <smiles>  (68) 
[H]c1c([H])c([H])c2c(c1[H])C([H])([H])C([H])([H])C([H])([H])C2([H])N([H])C(=O)C1([H])N(C(=O)C([H])(N([H])C(=O)C([H])(N([H])C([H])([H])[H])C([H])([H])[H])C(C([H])([H])[H])(C([H])([H])[H])C([H])([H])[H])C([H])([H])c2c([H])c(OC([H])([H])C([H])([H])C([H])([H])C([H])([H])[N+]([H])([H])C([H])([H])c3c([H])c([H])c(N([H])C(=O)N4C([H])([H])C([H])([H])C([H])([H])C([H])(n5nc(-c6c([H])c([H])c(Oc7c([H])c([H])c(F)c([H])c7F)c([H])c6[H])c(C(=O)N([H])[H])c5N([H])[H])C4([H])[H])c(C([H])([H])[H])c3[H])c([H])c([H])c2C1([H])[H]

$$$$
69:0:0
     RDKit          3D

 93102  0  0  1  0  0  0  0  0999 V2000
  -29.2180  -22.9710   20.5800 C   0  0  0  0  0  0  0  0  0  0  0  0
  -27.2640  -23.2420   19.9590 C   0  0  0  0  0  2  0  0  0  0  0  0
  -28.3080  -24.2380   20.4720 C   0  0  0  0  0  3  0  0  0  0  0  0
  -28.1550  -22.1230   20.3360 N   0  0  0  0  0  0  0  0  0  0  0  0
  -30.3760  -22.7370   20.8580 O   0  0  0  0  0  0  0  0  0  0  0  0
  -27.7970  -20.6920   20.4820 C   0  0  0  0  0  2  0  0  0  0  0  0
  -29.5180  -19.1010   21.5270 C   0  0  0  0  0  3  0  0  0  0  0  0
  -30.0780  -17.8010   21.6100 C   0  0  0  0  0  3  0  0  0  0  0  0
  -28.7540  -18.6200   19.2820 C   0  0  0  0  0  3  0  0  0  0  0  0
  -28.7910  -19.5090   20.3850 C   0  0  0  0  0  0  0  0  0  0  0  0
  -29.9480  -16.8720   20.5500 C   0  0  0  0  0  0  0  0  0  0  0  0
  -29.3140  -17.3160   19.3600 C   0  0  0  0  0  0  0  0  0  0  0  0
  -29.1300  -16.4590   18.3260 F   0  0  0  0  0  0  0  0  0  0  0  0
  -30.8380  -14.5670   20.0100 C   0  0  0  0  0  0  0  0  0  0  0  0
  -30.5570  -12.3440   18.9470 C   0  0  0  0  0  2  0  0  0  0  0  0
  -29.5340  -12.4770   17.7970 C   0  0  0  0  0  2  0  0  0  0  0  0
  -28.0910  -12.3250   18.3170 C   0  0  0  0  0  2  0  0  0  0  0  0
  -27.8170  -13.2000   19.5690 C   0  0  0  0  0  3  0  0  0  0  0  0
  -28.9370  -13.0210   20.6180 C   0  0  0  0  0  2  0  0  0  0  0  0
  -30.2240  -13.3470   19.9750 N   0  0  0  0  0  0  0  0  0  0  0  0
  -31.8720  -14.8110   19.3800 O   0  0  0  0  0  0  0  0  0  0  0  0
  -30.2490  -15.4860   20.8070 N   0  0  0  0  0  0  0  0  0  0  0  0
  -29.6400  -15.0670   21.4930 H   0  0  0  0  0  0  0  0  0  0  0  0
  -25.4790  -13.8160   20.4540 C   0  0  0  0  0  0  0  0  0  0  0  0
  -24.4310  -13.0460   20.8810 C   0  0  0  0  0  0  0  0  0  0  0  0
  -24.8720  -11.6910   20.7870 C   0  0  0  0  0  0  0  0  0  0  0  0
  -26.4960  -12.9290   20.1330 N   0  0  0  0  0  0  0  0  0  0  0  0
  -26.1370  -11.6440   20.3880 N   0  0  0  0  0  0  0  0  0  0  0  0
  -24.1460  -10.4330   21.0010 C   0  0  0  0  0  0  0  0  0  0  0  0
  -24.5620   -9.4940   21.9710 C   0  0  0  0  0  3  0  0  0  0  0  0
  -23.8360   -8.3000   22.1690 C   0  0  0  0  0  3  0  0  0  0  0  0
  -22.6790   -8.0360   21.3980 C   0  0  0  0  0  0  0  0  0  0  0  0
  -22.2820   -8.9620   20.4180 C   0  0  0  0  0  3  0  0  0  0  0  0
  -23.0090  -10.1480   20.2180 C   0  0  0  0  0  3  0  0  0  0  0  0
  -21.9270   -6.8910   21.5050 O   0  0  0  0  0  0  0  0  0  0  0  0
  -21.7650   -6.2450   22.7040 C   0  0  0  0  0  0  0  0  0  0  0  0
  -21.2010   -6.8900   23.8270 C   0  0  0  0  0  3  0  0  0  0  0  0
  -20.9860   -6.1690   25.0190 C   0  0  0  0  0  3  0  0  0  0  0  0
  -21.3260   -4.8050   25.0880 C   0  0  0  0  0  0  0  0  0  0  0  0
  -21.8820   -4.1600   23.9700 C   0  0  0  0  0  3  0  0  0  0  0  0
  -22.0970   -4.8780   22.7810 C   0  0  0  0  0  0  0  0  0  0  0  0
  -22.6150   -4.2460   21.6980 F   0  0  0  0  0  0  0  0  0  0  0  0
  -21.1130   -4.1100   26.2300 F   0  0  0  0  0  0  0  0  0  0  0  0
  -23.0630  -13.5320   21.2640 C   0  0  0  0  0  0  0  0  0  0  0  0
  -22.4000  -12.8370   22.1820 N   0  0  0  0  0  0  0  0  0  0  0  0
  -22.5920  -14.5620   20.7830 O   0  0  0  0  0  0  0  0  0  0  0  0
  -22.7950  -12.0020   22.5900 H   0  0  0  0  0  0  0  0  0  0  0  0
  -21.4840  -13.1420   22.4790 H   0  0  0  0  0  0  0  0  0  0  0  0
  -25.6480  -15.1880   20.2930 N   0  0  0  0  0  0  0  0  0  0  0  0
  -24.8970  -15.8470   20.4600 H   0  0  0  0  0  0  0  0  0  0  0  0
  -26.4820  -15.6220   19.9170 H   0  0  0  0  0  0  0  0  0  0  0  0
  -28.8010  -25.4240   19.5900 C   0  0  0  0  0  2  0  0  0  0  0  0
  -28.6420  -26.7520   20.1650 O   0  0  0  0  0  0  0  0  0  0  0  0
  -24.6160  -31.8020   23.2200 C   0  0  0  0  0  0  0  0  0  0  0  0
  -27.4320  -27.4380   20.1270 C   0  0  0  0  0  0  0  0  0  0  0  0
  -23.4750  -30.3870   21.5440 C   0  0  0  0  0  3  0  0  0  0  0  0
  -24.9920  -28.9030   20.1220 C   0  0  0  0  0  0  0  0  0  0  0  0
  -25.9950  -30.8110   21.3880 C   0  0  0  0  0  2  0  0  0  0  0  0
  -26.1280  -29.4460   20.7330 C   0  0  0  0  0  0  0  0  0  0  0  0
  -27.3470  -28.7210   20.7290 C   0  0  0  0  0  3  0  0  0  0  0  0
  -26.2700  -26.9140   19.5160 C   0  0  0  0  0  3  0  0  0  0  0  0
  -25.0610  -27.6390   19.5100 C   0  0  0  0  0  3  0  0  0  0  0  0
  -23.7240  -29.7270   20.1610 C   0  0  0  0  0  2  0  0  0  0  0  0
  -24.7130  -31.0160   22.1090 N   0  0  0  0  0  0  0  0  0  0  0  0
  -23.5190  -32.0370   23.7460 O   0  0  0  0  0  0  0  0  0  0  0  0
  -22.8380  -29.3370   22.4830 C   0  0  0  0  0  0  0  0  0  0  0  0
  -21.5260  -29.1020   22.3190 N   0  0  0  0  0  0  0  0  0  0  0  0
  -23.5230  -28.7370   23.3160 O   0  0  0  0  0  0  0  0  0  0  0  0
  -21.0340  -29.6400   21.6190 H   0  0  0  0  0  0  0  0  0  0  0  0
  -18.1910  -27.7650   22.7180 C   0  0  0  0  0  0  0  0  0  0  0  0
  -20.7270  -28.1280   23.0610 C   0  0  0  0  0  3  0  0  0  0  0  0
  -20.9050  -26.7060   22.4820 C   0  0  0  0  0  2  0  0  0  0  0  0
  -19.8440  -26.3390   21.4390 C   0  0  0  0  0  2  0  0  0  0  0  0
  -18.4420  -26.4240   22.0470 C   0  0  0  0  0  2  0  0  0  0  0  0
  -19.2650  -28.5710   23.1800 C   0  0  0  0  0  0  0  0  0  0  0  0
  -18.9780  -29.8220   23.7660 C   0  0  0  0  0  3  0  0  0  0  0  0
  -17.6490  -30.2690   23.8970 C   0  0  0  0  0  3  0  0  0  0  0  0
  -16.5900  -29.4610   23.4500 C   0  0  0  0  0  3  0  0  0  0  0  0
  -16.8610  -28.2100   22.8690 C   0  0  0  0  0  3  0  0  0  0  0  0
  -25.8730  -32.4630   23.8680 C   0  0  0  0  0  3  0  0  0  0  0  0
  -26.3790  -31.7070   25.1560 C   0  0  1  0  0  0  0  0  0  0  0  0
  -25.2680  -31.4460   26.2000 C   0  0  0  0  0  1  0  0  0  0  0  0
  -27.0020  -30.3420   24.7780 C   0  0  0  0  0  1  0  0  0  0  0  0
  -27.4950  -32.5290   25.8420 C   0  0  0  0  0  1  0  0  0  0  0  0
  -25.5270  -33.8550   24.1850 N   0  0  0  0  0  0  0  0  0  0  0  0
  -25.8520  -34.9110   23.4290 C   0  0  0  0  0  0  0  0  0  0  0  0
  -26.5460  -34.8190   22.4110 O   0  0  0  0  0  0  0  0  0  0  0  0
  -24.9130  -34.0000   24.9730 H   0  0  0  0  0  0  0  0  0  0  0  0
  -24.0950  -36.6670   23.0300 C   0  0  0  0  0  1  0  0  0  0  0  0
  -25.3250  -36.2910   23.8700 C   0  0  0  0  0  3  0  0  0  0  0  0
  -27.4210  -37.2250   24.7470 C   0  0  0  0  0  1  0  0  0  0  0  0
  -26.3380  -37.3650   23.7770 N   0  0  0  0  0  0  0  0  0  0  0  0
  -25.9090  -38.2770   23.9090 H   0  0  0  0  0  0  0  0  0  0  0  0
  1  5  2  0
  2  4  1  0
  2  3  1  0
  3 52  1  0
  3  1  1  0
  4  6  1  0
  4  1  1  0
  7  8  1  0
  9 12  2  0
  9 10  1  0
 10  6  1  0
 10  7  2  0
 11 22  1  0
 11  8  2  0
 12 11  1  0
 13 12  1  0
 14 22  1  0
 15 20  1  0
 16 17  1  0
 16 15  1  0
 18 17  1  0
 18 27  1  0
 18 19  1  0
 20 14  1  0
 20 19  1  0
 21 14  2  0
 22 23  1  0
 24 25  2  0
 25 44  1  0
 26 25  1  0
 26 29  1  0
 27 28  1  0
 27 24  1  0
 28 26  2  0
 29 30  1  0
 30 31  2  0
 32 35  1  0
 32 31  1  0
 33 32  2  0
 34 33  1  0
 34 29  2  0
 35 36  1  0
 36 41  2  0
 36 37  1  0
 37 38  2  0
 38 39  1  0
 39 43  1  0
 40 39  2  0
 41 40  1  0
 42 41  1  0
 44 45  1  0
 45 48  1  0
 45 47  1  0
 46 44  2  0
 49 24  1  0
 49 50  1  0
 51 49  1  0
 52 53  1  0
 54 65  2  0
 55 53  1  0
 55 60  1  0
 56 64  1  0
 56 66  1  0
 57 63  1  0
 57 59  1  0
 58 64  1  0
 59 58  1  0
 60 59  2  0
 61 55  2  0
 62 61  1  0
 62 57  2  0
 63 56  1  0
 64 54  1  0
 66 68  2  0
 67 66  1  0
 69 67  1  0
 70 79  2  0
 70 75  1  0
 71 67  1  0
 71 75  1  0
 72 71  1  0
 73 74  1  0
 73 72  1  0
 74 70  1  0
 75 76  2  0
 76 77  1  0
 78 77  2  0
 79 78  1  0
 80 54  1  0
 80 85  1  0
 80 81  1  0
 81 84  1  1
 81 82  1  0
 83 81  1  0
 85 88  1  0
 86 90  1  0
 86 85  1  0
 87 86  2  0
 90 89  1  0
 92 90  1  0
 92 93  1  0
 92 91  1  0
M  ISO  4  14 100  22 100  52 101  53 101
M  END
>  <TORSDO>  (69) 
F 19

>  <SCORE>  (69) 
-13.109

>  <name>  (69) 
69

>  <ligand_id>  (69) 
69

>  <original_smiles>  (69) 
[H]c1c([H])c([H])c2c(c1[H])C([H])([H])C([H])([H])C([H])([H])C2([H])N([H])C(=O)C1([H])N(C(=O)C([H])(N([H])C(=O)C([H])(N([H])C([H])([H])[H])C([H])([H])[H])C(C([H])([H])[H])(C([H])([H])[H])C([H])([H])[H])C([H])([H])c2c([H])c(OC([H])([H])C3([H])C(=O)N(C([H])([H])c4c([H])c([H])c(N([H])C(=O)N5C([H])([H])C([H])([H])C([H])([H])C([H])(n6nc(-c7c([H])c([H])c(Oc8c([H])c([H])c(F)c([H])c8F)c([H])c7[H])c(C(=O)N([H])[H])c6N([H])[H])C5([H])[H])c(F)c4[H])C3([H])[H])c([H])c([H])c2C1([H])[H]

>  <smiles>  (69) 
[H]c1c([H])c([H])c2c(c1[H])C([H])([H])C([H])([H])C([H])([H])C2([H])N([H])C(=O)C1([H])N(C(=O)C([H])(N([H])C(=O)C([H])(N([H])C([H])([H])[H])C([H])([H])[H])C(C([H])([H])[H])(C([H])([H])[H])C([H])([H])[H])C([H])([H])c2c([H])c(OC([H])([H])C3([H])C(=O)N(C([H])([H])c4c([H])c([H])c(N([H])C(=O)N5C([H])([H])C([H])([H])C([H])([H])C([H])(n6nc(-c7c([H])c([H])c(Oc8c([H])c([H])c(F)c([H])c8F)c([H])c7[H])c(C(=O)N([H])[H])c6N([H])[H])C5([H])[H])c(F)c4[H])C3([H])[H])c([H])c([H])c2C1([H])[H]

$$$$
70:0:0
     RDKit          3D

 92100  0  0  1  0  0  0  0  0999 V2000
  -29.7740  -18.4800   19.8970 C   0  0  0  0  0  3  0  0  0  0  0  0
  -29.9750  -19.8820   19.8590 C   0  0  0  0  0  3  0  0  0  0  0  0
  -30.5030  -19.8620   22.2230 C   0  0  0  0  0  3  0  0  0  0  0  0
  -29.9160  -17.7550   21.1030 C   0  0  0  0  0  0  0  0  0  0  0  0
  -30.3490  -20.5930   21.0230 C   0  0  0  0  0  0  0  0  0  0  0  0
  -30.2750  -18.4690   22.2700 C   0  0  0  0  0  0  0  0  0  0  0  0
  -30.3950  -17.8190   23.4530 F   0  0  0  0  0  0  0  0  0  0  0  0
  -31.9930  -22.3060   21.3920 C   0  0  0  0  0  1  0  0  0  0  0  0
  -30.6160  -21.9850   21.0180 N   0  0  0  0  0  0  0  0  0  0  0  0
  -29.9120  -22.8600   20.0640 C   0  0  0  0  0  2  0  0  0  0  0  0
  -29.8220  -24.3490   20.5210 C   0  0  0  0  0  2  0  0  0  0  0  0
  -28.8560  -25.2090   19.6660 C   0  0  0  0  0  2  0  0  0  0  0  0
  -28.8230  -26.5980   20.0710 O   0  0  0  0  0  0  0  0  0  0  0  0
  -24.7810  -31.5770   23.1850 C   0  0  0  0  0  0  0  0  0  0  0  0
  -27.6260  -27.2980   20.0210 C   0  0  0  0  0  0  0  0  0  0  0  0
  -23.6530  -30.1840   21.4830 C   0  0  0  0  0  3  0  0  0  0  0  0
  -25.1820  -28.7460   20.0320 C   0  0  0  0  0  0  0  0  0  0  0  0
  -26.1700  -30.6290   21.3420 C   0  0  0  0  0  2  0  0  0  0  0  0
  -26.3120  -29.2810   20.6610 C   0  0  0  0  0  0  0  0  0  0  0  0
  -27.5340  -28.5630   20.6550 C   0  0  0  0  0  3  0  0  0  0  0  0
  -26.4750  -26.8010   19.3610 C   0  0  0  0  0  3  0  0  0  0  0  0
  -25.2600  -27.5070   19.3810 C   0  0  0  0  0  3  0  0  0  0  0  0
  -23.9090  -29.5600   20.0860 C   0  0  0  0  0  2  0  0  0  0  0  0
  -24.8850  -30.8110   22.0620 N   0  0  0  0  0  0  0  0  0  0  0  0
  -23.6820  -31.7960   23.7130 O   0  0  0  0  0  0  0  0  0  0  0  0
  -23.0250  -29.1100   22.4010 C   0  0  0  0  0  0  0  0  0  0  0  0
  -21.7090  -28.8830   22.2460 N   0  0  0  0  0  0  0  0  0  0  0  0
  -23.7170  -28.4840   23.2080 O   0  0  0  0  0  0  0  0  0  0  0  0
  -21.2110  -29.4460   21.5710 H   0  0  0  0  0  0  0  0  0  0  0  0
  -18.3730  -27.5540   22.6510 C   0  0  0  0  0  0  0  0  0  0  0  0
  -20.9150  -27.8940   22.9740 C   0  0  0  0  0  3  0  0  0  0  0  0
  -21.0780  -26.4850   22.3570 C   0  0  0  0  0  2  0  0  0  0  0  0
  -20.0050  -26.1540   21.3140 C   0  0  0  0  0  2  0  0  0  0  0  0
  -18.6090  -26.2310   21.9380 C   0  0  0  0  0  2  0  0  0  0  0  0
  -19.4570  -28.3410   23.1220 C   0  0  0  0  0  0  0  0  0  0  0  0
  -19.1830  -29.5780   23.7450 C   0  0  0  0  0  3  0  0  0  0  0  0
  -17.8600  -30.0290   23.9030 C   0  0  0  0  0  3  0  0  0  0  0  0
  -16.7900  -29.2380   23.4480 C   0  0  0  0  0  3  0  0  0  0  0  0
  -17.0470  -28.0030   22.8280 C   0  0  0  0  0  3  0  0  0  0  0  0
  -26.0340  -32.2350   23.8430 C   0  0  0  0  0  3  0  0  0  0  0  0
  -25.6830  -33.6240   24.1680 N   0  0  0  0  0  0  0  0  0  0  0  0
  -25.9920  -34.6840   23.4080 C   0  0  0  0  0  0  0  0  0  0  0  0
  -26.6730  -34.5980   22.3830 O   0  0  0  0  0  0  0  0  0  0  0  0
  -25.0760  -33.7630   24.9620 H   0  0  0  0  0  0  0  0  0  0  0  0
  -24.2040  -36.4180   23.0460 C   0  0  0  0  0  1  0  0  0  0  0  0
  -25.4600  -36.0590   23.8560 C   0  0  0  0  0  3  0  0  0  0  0  0
  -27.5680  -37.0170   24.6750 C   0  0  0  0  0  1  0  0  0  0  0  0
  -26.4580  -37.1440   23.7350 N   0  0  0  0  0  0  0  0  0  0  0  0
  -26.0230  -38.0520   23.8780 H   0  0  0  0  0  0  0  0  0  0  0  0
  -26.5340  -31.4710   25.1300 C   0  0  1  0  0  0  0  0  0  0  0  0
  -25.4200  -31.2030   26.1680 C   0  0  0  0  0  1  0  0  0  0  0  0
  -27.1580  -30.1090   24.7470 C   0  0  0  0  0  1  0  0  0  0  0  0
  -27.6500  -32.2880   25.8240 C   0  0  0  0  0  1  0  0  0  0  0  0
  -29.6090  -16.2430   21.1550 C   0  0  0  0  0  2  0  0  0  0  0  0
  -31.0840  -14.4730   20.2070 C   0  0  0  0  0  0  0  0  0  0  0  0
  -30.5900  -12.4330   18.8900 C   0  0  0  0  0  2  0  0  0  0  0  0
  -29.5940  -12.7320   17.7540 C   0  0  0  0  0  2  0  0  0  0  0  0
  -28.1450  -12.6000   18.2580 C   0  0  0  0  0  2  0  0  0  0  0  0
  -27.9060  -13.3770   19.5770 C   0  0  0  0  0  3  0  0  0  0  0  0
  -29.0090  -13.0690   20.6150 C   0  0  0  0  0  2  0  0  0  0  0  0
  -30.3140  -13.3640   20.0020 N   0  0  0  0  0  0  0  0  0  0  0  0
  -32.1340  -14.6580   19.5820 O   0  0  0  0  0  0  0  0  0  0  0  0
  -31.8150  -15.6890   22.1660 C   0  0  0  0  0  1  0  0  0  0  0  0
  -30.7520  -15.2990   21.2340 N   0  0  0  0  0  0  0  0  0  0  0  0
  -25.5640  -14.0330   20.4110 C   0  0  0  0  0  0  0  0  0  0  0  0
  -24.4940  -13.2800   20.8140 C   0  0  0  0  0  0  0  0  0  0  0  0
  -24.9170  -11.9180   20.7340 C   0  0  0  0  0  0  0  0  0  0  0  0
  -26.5720  -13.1280   20.1140 N   0  0  0  0  0  0  0  0  0  0  0  0
  -26.1900  -11.8510   20.3650 N   0  0  0  0  0  0  0  0  0  0  0  0
  -24.1690  -10.6700   20.9300 C   0  0  0  0  0  0  0  0  0  0  0  0
  -24.5800   -9.7030   21.8730 C   0  0  0  0  0  3  0  0  0  0  0  0
  -23.8340   -8.5190   22.0570 C   0  0  0  0  0  3  0  0  0  0  0  0
  -22.6620   -8.2950   21.2950 C   0  0  0  0  0  0  0  0  0  0  0  0
  -22.2690   -9.2500   20.3410 C   0  0  0  0  0  3  0  0  0  0  0  0
  -23.0160  -10.4260   20.1560 C   0  0  0  0  0  3  0  0  0  0  0  0
  -21.8880   -7.1630   21.3880 O   0  0  0  0  0  0  0  0  0  0  0  0
  -21.7580   -6.4740   22.5660 C   0  0  0  0  0  0  0  0  0  0  0  0
  -21.2730   -7.0920   23.7400 C   0  0  0  0  0  3  0  0  0  0  0  0
  -21.0890   -6.3310   24.9110 C   0  0  0  0  0  3  0  0  0  0  0  0
  -21.3800   -4.9530   24.9090 C   0  0  0  0  0  0  0  0  0  0  0  0
  -21.8570   -4.3360   23.7410 C   0  0  0  0  0  3  0  0  0  0  0  0
  -22.0430   -5.0940   22.5710 C   0  0  0  0  0  0  0  0  0  0  0  0
  -22.4830   -4.4900   21.4410 F   0  0  0  0  0  0  0  0  0  0  0  0
  -21.1960   -4.2200   26.0320 F   0  0  0  0  0  0  0  0  0  0  0  0
  -23.1240  -13.7870   21.1600 C   0  0  0  0  0  0  0  0  0  0  0  0
  -22.4250  -13.1000   22.0560 N   0  0  0  0  0  0  0  0  0  0  0  0
  -22.6840  -14.8260   20.6700 O   0  0  0  0  0  0  0  0  0  0  0  0
  -22.7950  -12.2570   22.4700 H   0  0  0  0  0  0  0  0  0  0  0  0
  -21.5080  -13.4210   22.3310 H   0  0  0  0  0  0  0  0  0  0  0  0
  -25.7560  -15.4010   20.2530 N   0  0  0  0  0  0  0  0  0  0  0  0
  -25.0050  -16.0690   20.4020 H   0  0  0  0  0  0  0  0  0  0  0  0
  -26.5900  -15.8260   19.8690 H   0  0  0  0  0  0  0  0  0  0  0  0
  1  4  1  0
  2  1  2  0
  2  5  1  0
  3  6  1  0
  4 54  1  0
  4  6  2  0
  5  3  2  0
  6  7  1  0
  9  5  1  0
  9  8  1  0
 10 11  1  0
 10  9  1  0
 12 13  1  0
 12 11  1  0
 14 25  2  0
 15 13  1  0
 15 20  1  0
 16 24  1  0
 16 26  1  0
 17 23  1  0
 17 19  1  0
 18 24  1  0
 19 18  1  0
 20 19  2  0
 21 22  1  0
 21 15  2  0
 22 17  2  0
 23 16  1  0
 24 14  1  0
 26 28  2  0
 27 26  1  0
 29 27  1  0
 30 39  2  0
 30 35  1  0
 31 27  1  0
 31 35  1  0
 32 31  1  0
 33 34  1  0
 33 32  1  0
 34 30  1  0
 35 36  2  0
 36 37  1  0
 38 37  2  0
 39 38  1  0
 40 14  1  0
 40 41  1  0
 40 50  1  0
 41 44  1  0
 42 46  1  0
 42 41  1  0
 43 42  2  0
 46 45  1  0
 48 46  1  0
 48 49  1  0
 48 47  1  0
 50 53  1  1
 50 51  1  0
 52 50  1  0
 54 64  1  0
 55 64  1  0
 56 61  1  0
 57 58  1  0
 57 56  1  0
 59 58  1  0
 59 68  1  0
 59 60  1  0
 61 55  1  0
 61 60  1  0
 62 55  2  0
 64 63  1  0
 65 66  2  0
 66 85  1  0
 67 66  1  0
 67 70  1  0
 68 69  1  0
 68 65  1  0
 69 67  2  0
 70 71  1  0
 71 72  2  0
 73 76  1  0
 73 72  1  0
 74 73  2  0
 75 74  1  0
 75 70  2  0
 76 77  1  0
 77 82  2  0
 77 78  1  0
 78 79  2  0
 80 79  1  0
 80 84  1  0
 81 80  2  0
 82 81  1  0
 83 82  1  0
 85 86  1  0
 86 89  1  0
 86 88  1  0
 87 85  2  0
 90 91  1  0
 90 65  1  0
 92 90  1  0
M  ISO  4  12 101  13 101  55 100  64 100
M  END
>  <TORSDO>  (70) 
F 21

>  <SCORE>  (70) 
-10.914

>  <name>  (70) 
70

>  <ligand_id>  (70) 
70

>  <original_smiles>  (70) 
[H]c1c([H])c([H])c2c(c1[H])C([H])([H])C([H])([H])C([H])([H])C2([H])N([H])C(=O)C1([H])N(C(=O)C([H])(N([H])C(=O)C([H])(N([H])C([H])([H])[H])C([H])([H])[H])C(C([H])([H])[H])(C([H])([H])[H])C([H])([H])[H])C([H])([H])c2c([H])c(OC([H])([H])C([H])([H])C([H])([H])N(c3c([H])c([H])c(C([H])([H])N(C(=O)N4C([H])([H])C([H])([H])C([H])([H])C([H])(n5nc(-c6c([H])c([H])c(Oc7c([H])c([H])c(F)c([H])c7F)c([H])c6[H])c(C(=O)N([H])[H])c5N([H])[H])C4([H])[H])C([H])([H])[H])c(F)c3[H])C([H])([H])[H])c([H])c([H])c2C1([H])[H]

>  <smiles>  (70) 
[H]c1c([H])c([H])c2c(c1[H])C([H])([H])C([H])([H])C([H])([H])C2([H])N([H])C(=O)C1([H])N(C(=O)C([H])(N([H])C(=O)C([H])(N([H])C([H])([H])[H])C([H])([H])[H])C(C([H])([H])[H])(C([H])([H])[H])C([H])([H])[H])C([H])([H])c2c([H])c(OC([H])([H])C([H])([H])C([H])([H])N(c3c([H])c([H])c(C([H])([H])N(C(=O)N4C([H])([H])C([H])([H])C([H])([H])C([H])(n5nc(-c6c([H])c([H])c(Oc7c([H])c([H])c(F)c([H])c7F)c([H])c6[H])c(C(=O)N([H])[H])c5N([H])[H])C4([H])[H])C([H])([H])[H])c(F)c3[H])C([H])([H])[H])c([H])c([H])c2C1([H])[H]

$$$$
71:0:0
     RDKit          3D

 94102  0  0  1  0  0  0  0  0999 V2000
  -30.5600  -22.0030   18.8500 C   0  0  0  0  0  2  0  0  0  0  0  0
  -29.2170  -18.4200   18.9320 C   0  0  0  0  0  3  0  0  0  0  0  0
  -29.5930  -19.6920   18.4760 C   0  0  0  0  0  3  0  0  0  0  0  0
  -30.1160  -18.9420   21.1340 C   0  0  0  0  0  3  0  0  0  0  0  0
  -29.5400  -18.0050   20.2450 C   0  0  0  0  0  0  0  0  0  0  0  0
  -30.1900  -20.6170   19.3530 C   0  0  0  0  0  0  0  0  0  0  0  0
  -30.4250  -20.2460   20.6960 C   0  0  0  0  0  0  0  0  0  0  0  0
  -30.9740  -21.1330   21.5610 F   0  0  0  0  0  0  0  0  0  0  0  0
  -29.2830  -16.5590   20.6810 C   0  0  0  0  0  2  0  0  0  0  0  0
  -30.7900  -14.5780   20.8170 C   0  0  0  0  0  0  0  0  0  0  0  0
  -30.5600  -12.3470   19.8690 C   0  0  0  0  0  2  0  0  0  0  0  0
  -29.7140  -12.4600   18.5810 C   0  0  0  0  0  2  0  0  0  0  0  0
  -28.2110  -12.3530   18.9040 C   0  0  0  0  0  2  0  0  0  0  0  0
  -27.7720  -13.2720   20.0750 C   0  0  0  0  0  3  0  0  0  0  0  0
  -28.7420  -13.1890   21.2760 C   0  0  0  0  0  2  0  0  0  0  0  0
  -30.1030  -13.4090   20.7720 N   0  0  0  0  0  0  0  0  0  0  0  0
  -32.0220  -14.6130   20.8410 O   0  0  0  0  0  0  0  0  0  0  0  0
  -30.7930  -15.8550   18.7740 C   0  0  0  0  0  1  0  0  0  0  0  0
  -30.1840  -15.5430   20.0840 N   0  0  0  0  0  0  0  0  0  0  0  0
  -25.3370  -13.9010   20.6120 C   0  0  0  0  0  0  0  0  0  0  0  0
  -24.2410  -13.1390   20.9220 C   0  0  0  0  0  0  0  0  0  0  0  0
  -24.6980  -11.7870   20.9510 C   0  0  0  0  0  0  0  0  0  0  0  0
  -26.3910  -13.0140   20.4750 N   0  0  0  0  0  0  0  0  0  0  0  0
  -26.0070  -11.7400   20.7460 N   0  0  0  0  0  0  0  0  0  0  0  0
  -23.9570  -10.5290   21.1130 C   0  0  0  0  0  0  0  0  0  0  0  0
  -24.3390   -9.5710   22.0770 C   0  0  0  0  0  3  0  0  0  0  0  0
  -23.6010   -8.3750   22.2280 C   0  0  0  0  0  3  0  0  0  0  0  0
  -22.4700   -8.1330   21.4140 C   0  0  0  0  0  0  0  0  0  0  0  0
  -22.1110   -9.0840   20.4390 C   0  0  0  0  0  3  0  0  0  0  0  0
  -22.8460  -10.2690   20.2860 C   0  0  0  0  0  3  0  0  0  0  0  0
  -21.7080   -6.9920   21.4670 O   0  0  0  0  0  0  0  0  0  0  0  0
  -21.6130   -6.2460   22.6150 C   0  0  0  0  0  0  0  0  0  0  0  0
  -21.1570   -6.8030   23.8300 C   0  0  0  0  0  3  0  0  0  0  0  0
  -21.0080   -5.9830   24.9690 C   0  0  0  0  0  3  0  0  0  0  0  0
  -21.3050   -4.6100   24.8920 C   0  0  0  0  0  0  0  0  0  0  0  0
  -21.7500   -4.0530   23.6810 C   0  0  0  0  0  3  0  0  0  0  0  0
  -21.9030   -4.8710   22.5450 C   0  0  0  0  0  0  0  0  0  0  0  0
  -22.3130   -4.3230   21.3770 F   0  0  0  0  0  0  0  0  0  0  0  0
  -21.1570   -3.8190   25.9820 F   0  0  0  0  0  0  0  0  0  0  0  0
  -22.8260  -13.6210   21.0710 C   0  0  0  0  0  0  0  0  0  0  0  0
  -22.0350  -12.9440   21.8970 N   0  0  0  0  0  0  0  0  0  0  0  0
  -22.4270  -14.6280   20.4870 O   0  0  0  0  0  0  0  0  0  0  0  0
  -22.3730  -12.1310   22.3910 H   0  0  0  0  0  0  0  0  0  0  0  0
  -21.0830  -13.2430   22.0400 H   0  0  0  0  0  0  0  0  0  0  0  0
  -25.5190  -15.2650   20.4170 N   0  0  0  0  0  0  0  0  0  0  0  0
  -24.7430  -15.9150   20.4520 H   0  0  0  0  0  0  0  0  0  0  0  0
  -26.3840  -15.6930   20.1180 H   0  0  0  0  0  0  0  0  0  0  0  0
  -28.6910  -22.9080   17.4750 C   0  0  0  0  0  1  0  0  0  0  0  0
  -29.3620  -22.8790   18.8000 N   0  0  2  0  0  4  0  0  0  0  0  0
  -28.7090  -22.4430   19.4330 H   0  0  0  0  0  0  0  0  0  0  0  0
  -29.5700  -24.2410   19.3490 C   0  0  0  0  0  2  0  0  0  0  0  0
  -28.5970  -24.5050   20.5080 C   0  0  0  0  0  2  0  0  0  0  0  0
  -28.7310  -25.9170   21.0760 C   0  0  0  0  0  2  0  0  0  0  0  0
  -28.4640  -26.8440   20.0380 O   0  0  0  0  0  0  0  0  0  0  0  0
  -24.6150  -31.8840   23.2360 C   0  0  0  0  0  0  0  0  0  0  0  0
  -27.2660  -27.4960   20.1330 C   0  0  0  0  0  0  0  0  0  0  0  0
  -23.4010  -30.4780   21.6010 C   0  0  0  0  0  3  0  0  0  0  0  0
  -24.8510  -28.9400   20.1750 C   0  0  0  0  0  0  0  0  0  0  0  0
  -25.9180  -30.8540   21.3850 C   0  0  0  0  0  2  0  0  0  0  0  0
  -26.0030  -29.4820   20.7580 C   0  0  0  0  0  0  0  0  0  0  0  0
  -27.2140  -28.7650   20.7390 C   0  0  0  0  0  3  0  0  0  0  0  0
  -26.1020  -26.9420   19.5630 C   0  0  0  0  0  3  0  0  0  0  0  0
  -24.8890  -27.6620   19.5840 C   0  0  0  0  0  3  0  0  0  0  0  0
  -23.6030  -29.7920   20.2220 C   0  0  0  0  0  2  0  0  0  0  0  0
  -24.6630  -31.0870   22.1320 N   0  0  0  0  0  0  0  0  0  0  0  0
  -23.5380  -32.1520   23.7860 O   0  0  0  0  0  0  0  0  0  0  0  0
  -22.7620  -29.4570   22.5650 C   0  0  0  0  0  0  0  0  0  0  0  0
  -21.4380  -29.2700   22.4450 N   0  0  0  0  0  0  0  0  0  0  0  0
  -23.4530  -28.8350   23.3760 O   0  0  0  0  0  0  0  0  0  0  0  0
  -20.9450  -29.8190   21.7540 H   0  0  0  0  0  0  0  0  0  0  0  0
  -18.0700  -28.0690   22.9520 C   0  0  0  0  0  0  0  0  0  0  0  0
  -20.6260  -28.3320   23.2180 C   0  0  0  0  0  3  0  0  0  0  0  0
  -20.7330  -26.9010   22.6430 C   0  0  0  0  0  2  0  0  0  0  0  0
  -19.6280  -26.5750   21.6320 C   0  0  0  0  0  2  0  0  0  0  0  0
  -18.2480  -26.7180   22.2800 C   0  0  0  0  0  2  0  0  0  0  0  0
  -19.1880  -28.8340   23.3790 C   0  0  0  0  0  0  0  0  0  0  0  0
  -18.9680  -30.0990   23.9660 C   0  0  0  0  0  3  0  0  0  0  0  0
  -17.6640  -30.5970   24.1330 C   0  0  0  0  0  3  0  0  0  0  0  0
  -16.5600  -29.8300   23.7240 C   0  0  0  0  0  3  0  0  0  0  0  0
  -16.7640  -28.5680   23.1380 C   0  0  0  0  0  3  0  0  0  0  0  0
  -25.9080  -32.5130   23.8460 C   0  0  0  0  0  3  0  0  0  0  0  0
  -25.6000  -33.9100   24.1800 N   0  0  0  0  0  0  0  0  0  0  0  0
  -25.9310  -34.9630   23.4180 C   0  0  0  0  0  0  0  0  0  0  0  0
  -26.5990  -34.8610   22.3860 O   0  0  0  0  0  0  0  0  0  0  0  0
  -25.0050  -34.0660   24.9790 H   0  0  0  0  0  0  0  0  0  0  0  0
  -24.2020  -36.7520   23.0660 C   0  0  0  0  0  1  0  0  0  0  0  0
  -25.4450  -36.3510   23.8760 C   0  0  0  0  0  3  0  0  0  0  0  0
  -27.5820  -37.2340   24.7010 C   0  0  0  0  0  1  0  0  0  0  0  0
  -26.4770  -37.4050   23.7610 N   0  0  0  0  0  0  0  0  0  0  0  0
  -26.0700  -38.3240   23.9140 H   0  0  0  0  0  0  0  0  0  0  0  0
  -26.4400  -31.7380   25.1140 C   0  0  1  0  0  0  0  0  0  0  0  0
  -25.3580  -31.4930   26.1930 C   0  0  0  0  0  1  0  0  0  0  0  0
  -27.0220  -30.3650   24.7100 C   0  0  0  0  0  1  0  0  0  0  0  0
  -27.5990  -32.5320   25.7640 C   0  0  0  0  0  1  0  0  0  0  0  0
  1  6  1  0
  2  5  1  0
  3  2  2  0
  3  6  1  0
  5  9  1  0
  5  4  2  0
  6  7  2  0
  7  4  1  0
  7  8  1  0
 10 17  2  0
 11 16  1  0
 12 13  1  0
 12 11  1  0
 14 13  1  0
 14 23  1  0
 14 15  1  0
 16 10  1  0
 16 15  1  0
 18 19  1  0
 19  9  1  0
 19 10  1  0
 20 21  2  0
 21 22  1  0
 21 40  1  0
 22 25  1  0
 23 20  1  0
 23 24  1  0
 24 22  2  0
 25 26  1  0
 26 27  2  0
 28 31  1  0
 28 27  1  0
 29 28  2  0
 30 29  1  0
 30 25  2  0
 31 32  1  0
 32 33  1  0
 33 34  2  0
 35 34  1  0
 35 39  1  0
 36 35  2  0
 37 32  2  0
 37 36  1  0
 38 37  1  0
 40 41  1  0
 41 44  1  0
 41 43  1  0
 42 40  2  0
 45 46  1  0
 45 20  1  0
 47 45  1  0
 48 49  1  0
 49  1  1  0
 49 51  1  0
 49 50  1  1
 51 52  1  0
 52 53  1  0
 54 56  1  0
 54 53  1  0
 55 66  2  0
 56 61  1  0
 57 65  1  0
 57 67  1  0
 58 64  1  0
 58 60  1  0
 59 65  1  0
 60 59  1  0
 61 60  2  0
 62 63  1  0
 62 56  2  0
 63 58  2  0
 64 57  1  0
 65 55  1  0
 67 69  2  0
 68 67  1  0
 70 68  1  0
 71 80  2  0
 71 76  1  0
 72 68  1  0
 72 76  1  0
 73 72  1  0
 74 75  1  0
 74 73  1  0
 75 71  1  0
 76 77  2  0
 77 78  1  0
 79 78  2  0
 80 79  1  0
 81 55  1  0
 81 82  1  0
 81 91  1  0
 82 85  1  0
 83 87  1  0
 83 82  1  0
 84 83  2  0
 87 86  1  0
 89 87  1  0
 89 90  1  0
 89 88  1  0
 91 94  1  1
 91 92  1  0
 93 91  1  0
M  ISO  4  10 100  19 100  53 101  54 101
M  END
>  <TORSDO>  (71) 
F 22

>  <SCORE>  (71) 
-13.102

>  <name>  (71) 
71

>  <ligand_id>  (71) 
71

>  <original_smiles>  (71) 
[H]c1c([H])c([H])c2c(c1[H])C([H])([H])C([H])([H])C([H])([H])C2([H])N([H])C(=O)C1([H])N(C(=O)C([H])(N([H])C(=O)C([H])(N([H])C([H])([H])[H])C([H])([H])[H])C(C([H])([H])[H])(C([H])([H])[H])C([H])([H])[H])C([H])([H])c2c([H])c(OC([H])([H])C([H])([H])C([H])([H])[N+]([H])(C([H])([H])[H])C([H])([H])c3c([H])c([H])c(C([H])([H])N(C(=O)N4C([H])([H])C([H])([H])C([H])([H])C([H])(n5nc(-c6c([H])c([H])c(Oc7c([H])c([H])c(F)c([H])c7F)c([H])c6[H])c(C(=O)N([H])[H])c5N([H])[H])C4([H])[H])C([H])([H])[H])c([H])c3F)c([H])c([H])c2C1([H])[H]

>  <smiles>  (71) 
[H]c1c([H])c([H])c2c(c1[H])C([H])([H])C([H])([H])C([H])([H])C2([H])N([H])C(=O)C1([H])N(C(=O)C([H])(N([H])C(=O)C([H])(N([H])C([H])([H])[H])C([H])([H])[H])C(C([H])([H])[H])(C([H])([H])[H])C([H])([H])[H])C([H])([H])c2c([H])c(OC([H])([H])C([H])([H])C([H])([H])[N+]([H])(C([H])([H])[H])C([H])([H])c3c([H])c([H])c(C([H])([H])N(C(=O)N4C([H])([H])C([H])([H])C([H])([H])C([H])(n5nc(-c6c([H])c([H])c(Oc7c([H])c([H])c(F)c([H])c7F)c([H])c6[H])c(C(=O)N([H])[H])c5N([H])[H])C4([H])[H])C([H])([H])[H])c([H])c3F)c([H])c([H])c2C1([H])[H]

$$$$
72:0:0
     RDKit          3D

 94102  0  0  1  0  0  0  0  0999 V2000
  -28.2920  -20.9730   21.5160 C   0  0  0  0  0  3  0  0  0  0  0  0
  -28.8090  -19.6980   21.2070 C   0  0  0  0  0  3  0  0  0  0  0  0
  -28.8020  -21.7110   19.2740 C   0  0  0  0  0  3  0  0  0  0  0  0
  -28.2570  -21.9980   20.5470 C   0  0  0  0  0  0  0  0  0  0  0  0
  -29.3100  -19.3850   19.9200 C   0  0  0  0  0  0  0  0  0  0  0  0
  -29.3050  -20.4320   18.9520 C   0  0  0  0  0  0  0  0  0  0  0  0
  -29.7630  -20.2470   17.6880 F   0  0  0  0  0  0  0  0  0  0  0  0
  -30.3630  -17.7710   18.3550 C   0  0  0  0  0  1  0  0  0  0  0  0
  -29.8070  -18.0720   19.6700 N   0  0  0  0  0  0  0  0  0  0  0  0
  -29.2070  -16.9410   20.4000 C   0  0  0  0  0  2  0  0  0  0  0  0
  -30.2200  -15.9890   21.1290 C   0  0  0  0  0  2  0  0  0  0  0  0
  -30.9210  -14.8700   20.3090 C   0  0  0  0  0  0  0  0  0  0  0  0
  -30.7610  -12.6560   19.2000 C   0  0  0  0  0  2  0  0  0  0  0  0
  -29.7910  -12.7810   17.9990 C   0  0  0  0  0  2  0  0  0  0  0  0
  -28.3190  -12.5990   18.4460 C   0  0  0  0  0  2  0  0  0  0  0  0
  -27.9590  -13.4810   19.6610 C   0  0  0  0  0  3  0  0  0  0  0  0
  -29.0250  -13.2800   20.7590 C   0  0  0  0  0  2  0  0  0  0  0  0
  -30.3330  -13.6500   20.1980 N   0  0  0  0  0  0  0  0  0  0  0  0
  -32.0080  -15.1080   19.7700 O   0  0  0  0  0  0  0  0  0  0  0  0
  -25.5850  -14.1590   20.4050 C   0  0  0  0  0  0  0  0  0  0  0  0
  -24.5070  -13.4100   20.7790 C   0  0  0  0  0  0  0  0  0  0  0  0
  -24.9370  -12.0460   20.7310 C   0  0  0  0  0  0  0  0  0  0  0  0
  -26.6090  -13.2510   20.1600 N   0  0  0  0  0  0  0  0  0  0  0  0
  -26.2220  -11.9780   20.4140 N   0  0  0  0  0  0  0  0  0  0  0  0
  -24.1910  -10.8010   20.9120 C   0  0  0  0  0  0  0  0  0  0  0  0
  -24.5960   -9.8410   21.8670 C   0  0  0  0  0  3  0  0  0  0  0  0
  -23.8600   -8.6500   22.0390 C   0  0  0  0  0  3  0  0  0  0  0  0
  -22.7060   -8.4100   21.2560 C   0  0  0  0  0  0  0  0  0  0  0  0
  -22.3210   -9.3580   20.2930 C   0  0  0  0  0  3  0  0  0  0  0  0
  -23.0550  -10.5430   20.1140 C   0  0  0  0  0  3  0  0  0  0  0  0
  -21.9420   -7.2730   21.3370 O   0  0  0  0  0  0  0  0  0  0  0  0
  -21.8380   -6.5660   22.5090 C   0  0  0  0  0  0  0  0  0  0  0  0
  -21.3410   -7.1540   23.6930 C   0  0  0  0  0  3  0  0  0  0  0  0
  -21.1760   -6.3700   24.8540 C   0  0  0  0  0  3  0  0  0  0  0  0
  -21.4980   -4.9990   24.8310 C   0  0  0  0  0  0  0  0  0  0  0  0
  -21.9870   -4.4120   23.6520 C   0  0  0  0  0  3  0  0  0  0  0  0
  -22.1520   -5.1930   22.4940 C   0  0  0  0  0  0  0  0  0  0  0  0
  -22.6030   -4.6170   21.3540 F   0  0  0  0  0  0  0  0  0  0  0  0
  -21.3370   -4.2450   25.9450 F   0  0  0  0  0  0  0  0  0  0  0  0
  -23.1180  -13.9080   21.0650 C   0  0  0  0  0  0  0  0  0  0  0  0
  -22.3890  -13.2200   21.9300 N   0  0  0  0  0  0  0  0  0  0  0  0
  -22.6920  -14.9430   20.5460 O   0  0  0  0  0  0  0  0  0  0  0  0
  -22.7440  -12.3790   22.3640 H   0  0  0  0  0  0  0  0  0  0  0  0
  -21.4630  -13.5350   22.1740 H   0  0  0  0  0  0  0  0  0  0  0  0
  -25.7670  -15.5330   20.2230 N   0  0  0  0  0  0  0  0  0  0  0  0
  -25.0010  -16.1920   20.3000 H   0  0  0  0  0  0  0  0  0  0  0  0
  -26.5760  -15.9350   19.7750 H   0  0  0  0  0  0  0  0  0  0  0  0
  -27.6990  -23.2610   20.8700 N   0  0  0  0  0  0  0  0  0  0  0  0
  -25.3090  -23.6920   20.2790 C   0  0  0  0  0  1  0  0  0  0  0  0
  -26.3170  -23.2880   21.3660 C   0  0  0  0  0  2  0  0  0  0  0  0
  -28.1270  -24.4500   20.1300 C   0  0  0  0  0  2  0  0  0  0  0  0
  -29.5490  -24.9060   20.4930 C   0  0  0  0  0  2  0  0  0  0  0  0
  -29.9220  -26.2530   19.8440 C   0  0  0  0  0  2  0  0  0  0  0  0
  -29.4720  -27.3470   20.6390 O   0  0  0  0  0  0  0  0  0  0  0  0
  -24.8570  -31.9540   23.4020 C   0  0  0  0  0  0  0  0  0  0  0  0
  -28.2010  -27.8690   20.5140 C   0  0  0  0  0  0  0  0  0  0  0  0
  -23.9500  -30.4790   21.6270 C   0  0  0  0  0  3  0  0  0  0  0  0
  -25.6650  -29.1130   20.3280 C   0  0  0  0  0  0  0  0  0  0  0  0
  -26.4250  -31.0810   21.6780 C   0  0  0  0  0  2  0  0  0  0  0  0
  -26.6990  -29.7360   21.0360 C   0  0  0  0  0  0  0  0  0  0  0  0
  -27.9570  -29.1100   21.1420 C   0  0  0  0  0  3  0  0  0  0  0  0
  -27.1430  -27.2460   19.8060 C   0  0  0  0  0  3  0  0  0  0  0  0
  -25.8820  -27.8680   19.7120 C   0  0  0  0  0  3  0  0  0  0  0  0
  -24.3540  -29.8550   20.2620 C   0  0  0  0  0  2  0  0  0  0  0  0
  -25.0860  -31.1900   22.2950 N   0  0  0  0  0  0  0  0  0  0  0  0
  -23.7110  -32.1160   23.8380 O   0  0  0  0  0  0  0  0  0  0  0  0
  -23.3050  -29.3850   22.5120 C   0  0  0  0  0  0  0  0  0  0  0  0
  -22.0040  -29.1340   22.2980 N   0  0  0  0  0  0  0  0  0  0  0  0
  -23.9730  -28.7710   23.3450 O   0  0  0  0  0  0  0  0  0  0  0  0
  -21.5270  -29.6950   21.6050 H   0  0  0  0  0  0  0  0  0  0  0  0
  -18.6660  -27.7650   22.5790 C   0  0  0  0  0  0  0  0  0  0  0  0
  -21.1980  -28.1130   22.9760 C   0  0  0  0  0  3  0  0  0  0  0  0
  -21.3800  -26.7250   22.3140 C   0  0  0  0  0  2  0  0  0  0  0  0
  -20.3420  -26.4290   21.2300 C   0  0  0  0  0  2  0  0  0  0  0  0
  -18.9310  -26.4780   21.8170 C   0  0  0  0  0  2  0  0  0  0  0  0
  -19.7300  -28.5400   23.1090 C   0  0  0  0  0  0  0  0  0  0  0  0
  -19.4330  -29.7510   23.7700 C   0  0  0  0  0  3  0  0  0  0  0  0
  -18.1040  -30.1870   23.9130 C   0  0  0  0  0  3  0  0  0  0  0  0
  -17.0530  -29.4050   23.4050 C   0  0  0  0  0  3  0  0  0  0  0  0
  -17.3340  -28.1970   22.7420 C   0  0  0  0  0  3  0  0  0  0  0  0
  -26.0170  -32.6830   24.1530 C   0  0  0  0  0  3  0  0  0  0  0  0
  -25.5910  -34.0680   24.3950 N   0  0  0  0  0  0  0  0  0  0  0  0
  -25.9440  -35.1160   23.6390 C   0  0  0  0  0  0  0  0  0  0  0  0
  -26.7300  -35.0210   22.6910 O   0  0  0  0  0  0  0  0  0  0  0  0
  -24.9060  -34.2160   25.1220 H   0  0  0  0  0  0  0  0  0  0  0  0
  -24.1550  -36.7770   23.0330 C   0  0  0  0  0  1  0  0  0  0  0  0
  -25.3270  -36.4840   23.9840 C   0  0  0  0  0  3  0  0  0  0  0  0
  -27.3030  -37.5390   24.9930 C   0  0  0  0  0  1  0  0  0  0  0  0
  -26.2980  -37.5990   23.9340 N   0  0  0  0  0  0  0  0  0  0  0  0
  -25.8210  -38.4920   24.0000 H   0  0  0  0  0  0  0  0  0  0  0  0
  -26.4270  -31.9810   25.5060 C   0  0  1  0  0  0  0  0  0  0  0  0
  -25.2300  -31.6810   26.4370 C   0  0  0  0  0  1  0  0  0  0  0  0
  -27.1530  -30.6430   25.2320 C   0  0  0  0  0  1  0  0  0  0  0  0
  -27.4220  -32.8740   26.2860 C   0  0  0  0  0  1  0  0  0  0  0  0
  2  1  1  0
  3  4  1  0
  4 48  1  0
  4  1  2  0
  5  2  2  0
  6  3  2  0
  6  5  1  0
  7  6  1  0
  8  9  1  0
  9  5  1  0
  9 10  1  0
 10 11  1  0
 12 11  1  0
 13 18  1  0
 14 15  1  0
 14 13  1  0
 16 15  1  0
 16 23  1  0
 16 17  1  0
 18 12  1  0
 18 17  1  0
 19 12  2  0
 20 21  2  0
 21 40  1  0
 22 21  1  0
 22 25  1  0
 23 20  1  0
 23 24  1  0
 24 22  2  0
 25 26  1  0
 26 27  2  0
 28 31  1  0
 28 27  1  0
 29 28  2  0
 30 29  1  0
 30 25  2  0
 31 32  1  0
 32 33  1  0
 33 34  2  0
 35 34  1  0
 35 39  1  0
 36 35  2  0
 37 32  2  0
 37 36  1  0
 38 37  1  0
 40 41  1  0
 41 44  1  0
 41 43  1  0
 42 40  2  0
 45 46  1  0
 45 20  1  0
 47 45  1  0
 48 50  1  0
 49 50  1  0
 51 52  1  0
 51 48  1  0
 53 52  1  0
 53 54  1  0
 55 66  2  0
 56 54  1  0
 56 61  1  0
 57 65  1  0
 57 67  1  0
 58 60  1  0
 59 65  1  0
 60 61  2  0
 60 59  1  0
 62 56  2  0
 63 62  1  0
 63 58  2  0
 64 58  1  0
 64 57  1  0
 65 55  1  0
 67 69  2  0
 68 67  1  0
 70 68  1  0
 71 80  2  0
 71 76  1  0
 72 68  1  0
 72 76  1  0
 73 72  1  0
 74 75  1  0
 74 73  1  0
 75 71  1  0
 76 77  2  0
 77 78  1  0
 79 78  2  0
 80 79  1  0
 81 55  1  0
 81 82  1  0
 81 91  1  0
 82 85  1  0
 83 87  1  0
 83 82  1  0
 84 83  2  0
 87 86  1  0
 89 87  1  0
 89 90  1  0
 89 88  1  0
 91 94  1  1
 91 92  1  0
 93 91  1  0
M  ISO  4  11 100  12 100  53 101  54 101
M  END
>  <TORSDO>  (72) 
F 24

>  <SCORE>  (72) 
-11.396

>  <name>  (72) 
72

>  <ligand_id>  (72) 
72

>  <original_smiles>  (72) 
[H]c1c([H])c([H])c2c(c1[H])C([H])([H])C([H])([H])C([H])([H])C2([H])N([H])C(=O)C1([H])N(C(=O)C([H])(N([H])C(=O)C([H])(N([H])C([H])([H])[H])C([H])([H])[H])C(C([H])([H])[H])(C([H])([H])[H])C([H])([H])[H])C([H])([H])c2c([H])c(OC([H])([H])C([H])([H])C([H])([H])N(c3c([H])c([H])c(N(C([H])([H])[H])C([H])([H])C([H])([H])C(=O)N4C([H])([H])C([H])([H])C([H])([H])C([H])(n5nc(-c6c([H])c([H])c(Oc7c([H])c([H])c(F)c([H])c7F)c([H])c6[H])c(C(=O)N([H])[H])c5N([H])[H])C4([H])[H])c(F)c3[H])C([H])([H])C([H])([H])[H])c([H])c([H])c2C1([H])[H]

>  <smiles>  (72) 
[H]c1c([H])c([H])c2c(c1[H])C([H])([H])C([H])([H])C([H])([H])C2([H])N([H])C(=O)C1([H])N(C(=O)C([H])(N([H])C(=O)C([H])(N([H])C([H])([H])[H])C([H])([H])[H])C(C([H])([H])[H])(C([H])([H])[H])C([H])([H])[H])C([H])([H])c2c([H])c(OC([H])([H])C([H])([H])C([H])([H])N(c3c([H])c([H])c(N(C([H])([H])[H])C([H])([H])C([H])([H])C(=O)N4C([H])([H])C([H])([H])C([H])([H])C([H])(n5nc(-c6c([H])c([H])c(Oc7c([H])c([H])c(F)c([H])c7F)c([H])c6[H])c(C(=O)N([H])[H])c5N([H])[H])C4([H])[H])c(F)c3[H])C([H])([H])C([H])([H])[H])c([H])c([H])c2C1([H])[H]

$$$$
73:0:0
     RDKit          3D

 85 93  0  0  1  0  0  0  0  0999 V2000
  -27.9520  -20.3630   20.6190 C   0  0  0  0  0  3  0  0  0  0  0  0
  -29.9510  -20.7640   19.7150 C   0  0  0  0  0  3  0  0  0  0  0  0
  -27.5650  -22.0590   20.1300 C   0  0  0  0  0  3  0  0  0  0  0  0
  -29.7470  -22.4910   20.2150 C   0  0  0  0  0  3  0  0  0  0  0  0
  -29.3350  -19.3030   20.4000 C   0  0  0  0  0  0  0  0  0  0  0  0
  -28.3770  -23.5570   20.4390 C   0  0  0  0  0  0  0  0  0  0  0  0
  -30.1950  -16.0250   20.0540 C   0  0  0  0  0  0  0  0  0  0  0  0
  -30.3710  -13.4240   19.2040 C   0  0  0  0  0  2  0  0  0  0  0  0
  -29.4760  -12.8720   18.0490 C   0  0  0  0  0  2  0  0  0  0  0  0
  -28.0960  -12.4390   18.5630 C   0  0  0  0  0  2  0  0  0  0  0  0
  -27.5660  -13.4490   19.5970 C   0  0  0  0  0  3  0  0  0  0  0  0
  -28.6100  -13.8950   20.6570 C   0  0  0  0  0  2  0  0  0  0  0  0
  -29.7030  -14.6140   19.9390 N   0  0  0  0  0  0  0  0  0  0  0  0
  -31.4420  -15.9100   19.9860 O   0  0  0  0  0  0  0  0  0  0  0  0
  -28.0280  -17.2660   19.6400 C   0  0  0  0  0  1  0  0  0  0  0  0
  -29.4100  -17.4570   20.0620 N   0  0  0  0  0  0  0  0  0  0  0  0
  -25.2360  -13.9540   20.4520 C   0  0  0  0  0  0  0  0  0  0  0  0
  -24.1930  -13.1660   20.8420 C   0  0  0  0  0  0  0  0  0  0  0  0
  -24.6710  -11.8210   20.7780 C   0  0  0  0  0  0  0  0  0  0  0  0
  -26.2770  -13.0930   20.1670 N   0  0  0  0  0  0  0  0  0  0  0  0
  -25.9550  -11.7990   20.4290 N   0  0  0  0  0  0  0  0  0  0  0  0
  -23.9520  -10.5540   20.9700 C   0  0  0  0  0  0  0  0  0  0  0  0
  -24.3940   -9.5860   21.8970 C   0  0  0  0  0  3  0  0  0  0  0  0
  -23.6720   -8.3880   22.0800 C   0  0  0  0  0  3  0  0  0  0  0  0
  -22.4920   -8.1490   21.3360 C   0  0  0  0  0  0  0  0  0  0  0  0
  -22.0680   -9.1060   20.3970 C   0  0  0  0  0  3  0  0  0  0  0  0
  -22.7920  -10.2960   20.2120 C   0  0  0  0  0  3  0  0  0  0  0  0
  -21.7400   -7.0020   21.4290 O   0  0  0  0  0  0  0  0  0  0  0  0
  -21.6800   -6.2720   22.5890 C   0  0  0  0  0  0  0  0  0  0  0  0
  -21.2120   -6.8310   23.7980 C   0  0  0  0  0  3  0  0  0  0  0  0
  -21.1050   -6.0270   24.9500 C   0  0  0  0  0  3  0  0  0  0  0  0
  -21.4540   -4.6640   24.8940 C   0  0  0  0  0  0  0  0  0  0  0  0
  -21.9140   -4.1040   23.6890 C   0  0  0  0  0  3  0  0  0  0  0  0
  -22.0250   -4.9050   22.5390 C   0  0  0  0  0  0  0  0  0  0  0  0
  -22.4490   -4.3550   21.3760 F   0  0  0  0  0  0  0  0  0  0  0  0
  -21.3430   -3.8890   25.9970 F   0  0  0  0  0  0  0  0  0  0  0  0
  -22.8020  -13.6380   21.1480 C   0  0  0  0  0  0  0  0  0  0  0  0
  -22.1010  -12.9370   22.0310 N   0  0  0  0  0  0  0  0  0  0  0  0
  -22.3500  -14.6630   20.6400 O   0  0  0  0  0  0  0  0  0  0  0  0
  -22.4840  -12.1070   22.4590 H   0  0  0  0  0  0  0  0  0  0  0  0
  -21.1710  -13.2370   22.2850 H   0  0  0  0  0  0  0  0  0  0  0  0
  -25.3730  -15.3270   20.2830 N   0  0  0  0  0  0  0  0  0  0  0  0
  -24.5900  -15.9580   20.4160 H   0  0  0  0  0  0  0  0  0  0  0  0
  -26.2000  -15.7840   19.9270 H   0  0  0  0  0  0  0  0  0  0  0  0
  -28.2320  -25.3960   20.2160 O   0  0  0  0  0  0  0  0  0  0  0  0
  -24.6860  -31.8580   23.1820 C   0  0  0  0  0  0  0  0  0  0  0  0
  -27.2300  -26.6420   20.2520 C   0  0  0  0  0  0  0  0  0  0  0  0
  -23.5140  -30.4460   21.5500 C   0  0  0  0  0  3  0  0  0  0  0  0
  -24.9680  -28.7640   20.1660 C   0  0  0  0  0  0  0  0  0  0  0  0
  -26.0990  -30.5570   21.4440 C   0  0  0  0  0  2  0  0  0  0  0  0
  -26.1650  -29.1020   20.8040 C   0  0  0  0  0  0  0  0  0  0  0  0
  -27.2760  -28.0790   20.8010 C   0  0  0  0  0  3  0  0  0  0  0  0
  -25.9900  -26.5530   19.5550 C   0  0  0  0  0  3  0  0  0  0  0  0
  -24.9280  -27.5180   19.5130 C   0  0  0  0  0  3  0  0  0  0  0  0
  -23.7660  -29.7300   20.1890 C   0  0  0  0  0  2  0  0  0  0  0  0
  -24.7920  -30.9920   22.1110 N   0  0  0  0  0  0  0  0  0  0  0  0
  -23.5880  -32.1600   23.6820 O   0  0  0  0  0  0  0  0  0  0  0  0
  -22.7870  -29.4830   22.5290 C   0  0  0  0  0  0  0  0  0  0  0  0
  -21.4530  -29.3330   22.4040 N   0  0  0  0  0  0  0  0  0  0  0  0
  -23.4370  -28.8640   23.3730 O   0  0  0  0  0  0  0  0  0  0  0  0
  -20.9770  -29.8810   21.7020 H   0  0  0  0  0  0  0  0  0  0  0  0
  -18.0630  -28.1130   22.9230 C   0  0  0  0  0  0  0  0  0  0  0  0
  -20.6240  -28.3950   23.1770 C   0  0  0  0  0  3  0  0  0  0  0  0
  -20.7270  -26.9610   22.6030 C   0  0  0  0  0  2  0  0  0  0  0  0
  -19.6240  -26.6350   21.5920 C   0  0  0  0  0  2  0  0  0  0  0  0
  -18.2440  -26.7700   22.2390 C   0  0  0  0  0  2  0  0  0  0  0  0
  -19.1800  -28.8840   23.3490 C   0  0  0  0  0  0  0  0  0  0  0  0
  -18.9500  -30.1390   23.9550 C   0  0  0  0  0  3  0  0  0  0  0  0
  -17.6420  -30.6240   24.1350 C   0  0  0  0  0  3  0  0  0  0  0  0
  -16.5410  -29.8520   23.7210 C   0  0  0  0  0  3  0  0  0  0  0  0
  -16.7540  -28.5970   23.1230 C   0  0  0  0  0  3  0  0  0  0  0  0
  -25.9370  -32.5250   23.8320 C   0  0  0  0  0  3  0  0  0  0  0  0
  -25.6020  -33.9270   24.1620 N   0  0  0  0  0  0  0  0  0  0  0  0
  -25.9220  -34.9970   23.4200 C   0  0  0  0  0  0  0  0  0  0  0  0
  -26.5840  -34.9090   22.3830 O   0  0  0  0  0  0  0  0  0  0  0  0
  -25.0180  -34.0660   24.9730 H   0  0  0  0  0  0  0  0  0  0  0  0
  -24.1800  -36.7940   23.1120 C   0  0  0  0  0  1  0  0  0  0  0  0
  -25.4360  -36.3830   23.8990 C   0  0  0  0  0  3  0  0  0  0  0  0
  -27.5750  -37.2860   24.7040 C   0  0  0  0  0  1  0  0  0  0  0  0
  -26.4590  -37.4460   23.7760 N   0  0  0  0  0  0  0  0  0  0  0  0
  -26.0450  -38.3620   23.9310 H   0  0  0  0  0  0  0  0  0  0  0  0
  -26.4230  -31.7790   25.1360 C   0  0  1  0  0  0  0  0  0  0  0  0
  -25.3080  -31.5600   26.1870 C   0  0  0  0  0  1  0  0  0  0  0  0
  -27.0160  -30.3950   24.7940 C   0  0  0  0  0  1  0  0  0  0  0  0
  -27.5620  -32.5850   25.8070 C   0  0  0  0  0  1  0  0  0  0  0  0
  2  4  1  0
  2  5  2  0
  3  6  1  0
  3  1  2  0
  4  6  2  0
  5  1  1  0
  7 16  1  0
  8 13  1  0
  9 10  1  0
  9  8  1  0
 11 10  1  0
 11 20  1  0
 11 12  1  0
 13  7  1  0
 13 12  1  0
 14  7  2  0
 15 16  1  0
 16  5  1  0
 17 18  2  0
 18 37  1  0
 19 18  1  0
 19 22  1  0
 20 21  1  0
 20 17  1  0
 21 19  2  0
 22 23  1  0
 23 24  2  0
 25 28  1  0
 25 24  1  0
 26 25  2  0
 27 26  1  0
 27 22  2  0
 28 29  1  0
 29 30  1  0
 30 31  2  0
 32 31  1  0
 32 36  1  0
 33 32  2  0
 34 29  2  0
 34 33  1  0
 35 34  1  0
 37 38  1  0
 38 41  1  0
 38 40  1  0
 39 37  2  0
 42 43  1  0
 42 17  1  0
 44 42  1  0
 45 47  1  0
 45  6  1  0
 46 57  2  0
 47 52  1  0
 48 56  1  0
 48 58  1  0
 49 55  1  0
 49 51  1  0
 50 56  1  0
 51 50  1  0
 52 51  2  0
 53 47  2  0
 54 53  1  0
 54 49  2  0
 55 48  1  0
 56 46  1  0
 58 60  2  0
 59 58  1  0
 61 59  1  0
 62 71  2  0
 62 67  1  0
 63 59  1  0
 63 67  1  0
 64 63  1  0
 65 66  1  0
 65 64  1  0
 66 62  1  0
 67 68  2  0
 68 69  1  0
 70 69  2  0
 71 70  1  0
 72 46  1  0
 72 73  1  0
 72 82  1  0
 73 76  1  0
 74 78  1  0
 74 73  1  0
 75 74  2  0
 78 77  1  0
 80 78  1  0
 80 81  1  0
 80 79  1  0
 82 85  1  1
 82 83  1  0
 84 82  1  0
M  ISO  4   6 101   7 100  16 100  45 101
M  END
>  <TORSDO>  (73) 
F 16

>  <SCORE>  (73) 
-16.419

>  <name>  (73) 
73

>  <ligand_id>  (73) 
73

>  <original_smiles>  (73) 
[H]c1c([H])c([H])c2c(c1[H])C([H])([H])C([H])([H])C([H])([H])C2([H])N([H])C(=O)C1([H])N(C(=O)C([H])(N([H])C(=O)C([H])(N([H])C([H])([H])[H])C([H])([H])[H])C(C([H])([H])[H])(C([H])([H])[H])C([H])([H])[H])C([H])([H])c2c([H])c(OC3([H])C([H])([H])C([H])([H])C([H])(N(C(=O)N4C([H])([H])C([H])([H])C([H])([H])C([H])(n5nc(-c6c([H])c([H])c(Oc7c([H])c([H])c(F)c([H])c7F)c([H])c6[H])c(C(=O)N([H])[H])c5N([H])[H])C4([H])[H])C([H])([H])[H])C([H])([H])C3([H])[H])c([H])c([H])c2C1([H])[H]

>  <smiles>  (73) 
[H]c1c([H])c([H])c2c(c1[H])C([H])([H])C([H])([H])C([H])([H])C2([H])N([H])C(=O)C1([H])N(C(=O)C([H])(N([H])C(=O)C([H])(N([H])C([H])([H])[H])C([H])([H])[H])C(C([H])([H])[H])(C([H])([H])[H])C([H])([H])[H])C([H])([H])c2c([H])c(OC3([H])C([H])([H])C([H])([H])C([H])(N(C(=O)N4C([H])([H])C([H])([H])C([H])([H])C([H])(n5nc(-c6c([H])c([H])c(Oc7c([H])c([H])c(F)c([H])c7F)c([H])c6[H])c(C(=O)N([H])[H])c5N([H])[H])C4([H])[H])C([H])([H])[H])C([H])([H])C3([H])[H])c([H])c([H])c2C1([H])[H]

$$$$
74:0:0
     RDKit          3D

 89 95  0  0  1  0  0  0  0  0999 V2000
  -29.2970  -23.6070   18.6900 C   0  0  0  0  0  3  0  0  0  0  0  0
  -28.7470  -21.9420   18.9450 C   0  0  0  0  0  3  0  0  0  0  0  0
  -29.3590  -23.6240   21.6620 C   0  0  0  0  0  3  0  0  0  0  0  0
  -29.9630  -24.5820   20.1530 C   0  0  0  0  0  3  0  0  0  0  0  0
  -28.9230  -20.7660   20.2010 C   0  0  0  0  0  2  0  0  0  0  0  0
  -28.7980  -21.9500   21.4630 C   0  0  0  0  0  0  0  0  0  0  0  0
  -28.5030  -21.3780   22.6540 F   0  0  0  0  0  0  0  0  0  0  0  0
  -29.8780  -16.9720   20.2110 C   0  0  0  0  0  0  0  0  0  0  0  0
  -30.3270  -14.1260   19.5000 C   0  0  0  0  0  2  0  0  0  0  0  0
  -29.6370  -13.1840   18.4090 C   0  0  0  0  0  2  0  0  0  0  0  0
  -28.3260  -12.5640   18.8950 C   0  0  0  0  0  2  0  0  0  0  0  0
  -27.6190  -13.6080   19.7670 C   0  0  0  0  0  3  0  0  0  0  0  0
  -28.5210  -14.4040   20.8020 C   0  0  0  0  0  2  0  0  0  0  0  0
  -29.4950  -15.3900   20.1010 N   0  0  0  0  0  0  0  0  0  0  0  0
  -31.1290  -16.7140   20.1760 O   0  0  0  0  0  0  0  0  0  0  0  0
  -29.1160  -18.6560   20.2060 N   0  0  0  0  0  2  0  0  0  0  0  0
  -28.1510  -18.3500   20.2030 H   0  0  0  0  0  0  0  0  0  0  0  0
  -25.2370  -13.9870   20.4750 C   0  0  0  0  0  0  0  0  0  0  0  0
  -24.1950  -13.1790   20.8150 C   0  0  0  0  0  0  0  0  0  0  0  0
  -24.7050  -11.8420   20.8060 C   0  0  0  0  0  0  0  0  0  0  0  0
  -26.3230  -13.1630   20.2810 N   0  0  0  0  0  0  0  0  0  0  0  0
  -26.0140  -11.8530   20.5270 N   0  0  0  0  0  0  0  0  0  0  0  0
  -23.9880  -10.5650   20.9870 C   0  0  0  0  0  0  0  0  0  0  0  0
  -24.3900   -9.6140   21.9510 C   0  0  0  0  0  3  0  0  0  0  0  0
  -23.6610   -8.4160   22.1300 C   0  0  0  0  0  3  0  0  0  0  0  0
  -22.5130   -8.1570   21.3450 C   0  0  0  0  0  0  0  0  0  0  0  0
  -22.1250   -9.0970   20.3730 C   0  0  0  0  0  3  0  0  0  0  0  0
  -22.8540  -10.2850   20.1930 C   0  0  0  0  0  3  0  0  0  0  0  0
  -21.7610   -7.0090   21.4290 O   0  0  0  0  0  0  0  0  0  0  0  0
  -21.6760   -6.2850   22.5920 C   0  0  0  0  0  0  0  0  0  0  0  0
  -21.1870   -6.8530   23.7890 C   0  0  0  0  0  3  0  0  0  0  0  0
  -21.0500   -6.0550   24.9420 C   0  0  0  0  0  3  0  0  0  0  0  0
  -21.3940   -4.6900   24.9010 C   0  0  0  0  0  0  0  0  0  0  0  0
  -21.8740   -4.1210   23.7090 C   0  0  0  0  0  3  0  0  0  0  0  0
  -22.0120   -4.9160   22.5570 C   0  0  0  0  0  0  0  0  0  0  0  0
  -22.4560   -4.3560   21.4060 F   0  0  0  0  0  0  0  0  0  0  0  0
  -21.2570   -3.9220   26.0070 F   0  0  0  0  0  0  0  0  0  0  0  0
  -22.7800  -13.6280   21.0290 C   0  0  0  0  0  0  0  0  0  0  0  0
  -22.0410  -12.9420   21.8920 N   0  0  0  0  0  0  0  0  0  0  0  0
  -22.3410  -14.6320   20.4700 O   0  0  0  0  0  0  0  0  0  0  0  0
  -22.4100  -12.1310   22.3670 H   0  0  0  0  0  0  0  0  0  0  0  0
  -21.0920  -13.2310   22.0800 H   0  0  0  0  0  0  0  0  0  0  0  0
  -25.3560  -15.3600   20.2730 N   0  0  0  0  0  0  0  0  0  0  0  0
  -24.5630  -15.9890   20.3340 H   0  0  0  0  0  0  0  0  0  0  0  0
  -26.2020  -15.8130   19.9540 H   0  0  0  0  0  0  0  0  0  0  0  0
  -31.3560  -25.0370   20.1050 C   0  0  0  0  0  2  0  0  0  0  0  0
  -31.8940  -23.6310   20.2530 C   0  0  0  0  0  2  0  0  0  0  0  0
  -30.6680  -22.6320   20.1330 C   0  0  0  0  0  1  0  0  0  0  0  0
  -27.9360  -24.2900   20.1630 O   0  0  0  0  0  1  0  0  0  0  0  0
  -24.7960  -31.8080   23.0370 C   0  0  0  0  0  0  0  0  0  0  0  0
  -27.3060  -26.0000   20.1790 C   0  0  0  0  0  0  0  0  0  0  0  0
  -23.6490  -30.3690   21.4220 C   0  0  0  0  0  3  0  0  0  0  0  0
  -25.1170  -28.5500   20.0870 C   0  0  0  0  0  0  0  0  0  0  0  0
  -26.2560  -30.2730   21.4130 C   0  0  0  0  0  2  0  0  0  0  0  0
  -26.3230  -28.7460   20.7720 C   0  0  0  0  0  0  0  0  0  0  0  0
  -27.3620  -27.5300   20.7770 C   0  0  0  0  0  3  0  0  0  0  0  0
  -26.0720  -26.2460   19.4300 C   0  0  0  0  0  3  0  0  0  0  0  0
  -25.0810  -27.3260   19.3880 C   0  0  0  0  0  3  0  0  0  0  0  0
  -23.9430  -29.5960   20.0910 C   0  0  0  0  0  2  0  0  0  0  0  0
  -24.9360  -30.8680   22.0090 N   0  0  0  0  0  0  0  0  0  0  0  0
  -23.6840  -32.1470   23.4920 O   0  0  0  0  0  0  0  0  0  0  0  0
  -22.8470  -29.4800   22.4200 C   0  0  0  0  0  0  0  0  0  0  0  0
  -21.5030  -29.3840   22.3040 N   0  0  0  0  0  0  0  0  0  0  0  0
  -23.4610  -28.8620   23.2910 O   0  0  0  0  0  0  0  0  0  0  0  0
  -21.0440  -29.9370   21.5930 H   0  0  0  0  0  0  0  0  0  0  0  0
  -18.0850  -28.2170   22.8630 C   0  0  0  0  0  0  0  0  0  0  0  0
  -20.6540  -28.4700   23.0880 C   0  0  0  0  0  3  0  0  0  0  0  0
  -20.7280  -27.0300   22.5250 C   0  0  0  0  0  2  0  0  0  0  0  0
  -19.6140  -26.7170   21.5200 C   0  0  0  0  0  2  0  0  0  0  0  0
  -18.2410  -26.8720   22.1760 C   0  0  0  0  0  2  0  0  0  0  0  0
  -19.2150  -28.9750   23.2760 C   0  0  0  0  0  0  0  0  0  0  0  0
  -19.0050  -30.2290   23.8930 C   0  0  0  0  0  3  0  0  0  0  0  0
  -17.7030  -30.7260   24.0910 C   0  0  0  0  0  3  0  0  0  0  0  0
  -16.5900  -29.9700   23.6850 C   0  0  0  0  0  3  0  0  0  0  0  0
  -16.7820  -28.7160   23.0780 C   0  0  0  0  0  3  0  0  0  0  0  0
  -26.0150  -32.5150   23.7080 C   0  0  0  0  0  3  0  0  0  0  0  0
  -26.4980  -31.7800   25.0220 C   0  0  1  0  0  0  0  0  0  0  0  0
  -25.3740  -31.5590   26.0620 C   0  0  0  0  0  1  0  0  0  0  0  0
  -27.1040  -30.4000   24.6980 C   0  0  0  0  0  1  0  0  0  0  0  0
  -27.6230  -32.5970   25.7000 C   0  0  0  0  0  1  0  0  0  0  0  0
  -25.6480  -33.9130   24.0550 N   0  0  0  0  0  0  0  0  0  0  0  0
  -25.9610  -35.0100   23.3490 C   0  0  0  0  0  0  0  0  0  0  0  0
  -26.6230  -34.9550   22.3100 O   0  0  0  0  0  0  0  0  0  0  0  0
  -25.0530  -34.0250   24.8620 H   0  0  0  0  0  0  0  0  0  0  0  0
  -24.2020  -36.8120   23.1150 C   0  0  0  0  0  1  0  0  0  0  0  0
  -25.4730  -36.3860   23.8670 C   0  0  0  0  0  3  0  0  0  0  0  0
  -27.6180  -37.3020   24.6550 C   0  0  0  0  0  1  0  0  0  0  0  0
  -26.4850  -37.4620   23.7480 N   0  0  0  0  0  0  0  0  0  0  0  0
  -26.0670  -38.3710   23.9210 H   0  0  0  0  0  0  0  0  0  0  0  0
  1  2  2  0
  1  4  1  0
  2  5  1  0
  4 46  1  0
  4  3  1  0
  5  6  1  0
  6  3  2  0
  6  7  1  0
  9 14  1  0
 10 11  1  0
 10  9  1  0
 12 11  1  0
 12 21  1  0
 12 13  1  0
 14  8  1  0
 14 13  1  0
 15  8  2  0
 16  8  1  0
 17 16  1  0
 18 19  2  0
 19 38  1  0
 20 19  1  0
 20 23  1  0
 21 18  1  0
 21 22  1  0
 22 20  2  0
 23 24  1  0
 24 25  2  0
 26 29  1  0
 26 25  1  0
 27 26  2  0
 28 27  1  0
 28 23  2  0
 29 30  1  0
 30 31  1  0
 31 32  2  0
 33 32  1  0
 33 37  1  0
 34 33  2  0
 35 30  2  0
 35 34  1  0
 36 35  1  0
 38 39  1  0
 39 42  1  0
 39 41  1  0
 40 38  2  0
 43 44  1  0
 43 18  1  0
 45 43  1  0
 46 47  1  0
 48 47  1  0
 49 51  1  0
 50 61  2  0
 51 56  1  0
 52 60  1  0
 52 62  1  0
 53 59  1  0
 53 55  1  0
 54 60  1  0
 55 56  2  0
 55 54  1  0
 57 51  2  0
 58 57  1  0
 58 53  2  0
 59 52  1  0
 60 50  1  0
 62 64  2  0
 63 62  1  0
 65 63  1  0
 66 75  2  0
 66 71  1  0
 67 63  1  0
 67 71  1  0
 68 67  1  0
 69 70  1  0
 69 68  1  0
 70 66  1  0
 71 72  2  0
 72 73  1  0
 74 73  2  0
 75 74  1  0
 76 50  1  0
 76 81  1  0
 76 77  1  0
 77 80  1  1
 77 78  1  0
 79 77  1  0
 81 84  1  0
 82 86  1  0
 82 81  1  0
 83 82  2  0
 86 85  1  0
 88 86  1  0
 88 89  1  0
 88 87  1  0
M  ISO  4   8 100  16 100  48 101  49 101
M  END
>  <TORSDO>  (74) 
F 19

>  <SCORE>  (74) 
-15.333

>  <name>  (74) 
74

>  <ligand_id>  (74) 
74

>  <original_smiles>  (74) 
[H]c1c([H])c([H])c2c(c1[H])C([H])([H])C([H])([H])C([H])([H])C2([H])N([H])C(=O)C1([H])N(C(=O)C([H])(N([H])C(=O)C([H])(N([H])C([H])([H])[H])C([H])([H])[H])C(C([H])([H])[H])(C([H])([H])[H])C([H])([H])[H])C([H])([H])c2c([H])c(OC([H])([H])C([H])([H])C([H])([H])c3c([H])c([H])c(N([H])C(=O)N4C([H])([H])C([H])([H])C([H])([H])C([H])(n5nc(-c6c([H])c([H])c(Oc7c([H])c([H])c(F)c([H])c7F)c([H])c6[H])c(C(=O)N([H])[H])c5N([H])[H])C4([H])[H])c(F)c3[H])c([H])c([H])c2C1([H])[H]

>  <smiles>  (74) 
[H]c1c([H])c([H])c2c(c1[H])C([H])([H])C([H])([H])C([H])([H])C2([H])N([H])C(=O)C1([H])N(C(=O)C([H])(N([H])C(=O)C([H])(N([H])C([H])([H])[H])C([H])([H])[H])C(C([H])([H])[H])(C([H])([H])[H])C([H])([H])[H])C([H])([H])c2c([H])c(OC([H])([H])C([H])([H])C([H])([H])c3c([H])c([H])c(N([H])C(=O)N4C([H])([H])C([H])([H])C([H])([H])C([H])(n5nc(-c6c([H])c([H])c(Oc7c([H])c([H])c(F)c([H])c7F)c([H])c6[H])c(C(=O)N([H])[H])c5N([H])[H])C4([H])[H])c(F)c3[H])c([H])c([H])c2C1([H])[H]

$$$$
75:0:0
     RDKit          3D

 93101  0  0  1  0  0  0  0  0999 V2000
  -26.3180  -21.7300   21.9690 C   0  0  0  0  0  1  0  0  0  0  0  0
  -27.4800  -22.2730   21.2070 N   0  0  1  0  0  4  0  0  0  0  0  0
  -28.2350  -22.3090   21.8590 H   0  0  0  0  0  0  0  0  0  0  0  0
  -27.9340  -21.3440   20.1040 C   0  0  0  0  0  2  0  0  0  0  0  0
  -29.5980  -19.7290   21.4660 C   0  0  0  0  0  3  0  0  0  0  0  0
  -30.3220  -18.4930   21.5440 C   0  0  0  0  0  3  0  0  0  0  0  0
  -28.6090  -18.9600   19.4250 C   0  0  0  0  0  3  0  0  0  0  0  0
  -28.7060  -20.0010   20.3860 C   0  0  0  0  0  0  0  0  0  0  0  0
  -29.3650  -17.7560   19.4610 C   0  0  0  0  0  0  0  0  0  0  0  0
  -30.2340  -17.4720   20.5520 C   0  0  0  0  0  0  0  0  0  0  0  0
  -29.1460  -16.8120   18.2980 C   0  0  0  0  0  1  0  0  0  0  0  0
  -31.6190  -15.2740   20.2350 C   0  0  0  0  0  0  0  0  0  0  0  0
  -31.5080  -12.9950   19.2180 C   0  0  0  0  0  2  0  0  0  0  0  0
  -30.5130  -13.0820   18.0330 C   0  0  0  0  0  2  0  0  0  0  0  0
  -29.0480  -12.9770   18.5090 C   0  0  0  0  0  2  0  0  0  0  0  0
  -28.7540  -13.8460   19.7580 C   0  0  0  0  0  3  0  0  0  0  0  0
  -29.8370  -13.6190   20.8330 C   0  0  0  0  0  2  0  0  0  0  0  0
  -31.1200  -14.0000   20.2250 N   0  0  0  0  0  0  0  0  0  0  0  0
  -32.6960  -15.5710   19.7080 O   0  0  0  0  0  0  0  0  0  0  0  0
  -30.7870  -16.1560   20.8710 N   0  0  0  0  0  0  0  0  0  0  0  0
  -30.1860  -15.6200   21.4870 H   0  0  0  0  0  0  0  0  0  0  0  0
  -26.4470  -14.5650   20.6290 C   0  0  0  0  0  0  0  0  0  0  0  0
  -25.3380  -13.8270   20.9650 C   0  0  0  0  0  0  0  0  0  0  0  0
  -25.7070  -12.4630   20.7930 C   0  0  0  0  0  0  0  0  0  0  0  0
  -27.4110  -13.6340   20.2700 N   0  0  0  0  0  0  0  0  0  0  0  0
  -26.9710  -12.3680   20.4150 N   0  0  0  0  0  0  0  0  0  0  0  0
  -24.9150  -11.2310   20.8980 C   0  0  0  0  0  0  0  0  0  0  0  0
  -25.2250  -10.2410   21.8560 C   0  0  0  0  0  3  0  0  0  0  0  0
  -24.4390   -9.0740   21.9510 C   0  0  0  0  0  3  0  0  0  0  0  0
  -23.3340   -8.8920   21.0900 C   0  0  0  0  0  0  0  0  0  0  0  0
  -23.0410   -9.8730   20.1270 C   0  0  0  0  0  3  0  0  0  0  0  0
  -23.8260  -11.0330   20.0260 C   0  0  0  0  0  3  0  0  0  0  0  0
  -22.5270   -7.7840   21.0990 O   0  0  0  0  0  0  0  0  0  0  0  0
  -22.1910   -7.1460   22.2650 C   0  0  0  0  0  0  0  0  0  0  0  0
  -21.5330   -7.8170   23.3190 C   0  0  0  0  0  3  0  0  0  0  0  0
  -21.1460   -7.1070   24.4740 C   0  0  0  0  0  3  0  0  0  0  0  0
  -21.4080   -5.7280   24.5730 C   0  0  0  0  0  0  0  0  0  0  0  0
  -22.0600   -5.0570   23.5230 C   0  0  0  0  0  3  0  0  0  0  0  0
  -22.4480   -5.7640   22.3720 C   0  0  0  0  0  0  0  0  0  0  0  0
  -23.0580   -5.1100   21.3530 F   0  0  0  0  0  0  0  0  0  0  0  0
  -21.0300   -5.0430   25.6760 F   0  0  0  0  0  0  0  0  0  0  0  0
  -23.9960  -14.3670   21.3550 C   0  0  0  0  0  0  0  0  0  0  0  0
  -23.2770  -13.6470   22.2180 N   0  0  0  0  0  0  0  0  0  0  0  0
  -23.5930  -15.4480   20.9370 O   0  0  0  0  0  0  0  0  0  0  0  0
  -23.6180  -12.7660   22.5740 H   0  0  0  0  0  0  0  0  0  0  0  0
  -22.3730  -13.9820   22.5200 H   0  0  0  0  0  0  0  0  0  0  0  0
  -26.7020  -15.9290   20.5930 N   0  0  0  0  0  0  0  0  0  0  0  0
  -26.0050  -16.6110   20.8700 H   0  0  0  0  0  0  0  0  0  0  0  0
  -27.6140  -16.3390   20.4230 H   0  0  0  0  0  0  0  0  0  0  0  0
  -27.2090  -23.7110   20.7240 C   0  0  0  0  0  2  0  0  0  0  0  0
  -28.0360  -24.9160   21.3480 C   0  0  0  0  0  2  0  0  0  0  0  0
  -28.9390  -25.7700   20.3370 C   0  0  0  0  0  2  0  0  0  0  0  0
  -29.0400  -27.2590   20.3120 O   0  0  0  0  0  0  0  0  0  0  0  0
  -24.8940  -31.9910   23.4710 C   0  0  0  0  0  0  0  0  0  0  0  0
  -27.9090  -28.0420   20.1340 C   0  0  0  0  0  0  0  0  0  0  0  0
  -23.8550  -30.6910   21.6520 C   0  0  0  0  0  3  0  0  0  0  0  0
  -25.4490  -29.4440   20.1050 C   0  0  0  0  0  0  0  0  0  0  0  0
  -26.3440  -31.2700   21.5670 C   0  0  0  0  0  2  0  0  0  0  0  0
  -26.5520  -29.9920   20.7790 C   0  0  0  0  0  0  0  0  0  0  0  0
  -27.7990  -29.3190   20.7520 C   0  0  0  0  0  3  0  0  0  0  0  0
  -26.8110  -27.5500   19.4050 C   0  0  0  0  0  3  0  0  0  0  0  0
  -25.5810  -28.2350   19.4010 C   0  0  0  0  0  3  0  0  0  0  0  0
  -24.1400  -30.2020   20.2070 C   0  0  0  0  0  2  0  0  0  0  0  0
  -25.0460  -31.3310   22.2860 N   0  0  0  0  0  0  0  0  0  0  0  0
  -23.7790  -32.1020   24.0100 O   0  0  0  0  0  0  0  0  0  0  0  0
  -23.2840  -29.5170   22.4760 C   0  0  0  0  0  0  0  0  0  0  0  0
  -21.9880  -29.2330   22.2950 N   0  0  0  0  0  0  0  0  0  0  0  0
  -24.0210  -28.8530   23.2140 O   0  0  0  0  0  0  0  0  0  0  0  0
  -21.4320  -29.8270   21.7050 H   0  0  0  0  0  0  0  0  0  0  0  0
  -18.7660  -27.5940   22.4890 C   0  0  0  0  0  0  0  0  0  0  0  0
  -21.2790  -28.1030   22.8850 C   0  0  0  0  0  3  0  0  0  0  0  0
  -21.5710  -26.8040   22.0790 C   0  0  0  0  0  2  0  0  0  0  0  0
  -20.5000  -26.4340   21.0380 C   0  0  0  0  0  2  0  0  0  0  0  0
  -19.1030  -26.3600   21.6810 C   0  0  0  0  0  2  0  0  0  0  0  0
  -19.7840  -28.4180   23.0410 C   0  0  0  0  0  0  0  0  0  0  0  0
  -19.4190  -29.5720   23.7650 C   0  0  0  0  0  3  0  0  0  0  0  0
  -18.0630  -29.9270   23.9180 C   0  0  0  0  0  3  0  0  0  0  0  0
  -17.0560  -29.1150   23.3520 C   0  0  0  0  0  3  0  0  0  0  0  0
  -17.4080  -27.9590   22.6470 C   0  0  0  0  0  3  0  0  0  0  0  0
  -26.0930  -32.6590   24.1960 C   0  0  0  0  0  3  0  0  0  0  0  0
  -25.6850  -34.0240   24.5650 N   0  0  0  0  0  0  0  0  0  0  0  0
  -26.0000  -35.1240   23.8720 C   0  0  0  0  0  0  0  0  0  0  0  0
  -26.7370  -35.1020   22.8830 O   0  0  0  0  0  0  0  0  0  0  0  0
  -25.0280  -34.1040   25.3270 H   0  0  0  0  0  0  0  0  0  0  0  0
  -24.1860  -36.8250   23.4850 C   0  0  0  0  0  1  0  0  0  0  0  0
  -25.4020  -36.4590   24.3520 C   0  0  0  0  0  3  0  0  0  0  0  0
  -27.4260  -37.4350   25.3420 C   0  0  0  0  0  1  0  0  0  0  0  0
  -26.3730  -37.5750   24.3400 N   0  0  0  0  0  0  0  0  0  0  0  0
  -25.9050  -38.4640   24.4970 H   0  0  0  0  0  0  0  0  0  0  0  0
  -26.5620  -31.8650   25.4760 C   0  0  1  0  0  0  0  0  0  0  0  0
  -25.4110  -31.5090   26.4440 C   0  0  0  0  0  1  0  0  0  0  0  0
  -27.2690  -30.5510   25.0770 C   0  0  0  0  0  1  0  0  0  0  0  0
  -27.6010  -32.6980   26.2640 C   0  0  0  0  0  1  0  0  0  0  0  0
  2  3  1  1
  2  1  1  0
  4  8  1  0
  4  2  1  0
  5  6  1  0
  7  9  2  0
  7  8  1  0
  8  5  2  0
  9 10  1  0
 10 20  1  0
 10  6  2  0
 11  9  1  0
 12 20  1  0
 13 18  1  0
 14 15  1  0
 14 13  1  0
 16 15  1  0
 16 25  1  0
 16 17  1  0
 18 12  1  0
 18 17  1  0
 19 12  2  0
 20 21  1  0
 22 23  2  0
 23 42  1  0
 24 27  1  0
 24 23  1  0
 25 26  1  0
 25 22  1  0
 26 24  2  0
 27 28  1  0
 28 29  2  0
 30 33  1  0
 30 29  1  0
 31 30  2  0
 32 31  1  0
 32 27  2  0
 33 34  1  0
 34 39  2  0
 34 35  1  0
 35 36  2  0
 36 37  1  0
 37 41  1  0
 38 37  2  0
 39 38  1  0
 40 39  1  0
 42 43  1  0
 43 46  1  0
 43 45  1  0
 44 42  2  0
 47 22  1  0
 47 48  1  0
 49 47  1  0
 50  2  1  0
 50 51  1  0
 52 51  1  0
 53 52  1  0
 54 65  2  0
 55 53  1  0
 55 60  1  0
 56 64  1  0
 56 66  1  0
 57 63  1  0
 57 59  1  0
 58 64  1  0
 59 58  1  0
 60 59  2  0
 61 55  2  0
 62 61  1  0
 62 57  2  0
 63 56  1  0
 64 54  1  0
 66 68  2  0
 67 66  1  0
 69 67  1  0
 70 79  2  0
 70 75  1  0
 71 67  1  0
 71 75  1  0
 72 71  1  0
 73 74  1  0
 73 72  1  0
 74 70  1  0
 75 76  2  0
 76 77  1  0
 78 77  2  0
 79 78  1  0
 80 54  1  0
 80 81  1  0
 80 90  1  0
 81 84  1  0
 82 86  1  0
 82 81  1  0
 83 82  2  0
 86 85  1  0
 88 86  1  0
 88 89  1  0
 88 87  1  0
 90 93  1  1
 90 91  1  0
 92 90  1  0
M  ISO  4  12 100  20 100  52 101  53 101
M  END
>  <TORSDO>  (75) 
F 21

>  <SCORE>  (75) 
-6.702

>  <name>  (75) 
75

>  <ligand_id>  (75) 
75

>  <original_smiles>  (75) 
[H]c1c([H])c([H])c2c(c1[H])C([H])([H])C([H])([H])C([H])([H])C2([H])N([H])C(=O)C1([H])N(C(=O)C([H])(N([H])C(=O)C([H])(N([H])C([H])([H])[H])C([H])([H])[H])C(C([H])([H])[H])(C([H])([H])[H])C([H])([H])[H])C([H])([H])c2c([H])c(OC([H])([H])C([H])([H])C([H])([H])[N+]([H])(C([H])([H])[H])C([H])([H])c3c([H])c([H])c(N([H])C(=O)N4C([H])([H])C([H])([H])C([H])([H])C([H])(n5nc(-c6c([H])c([H])c(Oc7c([H])c([H])c(F)c([H])c7F)c([H])c6[H])c(C(=O)N([H])[H])c5N([H])[H])C4([H])[H])c(C([H])([H])[H])c3[H])c([H])c([H])c2C1([H])[H]

>  <smiles>  (75) 
[H]c1c([H])c([H])c2c(c1[H])C([H])([H])C([H])([H])C([H])([H])C2([H])N([H])C(=O)C1([H])N(C(=O)C([H])(N([H])C(=O)C([H])(N([H])C([H])([H])[H])C([H])([H])[H])C(C([H])([H])[H])(C([H])([H])[H])C([H])([H])[H])C([H])([H])c2c([H])c(OC([H])([H])C([H])([H])C([H])([H])[N+]([H])(C([H])([H])[H])C([H])([H])c3c([H])c([H])c(N([H])C(=O)N4C([H])([H])C([H])([H])C([H])([H])C([H])(n5nc(-c6c([H])c([H])c(Oc7c([H])c([H])c(F)c([H])c7F)c([H])c6[H])c(C(=O)N([H])[H])c5N([H])[H])C4([H])[H])c(C([H])([H])[H])c3[H])c([H])c([H])c2C1([H])[H]

$$$$
76:0:0
     RDKit          3D

 92101  0  0  1  0  0  0  0  0999 V2000
  -27.1990  -22.5880   21.6540 C   0  0  0  0  0  2  0  0  0  0  0  0
  -28.4610  -23.4630   21.7200 C   0  0  0  0  0  2  0  0  0  0  0  0
  -27.1750  -22.0160   20.2270 C   0  0  0  0  0  2  0  0  0  0  0  0
  -28.9150  -23.5630   20.2610 C   0  0  0  0  0  3  0  0  0  0  0  0
  -28.5380  -22.1530   19.7190 N   0  0  0  0  0  0  0  0  0  0  0  0
  -29.8840  -20.2000   20.8720 C   0  0  0  0  0  3  0  0  0  0  0  0
  -30.2030  -18.7810   20.9790 C   0  0  0  0  0  3  0  0  0  0  0  0
  -29.1300  -18.3700   18.9230 C   0  0  0  0  0  3  0  0  0  0  0  0
  -29.1330  -20.7850   19.7960 C   0  0  0  0  0  0  0  0  0  0  0  0
  -29.8380  -17.7750   20.0150 C   0  0  0  0  0  0  0  0  0  0  0  0
  -28.7970  -19.7780   18.8180 C   0  0  0  0  0  0  0  0  0  0  0  0
  -28.0600  -20.1620   17.7460 F   0  0  0  0  0  0  0  0  0  0  0  0
  -30.7090  -15.1700   19.9230 C   0  0  0  0  0  0  0  0  0  0  0  0
  -30.5890  -12.8170   19.0000 C   0  0  0  0  0  2  0  0  0  0  0  0
  -29.5890  -12.7930   17.8180 C   0  0  0  0  0  2  0  0  0  0  0  0
  -28.1470  -12.5820   18.3200 C   0  0  0  0  0  2  0  0  0  0  0  0
  -27.8030  -13.4920   19.5290 C   0  0  0  0  0  3  0  0  0  0  0  0
  -28.9170  -13.4760   20.5990 C   0  0  0  0  0  2  0  0  0  0  0  0
  -30.1620  -13.8910   19.9370 N   0  0  0  0  0  0  0  0  0  0  0  0
  -31.8650  -15.3040   19.5050 O   0  0  0  0  0  0  0  0  0  0  0  0
  -29.8830  -16.2670   20.2590 N   0  0  0  0  0  0  0  0  0  0  0  0
  -29.0190  -15.9210   20.6510 H   0  0  0  0  0  0  0  0  0  0  0  0
  -25.4750  -14.0650   20.4270 C   0  0  0  0  0  0  0  0  0  0  0  0
  -24.4280  -13.2840   20.8350 C   0  0  0  0  0  0  0  0  0  0  0  0
  -24.8760  -11.9320   20.7250 C   0  0  0  0  0  0  0  0  0  0  0  0
  -26.4920  -13.1880   20.0910 N   0  0  0  0  0  0  0  0  0  0  0  0
  -26.1460  -11.8970   20.3340 N   0  0  0  0  0  0  0  0  0  0  0  0
  -24.1500  -10.6690   20.9150 C   0  0  0  0  0  0  0  0  0  0  0  0
  -24.5670   -9.7130   21.8660 C   0  0  0  0  0  3  0  0  0  0  0  0
  -23.8410   -8.5150   22.0430 C   0  0  0  0  0  3  0  0  0  0  0  0
  -22.6830   -8.2660   21.2680 C   0  0  0  0  0  0  0  0  0  0  0  0
  -22.2860   -9.2110   20.3060 C   0  0  0  0  0  3  0  0  0  0  0  0
  -23.0130  -10.4000   20.1280 C   0  0  0  0  0  3  0  0  0  0  0  0
  -21.9310   -7.1190   21.3530 O   0  0  0  0  0  0  0  0  0  0  0  0
  -21.7810   -6.4420   22.5370 C   0  0  0  0  0  0  0  0  0  0  0  0
  -21.1900   -7.0450   23.6690 C   0  0  0  0  0  3  0  0  0  0  0  0
  -20.9920   -6.2910   24.8440 C   0  0  0  0  0  3  0  0  0  0  0  0
  -21.3750   -4.9370   24.8850 C   0  0  0  0  0  0  0  0  0  0  0  0
  -21.9590   -4.3340   23.7570 C   0  0  0  0  0  3  0  0  0  0  0  0
  -22.1580   -5.0850   22.5850 C   0  0  0  0  0  0  0  0  0  0  0  0
  -22.7010   -4.4950   21.4940 F   0  0  0  0  0  0  0  0  0  0  0  0
  -21.1780   -4.2110   26.0100 F   0  0  0  0  0  0  0  0  0  0  0  0
  -23.0550  -13.7620   21.2090 C   0  0  0  0  0  0  0  0  0  0  0  0
  -22.3770  -13.0420   22.0960 N   0  0  0  0  0  0  0  0  0  0  0  0
  -22.5960  -14.8080   20.7510 O   0  0  0  0  0  0  0  0  0  0  0  0
  -22.7640  -12.1960   22.4870 H   0  0  0  0  0  0  0  0  0  0  0  0
  -21.4580  -13.3430   22.3890 H   0  0  0  0  0  0  0  0  0  0  0  0
  -25.6390  -15.4400   20.2910 N   0  0  0  0  0  0  0  0  0  0  0  0
  -24.8820  -16.0890   20.4720 H   0  0  0  0  0  0  0  0  0  0  0  0
  -26.4550  -15.8870   19.8950 H   0  0  0  0  0  0  0  0  0  0  0  0
  -28.1730  -24.9430   19.6310 C   0  0  0  0  0  2  0  0  0  0  0  0
  -28.3290  -26.4260   20.0660 O   0  0  0  0  0  0  0  0  0  0  0  0
  -24.5950  -31.9630   23.1350 C   0  0  0  0  0  0  0  0  0  0  0  0
  -27.2510  -27.3790   19.9930 C   0  0  0  0  0  0  0  0  0  0  0  0
  -23.4130  -30.5700   21.4810 C   0  0  0  0  0  3  0  0  0  0  0  0
  -24.8850  -29.0610   20.0120 C   0  0  0  0  0  0  0  0  0  0  0  0
  -25.9570  -30.8970   21.3040 C   0  0  0  0  0  2  0  0  0  0  0  0
  -26.0550  -29.5210   20.6260 C   0  0  0  0  0  0  0  0  0  0  0  0
  -27.2360  -28.6920   20.6080 C   0  0  0  0  0  3  0  0  0  0  0  0
  -26.0600  -27.0320   19.3160 C   0  0  0  0  0  3  0  0  0  0  0  0
  -24.8980  -27.8310   19.3410 C   0  0  0  0  0  3  0  0  0  0  0  0
  -23.6360  -29.9260   20.0870 C   0  0  0  0  0  2  0  0  0  0  0  0
  -24.6750  -31.1640   22.0270 N   0  0  0  0  0  0  0  0  0  0  0  0
  -23.5080  -32.2140   23.6760 O   0  0  0  0  0  0  0  0  0  0  0  0
  -22.7670  -29.5290   22.4280 C   0  0  0  0  0  0  0  0  0  0  0  0
  -21.4420  -29.3290   22.3060 N   0  0  0  0  0  0  0  0  0  0  0  0
  -23.4590  -28.9050   23.2360 O   0  0  0  0  0  0  0  0  0  0  0  0
  -20.9400  -29.8920   21.6330 H   0  0  0  0  0  0  0  0  0  0  0  0
  -18.0920  -28.0530   22.8150 C   0  0  0  0  0  0  0  0  0  0  0  0
  -20.6480  -28.3580   23.0620 C   0  0  0  0  0  3  0  0  0  0  0  0
  -20.7730  -26.9420   22.4550 C   0  0  0  0  0  2  0  0  0  0  0  0
  -19.6640  -26.6130   21.4490 C   0  0  0  0  0  2  0  0  0  0  0  0
  -18.2860  -26.7220   22.1070 C   0  0  0  0  0  2  0  0  0  0  0  0
  -19.2000  -28.8280   23.2500 C   0  0  0  0  0  0  0  0  0  0  0  0
  -18.9620  -30.0710   23.8740 C   0  0  0  0  0  3  0  0  0  0  0  0
  -17.6490  -30.5420   24.0650 C   0  0  0  0  0  3  0  0  0  0  0  0
  -16.5560  -29.7650   23.6450 C   0  0  0  0  0  3  0  0  0  0  0  0
  -16.7780  -28.5210   23.0260 C   0  0  0  0  0  3  0  0  0  0  0  0
  -25.8650  -32.6140   23.7630 C   0  0  0  0  0  3  0  0  0  0  0  0
  -25.5310  -34.0050   24.1040 N   0  0  0  0  0  0  0  0  0  0  0  0
  -25.8310  -35.0700   23.3470 C   0  0  0  0  0  0  0  0  0  0  0  0
  -26.4860  -34.9850   22.3050 O   0  0  0  0  0  0  0  0  0  0  0  0
  -24.9460  -34.1430   24.9140 H   0  0  0  0  0  0  0  0  0  0  0  0
  -24.0650  -36.8380   23.0320 C   0  0  0  0  0  1  0  0  0  0  0  0
  -25.3260  -36.4470   23.8220 C   0  0  0  0  0  3  0  0  0  0  0  0
  -27.4480  -37.3770   24.6380 C   0  0  0  0  0  1  0  0  0  0  0  0
  -26.3380  -37.5200   23.6990 N   0  0  0  0  0  0  0  0  0  0  0  0
  -25.9160  -38.4330   23.8450 H   0  0  0  0  0  0  0  0  0  0  0  0
  -26.3890  -31.8450   25.0390 C   0  0  1  0  0  0  0  0  0  0  0  0
  -25.2940  -31.5820   26.0990 C   0  0  0  0  0  1  0  0  0  0  0  0
  -27.0020  -30.4810   24.6480 C   0  0  0  0  0  1  0  0  0  0  0  0
  -27.5190  -32.6590   25.7110 C   0  0  0  0  0  1  0  0  0  0  0  0
  1  2  1  0
  3  1  1  0
  4 51  1  0
  4  2  1  0
  5  9  1  0
  5  3  1  0
  5  4  1  0
  6  7  1  0
  8 10  1  0
  9  6  2  0
 10 21  1  0
 10  7  2  0
 11  8  2  0
 11  9  1  0
 12 11  1  0
 13 19  1  0
 13 21  1  0
 14 19  1  0
 15 16  1  0
 15 14  1  0
 17 16  1  0
 17 26  1  0
 17 18  1  0
 19 18  1  0
 20 13  2  0
 21 22  1  0
 23 24  2  0
 24 43  1  0
 25 24  1  0
 25 28  1  0
 26 27  1  0
 26 23  1  0
 27 25  2  0
 28 29  1  0
 29 30  2  0
 31 34  1  0
 31 30  1  0
 32 31  2  0
 33 32  1  0
 33 28  2  0
 34 35  1  0
 35 40  2  0
 35 36  1  0
 36 37  2  0
 37 38  1  0
 38 42  1  0
 39 38  2  0
 40 39  1  0
 41 40  1  0
 43 44  1  0
 44 47  1  0
 44 46  1  0
 45 43  2  0
 48 23  1  0
 48 49  1  0
 50 48  1  0
 51 52  1  0
 53 64  2  0
 54 52  1  0
 54 59  1  0
 55 63  1  0
 55 65  1  0
 56 62  1  0
 56 58  1  0
 57 63  1  0
 58 57  1  0
 59 58  2  0
 60 61  1  0
 60 54  2  0
 61 56  2  0
 62 55  1  0
 63 53  1  0
 65 67  2  0
 66 65  1  0
 68 66  1  0
 69 78  2  0
 69 74  1  0
 70 66  1  0
 70 74  1  0
 71 70  1  0
 72 73  1  0
 72 71  1  0
 73 69  1  0
 74 75  2  0
 75 76  1  0
 77 76  2  0
 78 77  1  0
 79 53  1  0
 79 80  1  0
 79 89  1  0
 80 83  1  0
 81 85  1  0
 81 80  1  0
 82 81  2  0
 85 84  1  0
 87 85  1  0
 87 88  1  0
 87 86  1  0
 89 92  1  1
 89 90  1  0
 91 89  1  0
M  ISO  4  13 100  21 100  51 101  52 101
M  END
>  <TORSDO>  (76) 
F 18

>  <SCORE>  (76) 
-14.277

>  <name>  (76) 
76

>  <ligand_id>  (76) 
76

>  <original_smiles>  (76) 
[H]c1c([H])c([H])c2c(c1[H])C([H])([H])C([H])([H])C([H])([H])C2([H])N([H])C(=O)C1([H])N(C(=O)C([H])(N([H])C(=O)C([H])(N([H])C([H])([H])[H])C([H])([H])[H])C(C([H])([H])[H])(C([H])([H])[H])C([H])([H])[H])C([H])([H])c2c([H])c(OC([H])([H])C3([H])N(c4c([H])c([H])c(N([H])C(=O)N5C([H])([H])C([H])([H])C([H])([H])C([H])(n6nc(-c7c([H])c([H])c(Oc8c([H])c([H])c(F)c([H])c8F)c([H])c7[H])c(C(=O)N([H])[H])c6N([H])[H])C5([H])[H])c([H])c4F)C([H])([H])C([H])([H])C3([H])[H])c([H])c([H])c2C1([H])[H]

>  <smiles>  (76) 
[H]c1c([H])c([H])c2c(c1[H])C([H])([H])C([H])([H])C([H])([H])C2([H])N([H])C(=O)C1([H])N(C(=O)C([H])(N([H])C(=O)C([H])(N([H])C([H])([H])[H])C([H])([H])[H])C(C([H])([H])[H])(C([H])([H])[H])C([H])([H])[H])C([H])([H])c2c([H])c(OC([H])([H])C3([H])N(c4c([H])c([H])c(N([H])C(=O)N5C([H])([H])C([H])([H])C([H])([H])C([H])(n6nc(-c7c([H])c([H])c(Oc8c([H])c([H])c(F)c([H])c8F)c([H])c7[H])c(C(=O)N([H])[H])c6N([H])[H])C5([H])[H])c([H])c4F)C([H])([H])C([H])([H])C3([H])[H])c([H])c([H])c2C1([H])[H]

$$$$
77:0:0
     RDKit          3D

 92100  0  0  1  0  0  0  0  0999 V2000
  -27.5270  -21.1010   19.1340 C   0  0  0  0  0  1  0  0  0  0  0  0
  -28.5790  -21.8280   19.8900 N   0  0  1  0  0  4  0  0  0  0  0  0
  -28.3140  -21.7470   20.8590 H   0  0  0  0  0  0  0  0  0  0  0  0
  -29.9190  -21.1700   19.7640 C   0  0  0  0  0  2  0  0  0  0  0  0
  -30.1980  -19.2000   21.4130 C   0  0  0  0  0  3  0  0  0  0  0  0
  -29.8450  -18.6750   19.0820 C   0  0  0  0  0  3  0  0  0  0  0  0
  -30.3220  -17.8170   21.7000 C   0  0  0  0  0  3  0  0  0  0  0  0
  -29.9570  -17.2900   19.3700 C   0  0  0  0  0  3  0  0  0  0  0  0
  -29.9670  -19.6540   20.0950 C   0  0  0  0  0  0  0  0  0  0  0  0
  -30.2190  -16.8220   20.6870 C   0  0  0  0  0  0  0  0  0  0  0  0
  -30.7640  -14.4820   20.0720 C   0  0  0  0  0  0  0  0  0  0  0  0
  -30.2800  -12.3860   18.8390 C   0  0  0  0  0  2  0  0  0  0  0  0
  -29.2610  -12.6190   17.7070 C   0  0  0  0  0  2  0  0  0  0  0  0
  -27.8250  -12.4660   18.2410 C   0  0  0  0  0  2  0  0  0  0  0  0
  -27.5850  -13.2970   19.5280 C   0  0  0  0  0  3  0  0  0  0  0  0
  -28.7090  -13.0660   20.5610 C   0  0  0  0  0  2  0  0  0  0  0  0
  -30.0040  -13.3550   19.9170 N   0  0  0  0  0  0  0  0  0  0  0  0
  -31.7760  -14.6820   19.3910 O   0  0  0  0  0  0  0  0  0  0  0  0
  -30.6330  -15.0190   22.3960 C   0  0  0  0  0  1  0  0  0  0  0  0
  -30.3760  -15.4040   20.9980 N   0  0  0  0  0  0  0  0  0  0  0  0
  -25.2570  -13.9170   20.4340 C   0  0  0  0  0  0  0  0  0  0  0  0
  -24.2040  -13.1510   20.8530 C   0  0  0  0  0  0  0  0  0  0  0  0
  -24.6360  -11.7930   20.7450 C   0  0  0  0  0  0  0  0  0  0  0  0
  -26.2660  -13.0270   20.0980 N   0  0  0  0  0  0  0  0  0  0  0  0
  -25.9000  -11.7430   20.3440 N   0  0  0  0  0  0  0  0  0  0  0  0
  -23.9010  -10.5370   20.9460 C   0  0  0  0  0  0  0  0  0  0  0  0
  -24.3480   -9.5550   21.8580 C   0  0  0  0  0  3  0  0  0  0  0  0
  -23.6150   -8.3650   22.0460 C   0  0  0  0  0  3  0  0  0  0  0  0
  -22.4180   -8.1470   21.3230 C   0  0  0  0  0  0  0  0  0  0  0  0
  -21.9890   -9.1170   20.4000 C   0  0  0  0  0  3  0  0  0  0  0  0
  -22.7230  -10.2980   20.2090 C   0  0  0  0  0  3  0  0  0  0  0  0
  -21.6540   -7.0090   21.4220 O   0  0  0  0  0  0  0  0  0  0  0  0
  -21.5960   -6.2790   22.5810 C   0  0  0  0  0  0  0  0  0  0  0  0
  -21.1750   -6.8520   23.8010 C   0  0  0  0  0  3  0  0  0  0  0  0
  -21.0630   -6.0490   24.9540 C   0  0  0  0  0  3  0  0  0  0  0  0
  -21.3630   -4.6750   24.8870 C   0  0  0  0  0  0  0  0  0  0  0  0
  -21.7760   -4.1020   23.6730 C   0  0  0  0  0  3  0  0  0  0  0  0
  -21.8900   -4.9020   22.5220 C   0  0  0  0  0  0  0  0  0  0  0  0
  -22.2700   -4.3420   21.3480 F   0  0  0  0  0  0  0  0  0  0  0  0
  -21.2480   -3.9010   25.9920 F   0  0  0  0  0  0  0  0  0  0  0  0
  -22.8390  -13.6410   21.2410 C   0  0  0  0  0  0  0  0  0  0  0  0
  -22.1770  -12.9490   22.1630 N   0  0  0  0  0  0  0  0  0  0  0  0
  -22.3710  -14.6740   20.7640 O   0  0  0  0  0  0  0  0  0  0  0  0
  -22.5710  -12.1120   22.5680 H   0  0  0  0  0  0  0  0  0  0  0  0
  -21.2640  -13.2570   22.4640 H   0  0  0  0  0  0  0  0  0  0  0  0
  -25.4370  -15.2900   20.2930 N   0  0  0  0  0  0  0  0  0  0  0  0
  -24.6980  -15.9550   20.4880 H   0  0  0  0  0  0  0  0  0  0  0  0
  -26.2810  -15.7260   19.9440 H   0  0  0  0  0  0  0  0  0  0  0  0
  -28.5420  -23.2990   19.5550 C   0  0  0  0  0  2  0  0  0  0  0  0
  -29.1840  -24.2640   20.5970 C   0  0  0  0  0  2  0  0  0  0  0  0
  -28.3750  -25.5540   20.9480 C   0  0  0  0  0  2  0  0  0  0  0  0
  -28.4500  -26.6670   20.0290 O   0  0  0  0  0  0  0  0  0  0  0  0
  -24.5890  -31.8540   23.0930 C   0  0  0  0  0  0  0  0  0  0  0  0
  -27.3070  -27.4420   20.0170 C   0  0  0  0  0  0  0  0  0  0  0  0
  -23.4080  -30.4330   21.4480 C   0  0  0  0  0  3  0  0  0  0  0  0
  -24.8920  -28.9210   20.0200 C   0  0  0  0  0  0  0  0  0  0  0  0
  -25.9280  -30.8320   21.2520 C   0  0  0  0  0  2  0  0  0  0  0  0
  -26.0420  -29.4610   20.6120 C   0  0  0  0  0  0  0  0  0  0  0  0
  -27.2570  -28.7300   20.6060 C   0  0  0  0  0  3  0  0  0  0  0  0
  -26.1420  -26.9250   19.4130 C   0  0  0  0  0  3  0  0  0  0  0  0
  -24.9380  -27.6530   19.4150 C   0  0  0  0  0  3  0  0  0  0  0  0
  -23.6290  -29.7540   20.0690 C   0  0  0  0  0  2  0  0  0  0  0  0
  -24.6600  -31.0540   21.9900 N   0  0  0  0  0  0  0  0  0  0  0  0
  -23.5020  -32.1080   23.6300 O   0  0  0  0  0  0  0  0  0  0  0  0
  -22.7720  -29.4020   22.4090 C   0  0  0  0  0  0  0  0  0  0  0  0
  -21.4420  -29.2350   22.3130 N   0  0  0  0  0  0  0  0  0  0  0  0
  -23.4690  -28.7550   23.1940 O   0  0  0  0  0  0  0  0  0  0  0  0
  -20.9410  -29.8100   21.6510 H   0  0  0  0  0  0  0  0  0  0  0  0
  -18.0680  -28.0780   22.8910 C   0  0  0  0  0  0  0  0  0  0  0  0
  -20.6370  -28.2880   23.0830 C   0  0  0  0  0  3  0  0  0  0  0  0
  -20.6950  -26.8700   22.4650 C   0  0  0  0  0  2  0  0  0  0  0  0
  -19.5550  -26.5930   21.4810 C   0  0  0  0  0  2  0  0  0  0  0  0
  -18.1970  -26.7440   22.1750 C   0  0  0  0  0  2  0  0  0  0  0  0
  -19.2130  -28.8100   23.3030 C   0  0  0  0  0  0  0  0  0  0  0  0
  -19.0360  -30.0620   23.9320 C   0  0  0  0  0  3  0  0  0  0  0  0
  -17.7470  -30.5810   24.1540 C   0  0  0  0  0  3  0  0  0  0  0  0
  -16.6170  -29.8440   23.7620 C   0  0  0  0  0  3  0  0  0  0  0  0
  -16.7770  -28.5950   23.1360 C   0  0  0  0  0  3  0  0  0  0  0  0
  -25.8650  -32.5060   23.7140 C   0  0  0  0  0  3  0  0  0  0  0  0
  -25.5270  -33.8910   24.0690 N   0  0  0  0  0  0  0  0  0  0  0  0
  -25.8200  -34.9610   23.3190 C   0  0  0  0  0  0  0  0  0  0  0  0
  -26.4770  -34.8900   22.2760 O   0  0  0  0  0  0  0  0  0  0  0  0
  -24.9520  -34.0200   24.8880 H   0  0  0  0  0  0  0  0  0  0  0  0
  -24.0400  -36.7090   23.0140 C   0  0  0  0  0  1  0  0  0  0  0  0
  -25.3040  -36.3300   23.8020 C   0  0  0  0  0  3  0  0  0  0  0  0
  -27.4280  -37.2580   24.6100 C   0  0  0  0  0  1  0  0  0  0  0  0
  -26.3050  -37.4120   23.6890 N   0  0  0  0  0  0  0  0  0  0  0  0
  -25.8760  -38.3180   23.8630 H   0  0  0  0  0  0  0  0  0  0  0  0
  -26.4100  -31.7260   24.9720 C   0  0  1  0  0  0  0  0  0  0  0  0
  -25.3340  -31.4440   26.0460 C   0  0  0  0  0  1  0  0  0  0  0  0
  -27.0220  -30.3700   24.5470 C   0  0  0  0  0  1  0  0  0  0  0  0
  -27.5490  -32.5350   25.6380 C   0  0  0  0  0  1  0  0  0  0  0  0
  1  2  1  0
  2  3  1  1
  4  2  1  0
  4  9  1  0
  5  7  1  0
  6  8  2  0
  6  9  1  0
  8 10  1  0
  9  5  2  0
 10 20  1  0
 10  7  2  0
 11 20  1  0
 12 17  1  0
 13 14  1  0
 13 12  1  0
 15 14  1  0
 15 24  1  0
 15 16  1  0
 17 11  1  0
 17 16  1  0
 18 11  2  0
 20 19  1  0
 21 22  2  0
 22 41  1  0
 23 22  1  0
 23 26  1  0
 24 25  1  0
 24 21  1  0
 25 23  2  0
 26 27  1  0
 27 28  2  0
 29 32  1  0
 29 28  1  0
 30 29  2  0
 31 30  1  0
 31 26  2  0
 32 33  1  0
 33 34  1  0
 34 35  2  0
 36 35  1  0
 36 40  1  0
 37 36  2  0
 38 33  2  0
 38 37  1  0
 39 38  1  0
 41 42  1  0
 42 45  1  0
 42 44  1  0
 43 41  2  0
 46 21  1  0
 46 47  1  0
 48 46  1  0
 49  2  1  0
 49 50  1  0
 50 51  1  0
 52 51  1  0
 53 64  2  0
 54 52  1  0
 54 59  1  0
 55 63  1  0
 55 65  1  0
 56 62  1  0
 56 58  1  0
 57 63  1  0
 58 57  1  0
 59 58  2  0
 60 61  1  0
 60 54  2  0
 61 56  2  0
 62 55  1  0
 63 53  1  0
 65 67  2  0
 66 65  1  0
 68 66  1  0
 69 78  2  0
 69 74  1  0
 70 66  1  0
 70 74  1  0
 71 70  1  0
 72 73  1  0
 72 71  1  0
 73 69  1  0
 74 75  2  0
 75 76  1  0
 77 76  2  0
 78 77  1  0
 79 53  1  0
 79 80  1  0
 79 89  1  0
 80 83  1  0
 81 85  1  0
 81 80  1  0
 82 81  2  0
 85 84  1  0
 87 85  1  0
 87 88  1  0
 87 86  1  0
 89 92  1  1
 89 90  1  0
 91 89  1  0
M  ISO  4  11 100  20 100  51 101  52 101
M  END
>  <TORSDO>  (77) 
F 21

>  <SCORE>  (77) 
-12.294

>  <name>  (77) 
77

>  <ligand_id>  (77) 
77

>  <original_smiles>  (77) 
[H]c1c([H])c([H])c2c(c1[H])C([H])([H])C([H])([H])C([H])([H])C2([H])N([H])C(=O)C1([H])N(C(=O)C([H])(N([H])C(=O)C([H])(N([H])C([H])([H])[H])C([H])([H])[H])C(C([H])([H])[H])(C([H])([H])[H])C([H])([H])[H])C([H])([H])c2c([H])c(OC([H])([H])C([H])([H])C([H])([H])[N+]([H])(C([H])([H])[H])C([H])([H])c3c([H])c([H])c(N(C(=O)N4C([H])([H])C([H])([H])C([H])([H])C([H])(n5nc(-c6c([H])c([H])c(Oc7c([H])c([H])c(F)c([H])c7F)c([H])c6[H])c(C(=O)N([H])[H])c5N([H])[H])C4([H])[H])C([H])([H])[H])c([H])c3[H])c([H])c([H])c2C1([H])[H]

>  <smiles>  (77) 
[H]c1c([H])c([H])c2c(c1[H])C([H])([H])C([H])([H])C([H])([H])C2([H])N([H])C(=O)C1([H])N(C(=O)C([H])(N([H])C(=O)C([H])(N([H])C([H])([H])[H])C([H])([H])[H])C(C([H])([H])[H])(C([H])([H])[H])C([H])([H])[H])C([H])([H])c2c([H])c(OC([H])([H])C([H])([H])C([H])([H])[N+]([H])(C([H])([H])[H])C([H])([H])c3c([H])c([H])c(N(C(=O)N4C([H])([H])C([H])([H])C([H])([H])C([H])(n5nc(-c6c([H])c([H])c(Oc7c([H])c([H])c(F)c([H])c7F)c([H])c6[H])c(C(=O)N([H])[H])c5N([H])[H])C4([H])[H])C([H])([H])[H])c([H])c3[H])c([H])c([H])c2C1([H])[H]

$$$$
78:0:0
     RDKit          3D

 94102  0  0  1  0  0  0  0  0999 V2000
  -29.4010  -21.9190   21.5220 N   0  0  1  0  0  4  0  0  0  0  0  0
  -28.7980  -21.2250   21.9390 H   0  0  0  0  0  0  0  0  0  0  0  0
  -29.9120  -21.2360   20.3050 C   0  0  0  0  0  2  0  0  0  0  0  0
  -28.8300  -18.9450   20.6010 C   0  0  0  0  0  3  0  0  0  0  0  0
  -31.2580  -19.0710   20.5920 C   0  0  0  0  0  3  0  0  0  0  0  0
  -28.9040  -17.5500   20.7880 C   0  0  0  0  0  3  0  0  0  0  0  0
  -31.3320  -17.6710   20.7670 C   0  0  0  0  0  3  0  0  0  0  0  0
  -30.0060  -19.7200   20.5030 C   0  0  0  0  0  0  0  0  0  0  0  0
  -30.1510  -16.8940   20.8520 C   0  0  0  0  0  0  0  0  0  0  0  0
  -30.7710  -14.5620   20.2640 C   0  0  0  0  0  0  0  0  0  0  0  0
  -30.4070  -12.4600   19.0260 C   0  0  0  0  0  2  0  0  0  0  0  0
  -29.4200  -12.7230   17.8700 C   0  0  0  0  0  2  0  0  0  0  0  0
  -27.9610  -12.5900   18.3490 C   0  0  0  0  0  2  0  0  0  0  0  0
  -27.6830  -13.3820   19.6540 C   0  0  0  0  0  3  0  0  0  0  0  0
  -28.7730  -13.0850   20.7100 C   0  0  0  0  0  2  0  0  0  0  0  0
  -30.0880  -13.3950   20.1160 N   0  0  0  0  0  0  0  0  0  0  0  0
  -31.8440  -14.7870   19.6970 O   0  0  0  0  0  0  0  0  0  0  0  0
  -30.1480  -15.4800   21.0260 N   0  0  0  0  0  0  0  0  0  0  0  0
  -29.3330  -15.1090   21.4890 H   0  0  0  0  0  0  0  0  0  0  0  0
  -25.3090  -14.0000   20.4410 C   0  0  0  0  0  0  0  0  0  0  0  0
  -24.2470  -13.2310   20.8350 C   0  0  0  0  0  0  0  0  0  0  0  0
  -24.6970  -11.8760   20.7700 C   0  0  0  0  0  0  0  0  0  0  0  0
  -26.3410  -13.1140   20.1670 N   0  0  0  0  0  0  0  0  0  0  0  0
  -25.9750  -11.8310   20.4200 N   0  0  0  0  0  0  0  0  0  0  0  0
  -23.9680  -10.6160   20.9670 C   0  0  0  0  0  0  0  0  0  0  0  0
  -24.4050   -9.6480   21.8980 C   0  0  0  0  0  3  0  0  0  0  0  0
  -23.6780   -8.4520   22.0830 C   0  0  0  0  0  3  0  0  0  0  0  0
  -22.4990   -8.2150   21.3350 C   0  0  0  0  0  0  0  0  0  0  0  0
  -22.0800   -9.1720   20.3940 C   0  0  0  0  0  3  0  0  0  0  0  0
  -22.8080  -10.3600   20.2080 C   0  0  0  0  0  3  0  0  0  0  0  0
  -21.7440   -7.0710   21.4280 O   0  0  0  0  0  0  0  0  0  0  0  0
  -21.6810   -6.3430   22.5890 C   0  0  0  0  0  0  0  0  0  0  0  0
  -21.2040   -6.9030   23.7940 C   0  0  0  0  0  3  0  0  0  0  0  0
  -21.0900   -6.1000   24.9470 C   0  0  0  0  0  3  0  0  0  0  0  0
  -21.4440   -4.7380   24.8950 C   0  0  0  0  0  0  0  0  0  0  0  0
  -21.9150   -4.1780   23.6940 C   0  0  0  0  0  3  0  0  0  0  0  0
  -22.0300   -4.9780   22.5440 C   0  0  0  0  0  0  0  0  0  0  0  0
  -22.4630   -4.4290   21.3840 F   0  0  0  0  0  0  0  0  0  0  0  0
  -21.3280   -3.9650   26.0000 F   0  0  0  0  0  0  0  0  0  0  0  0
  -22.8620  -13.7140   21.1590 C   0  0  0  0  0  0  0  0  0  0  0  0
  -22.1580  -13.0080   22.0360 N   0  0  0  0  0  0  0  0  0  0  0  0
  -22.4160  -14.7500   20.6700 O   0  0  0  0  0  0  0  0  0  0  0  0
  -22.5300  -12.1680   22.4530 H   0  0  0  0  0  0  0  0  0  0  0  0
  -21.2300  -13.3130   22.2950 H   0  0  0  0  0  0  0  0  0  0  0  0
  -25.4780  -15.3710   20.2750 N   0  0  0  0  0  0  0  0  0  0  0  0
  -24.7170  -16.0270   20.4130 H   0  0  0  0  0  0  0  0  0  0  0  0
  -26.3100  -15.8030   19.8900 H   0  0  0  0  0  0  0  0  0  0  0  0
  -30.4140  -22.1900   22.5770 C   0  0  0  0  0  2  0  0  0  0  0  0
  -31.2320  -21.4950   24.9030 C   0  0  0  0  0  1  0  0  0  0  0  0
  -30.4330  -21.0900   23.6580 C   0  0  0  0  0  2  0  0  0  0  0  0
  -28.4620  -23.0510   21.2740 C   0  0  0  0  0  2  0  0  0  0  0  0
  -29.0490  -24.3440   20.6360 C   0  0  0  0  0  2  0  0  0  0  0  0
  -28.0510  -25.5060   20.8450 C   0  0  0  0  0  2  0  0  0  0  0  0
  -28.3080  -26.7260   20.1230 O   0  0  0  0  0  0  0  0  0  0  0  0
  -24.5370  -31.8990   23.2370 C   0  0  0  0  0  0  0  0  0  0  0  0
  -27.1850  -27.5240   20.0730 C   0  0  0  0  0  0  0  0  0  0  0  0
  -23.3330  -30.5220   21.5740 C   0  0  0  0  0  3  0  0  0  0  0  0
  -24.7920  -29.0270   20.1100 C   0  0  0  0  0  0  0  0  0  0  0  0
  -25.8590  -30.8970   21.3760 C   0  0  0  0  0  2  0  0  0  0  0  0
  -25.9500  -29.5410   20.7080 C   0  0  0  0  0  0  0  0  0  0  0  0
  -27.1550  -28.7970   20.6880 C   0  0  0  0  0  3  0  0  0  0  0  0
  -26.0170  -27.0410   19.4420 C   0  0  0  0  0  3  0  0  0  0  0  0
  -24.8210  -27.7770   19.4710 C   0  0  0  0  0  3  0  0  0  0  0  0
  -23.5420  -29.8760   20.1800 C   0  0  0  0  0  2  0  0  0  0  0  0
  -24.5950  -31.1180   22.1210 N   0  0  0  0  0  0  0  0  0  0  0  0
  -23.4560  -32.1560   23.7860 O   0  0  0  0  0  0  0  0  0  0  0  0
  -22.6910  -29.4770   22.5150 C   0  0  0  0  0  0  0  0  0  0  0  0
  -21.3660  -29.2970   22.3950 N   0  0  0  0  0  0  0  0  0  0  0  0
  -23.3820  -28.8350   23.3110 O   0  0  0  0  0  0  0  0  0  0  0  0
  -20.8700  -29.8720   21.7280 H   0  0  0  0  0  0  0  0  0  0  0  0
  -17.9920  -28.1020   22.8940 C   0  0  0  0  0  0  0  0  0  0  0  0
  -20.5520  -28.3450   23.1510 C   0  0  0  0  0  3  0  0  0  0  0  0
  -20.6450  -26.9260   22.5410 C   0  0  0  0  0  2  0  0  0  0  0  0
  -19.5330  -26.6320   21.5300 C   0  0  0  0  0  2  0  0  0  0  0  0
  -18.1580  -26.7670   22.1870 C   0  0  0  0  0  2  0  0  0  0  0  0
  -19.1170  -28.8500   23.3310 C   0  0  0  0  0  0  0  0  0  0  0  0
  -18.9070  -30.1010   23.9510 C   0  0  0  0  0  3  0  0  0  0  0  0
  -17.6060  -30.6040   24.1390 C   0  0  0  0  0  3  0  0  0  0  0  0
  -16.4960  -29.8510   23.7180 C   0  0  0  0  0  3  0  0  0  0  0  0
  -16.6900  -28.6040   23.1000 C   0  0  0  0  0  3  0  0  0  0  0  0
  -25.8210  -32.5240   23.8650 C   0  0  0  0  0  3  0  0  0  0  0  0
  -25.5200  -33.9250   24.1890 N   0  0  0  0  0  0  0  0  0  0  0  0
  -25.8800  -34.9720   23.4360 C   0  0  0  0  0  0  0  0  0  0  0  0
  -26.5700  -34.8610   22.4190 O   0  0  0  0  0  0  0  0  0  0  0  0
  -24.9100  -34.0860   24.9770 H   0  0  0  0  0  0  0  0  0  0  0  0
  -24.1930  -36.7900   23.0200 C   0  0  0  0  0  1  0  0  0  0  0  0
  -25.3940  -36.3660   23.8800 C   0  0  0  0  0  3  0  0  0  0  0  0
  -27.5030  -37.2150   24.8040 C   0  0  0  0  0  1  0  0  0  0  0  0
  -26.4460  -37.4020   23.8150 N   0  0  0  0  0  0  0  0  0  0  0  0
  -26.0480  -38.3290   23.9490 H   0  0  0  0  0  0  0  0  0  0  0  0
  -26.3280  -31.7510   25.1440 C   0  0  1  0  0  0  0  0  0  0  0  0
  -25.2260  -31.5160   26.2040 C   0  0  0  0  0  1  0  0  0  0  0  0
  -26.9100  -30.3740   24.7510 C   0  0  0  0  0  1  0  0  0  0  0  0
  -27.4770  -32.5430   25.8130 C   0  0  0  0  0  1  0  0  0  0  0  0
  1  2  1  1
  1 48  1  0
  3  8  1  0
  3  1  1  0
  4  6  1  0
  5  7  2  0
  6  9  2  0
  7  9  1  0
  8  5  1  0
  8  4  2  0
  9 18  1  0
 10 18  1  0
 11 16  1  0
 12 13  1  0
 12 11  1  0
 14 13  1  0
 14 23  1  0
 14 15  1  0
 16 10  1  0
 16 15  1  0
 17 10  2  0
 18 19  1  0
 20 21  2  0
 21 40  1  0
 22 21  1  0
 22 25  1  0
 23 24  1  0
 23 20  1  0
 24 22  2  0
 25 26  1  0
 26 27  2  0
 28 31  1  0
 28 27  1  0
 29 28  2  0
 30 29  1  0
 30 25  2  0
 31 32  1  0
 32 33  1  0
 33 34  2  0
 35 34  1  0
 35 39  1  0
 36 35  2  0
 37 32  2  0
 37 36  1  0
 38 37  1  0
 40 41  1  0
 41 44  1  0
 41 43  1  0
 42 40  2  0
 45 46  1  0
 45 20  1  0
 47 45  1  0
 48 50  1  0
 50 49  1  0
 51  1  1  0
 52 53  1  0
 52 51  1  0
 54 53  1  0
 55 66  2  0
 56 54  1  0
 56 61  1  0
 57 65  1  0
 57 67  1  0
 58 64  1  0
 58 60  1  0
 59 65  1  0
 60 59  1  0
 61 60  2  0
 62 63  1  0
 62 56  2  0
 63 58  2  0
 64 57  1  0
 65 55  1  0
 67 69  2  0
 68 67  1  0
 70 68  1  0
 71 80  2  0
 71 76  1  0
 72 68  1  0
 72 76  1  0
 73 72  1  0
 74 75  1  0
 74 73  1  0
 75 71  1  0
 76 77  2  0
 77 78  1  0
 79 78  2  0
 80 79  1  0
 81 55  1  0
 81 82  1  0
 81 91  1  0
 82 85  1  0
 83 87  1  0
 83 82  1  0
 84 83  2  0
 87 86  1  0
 89 87  1  0
 89 90  1  0
 89 88  1  0
 91 94  1  1
 91 92  1  0
 93 91  1  0
M  ISO  4  10 100  18 100  53 101  54 101
M  END
>  <TORSDO>  (78) 
F 23

>  <SCORE>  (78) 
-13.369

>  <name>  (78) 
78

>  <ligand_id>  (78) 
78

>  <original_smiles>  (78) 
[H]c1c([H])c([H])c2c(c1[H])C([H])([H])C([H])([H])C([H])([H])C2([H])N([H])C(=O)C1([H])N(C(=O)C([H])(N([H])C(=O)C([H])(N([H])C([H])([H])[H])C([H])([H])[H])C(C([H])([H])[H])(C([H])([H])[H])C([H])([H])[H])C([H])([H])c2c([H])c(OC([H])([H])C([H])([H])C([H])([H])[N+]([H])(C([H])([H])c3c([H])c([H])c(N([H])C(=O)N4C([H])([H])C([H])([H])C([H])([H])C([H])(n5nc(-c6c([H])c([H])c(Oc7c([H])c([H])c(F)c([H])c7F)c([H])c6[H])c(C(=O)N([H])[H])c5N([H])[H])C4([H])[H])c([H])c3[H])C([H])([H])C([H])([H])C([H])([H])[H])c([H])c([H])c2C1([H])[H]

>  <smiles>  (78) 
[H]c1c([H])c([H])c2c(c1[H])C([H])([H])C([H])([H])C([H])([H])C2([H])N([H])C(=O)C1([H])N(C(=O)C([H])(N([H])C(=O)C([H])(N([H])C([H])([H])[H])C([H])([H])[H])C(C([H])([H])[H])(C([H])([H])[H])C([H])([H])[H])C([H])([H])c2c([H])c(OC([H])([H])C([H])([H])C([H])([H])[N+]([H])(C([H])([H])c3c([H])c([H])c(N([H])C(=O)N4C([H])([H])C([H])([H])C([H])([H])C([H])(n5nc(-c6c([H])c([H])c(Oc7c([H])c([H])c(F)c([H])c7F)c([H])c6[H])c(C(=O)N([H])[H])c5N([H])[H])C4([H])[H])c([H])c3[H])C([H])([H])C([H])([H])C([H])([H])[H])c([H])c([H])c2C1([H])[H]

$$$$
79:0:0
     RDKit          3D

 93101  0  0  1  0  0  0  0  0999 V2000
  -27.7120  -22.0400   19.3620 C   0  0  0  0  0  1  0  0  0  0  0  0
  -28.9690  -22.5030   20.0030 N   0  0  1  0  0  4  0  0  0  0  0  0
  -28.7960  -22.5130   20.9960 H   0  0  0  0  0  0  0  0  0  0  0  0
  -30.1000  -21.5130   19.7670 C   0  0  0  0  0  2  0  0  0  0  0  0
  -29.9470  -19.0100   18.9380 C   0  0  0  0  0  3  0  0  0  0  0  0
  -30.0830  -17.5980   19.1480 C   0  0  0  0  0  3  0  0  0  0  0  0
  -30.0210  -19.3780   21.2970 C   0  0  0  0  0  3  0  0  0  0  0  0
  -29.9510  -19.9520   20.0060 C   0  0  0  0  0  0  0  0  0  0  0  0
  -30.2380  -17.0190   20.4430 C   0  0  0  0  0  0  0  0  0  0  0  0
  -30.1530  -17.9750   21.5140 C   0  0  0  0  0  0  0  0  0  0  0  0
  -30.2220  -17.5900   22.8090 F   0  0  0  0  0  0  0  0  0  0  0  0
  -30.8780  -14.6270   19.7410 C   0  0  0  0  0  0  0  0  0  0  0  0
  -30.4650  -12.4580   18.5620 C   0  0  0  0  0  2  0  0  0  0  0  0
  -29.3910  -12.6190   17.4670 C   0  0  0  0  0  2  0  0  0  0  0  0
  -27.9820  -12.4290   18.0580 C   0  0  0  0  0  2  0  0  0  0  0  0
  -27.7690  -13.2570   19.3510 C   0  0  0  0  0  3  0  0  0  0  0  0
  -28.9420  -13.0750   20.3360 C   0  0  0  0  0  2  0  0  0  0  0  0
  -30.1880  -13.4390   19.6370 N   0  0  0  0  0  0  0  0  0  0  0  0
  -31.8700  -14.8360   19.0350 O   0  0  0  0  0  0  0  0  0  0  0  0
  -30.7720  -15.1210   22.0530 C   0  0  0  0  0  1  0  0  0  0  0  0
  -30.4750  -15.5600   20.6760 N   0  0  0  0  0  0  0  0  0  0  0  0
  -25.4950  -13.8290   20.4000 C   0  0  0  0  0  0  0  0  0  0  0  0
  -24.4690  -13.0430   20.8520 C   0  0  0  0  0  0  0  0  0  0  0  0
  -24.9010  -11.6920   20.6780 C   0  0  0  0  0  0  0  0  0  0  0  0
  -26.4860  -12.9560   19.9800 N   0  0  0  0  0  0  0  0  0  0  0  0
  -26.1420  -11.6620   20.2070 N   0  0  0  0  0  0  0  0  0  0  0  0
  -24.1830  -10.4270   20.8800 C   0  0  0  0  0  0  0  0  0  0  0  0
  -24.6550   -9.4420   21.7760 C   0  0  0  0  0  3  0  0  0  0  0  0
  -23.9350   -8.2430   21.9650 C   0  0  0  0  0  3  0  0  0  0  0  0
  -22.7290   -8.0190   21.2590 C   0  0  0  0  0  0  0  0  0  0  0  0
  -22.2770   -8.9920   20.3500 C   0  0  0  0  0  3  0  0  0  0  0  0
  -22.9970  -10.1840   20.1600 C   0  0  0  0  0  3  0  0  0  0  0  0
  -21.9790   -6.8720   21.3590 O   0  0  0  0  0  0  0  0  0  0  0  0
  -21.9130   -6.1550   22.5270 C   0  0  0  0  0  0  0  0  0  0  0  0
  -21.4730   -6.7380   23.7360 C   0  0  0  0  0  3  0  0  0  0  0  0
  -21.3550   -5.9470   24.8960 C   0  0  0  0  0  3  0  0  0  0  0  0
  -21.6660   -4.5740   24.8480 C   0  0  0  0  0  0  0  0  0  0  0  0
  -22.0980   -3.9910   23.6440 C   0  0  0  0  0  3  0  0  0  0  0  0
  -22.2180   -4.7800   22.4860 C   0  0  0  0  0  0  0  0  0  0  0  0
  -22.6140   -4.2070   21.3240 F   0  0  0  0  0  0  0  0  0  0  0  0
  -21.5450   -3.8120   25.9610 F   0  0  0  0  0  0  0  0  0  0  0  0
  -23.1250  -13.5140   21.3260 C   0  0  0  0  0  0  0  0  0  0  0  0
  -22.5140  -12.7890   22.2560 N   0  0  0  0  0  0  0  0  0  0  0  0
  -22.6300  -14.5600   20.9080 O   0  0  0  0  0  0  0  0  0  0  0  0
  -22.9310  -11.9420   22.6150 H   0  0  0  0  0  0  0  0  0  0  0  0
  -21.6160  -13.0830   22.6140 H   0  0  0  0  0  0  0  0  0  0  0  0
  -25.6630  -15.2060   20.2900 N   0  0  0  0  0  0  0  0  0  0  0  0
  -24.9380  -15.8680   20.5470 H   0  0  0  0  0  0  0  0  0  0  0  0
  -26.4870  -15.6510   19.9060 H   0  0  0  0  0  0  0  0  0  0  0  0
  -29.3130  -23.9580   19.6470 C   0  0  0  0  0  2  0  0  0  0  0  0
  -28.3700  -25.0540   20.2810 C   0  0  0  0  0  0  0  0  0  0  0  0
  -27.5050  -24.6970   21.0870 O   0  0  0  0  0  0  0  0  0  0  0  0
  -28.5370  -26.4320   19.8630 O   0  0  0  0  0  0  0  0  0  0  0  0
  -24.8150  -31.7620   23.0850 C   0  0  0  0  0  0  0  0  0  0  0  0
  -27.4420  -27.3140   19.8840 C   0  0  0  0  0  0  0  0  0  0  0  0
  -23.6170  -30.4070   21.4070 C   0  0  0  0  0  3  0  0  0  0  0  0
  -25.0740  -28.9160   19.9290 C   0  0  0  0  0  0  0  0  0  0  0  0
  -26.1530  -30.7470   21.2280 C   0  0  0  0  0  2  0  0  0  0  0  0
  -26.2430  -29.3890   20.5410 C   0  0  0  0  0  0  0  0  0  0  0  0
  -27.4330  -28.5980   20.5150 C   0  0  0  0  0  3  0  0  0  0  0  0
  -26.2530  -26.9060   19.2380 C   0  0  0  0  0  3  0  0  0  0  0  0
  -25.0800  -27.6790   19.2690 C   0  0  0  0  0  3  0  0  0  0  0  0
  -23.8330  -29.7800   20.0060 C   0  0  0  0  0  2  0  0  0  0  0  0
  -24.8800  -30.9880   21.9630 N   0  0  0  0  0  0  0  0  0  0  0  0
  -23.7310  -32.0170   23.6300 O   0  0  0  0  0  0  0  0  0  0  0  0
  -22.9640  -29.3540   22.3350 C   0  0  0  0  0  0  0  0  0  0  0  0
  -21.6340  -29.2010   22.2350 N   0  0  0  0  0  0  0  0  0  0  0  0
  -23.6550  -28.6830   23.1070 O   0  0  0  0  0  0  0  0  0  0  0  0
  -21.1370  -29.7930   21.5850 H   0  0  0  0  0  0  0  0  0  0  0  0
  -18.2480  -28.0500   22.7890 C   0  0  0  0  0  0  0  0  0  0  0  0
  -20.8190  -28.2420   22.9850 C   0  0  0  0  0  3  0  0  0  0  0  0
  -20.8720  -26.8410   22.3350 C   0  0  0  0  0  2  0  0  0  0  0  0
  -19.7310  -26.5930   21.3440 C   0  0  0  0  0  2  0  0  0  0  0  0
  -18.3730  -26.7340   22.0400 C   0  0  0  0  0  2  0  0  0  0  0  0
  -19.3980  -28.7660   23.2190 C   0  0  0  0  0  0  0  0  0  0  0  0
  -19.2250  -30.0010   23.8800 C   0  0  0  0  0  3  0  0  0  0  0  0
  -17.9380  -30.5200   24.1150 C   0  0  0  0  0  3  0  0  0  0  0  0
  -16.8040  -29.7990   23.7020 C   0  0  0  0  0  3  0  0  0  0  0  0
  -16.9610  -28.5660   23.0450 C   0  0  0  0  0  3  0  0  0  0  0  0
  -26.0950  -32.3850   23.7200 C   0  0  0  0  0  3  0  0  0  0  0  0
  -26.6310  -31.5710   24.9610 C   0  0  1  0  0  0  0  0  0  0  0  0
  -25.5510  -31.2810   26.0300 C   0  0  0  0  0  1  0  0  0  0  0  0
  -27.2230  -30.2150   24.5120 C   0  0  0  0  0  1  0  0  0  0  0  0
  -27.7810  -32.3510   25.6430 C   0  0  0  0  0  1  0  0  0  0  0  0
  -25.7720  -33.7660   24.1090 N   0  0  0  0  0  0  0  0  0  0  0  0
  -26.0900  -34.8530   23.3920 C   0  0  0  0  0  0  0  0  0  0  0  0
  -26.7560  -34.7980   22.3540 O   0  0  0  0  0  0  0  0  0  0  0  0
  -25.1810  -33.8810   24.9180 H   0  0  0  0  0  0  0  0  0  0  0  0
  -24.3440  -36.6440   23.1150 C   0  0  0  0  0  1  0  0  0  0  0  0
  -25.5880  -36.2160   23.9070 C   0  0  0  0  0  3  0  0  0  0  0  0
  -27.7140  -37.0840   24.7770 C   0  0  0  0  0  1  0  0  0  0  0  0
  -26.6100  -37.2830   23.8410 N   0  0  0  0  0  0  0  0  0  0  0  0
  -26.1950  -38.1900   24.0310 H   0  0  0  0  0  0  0  0  0  0  0  0
  1  2  1  0
  2  3  1  1
  4  2  1  0
  4  8  1  0
  5  6  2  0
  5  8  1  0
  6  9  1  0
  7 10  1  0
  8  7  2  0
  9 21  1  0
  9 10  2  0
 10 11  1  0
 12 21  1  0
 13 18  1  0
 14 15  1  0
 14 13  1  0
 16 15  1  0
 16 25  1  0
 16 17  1  0
 18 12  1  0
 18 17  1  0
 19 12  2  0
 21 20  1  0
 22 23  2  0
 23 42  1  0
 24 23  1  0
 24 27  1  0
 25 26  1  0
 25 22  1  0
 26 24  2  0
 27 28  1  0
 28 29  2  0
 30 33  1  0
 30 29  1  0
 31 30  2  0
 32 31  1  0
 32 27  2  0
 33 34  1  0
 34 35  1  0
 35 36  2  0
 37 36  1  0
 37 41  1  0
 38 37  2  0
 39 34  2  0
 39 38  1  0
 40 39  1  0
 42 43  1  0
 43 46  1  0
 43 45  1  0
 44 42  2  0
 47 22  1  0
 47 48  1  0
 49 47  1  0
 50  2  1  0
 50 51  1  0
 51 52  2  0
 53 55  1  0
 53 51  1  0
 54 65  2  0
 55 60  1  0
 56 64  1  0
 56 66  1  0
 57 63  1  0
 57 59  1  0
 58 64  1  0
 59 58  1  0
 60 59  2  0
 61 62  1  0
 61 55  2  0
 62 57  2  0
 63 56  1  0
 64 54  1  0
 66 68  2  0
 67 66  1  0
 69 67  1  0
 70 79  2  0
 70 75  1  0
 71 67  1  0
 71 75  1  0
 72 71  1  0
 73 74  1  0
 73 72  1  0
 74 70  1  0
 75 76  2  0
 76 77  1  0
 78 77  2  0
 79 78  1  0
 80 54  1  0
 80 85  1  0
 80 81  1  0
 81 84  1  1
 81 82  1  0
 83 81  1  0
 85 88  1  0
 86 90  1  0
 86 85  1  0
 87 86  2  0
 90 89  1  0
 92 90  1  0
 92 93  1  0
 92 91  1  0
M  ISO  4  12 100  21 100  51 101  53 101
M  END
>  <TORSDO>  (79) 
F 20

>  <SCORE>  (79) 
-12.300

>  <name>  (79) 
79

>  <ligand_id>  (79) 
79

>  <original_smiles>  (79) 
[H]c1c([H])c([H])c2c(c1[H])C([H])([H])C([H])([H])C([H])([H])C2([H])N([H])C(=O)C1([H])N(C(=O)C([H])(N([H])C(=O)C([H])(N([H])C([H])([H])[H])C([H])([H])[H])C(C([H])([H])[H])(C([H])([H])[H])C([H])([H])[H])C([H])([H])c2c([H])c(OC(=O)C([H])([H])[N+]([H])(C([H])([H])[H])C([H])([H])c3c([H])c([H])c(N(C(=O)N4C([H])([H])C([H])([H])C([H])([H])C([H])(n5nc(-c6c([H])c([H])c(Oc7c([H])c([H])c(F)c([H])c7F)c([H])c6[H])c(C(=O)N([H])[H])c5N([H])[H])C4([H])[H])C([H])([H])[H])c(F)c3[H])c([H])c([H])c2C1([H])[H]

>  <smiles>  (79) 
[H]c1c([H])c([H])c2c(c1[H])C([H])([H])C([H])([H])C([H])([H])C2([H])N([H])C(=O)C1([H])N(C(=O)C([H])(N([H])C(=O)C([H])(N([H])C([H])([H])[H])C([H])([H])[H])C(C([H])([H])[H])(C([H])([H])[H])C([H])([H])[H])C([H])([H])c2c([H])c(OC(=O)C([H])([H])[N+]([H])(C([H])([H])[H])C([H])([H])c3c([H])c([H])c(N(C(=O)N4C([H])([H])C([H])([H])C([H])([H])C([H])(n5nc(-c6c([H])c([H])c(Oc7c([H])c([H])c(F)c([H])c7F)c([H])c6[H])c(C(=O)N([H])[H])c5N([H])[H])C4([H])[H])C([H])([H])[H])c(F)c3[H])c([H])c([H])c2C1([H])[H]

$$$$
80:0:0
     RDKit          3D

 90 98  0  0  1  0  0  0  0  0999 V2000
  -31.5410  -21.9910   19.8470 C   0  0  0  0  0  1  0  0  0  0  0  0
  -30.1780  -21.4790   20.0070 N   0  0  0  0  0  0  0  0  0  0  0  0
  -29.1340  -17.9190   20.9180 C   0  0  0  0  0  3  0  0  0  0  0  0
  -31.0270  -17.7790   19.4590 C   0  0  0  0  0  3  0  0  0  0  0  0
  -29.1010  -19.3390   20.7700 C   0  0  0  0  0  3  0  0  0  0  0  0
  -31.0060  -19.2010   19.3290 C   0  0  0  0  0  3  0  0  0  0  0  0
  -30.1230  -17.0880   20.3100 C   0  0  0  0  0  0  0  0  0  0  0  0
  -30.0720  -20.0380   20.0120 C   0  0  0  0  0  0  0  0  0  0  0  0
  -30.7290  -14.6240   19.8800 C   0  0  0  0  0  0  0  0  0  0  0  0
  -30.3120  -12.4670   18.6880 C   0  0  0  0  0  2  0  0  0  0  0  0
  -29.2710  -12.6550   17.5640 C   0  0  0  0  0  2  0  0  0  0  0  0
  -27.8390  -12.4950   18.1110 C   0  0  0  0  0  2  0  0  0  0  0  0
  -27.6070  -13.3180   19.4040 C   0  0  0  0  0  3  0  0  0  0  0  0
  -28.7470  -13.0910   20.4130 C   0  0  0  0  0  2  0  0  0  0  0  0
  -30.0170  -13.4480   19.7570 N   0  0  0  0  0  0  0  0  0  0  0  0
  -31.7900  -14.7650   19.2620 O   0  0  0  0  0  0  0  0  0  0  0  0
  -30.1970  -15.3910   22.1050 C   0  0  0  0  0  1  0  0  0  0  0  0
  -30.2200  -15.6520   20.6570 N   0  0  0  0  0  0  0  0  0  0  0  0
  -25.2940  -13.9310   20.3420 C   0  0  0  0  0  0  0  0  0  0  0  0
  -24.2510  -13.1640   20.7840 C   0  0  0  0  0  0  0  0  0  0  0  0
  -24.6870  -11.8070   20.6830 C   0  0  0  0  0  0  0  0  0  0  0  0
  -26.3000  -13.0430   19.9960 N   0  0  0  0  0  0  0  0  0  0  0  0
  -25.9450  -11.7590   20.2600 N   0  0  0  0  0  0  0  0  0  0  0  0
  -23.9610  -10.5500   20.9050 C   0  0  0  0  0  0  0  0  0  0  0  0
  -24.4250   -9.5780   21.8200 C   0  0  0  0  0  3  0  0  0  0  0  0
  -23.6970   -8.3870   22.0310 C   0  0  0  0  0  3  0  0  0  0  0  0
  -22.4920   -8.1580   21.3270 C   0  0  0  0  0  0  0  0  0  0  0  0
  -22.0450   -9.1180   20.4020 C   0  0  0  0  0  3  0  0  0  0  0  0
  -22.7730  -10.3000   20.1880 C   0  0  0  0  0  3  0  0  0  0  0  0
  -21.7320   -7.0190   21.4480 O   0  0  0  0  0  0  0  0  0  0  0  0
  -21.6920   -6.3000   22.6160 C   0  0  0  0  0  0  0  0  0  0  0  0
  -21.2840   -6.8830   23.8370 C   0  0  0  0  0  3  0  0  0  0  0  0
  -21.1910   -6.0900   24.9990 C   0  0  0  0  0  3  0  0  0  0  0  0
  -21.4980   -4.7180   24.9410 C   0  0  0  0  0  0  0  0  0  0  0  0
  -21.9010   -4.1350   23.7270 C   0  0  0  0  0  3  0  0  0  0  0  0
  -21.9950   -4.9240   22.5670 C   0  0  0  0  0  0  0  0  0  0  0  0
  -22.3620   -4.3530   21.3950 F   0  0  0  0  0  0  0  0  0  0  0  0
  -21.4010   -3.9560   26.0550 F   0  0  0  0  0  0  0  0  0  0  0  0
  -22.8880  -13.6530   21.1840 C   0  0  0  0  0  0  0  0  0  0  0  0
  -22.2380  -12.9640   22.1150 N   0  0  0  0  0  0  0  0  0  0  0  0
  -22.4120  -14.6810   20.7060 O   0  0  0  0  0  0  0  0  0  0  0  0
  -22.6400  -12.1340   22.5240 H   0  0  0  0  0  0  0  0  0  0  0  0
  -21.3270  -13.2730   22.4240 H   0  0  0  0  0  0  0  0  0  0  0  0
  -25.4650  -15.3040   20.1870 N   0  0  0  0  0  0  0  0  0  0  0  0
  -24.7210  -15.9660   20.3740 H   0  0  0  0  0  0  0  0  0  0  0  0
  -26.2970  -15.7390   19.8080 H   0  0  0  0  0  0  0  0  0  0  0  0
  -29.0220  -22.4290   19.8620 C   0  0  0  0  0  2  0  0  0  0  0  0
  -29.3100  -23.9930   20.0560 C   0  0  0  0  0  3  0  0  0  0  0  0
  -28.1060  -24.9980   19.8230 C   0  0  0  0  0  3  0  0  0  0  0  0
  -28.3070  -26.4580   19.9820 O   0  0  0  0  0  0  0  0  0  0  0  0
  -24.4830  -31.7240   23.1020 C   0  0  0  0  0  0  0  0  0  0  0  0
  -27.1680  -27.2800   19.9530 C   0  0  0  0  0  0  0  0  0  0  0  0
  -23.2990  -30.3400   21.4360 C   0  0  0  0  0  3  0  0  0  0  0  0
  -24.7730  -28.8480   19.9800 C   0  0  0  0  0  0  0  0  0  0  0  0
  -25.8340  -30.7080   21.2570 C   0  0  0  0  0  2  0  0  0  0  0  0
  -25.9360  -29.3470   20.5790 C   0  0  0  0  0  0  0  0  0  0  0  0
  -27.1370  -28.5770   20.5530 C   0  0  0  0  0  3  0  0  0  0  0  0
  -25.9750  -26.8330   19.3350 C   0  0  0  0  0  3  0  0  0  0  0  0
  -24.7950  -27.5960   19.3480 C   0  0  0  0  0  3  0  0  0  0  0  0
  -23.5230  -29.6990   20.0430 C   0  0  0  0  0  2  0  0  0  0  0  0
  -24.5570  -30.9400   21.9890 N   0  0  0  0  0  0  0  0  0  0  0  0
  -23.3950  -31.9740   23.6430 O   0  0  0  0  0  0  0  0  0  0  0  0
  -22.6560  -29.2920   22.3760 C   0  0  0  0  0  0  0  0  0  0  0  0
  -21.3330  -29.0970   22.2480 N   0  0  0  0  0  0  0  0  0  0  0  0
  -23.3470  -28.6570   23.1770 O   0  0  0  0  0  0  0  0  0  0  0  0
  -20.8370  -29.6620   21.5730 H   0  0  0  0  0  0  0  0  0  0  0  0
  -17.9700  -27.8650   22.7460 C   0  0  0  0  0  0  0  0  0  0  0  0
  -20.5280  -28.1340   23.0000 C   0  0  0  0  0  3  0  0  0  0  0  0
  -20.6350  -26.7200   22.3850 C   0  0  0  0  0  2  0  0  0  0  0  0
  -19.5250  -26.4170   21.3730 C   0  0  0  0  0  2  0  0  0  0  0  0
  -18.1480  -26.5350   22.0340 C   0  0  0  0  0  2  0  0  0  0  0  0
  -19.0870  -28.6230   23.1860 C   0  0  0  0  0  0  0  0  0  0  0  0
  -18.8640  -29.8680   23.8130 C   0  0  0  0  0  3  0  0  0  0  0  0
  -17.5580  -30.3560   24.0040 C   0  0  0  0  0  3  0  0  0  0  0  0
  -16.4550  -29.5940   23.5810 C   0  0  0  0  0  3  0  0  0  0  0  0
  -16.6610  -28.3510   22.9580 C   0  0  0  0  0  3  0  0  0  0  0  0
  -25.7540  -32.3660   23.7360 C   0  0  0  0  0  3  0  0  0  0  0  0
  -26.2790  -31.5830   25.0010 C   0  0  1  0  0  0  0  0  0  0  0  0
  -25.1870  -31.3140   26.0620 C   0  0  0  0  0  1  0  0  0  0  0  0
  -26.8820  -30.2190   24.5900 C   0  0  0  0  0  1  0  0  0  0  0  0
  -27.4160  -32.3830   25.6780 C   0  0  0  0  0  1  0  0  0  0  0  0
  -25.4250  -33.7540   24.0870 N   0  0  0  0  0  0  0  0  0  0  0  0
  -25.7330  -34.8230   23.3410 C   0  0  0  0  0  0  0  0  0  0  0  0
  -26.3980  -34.7450   22.3030 O   0  0  0  0  0  0  0  0  0  0  0  0
  -24.8340  -33.8870   24.8970 H   0  0  0  0  0  0  0  0  0  0  0  0
  -23.9690  -36.5890   23.0290 C   0  0  0  0  0  1  0  0  0  0  0  0
  -25.2260  -36.1970   23.8230 C   0  0  0  0  0  3  0  0  0  0  0  0
  -27.3530  -37.1090   24.6470 C   0  0  0  0  0  1  0  0  0  0  0  0
  -26.2390  -37.2690   23.7140 N   0  0  0  0  0  0  0  0  0  0  0  0
  -25.8190  -38.1800   23.8770 H   0  0  0  0  0  0  0  0  0  0  0  0
  1  2  1  0
  2  8  1  0
  4  7  1  0
  5  3  1  0
  6  4  2  0
  6  8  1  0
  7 18  1  0
  7  3  2  0
  8  5  2  0
  9 18  1  0
 10 15  1  0
 11 12  1  0
 11 10  1  0
 13 12  1  0
 13 22  1  0
 13 14  1  0
 15  9  1  0
 15 14  1  0
 16  9  2  0
 18 17  1  0
 19 20  2  0
 20 39  1  0
 21 20  1  0
 21 24  1  0
 22 23  1  0
 22 19  1  0
 23 21  2  0
 24 25  1  0
 25 26  2  0
 27 30  1  0
 27 26  1  0
 28 27  2  0
 29 28  1  0
 29 24  2  0
 30 31  1  0
 31 32  1  0
 32 33  2  0
 34 33  1  0
 34 38  1  0
 35 34  2  0
 36 31  2  0
 36 35  1  0
 37 36  1  0
 39 40  1  0
 40 43  1  0
 40 42  1  0
 41 39  2  0
 44 19  1  0
 44 45  1  0
 46 44  1  0
 47  2  1  0
 47 48  1  0
 49 50  1  0
 49 48  2  0
 51 62  2  0
 52 50  1  0
 52 57  1  0
 53 61  1  0
 53 63  1  0
 54 60  1  0
 54 56  1  0
 55 61  1  0
 56 55  1  0
 57 56  2  0
 58 59  1  0
 58 52  2  0
 59 54  2  0
 60 53  1  0
 61 51  1  0
 63 65  2  0
 64 63  1  0
 66 64  1  0
 67 76  2  0
 67 72  1  0
 68 64  1  0
 68 72  1  0
 69 68  1  0
 70 71  1  0
 70 69  1  0
 71 67  1  0
 72 73  2  0
 73 74  1  0
 75 74  2  0
 76 75  1  0
 77 51  1  0
 77 82  1  0
 77 78  1  0
 78 81  1  1
 78 79  1  0
 80 78  1  0
 82 85  1  0
 83 87  1  0
 83 82  1  0
 84 83  2  0
 87 86  1  0
 89 87  1  0
 89 90  1  0
 89 88  1  0
M  ISO  4   9 100  18 100  49 101  50 101
M  END
>  <TORSDO>  (80) 
F 20

>  <SCORE>  (80) 
-12.667

>  <name>  (80) 
80

>  <ligand_id>  (80) 
80

>  <original_smiles>  (80) 
[H]c1c([H])c([H])c2c(c1[H])C([H])([H])C([H])([H])C([H])([H])C2([H])N([H])C(=O)C1([H])N(C(=O)C([H])(N([H])C(=O)C([H])(N([H])C([H])([H])[H])C([H])([H])[H])C(C([H])([H])[H])(C([H])([H])[H])C([H])([H])[H])C([H])([H])c2c([H])c(OC([H])([H])C([H])([H])C([H])([H])N(c3c([H])c([H])c(N(C(=O)N4C([H])([H])C([H])([H])C([H])([H])C([H])(n5nc(-c6c([H])c([H])c(Oc7c([H])c([H])c(F)c([H])c7F)c([H])c6[H])c(C(=O)N([H])[H])c5N([H])[H])C4([H])[H])C([H])([H])[H])c([H])c3[H])C([H])([H])[H])c([H])c([H])c2C1([H])[H]

>  <smiles>  (80) 
[H]c1c([H])c([H])c2c(c1[H])C([H])([H])C([H])([H])C([H])([H])C2([H])N([H])C(=O)C1([H])N(C(=O)C([H])(N([H])C(=O)C([H])(N([H])C([H])([H])[H])C([H])([H])[H])C(C([H])([H])[H])(C([H])([H])[H])C([H])([H])[H])C([H])([H])c2c([H])c(OC([H])([H])C([H])([H])C([H])([H])N(c3c([H])c([H])c(N(C(=O)N4C([H])([H])C([H])([H])C([H])([H])C([H])(n5nc(-c6c([H])c([H])c(Oc7c([H])c([H])c(F)c([H])c7F)c([H])c6[H])c(C(=O)N([H])[H])c5N([H])[H])C4([H])[H])C([H])([H])[H])c([H])c3[H])C([H])([H])[H])c([H])c([H])c2C1([H])[H]

$$$$
81:0:0
     RDKit          3D

 94103  0  0  1  0  0  0  0  0999 V2000
  -31.3760  -23.8290   20.7860 C   0  0  0  0  0  2  0  0  0  0  0  0
  -30.8350  -24.4760   19.5160 C   0  0  0  0  0  2  0  0  0  0  0  0
  -30.8050  -22.4150   20.7180 C   0  0  0  0  0  2  0  0  0  0  0  0
  -29.4020  -23.9220   19.4110 C   0  0  0  0  0  3  0  0  0  0  0  0
  -29.5070  -22.5000   19.9970 N   0  0  1  0  0  4  0  0  0  0  0  0
  -28.7800  -22.3980   20.6910 H   0  0  0  0  0  0  0  0  0  0  0  0
  -29.3300  -21.3290   19.0370 C   0  0  0  0  0  2  0  0  0  0  0  0
  -30.3850  -18.9630   18.5580 C   0  0  0  0  0  3  0  0  0  0  0  0
  -30.6210  -17.5840   18.8620 C   0  0  0  0  0  3  0  0  0  0  0  0
  -29.3260  -19.2670   20.6790 C   0  0  0  0  0  3  0  0  0  0  0  0
  -29.7230  -19.8510   19.4530 C   0  0  0  0  0  0  0  0  0  0  0  0
  -30.2340  -16.9880   20.0990 C   0  0  0  0  0  0  0  0  0  0  0  0
  -29.5700  -17.8970   20.9950 C   0  0  0  0  0  0  0  0  0  0  0  0
  -29.1090  -17.4750   22.1950 F   0  0  0  0  0  0  0  0  0  0  0  0
  -30.9390  -14.5510   19.6320 C   0  0  0  0  0  0  0  0  0  0  0  0
  -30.4750  -12.3640   18.5110 C   0  0  0  0  0  2  0  0  0  0  0  0
  -29.3990  -12.5340   17.4160 C   0  0  0  0  0  2  0  0  0  0  0  0
  -27.9830  -12.4170   18.0120 C   0  0  0  0  0  2  0  0  0  0  0  0
  -27.8080  -13.2690   19.2950 C   0  0  0  0  0  3  0  0  0  0  0  0
  -28.9760  -13.0430   20.2720 C   0  0  0  0  0  2  0  0  0  0  0  0
  -30.2260  -13.3720   19.5650 N   0  0  0  0  0  0  0  0  0  0  0  0
  -31.9660  -14.6950   18.9610 O   0  0  0  0  0  0  0  0  0  0  0  0
  -30.6740  -15.2530   21.8890 C   0  0  0  0  0  1  0  0  0  0  0  0
  -30.4900  -15.5610   20.4590 N   0  0  0  0  0  0  0  0  0  0  0  0
  -25.5870  -13.9470   20.3910 C   0  0  0  0  0  0  0  0  0  0  0  0
  -24.5230  -13.2100   20.8390 C   0  0  0  0  0  0  0  0  0  0  0  0
  -24.8750  -11.8420   20.6310 C   0  0  0  0  0  0  0  0  0  0  0  0
  -26.5180  -13.0280   19.9360 N   0  0  0  0  0  0  0  0  0  0  0  0
  -26.1040  -11.7510   20.1410 N   0  0  0  0  0  0  0  0  0  0  0  0
  -24.0880  -10.6150   20.8130 C   0  0  0  0  0  0  0  0  0  0  0  0
  -24.5240   -9.5750   21.6660 C   0  0  0  0  0  3  0  0  0  0  0  0
  -23.7380   -8.4150   21.8380 C   0  0  0  0  0  3  0  0  0  0  0  0
  -22.5040   -8.2860   21.1570 C   0  0  0  0  0  0  0  0  0  0  0  0
  -22.0860   -9.3140   20.2930 C   0  0  0  0  0  3  0  0  0  0  0  0
  -22.8710  -10.4650   20.1180 C   0  0  0  0  0  3  0  0  0  0  0  0
  -21.6860   -7.1840   21.2440 O   0  0  0  0  0  0  0  0  0  0  0  0
  -21.6170   -6.4280   22.3880 C   0  0  0  0  0  0  0  0  0  0  0  0
  -21.2600   -6.9910   23.6320 C   0  0  0  0  0  3  0  0  0  0  0  0
  -21.1320   -6.1660   24.7680 C   0  0  0  0  0  3  0  0  0  0  0  0
  -21.3500   -4.7800   24.6600 C   0  0  0  0  0  0  0  0  0  0  0  0
  -21.6990   -4.2170   23.4200 C   0  0  0  0  0  3  0  0  0  0  0  0
  -21.8290   -5.0390   22.2870 C   0  0  0  0  0  0  0  0  0  0  0  0
  -22.1460   -4.4870   21.0900 F   0  0  0  0  0  0  0  0  0  0  0  0
  -21.2180   -3.9860   25.7480 F   0  0  0  0  0  0  0  0  0  0  0  0
  -23.2130  -13.7460   21.3410 C   0  0  0  0  0  0  0  0  0  0  0  0
  -22.5700  -13.0310   22.2590 N   0  0  0  0  0  0  0  0  0  0  0  0
  -22.7750  -14.8280   20.9540 O   0  0  0  0  0  0  0  0  0  0  0  0
  -22.9400  -12.1520   22.5890 H   0  0  0  0  0  0  0  0  0  0  0  0
  -21.6950  -13.3680   22.6330 H   0  0  0  0  0  0  0  0  0  0  0  0
  -25.8310  -15.3140   20.3110 N   0  0  0  0  0  0  0  0  0  0  0  0
  -25.1480  -16.0080   20.5950 H   0  0  0  0  0  0  0  0  0  0  0  0
  -26.6730  -15.7230   19.9230 H   0  0  0  0  0  0  0  0  0  0  0  0
  -28.3630  -24.9370   20.0980 C   0  0  0  0  0  2  0  0  0  0  0  0
  -28.4650  -26.3900   19.7850 O   0  0  0  0  0  0  0  0  0  0  0  0
  -24.6050  -31.5960   23.0100 C   0  0  0  0  0  0  0  0  0  0  0  0
  -27.3110  -27.1890   19.8190 C   0  0  0  0  0  0  0  0  0  0  0  0
  -23.4270  -30.2220   21.3290 C   0  0  0  0  0  3  0  0  0  0  0  0
  -24.9070  -28.7390   19.8620 C   0  0  0  0  0  0  0  0  0  0  0  0
  -25.9560  -30.6040   21.1470 C   0  0  0  0  0  2  0  0  0  0  0  0
  -26.0670  -29.2430   20.4650 C   0  0  0  0  0  0  0  0  0  0  0  0
  -27.2730  -28.4820   20.4300 C   0  0  0  0  0  3  0  0  0  0  0  0
  -26.1280  -26.7340   19.1980 C   0  0  0  0  0  3  0  0  0  0  0  0
  -24.9390  -27.4910   19.2210 C   0  0  0  0  0  3  0  0  0  0  0  0
  -23.6530  -29.5860   19.9320 C   0  0  0  0  0  2  0  0  0  0  0  0
  -24.6820  -30.8230   21.8870 N   0  0  0  0  0  0  0  0  0  0  0  0
  -23.5170  -31.8340   23.5540 O   0  0  0  0  0  0  0  0  0  0  0  0
  -22.7850  -29.1660   22.2600 C   0  0  0  0  0  0  0  0  0  0  0  0
  -21.4570  -28.9920   22.1510 N   0  0  0  0  0  0  0  0  0  0  0  0
  -23.4800  -28.5090   23.0390 O   0  0  0  0  0  0  0  0  0  0  0  0
  -20.9530  -29.5740   21.4950 H   0  0  0  0  0  0  0  0  0  0  0  0
  -18.0880  -27.7900   22.6940 C   0  0  0  0  0  0  0  0  0  0  0  0
  -20.6550  -28.0220   22.8980 C   0  0  0  0  0  3  0  0  0  0  0  0
  -20.7300  -26.6210   22.2490 C   0  0  0  0  0  2  0  0  0  0  0  0
  -19.5960  -26.3570   21.2530 C   0  0  0  0  0  2  0  0  0  0  0  0
  -18.2340  -26.4760   21.9440 C   0  0  0  0  0  2  0  0  0  0  0  0
  -19.2250  -28.5240   23.1270 C   0  0  0  0  0  0  0  0  0  0  0  0
  -19.0330  -29.7540   23.7920 C   0  0  0  0  0  3  0  0  0  0  0  0
  -17.7380  -30.2530   24.0230 C   0  0  0  0  0  3  0  0  0  0  0  0
  -16.6160  -29.5180   23.6040 C   0  0  0  0  0  3  0  0  0  0  0  0
  -16.7930  -28.2870   22.9460 C   0  0  0  0  0  3  0  0  0  0  0  0
  -25.8750  -32.2340   23.6520 C   0  0  0  0  0  3  0  0  0  0  0  0
  -26.4140  -31.4320   24.8990 C   0  0  1  0  0  0  0  0  0  0  0  0
  -25.3310  -31.1330   25.9600 C   0  0  0  0  0  1  0  0  0  0  0  0
  -27.0250  -30.0810   24.4590 C   0  0  0  0  0  1  0  0  0  0  0  0
  -27.5480  -32.2290   25.5870 C   0  0  0  0  0  1  0  0  0  0  0  0
  -25.5350  -33.6130   24.0300 N   0  0  0  0  0  0  0  0  0  0  0  0
  -25.8510  -34.7010   23.3150 C   0  0  0  0  0  0  0  0  0  0  0  0
  -26.5290  -34.6510   22.2840 O   0  0  0  0  0  0  0  0  0  0  0  0
  -24.9310  -33.7250   24.8310 H   0  0  0  0  0  0  0  0  0  0  0  0
  -24.0880  -36.4730   23.0190 C   0  0  0  0  0  1  0  0  0  0  0  0
  -25.3320  -36.0610   23.8220 C   0  0  0  0  0  3  0  0  0  0  0  0
  -27.4470  -36.9510   24.7000 C   0  0  0  0  0  1  0  0  0  0  0  0
  -26.3430  -37.1400   23.7620 N   0  0  0  0  0  0  0  0  0  0  0  0
  -25.9160  -38.0410   23.9580 H   0  0  0  0  0  0  0  0  0  0  0  0
  2  1  1  0
  3  1  1  0
  4  2  1  0
  4  5  1  0
  4 53  1  0
  5  6  1  1
  5  3  1  0
  7 11  1  0
  7  5  1  0
  8  9  2  0
  8 11  1  0
  9 12  1  0
 10 13  1  0
 11 10  2  0
 12 24  1  0
 12 13  2  0
 13 14  1  0
 15 24  1  0
 16 21  1  0
 17 18  1  0
 17 16  1  0
 19 18  1  0
 19 28  1  0
 19 20  1  0
 21 15  1  0
 21 20  1  0
 22 15  2  0
 24 23  1  0
 25 26  2  0
 26 45  1  0
 27 30  1  0
 27 26  1  0
 28 29  1  0
 28 25  1  0
 29 27  2  0
 30 31  1  0
 31 32  2  0
 33 36  1  0
 33 32  1  0
 34 33  2  0
 35 34  1  0
 35 30  2  0
 36 37  1  0
 37 38  1  0
 38 39  2  0
 40 39  1  0
 40 44  1  0
 41 40  2  0
 42 37  2  0
 42 41  1  0
 43 42  1  0
 45 46  1  0
 46 48  1  0
 46 49  1  0
 47 45  2  0
 50 25  1  0
 50 51  1  0
 52 50  1  0
 54 56  1  0
 54 53  1  0
 55 66  2  0
 56 61  1  0
 57 65  1  0
 57 67  1  0
 58 64  1  0
 58 60  1  0
 59 65  1  0
 60 59  1  0
 61 60  2  0
 62 63  1  0
 62 56  2  0
 63 58  2  0
 64 57  1  0
 65 55  1  0
 67 69  2  0
 68 67  1  0
 70 68  1  0
 71 80  2  0
 71 76  1  0
 72 68  1  0
 72 76  1  0
 73 72  1  0
 74 75  1  0
 74 73  1  0
 75 71  1  0
 76 77  2  0
 77 78  1  0
 79 78  2  0
 80 79  1  0
 81 55  1  0
 81 86  1  0
 81 82  1  0
 82 85  1  1
 82 83  1  0
 84 82  1  0
 86 89  1  0
 87 91  1  0
 87 86  1  0
 88 87  2  0
 91 90  1  0
 93 91  1  0
 93 94  1  0
 93 92  1  0
M  ISO  4  15 100  24 100  53 101  54 101
M  END
>  <TORSDO>  (81) 
F 19

>  <SCORE>  (81) 
-12.310

>  <name>  (81) 
81

>  <ligand_id>  (81) 
81

>  <original_smiles>  (81) 
[H]c1c([H])c([H])c2c(c1[H])C([H])([H])C([H])([H])C([H])([H])C2([H])N([H])C(=O)C1([H])N(C(=O)C([H])(N([H])C(=O)C([H])(N([H])C([H])([H])[H])C([H])([H])[H])C(C([H])([H])[H])(C([H])([H])[H])C([H])([H])[H])C([H])([H])c2c([H])c(OC([H])([H])C3([H])C([H])([H])C([H])([H])C([H])([H])[N+]3([H])C([H])([H])c3c([H])c([H])c(N(C(=O)N4C([H])([H])C([H])([H])C([H])([H])C([H])(n5nc(-c6c([H])c([H])c(Oc7c([H])c([H])c(F)c([H])c7F)c([H])c6[H])c(C(=O)N([H])[H])c5N([H])[H])C4([H])[H])C([H])([H])[H])c(F)c3[H])c([H])c([H])c2C1([H])[H]

>  <smiles>  (81) 
[H]c1c([H])c([H])c2c(c1[H])C([H])([H])C([H])([H])C([H])([H])C2([H])N([H])C(=O)C1([H])N(C(=O)C([H])(N([H])C(=O)C([H])(N([H])C([H])([H])[H])C([H])([H])[H])C(C([H])([H])[H])(C([H])([H])[H])C([H])([H])[H])C([H])([H])c2c([H])c(OC([H])([H])C3([H])C([H])([H])C([H])([H])C([H])([H])[N+]3([H])C([H])([H])c3c([H])c([H])c(N(C(=O)N4C([H])([H])C([H])([H])C([H])([H])C([H])(n5nc(-c6c([H])c([H])c(Oc7c([H])c([H])c(F)c([H])c7F)c([H])c6[H])c(C(=O)N([H])[H])c5N([H])[H])C4([H])[H])C([H])([H])[H])c(F)c3[H])c([H])c([H])c2C1([H])[H]

$$$$
82:0:0
     RDKit          3D

 93101  0  0  1  0  0  0  0  0999 V2000
  -29.6590  -17.6870   18.9080 C   0  0  0  0  0  3  0  0  0  0  0  0
  -28.9490  -18.1070   21.1570 C   0  0  0  0  0  3  0  0  0  0  0  0
  -29.1960  -18.9930   18.5450 C   0  0  0  0  0  3  0  0  0  0  0  0
  -28.5200  -19.4270   20.7990 C   0  0  0  0  0  3  0  0  0  0  0  0
  -29.5730  -17.2040   20.2400 C   0  0  0  0  0  0  0  0  0  0  0  0
  -28.6340  -19.9210   19.4760 C   0  0  0  0  0  0  0  0  0  0  0  0
  -30.6120  -14.8580   19.9730 C   0  0  0  0  0  0  0  0  0  0  0  0
  -30.2610  -12.5780   19.0250 C   0  0  0  0  0  2  0  0  0  0  0  0
  -29.2760  -12.6400   17.8420 C   0  0  0  0  0  2  0  0  0  0  0  0
  -27.8380  -12.4580   18.3520 C   0  0  0  0  0  2  0  0  0  0  0  0
  -27.5160  -13.3740   19.5600 C   0  0  0  0  0  3  0  0  0  0  0  0
  -28.6320  -13.3640   20.6310 C   0  0  0  0  0  2  0  0  0  0  0  0
  -29.9050  -13.6720   19.9680 N   0  0  0  0  0  0  0  0  0  0  0  0
  -31.6750  -14.9090   19.3500 O   0  0  0  0  0  0  0  0  0  0  0  0
  -30.2280  -15.9640   20.7260 N   0  0  0  0  0  0  0  0  0  0  0  0
  -25.1930  -13.9500   20.4880 C   0  0  0  0  0  0  0  0  0  0  0  0
  -24.1370  -13.1720   20.8780 C   0  0  0  0  0  0  0  0  0  0  0  0
  -24.5720  -11.8170   20.7390 C   0  0  0  0  0  0  0  0  0  0  0  0
  -26.2020  -13.0720   20.1280 N   0  0  0  0  0  0  0  0  0  0  0  0
  -25.8380  -11.7770   20.3390 N   0  0  0  0  0  0  0  0  0  0  0  0
  -23.8340  -10.5600   20.9220 C   0  0  0  0  0  0  0  0  0  0  0  0
  -24.2930   -9.5590   21.8040 C   0  0  0  0  0  3  0  0  0  0  0  0
  -23.5560   -8.3630   21.9700 C   0  0  0  0  0  3  0  0  0  0  0  0
  -22.3490   -8.1690   21.2530 C   0  0  0  0  0  0  0  0  0  0  0  0
  -21.9110   -9.1630   20.3630 C   0  0  0  0  0  3  0  0  0  0  0  0
  -22.6470  -10.3480   20.1940 C   0  0  0  0  0  3  0  0  0  0  0  0
  -21.5810   -7.0310   21.3330 O   0  0  0  0  0  0  0  0  0  0  0  0
  -21.5320   -6.2710   22.4750 C   0  0  0  0  0  0  0  0  0  0  0  0
  -21.1100   -6.8080   23.7120 C   0  0  0  0  0  3  0  0  0  0  0  0
  -21.0150   -5.9770   24.8480 C   0  0  0  0  0  3  0  0  0  0  0  0
  -21.3300   -4.6090   24.7440 C   0  0  0  0  0  0  0  0  0  0  0  0
  -21.7380   -4.0690   23.5120 C   0  0  0  0  0  3  0  0  0  0  0  0
  -21.8380   -4.8980   22.3810 C   0  0  0  0  0  0  0  0  0  0  0  0
  -22.2140   -4.3640   21.1930 F   0  0  0  0  0  0  0  0  0  0  0  0
  -21.2330   -3.8120   25.8320 F   0  0  0  0  0  0  0  0  0  0  0  0
  -22.7710  -13.6570   21.2720 C   0  0  0  0  0  0  0  0  0  0  0  0
  -22.0910  -12.9300   22.1590 N   0  0  0  0  0  0  0  0  0  0  0  0
  -22.3140  -14.7110   20.8360 O   0  0  0  0  0  0  0  0  0  0  0  0
  -22.4580  -12.0680   22.5280 H   0  0  0  0  0  0  0  0  0  0  0  0
  -21.1840  -13.2410   22.4710 H   0  0  0  0  0  0  0  0  0  0  0  0
  -25.3820  -15.3260   20.3920 N   0  0  0  0  0  0  0  0  0  0  0  0
  -24.6850  -16.0040   20.6790 H   0  0  0  0  0  0  0  0  0  0  0  0
  -26.2760  -15.7450   20.1780 H   0  0  0  0  0  0  0  0  0  0  0  0
  -31.1430  -16.2100   21.8780 C   0  0  0  0  0  2  0  0  0  0  0  0
  -31.6950  -17.6670   22.0340 C   0  0  0  0  0  2  0  0  0  0  0  0
  -32.8020  -19.7360   20.9160 C   0  0  0  0  0  1  0  0  0  0  0  0
  -32.2590  -18.3030   20.7470 C   0  0  0  0  0  2  0  0  0  0  0  0
  -27.0320  -21.0730   18.1230 C   0  0  0  0  0  1  0  0  0  0  0  0
  -28.1590  -21.2190   19.0470 N   0  0  0  0  0  0  0  0  0  0  0  0
  -28.1660  -22.4540   19.9060 C   0  0  0  0  0  2  0  0  0  0  0  0
  -27.8970  -23.8750   19.1920 C   0  0  0  0  0  3  0  0  0  0  0  0
  -27.8480  -25.2030   20.0930 C   0  0  0  0  0  3  0  0  0  0  0  0
  -27.9250  -26.5690   19.5100 O   0  0  0  0  0  0  0  0  0  0  0  0
  -24.5130  -31.8400   23.1330 C   0  0  0  0  0  0  0  0  0  0  0  0
  -26.8270  -27.4250   19.6500 C   0  0  0  0  0  0  0  0  0  0  0  0
  -23.1770  -30.5530   21.5040 C   0  0  0  0  0  3  0  0  0  0  0  0
  -24.4970  -29.0580   19.9010 C   0  0  0  0  0  0  0  0  0  0  0  0
  -25.7040  -30.8460   21.1570 C   0  0  0  0  0  2  0  0  0  0  0  0
  -25.7130  -29.5040   20.4350 C   0  0  0  0  0  0  0  0  0  0  0  0
  -26.8860  -28.7010   20.2930 C   0  0  0  0  0  3  0  0  0  0  0  0
  -25.5900  -27.0240   19.1070 C   0  0  0  0  0  3  0  0  0  0  0  0
  -24.4390  -27.8280   19.2280 C   0  0  0  0  0  3  0  0  0  0  0  0
  -23.2850  -29.9490   20.0780 C   0  0  0  0  0  2  0  0  0  0  0  0
  -24.4880  -31.0960   21.9890 N   0  0  0  0  0  0  0  0  0  0  0  0
  -23.4740  -32.1020   23.7560 O   0  0  0  0  0  0  0  0  0  0  0  0
  -22.5690  -29.4890   22.4530 C   0  0  0  0  0  0  0  0  0  0  0  0
  -21.2430  -29.2830   22.3620 N   0  0  0  0  0  0  0  0  0  0  0  0
  -23.2880  -28.8540   23.2300 O   0  0  0  0  0  0  0  0  0  0  0  0
  -20.7260  -29.8570   21.7100 H   0  0  0  0  0  0  0  0  0  0  0  0
  -17.9210  -27.9510   22.8830 C   0  0  0  0  0  0  0  0  0  0  0  0
  -20.4690  -28.3090   23.1290 C   0  0  0  0  0  3  0  0  0  0  0  0
  -20.6220  -26.8860   22.5410 C   0  0  0  0  0  2  0  0  0  0  0  0
  -19.5220  -26.5300   21.5360 C   0  0  0  0  0  2  0  0  0  0  0  0
  -18.1440  -26.6130   22.1980 C   0  0  0  0  0  2  0  0  0  0  0  0
  -19.0120  -28.7560   23.3040 C   0  0  0  0  0  0  0  0  0  0  0  0
  -18.7470  -30.0070   23.9070 C   0  0  0  0  0  3  0  0  0  0  0  0
  -17.4240  -30.4490   24.0960 C   0  0  0  0  0  3  0  0  0  0  0  0
  -16.3480  -29.6390   23.6890 C   0  0  0  0  0  3  0  0  0  0  0  0
  -16.5980  -28.3970   23.0840 C   0  0  0  0  0  3  0  0  0  0  0  0
  -25.8440  -32.4230   23.6990 C   0  0  0  0  0  3  0  0  0  0  0  0
  -25.5860  -33.8150   24.0990 N   0  0  0  0  0  0  0  0  0  0  0  0
  -25.9020  -34.8900   23.3650 C   0  0  0  0  0  0  0  0  0  0  0  0
  -26.5140  -34.8120   22.2950 O   0  0  0  0  0  0  0  0  0  0  0  0
  -25.0360  -33.9510   24.9360 H   0  0  0  0  0  0  0  0  0  0  0  0
  -24.2080  -36.7390   23.1690 C   0  0  0  0  0  1  0  0  0  0  0  0
  -25.4750  -36.2670   23.9030 C   0  0  0  0  0  3  0  0  0  0  0  0
  -27.6640  -37.0680   24.6730 C   0  0  0  0  0  1  0  0  0  0  0  0
  -26.5290  -37.2990   23.7850 N   0  0  0  0  0  0  0  0  0  0  0  0
  -26.1510  -38.2230   23.9850 H   0  0  0  0  0  0  0  0  0  0  0  0
  -26.4170  -31.5920   24.9110 C   0  0  1  0  0  0  0  0  0  0  0  0
  -25.3880  -31.3420   26.0370 C   0  0  0  0  0  1  0  0  0  0  0  0
  -26.9360  -30.2170   24.4320 C   0  0  0  0  0  1  0  0  0  0  0  0
  -27.6260  -32.3340   25.5260 C   0  0  0  0  0  1  0  0  0  0  0  0
  1  5  1  0
  3  1  2  0
  3  6  1  0
  4  2  1  0
  5 15  1  0
  5  2  2  0
  6  4  2  0
  7 15  1  0
  8 13  1  0
  9 10  1  0
  9  8  1  0
 11 10  1  0
 11 19  1  0
 11 12  1  0
 13  7  1  0
 13 12  1  0
 14  7  2  0
 15 44  1  0
 16 17  2  0
 17 36  1  0
 18 17  1  0
 18 21  1  0
 19 20  1  0
 19 16  1  0
 20 18  2  0
 21 22  1  0
 22 23  2  0
 24 27  1  0
 24 23  1  0
 25 24  2  0
 26 25  1  0
 26 21  2  0
 27 28  1  0
 28 29  1  0
 29 30  2  0
 31 30  1  0
 31 35  1  0
 32 31  2  0
 33 28  2  0
 33 32  1  0
 34 33  1  0
 36 37  1  0
 37 40  1  0
 37 39  1  0
 38 36  2  0
 41 16  1  0
 41 42  1  0
 43 41  1  0
 44 45  1  0
 47 46  1  0
 47 45  1  0
 48 49  1  0
 49  6  1  0
 49 50  1  0
 51 50  1  0
 51 52  2  0
 53 55  1  0
 53 52  1  0
 54 65  2  0
 55 60  1  0
 56 64  1  0
 56 66  1  0
 57 63  1  0
 57 59  1  0
 58 64  1  0
 59 58  1  0
 60 59  2  0
 61 62  1  0
 61 55  2  0
 62 57  2  0
 63 56  1  0
 64 54  1  0
 66 68  2  0
 67 66  1  0
 69 67  1  0
 70 79  2  0
 70 75  1  0
 71 67  1  0
 71 75  1  0
 72 71  1  0
 73 74  1  0
 73 72  1  0
 74 70  1  0
 75 76  2  0
 76 77  1  0
 78 77  2  0
 79 78  1  0
 80 54  1  0
 80 81  1  0
 80 90  1  0
 81 84  1  0
 82 86  1  0
 82 81  1  0
 83 82  2  0
 86 85  1  0
 88 86  1  0
 88 89  1  0
 88 87  1  0
 90 93  1  1
 90 91  1  0
 92 90  1  0
M  ISO  4   7 100  15 100  52 101  53 101
M  END
>  <TORSDO>  (82) 
F 23

>  <SCORE>  (82) 
-12.023

>  <name>  (82) 
82

>  <ligand_id>  (82) 
82

>  <original_smiles>  (82) 
[H]c1c([H])c([H])c2c(c1[H])C([H])([H])C([H])([H])C([H])([H])C2([H])N([H])C(=O)C1([H])N(C(=O)C([H])(N([H])C(=O)C([H])(N([H])C([H])([H])[H])C([H])([H])[H])C(C([H])([H])[H])(C([H])([H])[H])C([H])([H])[H])C([H])([H])c2c([H])c(OC([H])([H])C([H])([H])C([H])([H])N(c3c([H])c([H])c(N(C(=O)N4C([H])([H])C([H])([H])C([H])([H])C([H])(n5nc(-c6c([H])c([H])c(Oc7c([H])c([H])c(F)c([H])c7F)c([H])c6[H])c(C(=O)N([H])[H])c5N([H])[H])C4([H])[H])C([H])([H])C([H])([H])C([H])([H])C([H])([H])[H])c([H])c3[H])C([H])([H])[H])c([H])c([H])c2C1([H])[H]

>  <smiles>  (82) 
[H]c1c([H])c([H])c2c(c1[H])C([H])([H])C([H])([H])C([H])([H])C2([H])N([H])C(=O)C1([H])N(C(=O)C([H])(N([H])C(=O)C([H])(N([H])C([H])([H])[H])C([H])([H])[H])C(C([H])([H])[H])(C([H])([H])[H])C([H])([H])[H])C([H])([H])c2c([H])c(OC([H])([H])C([H])([H])C([H])([H])N(c3c([H])c([H])c(N(C(=O)N4C([H])([H])C([H])([H])C([H])([H])C([H])(n5nc(-c6c([H])c([H])c(Oc7c([H])c([H])c(F)c([H])c7F)c([H])c6[H])c(C(=O)N([H])[H])c5N([H])[H])C4([H])[H])C([H])([H])C([H])([H])C([H])([H])C([H])([H])[H])c([H])c3[H])C([H])([H])[H])c([H])c([H])c2C1([H])[H]

$$$$
83:0:0
     RDKit          3D

 94102  0  0  1  0  0  0  0  0999 V2000
  -28.9410  -19.3100   21.2780 C   0  0  0  0  0  3  0  0  0  0  0  0
  -28.9710  -17.8860   21.2720 C   0  0  0  0  0  3  0  0  0  0  0  0
  -30.7650  -17.9230   19.6800 C   0  0  0  0  0  3  0  0  0  0  0  0
  -29.8140  -20.0960   20.4820 C   0  0  0  0  0  0  0  0  0  0  0  0
  -29.9030  -17.1460   20.4980 C   0  0  0  0  0  0  0  0  0  0  0  0
  -30.7210  -19.3590   19.6510 C   0  0  0  0  0  0  0  0  0  0  0  0
  -30.6480  -14.6850   20.0490 C   0  0  0  0  0  0  0  0  0  0  0  0
  -30.3810  -12.4840   18.9210 C   0  0  0  0  0  2  0  0  0  0  0  0
  -29.3660  -12.6780   17.7720 C   0  0  0  0  0  2  0  0  0  0  0  0
  -27.9160  -12.5110   18.2800 C   0  0  0  0  0  2  0  0  0  0  0  0
  -27.6470  -13.3180   19.5800 C   0  0  0  0  0  3  0  0  0  0  0  0
  -28.7700  -13.0870   20.6150 C   0  0  0  0  0  2  0  0  0  0  0  0
  -30.0460  -13.4560   19.9790 N   0  0  0  0  0  0  0  0  0  0  0  0
  -31.7680  -14.8850   19.5660 O   0  0  0  0  0  0  0  0  0  0  0  0
  -29.8690  -15.6850   20.5700 N   0  0  0  0  0  0  0  0  0  0  0  0
  -29.0480  -15.3120   21.0200 H   0  0  0  0  0  0  0  0  0  0  0  0
  -25.3040  -13.9110   20.4550 C   0  0  0  0  0  0  0  0  0  0  0  0
  -24.2540  -13.1340   20.8630 C   0  0  0  0  0  0  0  0  0  0  0  0
  -24.7020  -11.7810   20.7600 C   0  0  0  0  0  0  0  0  0  0  0  0
  -26.3250  -13.0310   20.1330 N   0  0  0  0  0  0  0  0  0  0  0  0
  -25.9710  -11.7430   20.3740 N   0  0  0  0  0  0  0  0  0  0  0  0
  -23.9800  -10.5170   20.9540 C   0  0  0  0  0  0  0  0  0  0  0  0
  -24.4420   -9.5360   21.8560 C   0  0  0  0  0  3  0  0  0  0  0  0
  -23.7210   -8.3360   22.0420 C   0  0  0  0  0  3  0  0  0  0  0  0
  -22.5220   -8.1110   21.3260 C   0  0  0  0  0  0  0  0  0  0  0  0
  -22.0750   -9.0840   20.4160 C   0  0  0  0  0  3  0  0  0  0  0  0
  -22.7950  -10.2740   20.2270 C   0  0  0  0  0  3  0  0  0  0  0  0
  -21.7680   -6.9670   21.4220 O   0  0  0  0  0  0  0  0  0  0  0  0
  -21.7370   -6.2220   22.5730 C   0  0  0  0  0  0  0  0  0  0  0  0
  -21.3070   -6.7660   23.8020 C   0  0  0  0  0  3  0  0  0  0  0  0
  -21.2230   -5.9450   24.9440 C   0  0  0  0  0  3  0  0  0  0  0  0
  -21.5580   -4.5800   24.8570 C   0  0  0  0  0  0  0  0  0  0  0  0
  -21.9790   -4.0350   23.6310 C   0  0  0  0  0  3  0  0  0  0  0  0
  -22.0640   -4.8530   22.4920 C   0  0  0  0  0  0  0  0  0  0  0  0
  -22.4510   -4.3170   21.3100 F   0  0  0  0  0  0  0  0  0  0  0  0
  -21.4690   -3.7900   25.9530 F   0  0  0  0  0  0  0  0  0  0  0  0
  -22.8800  -13.6100   21.2330 C   0  0  0  0  0  0  0  0  0  0  0  0
  -22.2030  -12.8920   22.1220 N   0  0  0  0  0  0  0  0  0  0  0  0
  -22.4190  -14.6530   20.7720 O   0  0  0  0  0  0  0  0  0  0  0  0
  -22.5910  -12.0480   22.5160 H   0  0  0  0  0  0  0  0  0  0  0  0
  -21.2830  -13.1910   22.4140 H   0  0  0  0  0  0  0  0  0  0  0  0
  -25.4680  -15.2850   20.3110 N   0  0  0  0  0  0  0  0  0  0  0  0
  -24.7110  -15.9380   20.4840 H   0  0  0  0  0  0  0  0  0  0  0  0
  -26.2860  -15.7310   19.9160 H   0  0  0  0  0  0  0  0  0  0  0  0
  -31.6620  -19.5920   17.4350 C   0  0  0  0  0  1  0  0  0  0  0  0
  -32.9220  -20.2680   19.4520 C   0  0  0  0  0  1  0  0  0  0  0  0
  -31.6220  -20.0510   18.8230 N   0  0  0  0  0  0  0  0  0  0  0  0
  -29.8560  -21.6750   20.6560 C   0  0  0  0  0  2  0  0  0  0  0  0
  -28.2090  -22.3340   18.8980 C   0  0  0  0  0  1  0  0  0  0  0  0
  -28.6540  -22.5330   20.2960 N   0  0  2  0  0  4  0  0  0  0  0  0
  -27.9160  -22.1150   20.8460 H   0  0  0  0  0  0  0  0  0  0  0  0
  -28.6580  -23.9930   20.7790 C   0  0  0  0  0  3  0  0  0  0  0  0
  -28.6130  -25.2020   19.7300 C   0  0  0  0  0  3  0  0  0  0  0  0
  -28.5030  -26.5940   20.2310 O   0  0  0  0  0  0  0  0  0  0  0  0
  -24.6600  -31.8980   23.2150 C   0  0  0  0  0  0  0  0  0  0  0  0
  -27.3370  -27.3750   20.1600 C   0  0  0  0  0  0  0  0  0  0  0  0
  -23.4750  -30.4960   21.5600 C   0  0  0  0  0  3  0  0  0  0  0  0
  -24.9480  -28.9600   20.1410 C   0  0  0  0  0  0  0  0  0  0  0  0
  -26.0110  -30.8390   21.3920 C   0  0  0  0  0  2  0  0  0  0  0  0
  -26.1070  -29.4620   20.7430 C   0  0  0  0  0  0  0  0  0  0  0  0
  -27.3000  -28.6810   20.7390 C   0  0  0  0  0  3  0  0  0  0  0  0
  -26.1450  -26.9170   19.5450 C   0  0  0  0  0  3  0  0  0  0  0  0
  -24.9700  -27.6950   19.5360 C   0  0  0  0  0  3  0  0  0  0  0  0
  -23.7040  -29.8230   20.1820 C   0  0  0  0  0  2  0  0  0  0  0  0
  -24.7320  -31.0960   22.1130 N   0  0  0  0  0  0  0  0  0  0  0  0
  -23.5730  -32.1650   23.7470 O   0  0  0  0  0  0  0  0  0  0  0  0
  -22.8150  -29.4710   22.5150 C   0  0  0  0  0  0  0  0  0  0  0  0
  -21.4900  -29.2910   22.3850 N   0  0  0  0  0  0  0  0  0  0  0  0
  -23.4950  -28.8440   23.3300 O   0  0  0  0  0  0  0  0  0  0  0  0
  -21.0020  -29.8510   21.7000 H   0  0  0  0  0  0  0  0  0  0  0  0
  -18.1130  -28.0890   22.8650 C   0  0  0  0  0  0  0  0  0  0  0  0
  -20.6700  -28.3480   23.1460 C   0  0  0  0  0  3  0  0  0  0  0  0
  -20.7750  -26.9200   22.5610 C   0  0  0  0  0  2  0  0  0  0  0  0
  -19.6760  -26.6030   21.5410 C   0  0  0  0  0  2  0  0  0  0  0  0
  -18.2930  -26.7430   22.1820 C   0  0  0  0  0  2  0  0  0  0  0  0
  -19.2290  -28.8480   23.3040 C   0  0  0  0  0  0  0  0  0  0  0  0
  -19.0080  -30.1080   23.9040 C   0  0  0  0  0  3  0  0  0  0  0  0
  -17.7030  -30.6070   24.0690 C   0  0  0  0  0  3  0  0  0  0  0  0
  -16.6000  -29.8430   23.6490 C   0  0  0  0  0  3  0  0  0  0  0  0
  -16.8060  -28.5860   23.0530 C   0  0  0  0  0  3  0  0  0  0  0  0
  -25.9360  -32.5350   23.8480 C   0  0  0  0  0  3  0  0  0  0  0  0
  -25.6220  -33.9350   24.1670 N   0  0  0  0  0  0  0  0  0  0  0  0
  -25.9620  -34.9850   23.4070 C   0  0  0  0  0  0  0  0  0  0  0  0
  -26.6400  -34.8770   22.3810 O   0  0  0  0  0  0  0  0  0  0  0  0
  -25.0180  -34.0910   24.9600 H   0  0  0  0  0  0  0  0  0  0  0  0
  -24.2350  -36.7750   23.0290 C   0  0  0  0  0  1  0  0  0  0  0  0
  -25.4680  -36.3740   23.8540 C   0  0  0  0  0  3  0  0  0  0  0  0
  -27.5900  -37.2670   24.7060 C   0  0  0  0  0  1  0  0  0  0  0  0
  -26.5000  -37.4290   23.7480 N   0  0  0  0  0  0  0  0  0  0  0  0
  -26.0900  -38.3480   23.8900 H   0  0  0  0  0  0  0  0  0  0  0  0
  -26.4400  -31.7730   25.1350 C   0  0  1  0  0  0  0  0  0  0  0  0
  -25.3360  -31.5370   26.1930 C   0  0  0  0  0  1  0  0  0  0  0  0
  -27.0310  -30.3950   24.7570 C   0  0  0  0  0  1  0  0  0  0  0  0
  -27.5800  -32.5740   25.8080 C   0  0  0  0  0  1  0  0  0  0  0  0
  2  1  1  0
  3  5  1  0
  4 48  1  0
  4  1  2  0
  5 15  1  0
  5  2  2  0
  6  3  2  0
  6  4  1  0
  7 15  1  0
  8 13  1  0
  9 10  1  0
  9  8  1  0
 11 10  1  0
 11 20  1  0
 11 12  1  0
 13  7  1  0
 13 12  1  0
 14  7  2  0
 15 16  1  0
 17 18  2  0
 18 37  1  0
 19 18  1  0
 19 22  1  0
 20 21  1  0
 20 17  1  0
 21 19  2  0
 22 23  1  0
 23 24  2  0
 25 28  1  0
 25 24  1  0
 26 25  2  0
 27 26  1  0
 27 22  2  0
 28 29  1  0
 29 30  1  0
 30 31  2  0
 32 31  1  0
 32 36  1  0
 33 32  2  0
 34 29  2  0
 34 33  1  0
 35 34  1  0
 37 38  1  0
 38 41  1  0
 38 40  1  0
 39 37  2  0
 42 17  1  0
 42 43  1  0
 44 42  1  0
 45 47  1  0
 47 46  1  0
 47  6  1  0
 49 50  1  0
 50 48  1  0
 50 52  1  0
 50 51  1  1
 53 54  1  0
 53 52  2  0
 55 66  2  0
 56 54  1  0
 56 61  1  0
 57 65  1  0
 57 67  1  0
 58 64  1  0
 58 60  1  0
 59 65  1  0
 60 59  1  0
 61 60  2  0
 62 56  2  0
 63 62  1  0
 63 58  2  0
 64 57  1  0
 65 55  1  0
 67 69  2  0
 68 67  1  0
 70 68  1  0
 71 80  2  0
 71 76  1  0
 72 68  1  0
 72 76  1  0
 73 72  1  0
 74 75  1  0
 74 73  1  0
 75 71  1  0
 76 77  2  0
 77 78  1  0
 79 78  2  0
 80 79  1  0
 81 55  1  0
 81 82  1  0
 81 91  1  0
 82 85  1  0
 83 87  1  0
 83 82  1  0
 84 83  2  0
 87 86  1  0
 89 87  1  0
 89 90  1  0
 89 88  1  0
 91 94  1  1
 91 92  1  0
 93 91  1  0
M  ISO  4   7 100  15 100  53 101  54 101
M  END
>  <TORSDO>  (83) 
F 21

>  <SCORE>  (83) 
-12.622

>  <name>  (83) 
83

>  <ligand_id>  (83) 
83

>  <original_smiles>  (83) 
[H]c1c([H])c([H])c2c(c1[H])C([H])([H])C([H])([H])C([H])([H])C2([H])N([H])C(=O)C1([H])N(C(=O)C([H])(N([H])C(=O)C([H])(N([H])C([H])([H])[H])C([H])([H])[H])C(C([H])([H])[H])(C([H])([H])[H])C([H])([H])[H])C([H])([H])c2c([H])c(OC([H])([H])C([H])([H])[N+]([H])(C([H])([H])[H])C([H])([H])c3c([H])c([H])c(N([H])C(=O)N4C([H])([H])C([H])([H])C([H])([H])C([H])(n5nc(-c6c([H])c([H])c(Oc7c([H])c([H])c(F)c([H])c7F)c([H])c6[H])c(C(=O)N([H])[H])c5N([H])[H])C4([H])[H])c([H])c3N(C([H])([H])[H])C([H])([H])[H])c([H])c([H])c2C1([H])[H]

>  <smiles>  (83) 
[H]c1c([H])c([H])c2c(c1[H])C([H])([H])C([H])([H])C([H])([H])C2([H])N([H])C(=O)C1([H])N(C(=O)C([H])(N([H])C(=O)C([H])(N([H])C([H])([H])[H])C([H])([H])[H])C(C([H])([H])[H])(C([H])([H])[H])C([H])([H])[H])C([H])([H])c2c([H])c(OC([H])([H])C([H])([H])[N+]([H])(C([H])([H])[H])C([H])([H])c3c([H])c([H])c(N([H])C(=O)N4C([H])([H])C([H])([H])C([H])([H])C([H])(n5nc(-c6c([H])c([H])c(Oc7c([H])c([H])c(F)c([H])c7F)c([H])c6[H])c(C(=O)N([H])[H])c5N([H])[H])C4([H])[H])c([H])c3N(C([H])([H])[H])C([H])([H])[H])c([H])c([H])c2C1([H])[H]

$$$$
84:0:0
     RDKit          3D

 91 99  0  0  1  0  0  0  0  0999 V2000
  -28.1370  -22.3490   22.5800 C   0  0  0  0  0  1  0  0  0  0  0  0
  -29.0540  -22.2430   21.4440 N   0  0  0  0  0  0  0  0  0  0  0  0
  -30.6790  -18.9020   21.9470 C   0  0  0  0  0  3  0  0  0  0  0  0
  -29.8280  -18.9990   19.6790 C   0  0  0  0  0  3  0  0  0  0  0  0
  -30.1830  -20.2010   22.1870 C   0  0  0  0  0  3  0  0  0  0  0  0
  -29.3550  -20.3090   19.9130 C   0  0  0  0  0  3  0  0  0  0  0  0
  -30.4990  -18.2780   20.6950 C   0  0  0  0  0  0  0  0  0  0  0  0
  -29.5190  -20.9340   21.1740 C   0  0  0  0  0  0  0  0  0  0  0  0
  -31.1680  -16.9330   20.3840 C   0  0  0  0  0  2  0  0  0  0  0  0
  -30.8420  -14.5460   19.9580 C   0  0  0  0  0  0  0  0  0  0  0  0
  -30.3640  -12.3860   18.8480 C   0  0  0  0  0  2  0  0  0  0  0  0
  -29.3640  -12.5690   17.6880 C   0  0  0  0  0  2  0  0  0  0  0  0
  -27.9250  -12.3920   18.2000 C   0  0  0  0  0  2  0  0  0  0  0  0
  -27.6530  -13.2570   19.4570 C   0  0  0  0  0  3  0  0  0  0  0  0
  -28.7720  -13.0880   20.5060 C   0  0  0  0  0  2  0  0  0  0  0  0
  -30.0690  -13.4120   19.8750 N   0  0  0  0  0  0  0  0  0  0  0  0
  -31.8670  -14.6330   19.2680 O   0  0  0  0  0  0  0  0  0  0  0  0
  -29.8750  -15.5920   22.0130 C   0  0  0  0  0  1  0  0  0  0  0  0
  -30.4420  -15.6540   20.6600 N   0  0  0  0  0  0  0  0  0  0  0  0
  -25.3240  -13.8590   20.3650 C   0  0  0  0  0  0  0  0  0  0  0  0
  -24.2840  -13.0830   20.7990 C   0  0  0  0  0  0  0  0  0  0  0  0
  -24.7340  -11.7310   20.7070 C   0  0  0  0  0  0  0  0  0  0  0  0
  -26.3400  -12.9770   20.0310 N   0  0  0  0  0  0  0  0  0  0  0  0
  -25.9950  -11.6910   20.2940 N   0  0  0  0  0  0  0  0  0  0  0  0
  -24.0200  -10.4680   20.9300 C   0  0  0  0  0  0  0  0  0  0  0  0
  -24.4760   -9.5190   21.8700 C   0  0  0  0  0  3  0  0  0  0  0  0
  -23.7610   -8.3220   22.0820 C   0  0  0  0  0  3  0  0  0  0  0  0
  -22.5760   -8.0650   21.3530 C   0  0  0  0  0  0  0  0  0  0  0  0
  -22.1380   -9.0050   20.4030 C   0  0  0  0  0  3  0  0  0  0  0  0
  -22.8530  -10.1940   20.1910 C   0  0  0  0  0  3  0  0  0  0  0  0
  -21.8320   -6.9150   21.4700 O   0  0  0  0  0  0  0  0  0  0  0  0
  -21.7440   -6.2320   22.6560 C   0  0  0  0  0  0  0  0  0  0  0  0
  -21.2720   -6.8450   23.8380 C   0  0  0  0  0  3  0  0  0  0  0  0
  -21.1330   -6.0870   25.0160 C   0  0  0  0  0  3  0  0  0  0  0  0
  -21.4570   -4.7180   25.0170 C   0  0  0  0  0  0  0  0  0  0  0  0
  -21.9230   -4.1040   23.8400 C   0  0  0  0  0  3  0  0  0  0  0  0
  -22.0640   -4.8600   22.6640 C   0  0  0  0  0  0  0  0  0  0  0  0
  -22.4940   -4.2590   21.5270 F   0  0  0  0  0  0  0  0  0  0  0  0
  -21.3160   -3.9870   26.1470 F   0  0  0  0  0  0  0  0  0  0  0  0
  -22.9170  -13.5640   21.1920 C   0  0  0  0  0  0  0  0  0  0  0  0
  -22.2650  -12.8700   22.1190 N   0  0  0  0  0  0  0  0  0  0  0  0
  -22.4370  -14.5890   20.7100 O   0  0  0  0  0  0  0  0  0  0  0  0
  -22.6650  -12.0410   22.5300 H   0  0  0  0  0  0  0  0  0  0  0  0
  -21.3520  -13.1760   22.4220 H   0  0  0  0  0  0  0  0  0  0  0  0
  -25.4800  -15.2320   20.2090 N   0  0  0  0  0  0  0  0  0  0  0  0
  -24.7280  -15.8830   20.4090 H   0  0  0  0  0  0  0  0  0  0  0  0
  -26.3240  -15.6890   19.8850 H   0  0  0  0  0  0  0  0  0  0  0  0
  -28.9170  -23.1870   20.3270 C   0  0  0  0  0  2  0  0  0  0  0  0
  -28.7330  -24.6650   20.7560 C   0  0  0  0  0  2  0  0  0  0  0  0
  -28.6730  -25.6020   19.5350 C   0  0  0  0  0  2  0  0  0  0  0  0
  -28.5220  -26.9680   19.9240 O   0  0  0  0  0  0  0  0  0  0  0  0
  -24.6430  -31.9220   23.1970 C   0  0  0  0  0  0  0  0  0  0  0  0
  -27.2880  -27.5890   19.9660 C   0  0  0  0  0  0  0  0  0  0  0  0
  -23.4100  -30.5260   21.5620 C   0  0  0  0  0  3  0  0  0  0  0  0
  -24.8530  -29.0380   20.0760 C   0  0  0  0  0  0  0  0  0  0  0  0
  -25.9230  -30.9390   21.3000 C   0  0  0  0  0  2  0  0  0  0  0  0
  -26.0160  -29.5800   20.6330 C   0  0  0  0  0  0  0  0  0  0  0  0
  -27.2310  -28.8660   20.5710 C   0  0  0  0  0  3  0  0  0  0  0  0
  -26.0990  -27.0480   19.4210 C   0  0  0  0  0  3  0  0  0  0  0  0
  -24.8890  -27.7710   19.4700 C   0  0  0  0  0  3  0  0  0  0  0  0
  -23.5950  -29.8710   20.1650 C   0  0  0  0  0  2  0  0  0  0  0  0
  -24.6770  -31.1470   22.0760 N   0  0  0  0  0  0  0  0  0  0  0  0
  -23.5730  -32.1610   23.7750 O   0  0  0  0  0  0  0  0  0  0  0  0
  -22.8050  -29.4770   22.5230 C   0  0  0  0  0  0  0  0  0  0  0  0
  -21.4880  -29.2440   22.4020 N   0  0  0  0  0  0  0  0  0  0  0  0
  -23.5150  -28.8730   23.3320 O   0  0  0  0  0  0  0  0  0  0  0  0
  -20.9740  -29.7750   21.7130 H   0  0  0  0  0  0  0  0  0  0  0  0
  -18.1710  -27.8950   22.8690 C   0  0  0  0  0  0  0  0  0  0  0  0
  -20.7090  -28.2750   23.1730 C   0  0  0  0  0  3  0  0  0  0  0  0
  -20.8890  -26.8480   22.6060 C   0  0  0  0  0  2  0  0  0  0  0  0
  -19.8190  -26.4650   21.5810 C   0  0  0  0  0  2  0  0  0  0  0  0
  -18.4240  -26.5500   22.2070 C   0  0  0  0  0  2  0  0  0  0  0  0
  -19.2450  -28.7120   23.3060 C   0  0  0  0  0  0  0  0  0  0  0  0
  -18.9600  -29.9710   23.8790 C   0  0  0  0  0  3  0  0  0  0  0  0
  -17.6310  -30.4110   24.0260 C   0  0  0  0  0  3  0  0  0  0  0  0
  -16.5700  -29.5920   23.6050 C   0  0  0  0  0  3  0  0  0  0  0  0
  -16.8400  -28.3350   23.0330 C   0  0  0  0  0  3  0  0  0  0  0  0
  -25.9380  -32.5580   23.7930 C   0  0  0  0  0  3  0  0  0  0  0  0
  -25.6320  -33.9540   24.1340 N   0  0  0  0  0  0  0  0  0  0  0  0
  -25.9370  -35.0090   23.3650 C   0  0  0  0  0  0  0  0  0  0  0  0
  -26.5810  -34.9120   22.3170 O   0  0  0  0  0  0  0  0  0  0  0  0
  -25.0620  -34.1050   24.9540 H   0  0  0  0  0  0  0  0  0  0  0  0
  -24.1780  -36.7740   23.0510 C   0  0  0  0  0  1  0  0  0  0  0  0
  -25.4440  -36.3910   23.8340 C   0  0  0  0  0  3  0  0  0  0  0  0
  -27.5860  -37.2930   24.6210 C   0  0  0  0  0  1  0  0  0  0  0  0
  -26.4630  -37.4550   23.7010 N   0  0  0  0  0  0  0  0  0  0  0  0
  -26.0510  -38.3700   23.8610 H   0  0  0  0  0  0  0  0  0  0  0  0
  -26.4920  -31.7840   25.0540 C   0  0  1  0  0  0  0  0  0  0  0  0
  -25.4220  -31.5090   26.1340 C   0  0  0  0  0  1  0  0  0  0  0  0
  -27.0960  -30.4250   24.6360 C   0  0  0  0  0  1  0  0  0  0  0  0
  -27.6370  -32.5920   25.7100 C   0  0  0  0  0  1  0  0  0  0  0  0
  2  1  1  0
  3  5  1  0
  4  6  2  0
  4  7  1  0
  6  8  1  0
  7  3  2  0
  8  2  1  0
  8  5  2  0
  9 19  1  0
  9  7  1  0
 10 19  1  0
 11 16  1  0
 12 13  1  0
 12 11  1  0
 14 13  1  0
 14 23  1  0
 14 15  1  0
 16 10  1  0
 16 15  1  0
 17 10  2  0
 19 18  1  0
 20 21  2  0
 21 40  1  0
 22 21  1  0
 22 25  1  0
 23 24  1  0
 23 20  1  0
 24 22  2  0
 25 26  1  0
 26 27  2  0
 28 31  1  0
 28 27  1  0
 29 28  2  0
 30 29  1  0
 30 25  2  0
 31 32  1  0
 32 37  2  0
 32 33  1  0
 33 34  2  0
 34 35  1  0
 35 39  1  0
 36 35  2  0
 37 36  1  0
 38 37  1  0
 40 41  1  0
 41 44  1  0
 41 43  1  0
 42 40  2  0
 45 20  1  0
 45 46  1  0
 47 45  1  0
 48 49  1  0
 48  2  1  0
 50 51  1  0
 50 49  1  0
 51 53  1  0
 52 63  2  0
 53 58  1  0
 54 62  1  0
 54 64  1  0
 55 61  1  0
 55 57  1  0
 56 62  1  0
 57 56  1  0
 58 57  2  0
 59 60  1  0
 59 53  2  0
 60 55  2  0
 61 54  1  0
 62 52  1  0
 64 66  2  0
 65 64  1  0
 67 65  1  0
 68 77  2  0
 68 73  1  0
 69 65  1  0
 69 73  1  0
 70 69  1  0
 71 72  1  0
 71 70  1  0
 72 68  1  0
 73 74  2  0
 74 75  1  0
 76 75  2  0
 77 76  1  0
 78 52  1  0
 78 79  1  0
 78 88  1  0
 79 82  1  0
 80 84  1  0
 80 79  1  0
 81 80  2  0
 84 83  1  0
 86 84  1  0
 86 87  1  0
 86 85  1  0
 88 91  1  1
 88 89  1  0
 90 88  1  0
M  ISO  4  10 100  19 100  50 101  51 101
M  END
>  <TORSDO>  (84) 
F 21

>  <SCORE>  (84) 
-11.894

>  <name>  (84) 
84

>  <ligand_id>  (84) 
84

>  <original_smiles>  (84) 
[H]c1c([H])c([H])c2c(c1[H])C([H])([H])C([H])([H])C([H])([H])C2([H])N([H])C(=O)C1([H])N(C(=O)C([H])(N([H])C(=O)C([H])(N([H])C([H])([H])[H])C([H])([H])[H])C(C([H])([H])[H])(C([H])([H])[H])C([H])([H])[H])C([H])([H])c2c([H])c(OC([H])([H])C([H])([H])C([H])([H])N(c3c([H])c([H])c(C([H])([H])N(C(=O)N4C([H])([H])C([H])([H])C([H])([H])C([H])(n5nc(-c6c([H])c([H])c(Oc7c([H])c([H])c(F)c([H])c7F)c([H])c6[H])c(C(=O)N([H])[H])c5N([H])[H])C4([H])[H])C([H])([H])[H])c([H])c3[H])C([H])([H])[H])c([H])c([H])c2C1([H])[H]

>  <smiles>  (84) 
[H]c1c([H])c([H])c2c(c1[H])C([H])([H])C([H])([H])C([H])([H])C2([H])N([H])C(=O)C1([H])N(C(=O)C([H])(N([H])C(=O)C([H])(N([H])C([H])([H])[H])C([H])([H])[H])C(C([H])([H])[H])(C([H])([H])[H])C([H])([H])[H])C([H])([H])c2c([H])c(OC([H])([H])C([H])([H])C([H])([H])N(c3c([H])c([H])c(C([H])([H])N(C(=O)N4C([H])([H])C([H])([H])C([H])([H])C([H])(n5nc(-c6c([H])c([H])c(Oc7c([H])c([H])c(F)c([H])c7F)c([H])c6[H])c(C(=O)N([H])[H])c5N([H])[H])C4([H])[H])C([H])([H])[H])c([H])c3[H])C([H])([H])[H])c([H])c([H])c2C1([H])[H]

$$$$
85:0:0
     RDKit          3D

 91 99  0  0  1  0  0  0  0  0999 V2000
  -28.7790  -22.8760   22.5590 C   0  0  0  0  0  1  0  0  0  0  0  0
  -29.0110  -22.7870   21.1130 N   0  0  0  0  0  0  0  0  0  0  0  0
  -30.8800  -19.7830   19.6550 C   0  0  0  0  0  3  0  0  0  0  0  0
  -28.9790  -18.9740   20.8700 C   0  0  0  0  0  3  0  0  0  0  0  0
  -30.5010  -21.1320   19.9170 C   0  0  0  0  0  3  0  0  0  0  0  0
  -28.6190  -20.3240   21.1610 C   0  0  0  0  0  3  0  0  0  0  0  0
  -30.1480  -18.6590   20.1300 C   0  0  0  0  0  0  0  0  0  0  0  0
  -29.3710  -21.4490   20.7100 C   0  0  0  0  0  0  0  0  0  0  0  0
  -30.6240  -17.2120   19.7080 C   0  0  0  0  0  2  0  0  0  0  0  0
  -31.0850  -14.7690   20.0670 C   0  0  0  0  0  0  0  0  0  0  0  0
  -30.6770  -12.6120   18.8910 C   0  0  0  0  0  2  0  0  0  0  0  0
  -29.6810  -12.8370   17.7330 C   0  0  0  0  0  2  0  0  0  0  0  0
  -28.2300  -12.7040   18.2340 C   0  0  0  0  0  2  0  0  0  0  0  0
  -27.9730  -13.5080   19.5360 C   0  0  0  0  0  3  0  0  0  0  0  0
  -29.0840  -13.2640   20.5790 C   0  0  0  0  0  2  0  0  0  0  0  0
  -30.3660  -13.6030   19.9460 N   0  0  0  0  0  0  0  0  0  0  0  0
  -32.2020  -14.8500   19.5450 O   0  0  0  0  0  0  0  0  0  0  0  0
  -30.1710  -16.0720   21.9240 C   0  0  0  0  0  1  0  0  0  0  0  0
  -30.4470  -15.9230   20.4910 N   0  0  0  0  0  0  0  0  0  0  0  0
  -25.6490  -14.1390   20.4280 C   0  0  0  0  0  0  0  0  0  0  0  0
  -24.5740  -13.3820   20.8060 C   0  0  0  0  0  0  0  0  0  0  0  0
  -24.9800  -12.0190   20.6640 C   0  0  0  0  0  0  0  0  0  0  0  0
  -26.6430  -13.2390   20.0790 N   0  0  0  0  0  0  0  0  0  0  0  0
  -26.2500  -11.9550   20.2790 N   0  0  0  0  0  0  0  0  0  0  0  0
  -24.2160  -10.7750   20.8160 C   0  0  0  0  0  0  0  0  0  0  0  0
  -24.6180   -9.7650   21.7180 C   0  0  0  0  0  3  0  0  0  0  0  0
  -23.8540   -8.5870   21.8610 C   0  0  0  0  0  3  0  0  0  0  0  0
  -22.6730   -8.4100   21.1020 C   0  0  0  0  0  0  0  0  0  0  0  0
  -22.2890   -9.4090   20.1890 C   0  0  0  0  0  3  0  0  0  0  0  0
  -23.0540  -10.5780   20.0450 C   0  0  0  0  0  3  0  0  0  0  0  0
  -21.8810   -7.2890   21.1560 O   0  0  0  0  0  0  0  0  0  0  0  0
  -21.7510   -6.5550   22.3070 C   0  0  0  0  0  0  0  0  0  0  0  0
  -21.2930   -7.1310   23.5120 C   0  0  0  0  0  3  0  0  0  0  0  0
  -21.1080   -6.3260   24.6530 C   0  0  0  0  0  3  0  0  0  0  0  0
  -21.3720   -4.9450   24.5920 C   0  0  0  0  0  0  0  0  0  0  0  0
  -21.8230   -4.3680   23.3910 C   0  0  0  0  0  3  0  0  0  0  0  0
  -22.0100   -5.1700   22.2520 C   0  0  0  0  0  0  0  0  0  0  0  0
  -22.4250   -4.6050   21.0920 F   0  0  0  0  0  0  0  0  0  0  0  0
  -21.1860   -4.1690   25.6860 F   0  0  0  0  0  0  0  0  0  0  0  0
  -23.2140  -13.8910   21.1870 C   0  0  0  0  0  0  0  0  0  0  0  0
  -22.5130  -13.1760   22.0600 N   0  0  0  0  0  0  0  0  0  0  0  0
  -22.7830  -14.9560   20.7460 O   0  0  0  0  0  0  0  0  0  0  0  0
  -22.8740  -12.3120   22.4360 H   0  0  0  0  0  0  0  0  0  0  0  0
  -21.6000  -13.4940   22.3510 H   0  0  0  0  0  0  0  0  0  0  0  0
  -25.8580  -15.5120   20.3310 N   0  0  0  0  0  0  0  0  0  0  0  0
  -25.1290  -16.1870   20.5410 H   0  0  0  0  0  0  0  0  0  0  0  0
  -26.7180  -15.9420   20.0140 H   0  0  0  0  0  0  0  0  0  0  0  0
  -30.7680  -24.5380   20.7150 C   0  0  0  0  0  1  0  0  0  0  0  0
  -29.3380  -24.0680   20.3950 C   0  0  0  0  0  3  0  0  0  0  0  0
  -28.3060  -25.2510   20.6930 C   0  0  0  0  0  2  0  0  0  0  0  0
  -28.5010  -26.5900   20.1050 O   0  0  0  0  0  0  0  0  0  0  0  0
  -24.6900  -31.8730   23.1850 C   0  0  0  0  0  0  0  0  0  0  0  0
  -27.3730  -27.4140   20.0860 C   0  0  0  0  0  0  0  0  0  0  0  0
  -23.5010  -30.4630   21.5420 C   0  0  0  0  0  3  0  0  0  0  0  0
  -24.9750  -28.9550   20.0940 C   0  0  0  0  0  0  0  0  0  0  0  0
  -26.0300  -30.8400   21.3410 C   0  0  0  0  0  2  0  0  0  0  0  0
  -26.1340  -29.4700   20.6880 C   0  0  0  0  0  0  0  0  0  0  0  0
  -27.3390  -28.7120   20.6730 C   0  0  0  0  0  3  0  0  0  0  0  0
  -26.1970  -26.9470   19.4600 C   0  0  0  0  0  3  0  0  0  0  0  0
  -25.0070  -27.6980   19.4680 C   0  0  0  0  0  3  0  0  0  0  0  0
  -23.7210  -29.8010   20.1550 C   0  0  0  0  0  2  0  0  0  0  0  0
  -24.7590  -31.0760   22.0800 N   0  0  0  0  0  0  0  0  0  0  0  0
  -23.6060  -32.1260   23.7290 O   0  0  0  0  0  0  0  0  0  0  0  0
  -22.8650  -29.4270   22.4990 C   0  0  0  0  0  0  0  0  0  0  0  0
  -21.5410  -29.2280   22.3800 N   0  0  0  0  0  0  0  0  0  0  0  0
  -23.5610  -28.8060   23.3070 O   0  0  0  0  0  0  0  0  0  0  0  0
  -21.0380  -29.7860   21.7050 H   0  0  0  0  0  0  0  0  0  0  0  0
  -18.1870  -27.9770   22.8940 C   0  0  0  0  0  0  0  0  0  0  0  0
  -20.7430  -28.2690   23.1460 C   0  0  0  0  0  3  0  0  0  0  0  0
  -20.8600  -26.8460   22.5530 C   0  0  0  0  0  2  0  0  0  0  0  0
  -19.7530  -26.5190   21.5450 C   0  0  0  0  0  2  0  0  0  0  0  0
  -18.3740  -26.6360   22.2030 C   0  0  0  0  0  2  0  0  0  0  0  0
  -19.2980  -28.7500   23.3200 C   0  0  0  0  0  0  0  0  0  0  0  0
  -19.0660  -30.0050   23.9260 C   0  0  0  0  0  3  0  0  0  0  0  0
  -17.7570  -30.4840   24.1100 C   0  0  0  0  0  3  0  0  0  0  0  0
  -16.6590  -29.7090   23.6980 C   0  0  0  0  0  3  0  0  0  0  0  0
  -16.8750  -28.4570   23.0950 C   0  0  0  0  0  3  0  0  0  0  0  0
  -25.9650  -32.5230   23.8060 C   0  0  0  0  0  3  0  0  0  0  0  0
  -26.5010  -31.7530   25.0750 C   0  0  1  0  0  0  0  0  0  0  0  0
  -25.4160  -31.4830   26.1440 C   0  0  0  0  0  1  0  0  0  0  0  0
  -27.1140  -30.3920   24.6680 C   0  0  0  0  0  1  0  0  0  0  0  0
  -27.6360  -32.5660   25.7400 C   0  0  0  0  0  1  0  0  0  0  0  0
  -25.6350  -33.9140   24.1430 N   0  0  0  0  0  0  0  0  0  0  0  0
  -25.9560  -34.9770   23.3950 C   0  0  0  0  0  0  0  0  0  0  0  0
  -26.6340  -34.8910   22.3670 O   0  0  0  0  0  0  0  0  0  0  0  0
  -25.0340  -34.0550   24.9430 H   0  0  0  0  0  0  0  0  0  0  0  0
  -24.2130  -36.7550   23.0380 C   0  0  0  0  0  1  0  0  0  0  0  0
  -25.4480  -36.3550   23.8600 C   0  0  0  0  0  3  0  0  0  0  0  0
  -27.5610  -37.2550   24.7290 C   0  0  0  0  0  1  0  0  0  0  0  0
  -26.4700  -37.4220   23.7730 N   0  0  0  0  0  0  0  0  0  0  0  0
  -26.0510  -38.3340   23.9270 H   0  0  0  0  0  0  0  0  0  0  0  0
  2  1  1  0
  3  5  2  0
  3  7  1  0
  4  6  1  0
  5  8  1  0
  7  4  2  0
  8  2  1  0
  8  6  2  0
  9  7  1  0
  9 19  1  0
 10 19  1  0
 11 16  1  0
 12 13  1  0
 12 11  1  0
 14 13  1  0
 14 23  1  0
 14 15  1  0
 16 10  1  0
 16 15  1  0
 17 10  2  0
 19 18  1  0
 20 21  2  0
 21 40  1  0
 22 21  1  0
 22 25  1  0
 23 24  1  0
 23 20  1  0
 24 22  2  0
 25 26  1  0
 26 27  2  0
 28 31  1  0
 28 27  1  0
 29 28  2  0
 30 29  1  0
 30 25  2  0
 31 32  1  0
 32 33  1  0
 33 34  2  0
 35 34  1  0
 35 39  1  0
 36 35  2  0
 37 32  2  0
 37 36  1  0
 38 37  1  0
 40 41  1  0
 41 44  1  0
 41 43  1  0
 42 40  2  0
 45 20  1  0
 45 46  1  0
 47 45  1  0
 49 50  1  0
 49 48  1  0
 49  2  1  0
 51 50  1  0
 52 63  2  0
 53 51  1  0
 53 58  1  0
 54 62  1  0
 54 64  1  0
 55 61  1  0
 55 57  1  0
 56 62  1  0
 57 56  1  0
 58 57  2  0
 59 60  1  0
 59 53  2  0
 60 55  2  0
 61 54  1  0
 62 52  1  0
 64 66  2  0
 65 64  1  0
 67 65  1  0
 68 77  2  0
 68 73  1  0
 69 65  1  0
 69 73  1  0
 70 69  1  0
 71 72  1  0
 71 70  1  0
 72 68  1  0
 73 74  2  0
 74 75  1  0
 76 75  2  0
 77 76  1  0
 78 52  1  0
 78 83  1  0
 78 79  1  0
 79 82  1  1
 79 80  1  0
 81 79  1  0
 83 86  1  0
 84 88  1  0
 84 83  1  0
 85 84  2  0
 88 87  1  0
 90 88  1  0
 90 91  1  0
 90 89  1  0
M  ISO  4  10 100  19 100  50 101  51 101
M  END
>  <TORSDO>  (85) 
F 20

>  <SCORE>  (85) 
-12.851

>  <name>  (85) 
85

>  <ligand_id>  (85) 
85

>  <original_smiles>  (85) 
[H]c1c([H])c([H])c2c(c1[H])C([H])([H])C([H])([H])C([H])([H])C2([H])N([H])C(=O)C1([H])N(C(=O)C([H])(N([H])C(=O)C([H])(N([H])C([H])([H])[H])C([H])([H])[H])C(C([H])([H])[H])(C([H])([H])[H])C([H])([H])[H])C([H])([H])c2c([H])c(OC([H])([H])C([H])(N(c3c([H])c([H])c(C([H])([H])N(C(=O)N4C([H])([H])C([H])([H])C([H])([H])C([H])(n5nc(-c6c([H])c([H])c(Oc7c([H])c([H])c(F)c([H])c7F)c([H])c6[H])c(C(=O)N([H])[H])c5N([H])[H])C4([H])[H])C([H])([H])[H])c([H])c3[H])C([H])([H])[H])C([H])([H])[H])c([H])c([H])c2C1([H])[H]

>  <smiles>  (85) 
[H]c1c([H])c([H])c2c(c1[H])C([H])([H])C([H])([H])C([H])([H])C2([H])N([H])C(=O)C1([H])N(C(=O)C([H])(N([H])C(=O)C([H])(N([H])C([H])([H])[H])C([H])([H])[H])C(C([H])([H])[H])(C([H])([H])[H])C([H])([H])[H])C([H])([H])c2c([H])c(OC([H])([H])C([H])(N(c3c([H])c([H])c(C([H])([H])N(C(=O)N4C([H])([H])C([H])([H])C([H])([H])C([H])(n5nc(-c6c([H])c([H])c(Oc7c([H])c([H])c(F)c([H])c7F)c([H])c6[H])c(C(=O)N([H])[H])c5N([H])[H])C4([H])[H])C([H])([H])[H])c([H])c3[H])C([H])([H])[H])C([H])([H])[H])c([H])c([H])c2C1([H])[H]

$$$$
86:0:0
     RDKit          3D

 90 99  0  0  1  0  0  0  0  0999 V2000
  -28.3010  -21.0790   19.5230 C   0  0  0  0  0  3  0  0  0  0  0  0
  -30.1940  -21.3460   20.9180 C   0  0  0  0  0  3  0  0  0  0  0  0
  -28.0410  -22.5020   19.5840 C   0  0  0  0  0  3  0  0  0  0  0  0
  -29.9290  -22.7710   20.9840 C   0  0  0  0  0  3  0  0  0  0  0  0
  -29.3660  -20.4110   20.2150 C   0  0  0  0  0  0  0  0  0  0  0  0
  -28.8140  -23.4260   20.3550 C   0  0  0  0  0  0  0  0  0  0  0  0
  -29.4650  -18.2580   21.7890 C   0  0  0  0  0  2  0  0  0  0  0  0
  -30.8790  -17.7010   21.5660 C   0  0  0  0  0  2  0  0  0  0  0  0
  -29.4370  -18.7780   20.3400 C   0  0  0  0  0  3  0  0  0  0  0  0
  -30.5610  -17.5860   20.0690 C   0  0  0  0  0  3  0  0  0  0  0  0
  -30.8940  -14.9230   19.8260 C   0  0  0  0  0  0  0  0  0  0  0  0
  -30.6880  -12.5620   18.9700 C   0  0  0  0  0  2  0  0  0  0  0  0
  -29.6990  -12.4850   17.7840 C   0  0  0  0  0  2  0  0  0  0  0  0
  -28.2440  -12.3450   18.2800 C   0  0  0  0  0  2  0  0  0  0  0  0
  -27.9020  -13.2950   19.4590 C   0  0  0  0  0  3  0  0  0  0  0  0
  -29.0130  -13.3350   20.5310 C   0  0  0  0  0  2  0  0  0  0  0  0
  -30.2590  -13.6890   19.8390 N   0  0  0  0  0  0  0  0  0  0  0  0
  -32.1160  -14.9470   19.6460 O   0  0  0  0  0  0  0  0  0  0  0  0
  -29.4440  -16.2490   18.4230 C   0  0  0  0  0  1  0  0  0  0  0  0
  -30.1390  -16.1220   19.7150 N   0  0  0  0  0  0  0  0  0  0  0  0
  -25.5750  -13.9300   20.3190 C   0  0  0  0  0  0  0  0  0  0  0  0
  -24.5110  -13.1780   20.7320 C   0  0  0  0  0  0  0  0  0  0  0  0
  -24.9430  -11.8180   20.6690 C   0  0  0  0  0  0  0  0  0  0  0  0
  -26.5860  -13.0290   20.0260 N   0  0  0  0  0  0  0  0  0  0  0  0
  -26.2170  -11.7530   20.3000 N   0  0  0  0  0  0  0  0  0  0  0  0
  -24.2000  -10.5700   20.8830 C   0  0  0  0  0  0  0  0  0  0  0  0
  -24.6250   -9.6120   21.8300 C   0  0  0  0  0  3  0  0  0  0  0  0
  -23.8830   -8.4280   22.0330 C   0  0  0  0  0  3  0  0  0  0  0  0
  -22.7030   -8.1950   21.2870 C   0  0  0  0  0  0  0  0  0  0  0  0
  -22.2980   -9.1420   20.3290 C   0  0  0  0  0  3  0  0  0  0  0  0
  -23.0400  -10.3170   20.1270 C   0  0  0  0  0  3  0  0  0  0  0  0
  -21.9330   -7.0620   21.3960 O   0  0  0  0  0  0  0  0  0  0  0  0
  -21.8450   -6.3650   22.5730 C   0  0  0  0  0  0  0  0  0  0  0  0
  -21.3590   -6.9610   23.7590 C   0  0  0  0  0  3  0  0  0  0  0  0
  -21.2180   -6.1890   24.9280 C   0  0  0  0  0  3  0  0  0  0  0  0
  -21.5520   -4.8210   24.9140 C   0  0  0  0  0  0  0  0  0  0  0  0
  -22.0290   -4.2250   23.7330 C   0  0  0  0  0  3  0  0  0  0  0  0
  -22.1710   -4.9930   22.5660 C   0  0  0  0  0  0  0  0  0  0  0  0
  -22.6110   -4.4100   21.4250 F   0  0  0  0  0  0  0  0  0  0  0  0
  -21.4080   -4.0750   26.0340 F   0  0  0  0  0  0  0  0  0  0  0  0
  -23.1390  -13.6850   21.0710 C   0  0  0  0  0  0  0  0  0  0  0  0
  -22.4390  -13.0040   21.9710 N   0  0  0  0  0  0  0  0  0  0  0  0
  -22.6980  -14.7180   20.5730 O   0  0  0  0  0  0  0  0  0  0  0  0
  -22.8050  -12.1670   22.4010 H   0  0  0  0  0  0  0  0  0  0  0  0
  -21.5200  -13.3300   22.2370 H   0  0  0  0  0  0  0  0  0  0  0  0
  -25.7610  -15.2990   20.1430 N   0  0  0  0  0  0  0  0  0  0  0  0
  -25.0230  -15.9760   20.3010 H   0  0  0  0  0  0  0  0  0  0  0  0
  -26.6210  -15.7200   19.8130 H   0  0  0  0  0  0  0  0  0  0  0  0
  -28.2700  -24.9040   20.8000 C   0  0  0  0  0  2  0  0  0  0  0  0
  -28.5410  -26.2740   20.1860 O   0  0  0  0  0  0  0  0  0  0  0  0
  -24.6940  -31.7790   23.1580 C   0  0  0  0  0  0  0  0  0  0  0  0
  -27.4600  -27.2060   20.1550 C   0  0  0  0  0  0  0  0  0  0  0  0
  -23.5610  -30.3660   21.4820 C   0  0  0  0  0  3  0  0  0  0  0  0
  -25.0780  -28.8400   20.0830 C   0  0  0  0  0  0  0  0  0  0  0  0
  -26.1050  -30.7120   21.3680 C   0  0  0  0  0  2  0  0  0  0  0  0
  -26.2290  -29.3300   20.7160 C   0  0  0  0  0  0  0  0  0  0  0  0
  -27.4270  -28.5290   20.7340 C   0  0  0  0  0  3  0  0  0  0  0  0
  -26.2870  -26.8000   19.4890 C   0  0  0  0  0  3  0  0  0  0  0  0
  -25.1160  -27.5870   19.4520 C   0  0  0  0  0  3  0  0  0  0  0  0
  -23.8250  -29.6970   20.1060 C   0  0  0  0  0  2  0  0  0  0  0  0
  -24.8040  -30.9730   22.0590 N   0  0  0  0  0  0  0  0  0  0  0  0
  -23.5910  -32.0350   23.6650 O   0  0  0  0  0  0  0  0  0  0  0  0
  -22.8850  -29.3390   22.4240 C   0  0  0  0  0  0  0  0  0  0  0  0
  -21.5600  -29.1570   22.2790 N   0  0  0  0  0  0  0  0  0  0  0  0
  -23.5530  -28.7080   23.2460 O   0  0  0  0  0  0  0  0  0  0  0  0
  -21.0780  -29.7210   21.5920 H   0  0  0  0  0  0  0  0  0  0  0  0
  -18.1830  -27.9210   22.7230 C   0  0  0  0  0  0  0  0  0  0  0  0
  -20.7370  -28.2020   23.0250 C   0  0  0  0  0  3  0  0  0  0  0  0
  -20.8580  -26.7790   22.4310 C   0  0  0  0  0  2  0  0  0  0  0  0
  -19.7700  -26.4610   21.4000 C   0  0  0  0  0  2  0  0  0  0  0  0
  -18.3800  -26.5850   22.0290 C   0  0  0  0  0  2  0  0  0  0  0  0
  -19.2900  -28.6890   23.1760 C   0  0  0  0  0  0  0  0  0  0  0  0
  -19.0510  -29.9400   23.7840 C   0  0  0  0  0  3  0  0  0  0  0  0
  -17.7390  -30.4240   23.9450 C   0  0  0  0  0  3  0  0  0  0  0  0
  -16.6480  -29.6540   23.5090 C   0  0  0  0  0  3  0  0  0  0  0  0
  -16.8710  -28.4040   22.9020 C   0  0  0  0  0  3  0  0  0  0  0  0
  -25.9450  -32.4360   23.8190 C   0  0  0  0  0  3  0  0  0  0  0  0
  -25.6000  -33.8260   24.1500 N   0  0  0  0  0  0  0  0  0  0  0  0
  -25.9300  -34.8930   23.4090 C   0  0  0  0  0  0  0  0  0  0  0  0
  -26.6240  -34.8090   22.3920 O   0  0  0  0  0  0  0  0  0  0  0  0
  -24.9910  -33.9650   24.9440 H   0  0  0  0  0  0  0  0  0  0  0  0
  -24.1740  -36.6550   23.0360 C   0  0  0  0  0  1  0  0  0  0  0  0
  -25.4090  -36.2690   23.8660 C   0  0  0  0  0  3  0  0  0  0  0  0
  -27.5080  -37.1930   24.7440 C   0  0  0  0  0  1  0  0  0  0  0  0
  -26.4220  -37.3410   23.7770 N   0  0  0  0  0  0  0  0  0  0  0  0
  -25.9950  -38.2540   23.9170 H   0  0  0  0  0  0  0  0  0  0  0  0
  -26.4410  -31.6680   25.1060 C   0  0  1  0  0  0  0  0  0  0  0  0
  -25.3230  -31.4040   26.1430 C   0  0  0  0  0  1  0  0  0  0  0  0
  -27.0650  -30.3050   24.7280 C   0  0  0  0  0  1  0  0  0  0  0  0
  -27.5550  -32.4840   25.8040 C   0  0  0  0  0  1  0  0  0  0  0  0
  1  3  2  0
  1  5  1  0
  2  4  1  0
  3  6  1  0
  5  2  2  0
  6 49  1  0
  6  4  2  0
  8  7  1  0
  9  5  1  0
  9  7  1  0
 10 20  1  0
 10  9  1  0
 10  8  1  0
 11 17  1  0
 12 17  1  0
 13 14  1  0
 13 12  1  0
 15 14  1  0
 15 24  1  0
 15 16  1  0
 17 16  1  0
 18 11  2  0
 19 20  1  0
 20 11  1  0
 21 22  2  0
 22 41  1  0
 23 22  1  0
 23 26  1  0
 24 25  1  0
 24 21  1  0
 25 23  2  0
 26 27  1  0
 27 28  2  0
 29 32  1  0
 29 28  1  0
 30 29  2  0
 31 30  1  0
 31 26  2  0
 32 33  1  0
 33 34  1  0
 34 35  2  0
 36 35  1  0
 36 40  1  0
 37 36  2  0
 38 33  2  0
 38 37  1  0
 39 38  1  0
 41 42  1  0
 42 45  1  0
 42 44  1  0
 43 41  2  0
 46 47  1  0
 46 21  1  0
 48 46  1  0
 50 49  1  0
 51 62  2  0
 52 50  1  0
 52 57  1  0
 53 61  1  0
 53 63  1  0
 54 60  1  0
 54 56  1  0
 55 61  1  0
 56 57  2  0
 56 55  1  0
 58 52  2  0
 59 58  1  0
 59 54  2  0
 60 53  1  0
 61 51  1  0
 63 65  2  0
 64 63  1  0
 66 64  1  0
 67 76  2  0
 67 72  1  0
 68 64  1  0
 68 72  1  0
 69 68  1  0
 70 71  1  0
 70 69  1  0
 71 67  1  0
 72 73  2  0
 73 74  1  0
 75 74  2  0
 76 75  1  0
 77 51  1  0
 77 78  1  0
 77 87  1  0
 78 81  1  0
 79 83  1  0
 79 78  1  0
 80 79  2  0
 83 82  1  0
 85 83  1  0
 85 86  1  0
 85 84  1  0
 87 90  1  1
 87 88  1  0
 89 87  1  0
M  ISO  4  11 100  20 100  49 101  50 101
M  END
>  <TORSDO>  (86) 
F 18

>  <SCORE>  (86) 
-13.291

>  <name>  (86) 
86

>  <ligand_id>  (86) 
86

>  <original_smiles>  (86) 
[H]c1c([H])c([H])c2c(c1[H])C([H])([H])C([H])([H])C([H])([H])C2([H])N([H])C(=O)C1([H])N(C(=O)C([H])(N([H])C(=O)C([H])(N([H])C([H])([H])[H])C([H])([H])[H])C(C([H])([H])[H])(C([H])([H])[H])C([H])([H])[H])C([H])([H])c2c([H])c(OC([H])([H])c3c([H])c([H])c(C4([H])C([H])([H])C([H])([H])C4([H])N(C(=O)N4C([H])([H])C([H])([H])C([H])([H])C([H])(n5nc(-c6c([H])c([H])c(Oc7c([H])c([H])c(F)c([H])c7F)c([H])c6[H])c(C(=O)N([H])[H])c5N([H])[H])C4([H])[H])C([H])([H])[H])c([H])c3[H])c([H])c([H])c2C1([H])[H]

>  <smiles>  (86) 
[H]c1c([H])c([H])c2c(c1[H])C([H])([H])C([H])([H])C([H])([H])C2([H])N([H])C(=O)C1([H])N(C(=O)C([H])(N([H])C(=O)C([H])(N([H])C([H])([H])[H])C([H])([H])[H])C(C([H])([H])[H])(C([H])([H])[H])C([H])([H])[H])C([H])([H])c2c([H])c(OC([H])([H])c3c([H])c([H])c(C4([H])C([H])([H])C([H])([H])C4([H])N(C(=O)N4C([H])([H])C([H])([H])C([H])([H])C([H])(n5nc(-c6c([H])c([H])c(Oc7c([H])c([H])c(F)c([H])c7F)c([H])c6[H])c(C(=O)N([H])[H])c5N([H])[H])C4([H])[H])C([H])([H])[H])c([H])c3[H])c([H])c([H])c2C1([H])[H]

$$$$
87:0:0
     RDKit          3D

 93101  0  0  1  0  0  0  0  0999 V2000
  -27.5700  -21.2480   22.0030 C   0  0  0  0  0  1  0  0  0  0  0  0
  -28.4700  -21.9970   21.0830 N   0  0  1  0  0  4  0  0  0  0  0  0
  -29.3540  -22.0510   21.5700 H   0  0  0  0  0  0  0  0  0  0  0  0
  -28.7930  -21.2600   19.8220 C   0  0  0  0  0  2  0  0  0  0  0  0
  -28.6700  -18.7490   19.3140 C   0  0  0  0  0  3  0  0  0  0  0  0
  -29.0720  -17.4100   19.5190 C   0  0  0  0  0  3  0  0  0  0  0  0
  -30.7550  -18.1570   21.1000 C   0  0  0  0  0  3  0  0  0  0  0  0
  -29.2950  -19.8120   20.0070 C   0  0  0  0  0  0  0  0  0  0  0  0
  -30.1000  -17.0930   20.4360 C   0  0  0  0  0  0  0  0  0  0  0  0
  -30.3720  -19.5020   20.8700 C   0  0  0  0  0  0  0  0  0  0  0  0
  -31.0020  -20.5040   21.5290 F   0  0  0  0  0  0  0  0  0  0  0  0
  -31.0060  -14.8000   20.0890 C   0  0  0  0  0  0  0  0  0  0  0  0
  -30.7430  -12.6020   18.9750 C   0  0  0  0  0  2  0  0  0  0  0  0
  -29.7520  -12.7580   17.8000 C   0  0  0  0  0  2  0  0  0  0  0  0
  -28.2940  -12.6040   18.2820 C   0  0  0  0  0  2  0  0  0  0  0  0
  -27.9890  -13.4710   19.5350 C   0  0  0  0  0  3  0  0  0  0  0  0
  -29.0790  -13.2620   20.6100 C   0  0  0  0  0  2  0  0  0  0  0  0
  -30.3840  -13.5890   20.0080 N   0  0  0  0  0  0  0  0  0  0  0  0
  -32.0730  -15.0450   19.5180 O   0  0  0  0  0  0  0  0  0  0  0  0
  -30.3380  -15.7310   20.8030 N   0  0  0  0  0  0  0  0  0  0  0  0
  -29.5920  -15.3160   21.3410 H   0  0  0  0  0  0  0  0  0  0  0  0
  -25.6320  -14.1040   20.3650 C   0  0  0  0  0  0  0  0  0  0  0  0
  -24.5690  -13.3370   20.7610 C   0  0  0  0  0  0  0  0  0  0  0  0
  -25.0070  -11.9810   20.6730 C   0  0  0  0  0  0  0  0  0  0  0  0
  -26.6520  -13.2120   20.0650 N   0  0  0  0  0  0  0  0  0  0  0  0
  -26.2800  -11.9280   20.3030 N   0  0  0  0  0  0  0  0  0  0  0  0
  -24.2700  -10.7250   20.8640 C   0  0  0  0  0  0  0  0  0  0  0  0
  -24.6300   -9.8030   21.8710 C   0  0  0  0  0  3  0  0  0  0  0  0
  -23.8960   -8.6110   22.0450 C   0  0  0  0  0  3  0  0  0  0  0  0
  -22.7880   -8.3310   21.2090 C   0  0  0  0  0  0  0  0  0  0  0  0
  -22.4500   -9.2410   20.1930 C   0  0  0  0  0  3  0  0  0  0  0  0
  -23.1840  -10.4260   20.0180 C   0  0  0  0  0  3  0  0  0  0  0  0
  -22.0330   -7.1870   21.2870 O   0  0  0  0  0  0  0  0  0  0  0  0
  -21.7730   -6.5760   22.4880 C   0  0  0  0  0  0  0  0  0  0  0  0
  -21.0730   -7.2330   23.5220 C   0  0  0  0  0  3  0  0  0  0  0  0
  -20.7680   -6.5440   24.7130 C   0  0  0  0  0  3  0  0  0  0  0  0
  -21.1530   -5.2000   24.8680 C   0  0  0  0  0  0  0  0  0  0  0  0
  -21.8470   -4.5420   23.8370 C   0  0  0  0  0  3  0  0  0  0  0  0
  -22.1550   -5.2290   22.6490 C   0  0  0  0  0  0  0  0  0  0  0  0
  -22.8040   -4.5840   21.6490 F   0  0  0  0  0  0  0  0  0  0  0  0
  -20.8530   -4.5340   26.0080 F   0  0  0  0  0  0  0  0  0  0  0  0
  -23.1930  -13.8290   21.1080 C   0  0  0  0  0  0  0  0  0  0  0  0
  -22.4940  -13.1190   21.9880 N   0  0  0  0  0  0  0  0  0  0  0  0
  -22.7490  -14.8750   20.6380 O   0  0  0  0  0  0  0  0  0  0  0  0
  -22.8670  -12.2750   22.3950 H   0  0  0  0  0  0  0  0  0  0  0  0
  -21.5690  -13.4270   22.2580 H   0  0  0  0  0  0  0  0  0  0  0  0
  -25.8020  -15.4760   20.2230 N   0  0  0  0  0  0  0  0  0  0  0  0
  -25.0330  -16.1140   20.3920 H   0  0  0  0  0  0  0  0  0  0  0  0
  -26.6380  -15.9470   19.9060 H   0  0  0  0  0  0  0  0  0  0  0  0
  -27.9540  -23.3960   20.9130 C   0  0  0  0  0  2  0  0  0  0  0  0
  -28.9210  -24.4580   20.3090 C   0  0  0  0  0  2  0  0  0  0  0  0
  -28.6090  -25.8860   20.8450 C   0  0  0  0  0  2  0  0  0  0  0  0
  -28.6490  -26.9600   19.8840 O   0  0  0  0  0  0  0  0  0  0  0  0
  -24.6090  -31.8480   23.1520 C   0  0  0  0  0  0  0  0  0  0  0  0
  -27.4830  -27.6920   19.8840 C   0  0  0  0  0  0  0  0  0  0  0  0
  -23.4710  -30.4520   21.4600 C   0  0  0  0  0  3  0  0  0  0  0  0
  -25.0050  -29.0490   19.9720 C   0  0  0  0  0  0  0  0  0  0  0  0
  -25.9700  -30.9610   21.2570 C   0  0  0  0  0  2  0  0  0  0  0  0
  -26.1360  -29.6200   20.5720 C   0  0  0  0  0  0  0  0  0  0  0  0
  -27.3810  -28.9460   20.5320 C   0  0  0  0  0  3  0  0  0  0  0  0
  -26.3390  -27.1370   19.2730 C   0  0  0  0  0  3  0  0  0  0  0  0
  -25.1020  -27.8060   19.3240 C   0  0  0  0  0  3  0  0  0  0  0  0
  -23.7070  -29.8220   20.0610 C   0  0  0  0  0  2  0  0  0  0  0  0
  -24.7030  -31.0990   22.0160 N   0  0  0  0  0  0  0  0  0  0  0  0
  -23.5170  -32.0380   23.7040 O   0  0  0  0  0  0  0  0  0  0  0  0
  -22.8850  -29.3630   22.3880 C   0  0  0  0  0  0  0  0  0  0  0  0
  -21.5730  -29.1170   22.2620 N   0  0  0  0  0  0  0  0  0  0  0  0
  -23.6080  -28.7430   23.1750 O   0  0  0  0  0  0  0  0  0  0  0  0
  -21.0450  -29.6930   21.6230 H   0  0  0  0  0  0  0  0  0  0  0  0
  -18.2750  -27.7190   22.7400 C   0  0  0  0  0  0  0  0  0  0  0  0
  -20.8200  -28.0910   22.9820 C   0  0  0  0  0  3  0  0  0  0  0  0
  -20.9920  -26.7030   22.3160 C   0  0  0  0  0  2  0  0  0  0  0  0
  -19.8790  -26.3680   21.3170 C   0  0  0  0  0  2  0  0  0  0  0  0
  -18.5030  -26.4150   21.9910 C   0  0  0  0  0  2  0  0  0  0  0  0
  -19.3620  -28.5130   23.1920 C   0  0  0  0  0  0  0  0  0  0  0  0
  -19.0980  -29.7330   23.8520 C   0  0  0  0  0  3  0  0  0  0  0  0
  -17.7740  -30.1640   24.0560 C   0  0  0  0  0  3  0  0  0  0  0  0
  -16.7010  -29.3680   23.6210 C   0  0  0  0  0  3  0  0  0  0  0  0
  -16.9520  -28.1450   22.9720 C   0  0  0  0  0  3  0  0  0  0  0  0
  -25.8550  -32.5260   23.7960 C   0  0  0  0  0  3  0  0  0  0  0  0
  -25.4820  -33.9050   24.1360 N   0  0  0  0  0  0  0  0  0  0  0  0
  -25.7880  -34.9820   23.3990 C   0  0  0  0  0  0  0  0  0  0  0  0
  -26.4850  -34.9180   22.3820 O   0  0  0  0  0  0  0  0  0  0  0  0
  -24.8610  -34.0230   24.9230 H   0  0  0  0  0  0  0  0  0  0  0  0
  -24.0090  -36.7160   23.0170 C   0  0  0  0  0  1  0  0  0  0  0  0
  -25.2360  -36.3450   23.8630 C   0  0  0  0  0  3  0  0  0  0  0  0
  -27.3030  -37.2990   24.7840 C   0  0  0  0  0  1  0  0  0  0  0  0
  -26.2340  -37.4360   23.7980 N   0  0  0  0  0  0  0  0  0  0  0  0
  -25.7910  -38.3410   23.9310 H   0  0  0  0  0  0  0  0  0  0  0  0
  -26.3870  -31.7650   25.0720 C   0  0  1  0  0  0  0  0  0  0  0  0
  -25.2890  -31.4630   26.1190 C   0  0  0  0  0  1  0  0  0  0  0  0
  -27.0390  -30.4260   24.6610 C   0  0  0  0  0  1  0  0  0  0  0  0
  -27.4930  -32.6020   25.7570 C   0  0  0  0  0  1  0  0  0  0  0  0
  2  3  1  1
  2  1  1  0
  4  8  1  0
  4  2  1  0
  5  6  2  0
  5  8  1  0
  6  9  1  0
  8 10  2  0
  9 20  1  0
  9  7  2  0
 10  7  1  0
 10 11  1  0
 12 20  1  0
 13 18  1  0
 14 15  1  0
 14 13  1  0
 16 15  1  0
 16 25  1  0
 16 17  1  0
 18 12  1  0
 18 17  1  0
 19 12  2  0
 20 21  1  0
 22 23  2  0
 23 42  1  0
 24 23  1  0
 24 27  1  0
 25 26  1  0
 25 22  1  0
 26 24  2  0
 27 28  1  0
 28 29  2  0
 30 33  1  0
 30 29  1  0
 31 30  2  0
 32 31  1  0
 32 27  2  0
 33 34  1  0
 34 39  2  0
 34 35  1  0
 35 36  2  0
 36 37  1  0
 37 41  1  0
 38 37  2  0
 39 38  1  0
 40 39  1  0
 42 43  1  0
 43 46  1  0
 43 45  1  0
 44 42  2  0
 47 22  1  0
 47 48  1  0
 49 47  1  0
 50  2  1  0
 51 52  1  0
 51 50  1  0
 53 55  1  0
 53 52  1  0
 54 65  2  0
 55 60  1  0
 56 64  1  0
 56 66  1  0
 57 63  1  0
 57 59  1  0
 58 64  1  0
 59 58  1  0
 60 59  2  0
 61 62  1  0
 61 55  2  0
 62 57  2  0
 63 56  1  0
 64 54  1  0
 66 68  2  0
 67 66  1  0
 69 67  1  0
 70 79  2  0
 70 75  1  0
 71 67  1  0
 71 75  1  0
 72 71  1  0
 73 74  1  0
 73 72  1  0
 74 70  1  0
 75 76  2  0
 76 77  1  0
 78 77  2  0
 79 78  1  0
 80 54  1  0
 80 81  1  0
 80 90  1  0
 81 84  1  0
 82 86  1  0
 82 81  1  0
 83 82  2  0
 86 85  1  0
 88 86  1  0
 88 89  1  0
 88 87  1  0
 90 93  1  1
 90 91  1  0
 92 90  1  0
M  ISO  4  12 100  20 100  52 101  53 101
M  END
>  <TORSDO>  (87) 
F 21

>  <SCORE>  (87) 
-11.510

>  <name>  (87) 
87

>  <ligand_id>  (87) 
87

>  <original_smiles>  (87) 
[H]c1c([H])c([H])c2c(c1[H])C([H])([H])C([H])([H])C([H])([H])C2([H])N([H])C(=O)C1([H])N(C(=O)C([H])(N([H])C(=O)C([H])(N([H])C([H])([H])[H])C([H])([H])[H])C(C([H])([H])[H])(C([H])([H])[H])C([H])([H])[H])C([H])([H])c2c([H])c(OC([H])([H])C([H])([H])C([H])([H])[N+]([H])(C([H])([H])[H])C([H])([H])c3c([H])c([H])c(N([H])C(=O)N4C([H])([H])C([H])([H])C([H])([H])C([H])(n5nc(-c6c([H])c([H])c(Oc7c([H])c([H])c(F)c([H])c7F)c([H])c6[H])c(C(=O)N([H])[H])c5N([H])[H])C4([H])[H])c([H])c3F)c([H])c([H])c2C1([H])[H]

>  <smiles>  (87) 
[H]c1c([H])c([H])c2c(c1[H])C([H])([H])C([H])([H])C([H])([H])C2([H])N([H])C(=O)C1([H])N(C(=O)C([H])(N([H])C(=O)C([H])(N([H])C([H])([H])[H])C([H])([H])[H])C(C([H])([H])[H])(C([H])([H])[H])C([H])([H])[H])C([H])([H])c2c([H])c(OC([H])([H])C([H])([H])C([H])([H])[N+]([H])(C([H])([H])[H])C([H])([H])c3c([H])c([H])c(N([H])C(=O)N4C([H])([H])C([H])([H])C([H])([H])C([H])(n5nc(-c6c([H])c([H])c(Oc7c([H])c([H])c(F)c([H])c7F)c([H])c6[H])c(C(=O)N([H])[H])c5N([H])[H])C4([H])[H])c([H])c3F)c([H])c([H])c2C1([H])[H]

$$$$
88:0:0
     RDKit          3D

 91 99  0  0  1  0  0  0  0  0999 V2000
  -29.6020  -20.9320   20.0080 O   0  0  0  0  0  0  0  0  0  0  0  0
  -29.4190  -17.5640   21.6700 C   0  0  0  0  0  3  0  0  0  0  0  0
  -29.2540  -18.9550   21.4750 C   0  0  0  0  0  3  0  0  0  0  0  0
  -30.3650  -17.3610   19.4430 C   0  0  0  0  0  3  0  0  0  0  0  0
  -29.9940  -16.7510   20.6650 C   0  0  0  0  0  0  0  0  0  0  0  0
  -29.6540  -19.5680   20.2600 C   0  0  0  0  0  0  0  0  0  0  0  0
  -30.1990  -18.7460   19.2470 C   0  0  0  0  0  0  0  0  0  0  0  0
  -30.6700  -19.4270   17.7260 Cl  0  0  0  0  0  0  0  0  0  0  0  0
  -30.7630  -14.4340   20.1460 C   0  0  0  0  0  0  0  0  0  0  0  0
  -30.4130  -12.3430   18.8980 C   0  0  0  0  0  2  0  0  0  0  0  0
  -29.4060  -12.6380   17.7700 C   0  0  0  0  0  2  0  0  0  0  0  0
  -27.9600  -12.4600   18.2780 C   0  0  0  0  0  2  0  0  0  0  0  0
  -27.7020  -13.2280   19.6020 C   0  0  0  0  0  3  0  0  0  0  0  0
  -28.8110  -12.9190   20.6290 C   0  0  0  0  0  2  0  0  0  0  0  0
  -30.1090  -13.2520   20.0140 N   0  0  0  0  0  0  0  0  0  0  0  0
  -31.8250  -14.6850   19.5690 O   0  0  0  0  0  0  0  0  0  0  0  0
  -30.1220  -15.3490   20.9050 N   0  0  0  0  0  0  0  0  0  0  0  0
  -29.4410  -14.9550   21.5350 H   0  0  0  0  0  0  0  0  0  0  0  0
  -25.3370  -13.8140   20.4370 C   0  0  0  0  0  0  0  0  0  0  0  0
  -24.2930  -13.0300   20.8470 C   0  0  0  0  0  0  0  0  0  0  0  0
  -24.7580  -11.6820   20.7710 C   0  0  0  0  0  0  0  0  0  0  0  0
  -26.3730  -12.9420   20.1400 N   0  0  0  0  0  0  0  0  0  0  0  0
  -26.0300  -11.6530   20.3940 N   0  0  0  0  0  0  0  0  0  0  0  0
  -24.0520  -10.4130   20.9830 C   0  0  0  0  0  0  0  0  0  0  0  0
  -24.5060   -9.4610   21.9210 C   0  0  0  0  0  3  0  0  0  0  0  0
  -23.7970   -8.2560   22.1210 C   0  0  0  0  0  3  0  0  0  0  0  0
  -22.6200   -7.9950   21.3830 C   0  0  0  0  0  0  0  0  0  0  0  0
  -22.1820   -8.9370   20.4350 C   0  0  0  0  0  3  0  0  0  0  0  0
  -22.8920  -10.1330   20.2330 C   0  0  0  0  0  3  0  0  0  0  0  0
  -21.8870   -6.8380   21.4860 O   0  0  0  0  0  0  0  0  0  0  0  0
  -21.8140   -6.1350   22.6610 C   0  0  0  0  0  0  0  0  0  0  0  0
  -21.3470   -6.7260   23.8550 C   0  0  0  0  0  3  0  0  0  0  0  0
  -21.2200   -5.9490   25.0230 C   0  0  0  0  0  3  0  0  0  0  0  0
  -21.5530   -4.5810   25.0000 C   0  0  0  0  0  0  0  0  0  0  0  0
  -22.0140   -3.9890   23.8120 C   0  0  0  0  0  3  0  0  0  0  0  0
  -22.1410   -4.7640   22.6450 C   0  0  0  0  0  0  0  0  0  0  0  0
  -22.5660   -4.1860   21.4950 F   0  0  0  0  0  0  0  0  0  0  0  0
  -21.4240   -3.8330   26.1200 F   0  0  0  0  0  0  0  0  0  0  0  0
  -22.9100  -13.4970   21.2000 C   0  0  0  0  0  0  0  0  0  0  0  0
  -22.2330  -12.7910   22.0990 N   0  0  0  0  0  0  0  0  0  0  0  0
  -22.4390  -14.5250   20.7160 O   0  0  0  0  0  0  0  0  0  0  0  0
  -22.6240  -11.9600   22.5200 H   0  0  0  0  0  0  0  0  0  0  0  0
  -21.3080  -13.0900   22.3730 H   0  0  0  0  0  0  0  0  0  0  0  0
  -25.4930  -15.1880   20.2790 N   0  0  0  0  0  0  0  0  0  0  0  0
  -24.7400  -15.8500   20.4320 H   0  0  0  0  0  0  0  0  0  0  0  0
  -26.3520  -15.6340   19.9840 H   0  0  0  0  0  0  0  0  0  0  0  0
  -28.5650  -21.7370   20.5720 C   0  0  0  0  0  2  0  0  0  0  0  0
  -28.9690  -23.2280   20.4360 C   0  0  0  0  0  2  0  0  0  0  0  0
  -27.8960  -24.2340   20.9170 C   0  0  0  0  0  2  0  0  0  0  0  0
  -28.4220  -25.6570   21.2680 C   0  0  0  0  0  2  0  0  0  0  0  0
  -28.4280  -26.6170   20.1990 O   0  0  0  0  0  0  0  0  0  0  0  0
  -24.6860  -31.8660   23.2470 C   0  0  0  0  0  0  0  0  0  0  0  0
  -27.2990  -27.4010   20.1780 C   0  0  0  0  0  0  0  0  0  0  0  0
  -23.4710  -30.4600   21.6140 C   0  0  0  0  0  3  0  0  0  0  0  0
  -24.9190  -28.9180   20.1840 C   0  0  0  0  0  0  0  0  0  0  0  0
  -25.9960  -30.8120   21.4090 C   0  0  0  0  0  2  0  0  0  0  0  0
  -26.0790  -29.4380   20.7720 C   0  0  0  0  0  0  0  0  0  0  0  0
  -27.2770  -28.6860   20.7700 C   0  0  0  0  0  3  0  0  0  0  0  0
  -26.1300  -26.8980   19.5780 C   0  0  0  0  0  3  0  0  0  0  0  0
  -24.9390  -27.6470   19.5850 C   0  0  0  0  0  3  0  0  0  0  0  0
  -23.6760  -29.7780   20.2320 C   0  0  0  0  0  2  0  0  0  0  0  0
  -24.7350  -31.0600   22.1490 N   0  0  0  0  0  0  0  0  0  0  0  0
  -23.6080  -32.1450   23.7910 O   0  0  0  0  0  0  0  0  0  0  0  0
  -22.8230  -29.4420   22.5800 C   0  0  0  0  0  0  0  0  0  0  0  0
  -21.4990  -29.2620   22.4600 N   0  0  0  0  0  0  0  0  0  0  0  0
  -23.5080  -28.8170   23.3940 O   0  0  0  0  0  0  0  0  0  0  0  0
  -21.0060  -29.8180   21.7760 H   0  0  0  0  0  0  0  0  0  0  0  0
  -18.1230  -28.0720   22.9580 C   0  0  0  0  0  0  0  0  0  0  0  0
  -20.6820  -28.3290   23.2360 C   0  0  0  0  0  3  0  0  0  0  0  0
  -20.7840  -26.8950   22.6710 C   0  0  0  0  0  2  0  0  0  0  0  0
  -19.6860  -26.5660   21.6530 C   0  0  0  0  0  2  0  0  0  0  0  0
  -18.3010  -26.7180   22.2910 C   0  0  0  0  0  2  0  0  0  0  0  0
  -19.2440  -28.8340   23.3870 C   0  0  0  0  0  0  0  0  0  0  0  0
  -19.0270  -30.1010   23.9710 C   0  0  0  0  0  3  0  0  0  0  0  0
  -17.7240  -30.6080   24.1290 C   0  0  0  0  0  3  0  0  0  0  0  0
  -16.6190  -29.8420   23.7200 C   0  0  0  0  0  3  0  0  0  0  0  0
  -16.8180  -28.5770   23.1400 C   0  0  0  0  0  3  0  0  0  0  0  0
  -25.9780  -32.4970   23.8570 C   0  0  0  0  0  3  0  0  0  0  0  0
  -25.6720  -33.8950   24.1900 N   0  0  0  0  0  0  0  0  0  0  0  0
  -25.9970  -34.9470   23.4270 C   0  0  0  0  0  0  0  0  0  0  0  0
  -26.6600  -34.8440   22.3910 O   0  0  0  0  0  0  0  0  0  0  0  0
  -25.0880  -34.0520   24.9980 H   0  0  0  0  0  0  0  0  0  0  0  0
  -24.2630  -36.7330   23.0760 C   0  0  0  0  0  1  0  0  0  0  0  0
  -25.5090  -36.3340   23.8860 C   0  0  0  0  0  3  0  0  0  0  0  0
  -27.6500  -37.2160   24.7020 C   0  0  0  0  0  1  0  0  0  0  0  0
  -26.5390  -37.3900   23.7710 N   0  0  0  0  0  0  0  0  0  0  0  0
  -26.1330  -38.3080   23.9360 H   0  0  0  0  0  0  0  0  0  0  0  0
  -26.5060  -31.7230   25.1270 C   0  0  1  0  0  0  0  0  0  0  0  0
  -25.4220  -31.4910   26.2050 C   0  0  0  0  0  1  0  0  0  0  0  0
  -27.0760  -30.3420   24.7280 C   0  0  0  0  0  1  0  0  0  0  0  0
  -27.6640  -32.5120   25.7790 C   0  0  0  0  0  1  0  0  0  0  0  0
  1  6  1  0
  1 47  1  0
  3  2  1  0
  4  5  1  0
  5 17  1  0
  5  2  2  0
  6  3  2  0
  7  4  2  0
  7  6  1  0
  8  7  1  0
  9 17  1  0
 10 15  1  0
 11 12  1  0
 11 10  1  0
 13 12  1  0
 13 22  1  0
 13 14  1  0
 15  9  1  0
 15 14  1  0
 16  9  2  0
 17 18  1  0
 19 20  2  0
 20 39  1  0
 21 20  1  0
 21 24  1  0
 22 23  1  0
 22 19  1  0
 23 21  2  0
 24 25  1  0
 25 26  2  0
 27 30  1  0
 27 26  1  0
 28 27  2  0
 29 28  1  0
 29 24  2  0
 30 31  1  0
 31 32  1  0
 32 33  2  0
 34 33  1  0
 34 38  1  0
 35 34  2  0
 36 31  2  0
 36 35  1  0
 37 36  1  0
 39 40  1  0
 40 43  1  0
 40 42  1  0
 41 39  2  0
 44 45  1  0
 44 19  1  0
 46 44  1  0
 48 47  1  0
 48 49  1  0
 49 50  1  0
 51 50  1  0
 52 63  2  0
 53 51  1  0
 53 58  1  0
 54 62  1  0
 54 64  1  0
 55 61  1  0
 55 57  1  0
 56 62  1  0
 57 56  1  0
 58 57  2  0
 59 60  1  0
 59 53  2  0
 60 55  2  0
 61 54  1  0
 62 52  1  0
 64 66  2  0
 65 64  1  0
 67 65  1  0
 68 77  2  0
 68 73  1  0
 69 65  1  0
 69 73  1  0
 70 69  1  0
 71 72  1  0
 71 70  1  0
 72 68  1  0
 73 74  2  0
 74 75  1  0
 76 75  2  0
 77 76  1  0
 78 52  1  0
 78 79  1  0
 78 88  1  0
 79 82  1  0
 80 84  1  0
 80 79  1  0
 81 80  2  0
 84 83  1  0
 86 84  1  0
 86 87  1  0
 86 85  1  0
 88 91  1  1
 88 89  1  0
 90 88  1  0
M  ISO  4   9 100  17 100  50 101  51 101
M  END
>  <TORSDO>  (88) 
F 21

>  <SCORE>  (88) 
-12.433

>  <name>  (88) 
88

>  <ligand_id>  (88) 
88

>  <original_smiles>  (88) 
[H]c1c([H])c([H])c2c(c1[H])C([H])([H])C([H])([H])C([H])([H])C2([H])N([H])C(=O)C1([H])N(C(=O)C([H])(N([H])C(=O)C([H])(N([H])C([H])([H])[H])C([H])([H])[H])C(C([H])([H])[H])(C([H])([H])[H])C([H])([H])[H])C([H])([H])c2c([H])c(OC([H])([H])C([H])([H])C([H])([H])C([H])([H])Oc3c([H])c([H])c(N([H])C(=O)N4C([H])([H])C([H])([H])C([H])([H])C([H])(n5nc(-c6c([H])c([H])c(Oc7c([H])c([H])c(F)c([H])c7F)c([H])c6[H])c(C(=O)N([H])[H])c5N([H])[H])C4([H])[H])c([H])c3Cl)c([H])c([H])c2C1([H])[H]

>  <smiles>  (88) 
[H]c1c([H])c([H])c2c(c1[H])C([H])([H])C([H])([H])C([H])([H])C2([H])N([H])C(=O)C1([H])N(C(=O)C([H])(N([H])C(=O)C([H])(N([H])C([H])([H])[H])C([H])([H])[H])C(C([H])([H])[H])(C([H])([H])[H])C([H])([H])[H])C([H])([H])c2c([H])c(OC([H])([H])C([H])([H])C([H])([H])C([H])([H])Oc3c([H])c([H])c(N([H])C(=O)N4C([H])([H])C([H])([H])C([H])([H])C([H])(n5nc(-c6c([H])c([H])c(Oc7c([H])c([H])c(F)c([H])c7F)c([H])c6[H])c(C(=O)N([H])[H])c5N([H])[H])C4([H])[H])c([H])c3Cl)c([H])c([H])c2C1([H])[H]

$$$$
89:0:0
     RDKit          3D

 93101  0  0  1  0  0  0  0  0999 V2000
  -29.2340  -17.7130   21.1760 C   0  0  0  0  0  3  0  0  0  0  0  0
  -28.9840  -19.1040   21.1200 C   0  0  0  0  0  3  0  0  0  0  0  0
  -30.5220  -17.8790   19.1760 C   0  0  0  0  0  3  0  0  0  0  0  0
  -30.2790  -19.2990   19.1100 C   0  0  0  0  0  0  0  0  0  0  0  0
  -30.0710  -17.0540   20.2430 C   0  0  0  0  0  0  0  0  0  0  0  0
  -29.5360  -19.9890   20.1400 C   0  0  0  0  0  0  0  0  0  0  0  0
  -30.9410  -14.7260   19.6170 C   0  0  0  0  0  0  0  0  0  0  0  0
  -30.5680  -12.5290   18.4940 C   0  0  0  0  0  2  0  0  0  0  0  0
  -29.4830  -12.6460   17.4030 C   0  0  0  0  0  2  0  0  0  0  0  0
  -28.0700  -12.4850   17.9990 C   0  0  0  0  0  2  0  0  0  0  0  0
  -27.8690  -13.3540   19.2670 C   0  0  0  0  0  3  0  0  0  0  0  0
  -29.0370  -13.1580   20.2480 C   0  0  0  0  0  2  0  0  0  0  0  0
  -30.2820  -13.5210   19.5510 N   0  0  0  0  0  0  0  0  0  0  0  0
  -31.9290  -14.9450   18.9070 O   0  0  0  0  0  0  0  0  0  0  0  0
  -30.7380  -15.3690   21.9320 C   0  0  0  0  0  1  0  0  0  0  0  0
  -30.4770  -15.6650   20.5110 N   0  0  0  0  0  0  0  0  0  0  0  0
  -25.6350  -14.0070   20.3610 C   0  0  0  0  0  0  0  0  0  0  0  0
  -24.5860  -13.2570   20.8130 C   0  0  0  0  0  0  0  0  0  0  0  0
  -24.9570  -11.8940   20.6040 C   0  0  0  0  0  0  0  0  0  0  0  0
  -26.5820  -13.1010   19.9060 N   0  0  0  0  0  0  0  0  0  0  0  0
  -26.1870  -11.8190   20.1120 N   0  0  0  0  0  0  0  0  0  0  0  0
  -24.1870  -10.6580   20.7950 C   0  0  0  0  0  0  0  0  0  0  0  0
  -24.6360   -9.6420   21.6680 C   0  0  0  0  0  3  0  0  0  0  0  0
  -23.8780   -8.4650   21.8480 C   0  0  0  0  0  3  0  0  0  0  0  0
  -22.6560   -8.2980   21.1560 C   0  0  0  0  0  0  0  0  0  0  0  0
  -22.2230   -9.3020   20.2730 C   0  0  0  0  0  3  0  0  0  0  0  0
  -22.9800  -10.4720   20.0920 C   0  0  0  0  0  3  0  0  0  0  0  0
  -21.8640   -7.1810   21.2520 O   0  0  0  0  0  0  0  0  0  0  0  0
  -21.7790   -6.4530   22.4120 C   0  0  0  0  0  0  0  0  0  0  0  0
  -21.3210   -7.0280   23.6170 C   0  0  0  0  0  3  0  0  0  0  0  0
  -21.1870   -6.2310   24.7710 C   0  0  0  0  0  3  0  0  0  0  0  0
  -21.4960   -4.8580   24.7180 C   0  0  0  0  0  0  0  0  0  0  0  0
  -21.9440   -4.2830   23.5160 C   0  0  0  0  0  3  0  0  0  0  0  0
  -22.0840   -5.0790   22.3660 C   0  0  0  0  0  0  0  0  0  0  0  0
  -22.4960   -4.5160   21.2050 F   0  0  0  0  0  0  0  0  0  0  0  0
  -21.3610   -4.0900   25.8230 F   0  0  0  0  0  0  0  0  0  0  0  0
  -23.2700  -13.7720   21.3270 C   0  0  0  0  0  0  0  0  0  0  0  0
  -22.6430  -13.0430   22.2410 N   0  0  0  0  0  0  0  0  0  0  0  0
  -22.8180  -14.8540   20.9510 O   0  0  0  0  0  0  0  0  0  0  0  0
  -23.0240  -12.1630   22.5580 H   0  0  0  0  0  0  0  0  0  0  0  0
  -21.7730  -13.3700   22.6340 H   0  0  0  0  0  0  0  0  0  0  0  0
  -25.8560  -15.3780   20.2730 N   0  0  0  0  0  0  0  0  0  0  0  0
  -25.1670  -16.0570   20.5740 H   0  0  0  0  0  0  0  0  0  0  0  0
  -26.6730  -15.7980   19.8500 H   0  0  0  0  0  0  0  0  0  0  0  0
  -31.7670  -21.0020   18.0600 C   0  0  0  0  0  2  0  0  0  0  0  0
  -30.9320  -19.9570   17.9690 C   0  0  0  0  0  0  0  0  0  0  0  0
  -30.6530  -19.4860   16.7410 F   0  0  0  0  0  0  0  0  0  0  0  0
  -29.0750  -21.8560   21.6940 C   0  0  0  0  0  1  0  0  0  0  0  0
  -29.3730  -21.4350   20.3110 N   0  0  0  0  0  0  0  0  0  0  0  0
  -28.8860  -22.4150   19.2770 C   0  0  0  0  0  2  0  0  0  0  0  0
  -29.2820  -23.9710   19.4560 C   0  0  0  0  0  3  0  0  0  0  0  0
  -28.1670  -25.0560   19.0990 C   0  0  0  0  0  3  0  0  0  0  0  0
  -28.3390  -26.5050   19.4300 O   0  0  0  0  0  0  0  0  0  0  0  0
  -24.6060  -31.6040   22.9780 C   0  0  0  0  0  0  0  0  0  0  0  0
  -27.2050  -27.3400   19.4800 C   0  0  0  0  0  0  0  0  0  0  0  0
  -23.3670  -30.2990   21.2890 C   0  0  0  0  0  3  0  0  0  0  0  0
  -24.7970  -28.8980   19.6870 C   0  0  0  0  0  0  0  0  0  0  0  0
  -25.8880  -30.6950   21.0270 C   0  0  0  0  0  2  0  0  0  0  0  0
  -25.9770  -29.3680   20.2760 C   0  0  0  0  0  0  0  0  0  0  0  0
  -27.1790  -28.5970   20.1700 C   0  0  0  0  0  3  0  0  0  0  0  0
  -25.9960  -26.9420   18.8630 C   0  0  0  0  0  3  0  0  0  0  0  0
  -24.8070  -27.6880   18.9760 C   0  0  0  0  0  3  0  0  0  0  0  0
  -23.5380  -29.7320   19.8560 C   0  0  0  0  0  2  0  0  0  0  0  0
  -24.6400  -30.8810   21.8200 N   0  0  0  0  0  0  0  0  0  0  0  0
  -23.5410  -31.8050   23.5780 O   0  0  0  0  0  0  0  0  0  0  0  0
  -22.7800  -29.1930   22.1950 C   0  0  0  0  0  0  0  0  0  0  0  0
  -21.4560  -28.9860   22.1120 N   0  0  0  0  0  0  0  0  0  0  0  0
  -23.5100  -28.5260   22.9310 O   0  0  0  0  0  0  0  0  0  0  0  0
  -20.9200  -29.5750   21.4890 H   0  0  0  0  0  0  0  0  0  0  0  0
  -18.1370  -27.6510   22.6490 C   0  0  0  0  0  0  0  0  0  0  0  0
  -20.6950  -27.9710   22.8440 C   0  0  0  0  0  3  0  0  0  0  0  0
  -20.8180  -26.5900   22.1610 C   0  0  0  0  0  2  0  0  0  0  0  0
  -19.6880  -26.3050   21.1670 C   0  0  0  0  0  2  0  0  0  0  0  0
  -18.3270  -26.3580   21.8700 C   0  0  0  0  0  2  0  0  0  0  0  0
  -19.2490  -28.4160   23.0900 C   0  0  0  0  0  0  0  0  0  0  0  0
  -19.0180  -29.6250   23.7800 C   0  0  0  0  0  3  0  0  0  0  0  0
  -17.7090  -30.0730   24.0330 C   0  0  0  0  0  3  0  0  0  0  0  0
  -16.6110  -29.3040   23.6080 C   0  0  0  0  0  3  0  0  0  0  0  0
  -16.8260  -28.0950   22.9220 C   0  0  0  0  0  3  0  0  0  0  0  0
  -25.9000  -32.2260   23.5930 C   0  0  0  0  0  3  0  0  0  0  0  0
  -25.5710  -33.5960   24.0130 N   0  0  0  0  0  0  0  0  0  0  0  0
  -25.8720  -34.7010   23.3190 C   0  0  0  0  0  0  0  0  0  0  0  0
  -26.5270  -34.6780   22.2750 O   0  0  0  0  0  0  0  0  0  0  0  0
  -24.9910  -33.6880   24.8340 H   0  0  0  0  0  0  0  0  0  0  0  0
  -24.1110  -36.4890   23.1060 C   0  0  0  0  0  1  0  0  0  0  0  0
  -25.3670  -36.0460   23.8740 C   0  0  0  0  0  3  0  0  0  0  0  0
  -27.4880  -36.9210   24.7530 C   0  0  0  0  0  1  0  0  0  0  0  0
  -26.3780  -37.1240   23.8240 N   0  0  0  0  0  0  0  0  0  0  0  0
  -25.9520  -38.0240   24.0340 H   0  0  0  0  0  0  0  0  0  0  0  0
  -26.4740  -31.3940   24.8050 C   0  0  1  0  0  0  0  0  0  0  0  0
  -25.4290  -31.0850   25.9010 C   0  0  0  0  0  1  0  0  0  0  0  0
  -27.0590  -30.0470   24.3200 C   0  0  0  0  0  1  0  0  0  0  0  0
  -27.6310  -32.1710   25.4720 C   0  0  0  0  0  1  0  0  0  0  0  0
  2  1  1  0
  3  5  1  0
  4  3  2  0
  4  6  1  0
  5 16  1  0
  5  1  2  0
  6 49  1  0
  6  2  2  0
  7 16  1  0
  8 13  1  0
  9 10  1  0
  9  8  1  0
 11 10  1  0
 11 20  1  0
 11 12  1  0
 13  7  1  0
 13 12  1  0
 14  7  2  0
 16 15  1  0
 17 18  2  0
 18 37  1  0
 19 22  1  0
 19 18  1  0
 20 21  1  0
 20 17  1  0
 21 19  2  0
 22 23  1  0
 23 24  2  0
 25 28  1  0
 25 24  1  0
 26 25  2  0
 27 26  1  0
 27 22  2  0
 28 29  1  0
 29 30  1  0
 30 31  2  0
 32 31  1  0
 32 36  1  0
 33 32  2  0
 34 29  2  0
 34 33  1  0
 35 34  1  0
 37 38  1  0
 38 40  1  0
 38 41  1  0
 39 37  2  0
 42 17  1  0
 42 43  1  0
 44 42  1  0
 46 45  2  0
 46  4  1  0
 47 46  1  0
 49 48  1  0
 50 51  1  0
 50 49  1  0
 52 53  1  0
 52 51  2  0
 53 55  1  0
 54 65  2  0
 55 60  1  0
 56 64  1  0
 56 66  1  0
 57 63  1  0
 57 59  1  0
 58 64  1  0
 59 58  1  0
 60 59  2  0
 61 62  1  0
 61 55  2  0
 62 57  2  0
 63 56  1  0
 64 54  1  0
 66 68  2  0
 67 66  1  0
 69 67  1  0
 70 79  2  0
 70 75  1  0
 71 67  1  0
 71 75  1  0
 72 71  1  0
 73 74  1  0
 73 72  1  0
 74 70  1  0
 75 76  2  0
 76 77  1  0
 78 77  2  0
 79 78  1  0
 80 54  1  0
 80 81  1  0
 80 90  1  0
 81 84  1  0
 82 86  1  0
 82 81  1  0
 83 82  2  0
 86 85  1  0
 88 86  1  0
 88 89  1  0
 88 87  1  0
 90 93  1  1
 90 91  1  0
 92 90  1  0
M  ISO  4   7 100  16 100  52 101  53 101
M  END
>  <TORSDO>  (89) 
F 21

>  <SCORE>  (89) 
-11.553

>  <name>  (89) 
89

>  <ligand_id>  (89) 
89

>  <original_smiles>  (89) 
[H]C([H])=C(F)c1c([H])c(N(C(=O)N2C([H])([H])C([H])([H])C([H])([H])C([H])(n3nc(-c4c([H])c([H])c(Oc5c([H])c([H])c(F)c([H])c5F)c([H])c4[H])c(C(=O)N([H])[H])c3N([H])[H])C2([H])[H])C([H])([H])[H])c([H])c([H])c1N(C([H])([H])[H])C([H])([H])C([H])([H])C([H])([H])Oc1c([H])c([H])c2c(c1[H])C([H])([H])N(C(=O)C([H])(N([H])C(=O)C([H])(N([H])C([H])([H])[H])C([H])([H])[H])C(C([H])([H])[H])(C([H])([H])[H])C([H])([H])[H])C([H])(C(=O)N([H])C1([H])c3c([H])c([H])c([H])c([H])c3C([H])([H])C([H])([H])C1([H])[H])C2([H])[H]

>  <smiles>  (89) 
[H]C([H])=C(F)c1c([H])c(N(C(=O)N2C([H])([H])C([H])([H])C([H])([H])C([H])(n3nc(-c4c([H])c([H])c(Oc5c([H])c([H])c(F)c([H])c5F)c([H])c4[H])c(C(=O)N([H])[H])c3N([H])[H])C2([H])[H])C([H])([H])[H])c([H])c([H])c1N(C([H])([H])[H])C([H])([H])C([H])([H])C([H])([H])Oc1c([H])c([H])c2c(c1[H])C([H])([H])N(C(=O)C([H])(N([H])C(=O)C([H])(N([H])C([H])([H])[H])C([H])([H])[H])C(C([H])([H])[H])(C([H])([H])[H])C([H])([H])[H])C([H])(C(=O)N([H])C1([H])c3c([H])c([H])c([H])c([H])c3C([H])([H])C([H])([H])C1([H])[H])C2([H])[H]

$$$$
90:0:0
     RDKit          3D

 93101  0  0  1  0  0  0  0  0999 V2000
  -29.5920  -23.2820   19.3610 C   0  0  0  0  0  0  0  0  0  0  0  0
  -30.0710  -22.2750   20.1100 N   0  0  0  0  0  0  0  0  0  0  0  0
  -29.1930  -23.0970   18.2090 O   0  0  0  0  0  0  0  0  0  0  0  0
  -30.3770  -22.4820   21.0500 H   0  0  0  0  0  0  0  0  0  0  0  0
  -30.1400  -20.8720   19.6770 C   0  0  0  0  0  2  0  0  0  0  0  0
  -33.0100  -19.6730   21.9470 C   0  0  0  0  0  3  0  0  0  0  0  0
  -32.1990  -20.5030   21.1510 C   0  0  0  0  0  3  0  0  0  0  0  0
  -32.6710  -18.3200   22.1340 C   0  0  0  0  0  3  0  0  0  0  0  0
  -30.7490  -18.5990   20.6750 C   0  0  0  0  0  3  0  0  0  0  0  0
  -31.0500  -19.9780   20.5240 C   0  0  0  0  0  0  0  0  0  0  0  0
  -31.5350  -17.7600   21.5110 C   0  0  0  0  0  0  0  0  0  0  0  0
  -31.2070  -16.2910   21.8580 C   0  0  0  0  0  2  0  0  0  0  0  0
  -30.7110  -14.5850   20.1470 C   0  0  0  0  0  0  0  0  0  0  0  0
  -30.3420  -12.4630   18.9150 C   0  0  0  0  0  2  0  0  0  0  0  0
  -29.3150  -12.6660   17.7810 C   0  0  0  0  0  2  0  0  0  0  0  0
  -27.8700  -12.5140   18.3000 C   0  0  0  0  0  2  0  0  0  0  0  0
  -27.6200  -13.3190   19.6020 C   0  0  0  0  0  3  0  0  0  0  0  0
  -28.7460  -13.0250   20.6240 C   0  0  0  0  0  2  0  0  0  0  0  0
  -30.0170  -13.4140   19.9960 N   0  0  0  0  0  0  0  0  0  0  0  0
  -31.7850  -14.7640   19.5610 O   0  0  0  0  0  0  0  0  0  0  0  0
  -28.8900  -16.0830   21.0260 C   0  0  0  0  0  1  0  0  0  0  0  0
  -30.2510  -15.5150   21.0400 N   0  0  0  0  0  0  0  0  0  0  0  0
  -25.2770  -13.9570   20.4590 C   0  0  0  0  0  0  0  0  0  0  0  0
  -24.2200  -13.1940   20.8740 C   0  0  0  0  0  0  0  0  0  0  0  0
  -24.6560  -11.8360   20.7840 C   0  0  0  0  0  0  0  0  0  0  0  0
  -26.2930  -13.0630   20.1510 N   0  0  0  0  0  0  0  0  0  0  0  0
  -25.9240  -11.7830   20.4000 N   0  0  0  0  0  0  0  0  0  0  0  0
  -23.9230  -10.5810   20.9870 C   0  0  0  0  0  0  0  0  0  0  0  0
  -24.3860   -9.5940   21.8850 C   0  0  0  0  0  3  0  0  0  0  0  0
  -23.6550   -8.4020   22.0760 C   0  0  0  0  0  3  0  0  0  0  0  0
  -22.4480   -8.1890   21.3700 C   0  0  0  0  0  0  0  0  0  0  0  0
  -22.0040   -9.1650   20.4590 C   0  0  0  0  0  3  0  0  0  0  0  0
  -22.7360  -10.3480   20.2660 C   0  0  0  0  0  3  0  0  0  0  0  0
  -21.6860   -7.0510   21.4720 O   0  0  0  0  0  0  0  0  0  0  0  0
  -21.6700   -6.2960   22.6180 C   0  0  0  0  0  0  0  0  0  0  0  0
  -21.2950   -6.8430   23.8640 C   0  0  0  0  0  3  0  0  0  0  0  0
  -21.2260   -6.0160   25.0040 C   0  0  0  0  0  3  0  0  0  0  0  0
  -21.5230   -4.6440   24.8970 C   0  0  0  0  0  0  0  0  0  0  0  0
  -21.8910   -4.0970   23.6550 C   0  0  0  0  0  3  0  0  0  0  0  0
  -21.9630   -4.9210   22.5180 C   0  0  0  0  0  0  0  0  0  0  0  0
  -22.2980   -4.3860   21.3200 F   0  0  0  0  0  0  0  0  0  0  0  0
  -21.4480   -3.8470   25.9880 F   0  0  0  0  0  0  0  0  0  0  0  0
  -22.8500  -13.6850   21.2420 C   0  0  0  0  0  0  0  0  0  0  0  0
  -22.1660  -12.9800   22.1360 N   0  0  0  0  0  0  0  0  0  0  0  0
  -22.3960  -14.7270   20.7730 O   0  0  0  0  0  0  0  0  0  0  0  0
  -22.5460  -12.1350   22.5370 H   0  0  0  0  0  0  0  0  0  0  0  0
  -21.2480  -13.2890   22.4240 H   0  0  0  0  0  0  0  0  0  0  0  0
  -25.4500  -15.3290   20.2980 N   0  0  0  0  0  0  0  0  0  0  0  0
  -24.6970  -15.9890   20.4620 H   0  0  0  0  0  0  0  0  0  0  0  0
  -26.2840  -15.7640   19.9290 H   0  0  0  0  0  0  0  0  0  0  0  0
  -29.5570  -24.6980   19.9680 C   0  0  0  0  0  2  0  0  0  0  0  0
  -28.2400  -25.4530   19.6690 C   0  0  0  0  0  2  0  0  0  0  0  0
  -28.2820  -26.8210   20.1080 O   0  0  0  0  0  0  0  0  0  0  0  0
  -24.5160  -31.9790   23.2580 C   0  0  0  0  0  0  0  0  0  0  0  0
  -27.0980  -27.5390   20.1060 C   0  0  0  0  0  0  0  0  0  0  0  0
  -23.2810  -30.5980   21.6210 C   0  0  0  0  0  3  0  0  0  0  0  0
  -24.7060  -29.0630   20.1670 C   0  0  0  0  0  0  0  0  0  0  0  0
  -25.8080  -30.9390   21.3970 C   0  0  0  0  0  2  0  0  0  0  0  0
  -25.8760  -29.5730   20.7420 C   0  0  0  0  0  0  0  0  0  0  0  0
  -27.0710  -28.8190   20.7100 C   0  0  0  0  0  3  0  0  0  0  0  0
  -25.9040  -27.0470   19.5250 C   0  0  0  0  0  3  0  0  0  0  0  0
  -24.7150  -27.7980   19.5570 C   0  0  0  0  0  3  0  0  0  0  0  0
  -23.4690  -29.9290   20.2340 C   0  0  0  0  0  2  0  0  0  0  0  0
  -24.5540  -31.1860   22.1490 N   0  0  0  0  0  0  0  0  0  0  0  0
  -23.4430  -32.2540   23.8120 O   0  0  0  0  0  0  0  0  0  0  0  0
  -22.6350  -29.5710   22.5800 C   0  0  0  0  0  0  0  0  0  0  0  0
  -21.3130  -29.3750   22.4440 N   0  0  0  0  0  0  0  0  0  0  0  0
  -23.3200  -28.9560   23.4020 O   0  0  0  0  0  0  0  0  0  0  0  0
  -20.8220  -29.9240   21.7520 H   0  0  0  0  0  0  0  0  0  0  0  0
  -17.9530  -28.1320   22.9040 C   0  0  0  0  0  0  0  0  0  0  0  0
  -20.5010  -28.4320   23.2130 C   0  0  0  0  0  3  0  0  0  0  0  0
  -20.6340  -26.9970   22.6520 C   0  0  0  0  0  2  0  0  0  0  0  0
  -19.5530  -26.6470   21.6250 C   0  0  0  0  0  2  0  0  0  0  0  0
  -18.1600  -26.7780   22.2470 C   0  0  0  0  0  2  0  0  0  0  0  0
  -19.0520  -28.9150   23.3440 C   0  0  0  0  0  0  0  0  0  0  0  0
  -18.8050  -30.1820   23.9160 C   0  0  0  0  0  3  0  0  0  0  0  0
  -17.4910  -30.6660   24.0550 C   0  0  0  0  0  3  0  0  0  0  0  0
  -16.4050  -29.8790   23.6330 C   0  0  0  0  0  3  0  0  0  0  0  0
  -16.6360  -28.6140   23.0640 C   0  0  0  0  0  3  0  0  0  0  0  0
  -25.8140  -32.5960   23.8660 C   0  0  0  0  0  3  0  0  0  0  0  0
  -25.5210  -33.9950   24.2030 N   0  0  0  0  0  0  0  0  0  0  0  0
  -25.8420  -35.0450   23.4340 C   0  0  0  0  0  0  0  0  0  0  0  0
  -26.4860  -34.9360   22.3870 O   0  0  0  0  0  0  0  0  0  0  0  0
  -24.9470  -34.1530   25.0190 H   0  0  0  0  0  0  0  0  0  0  0  0
  -24.1060  -36.8390   23.1290 C   0  0  0  0  0  1  0  0  0  0  0  0
  -25.3720  -36.4360   23.9020 C   0  0  0  0  0  3  0  0  0  0  0  0
  -27.5320  -37.3190   24.6620 C   0  0  0  0  0  1  0  0  0  0  0  0
  -26.4020  -37.4860   23.7520 N   0  0  0  0  0  0  0  0  0  0  0  0
  -26.0040  -38.4070   23.9070 H   0  0  0  0  0  0  0  0  0  0  0  0
  -26.3400  -31.8140   25.1310 C   0  0  1  0  0  0  0  0  0  0  0  0
  -25.2570  -31.5750   26.2090 C   0  0  0  0  0  1  0  0  0  0  0  0
  -26.9110  -30.4360   24.7240 C   0  0  0  0  0  1  0  0  0  0  0  0
  -27.5040  -32.5970   25.7850 C   0  0  0  0  0  1  0  0  0  0  0  0
  1 51  1  0
  1  2  1  0
  2  4  1  0
  3  1  2  0
  5  2  1  0
  5 10  1  0
  6  8  1  0
  7  6  2  0
  9 11  1  0
 10  9  2  0
 10  7  1  0
 11 12  1  0
 11  8  2  0
 13 22  1  0
 14 19  1  0
 15 16  1  0
 15 14  1  0
 17 16  1  0
 17 26  1  0
 17 18  1  0
 19 13  1  0
 19 18  1  0
 20 13  2  0
 21 22  1  0
 22 12  1  0
 23 24  2  0
 24 43  1  0
 25 24  1  0
 25 28  1  0
 26 27  1  0
 26 23  1  0
 27 25  2  0
 28 29  1  0
 29 30  2  0
 31 34  1  0
 31 30  1  0
 32 31  2  0
 33 32  1  0
 33 28  2  0
 34 35  1  0
 35 36  1  0
 36 37  2  0
 38 37  1  0
 38 42  1  0
 39 38  2  0
 40 35  2  0
 40 39  1  0
 41 40  1  0
 43 44  1  0
 44 47  1  0
 44 46  1  0
 45 43  2  0
 48 23  1  0
 48 49  1  0
 50 48  1  0
 52 51  1  0
 52 53  1  0
 54 65  2  0
 55 53  1  0
 55 60  1  0
 56 64  1  0
 56 66  1  0
 57 63  1  0
 57 59  1  0
 58 64  1  0
 59 58  1  0
 60 59  2  0
 61 62  1  0
 61 55  2  0
 62 57  2  0
 63 56  1  0
 64 54  1  0
 66 68  2  0
 67 66  1  0
 69 67  1  0
 70 79  2  0
 70 75  1  0
 71 67  1  0
 71 75  1  0
 72 71  1  0
 73 74  1  0
 73 72  1  0
 74 70  1  0
 75 76  2  0
 76 77  1  0
 78 77  2  0
 79 78  1  0
 80 54  1  0
 80 81  1  0
 80 90  1  0
 81 84  1  0
 82 86  1  0
 82 81  1  0
 83 82  2  0
 86 85  1  0
 88 86  1  0
 88 89  1  0
 88 87  1  0
 90 93  1  1
 90 91  1  0
 92 90  1  0
M  ISO  4  13 100  22 100  52 101  53 101
M  END
>  <TORSDO>  (90) 
F 21

>  <SCORE>  (90) 
-12.382

>  <name>  (90) 
90

>  <ligand_id>  (90) 
90

>  <original_smiles>  (90) 
[H]c1c([H])c(C([H])([H])N([H])C(=O)C([H])([H])C([H])([H])Oc2c([H])c([H])c3c(c2[H])C([H])([H])N(C(=O)C([H])(N([H])C(=O)C([H])(N([H])C([H])([H])[H])C([H])([H])[H])C(C([H])([H])[H])(C([H])([H])[H])C([H])([H])[H])C([H])(C(=O)N([H])C2([H])c4c([H])c([H])c([H])c([H])c4C([H])([H])C([H])([H])C2([H])[H])C3([H])[H])c([H])c(C([H])([H])N(C(=O)N2C([H])([H])C([H])([H])C([H])([H])C([H])(n3nc(-c4c([H])c([H])c(Oc5c([H])c([H])c(F)c([H])c5F)c([H])c4[H])c(C(=O)N([H])[H])c3N([H])[H])C2([H])[H])C([H])([H])[H])c1[H]

>  <smiles>  (90) 
[H]c1c([H])c(C([H])([H])N([H])C(=O)C([H])([H])C([H])([H])Oc2c([H])c([H])c3c(c2[H])C([H])([H])N(C(=O)C([H])(N([H])C(=O)C([H])(N([H])C([H])([H])[H])C([H])([H])[H])C(C([H])([H])[H])(C([H])([H])[H])C([H])([H])[H])C([H])(C(=O)N([H])C2([H])c4c([H])c([H])c([H])c([H])c4C([H])([H])C([H])([H])C2([H])[H])C3([H])[H])c([H])c(C([H])([H])N(C(=O)N2C([H])([H])C([H])([H])C([H])([H])C([H])(n3nc(-c4c([H])c([H])c(Oc5c([H])c([H])c(F)c([H])c5F)c([H])c4[H])c(C(=O)N([H])[H])c3N([H])[H])C2([H])[H])C([H])([H])[H])c1[H]

$$$$
91:0:0
     RDKit          3D

 90 99  0  0  1  0  0  0  0  0999 V2000
  -29.2400  -22.1520   20.6000 C   0  0  0  0  0  0  0  0  0  0  0  0
  -27.2270  -22.7860   19.5320 C   0  0  0  0  0  2  0  0  0  0  0  0
  -27.5010  -21.2520   19.4380 C   0  0  0  0  0  2  0  0  0  0  0  0
  -28.5160  -23.4700   20.0000 C   0  0  0  0  0  3  0  0  0  0  0  0
  -28.7190  -20.9200   20.1930 N   0  0  0  0  0  0  0  0  0  0  0  0
  -30.2080  -22.2620   21.3590 O   0  0  0  0  0  0  0  0  0  0  0  0
  -28.6860  -16.9360   20.1930 C   0  0  0  0  0  3  0  0  0  0  0  0
  -30.8960  -17.6070   20.6270 C   0  0  0  0  0  3  0  0  0  0  0  0
  -28.2900  -18.3360   20.1580 C   0  0  0  0  0  3  0  0  0  0  0  0
  -30.5020  -19.0080   20.6080 C   0  0  0  0  0  3  0  0  0  0  0  0
  -30.0250  -16.4780   20.4150 C   0  0  0  0  0  0  0  0  0  0  0  0
  -29.1710  -19.4610   20.3460 C   0  0  0  0  0  0  0  0  0  0  0  0
  -30.6000  -14.9840   20.2390 C   0  0  0  0  0  0  0  0  0  0  0  0
  -30.3660  -12.6430   19.3320 C   0  0  0  0  0  2  0  0  0  0  0  0
  -29.4300  -12.5950   18.1030 C   0  0  0  0  0  2  0  0  0  0  0  0
  -27.9790  -12.3720   18.5600 C   0  0  0  0  0  2  0  0  0  0  0  0
  -27.5780  -13.3270   19.7100 C   0  0  0  0  0  3  0  0  0  0  0  0
  -28.6420  -13.4050   20.8270 C   0  0  0  0  0  2  0  0  0  0  0  0
  -29.9200  -13.7660   20.2090 N   0  0  0  0  0  0  0  0  0  0  0  0
  -31.8000  -14.9260   19.9590 O   0  0  0  0  0  0  0  0  0  0  0  0
  -25.2140  -13.9050   20.4980 C   0  0  0  0  0  0  0  0  0  0  0  0
  -24.1560  -13.1310   20.8850 C   0  0  0  0  0  0  0  0  0  0  0  0
  -24.6210  -11.7810   20.8460 C   0  0  0  0  0  0  0  0  0  0  0  0
  -26.2520  -13.0280   20.2390 N   0  0  0  0  0  0  0  0  0  0  0  0
  -25.9060  -11.7440   20.5160 N   0  0  0  0  0  0  0  0  0  0  0  0
  -23.8980  -10.5180   21.0410 C   0  0  0  0  0  0  0  0  0  0  0  0
  -24.3360   -9.5490   21.9700 C   0  0  0  0  0  3  0  0  0  0  0  0
  -23.6080   -8.3540   22.1540 C   0  0  0  0  0  3  0  0  0  0  0  0
  -22.4300   -8.1170   21.4050 C   0  0  0  0  0  0  0  0  0  0  0  0
  -22.0100   -9.0760   20.4650 C   0  0  0  0  0  3  0  0  0  0  0  0
  -22.7390  -10.2630   20.2800 C   0  0  0  0  0  3  0  0  0  0  0  0
  -21.6740   -6.9750   21.4980 O   0  0  0  0  0  0  0  0  0  0  0  0
  -21.6290   -6.2340   22.6530 C   0  0  0  0  0  0  0  0  0  0  0  0
  -21.1930   -6.7890   23.8760 C   0  0  0  0  0  3  0  0  0  0  0  0
  -21.0960   -5.9750   25.0220 C   0  0  0  0  0  3  0  0  0  0  0  0
  -21.4210   -4.6080   24.9460 C   0  0  0  0  0  0  0  0  0  0  0  0
  -21.8500   -4.0520   23.7280 C   0  0  0  0  0  3  0  0  0  0  0  0
  -21.9500   -4.8640   22.5830 C   0  0  0  0  0  0  0  0  0  0  0  0
  -22.3420   -4.3180   21.4060 F   0  0  0  0  0  0  0  0  0  0  0  0
  -21.3200   -3.8240   26.0450 F   0  0  0  0  0  0  0  0  0  0  0  0
  -22.7620  -13.6090   21.1720 C   0  0  0  0  0  0  0  0  0  0  0  0
  -22.0420  -12.9120   22.0440 N   0  0  0  0  0  0  0  0  0  0  0  0
  -22.3200  -14.6380   20.6600 O   0  0  0  0  0  0  0  0  0  0  0  0
  -22.4110  -12.0770   22.4750 H   0  0  0  0  0  0  0  0  0  0  0  0
  -21.1100  -13.2140   22.2850 H   0  0  0  0  0  0  0  0  0  0  0  0
  -25.3650  -15.2760   20.3140 N   0  0  0  0  0  0  0  0  0  0  0  0
  -24.5890  -15.9190   20.4320 H   0  0  0  0  0  0  0  0  0  0  0  0
  -26.1780  -15.7140   19.9050 H   0  0  0  0  0  0  0  0  0  0  0  0
  -28.2910  -24.9180   20.7980 C   0  0  0  0  0  2  0  0  0  0  0  0
  -28.3540  -26.3450   20.2310 O   0  0  0  0  0  0  0  0  0  0  0  0
  -24.6090  -31.8940   23.2450 C   0  0  0  0  0  0  0  0  0  0  0  0
  -27.2470  -27.2430   20.2480 C   0  0  0  0  0  0  0  0  0  0  0  0
  -23.4230  -30.4880   21.6010 C   0  0  0  0  0  3  0  0  0  0  0  0
  -24.8900  -28.9180   20.1960 C   0  0  0  0  0  0  0  0  0  0  0  0
  -25.9690  -30.7930   21.4340 C   0  0  0  0  0  2  0  0  0  0  0  0
  -26.0590  -29.3990   20.7990 C   0  0  0  0  0  0  0  0  0  0  0  0
  -27.2410  -28.5780   20.8040 C   0  0  0  0  0  3  0  0  0  0  0  0
  -26.0510  -26.8360   19.6250 C   0  0  0  0  0  3  0  0  0  0  0  0
  -24.8930  -27.6450   19.5960 C   0  0  0  0  0  3  0  0  0  0  0  0
  -23.6520  -29.8000   20.2270 C   0  0  0  0  0  2  0  0  0  0  0  0
  -24.6870  -31.0800   22.1510 N   0  0  0  0  0  0  0  0  0  0  0  0
  -23.5200  -32.1690   23.7730 O   0  0  0  0  0  0  0  0  0  0  0  0
  -22.7550  -29.4780   22.5660 C   0  0  0  0  0  0  0  0  0  0  0  0
  -21.4280  -29.3010   22.4400 N   0  0  0  0  0  0  0  0  0  0  0  0
  -23.4310  -28.8550   23.3880 O   0  0  0  0  0  0  0  0  0  0  0  0
  -20.9420  -29.8550   21.7500 H   0  0  0  0  0  0  0  0  0  0  0  0
  -18.0510  -28.0940   22.9410 C   0  0  0  0  0  0  0  0  0  0  0  0
  -20.6090  -28.3600   23.2080 C   0  0  0  0  0  3  0  0  0  0  0  0
  -20.7140  -26.9300   22.6290 C   0  0  0  0  0  2  0  0  0  0  0  0
  -19.6110  -26.6050   21.6180 C   0  0  0  0  0  2  0  0  0  0  0  0
  -18.2290  -26.7480   22.2610 C   0  0  0  0  0  2  0  0  0  0  0  0
  -19.1680  -28.8590   23.3710 C   0  0  0  0  0  0  0  0  0  0  0  0
  -18.9450  -30.1190   23.9680 C   0  0  0  0  0  3  0  0  0  0  0  0
  -17.6380  -30.6140   24.1390 C   0  0  0  0  0  3  0  0  0  0  0  0
  -16.5360  -29.8470   23.7240 C   0  0  0  0  0  3  0  0  0  0  0  0
  -16.7430  -28.5890   23.1300 C   0  0  0  0  0  3  0  0  0  0  0  0
  -25.8810  -32.5410   23.8760 C   0  0  0  0  0  3  0  0  0  0  0  0
  -25.5650  -33.9420   24.1910 N   0  0  0  0  0  0  0  0  0  0  0  0
  -25.8950  -34.9920   23.4270 C   0  0  0  0  0  0  0  0  0  0  0  0
  -26.5670  -34.8840   22.3980 O   0  0  0  0  0  0  0  0  0  0  0  0
  -24.9760  -34.1010   24.9950 H   0  0  0  0  0  0  0  0  0  0  0  0
  -24.1670  -36.7790   23.0550 C   0  0  0  0  0  1  0  0  0  0  0  0
  -25.4030  -36.3820   23.8760 C   0  0  0  0  0  3  0  0  0  0  0  0
  -27.5310  -37.2760   24.7130 C   0  0  0  0  0  1  0  0  0  0  0  0
  -26.4340  -37.4380   23.7620 N   0  0  0  0  0  0  0  0  0  0  0  0
  -26.0240  -38.3570   23.9030 H   0  0  0  0  0  0  0  0  0  0  0  0
  -26.3830  -31.7890   25.1700 C   0  0  1  0  0  0  0  0  0  0  0  0
  -25.2770  -31.5610   26.2280 C   0  0  0  0  0  1  0  0  0  0  0  0
  -26.9760  -30.4090   24.8040 C   0  0  0  0  0  1  0  0  0  0  0  0
  -27.5240  -32.5940   25.8350 C   0  0  0  0  0  1  0  0  0  0  0  0
  1  6  2  0
  2  4  1  0
  3  2  1  0
  3  5  1  0
  4  1  1  0
  4 49  1  0
  5 12  1  0
  5  1  1  0
  7 11  1  0
  9  7  2  0
  9 12  1  0
 10  8  1  0
 11  8  2  0
 12 10  2  0
 13 11  1  0
 14 19  1  0
 15 16  1  0
 15 14  1  0
 17 16  1  0
 17 24  1  0
 17 18  1  0
 19 13  1  0
 19 18  1  0
 20 13  2  0
 21 22  2  0
 22 41  1  0
 23 22  1  0
 23 26  1  0
 24 21  1  0
 24 25  1  0
 25 23  2  0
 26 27  1  0
 27 28  2  0
 29 32  1  0
 29 28  1  0
 30 29  2  0
 31 30  1  0
 31 26  2  0
 32 33  1  0
 33 34  1  0
 34 35  2  0
 36 35  1  0
 36 40  1  0
 37 36  2  0
 38 33  2  0
 38 37  1  0
 39 38  1  0
 41 42  1  0
 42 45  1  0
 42 44  1  0
 43 41  2  0
 46 47  1  0
 46 21  1  0
 48 46  1  0
 50 52  1  0
 50 49  1  0
 51 62  2  0
 52 57  1  0
 53 61  1  0
 53 63  1  0
 54 60  1  0
 54 56  1  0
 55 61  1  0
 56 57  2  0
 56 55  1  0
 58 52  2  0
 59 58  1  0
 59 54  2  0
 60 53  1  0
 61 51  1  0
 63 65  2  0
 64 63  1  0
 66 64  1  0
 67 76  2  0
 67 72  1  0
 68 64  1  0
 68 72  1  0
 69 68  1  0
 70 71  1  0
 70 69  1  0
 71 67  1  0
 72 73  2  0
 73 74  1  0
 75 74  2  0
 76 75  1  0
 77 51  1  0
 77 78  1  0
 77 87  1  0
 78 81  1  0
 79 83  1  0
 79 78  1  0
 80 79  2  0
 83 82  1  0
 85 83  1  0
 85 86  1  0
 85 84  1  0
 87 90  1  1
 87 88  1  0
 89 87  1  0
M  ISO  4  11 100  13 100  49 101  50 101
M  END
>  <TORSDO>  (91) 
F 18

>  <SCORE>  (91) 
-14.942

>  <name>  (91) 
91

>  <ligand_id>  (91) 
91

>  <original_smiles>  (91) 
[H]c1c([H])c([H])c2c(c1[H])C([H])([H])C([H])([H])C([H])([H])C2([H])N([H])C(=O)C1([H])N(C(=O)C([H])(N([H])C(=O)C([H])(N([H])C([H])([H])[H])C([H])([H])[H])C(C([H])([H])[H])(C([H])([H])[H])C([H])([H])[H])C([H])([H])c2c([H])c(OC([H])([H])C3([H])C(=O)N(c4c([H])c([H])c(C(=O)N5C([H])([H])C([H])([H])C([H])([H])C([H])(n6nc(-c7c([H])c([H])c(Oc8c([H])c([H])c(F)c([H])c8F)c([H])c7[H])c(C(=O)N([H])[H])c6N([H])[H])C5([H])[H])c([H])c4[H])C([H])([H])C3([H])[H])c([H])c([H])c2C1([H])[H]

>  <smiles>  (91) 
[H]c1c([H])c([H])c2c(c1[H])C([H])([H])C([H])([H])C([H])([H])C2([H])N([H])C(=O)C1([H])N(C(=O)C([H])(N([H])C(=O)C([H])(N([H])C([H])([H])[H])C([H])([H])[H])C(C([H])([H])[H])(C([H])([H])[H])C([H])([H])[H])C([H])([H])c2c([H])c(OC([H])([H])C3([H])C(=O)N(c4c([H])c([H])c(C(=O)N5C([H])([H])C([H])([H])C([H])([H])C([H])(n6nc(-c7c([H])c([H])c(Oc8c([H])c([H])c(F)c([H])c8F)c([H])c7[H])c(C(=O)N([H])[H])c6N([H])[H])C5([H])[H])c([H])c4[H])C([H])([H])C3([H])[H])c([H])c([H])c2C1([H])[H]

$$$$
92:0:0
     RDKit          3D

 92100  0  0  1  0  0  0  0  0999 V2000
  -29.8460  -19.4890   21.4870 C   0  0  0  0  0  3  0  0  0  0  0  0
  -30.0280  -18.0840   21.6740 C   0  0  0  0  0  3  0  0  0  0  0  0
  -29.9240  -20.0830   20.2050 C   0  0  0  0  0  0  0  0  0  0  0  0
  -30.2850  -17.1630   20.6060 C   0  0  0  0  0  0  0  0  0  0  0  0
  -30.1770  -19.1800   19.1330 C   0  0  0  0  0  0  0  0  0  0  0  0
  -30.3330  -17.7680   19.3160 C   0  0  0  0  0  0  0  0  0  0  0  0
  -30.2680  -19.6830   17.8760 F   0  0  0  0  0  0  0  0  0  0  0  0
  -30.5170  -17.0020   18.2140 F   0  0  0  0  0  0  0  0  0  0  0  0
  -30.9160  -14.7510   19.9690 C   0  0  0  0  0  0  0  0  0  0  0  0
  -30.5360  -12.6060   18.7330 C   0  0  0  0  0  2  0  0  0  0  0  0
  -29.4850  -12.7690   17.6130 C   0  0  0  0  0  2  0  0  0  0  0  0
  -28.0620  -12.5660   18.1640 C   0  0  0  0  0  2  0  0  0  0  0  0
  -27.8130  -13.3790   19.4590 C   0  0  0  0  0  3  0  0  0  0  0  0
  -28.9580  -13.1810   20.4690 C   0  0  0  0  0  2  0  0  0  0  0  0
  -30.2230  -13.5680   19.8170 N   0  0  0  0  0  0  0  0  0  0  0  0
  -31.9450  -14.9540   19.3180 O   0  0  0  0  0  0  0  0  0  0  0  0
  -30.5230  -15.2970   22.2770 C   0  0  0  0  0  1  0  0  0  0  0  0
  -30.4520  -15.7030   20.8610 N   0  0  0  0  0  0  0  0  0  0  0  0
  -25.4950  -13.9380   20.4140 C   0  0  0  0  0  0  0  0  0  0  0  0
  -24.4680  -13.1470   20.8500 C   0  0  0  0  0  0  0  0  0  0  0  0
  -24.9270  -11.7990   20.7290 C   0  0  0  0  0  0  0  0  0  0  0  0
  -26.5140  -13.0720   20.0510 N   0  0  0  0  0  0  0  0  0  0  0  0
  -26.1840  -11.7790   20.3000 N   0  0  0  0  0  0  0  0  0  0  0  0
  -24.2240  -10.5260   20.9400 C   0  0  0  0  0  0  0  0  0  0  0  0
  -24.6660   -9.5880   21.8980 C   0  0  0  0  0  3  0  0  0  0  0  0
  -23.9620   -8.3800   22.0940 C   0  0  0  0  0  3  0  0  0  0  0  0
  -22.8040   -8.1020   21.3300 C   0  0  0  0  0  0  0  0  0  0  0  0
  -22.3820   -9.0290   20.3590 C   0  0  0  0  0  3  0  0  0  0  0  0
  -23.0870  -10.2290   20.1630 C   0  0  0  0  0  3  0  0  0  0  0  0
  -22.0720   -6.9440   21.4320 O   0  0  0  0  0  0  0  0  0  0  0  0
  -21.9110   -6.2990   22.6320 C   0  0  0  0  0  0  0  0  0  0  0  0
  -21.3220   -6.9360   23.7460 C   0  0  0  0  0  3  0  0  0  0  0  0
  -21.1100   -6.2140   24.9380 C   0  0  0  0  0  3  0  0  0  0  0  0
  -21.4770   -4.8570   25.0160 C   0  0  0  0  0  0  0  0  0  0  0  0
  -22.0590   -4.2210   23.9050 C   0  0  0  0  0  3  0  0  0  0  0  0
  -22.2710   -4.9400   22.7150 C   0  0  0  0  0  0  0  0  0  0  0  0
  -22.8130   -4.3150   21.6420 F   0  0  0  0  0  0  0  0  0  0  0  0
  -21.2670   -4.1620   26.1580 F   0  0  0  0  0  0  0  0  0  0  0  0
  -23.1000  -13.6050   21.2700 C   0  0  0  0  0  0  0  0  0  0  0  0
  -22.4600  -12.8780   22.1790 N   0  0  0  0  0  0  0  0  0  0  0  0
  -22.6100  -14.6430   20.8260 O   0  0  0  0  0  0  0  0  0  0  0  0
  -22.8710  -12.0370   22.5560 H   0  0  0  0  0  0  0  0  0  0  0  0
  -21.5480  -13.1670   22.5030 H   0  0  0  0  0  0  0  0  0  0  0  0
  -25.6430  -15.3150   20.2760 N   0  0  0  0  0  0  0  0  0  0  0  0
  -24.8960  -15.9670   20.4860 H   0  0  0  0  0  0  0  0  0  0  0  0
  -26.4690  -15.7670   19.9010 H   0  0  0  0  0  0  0  0  0  0  0  0
  -29.7980  -21.4920   19.9360 N   0  0  0  0  0  0  0  0  0  0  0  0
  -29.9990  -21.7500   18.9720 H   0  0  0  0  0  0  0  0  0  0  0  0
  -29.1200  -22.5500   20.7490 C   0  0  0  0  0  2  0  0  0  0  0  0
  -29.2120  -24.0340   20.1480 C   0  0  0  0  0  3  0  0  0  0  0  0
  -28.3830  -25.2120   20.8360 C   0  0  0  0  0  3  0  0  0  0  0  0
  -28.5340  -26.5960   20.3220 O   0  0  0  0  0  0  0  0  0  0  0  0
  -24.6850  -31.9330   23.2650 C   0  0  0  0  0  0  0  0  0  0  0  0
  -27.3980  -27.4140   20.2800 C   0  0  0  0  0  0  0  0  0  0  0  0
  -23.5140  -30.5150   21.6120 C   0  0  0  0  0  3  0  0  0  0  0  0
  -25.0040  -28.9760   20.2120 C   0  0  0  0  0  0  0  0  0  0  0  0
  -26.0480  -30.8760   21.4510 C   0  0  0  0  0  2  0  0  0  0  0  0
  -26.1580  -29.4960   20.8150 C   0  0  0  0  0  0  0  0  0  0  0  0
  -27.3590  -28.7300   20.8330 C   0  0  0  0  0  3  0  0  0  0  0  0
  -26.2260  -26.9380   19.6520 C   0  0  0  0  0  3  0  0  0  0  0  0
  -25.0400  -27.7020   19.6200 C   0  0  0  0  0  3  0  0  0  0  0  0
  -23.7510  -29.8300   20.2390 C   0  0  0  0  0  2  0  0  0  0  0  0
  -24.7670  -31.1270   22.1670 N   0  0  0  0  0  0  0  0  0  0  0  0
  -23.5930  -32.1950   23.7900 O   0  0  0  0  0  0  0  0  0  0  0  0
  -22.8550  -29.4950   22.5700 C   0  0  0  0  0  0  0  0  0  0  0  0
  -21.5330  -29.3020   22.4310 N   0  0  0  0  0  0  0  0  0  0  0  0
  -23.5330  -28.8800   23.3970 O   0  0  0  0  0  0  0  0  0  0  0  0
  -21.0450  -29.8550   21.7400 H   0  0  0  0  0  0  0  0  0  0  0  0
  -18.1650  -28.0680   22.8920 C   0  0  0  0  0  0  0  0  0  0  0  0
  -20.7160  -28.3550   23.1930 C   0  0  0  0  0  3  0  0  0  0  0  0
  -20.8410  -26.9230   22.6210 C   0  0  0  0  0  2  0  0  0  0  0  0
  -19.7530  -26.5870   21.5960 C   0  0  0  0  0  2  0  0  0  0  0  0
  -18.3620  -26.7190   22.2210 C   0  0  0  0  0  2  0  0  0  0  0  0
  -19.2700  -28.8430   23.3340 C   0  0  0  0  0  0  0  0  0  0  0  0
  -19.0290  -30.1050   23.9180 C   0  0  0  0  0  3  0  0  0  0  0  0
  -17.7160  -30.5910   24.0700 C   0  0  0  0  0  3  0  0  0  0  0  0
  -16.6250  -29.8120   23.6460 C   0  0  0  0  0  3  0  0  0  0  0  0
  -16.8510  -28.5530   23.0610 C   0  0  0  0  0  3  0  0  0  0  0  0
  -25.9530  -32.5800   23.9010 C   0  0  0  0  0  3  0  0  0  0  0  0
  -26.4750  -31.8080   25.1750 C   0  0  1  0  0  0  0  0  0  0  0  0
  -25.3760  -31.5220   26.2250 C   0  0  0  0  0  1  0  0  0  0  0  0
  -27.1050  -30.4550   24.7710 C   0  0  0  0  0  1  0  0  0  0  0  0
  -27.5920  -32.6280   25.8630 C   0  0  0  0  0  1  0  0  0  0  0  0
  -25.6210  -33.9710   24.2410 N   0  0  0  0  0  0  0  0  0  0  0  0
  -25.9420  -35.0360   23.4950 C   0  0  0  0  0  0  0  0  0  0  0  0
  -26.6200  -34.9530   22.4660 O   0  0  0  0  0  0  0  0  0  0  0  0
  -25.0200  -34.1110   25.0410 H   0  0  0  0  0  0  0  0  0  0  0  0
  -24.1880  -36.8060   23.1500 C   0  0  0  0  0  1  0  0  0  0  0  0
  -25.4310  -36.4120   23.9630 C   0  0  0  0  0  3  0  0  0  0  0  0
  -27.5510  -37.3190   24.8100 C   0  0  0  0  0  1  0  0  0  0  0  0
  -26.4460  -37.4850   23.8700 N   0  0  0  0  0  0  0  0  0  0  0  0
  -26.0230  -38.3930   24.0380 H   0  0  0  0  0  0  0  0  0  0  0  0
  1  2  1  0
  3  1  2  0
  4 18  1  0
  4  2  2  0
  5  6  2  0
  5  3  1  0
  6  4  1  0
  7  5  1  0
  8  6  1  0
  9 18  1  0
 10 15  1  0
 11 12  1  0
 11 10  1  0
 13 12  1  0
 13 22  1  0
 13 14  1  0
 15  9  1  0
 15 14  1  0
 16  9  2  0
 18 17  1  0
 19 20  2  0
 20 39  1  0
 21 20  1  0
 21 24  1  0
 22 23  1  0
 22 19  1  0
 23 21  2  0
 24 25  1  0
 25 26  2  0
 27 30  1  0
 27 26  1  0
 28 27  2  0
 29 28  1  0
 29 24  2  0
 30 31  1  0
 31 36  2  0
 31 32  1  0
 32 33  2  0
 33 34  1  0
 34 38  1  0
 35 34  2  0
 36 35  1  0
 37 36  1  0
 39 40  1  0
 40 43  1  0
 40 42  1  0
 41 39  2  0
 44 19  1  0
 44 45  1  0
 46 44  1  0
 47  3  1  0
 47 49  1  0
 48 47  1  0
 50 49  1  0
 50 51  2  0
 52 51  1  0
 53 64  2  0
 54 52  1  0
 54 59  1  0
 55 63  1  0
 55 65  1  0
 56 62  1  0
 56 58  1  0
 57 63  1  0
 58 59  2  0
 58 57  1  0
 60 54  2  0
 61 60  1  0
 61 56  2  0
 62 55  1  0
 63 53  1  0
 65 67  2  0
 66 65  1  0
 68 66  1  0
 69 78  2  0
 69 74  1  0
 70 66  1  0
 70 74  1  0
 71 70  1  0
 72 73  1  0
 72 71  1  0
 73 69  1  0
 74 75  2  0
 75 76  1  0
 77 76  2  0
 78 77  1  0
 79 53  1  0
 79 84  1  0
 79 80  1  0
 80 83  1  1
 80 81  1  0
 82 80  1  0
 84 87  1  0
 85 89  1  0
 85 84  1  0
 86 85  2  0
 89 88  1  0
 91 89  1  0
 91 92  1  0
 91 90  1  0
M  ISO  4   9 100  18 100  51 101  52 101
M  END
>  <TORSDO>  (92) 
F 20

>  <SCORE>  (92) 
-12.356

>  <name>  (92) 
92

>  <ligand_id>  (92) 
92

>  <original_smiles>  (92) 
[H]c1c([H])c([H])c2c(c1[H])C([H])([H])C([H])([H])C([H])([H])C2([H])N([H])C(=O)C1([H])N(C(=O)C([H])(N([H])C(=O)C([H])(N([H])C([H])([H])[H])C([H])([H])[H])C(C([H])([H])[H])(C([H])([H])[H])C([H])([H])[H])C([H])([H])c2c([H])c(OC([H])([H])C([H])([H])C([H])([H])N([H])c3c([H])c([H])c(N(C(=O)N4C([H])([H])C([H])([H])C([H])([H])C([H])(n5nc(-c6c([H])c([H])c(Oc7c([H])c([H])c(F)c([H])c7F)c([H])c6[H])c(C(=O)N([H])[H])c5N([H])[H])C4([H])[H])C([H])([H])[H])c(F)c3F)c([H])c([H])c2C1([H])[H]

>  <smiles>  (92) 
[H]c1c([H])c([H])c2c(c1[H])C([H])([H])C([H])([H])C([H])([H])C2([H])N([H])C(=O)C1([H])N(C(=O)C([H])(N([H])C(=O)C([H])(N([H])C([H])([H])[H])C([H])([H])[H])C(C([H])([H])[H])(C([H])([H])[H])C([H])([H])[H])C([H])([H])c2c([H])c(OC([H])([H])C([H])([H])C([H])([H])N([H])c3c([H])c([H])c(N(C(=O)N4C([H])([H])C([H])([H])C([H])([H])C([H])(n5nc(-c6c([H])c([H])c(Oc7c([H])c([H])c(F)c([H])c7F)c([H])c6[H])c(C(=O)N([H])[H])c5N([H])[H])C4([H])[H])C([H])([H])[H])c(F)c3F)c([H])c([H])c2C1([H])[H]

$$$$
93:0:0
     RDKit          3D

 94102  0  0  1  0  0  0  0  0999 V2000
  -28.5360  -22.3900   19.8740 N   0  0  1  0  0  4  0  0  0  0  0  0
  -27.6700  -21.9960   20.2130 H   0  0  0  0  0  0  0  0  0  0  0  0
  -27.5580  -21.0750   17.9430 C   0  0  0  0  0  1  0  0  0  0  0  0
  -29.7040  -22.4100   17.6210 C   0  0  0  0  0  1  0  0  0  0  0  0
  -28.3740  -22.3050   18.3880 C   0  0  0  0  0  3  0  0  0  0  0  0
  -29.5790  -21.4500   20.4790 C   0  0  0  0  0  2  0  0  0  0  0  0
  -30.6660  -19.2760   19.4490 C   0  0  0  0  0  3  0  0  0  0  0  0
  -28.7410  -18.9910   20.8520 C   0  0  0  0  0  3  0  0  0  0  0  0
  -30.8640  -17.8600   19.4150 C   0  0  0  0  0  3  0  0  0  0  0  0
  -28.9480  -17.5790   20.8330 C   0  0  0  0  0  3  0  0  0  0  0  0
  -29.6210  -19.8910   20.1990 C   0  0  0  0  0  0  0  0  0  0  0  0
  -30.0430  -16.9630   20.1570 C   0  0  0  0  0  0  0  0  0  0  0  0
  -30.7310  -14.6180   19.4140 C   0  0  0  0  0  0  0  0  0  0  0  0
  -30.2120  -12.5160   18.1650 C   0  0  0  0  0  2  0  0  0  0  0  0
  -29.0950  -12.7380   17.1230 C   0  0  0  0  0  2  0  0  0  0  0  0
  -27.7060  -12.5680   17.7670 C   0  0  0  0  0  2  0  0  0  0  0  0
  -27.5710  -13.3510   19.0990 C   0  0  0  0  0  3  0  0  0  0  0  0
  -28.7790  -13.0990   20.0230 C   0  0  0  0  0  2  0  0  0  0  0  0
  -30.0000  -13.4590   19.2840 N   0  0  0  0  0  0  0  0  0  0  0  0
  -31.7120  -14.8200   18.6900 O   0  0  0  0  0  0  0  0  0  0  0  0
  -30.3610  -15.5350   20.3820 N   0  0  0  0  0  0  0  0  0  0  0  0
  -25.3340  -13.9420   20.2130 C   0  0  0  0  0  0  0  0  0  0  0  0
  -24.3220  -13.1650   20.7080 C   0  0  0  0  0  0  0  0  0  0  0  0
  -24.7460  -11.8110   20.5410 C   0  0  0  0  0  0  0  0  0  0  0  0
  -26.3090  -13.0610   19.7740 N   0  0  0  0  0  0  0  0  0  0  0  0
  -25.9720  -11.7710   20.0300 N   0  0  0  0  0  0  0  0  0  0  0  0
  -24.0330  -10.5500   20.7840 C   0  0  0  0  0  0  0  0  0  0  0  0
  -24.5300   -9.5830   21.6840 C   0  0  0  0  0  3  0  0  0  0  0  0
  -23.8180   -8.3850   21.9140 C   0  0  0  0  0  3  0  0  0  0  0  0
  -22.5940   -8.1480   21.2450 C   0  0  0  0  0  0  0  0  0  0  0  0
  -22.1140   -9.1040   20.3350 C   0  0  0  0  0  3  0  0  0  0  0  0
  -22.8270  -10.2940   20.1020 C   0  0  0  0  0  3  0  0  0  0  0  0
  -21.8450   -7.0040   21.3890 O   0  0  0  0  0  0  0  0  0  0  0  0
  -21.8270   -6.2980   22.5650 C   0  0  0  0  0  0  0  0  0  0  0  0
  -21.4370   -6.8950   23.7840 C   0  0  0  0  0  3  0  0  0  0  0  0
  -21.3630   -6.1160   24.9560 C   0  0  0  0  0  3  0  0  0  0  0  0
  -21.6690   -4.7420   24.9110 C   0  0  0  0  0  0  0  0  0  0  0  0
  -22.0510   -4.1460   23.6960 C   0  0  0  0  0  3  0  0  0  0  0  0
  -22.1260   -4.9210   22.5270 C   0  0  0  0  0  0  0  0  0  0  0  0
  -22.4740   -4.3360   21.3540 F   0  0  0  0  0  0  0  0  0  0  0  0
  -21.5910   -3.9930   26.0350 F   0  0  0  0  0  0  0  0  0  0  0  0
  -22.9930  -13.6450   21.2180 C   0  0  0  0  0  0  0  0  0  0  0  0
  -22.4160  -12.9440   22.1880 N   0  0  0  0  0  0  0  0  0  0  0  0
  -22.4810  -14.6770   20.7900 O   0  0  0  0  0  0  0  0  0  0  0  0
  -22.8460  -12.1090   22.5560 H   0  0  0  0  0  0  0  0  0  0  0  0
  -21.5290  -13.2490   22.5660 H   0  0  0  0  0  0  0  0  0  0  0  0
  -25.5010  -15.3180   20.0810 N   0  0  0  0  0  0  0  0  0  0  0  0
  -24.8010  -15.9850   20.3870 H   0  0  0  0  0  0  0  0  0  0  0  0
  -26.3170  -15.7560   19.6750 H   0  0  0  0  0  0  0  0  0  0  0  0
  -31.1290  -14.1010   22.2700 C   0  0  0  0  0  2  0  0  0  0  0  0
  -30.6910  -15.2590   21.7330 C   0  0  0  0  0  3  0  0  0  0  0  0
  -28.4900  -23.8160   20.4850 C   0  0  0  0  0  3  0  0  0  0  0  0
  -28.5520  -25.1450   19.5790 C   0  0  0  0  0  3  0  0  0  0  0  0
  -28.4450  -26.4950   20.1990 O   0  0  0  0  0  0  0  0  0  0  0  0
  -24.7100  -31.8900   23.1880 C   0  0  0  0  0  0  0  0  0  0  0  0
  -27.2990  -27.3060   20.1360 C   0  0  0  0  0  0  0  0  0  0  0  0
  -23.4960  -30.4870   21.5600 C   0  0  0  0  0  3  0  0  0  0  0  0
  -24.9350  -28.9260   20.1340 C   0  0  0  0  0  0  0  0  0  0  0  0
  -26.0350  -30.7980   21.3640 C   0  0  0  0  0  2  0  0  0  0  0  0
  -26.1070  -29.4170   20.7200 C   0  0  0  0  0  0  0  0  0  0  0  0
  -27.2890  -28.6170   20.7100 C   0  0  0  0  0  3  0  0  0  0  0  0
  -26.0960  -26.8640   19.5390 C   0  0  0  0  0  3  0  0  0  0  0  0
  -24.9320  -27.6570   19.5360 C   0  0  0  0  0  3  0  0  0  0  0  0
  -23.7020  -29.8050   20.1820 C   0  0  0  0  0  2  0  0  0  0  0  0
  -24.7670  -31.0770   22.0930 N   0  0  0  0  0  0  0  0  0  0  0  0
  -23.6300  -32.1720   23.7290 O   0  0  0  0  0  0  0  0  0  0  0  0
  -22.8370  -29.4750   22.5280 C   0  0  0  0  0  0  0  0  0  0  0  0
  -21.5110  -29.2940   22.4030 N   0  0  0  0  0  0  0  0  0  0  0  0
  -23.5180  -28.8570   23.3500 O   0  0  0  0  0  0  0  0  0  0  0  0
  -21.0200  -29.8460   21.7140 H   0  0  0  0  0  0  0  0  0  0  0  0
  -18.1400  -28.0770   22.8940 C   0  0  0  0  0  0  0  0  0  0  0  0
  -20.6940  -28.3620   23.1810 C   0  0  0  0  0  3  0  0  0  0  0  0
  -20.8140  -26.9230   22.6280 C   0  0  0  0  0  2  0  0  0  0  0  0
  -19.7240  -26.5750   21.6090 C   0  0  0  0  0  2  0  0  0  0  0  0
  -18.3340  -26.7190   22.2390 C   0  0  0  0  0  2  0  0  0  0  0  0
  -19.2490  -28.8550   23.3220 C   0  0  0  0  0  0  0  0  0  0  0  0
  -19.0140  -30.1240   23.8920 C   0  0  0  0  0  3  0  0  0  0  0  0
  -17.7040  -30.6170   24.0390 C   0  0  0  0  0  3  0  0  0  0  0  0
  -16.6090  -29.8370   23.6290 C   0  0  0  0  0  3  0  0  0  0  0  0
  -16.8300  -28.5680   23.0610 C   0  0  0  0  0  3  0  0  0  0  0  0
  -25.9970  -32.5240   23.8010 C   0  0  0  0  0  3  0  0  0  0  0  0
  -25.6780  -33.9100   24.1700 N   0  0  0  0  0  0  0  0  0  0  0  0
  -25.9930  -34.9870   23.4370 C   0  0  0  0  0  0  0  0  0  0  0  0
  -26.6510  -34.9180   22.3960 O   0  0  0  0  0  0  0  0  0  0  0  0
  -25.0910  -34.0370   24.9820 H   0  0  0  0  0  0  0  0  0  0  0  0
  -24.2600  -36.7850   23.1350 C   0  0  0  0  0  1  0  0  0  0  0  0
  -25.4980  -36.3570   23.9390 C   0  0  0  0  0  3  0  0  0  0  0  0
  -27.6250  -37.2220   24.8100 C   0  0  0  0  0  1  0  0  0  0  0  0
  -26.5270  -37.4170   23.8660 N   0  0  0  0  0  0  0  0  0  0  0  0
  -26.1170  -38.3300   24.0440 H   0  0  0  0  0  0  0  0  0  0  0  0
  -26.5460  -31.7310   25.0500 C   0  0  1  0  0  0  0  0  0  0  0  0
  -25.4740  -31.4470   26.1290 C   0  0  0  0  0  1  0  0  0  0  0  0
  -27.1440  -30.3730   24.6160 C   0  0  0  0  0  1  0  0  0  0  0  0
  -27.6930  -32.5280   25.7160 C   0  0  0  0  0  1  0  0  0  0  0  0
  1  2  1  1
  1  6  1  0
  1 52  1  0
  3  5  1  0
  4  5  1  0
  5  1  1  0
  7 11  1  0
  9  7  2  0
  9 12  1  0
 10  8  1  0
 11  6  1  0
 11  8  2  0
 12 21  1  0
 12 10  2  0
 13 21  1  0
 14 19  1  0
 15 16  1  0
 15 14  1  0
 17 16  1  0
 17 25  1  0
 17 18  1  0
 19 13  1  0
 19 18  1  0
 20 13  2  0
 21 51  1  0
 22 23  2  0
 23 42  1  0
 24 23  1  0
 24 27  1  0
 25 26  1  0
 25 22  1  0
 26 24  2  0
 27 28  1  0
 28 29  2  0
 30 33  1  0
 30 29  1  0
 31 30  2  0
 32 31  1  0
 32 27  2  0
 33 34  1  0
 34 35  1  0
 35 36  2  0
 37 36  1  0
 37 41  1  0
 38 37  2  0
 39 34  2  0
 39 38  1  0
 40 39  1  0
 42 43  1  0
 43 45  1  0
 43 46  1  0
 44 42  2  0
 47 22  1  0
 47 48  1  0
 49 47  1  0
 51 50  2  0
 53 54  1  0
 53 52  2  0
 55 66  2  0
 56 54  1  0
 56 61  1  0
 57 65  1  0
 57 67  1  0
 58 64  1  0
 58 60  1  0
 59 65  1  0
 60 59  1  0
 61 60  2  0
 62 56  2  0
 63 62  1  0
 63 58  2  0
 64 57  1  0
 65 55  1  0
 67 69  2  0
 68 67  1  0
 70 68  1  0
 71 80  2  0
 71 76  1  0
 72 68  1  0
 72 76  1  0
 73 72  1  0
 74 75  1  0
 74 73  1  0
 75 71  1  0
 76 77  2  0
 77 78  1  0
 79 78  2  0
 80 79  1  0
 81 55  1  0
 81 82  1  0
 81 91  1  0
 82 85  1  0
 83 87  1  0
 83 82  1  0
 84 83  2  0
 87 86  1  0
 89 87  1  0
 89 90  1  0
 89 88  1  0
 91 94  1  1
 91 92  1  0
 93 91  1  0
M  ISO  4  13 100  21 100  53 101  54 101
M  END
>  <TORSDO>  (93) 
F 22

>  <SCORE>  (93) 
-10.738

>  <name>  (93) 
93

>  <ligand_id>  (93) 
93

>  <original_smiles>  (93) 
[H]C([H])=C([H])N(C(=O)N1C([H])([H])C([H])([H])C([H])([H])C([H])(n2nc(-c3c([H])c([H])c(Oc4c([H])c([H])c(F)c([H])c4F)c([H])c3[H])c(C(=O)N([H])[H])c2N([H])[H])C1([H])[H])c1c([H])c([H])c(C([H])([H])[N+]([H])(C([H])([H])C([H])([H])Oc2c([H])c([H])c3c(c2[H])C([H])([H])N(C(=O)C([H])(N([H])C(=O)C([H])(N([H])C([H])([H])[H])C([H])([H])[H])C(C([H])([H])[H])(C([H])([H])[H])C([H])([H])[H])C([H])(C(=O)N([H])C2([H])c4c([H])c([H])c([H])c([H])c4C([H])([H])C([H])([H])C2([H])[H])C3([H])[H])C([H])(C([H])([H])[H])C([H])([H])[H])c([H])c1[H]

>  <smiles>  (93) 
[H]C([H])=C([H])N(C(=O)N1C([H])([H])C([H])([H])C([H])([H])C([H])(n2nc(-c3c([H])c([H])c(Oc4c([H])c([H])c(F)c([H])c4F)c([H])c3[H])c(C(=O)N([H])[H])c2N([H])[H])C1([H])[H])c1c([H])c([H])c(C([H])([H])[N+]([H])(C([H])([H])C([H])([H])Oc2c([H])c([H])c3c(c2[H])C([H])([H])N(C(=O)C([H])(N([H])C(=O)C([H])(N([H])C([H])([H])[H])C([H])([H])[H])C(C([H])([H])[H])(C([H])([H])[H])C([H])([H])[H])C([H])(C(=O)N([H])C2([H])c4c([H])c([H])c([H])c([H])c4C([H])([H])C([H])([H])C2([H])[H])C3([H])[H])C([H])(C([H])([H])[H])C([H])([H])[H])c([H])c1[H]

$$$$
94:0:0
     RDKit          3D

 95103  0  0  1  0  0  0  0  0999 V2000
  -31.5360  -20.7720   19.3690 C   0  0  0  0  0  3  0  0  0  0  0  0
  -31.7680  -22.1530   19.2140 C   0  0  0  0  0  3  0  0  0  0  0  0
  -30.7170  -21.1560   21.6330 C   0  0  0  0  0  3  0  0  0  0  0  0
  -30.9960  -20.2730   20.5710 C   0  0  0  0  0  0  0  0  0  0  0  0
  -31.4560  -23.0460   20.2630 C   0  0  0  0  0  0  0  0  0  0  0  0
  -30.9450  -22.5390   21.4790 C   0  0  0  0  0  0  0  0  0  0  0  0
  -30.6390  -23.3840   22.4920 F   0  0  0  0  0  0  0  0  0  0  0  0
  -30.6370  -18.8660   20.6630 C   0  0  0  0  0  0  0  0  0  0  0  0
  -30.1850  -17.7370   20.5750 C   0  0  0  0  0  0  0  0  0  0  0  0
  -29.4550  -16.5050   20.2380 C   0  0  0  0  0  2  0  0  0  0  0  0
  -30.5760  -14.3370   20.2420 C   0  0  0  0  0  0  0  0  0  0  0  0
  -30.2430  -12.2090   19.0560 C   0  0  0  0  0  2  0  0  0  0  0  0
  -29.2470  -12.4630   17.9040 C   0  0  0  0  0  2  0  0  0  0  0  0
  -27.7900  -12.3250   18.3920 C   0  0  0  0  0  2  0  0  0  0  0  0
  -27.5190  -13.1240   19.6950 C   0  0  0  0  0  3  0  0  0  0  0  0
  -28.6180  -12.8360   20.7470 C   0  0  0  0  0  2  0  0  0  0  0  0
  -29.9310  -13.1450   20.1450 N   0  0  0  0  0  0  0  0  0  0  0  0
  -31.6130  -14.6110   19.6320 O   0  0  0  0  0  0  0  0  0  0  0  0
  -29.8840  -15.2750   20.8990 N   0  0  0  0  0  0  0  0  0  0  0  0
  -29.1940  -14.8930   21.5300 H   0  0  0  0  0  0  0  0  0  0  0  0
  -25.1470  -13.7310   20.5020 C   0  0  0  0  0  0  0  0  0  0  0  0
  -24.0940  -12.9550   20.9080 C   0  0  0  0  0  0  0  0  0  0  0  0
  -24.5510  -11.6030   20.8370 C   0  0  0  0  0  0  0  0  0  0  0  0
  -26.1810  -12.8510   20.2180 N   0  0  0  0  0  0  0  0  0  0  0  0
  -25.8260  -11.5660   20.4710 N   0  0  0  0  0  0  0  0  0  0  0  0
  -23.8330  -10.3380   21.0410 C   0  0  0  0  0  0  0  0  0  0  0  0
  -24.3030   -9.3590   21.9440 C   0  0  0  0  0  3  0  0  0  0  0  0
  -23.5860   -8.1580   22.1350 C   0  0  0  0  0  3  0  0  0  0  0  0
  -22.3870   -7.9270   21.4230 C   0  0  0  0  0  0  0  0  0  0  0  0
  -21.9350   -8.8950   20.5060 C   0  0  0  0  0  3  0  0  0  0  0  0
  -22.6520  -10.0870   20.3140 C   0  0  0  0  0  3  0  0  0  0  0  0
  -21.6370   -6.7800   21.5250 O   0  0  0  0  0  0  0  0  0  0  0  0
  -21.6310   -6.0250   22.6710 C   0  0  0  0  0  0  0  0  0  0  0  0
  -21.2250   -6.5600   23.9130 C   0  0  0  0  0  3  0  0  0  0  0  0
  -21.1670   -5.7300   25.0510 C   0  0  0  0  0  3  0  0  0  0  0  0
  -21.5040   -4.3670   24.9470 C   0  0  0  0  0  0  0  0  0  0  0  0
  -21.9040   -3.8320   23.7110 C   0  0  0  0  0  3  0  0  0  0  0  0
  -21.9630   -4.6590   22.5750 C   0  0  0  0  0  0  0  0  0  0  0  0
  -22.3280   -4.1330   21.3800 F   0  0  0  0  0  0  0  0  0  0  0  0
  -21.4410   -3.5690   26.0390 F   0  0  0  0  0  0  0  0  0  0  0  0
  -22.7110  -13.4270   21.2530 C   0  0  0  0  0  0  0  0  0  0  0  0
  -22.0230  -12.7160   22.1390 N   0  0  0  0  0  0  0  0  0  0  0  0
  -22.2500  -14.4620   20.7700 O   0  0  0  0  0  0  0  0  0  0  0  0
  -22.4100  -11.8800   22.5500 H   0  0  0  0  0  0  0  0  0  0  0  0
  -21.0960  -13.0130   22.4110 H   0  0  0  0  0  0  0  0  0  0  0  0
  -25.3070  -15.1030   20.3370 N   0  0  0  0  0  0  0  0  0  0  0  0
  -24.5470  -15.7580   20.4850 H   0  0  0  0  0  0  0  0  0  0  0  0
  -26.1460  -15.5420   19.9790 H   0  0  0  0  0  0  0  0  0  0  0  0
  -31.6440  -24.5430   20.0720 C   0  0  0  0  0  2  0  0  0  0  0  0
  -30.4100  -25.1670   19.5510 N   0  0  0  0  0  4  0  0  0  0  0  0
  -29.6370  -24.8790   20.1300 H   0  0  0  0  0  0  0  0  0  0  0  0
  -30.2380  -24.8120   18.6240 H   0  0  0  0  0  0  0  0  0  0  0  0
  -30.4290  -26.6480   19.5280 C   0  0  0  0  0  2  0  0  0  0  0  0
  -29.0890  -27.2280   19.0500 C   0  0  0  0  0  2  0  0  0  0  0  0
  -28.0410  -26.6810   19.8520 O   0  0  0  0  0  0  0  0  0  0  0  0
  -24.4800  -31.8800   23.1800 C   0  0  0  0  0  0  0  0  0  0  0  0
  -26.9060  -27.4470   19.9360 C   0  0  0  0  0  0  0  0  0  0  0  0
  -23.1720  -30.5230   21.5740 C   0  0  0  0  0  3  0  0  0  0  0  0
  -24.5310  -28.9630   20.0830 C   0  0  0  0  0  0  0  0  0  0  0  0
  -25.6900  -30.8350   21.2720 C   0  0  0  0  0  2  0  0  0  0  0  0
  -25.7200  -29.4690   20.6220 C   0  0  0  0  0  0  0  0  0  0  0  0
  -26.9100  -28.7170   20.5540 C   0  0  0  0  0  3  0  0  0  0  0  0
  -25.6990  -26.9340   19.4190 C   0  0  0  0  0  3  0  0  0  0  0  0
  -24.5120  -27.6900   19.4830 C   0  0  0  0  0  3  0  0  0  0  0  0
  -23.3070  -29.8440   20.1840 C   0  0  0  0  0  2  0  0  0  0  0  0
  -24.4680  -31.0930   22.0670 N   0  0  0  0  0  0  0  0  0  0  0  0
  -23.4280  -32.1730   23.7660 O   0  0  0  0  0  0  0  0  0  0  0  0
  -22.5350  -29.5130   22.5530 C   0  0  0  0  0  0  0  0  0  0  0  0
  -21.2070  -29.3390   22.4520 N   0  0  0  0  0  0  0  0  0  0  0  0
  -23.2300  -28.8870   23.3580 O   0  0  0  0  0  0  0  0  0  0  0  0
  -20.7090  -29.8910   21.7680 H   0  0  0  0  0  0  0  0  0  0  0  0
  -17.8400  -28.1420   22.9810 C   0  0  0  0  0  0  0  0  0  0  0  0
  -20.3980  -28.4120   23.2410 C   0  0  0  0  0  3  0  0  0  0  0  0
  -20.5040  -26.9720   22.6860 C   0  0  0  0  0  2  0  0  0  0  0  0
  -19.3990  -26.6310   21.6810 C   0  0  0  0  0  2  0  0  0  0  0  0
  -18.0190  -26.7820   22.3280 C   0  0  0  0  0  2  0  0  0  0  0  0
  -18.9580  -28.9140   23.3950 C   0  0  0  0  0  0  0  0  0  0  0  0
  -18.7380  -30.1880   23.9650 C   0  0  0  0  0  3  0  0  0  0  0  0
  -17.4330  -30.6880   24.1260 C   0  0  0  0  0  3  0  0  0  0  0  0
  -16.3290  -29.9130   23.7280 C   0  0  0  0  0  3  0  0  0  0  0  0
  -16.5340  -28.6430   23.1610 C   0  0  0  0  0  3  0  0  0  0  0  0
  -25.8060  -32.4700   23.7520 C   0  0  0  0  0  3  0  0  0  0  0  0
  -25.5470  -33.8680   24.1190 N   0  0  0  0  0  0  0  0  0  0  0  0
  -25.8900  -34.9260   23.3710 C   0  0  0  0  0  0  0  0  0  0  0  0
  -26.5300  -34.8240   22.3210 O   0  0  0  0  0  0  0  0  0  0  0  0
  -24.9740  -34.0230   24.9360 H   0  0  0  0  0  0  0  0  0  0  0  0
  -24.2150  -36.7790   23.0850 C   0  0  0  0  0  1  0  0  0  0  0  0
  -25.4540  -36.3160   23.8680 C   0  0  0  0  0  3  0  0  0  0  0  0
  -27.6260  -37.1120   24.6910 C   0  0  0  0  0  1  0  0  0  0  0  0
  -26.5190  -37.3380   23.7660 N   0  0  0  0  0  0  0  0  0  0  0  0
  -26.1450  -38.2670   23.9400 H   0  0  0  0  0  0  0  0  0  0  0  0
  -26.3650  -31.6620   24.9880 C   0  0  1  0  0  0  0  0  0  0  0  0
  -25.3170  -31.4280   26.1000 C   0  0  0  0  0  1  0  0  0  0  0  0
  -26.8970  -30.2820   24.5390 C   0  0  0  0  0  1  0  0  0  0  0  0
  -27.5640  -32.4180   25.6070 C   0  0  0  0  0  1  0  0  0  0  0  0
  1  4  1  0
  2  1  2  0
  2  5  1  0
  4  8  1  0
  4  3  2  0
  5  6  2  0
  6  3  1  0
  6  7  1  0
  9  8  3  0
 10  9  1  0
 10 19  1  0
 11 19  1  0
 12 17  1  0
 13 14  1  0
 13 12  1  0
 15 14  1  0
 15 24  1  0
 15 16  1  0
 17 11  1  0
 17 16  1  0
 18 11  2  0
 19 20  1  0
 21 22  2  0
 22 41  1  0
 23 22  1  0
 23 26  1  0
 24 25  1  0
 24 21  1  0
 25 23  2  0
 26 27  1  0
 27 28  2  0
 29 32  1  0
 29 28  1  0
 30 29  2  0
 31 30  1  0
 31 26  2  0
 32 33  1  0
 33 34  1  0
 34 35  2  0
 36 35  1  0
 36 40  1  0
 37 36  2  0
 38 33  2  0
 38 37  1  0
 39 38  1  0
 41 42  1  0
 42 45  1  0
 42 44  1  0
 43 41  2  0
 46 47  1  0
 46 21  1  0
 48 46  1  0
 49  5  1  0
 50 49  1  0
 50 51  1  0
 52 50  1  0
 53 50  1  0
 54 53  1  0
 54 55  1  0
 55 57  1  0
 56 67  2  0
 57 62  1  0
 58 66  1  0
 58 68  1  0
 59 65  1  0
 59 61  1  0
 60 66  1  0
 61 60  1  0
 62 61  2  0
 63 64  1  0
 63 57  2  0
 64 59  2  0
 65 58  1  0
 66 56  1  0
 68 70  2  0
 69 68  1  0
 71 69  1  0
 72 81  2  0
 72 77  1  0
 73 69  1  0
 73 77  1  0
 74 73  1  0
 75 76  1  0
 75 74  1  0
 76 72  1  0
 77 78  2  0
 78 79  1  0
 80 79  2  0
 81 80  1  0
 82 56  1  0
 82 83  1  0
 82 92  1  0
 83 86  1  0
 84 88  1  0
 84 83  1  0
 85 84  2  0
 88 87  1  0
 90 88  1  0
 90 91  1  0
 90 89  1  0
 92 95  1  1
 92 93  1  0
 94 92  1  0
M  ISO  4  11 100  19 100  54 101  55 101
M  END
>  <TORSDO>  (94) 
F 22

>  <SCORE>  (94) 
-13.011

>  <name>  (94) 
94

>  <ligand_id>  (94) 
94

>  <original_smiles>  (94) 
[H]c1c([H])c([H])c2c(c1[H])C([H])([H])C([H])([H])C([H])([H])C2([H])N([H])C(=O)C1([H])N(C(=O)C([H])(N([H])C(=O)C([H])(N([H])C([H])([H])[H])C([H])([H])[H])C(C([H])([H])[H])(C([H])([H])[H])C([H])([H])[H])C([H])([H])c2c([H])c(OC([H])([H])C([H])([H])[N+]([H])([H])C([H])([H])c3c([H])c([H])c(C#CC([H])([H])N([H])C(=O)N4C([H])([H])C([H])([H])C([H])([H])C([H])(n5nc(-c6c([H])c([H])c(Oc7c([H])c([H])c(F)c([H])c7F)c([H])c6[H])c(C(=O)N([H])[H])c5N([H])[H])C4([H])[H])c([H])c3F)c([H])c([H])c2C1([H])[H]

>  <smiles>  (94) 
[H]c1c([H])c([H])c2c(c1[H])C([H])([H])C([H])([H])C([H])([H])C2([H])N([H])C(=O)C1([H])N(C(=O)C([H])(N([H])C(=O)C([H])(N([H])C([H])([H])[H])C([H])([H])[H])C(C([H])([H])[H])(C([H])([H])[H])C([H])([H])[H])C([H])([H])c2c([H])c(OC([H])([H])C([H])([H])[N+]([H])([H])C([H])([H])c3c([H])c([H])c(C#CC([H])([H])N([H])C(=O)N4C([H])([H])C([H])([H])C([H])([H])C([H])(n5nc(-c6c([H])c([H])c(Oc7c([H])c([H])c(F)c([H])c7F)c([H])c6[H])c(C(=O)N([H])[H])c5N([H])[H])C4([H])[H])c([H])c3F)c([H])c([H])c2C1([H])[H]

$$$$
